SQV.pdb
     RDKit          3D

 23 22  0  0  1  0  0  0  0  0999 V2000
    9.7230  -12.7711   19.5354 O   0  0  0  0  0  0  0  0  0  0  0  0
    9.4540  -14.1350   19.6631 C   0  0  0  0  0  0  0  0  0  0  0  0
    7.9764  -14.3673   19.8333 C   0  0  2  0  0  0  0  0  0  0  0  0
    7.2617  -13.3443   19.1316 N   0  0  0  0  0  0  0  0  0  0  0  0
    7.5696  -14.4449   21.2449 C   0  0  0  0  0  0  0  0  0  0  0  0
    7.1208  -13.4632   21.8667 O   0  0  0  0  0  0  0  0  0  0  0  0
    7.8740  -19.9516   24.5557 N   0  0  0  0  0  0  0  0  0  0  0  0
    7.2549  -19.0204   25.4246 C   0  0  0  0  0  0  0  0  0  0  0  0
    6.8832  -19.3845   26.5653 O   0  0  0  0  0  0  0  0  0  0  0  0
    7.0511  -17.6419   24.9919 C   0  0  0  0  0  0  0  0  0  0  0  0
    7.4787  -17.3960   23.5694 C   0  0  0  0  0  0  0  0  0  0  0  0
    7.3055  -15.8985   23.2889 C   0  0  2  0  0  0  0  0  0  0  0  0
    7.6867  -15.6731   21.9343 N   0  0  0  0  0  0  0  0  0  0  0  0
    7.9794  -15.0688   24.2749 C   0  0  0  0  0  0  0  0  0  0  0  0
    9.2307  -14.9810   24.2636 O   0  0  0  0  0  0  0  0  0  0  0  0
    7.1444  -11.3896   25.6721 C   0  0  0  0  0  0  0  0  0  0  0  0
    7.2932  -12.3862   26.7988 C   0  0  1  0  0  0  0  0  0  0  0  0
    5.9043  -12.8151   27.2089 C   0  0  0  0  0  0  0  0  0  0  0  0
    8.0303  -13.5948   26.2976 C   0  0  2  0  0  0  0  0  0  0  0  0
    7.3147  -14.3252   25.2833 N   0  0  0  0  0  0  0  0  0  0  0  0
    8.2948  -14.4902   27.4513 C   0  0  0  0  0  0  0  0  0  0  0  0
    9.0425  -14.1408   28.5539 O   0  0  0  0  0  0  0  0  0  0  0  0
    7.8142  -15.6750   27.4616 O   0  0  0  0  0  0  0  0  0  0  0  0
  2  1  1  0
  3  2  1  0
  3  5  1  0
  3  4  1  1
  5  6  2  0
  7  8  1  0
  8  9  2  0
  8 10  1  0
 10 11  1  0
 12 11  1  1
 12 14  1  0
 13 12  1  0
 13  5  1  0
 14 20  1  0
 15 14  2  0
 17 16  1  6
 17 19  1  0
 18 17  1  0
 19 21  1  0
 19 20  1  6
 21 23  2  0
 21 22  1  0
M  END
$$$$
