SQV.pdb
     RDKit          3D

 23 22  0  0  1  0  0  0  0  0999 V2000
    9.0544  -14.4527   18.0792 O   0  0  0  0  0  0  0  0  0  0  0  0
    8.2665  -14.3696   19.2287 C   0  0  0  0  0  0  0  0  0  0  0  0
    8.0335  -15.7392   19.8085 C   0  0  2  0  0  0  0  0  0  0  0  0
    7.1442  -16.4617   18.9502 N   0  0  0  0  0  0  0  0  0  0  0  0
    7.5383  -15.6962   21.1931 C   0  0  0  0  0  0  0  0  0  0  0  0
    6.3979  -15.2877   21.4834 O   0  0  0  0  0  0  0  0  0  0  0  0
    6.1101  -19.5867   25.0508 N   0  0  0  0  0  0  0  0  0  0  0  0
    7.3435  -19.2323   25.6495 C   0  0  0  0  0  0  0  0  0  0  0  0
    7.9581  -20.0690   26.3525 O   0  0  0  0  0  0  0  0  0  0  0  0
    7.8959  -17.8969   25.4477 C   0  0  0  0  0  0  0  0  0  0  0  0
    8.4312  -17.6790   24.0573 C   0  0  0  0  0  0  0  0  0  0  0  0
    7.9832  -16.2840   23.6050 C   0  0  2  0  0  0  0  0  0  0  0  0
    8.3772  -16.1318   22.2439 N   0  0  0  0  0  0  0  0  0  0  0  0
    8.4350  -15.2374   24.5080 C   0  0  0  0  0  0  0  0  0  0  0  0
    9.6555  -14.9550   24.5722 O   0  0  0  0  0  0  0  0  0  0  0  0
    6.9351  -11.6175   25.2970 C   0  0  0  0  0  0  0  0  0  0  0  0
    7.1490  -12.3932   26.5765 C   0  0  1  0  0  0  0  0  0  0  0  0
    5.8118  -12.9608   26.9897 C   0  0  0  0  0  0  0  0  0  0  0  0
    8.0848  -13.5376   26.3121 C   0  0  2  0  0  0  0  0  0  0  0  0
    7.5789  -14.4837   25.3511 N   0  0  0  0  0  0  0  0  0  0  0  0
    8.3425  -14.2346   27.5968 C   0  0  0  0  0  0  0  0  0  0  0  0
    8.0663  -15.5633   27.8319 O   0  0  0  0  0  0  0  0  0  0  0  0
    8.8546  -13.5940   28.5776 O   0  0  0  0  0  0  0  0  0  0  0  0
  2  1  1  0
  3  2  1  0
  3  5  1  0
  3  4  1  6
  5  6  2  0
  7  8  1  0
  8  9  2  0
  8 10  1  0
 10 11  1  0
 12 11  1  1
 12 14  1  0
 13 12  1  0
 13  5  1  0
 14 20  1  0
 15 14  2  0
 17 16  1  6
 17 19  1  0
 18 17  1  0
 19 21  1  0
 19 20  1  6
 21 23  2  0
 21 22  1  0
M  END
$$$$
