SQV.pdb
     RDKit          3D

 23 22  0  0  1  0  0  0  0  0999 V2000
    9.0809  -14.4238   18.5092 O   0  0  0  0  0  0  0  0  0  0  0  0
    7.9554  -14.6087   19.3141 C   0  0  0  0  0  0  0  0  0  0  0  0
    7.9113  -16.0173   19.8435 C   0  0  2  0  0  0  0  0  0  0  0  0
    6.9213  -16.7550   19.1187 N   0  0  0  0  0  0  0  0  0  0  0  0
    7.6783  -16.0746   21.2949 C   0  0  0  0  0  0  0  0  0  0  0  0
    6.5422  -15.9691   21.7948 O   0  0  0  0  0  0  0  0  0  0  0  0
   11.4014  -19.4030   25.0676 N   0  0  0  0  0  0  0  0  0  0  0  0
   10.5341  -18.7260   25.9592 C   0  0  0  0  0  0  0  0  0  0  0  0
   10.5516  -19.0086   27.1805 O   0  0  0  0  0  0  0  0  0  0  0  0
    9.6236  -17.7028   25.4560 C   0  0  0  0  0  0  0  0  0  0  0  0
    9.7295  -17.4922   23.9689 C   0  0  0  0  0  0  0  0  0  0  0  0
    8.6867  -16.4382   23.5778 C   0  0  2  0  0  0  0  0  0  0  0  0
    8.7755  -16.2557   22.1672 N   0  0  0  0  0  0  0  0  0  0  0  0
    8.7987  -15.2264   24.3738 C   0  0  0  0  0  0  0  0  0  0  0  0
    9.8254  -14.5121   24.2788 O   0  0  0  0  0  0  0  0  0  0  0  0
    6.8529  -11.6228   27.1144 C   0  0  0  0  0  0  0  0  0  0  0  0
    6.6115  -12.9148   26.3680 C   0  0  1  0  0  0  0  0  0  0  0  0
    5.8693  -12.5711   25.0983 C   0  0  0  0  0  0  0  0  0  0  0  0
    7.9316  -13.5240   25.9913 C   0  0  2  0  0  0  0  0  0  0  0  0
    7.8076  -14.7703   25.2802 N   0  0  0  0  0  0  0  0  0  0  0  0
    8.7137  -13.7443   27.2332 C   0  0  0  0  0  0  0  0  0  0  0  0
    9.3397  -12.7469   27.9475 O   0  0  0  0  0  0  0  0  0  0  0  0
    8.8397  -14.9257   27.7057 O   0  0  0  0  0  0  0  0  0  0  0  0
  2  1  1  0
  3  2  1  0
  3  5  1  0
  3  4  1  6
  5  6  2  0
  7  8  1  0
  8  9  2  0
  8 10  1  0
 10 11  1  0
 12 11  1  1
 12 14  1  0
 13 12  1  0
 13  5  1  0
 14 20  1  0
 15 14  2  0
 17 16  1  1
 17 19  1  0
 18 17  1  0
 19 21  1  0
 19 20  1  1
 21 23  2  0
 21 22  1  0
M  END
$$$$
