VGE.pdb
     RDKit          3D

 21 20  0  0  1  0  0  0  0  0999 V2000
    7.2827  -12.4211   20.7901 C   0  0  0  0  0  0  0  0  0  0  0  0
    7.9713  -13.4120   19.8917 C   0  0  2  0  0  0  0  0  0  0  0  0
    7.2703  -13.5216   18.5437 C   0  0  0  0  0  0  0  0  0  0  0  0
    7.9946  -14.8054   20.4740 C   0  0  2  0  0  0  0  0  0  0  0  0
    6.6506  -15.2903   20.6563 N   0  0  0  0  0  0  0  0  0  0  0  0
    8.7377  -14.8102   21.7509 C   0  0  0  0  0  0  0  0  0  0  0  0
    9.9926  -14.6501   21.6773 O   0  0  0  0  0  0  0  0  0  0  0  0
    8.1010  -14.9837   23.0096 N   0  0  0  0  0  0  0  0  0  0  0  0
    8.9344  -14.9041   24.1644 C   0  0  0  0  0  0  0  0  0  0  0  0
    9.7413  -16.1276   24.4020 C   0  0  0  0  0  0  0  0  0  0  0  0
    9.2635  -17.2836   24.3036 O   0  0  0  0  0  0  0  0  0  0  0  0
   11.1011  -15.9918   24.7531 N   0  0  0  0  0  0  0  0  0  0  0  0
   12.0384  -17.1480   24.8307 C   0  0  1  0  0  0  0  0  0  0  0  0
   13.3732  -16.5838   24.5229 C   0  0  0  0  0  0  0  0  0  0  0  0
   14.4993  -17.5360   24.6596 C   0  0  0  0  0  0  0  0  0  0  0  0
   15.7824  -16.9074   24.2904 C   0  0  0  0  0  0  0  0  0  0  0  0
   16.8430  -17.5698   24.3955 O   0  0  0  0  0  0  0  0  0  0  0  0
   11.8512  -17.8642   26.0746 C   0  0  0  0  0  0  0  0  0  0  0  0
   12.0870  -19.1040   26.1435 O   0  0  0  0  0  0  0  0  0  0  0  0
   15.8593  -15.6027   23.8289 O   0  0  0  0  0  0  0  0  0  0  0  0
   11.4124  -17.2392   27.2305 O   0  0  0  0  0  0  0  0  0  0  0  0
  2  4  1  0
  2  1  1  1
  3  2  1  0
  4  5  1  1
  6  4  1  0
  7  6  2  0
  8  6  1  0
  9 10  1  0
  9  8  1  0
 10 12  1  0
 11 10  2  0
 12 13  1  0
 13 14  1  1
 14 15  1  0
 15 16  1  0
 16 20  1  0
 17 16  2  0
 18 13  1  0
 18 21  1  0
 19 18  2  0
M  END
$$$$
