VGE.pdb
     RDKit          3D

 21 20  0  0  1  0  0  0  0  0999 V2000
    6.5766  -14.0747   18.0937 C   0  0  0  0  0  0  0  0  0  0  0  0
    7.3120  -14.4305   19.3570 C   0  0  2  0  0  0  0  0  0  0  0  0
    6.3487  -14.8251   20.4692 C   0  0  0  0  0  0  0  0  0  0  0  0
    8.1342  -13.2827   19.8932 C   0  0  2  0  0  0  0  0  0  0  0  0
    8.9984  -12.7664   18.8629 N   0  0  0  0  0  0  0  0  0  0  0  0
    8.9143  -13.7218   21.0685 C   0  0  0  0  0  0  0  0  0  0  0  0
   10.0496  -14.2347   20.8360 O   0  0  0  0  0  0  0  0  0  0  0  0
    8.4382  -13.5869   22.4007 N   0  0  0  0  0  0  0  0  0  0  0  0
    9.3146  -14.0185   23.4400 C   0  0  0  0  0  0  0  0  0  0  0  0
    9.2909  -15.4853   23.6682 C   0  0  0  0  0  0  0  0  0  0  0  0
    8.3934  -16.2286   23.2032 O   0  0  0  0  0  0  0  0  0  0  0  0
   10.3164  -16.0736   24.4385 N   0  0  0  0  0  0  0  0  0  0  0  0
   10.3482  -17.5256   24.7735 C   0  0  1  0  0  0  0  0  0  0  0  0
   11.7062  -17.9794   24.3933 C   0  0  0  0  0  0  0  0  0  0  0  0
   11.9593  -18.0359   22.9351 C   0  0  0  0  0  0  0  0  0  0  0  0
   13.2986  -18.5824   22.6429 C   0  0  0  0  0  0  0  0  0  0  0  0
   13.6394  -19.6772   23.1526 O   0  0  0  0  0  0  0  0  0  0  0  0
    9.8937  -17.7382   26.1312 C   0  0  0  0  0  0  0  0  0  0  0  0
    9.9165  -16.7940   26.9712 O   0  0  0  0  0  0  0  0  0  0  0  0
   14.2003  -17.9255   21.8203 O   0  0  0  0  0  0  0  0  0  0  0  0
    9.4197  -18.9636   26.5705 O   0  0  0  0  0  0  0  0  0  0  0  0
  2  4  1  0
  2  1  1  6
  3  2  1  0
  4  5  1  6
  6  4  1  0
  7  6  2  0
  8  6  1  0
  9 10  1  0
  9  8  1  0
 10 12  1  0
 11 10  2  0
 12 13  1  0
 13 14  1  1
 14 15  1  0
 15 16  1  0
 16 20  1  0
 17 16  2  0
 18 13  1  0
 18 21  1  0
 19 18  2  0
M  END
$$$$
