VGE.pdb
     RDKit          3D

 21 20  0  0  1  0  0  0  0  0999 V2000
    3.7296  -17.0662   21.4240 C   0  0  0  0  0  0  0  0  0  0  0  0
    5.0216  -16.8739   20.6777 C   0  0  2  0  0  0  0  0  0  0  0  0
    4.8301  -17.0567   19.1776 C   0  0  0  0  0  0  0  0  0  0  0  0
    6.0856  -17.8615   21.0945 C   0  0  2  0  0  0  0  0  0  0  0  0
    5.6376  -19.2081   20.8481 N   0  0  0  0  0  0  0  0  0  0  0  0
    6.4278  -17.6690   22.5188 C   0  0  0  0  0  0  0  0  0  0  0  0
    7.1222  -16.6474   22.8021 O   0  0  0  0  0  0  0  0  0  0  0  0
    6.0118  -18.5686   23.5372 N   0  0  0  0  0  0  0  0  0  0  0  0
    6.2985  -18.1894   24.8820 C   0  0  0  0  0  0  0  0  0  0  0  0
    7.4947  -18.8622   25.4484 C   0  0  0  0  0  0  0  0  0  0  0  0
    8.1934  -19.6693   24.7892 O   0  0  0  0  0  0  0  0  0  0  0  0
    7.8661  -18.5871   26.7816 N   0  0  0  0  0  0  0  0  0  0  0  0
    9.0741  -19.1770   27.4254 C   0  0  1  0  0  0  0  0  0  0  0  0
    9.5424  -18.1478   28.3826 C   0  0  0  0  0  0  0  0  0  0  0  0
   10.6816  -18.5607   29.2342 C   0  0  0  0  0  0  0  0  0  0  0  0
   11.0820  -17.4807   30.1568 C   0  0  0  0  0  0  0  0  0  0  0  0
   10.4835  -16.3789   30.1084 O   0  0  0  0  0  0  0  0  0  0  0  0
    8.7833  -20.5077   27.9151 C   0  0  0  0  0  0  0  0  0  0  0  0
    7.6167  -20.8115   28.2949 O   0  0  0  0  0  0  0  0  0  0  0  0
   12.1025  -17.6401   31.0811 O   0  0  0  0  0  0  0  0  0  0  0  0
    9.7503  -21.4969   27.9909 O   0  0  0  0  0  0  0  0  0  0  0  0
  2  4  1  0
  2  1  1  1
  3  2  1  0
  4  5  1  1
  6  4  1  0
  7  6  2  0
  8  6  1  0
  9 10  1  0
  9  8  1  0
 10 12  1  0
 11 10  2  0
 12 13  1  0
 13 14  1  1
 14 15  1  0
 15 16  1  0
 16 20  1  0
 17 16  2  0
 18 13  1  0
 18 21  1  0
 19 18  2  0
M  END
$$$$
