VGE.pdb
     RDKit          3D

 21 20  0  0  1  0  0  0  0  0999 V2000
    8.3524  -12.5568   20.3997 C   0  0  0  0  0  0  0  0  0  0  0  0
    7.6729  -13.4965   19.4413 C   0  0  2  0  0  0  0  0  0  0  0  0
    6.3418  -13.9890   19.9945 C   0  0  0  0  0  0  0  0  0  0  0  0
    8.4969  -14.7293   19.1543 C   0  0  2  0  0  0  0  0  0  0  0  0
    8.6204  -15.5325   20.3437 N   0  0  0  0  0  0  0  0  0  0  0  0
    9.8251  -14.3434   18.6351 C   0  0  0  0  0  0  0  0  0  0  0  0
    9.8526  -13.8186   17.4819 O   0  0  0  0  0  0  0  0  0  0  0  0
   11.0247  -14.5400   19.3714 N   0  0  0  0  0  0  0  0  0  0  0  0
   12.2191  -14.0069   18.8027 C   0  0  0  0  0  0  0  0  0  0  0  0
   13.4393  -14.3010   19.5958 C   0  0  0  0  0  0  0  0  0  0  0  0
   14.5753  -13.8776   19.2728 O   0  0  0  0  0  0  0  0  0  0  0  0
   13.3234  -15.0882   20.7611 N   0  0  0  0  0  0  0  0  0  0  0  0
   14.4692  -15.3574   21.6756 C   0  0  1  0  0  0  0  0  0  0  0  0
   13.8510  -15.7119   22.9744 C   0  0  0  0  0  0  0  0  0  0  0  0
   12.3757  -15.8402   22.9483 C   0  0  0  0  0  0  0  0  0  0  0  0
   11.8686  -16.4632   24.1863 C   0  0  0  0  0  0  0  0  0  0  0  0
   12.6845  -16.9333   25.0156 O   0  0  0  0  0  0  0  0  0  0  0  0
   15.3933  -16.2879   21.0630 C   0  0  0  0  0  0  0  0  0  0  0  0
   16.5006  -16.5495   21.6136 O   0  0  0  0  0  0  0  0  0  0  0  0
   10.5141  -16.5489   24.4681 O   0  0  0  0  0  0  0  0  0  0  0  0
   15.1165  -16.9269   19.8653 O   0  0  0  0  0  0  0  0  0  0  0  0
  2  4  1  0
  2  1  1  1
  3  2  1  0
  4  5  1  1
  6  4  1  0
  7  6  2  0
  8  6  1  0
  9 10  1  0
  9  8  1  0
 10 12  1  0
 11 10  2  0
 12 13  1  0
 13 14  1  1
 14 15  1  0
 15 16  1  0
 16 20  1  0
 17 16  2  0
 18 13  1  0
 18 21  1  0
 19 18  2  0
M  END
$$$$
