VGE.pdb
     RDKit          3D

 21 20  0  0  1  0  0  0  0  0999 V2000
    6.3098  -11.1924   27.1392 C   0  0  0  0  0  0  0  0  0  0  0  0
    6.6842  -12.2525   26.1395 C   0  0  2  0  0  0  0  0  0  0  0  0
    5.6076  -12.4182   25.0747 C   0  0  0  0  0  0  0  0  0  0  0  0
    6.8677  -13.6106   26.7744 C   0  0  2  0  0  0  0  0  0  0  0  0
    7.8096  -13.5280   27.8611 N   0  0  0  0  0  0  0  0  0  0  0  0
    7.3121  -14.5894   25.7611 C   0  0  0  0  0  0  0  0  0  0  0  0
    8.5297  -14.5333   25.4142 O   0  0  0  0  0  0  0  0  0  0  0  0
    6.4387  -15.5540   25.1897 N   0  0  0  0  0  0  0  0  0  0  0  0
    6.9977  -16.4173   24.2014 C   0  0  0  0  0  0  0  0  0  0  0  0
    7.9515  -17.4134   24.7515 C   0  0  0  0  0  0  0  0  0  0  0  0
    7.5827  -18.5176   25.2194 O   0  0  0  0  0  0  0  0  0  0  0  0
    9.3300  -17.1121   24.7509 N   0  0  0  0  0  0  0  0  0  0  0  0
   10.3693  -18.0670   25.2299 C   0  0  1  0  0  0  0  0  0  0  0  0
   11.6091  -17.6760   24.5194 C   0  0  0  0  0  0  0  0  0  0  0  0
   11.4960  -17.6372   23.0432 C   0  0  0  0  0  0  0  0  0  0  0  0
   12.7563  -17.1899   22.4192 C   0  0  0  0  0  0  0  0  0  0  0  0
   13.8116  -17.8321   22.6390 O   0  0  0  0  0  0  0  0  0  0  0  0
   10.3776  -18.1168   26.6765 C   0  0  0  0  0  0  0  0  0  0  0  0
   10.7685  -19.1558   27.2810 O   0  0  0  0  0  0  0  0  0  0  0  0
   12.8172  -16.0782   21.5936 O   0  0  0  0  0  0  0  0  0  0  0  0
    9.9655  -17.0489   27.4569 O   0  0  0  0  0  0  0  0  0  0  0  0
  2  4  1  0
  2  1  1  1
  3  2  1  0
  4  5  1  1
  6  4  1  0
  7  6  2  0
  8  6  1  0
  9 10  1  0
  9  8  1  0
 10 12  1  0
 11 10  2  0
 12 13  1  0
 13 14  1  1
 14 15  1  0
 15 16  1  0
 16 20  1  0
 17 16  2  0
 18 13  1  0
 18 21  1  0
 19 18  2  0
M  END
$$$$
