VGE.pdb
     RDKit          3D

 21 20  0  0  1  0  0  0  0  0999 V2000
    7.4206  -12.8551   18.4798 C   0  0  0  0  0  0  0  0  0  0  0  0
    7.3961  -13.3451   19.9020 C   0  0  2  0  0  0  0  0  0  0  0  0
    7.9211  -12.2872   20.8641 C   0  0  0  0  0  0  0  0  0  0  0  0
    8.2535  -14.5713   20.1085 C   0  0  2  0  0  0  0  0  0  0  0  0
    7.8204  -15.6330   19.2367 N   0  0  0  0  0  0  0  0  0  0  0  0
    8.2037  -14.9937   21.5233 C   0  0  0  0  0  0  0  0  0  0  0  0
    7.3020  -15.8280   21.8346 O   0  0  0  0  0  0  0  0  0  0  0  0
    9.1089  -14.5044   22.5036 N   0  0  0  0  0  0  0  0  0  0  0  0
    8.9456  -15.0019   23.8303 C   0  0  0  0  0  0  0  0  0  0  0  0
    9.7638  -16.2066   24.1196 C   0  0  0  0  0  0  0  0  0  0  0  0
    9.5635  -17.3116   23.5600 O   0  0  0  0  0  0  0  0  0  0  0  0
   10.8105  -16.1117   25.0610 N   0  0  0  0  0  0  0  0  0  0  0  0
   11.7064  -17.2548   25.3962 C   0  0  1  0  0  0  0  0  0  0  0  0
   13.0705  -16.7889   25.0541 C   0  0  0  0  0  0  0  0  0  0  0  0
   13.3086  -16.5638   23.6098 C   0  0  0  0  0  0  0  0  0  0  0  0
   14.7157  -16.2048   23.3467 C   0  0  0  0  0  0  0  0  0  0  0  0
   15.5005  -16.0494   24.3134 O   0  0  0  0  0  0  0  0  0  0  0  0
   11.4430  -17.7224   26.7404 C   0  0  0  0  0  0  0  0  0  0  0  0
   10.7447  -17.0311   27.5355 O   0  0  0  0  0  0  0  0  0  0  0  0
   15.2052  -16.0315   22.0616 O   0  0  0  0  0  0  0  0  0  0  0  0
   11.9334  -18.9281   27.2149 O   0  0  0  0  0  0  0  0  0  0  0  0
  2  4  1  0
  2  1  1  6
  3  2  1  0
  4  5  1  6
  6  4  1  0
  7  6  2  0
  8  6  1  0
  9 10  1  0
  9  8  1  0
 10 12  1  0
 11 10  2  0
 12 13  1  0
 13 14  1  1
 14 15  1  0
 15 16  1  0
 16 20  1  0
 17 16  2  0
 18 13  1  0
 18 21  1  0
 19 18  2  0
M  END
$$$$
