VGE.pdb
     RDKit          3D

 21 20  0  0  1  0  0  0  0  0999 V2000
    7.7663  -12.4279   20.6402 C   0  0  0  0  0  0  0  0  0  0  0  0
    8.2023  -13.4140   19.5911 C   0  0  2  0  0  0  0  0  0  0  0  0
    7.2604  -13.4056   18.3939 C   0  0  0  0  0  0  0  0  0  0  0  0
    8.2266  -14.8345   20.1036 C   0  0  2  0  0  0  0  0  0  0  0  0
    6.9190  -15.2162   20.5721 N   0  0  0  0  0  0  0  0  0  0  0  0
    9.2343  -14.9709   21.1754 C   0  0  0  0  0  0  0  0  0  0  0  0
   10.4498  -14.9266   20.8198 O   0  0  0  0  0  0  0  0  0  0  0  0
    8.8840  -15.1440   22.5418 N   0  0  0  0  0  0  0  0  0  0  0  0
    9.9491  -15.0804   23.4883 C   0  0  0  0  0  0  0  0  0  0  0  0
   10.6772  -16.3639   23.6527 C   0  0  0  0  0  0  0  0  0  0  0  0
   10.2251  -17.4572   23.2349 O   0  0  0  0  0  0  0  0  0  0  0  0
   11.9287  -16.3608   24.3043 N   0  0  0  0  0  0  0  0  0  0  0  0
   12.7025  -17.6043   24.5808 C   0  0  1  0  0  0  0  0  0  0  0  0
   14.1244  -17.1905   24.5413 C   0  0  0  0  0  0  0  0  0  0  0  0
   14.6023  -16.7266   23.2185 C   0  0  0  0  0  0  0  0  0  0  0  0
   16.0443  -16.4142   23.2474 C   0  0  0  0  0  0  0  0  0  0  0  0
   16.4139  -15.2466   23.5206 O   0  0  0  0  0  0  0  0  0  0  0  0
   12.1963  -18.2575   25.7691 C   0  0  0  0  0  0  0  0  0  0  0  0
   11.4360  -17.6391   26.5674 O   0  0  0  0  0  0  0  0  0  0  0  0
   17.0121  -17.3702   22.9815 O   0  0  0  0  0  0  0  0  0  0  0  0
   12.5132  -19.5685   26.0860 O   0  0  0  0  0  0  0  0  0  0  0  0
  2  4  1  0
  2  1  1  1
  3  2  1  0
  4  5  1  1
  6  4  1  0
  7  6  2  0
  8  6  1  0
  9 10  1  0
  9  8  1  0
 10 12  1  0
 11 10  2  0
 12 13  1  0
 13 14  1  1
 14 15  1  0
 15 16  1  0
 16 20  1  0
 17 16  2  0
 18 13  1  0
 18 21  1  0
 19 18  2  0
M  END
$$$$
