VGE.pdb
     RDKit          3D

 21 20  0  0  1  0  0  0  0  0999 V2000
    8.0066  -13.1589   27.0900 C   0  0  0  0  0  0  0  0  0  0  0  0
    7.5835  -13.0703   25.6490 C   0  0  2  0  0  0  0  0  0  0  0  0
    7.5269  -11.6241   25.1737 C   0  0  0  0  0  0  0  0  0  0  0  0
    6.2098  -13.6509   25.4103 C   0  0  2  0  0  0  0  0  0  0  0  0
    5.2590  -13.0692   26.3228 N   0  0  0  0  0  0  0  0  0  0  0  0
    6.2481  -15.1211   25.5506 C   0  0  0  0  0  0  0  0  0  0  0  0
    6.0455  -15.5853   26.7123 O   0  0  0  0  0  0  0  0  0  0  0  0
    6.4972  -15.9912   24.4550 N   0  0  0  0  0  0  0  0  0  0  0  0
    6.4336  -17.3909   24.7222 C   0  0  0  0  0  0  0  0  0  0  0  0
    7.6852  -17.9449   25.2974 C   0  0  0  0  0  0  0  0  0  0  0  0
    7.7591  -19.1067   25.7655 O   0  0  0  0  0  0  0  0  0  0  0  0
    8.8420  -17.1374   25.3217 N   0  0  0  0  0  0  0  0  0  0  0  0
   10.1571  -17.6190   25.8317 C   0  0  1  0  0  0  0  0  0  0  0  0
   11.1704  -16.8538   25.0685 C   0  0  0  0  0  0  0  0  0  0  0  0
   11.0047  -16.8945   23.5973 C   0  0  0  0  0  0  0  0  0  0  0  0
   12.0889  -16.1627   22.9140 C   0  0  0  0  0  0  0  0  0  0  0  0
   13.0115  -15.6549   23.5962 O   0  0  0  0  0  0  0  0  0  0  0  0
   10.1845  -17.5680   27.2780 C   0  0  0  0  0  0  0  0  0  0  0  0
   11.0142  -18.2642   27.9295 O   0  0  0  0  0  0  0  0  0  0  0  0
   12.1252  -16.0147   21.5363 O   0  0  0  0  0  0  0  0  0  0  0  0
    9.3193  -16.7690   28.0077 O   0  0  0  0  0  0  0  0  0  0  0  0
  2  4  1  0
  2  1  1  1
  3  2  1  0
  4  5  1  1
  6  4  1  0
  7  6  2  0
  8  6  1  0
  9 10  1  0
  9  8  1  0
 10 12  1  0
 11 10  2  0
 12 13  1  0
 13 14  1  6
 14 15  1  0
 15 16  1  0
 16 20  1  0
 17 16  2  0
 18 13  1  0
 18 21  1  0
 19 18  2  0
M  END
$$$$
