VGE.pdb
     RDKit          3D

 21 20  0  0  1  0  0  0  0  0999 V2000
    6.7317  -13.7144   20.7966 C   0  0  0  0  0  0  0  0  0  0  0  0
    8.0898  -13.4305   20.2151 C   0  0  2  0  0  0  0  0  0  0  0  0
    8.0359  -12.2899   19.2067 C   0  0  0  0  0  0  0  0  0  0  0  0
    8.6682  -14.6185   19.4834 C   0  0  2  0  0  0  0  0  0  0  0  0
    8.7306  -15.7598   20.3600 N   0  0  0  0  0  0  0  0  0  0  0  0
   10.0054  -14.2855   18.9508 C   0  0  0  0  0  0  0  0  0  0  0  0
   10.0377  -13.5529   17.9173 O   0  0  0  0  0  0  0  0  0  0  0  0
   11.2080  -14.7504   19.5484 N   0  0  0  0  0  0  0  0  0  0  0  0
   12.4252  -14.2001   19.0485 C   0  0  0  0  0  0  0  0  0  0  0  0
   13.6345  -14.6835   19.7614 C   0  0  0  0  0  0  0  0  0  0  0  0
   14.7807  -14.2239   19.5392 O   0  0  0  0  0  0  0  0  0  0  0  0
   13.4962  -15.7011   20.7290 N   0  0  0  0  0  0  0  0  0  0  0  0
   14.3808  -15.8104   21.9236 C   0  0  1  0  0  0  0  0  0  0  0  0
   13.5010  -16.2964   23.0119 C   0  0  0  0  0  0  0  0  0  0  0  0
   12.2787  -15.4898   23.2327 C   0  0  0  0  0  0  0  0  0  0  0  0
   11.4306  -16.0773   24.2879 C   0  0  0  0  0  0  0  0  0  0  0  0
   11.8153  -17.1162   24.8771 O   0  0  0  0  0  0  0  0  0  0  0  0
   15.5734  -16.5635   21.5985 C   0  0  0  0  0  0  0  0  0  0  0  0
   16.5024  -16.6922   22.4458 O   0  0  0  0  0  0  0  0  0  0  0  0
   10.2157  -15.5193   24.6542 O   0  0  0  0  0  0  0  0  0  0  0  0
   15.7538  -17.1698   20.3659 O   0  0  0  0  0  0  0  0  0  0  0  0
  2  4  1  0
  2  1  1  6
  3  2  1  0
  4  5  1  1
  6  4  1  0
  7  6  2  0
  8  6  1  0
  9 10  1  0
  9  8  1  0
 10 12  1  0
 11 10  2  0
 12 13  1  0
 13 14  1  1
 14 15  1  0
 15 16  1  0
 16 20  1  0
 17 16  2  0
 18 13  1  0
 18 21  1  0
 19 18  2  0
M  END
$$$$
