VGE.pdb
     RDKit          3D

 21 20  0  0  1  0  0  0  0  0999 V2000
    8.0206  -12.4325   21.0257 C   0  0  0  0  0  0  0  0  0  0  0  0
    8.1666  -13.4275   19.9068 C   0  0  2  0  0  0  0  0  0  0  0  0
    7.0808  -13.2444   18.8541 C   0  0  0  0  0  0  0  0  0  0  0  0
    8.0610  -14.8568   20.3831 C   0  0  2  0  0  0  0  0  0  0  0  0
    6.7418  -15.1113   20.9027 N   0  0  0  0  0  0  0  0  0  0  0  0
    9.0942  -15.1303   21.4031 C   0  0  0  0  0  0  0  0  0  0  0  0
   10.2909  -15.2037   20.9925 O   0  0  0  0  0  0  0  0  0  0  0  0
    8.7875  -15.3057   22.7796 N   0  0  0  0  0  0  0  0  0  0  0  0
    9.8942  -15.4278   23.6712 C   0  0  0  0  0  0  0  0  0  0  0  0
   10.2916  -16.8332   23.9384 C   0  0  0  0  0  0  0  0  0  0  0  0
    9.4554  -17.7569   24.0863 O   0  0  0  0  0  0  0  0  0  0  0  0
   11.6635  -17.1494   24.0309 N   0  0  0  0  0  0  0  0  0  0  0  0
   12.1623  -18.5301   24.2887 C   0  0  1  0  0  0  0  0  0  0  0  0
   13.5472  -18.5443   23.7630 C   0  0  0  0  0  0  0  0  0  0  0  0
   14.2809  -19.8136   23.9731 C   0  0  0  0  0  0  0  0  0  0  0  0
   15.6519  -19.7378   23.4322 C   0  0  0  0  0  0  0  0  0  0  0  0
   16.2405  -18.6300   23.4050 O   0  0  0  0  0  0  0  0  0  0  0  0
   11.9341  -18.8971   25.6701 C   0  0  0  0  0  0  0  0  0  0  0  0
   11.8200  -18.0073   26.5605 O   0  0  0  0  0  0  0  0  0  0  0  0
   16.3176  -20.8536   22.9494 O   0  0  0  0  0  0  0  0  0  0  0  0
   11.8311  -20.2169   26.0788 O   0  0  0  0  0  0  0  0  0  0  0  0
  2  4  1  0
  2  1  1  1
  3  2  1  0
  4  5  1  1
  6  4  1  0
  7  6  2  0
  8  6  1  0
  9 10  1  0
  9  8  1  0
 10 12  1  0
 11 10  2  0
 12 13  1  0
 13 14  1  1
 14 15  1  0
 15 16  1  0
 16 20  1  0
 17 16  2  0
 18 13  1  0
 18 21  1  0
 19 18  2  0
M  END
$$$$
