VGE.pdb
     RDKit          3D

 21 20  0  0  1  0  0  0  0  0999 V2000
    6.8324  -13.6905   20.5498 C   0  0  0  0  0  0  0  0  0  0  0  0
    8.2700  -13.2474   20.5373 C   0  0  2  0  0  0  0  0  0  0  0  0
    8.4475  -11.9567   19.7479 C   0  0  0  0  0  0  0  0  0  0  0  0
    9.1860  -14.2654   19.9002 C   0  0  2  0  0  0  0  0  0  0  0  0
    8.8092  -14.4823   18.5269 N   0  0  0  0  0  0  0  0  0  0  0  0
    9.1517  -15.5289   20.6650 C   0  0  0  0  0  0  0  0  0  0  0  0
    8.9638  -16.5902   19.9986 O   0  0  0  0  0  0  0  0  0  0  0  0
    9.3183  -15.5779   22.0756 N   0  0  0  0  0  0  0  0  0  0  0  0
    9.4908  -16.8698   22.6549 C   0  0  0  0  0  0  0  0  0  0  0  0
   10.6098  -16.9416   23.6281 C   0  0  0  0  0  0  0  0  0  0  0  0
   11.8065  -17.0745   23.2754 O   0  0  0  0  0  0  0  0  0  0  0  0
   10.3224  -16.8576   25.0070 N   0  0  0  0  0  0  0  0  0  0  0  0
   11.3768  -16.9011   26.0595 C   0  0  1  0  0  0  0  0  0  0  0  0
   10.8070  -16.1577   27.2073 C   0  0  0  0  0  0  0  0  0  0  0  0
   10.1754  -14.8638   26.8604 C   0  0  0  0  0  0  0  0  0  0  0  0
    9.7286  -14.1430   28.0682 C   0  0  0  0  0  0  0  0  0  0  0  0
    9.9495  -14.6424   29.1978 O   0  0  0  0  0  0  0  0  0  0  0  0
   11.8294  -18.2611   26.2616 C   0  0  0  0  0  0  0  0  0  0  0  0
   11.1711  -19.2332   25.7933 O   0  0  0  0  0  0  0  0  0  0  0  0
    9.0689  -12.9259   27.9995 O   0  0  0  0  0  0  0  0  0  0  0  0
   12.9847  -18.5607   26.9650 O   0  0  0  0  0  0  0  0  0  0  0  0
  2  4  1  0
  2  1  1  6
  3  2  1  0
  4  5  1  6
  6  4  1  0
  7  6  2  0
  8  6  1  0
  9 10  1  0
  9  8  1  0
 10 12  1  0
 11 10  2  0
 12 13  1  0
 13 14  1  1
 14 15  1  0
 15 16  1  0
 16 20  1  0
 17 16  2  0
 18 13  1  0
 18 21  1  0
 19 18  2  0
M  END
$$$$
