VGE.pdb
     RDKit          3D

 21 20  0  0  1  0  0  0  0  0999 V2000
    7.6470  -14.3317   16.7589 C   0  0  0  0  0  0  0  0  0  0  0  0
    8.4405  -14.5391   18.0201 C   0  0  2  0  0  0  0  0  0  0  0  0
    8.2671  -15.9528   18.5604 C   0  0  0  0  0  0  0  0  0  0  0  0
    8.0212  -13.6047   19.1302 C   0  0  2  0  0  0  0  0  0  0  0  0
    8.0604  -12.2396   18.6722 N   0  0  0  0  0  0  0  0  0  0  0  0
    8.8913  -13.7935   20.3091 C   0  0  0  0  0  0  0  0  0  0  0  0
   10.0278  -13.2341   20.2704 O   0  0  0  0  0  0  0  0  0  0  0  0
    8.4973  -14.5582   21.4403 N   0  0  0  0  0  0  0  0  0  0  0  0
    9.4362  -14.6480   22.5103 C   0  0  0  0  0  0  0  0  0  0  0  0
   10.4800  -15.6831   22.3015 C   0  0  0  0  0  0  0  0  0  0  0  0
   10.2902  -16.7037   21.5968 O   0  0  0  0  0  0  0  0  0  0  0  0
   11.7385  -15.5184   22.9179 N   0  0  0  0  0  0  0  0  0  0  0  0
   12.8269  -16.5323   22.8239 C   0  0  1  0  0  0  0  0  0  0  0  0
   13.9894  -15.8001   22.2697 C   0  0  0  0  0  0  0  0  0  0  0  0
   13.8074  -15.2942   20.8896 C   0  0  0  0  0  0  0  0  0  0  0  0
   15.0212  -14.6097   20.4038 C   0  0  0  0  0  0  0  0  0  0  0  0
   15.9346  -14.3290   21.2171 O   0  0  0  0  0  0  0  0  0  0  0  0
   12.9745  -17.2293   24.0838 C   0  0  0  0  0  0  0  0  0  0  0  0
   12.4172  -16.7901   25.1298 O   0  0  0  0  0  0  0  0  0  0  0  0
   15.1900  -14.2628   19.0725 O   0  0  0  0  0  0  0  0  0  0  0  0
   13.7199  -18.3909   24.2050 O   0  0  0  0  0  0  0  0  0  0  0  0
  2  4  1  0
  2  1  1  6
  3  2  1  0
  4  5  1  6
  6  4  1  0
  7  6  2  0
  8  6  1  0
  9 10  1  0
  9  8  1  0
 10 12  1  0
 11 10  2  0
 12 13  1  0
 13 14  1  1
 14 15  1  0
 15 16  1  0
 16 20  1  0
 17 16  2  0
 18 13  1  0
 18 21  1  0
 19 18  2  0
M  END
$$$$
