STY.pdb
     RDKit          3D

 26 26  0  0  1  0  0  0  0  0999 V2000
    9.7581  -11.9346   18.0254 O   0  0  0  0  0  0  0  0  0  0  0  0
    8.8258  -12.6193   18.8386 C   0  0  0  0  0  0  0  0  0  0  0  0
    8.8728  -14.1127   18.4901 C   0  0  2  0  0  0  0  0  0  0  0  0
    8.0773  -14.3055   17.3003 N   0  0  0  0  0  0  0  0  0  0  0  0
    8.1716  -14.8002   19.6230 C   0  0  0  0  0  0  0  0  0  0  0  0
    6.9253  -14.9110   19.6534 O   0  0  0  0  0  0  0  0  0  0  0  0
    7.4269  -18.0765   20.3115 C   0  0  0  0  0  0  0  0  0  0  0  0
    8.3691  -17.6996   21.4486 C   0  0  1  0  0  0  0  0  0  0  0  0
    9.5977  -18.3094   21.3321 O   0  0  0  0  0  0  0  0  0  0  0  0
    8.3881  -16.2472   21.7012 C   0  0  2  0  0  0  0  0  0  0  0  0
    8.8663  -15.3652   20.7246 N   0  0  0  0  0  0  0  0  0  0  0  0
    9.1553  -16.0013   22.9624 C   0  0  0  0  0  0  0  0  0  0  0  0
   10.3511  -15.6370   22.8368 O   0  0  0  0  0  0  0  0  0  0  0  0
    5.5937  -10.8174   26.2936 O   0  0  0  0  0  0  0  0  0  0  0  0
    6.2990  -12.0172   26.3702 C   0  0  0  0  0  0  0  0  0  0  0  0
    5.6292  -13.2208   26.4206 C   0  0  0  0  0  0  0  0  0  0  0  0
    6.3290  -14.4027   26.4960 C   0  0  0  0  0  0  0  0  0  0  0  0
    7.7309  -14.4357   26.5246 C   0  0  0  0  0  0  0  0  0  0  0  0
    8.4385  -15.7222   26.6358 C   0  0  0  0  0  0  0  0  0  0  0  0
    9.3501  -15.9221   25.4815 C   0  0  2  0  0  0  0  0  0  0  0  0
    8.6175  -16.1540   24.2415 N   0  0  0  0  0  0  0  0  0  0  0  0
   10.2198  -17.0882   25.6972 C   0  0  0  0  0  0  0  0  0  0  0  0
   11.2861  -17.0380   26.5682 O   0  0  0  0  0  0  0  0  0  0  0  0
    8.3534  -13.1958   26.4718 C   0  0  0  0  0  0  0  0  0  0  0  0
    7.6703  -12.0089   26.3962 C   0  0  0  0  0  0  0  0  0  0  0  0
    9.9971  -18.1797   25.0679 O   0  0  0  0  0  0  0  0  0  0  0  0
  2  1  1  0
  3  4  1  6
  3  2  1  0
  5  3  1  0
  6  5  2  0
  8  7  1  6
  8 10  1  0
  9  8  1  0
 10 12  1  0
 10 11  1  6
 11  5  1  0
 12 21  1  0
 13 12  2  0
 15 14  1  0
 16 15  2  0
 17 16  1  0
 18 17  2  0
 18 24  1  0
 19 18  1  0
 20 19  1  1
 20 22  1  0
 21 20  1  0
 22 26  2  0
 22 23  1  0
 24 25  2  0
 25 15  1  0
M  END
$$$$
