STY.pdb
     RDKit          3D

 26 26  0  0  1  0  0  0  0  0999 V2000
    7.4939  -17.2107   18.8770 O   0  0  0  0  0  0  0  0  0  0  0  0
    8.6103  -16.4680   18.4283 C   0  0  0  0  0  0  0  0  0  0  0  0
    9.7442  -17.4430   18.0858 C   0  0  2  0  0  0  0  0  0  0  0  0
    9.1778  -18.5026   17.2845 N   0  0  0  0  0  0  0  0  0  0  0  0
   10.1583  -18.0369   19.3988 C   0  0  0  0  0  0  0  0  0  0  0  0
    9.4074  -18.8091   20.0362 O   0  0  0  0  0  0  0  0  0  0  0  0
   13.4271  -20.1737   20.3415 C   0  0  0  0  0  0  0  0  0  0  0  0
   13.3379  -18.8766   21.1366 C   0  0  1  0  0  0  0  0  0  0  0  0
   14.3408  -17.9929   20.8078 O   0  0  0  0  0  0  0  0  0  0  0  0
   11.9704  -18.3260   21.1572 C   0  0  2  0  0  0  0  0  0  0  0  0
   11.4154  -17.7661   20.0001 N   0  0  0  0  0  0  0  0  0  0  0  0
   11.8932  -17.3047   22.2484 C   0  0  0  0  0  0  0  0  0  0  0  0
   12.0003  -16.1005   21.9066 O   0  0  0  0  0  0  0  0  0  0  0  0
   10.4367  -13.4449   30.0657 O   0  0  0  0  0  0  0  0  0  0  0  0
   10.4789  -14.3283   28.9884 C   0  0  0  0  0  0  0  0  0  0  0  0
    9.7563  -14.0705   27.8433 C   0  0  0  0  0  0  0  0  0  0  0  0
    9.8008  -14.9448   26.7822 C   0  0  0  0  0  0  0  0  0  0  0  0
   10.5698  -16.1172   26.8171 C   0  0  0  0  0  0  0  0  0  0  0  0
   10.5647  -17.0398   25.6695 C   0  0  0  0  0  0  0  0  0  0  0  0
   11.5823  -16.6371   24.6667 C   0  0  2  0  0  0  0  0  0  0  0  0
   11.7120  -17.6197   23.5963 N   0  0  0  0  0  0  0  0  0  0  0  0
   12.9062  -16.4972   25.2913 C   0  0  0  0  0  0  0  0  0  0  0  0
   13.3898  -15.2680   25.6828 O   0  0  0  0  0  0  0  0  0  0  0  0
   11.2765  -16.3269   27.9937 C   0  0  0  0  0  0  0  0  0  0  0  0
   11.2429  -15.4652   29.0602 C   0  0  0  0  0  0  0  0  0  0  0  0
   13.6389  -17.5291   25.4797 O   0  0  0  0  0  0  0  0  0  0  0  0
  2  1  1  0
  3  4  1  6
  3  2  1  0
  5  3  1  0
  6  5  2  0
  8  7  1  6
  8 10  1  0
  9  8  1  0
 10 12  1  0
 10 11  1  6
 11  5  1  0
 12 21  1  0
 13 12  2  0
 15 14  1  0
 16 15  2  0
 17 16  1  0
 18 17  2  0
 18 24  1  0
 19 18  1  0
 20 19  1  1
 20 22  1  0
 21 20  1  0
 22 26  2  0
 22 23  1  0
 24 25  2  0
 25 15  1  0
M  END
$$$$
