STY.pdb
     RDKit          3D

 26 26  0  0  1  0  0  0  0  0999 V2000
    7.9347  -19.2873   19.9412 O   0  0  0  0  0  0  0  0  0  0  0  0
    8.4331  -19.1309   18.6272 C   0  0  0  0  0  0  0  0  0  0  0  0
    8.0612  -17.7303   18.1236 C   0  0  2  0  0  0  0  0  0  0  0  0
    8.6580  -17.5660   16.8188 N   0  0  0  0  0  0  0  0  0  0  0  0
    8.7483  -16.7831   19.0610 C   0  0  0  0  0  0  0  0  0  0  0  0
    9.9935  -16.6575   19.0716 O   0  0  0  0  0  0  0  0  0  0  0  0
    8.0758  -12.8861   19.7123 C   0  0  0  0  0  0  0  0  0  0  0  0
    7.9280  -13.6954   20.9953 C   0  0  1  0  0  0  0  0  0  0  0  0
    6.6434  -13.6615   21.4886 O   0  0  0  0  0  0  0  0  0  0  0  0
    8.5464  -15.0295   20.8895 C   0  0  2  0  0  0  0  0  0  0  0  0
    8.0406  -15.9746   19.9887 N   0  0  0  0  0  0  0  0  0  0  0  0
    8.5590  -15.6491   22.2518 C   0  0  0  0  0  0  0  0  0  0  0  0
    7.4977  -16.2031   22.6327 O   0  0  0  0  0  0  0  0  0  0  0  0
   13.5273  -20.4910   22.0058 O   0  0  0  0  0  0  0  0  0  0  0  0
   12.4986  -19.7845   22.6264 C   0  0  0  0  0  0  0  0  0  0  0  0
   12.4279  -18.4121   22.5186 C   0  0  0  0  0  0  0  0  0  0  0  0
   11.4109  -17.7185   23.1325 C   0  0  0  0  0  0  0  0  0  0  0  0
   10.4176  -18.3650   23.8825 C   0  0  0  0  0  0  0  0  0  0  0  0
    9.3640  -17.5800   24.5473 C   0  0  0  0  0  0  0  0  0  0  0  0
    9.6647  -16.1283   24.4740 C   0  0  2  0  0  0  0  0  0  0  0  0
    9.6684  -15.6407   23.0991 N   0  0  0  0  0  0  0  0  0  0  0  0
   10.9901  -15.8388   25.0415 C   0  0  0  0  0  0  0  0  0  0  0  0
   11.9919  -15.2797   24.2786 O   0  0  0  0  0  0  0  0  0  0  0  0
   10.5376  -19.7461   23.9581 C   0  0  0  0  0  0  0  0  0  0  0  0
   11.5451  -20.4523   23.3519 C   0  0  0  0  0  0  0  0  0  0  0  0
   11.2358  -16.1087   26.2678 O   0  0  0  0  0  0  0  0  0  0  0  0
  2  1  1  0
  3  4  1  6
  3  2  1  0
  5  3  1  0
  6  5  2  0
  8  7  1  6
  8 10  1  0
  9  8  1  0
 10 12  1  0
 10 11  1  6
 11  5  1  0
 12 21  1  0
 13 12  2  0
 15 14  1  0
 16 15  2  0
 17 16  1  0
 18 17  2  0
 18 24  1  0
 19 18  1  0
 20 19  1  6
 20 22  1  0
 21 20  1  0
 22 26  2  0
 22 23  1  0
 24 25  2  0
 25 15  1  0
M  END
$$$$
