STY.pdb
     RDKit          3D

 26 26  0  0  1  0  0  0  0  0999 V2000
    9.2067  -12.2535   20.3685 O   0  0  0  0  0  0  0  0  0  0  0  0
    9.4990  -13.1767   19.3382 C   0  0  0  0  0  0  0  0  0  0  0  0
    8.2157  -13.9381   18.9814 C   0  0  2  0  0  0  0  0  0  0  0  0
    7.1659  -12.9615   18.8094 N   0  0  0  0  0  0  0  0  0  0  0  0
    7.8898  -14.7470   20.2009 C   0  0  0  0  0  0  0  0  0  0  0  0
    6.9524  -14.4305   20.9676 O   0  0  0  0  0  0  0  0  0  0  0  0
   10.2403  -18.3721   21.1227 C   0  0  0  0  0  0  0  0  0  0  0  0
    8.7600  -18.2360   21.4591 C   0  0  1  0  0  0  0  0  0  0  0  0
    8.3776  -19.0761   22.4804 O   0  0  0  0  0  0  0  0  0  0  0  0
    8.3428  -16.8279   21.5880 C   0  0  2  0  0  0  0  0  0  0  0  0
    8.6141  -15.9127   20.5637 N   0  0  0  0  0  0  0  0  0  0  0  0
    8.9167  -16.2839   22.8586 C   0  0  0  0  0  0  0  0  0  0  0  0
    9.9119  -15.5246   22.7520 O   0  0  0  0  0  0  0  0  0  0  0  0
    6.0131  -10.4687   25.9970 O   0  0  0  0  0  0  0  0  0  0  0  0
    6.4935  -11.7741   26.0854 C   0  0  0  0  0  0  0  0  0  0  0  0
    5.6287  -12.8245   26.3062 C   0  0  0  0  0  0  0  0  0  0  0  0
    6.1067  -14.1115   26.3927 C   0  0  0  0  0  0  0  0  0  0  0  0
    7.4714  -14.4077   26.2624 C   0  0  0  0  0  0  0  0  0  0  0  0
    7.9426  -15.7967   26.3915 C   0  0  0  0  0  0  0  0  0  0  0  0
    8.9860  -16.0941   25.3785 C   0  0  2  0  0  0  0  0  0  0  0  0
    8.4102  -16.5737   24.1268 N   0  0  0  0  0  0  0  0  0  0  0  0
    9.9035  -17.1365   25.8624 C   0  0  0  0  0  0  0  0  0  0  0  0
    9.9983  -18.3587   25.2337 O   0  0  0  0  0  0  0  0  0  0  0  0
    8.2963  -13.3129   26.0418 C   0  0  0  0  0  0  0  0  0  0  0  0
    7.8355  -12.0242   25.9529 C   0  0  0  0  0  0  0  0  0  0  0  0
   10.6345  -16.9209   26.8901 O   0  0  0  0  0  0  0  0  0  0  0  0
  2  1  1  0
  3  4  1  1
  3  2  1  0
  5  3  1  0
  6  5  2  0
  8  7  1  1
  8 10  1  0
  9  8  1  0
 10 12  1  0
 10 11  1  6
 11  5  1  0
 12 21  1  0
 13 12  2  0
 15 14  1  0
 16 15  2  0
 17 16  1  0
 18 17  2  0
 18 24  1  0
 19 18  1  0
 20 19  1  1
 20 22  1  0
 21 20  1  0
 22 26  2  0
 22 23  1  0
 24 25  2  0
 25 15  1  0
M  END
$$$$
