STY.pdb
     RDKit          3D

 26 26  0  0  1  0  0  0  0  0999 V2000
   10.9339  -13.4916   18.0494 O   0  0  0  0  0  0  0  0  0  0  0  0
   10.2289  -14.7169   18.0194 C   0  0  0  0  0  0  0  0  0  0  0  0
    8.7246  -14.4180   17.9777 C   0  0  2  0  0  0  0  0  0  0  0  0
    8.5659  -13.0539   17.5307 N   0  0  0  0  0  0  0  0  0  0  0  0
    8.2736  -14.4845   19.4060 C   0  0  0  0  0  0  0  0  0  0  0  0
    7.8886  -13.4647   20.0212 O   0  0  0  0  0  0  0  0  0  0  0  0
    5.5740  -17.0823   20.8338 C   0  0  0  0  0  0  0  0  0  0  0  0
    6.8616  -17.1203   21.6484 C   0  0  1  0  0  0  0  0  0  0  0  0
    7.4944  -18.3401   21.5675 O   0  0  0  0  0  0  0  0  0  0  0  0
    7.7068  -15.9353   21.4143 C   0  0  2  0  0  0  0  0  0  0  0  0
    8.2533  -15.6946   20.1479 N   0  0  0  0  0  0  0  0  0  0  0  0
    8.8278  -15.9565   22.4056 C   0  0  0  0  0  0  0  0  0  0  0  0
    9.9478  -16.3426   21.9869 O   0  0  0  0  0  0  0  0  0  0  0  0
    5.0343  -11.8639   26.7942 O   0  0  0  0  0  0  0  0  0  0  0  0
    6.2381  -12.4742   26.4463 C   0  0  0  0  0  0  0  0  0  0  0  0
    7.0860  -12.9553   27.4207 C   0  0  0  0  0  0  0  0  0  0  0  0
    8.2732  -13.5571   27.0733 C   0  0  0  0  0  0  0  0  0  0  0  0
    8.6675  -13.7055   25.7355 C   0  0  0  0  0  0  0  0  0  0  0  0
    9.9609  -14.3296   25.4102 C   0  0  0  0  0  0  0  0  0  0  0  0
    9.7593  -15.6353   24.7336 C   0  0  2  0  0  0  0  0  0  0  0  0
    8.6910  -15.5766   23.7419 N   0  0  0  0  0  0  0  0  0  0  0  0
    9.3940  -16.6774   25.7048 C   0  0  0  0  0  0  0  0  0  0  0  0
   10.2838  -17.1094   26.6639 O   0  0  0  0  0  0  0  0  0  0  0  0
    7.7766  -13.2032   24.7965 C   0  0  0  0  0  0  0  0  0  0  0  0
    6.5894  -12.6009   25.1265 C   0  0  0  0  0  0  0  0  0  0  0  0
    8.2297  -17.2067   25.6703 O   0  0  0  0  0  0  0  0  0  0  0  0
  2  1  1  0
  3  4  1  1
  3  2  1  0
  5  3  1  0
  6  5  2  0
  8  7  1  6
  8 10  1  0
  9  8  1  0
 10 12  1  0
 10 11  1  6
 11  5  1  0
 12 21  1  0
 13 12  2  0
 15 14  1  0
 16 15  2  0
 17 16  1  0
 18 17  2  0
 18 24  1  0
 19 18  1  0
 20 19  1  1
 20 22  1  0
 21 20  1  0
 22 26  2  0
 22 23  1  0
 24 25  2  0
 25 15  1  0
M  END
$$$$
