STY.pdb
     RDKit          3D

 26 26  0  0  1  0  0  0  0  0999 V2000
    9.9326  -17.6670   14.3512 O   0  0  0  0  0  0  0  0  0  0  0  0
    8.8465  -17.1747   15.1111 C   0  0  0  0  0  0  0  0  0  0  0  0
    8.8639  -15.6415   15.0577 C   0  0  2  0  0  0  0  0  0  0  0  0
    9.7541  -15.2550   13.9883 N   0  0  0  0  0  0  0  0  0  0  0  0
    9.4916  -15.2129   16.3501 C   0  0  0  0  0  0  0  0  0  0  0  0
   10.7328  -15.1106   16.4750 O   0  0  0  0  0  0  0  0  0  0  0  0
    7.8637  -12.2892   18.9369 C   0  0  0  0  0  0  0  0  0  0  0  0
    8.2657  -13.6070   19.5884 C   0  0  1  0  0  0  0  0  0  0  0  0
    7.1859  -14.2806   20.1129 O   0  0  0  0  0  0  0  0  0  0  0  0
    9.1715  -14.3989   18.7363 C   0  0  2  0  0  0  0  0  0  0  0  0
    8.7291  -14.8982   17.5053 N   0  0  0  0  0  0  0  0  0  0  0  0
    9.6878  -15.5486   19.5434 C   0  0  0  0  0  0  0  0  0  0  0  0
    9.2581  -16.6904   19.2433 O   0  0  0  0  0  0  0  0  0  0  0  0
   16.1016  -13.4690   18.9957 O   0  0  0  0  0  0  0  0  0  0  0  0
   15.1589  -14.3957   19.4377 C   0  0  0  0  0  0  0  0  0  0  0  0
   14.2221  -14.9104   18.5672 C   0  0  0  0  0  0  0  0  0  0  0  0
   13.2935  -15.8249   19.0073 C   0  0  0  0  0  0  0  0  0  0  0  0
   13.2586  -16.2670   20.3378 C   0  0  0  0  0  0  0  0  0  0  0  0
   12.2282  -17.2249   20.7724 C   0  0  0  0  0  0  0  0  0  0  0  0
   11.0893  -16.5184   21.4104 C   0  0  2  0  0  0  0  0  0  0  0  0
   10.6027  -15.4152   20.5893 N   0  0  0  0  0  0  0  0  0  0  0  0
   11.4853  -15.9524   22.7086 C   0  0  0  0  0  0  0  0  0  0  0  0
   11.9651  -16.7504   23.7241 O   0  0  0  0  0  0  0  0  0  0  0  0
   14.2238  -15.7162   21.1702 C   0  0  0  0  0  0  0  0  0  0  0  0
   15.1563  -14.8039   20.7471 C   0  0  0  0  0  0  0  0  0  0  0  0
   11.3855  -14.6940   22.9170 O   0  0  0  0  0  0  0  0  0  0  0  0
  2  1  1  0
  3  4  1  6
  3  2  1  0
  5  3  1  0
  6  5  2  0
  8  7  1  6
  8 10  1  0
  9  8  1  0
 10 12  1  0
 10 11  1  6
 11  5  1  0
 12 21  1  0
 13 12  2  0
 15 14  1  0
 16 15  2  0
 17 16  1  0
 18 17  2  0
 18 24  1  0
 19 18  1  0
 20 19  1  6
 20 22  1  0
 21 20  1  0
 22 26  2  0
 22 23  1  0
 24 25  2  0
 25 15  1  0
M  END
$$$$
