STY.pdb
     RDKit          3D

 26 26  0  0  1  0  0  0  0  0999 V2000
   10.2150  -12.2289   19.3269 O   0  0  0  0  0  0  0  0  0  0  0  0
   10.3523  -13.6282   19.1769 C   0  0  0  0  0  0  0  0  0  0  0  0
    9.0045  -14.2095   18.7303 C   0  0  2  0  0  0  0  0  0  0  0  0
    8.2843  -13.1600   18.0481 N   0  0  0  0  0  0  0  0  0  0  0  0
    8.2699  -14.5136   20.0015 C   0  0  0  0  0  0  0  0  0  0  0  0
    7.2070  -13.9252   20.3026 O   0  0  0  0  0  0  0  0  0  0  0  0
    6.4168  -17.5769   20.6218 C   0  0  0  0  0  0  0  0  0  0  0  0
    7.5128  -17.5274   21.6798 C   0  0  1  0  0  0  0  0  0  0  0  0
    8.4828  -18.4816   21.4712 O   0  0  0  0  0  0  0  0  0  0  0  0
    7.9950  -16.1555   21.9220 C   0  0  2  0  0  0  0  0  0  0  0  0
    8.7256  -15.4780   20.9382 N   0  0  0  0  0  0  0  0  0  0  0  0
    8.8057  -16.1593   23.1799 C   0  0  0  0  0  0  0  0  0  0  0  0
   10.0505  -16.0469   23.0527 O   0  0  0  0  0  0  0  0  0  0  0  0
    5.6490  -10.7783   25.8894 O   0  0  0  0  0  0  0  0  0  0  0  0
    6.2501  -12.0123   26.1315 C   0  0  0  0  0  0  0  0  0  0  0  0
    7.6216  -12.1173   26.2202 C   0  0  0  0  0  0  0  0  0  0  0  0
    8.2110  -13.3370   26.4594 C   0  0  0  0  0  0  0  0  0  0  0  0
    7.4562  -14.5081   26.6209 C   0  0  0  0  0  0  0  0  0  0  0  0
    8.1304  -15.7976   26.8460 C   0  0  0  0  0  0  0  0  0  0  0  0
    9.0095  -16.1384   25.6996 C   0  0  2  0  0  0  0  0  0  0  0  0
    8.2568  -16.2791   24.4579 N   0  0  0  0  0  0  0  0  0  0  0  0
    9.7044  -17.4132   25.9335 C   0  0  0  0  0  0  0  0  0  0  0  0
   10.6786  -17.5336   26.9003 O   0  0  0  0  0  0  0  0  0  0  0  0
    6.0811  -14.3445   26.5217 C   0  0  0  0  0  0  0  0  0  0  0  0
    5.4782  -13.1358   26.2838 C   0  0  0  0  0  0  0  0  0  0  0  0
    9.4121  -18.4416   25.2307 O   0  0  0  0  0  0  0  0  0  0  0  0
  2  1  1  0
  3  4  1  6
  3  2  1  0
  5  3  1  0
  6  5  2  0
  8  7  1  6
  8 10  1  0
  9  8  1  0
 10 12  1  0
 10 11  1  6
 11  5  1  0
 12 21  1  0
 13 12  2  0
 15 14  1  0
 16 15  2  0
 17 16  1  0
 18 17  2  0
 18 24  1  0
 19 18  1  0
 20 19  1  1
 20 22  1  0
 21 20  1  0
 22 26  2  0
 22 23  1  0
 24 25  2  0
 25 15  1  0
M  END
$$$$
