STY.pdb
     RDKit          3D

 26 26  0  0  1  0  0  0  0  0999 V2000
   12.4893  -12.8282   18.3546 O   0  0  0  0  0  0  0  0  0  0  0  0
   11.3155  -13.0067   19.1225 C   0  0  0  0  0  0  0  0  0  0  0  0
   10.4041  -14.0089   18.4022 C   0  0  2  0  0  0  0  0  0  0  0  0
    9.6060  -13.2662   17.4551 N   0  0  0  0  0  0  0  0  0  0  0  0
    9.4827  -14.5314   19.4632 C   0  0  0  0  0  0  0  0  0  0  0  0
    8.4354  -13.9240   19.7807 O   0  0  0  0  0  0  0  0  0  0  0  0
    7.6719  -18.0928   19.9141 C   0  0  0  0  0  0  0  0  0  0  0  0
    8.6294  -17.7883   21.0601 C   0  0  1  0  0  0  0  0  0  0  0  0
    9.7019  -18.6508   21.0873 O   0  0  0  0  0  0  0  0  0  0  0  0
    8.9503  -16.3524   21.1544 C   0  0  2  0  0  0  0  0  0  0  0  0
    9.7335  -15.7362   20.1709 N   0  0  0  0  0  0  0  0  0  0  0  0
    9.5938  -16.1026   22.4822 C   0  0  0  0  0  0  0  0  0  0  0  0
   10.8495  -16.0704   22.5067 O   0  0  0  0  0  0  0  0  0  0  0  0
   10.8688  -15.1543   31.1395 O   0  0  0  0  0  0  0  0  0  0  0  0
   10.2856  -15.1571   29.8736 C   0  0  0  0  0  0  0  0  0  0  0  0
    9.6605  -16.2880   29.3937 C   0  0  0  0  0  0  0  0  0  0  0  0
    9.0859  -16.2867   28.1438 C   0  0  0  0  0  0  0  0  0  0  0  0
    9.1098  -15.1546   27.3161 C   0  0  0  0  0  0  0  0  0  0  0  0
    8.5079  -15.2070   25.9733 C   0  0  0  0  0  0  0  0  0  0  0  0
    9.4908  -15.6986   24.9755 C   0  0  2  0  0  0  0  0  0  0  0  0
    8.8813  -15.9084   23.6669 N   0  0  0  0  0  0  0  0  0  0  0  0
   10.0672  -16.9840   25.3977 C   0  0  0  0  0  0  0  0  0  0  0  0
   11.3177  -17.0568   25.9714 O   0  0  0  0  0  0  0  0  0  0  0  0
    9.7521  -14.0451   27.8491 C   0  0  0  0  0  0  0  0  0  0  0  0
   10.3295  -14.0302   29.0931 C   0  0  0  0  0  0  0  0  0  0  0  0
    9.4075  -18.0678   25.2331 O   0  0  0  0  0  0  0  0  0  0  0  0
  2  1  1  0
  3  4  1  6
  3  2  1  0
  5  3  1  0
  6  5  2  0
  8  7  1  6
  8 10  1  0
  9  8  1  0
 10 12  1  0
 10 11  1  6
 11  5  1  0
 12 21  1  0
 13 12  2  0
 15 14  1  0
 16 15  2  0
 17 16  1  0
 18 17  2  0
 18 24  1  0
 19 18  1  0
 20 19  1  1
 20 22  1  0
 21 20  1  0
 22 26  2  0
 22 23  1  0
 24 25  2  0
 25 15  1  0
M  END
$$$$
