STY.pdb
     RDKit          3D

 26 26  0  0  1  0  0  0  0  0999 V2000
   -0.1370  -26.1942   25.0802 O   0  0  0  0  0  0  0  0  0  0  0  0
   -0.2072  -27.2266   26.0439 C   0  0  0  0  0  0  0  0  0  0  0  0
   -1.4449  -28.0858   25.7549 C   0  0  2  0  0  0  0  0  0  0  0  0
   -1.5120  -28.2826   24.3258 N   0  0  0  0  0  0  0  0  0  0  0  0
   -2.6131  -27.2341   26.1525 C   0  0  0  0  0  0  0  0  0  0  0  0
   -3.2539  -26.5645   25.3114 O   0  0  0  0  0  0  0  0  0  0  0  0
   -5.8511  -28.4767   27.8301 C   0  0  0  0  0  0  0  0  0  0  0  0
   -5.2253  -27.4022   28.7113 C   0  0  1  0  0  0  0  0  0  0  0  0
   -4.7996  -27.9022   29.9211 O   0  0  0  0  0  0  0  0  0  0  0  0
   -4.2546  -26.5712   27.9761 C   0  0  2  0  0  0  0  0  0  0  0  0
   -3.0652  -27.1312   27.4942 N   0  0  0  0  0  0  0  0  0  0  0  0
   -3.8992  -25.3971   28.8334 C   0  0  0  0  0  0  0  0  0  0  0  0
   -2.7330  -25.3679   29.2998 O   0  0  0  0  0  0  0  0  0  0  0  0
  -10.8023  -22.9711   29.4816 O   0  0  0  0  0  0  0  0  0  0  0  0
   -9.4279  -22.7391   29.4850 C   0  0  0  0  0  0  0  0  0  0  0  0
   -8.8111  -22.2058   30.5964 C   0  0  0  0  0  0  0  0  0  0  0  0
   -7.4544  -21.9785   30.5958 C   0  0  0  0  0  0  0  0  0  0  0  0
   -6.6518  -22.2738   29.4841 C   0  0  0  0  0  0  0  0  0  0  0  0
   -5.2081  -21.9866   29.5167 C   0  0  0  0  0  0  0  0  0  0  0  0
   -4.4424  -23.1875   29.9347 C   0  0  2  0  0  0  0  0  0  0  0  0
   -4.7816  -24.3575   29.1321 N   0  0  0  0  0  0  0  0  0  0  0  0
   -4.7245  -23.5261   31.3377 C   0  0  0  0  0  0  0  0  0  0  0  0
   -4.2768  -22.7338   32.3721 O   0  0  0  0  0  0  0  0  0  0  0  0
   -7.3247  -22.8081   28.3935 C   0  0  0  0  0  0  0  0  0  0  0  0
   -8.6762  -23.0409   28.3782 C   0  0  0  0  0  0  0  0  0  0  0  0
   -5.3965  -24.5773   31.6212 O   0  0  0  0  0  0  0  0  0  0  0  0
  2  1  1  0
  3  4  1  6
  3  2  1  0
  5  3  1  0
  6  5  2  0
  8  7  1  6
  8 10  1  0
  9  8  1  0
 10 12  1  0
 10 11  1  1
 11  5  1  0
 12 21  1  0
 13 12  2  0
 15 14  1  0
 16 15  2  0
 17 16  1  0
 18 17  2  0
 18 24  1  0
 19 18  1  0
 20 19  1  6
 20 22  1  0
 21 20  1  0
 22 26  2  0
 22 23  1  0
 24 25  2  0
 25 15  1  0
M  END
$$$$
