STY.pdb
     RDKit          3D

 26 26  0  0  1  0  0  0  0  0999 V2000
   13.5092  -17.8749   19.2335 O   0  0  0  0  0  0  0  0  0  0  0  0
   13.0020  -16.8145   20.0194 C   0  0  0  0  0  0  0  0  0  0  0  0
   12.1005  -15.9382   19.1401 C   0  0  2  0  0  0  0  0  0  0  0  0
   12.9583  -15.0612   18.3781 N   0  0  0  0  0  0  0  0  0  0  0  0
   11.3218  -15.0912   20.1013 C   0  0  0  0  0  0  0  0  0  0  0  0
   11.8386  -14.1073   20.6771 O   0  0  0  0  0  0  0  0  0  0  0  0
    7.9949  -12.8960   19.7114 C   0  0  0  0  0  0  0  0  0  0  0  0
    7.8097  -14.1018   20.6249 C   0  0  1  0  0  0  0  0  0  0  0  0
    7.0047  -15.0653   20.0605 O   0  0  0  0  0  0  0  0  0  0  0  0
    9.0854  -14.5747   21.1927 C   0  0  2  0  0  0  0  0  0  0  0  0
    9.9619  -15.3454   20.4193 N   0  0  0  0  0  0  0  0  0  0  0  0
    8.7868  -15.3330   22.4478 C   0  0  0  0  0  0  0  0  0  0  0  0
    9.0371  -16.5642   22.4396 O   0  0  0  0  0  0  0  0  0  0  0  0
   11.4430  -14.9900   30.0926 O   0  0  0  0  0  0  0  0  0  0  0  0
   10.5011  -14.8977   29.0693 C   0  0  0  0  0  0  0  0  0  0  0  0
   10.2266  -13.6831   28.4783 C   0  0  0  0  0  0  0  0  0  0  0  0
    9.2964  -13.5963   27.4686 C   0  0  0  0  0  0  0  0  0  0  0  0
    8.5978  -14.7198   27.0031 C   0  0  0  0  0  0  0  0  0  0  0  0
    7.5891  -14.5759   25.9402 C   0  0  0  0  0  0  0  0  0  0  0  0
    7.8876  -15.4851   24.8055 C   0  0  2  0  0  0  0  0  0  0  0  0
    8.2558  -14.7507   23.6001 N   0  0  0  0  0  0  0  0  0  0  0  0
    6.7155  -16.3084   24.4720 C   0  0  0  0  0  0  0  0  0  0  0  0
    6.3411  -17.3769   25.2571 O   0  0  0  0  0  0  0  0  0  0  0  0
    8.9132  -15.9160   27.6335 C   0  0  0  0  0  0  0  0  0  0  0  0
    9.8378  -16.0193   28.6412 C   0  0  0  0  0  0  0  0  0  0  0  0
    6.0194  -16.0419   23.4321 O   0  0  0  0  0  0  0  0  0  0  0  0
  2  1  1  0
  3  4  1  6
  3  2  1  0
  5  3  1  0
  6  5  2  0
  8  7  1  6
  8 10  1  0
  9  8  1  0
 10 12  1  0
 10 11  1  6
 11  5  1  0
 12 21  1  0
 13 12  2  0
 15 14  1  0
 16 15  2  0
 17 16  1  0
 18 17  2  0
 18 24  1  0
 19 18  1  0
 20 19  1  1
 20 22  1  0
 21 20  1  0
 22 26  2  0
 22 23  1  0
 24 25  2  0
 25 15  1  0
M  END
$$$$
