STY.pdb
     RDKit          3D

 26 26  0  0  1  0  0  0  0  0999 V2000
   10.0975  -20.0886   18.5743 O   0  0  0  0  0  0  0  0  0  0  0  0
    8.7961  -19.8542   19.0752 C   0  0  0  0  0  0  0  0  0  0  0  0
    8.2001  -18.6419   18.3479 C   0  0  2  0  0  0  0  0  0  0  0  0
    8.8256  -18.5652   17.0485 N   0  0  0  0  0  0  0  0  0  0  0  0
    8.6494  -17.4513   19.1406 C   0  0  0  0  0  0  0  0  0  0  0  0
    9.5112  -16.6571   18.7011 O   0  0  0  0  0  0  0  0  0  0  0  0
    6.5400  -14.4633   20.5736 C   0  0  0  0  0  0  0  0  0  0  0  0
    7.2472  -15.1985   21.7059 C   0  0  1  0  0  0  0  0  0  0  0  0
    6.3623  -15.8234   22.5552 O   0  0  0  0  0  0  0  0  0  0  0  0
    8.3717  -16.0206   21.2227 C   0  0  2  0  0  0  0  0  0  0  0  0
    8.1336  -17.1485   20.4280 N   0  0  0  0  0  0  0  0  0  0  0  0
    9.1797  -16.4508   22.4066 C   0  0  0  0  0  0  0  0  0  0  0  0
    8.9483  -17.5976   22.8646 O   0  0  0  0  0  0  0  0  0  0  0  0
    9.9463  -13.9538   30.5891 O   0  0  0  0  0  0  0  0  0  0  0  0
    9.7528  -14.1135   29.2180 C   0  0  0  0  0  0  0  0  0  0  0  0
   10.5498  -14.9744   28.4944 C   0  0  0  0  0  0  0  0  0  0  0  0
   10.3554  -15.1293   27.1414 C   0  0  0  0  0  0  0  0  0  0  0  0
    9.3553  -14.4306   26.4495 C   0  0  0  0  0  0  0  0  0  0  0  0
    9.2020  -14.6047   24.9955 C   0  0  0  0  0  0  0  0  0  0  0  0
   10.2872  -15.4586   24.4510 C   0  0  2  0  0  0  0  0  0  0  0  0
   10.1554  -15.6567   23.0117 N   0  0  0  0  0  0  0  0  0  0  0  0
   10.2700  -16.7895   25.0764 C   0  0  0  0  0  0  0  0  0  0  0  0
   11.2899  -17.2085   25.9024 O   0  0  0  0  0  0  0  0  0  0  0  0
    8.5831  -13.5778   27.2268 C   0  0  0  0  0  0  0  0  0  0  0  0
    8.7640  -13.4123   28.5763 C   0  0  0  0  0  0  0  0  0  0  0  0
    9.2956  -17.5889   24.8567 O   0  0  0  0  0  0  0  0  0  0  0  0
  2  1  1  0
  3  4  1  6
  3  2  1  0
  5  3  1  0
  6  5  2  0
  8  7  1  6
  8 10  1  0
  9  8  1  0
 10 12  1  0
 10 11  1  1
 11  5  1  0
 12 21  1  0
 13 12  2  0
 15 14  1  0
 16 15  2  0
 17 16  1  0
 18 17  2  0
 18 24  1  0
 19 18  1  0
 20 19  1  1
 20 22  1  0
 21 20  1  0
 22 26  2  0
 22 23  1  0
 24 25  2  0
 25 15  1  0
M  END
$$$$
