STY.pdb
     RDKit          3D

 26 26  0  0  1  0  0  0  0  0999 V2000
   10.1360  -20.0535   19.2407 O   0  0  0  0  0  0  0  0  0  0  0  0
   10.8121  -18.8240   19.4151 C   0  0  0  0  0  0  0  0  0  0  0  0
   10.0783  -17.7412   18.6134 C   0  0  2  0  0  0  0  0  0  0  0  0
   10.9788  -17.2792   17.5832 N   0  0  0  0  0  0  0  0  0  0  0  0
    9.8732  -16.6123   19.5786 C   0  0  0  0  0  0  0  0  0  0  0  0
   10.7619  -15.7555   19.7852 O   0  0  0  0  0  0  0  0  0  0  0  0
    6.6381  -14.0315   19.9288 C   0  0  0  0  0  0  0  0  0  0  0  0
    6.9341  -14.8685   21.1676 C   0  0  1  0  0  0  0  0  0  0  0  0
    5.9375  -15.7807   21.4314 O   0  0  0  0  0  0  0  0  0  0  0  0
    8.3113  -15.3946   21.1714 C   0  0  2  0  0  0  0  0  0  0  0  0
    8.6713  -16.4417   20.3145 N   0  0  0  0  0  0  0  0  0  0  0  0
    8.6528  -15.8029   22.5700 C   0  0  0  0  0  0  0  0  0  0  0  0
    8.7348  -17.0360   22.7968 O   0  0  0  0  0  0  0  0  0  0  0  0
   10.6090  -15.8173   31.1389 O   0  0  0  0  0  0  0  0  0  0  0  0
   10.3194  -15.3937   29.8429 C   0  0  0  0  0  0  0  0  0  0  0  0
   10.5144  -16.2378   28.7708 C   0  0  0  0  0  0  0  0  0  0  0  0
   10.2272  -15.8161   27.4933 C   0  0  0  0  0  0  0  0  0  0  0  0
    9.7318  -14.5309   27.2289 C   0  0  0  0  0  0  0  0  0  0  0  0
    9.4660  -14.1112   25.8427 C   0  0  0  0  0  0  0  0  0  0  0  0
    9.0903  -15.2764   25.0035 C   0  0  2  0  0  0  0  0  0  0  0  0
    8.8791  -14.8997   23.6101 N   0  0  0  0  0  0  0  0  0  0  0  0
    7.8409  -15.8860   25.4832 C   0  0  0  0  0  0  0  0  0  0  0  0
    7.8484  -17.0251   26.2580 O   0  0  0  0  0  0  0  0  0  0  0  0
    9.5550  -13.7234   28.3444 C   0  0  0  0  0  0  0  0  0  0  0  0
    9.8363  -14.1288   29.6241 C   0  0  0  0  0  0  0  0  0  0  0  0
    6.7138  -15.3612   25.1810 O   0  0  0  0  0  0  0  0  0  0  0  0
  2  1  1  0
  3  4  1  6
  3  2  1  0
  5  3  1  0
  6  5  2  0
  8  7  1  6
  8 10  1  0
  9  8  1  0
 10 12  1  0
 10 11  1  6
 11  5  1  0
 12 21  1  0
 13 12  2  0
 15 14  1  0
 16 15  2  0
 17 16  1  0
 18 17  2  0
 18 24  1  0
 19 18  1  0
 20 19  1  1
 20 22  1  0
 21 20  1  0
 22 26  2  0
 22 23  1  0
 24 25  2  0
 25 15  1  0
M  END
$$$$
