STY.pdb
     RDKit          3D

 26 26  0  0  1  0  0  0  0  0999 V2000
   11.4502  -13.2886   18.8332 O   0  0  0  0  0  0  0  0  0  0  0  0
   10.3344  -13.0575   19.6704 C   0  0  0  0  0  0  0  0  0  0  0  0
    9.1475  -13.8753   19.1448 C   0  0  2  0  0  0  0  0  0  0  0  0
    8.2664  -12.9647   18.4520 N   0  0  0  0  0  0  0  0  0  0  0  0
    8.4318  -14.3572   20.3710 C   0  0  0  0  0  0  0  0  0  0  0  0
    7.5477  -13.6685   20.9284 O   0  0  0  0  0  0  0  0  0  0  0  0
    6.4311  -17.7644   20.8406 C   0  0  0  0  0  0  0  0  0  0  0  0
    7.5566  -17.6409   21.8608 C   0  0  1  0  0  0  0  0  0  0  0  0
    8.5373  -18.5884   21.6731 O   0  0  0  0  0  0  0  0  0  0  0  0
    8.0206  -16.2502   22.0162 C   0  0  2  0  0  0  0  0  0  0  0  0
    8.7058  -15.6122   20.9750 N   0  0  0  0  0  0  0  0  0  0  0  0
    8.8720  -16.1752   23.2447 C   0  0  0  0  0  0  0  0  0  0  0  0
   10.1024  -15.9896   23.0715 O   0  0  0  0  0  0  0  0  0  0  0  0
    5.9239  -10.6113   26.0903 O   0  0  0  0  0  0  0  0  0  0  0  0
    6.5208  -11.8559   26.2838 C   0  0  0  0  0  0  0  0  0  0  0  0
    5.7551  -13.0016   26.3174 C   0  0  0  0  0  0  0  0  0  0  0  0
    6.3480  -14.2280   26.5085 C   0  0  0  0  0  0  0  0  0  0  0  0
    7.7338  -14.3657   26.6748 C   0  0  0  0  0  0  0  0  0  0  0  0
    8.3227  -15.6952   26.9064 C   0  0  0  0  0  0  0  0  0  0  0  0
    9.1646  -16.1051   25.7546 C   0  0  2  0  0  0  0  0  0  0  0  0
    8.3750  -16.2987   24.5433 N   0  0  0  0  0  0  0  0  0  0  0  0
    9.8511  -17.3753   26.0338 C   0  0  0  0  0  0  0  0  0  0  0  0
    9.5740  -18.5156   25.3118 O   0  0  0  0  0  0  0  0  0  0  0  0
    8.4557  -13.1805   26.6327 C   0  0  0  0  0  0  0  0  0  0  0  0
    7.8798  -11.9502   26.4429 C   0  0  0  0  0  0  0  0  0  0  0  0
   10.7251  -17.4408   26.9658 O   0  0  0  0  0  0  0  0  0  0  0  0
  2  1  1  0
  3  4  1  6
  3  2  1  0
  5  3  1  0
  6  5  2  0
  8  7  1  6
  8 10  1  0
  9  8  1  0
 10 12  1  0
 10 11  1  6
 11  5  1  0
 12 21  1  0
 13 12  2  0
 15 14  1  0
 16 15  2  0
 17 16  1  0
 18 17  2  0
 18 24  1  0
 19 18  1  0
 20 19  1  1
 20 22  1  0
 21 20  1  0
 22 26  2  0
 22 23  1  0
 24 25  2  0
 25 15  1  0
M  END
$$$$
