STY.pdb
     RDKit          3D

 26 26  0  0  1  0  0  0  0  0999 V2000
    9.9312  -12.3956   20.2610 O   0  0  0  0  0  0  0  0  0  0  0  0
    8.9580  -12.3624   19.2358 C   0  0  0  0  0  0  0  0  0  0  0  0
    8.7402  -13.7902   18.7181 C   0  0  2  0  0  0  0  0  0  0  0  0
    7.8184  -13.7133   17.6090 N   0  0  0  0  0  0  0  0  0  0  0  0
    8.0478  -14.5096   19.8366 C   0  0  0  0  0  0  0  0  0  0  0  0
    6.8122  -14.4151   20.0127 O   0  0  0  0  0  0  0  0  0  0  0  0
    7.0427  -17.9455   20.4921 C   0  0  0  0  0  0  0  0  0  0  0  0
    8.0815  -17.6075   21.5549 C   0  0  1  0  0  0  0  0  0  0  0  0
    9.2570  -18.3006   21.3747 O   0  0  0  0  0  0  0  0  0  0  0  0
    8.2122  -16.1544   21.7671 C   0  0  2  0  0  0  0  0  0  0  0  0
    8.7392  -15.3366   20.7602 N   0  0  0  0  0  0  0  0  0  0  0  0
    9.0151  -15.9331   23.0105 C   0  0  0  0  0  0  0  0  0  0  0  0
   10.2035  -15.5549   22.8583 O   0  0  0  0  0  0  0  0  0  0  0  0
    5.4750  -10.8188   25.9538 O   0  0  0  0  0  0  0  0  0  0  0  0
    6.1788  -12.0074   26.1399 C   0  0  0  0  0  0  0  0  0  0  0  0
    7.5261  -11.9847   26.4303 C   0  0  0  0  0  0  0  0  0  0  0  0
    8.2171  -13.1600   26.6135 C   0  0  0  0  0  0  0  0  0  0  0  0
    7.5929  -14.4121   26.5148 C   0  0  0  0  0  0  0  0  0  0  0  0
    8.3777  -15.6458   26.6893 C   0  0  0  0  0  0  0  0  0  0  0  0
    9.2704  -15.8701   25.5247 C   0  0  2  0  0  0  0  0  0  0  0  0
    8.5176  -16.1227   24.3010 N   0  0  0  0  0  0  0  0  0  0  0  0
   10.1401  -17.0346   25.7484 C   0  0  0  0  0  0  0  0  0  0  0  0
   11.1797  -16.9922   26.6515 O   0  0  0  0  0  0  0  0  0  0  0  0
    6.2366  -14.3759   26.2204 C   0  0  0  0  0  0  0  0  0  0  0  0
    5.5334  -13.2130   26.0351 C   0  0  0  0  0  0  0  0  0  0  0  0
    9.9425  -18.1175   25.0962 O   0  0  0  0  0  0  0  0  0  0  0  0
  2  1  1  0
  3  4  1  6
  3  2  1  0
  5  3  1  0
  6  5  2  0
  8  7  1  6
  8 10  1  0
  9  8  1  0
 10 12  1  0
 10 11  1  6
 11  5  1  0
 12 21  1  0
 13 12  2  0
 15 14  1  0
 16 15  2  0
 17 16  1  0
 18 17  2  0
 18 24  1  0
 19 18  1  0
 20 19  1  1
 20 22  1  0
 21 20  1  0
 22 26  2  0
 22 23  1  0
 24 25  2  0
 25 15  1  0
M  END
$$$$
