DLM.pdb
     RDKit          3D

 25 24  0  0  1  0  0  0  0  0999 V2000
    8.1472  -19.4940   21.2266 N   0  0  0  0  0  0  0  0  0  0  0  0
    9.5059  -19.2573   20.7995 C   0  0  1  0  0  0  0  0  0  0  0  0
    9.7151  -19.7737   19.4147 C   0  0  0  0  0  0  0  0  0  0  0  0
    9.0963  -21.1067   19.2749 C   0  0  0  0  0  0  0  0  0  0  0  0
    9.0687  -21.8686   20.2639 O   0  0  0  0  0  0  0  0  0  0  0  0
    9.7826  -17.7873   20.7988 C   0  0  0  0  0  0  0  0  0  0  0  0
   10.9496  -17.3685   20.5435 O   0  0  0  0  0  0  0  0  0  0  0  0
    8.5661  -21.4847   18.0728 O   0  0  0  0  0  0  0  0  0  0  0  0
    8.7709  -12.7256   19.5470 C   0  0  0  0  0  0  0  0  0  0  0  0
    7.9791  -13.1350   20.7812 C   0  0  1  0  0  0  0  0  0  0  0  0
    6.7672  -12.2840   20.8893 C   0  0  0  0  0  0  0  0  0  0  0  0
    7.7674  -14.5953   20.8445 C   0  0  0  0  0  0  0  0  0  0  0  0
    8.9735  -15.4322   21.0854 C   0  0  2  0  0  0  0  0  0  0  0  0
    8.7621  -16.8384   21.0801 N   0  0  0  0  0  0  0  0  0  0  0  0
    9.6640  -15.0106   22.3566 C   0  0  0  0  0  0  0  0  0  0  0  0
   10.2020  -13.8879   22.4761 O   0  0  0  0  0  0  0  0  0  0  0  0
    6.7282  -11.6093   26.2407 C   0  0  0  0  0  0  0  0  0  0  0  0
    6.4945  -13.3542   26.6722 S   0  0  0  0  0  0  0  0  0  0  0  0
    8.0319  -14.2843   26.4837 C   0  0  0  0  0  0  0  0  0  0  0  0
    8.2094  -14.7609   25.0414 C   0  0  0  0  0  0  0  0  0  0  0  0
    9.5456  -15.3930   24.8351 C   0  0  2  0  0  0  0  0  0  0  0  0
    9.7337  -15.8787   23.4836 N   0  0  0  0  0  0  0  0  0  0  0  0
    9.6991  -16.4827   25.8333 C   0  0  0  0  0  0  0  0  0  0  0  0
    9.6640  -16.1802   27.0530 O   0  0  0  0  0  0  0  0  0  0  0  0
    9.8775  -17.8045   25.4671 O   0  0  0  0  0  0  0  0  0  0  0  0
  2  1  1  6
  2  3  1  0
  2  6  1  0
  4  8  1  0
  4  3  1  0
  5  4  2  0
  6  7  2  0
 10  9  1  6
 10 11  1  0
 12 10  1  0
 13 12  1  1
 14 13  1  0
 14  6  1  0
 15 13  1  0
 15 22  1  0
 16 15  2  0
 17 18  1  0
 18 19  1  0
 19 20  1  0
 21 22  1  0
 21 20  1  6
 23 21  1  0
 24 23  2  0
 25 23  1  0
M  END
$$$$
