DLM.pdb
     RDKit          3D

 25 24  0  0  1  0  0  0  0  0999 V2000
    8.0041  -18.6668   20.1594 N   0  0  0  0  0  0  0  0  0  0  0  0
    9.4000  -18.4027   19.9021 C   0  0  1  0  0  0  0  0  0  0  0  0
    9.6662  -18.3872   18.4335 C   0  0  0  0  0  0  0  0  0  0  0  0
    9.1013  -19.5982   17.8059 C   0  0  0  0  0  0  0  0  0  0  0  0
    8.7347  -20.5436   18.5350 O   0  0  0  0  0  0  0  0  0  0  0  0
    9.7683  -17.0644   20.4598 C   0  0  0  0  0  0  0  0  0  0  0  0
   10.9415  -16.6177   20.2964 O   0  0  0  0  0  0  0  0  0  0  0  0
    8.9886  -19.6664   16.4453 O   0  0  0  0  0  0  0  0  0  0  0  0
    6.4288  -13.0777   19.6510 C   0  0  0  0  0  0  0  0  0  0  0  0
    7.7304  -13.8402   19.8560 C   0  0  1  0  0  0  0  0  0  0  0  0
    8.7590  -13.3112   18.9251 C   0  0  0  0  0  0  0  0  0  0  0  0
    8.1086  -13.9178   21.2816 C   0  0  0  0  0  0  0  0  0  0  0  0
    9.1036  -14.9607   21.6497 C   0  0  2  0  0  0  0  0  0  0  0  0
    8.8290  -16.2729   21.1753 N   0  0  0  0  0  0  0  0  0  0  0  0
    9.3247  -14.9776   23.1402 C   0  0  0  0  0  0  0  0  0  0  0  0
    9.7710  -13.9835   23.7539 O   0  0  0  0  0  0  0  0  0  0  0  0
    6.8999  -11.2907   27.1709 C   0  0  0  0  0  0  0  0  0  0  0  0
    6.5044  -12.9864   26.6669 S   0  0  0  0  0  0  0  0  0  0  0  0
    7.9852  -13.8674   26.1234 C   0  0  0  0  0  0  0  0  0  0  0  0
    7.6604  -15.3211   25.7770 C   0  0  0  0  0  0  0  0  0  0  0  0
    8.8819  -16.0691   25.3573 C   0  0  2  0  0  0  0  0  0  0  0  0
    9.0329  -16.1343   23.9183 N   0  0  0  0  0  0  0  0  0  0  0  0
    8.8228  -17.4248   25.9622 C   0  0  0  0  0  0  0  0  0  0  0  0
    8.5191  -18.3934   25.2207 O   0  0  0  0  0  0  0  0  0  0  0  0
    9.0885  -17.6521   27.3005 O   0  0  0  0  0  0  0  0  0  0  0  0
  2  1  1  6
  2  3  1  0
  2  6  1  0
  4  8  1  0
  4  3  1  0
  5  4  2  0
  6  7  2  0
 10  9  1  1
 10 11  1  0
 12 10  1  0
 13 12  1  1
 14 13  1  0
 14  6  1  0
 15 13  1  0
 15 22  1  0
 16 15  2  0
 17 18  1  0
 18 19  1  0
 19 20  1  0
 21 22  1  0
 21 20  1  6
 23 21  1  0
 24 23  2  0
 25 23  1  0
M  END
$$$$
