DLM.pdb
     RDKit          3D

 25 24  0  0  1  0  0  0  0  0999 V2000
    9.2107  -19.0260   20.0936 N   0  0  0  0  0  0  0  0  0  0  0  0
   10.4555  -18.3808   19.7488 C   0  0  1  0  0  0  0  0  0  0  0  0
   10.5965  -18.2772   18.2664 C   0  0  0  0  0  0  0  0  0  0  0  0
   11.2257  -19.5015   17.7330 C   0  0  0  0  0  0  0  0  0  0  0  0
   11.3850  -20.4807   18.4915 O   0  0  0  0  0  0  0  0  0  0  0  0
   10.4791  -16.9986   20.3201 C   0  0  0  0  0  0  0  0  0  0  0  0
   11.5075  -16.2756   20.1713 O   0  0  0  0  0  0  0  0  0  0  0  0
   11.6220  -19.5450   16.4254 O   0  0  0  0  0  0  0  0  0  0  0  0
    8.2686  -14.0402   19.0199 C   0  0  0  0  0  0  0  0  0  0  0  0
    7.9295  -13.4435   20.3787 C   0  0  1  0  0  0  0  0  0  0  0  0
    6.6444  -12.7061   20.2822 C   0  0  0  0  0  0  0  0  0  0  0  0
    8.0385  -14.4393   21.4640 C   0  0  0  0  0  0  0  0  0  0  0  0
    9.3364  -15.1572   21.5797 C   0  0  2  0  0  0  0  0  0  0  0  0
    9.3687  -16.4694   21.0327 N   0  0  0  0  0  0  0  0  0  0  0  0
    9.8050  -15.1745   23.0118 C   0  0  0  0  0  0  0  0  0  0  0  0
    9.8493  -14.1350   23.7058 O   0  0  0  0  0  0  0  0  0  0  0  0
    9.8976  -12.2600   27.8755 C   0  0  0  0  0  0  0  0  0  0  0  0
    9.9733  -14.0630   27.7039 S   0  0  0  0  0  0  0  0  0  0  0  0
    9.2736  -14.5979   26.1264 C   0  0  0  0  0  0  0  0  0  0  0  0
    9.4310  -16.1079   25.9423 C   0  0  0  0  0  0  0  0  0  0  0  0
   10.5769  -16.4325   25.0427 C   0  0  2  0  0  0  0  0  0  0  0  0
   10.2201  -16.3835   23.6399 N   0  0  0  0  0  0  0  0  0  0  0  0
   11.1003  -17.7689   25.4268 C   0  0  0  0  0  0  0  0  0  0  0  0
   10.9330  -18.7245   24.6274 O   0  0  0  0  0  0  0  0  0  0  0  0
   11.7584  -17.9921   26.6228 O   0  0  0  0  0  0  0  0  0  0  0  0
  2  1  1  6
  2  3  1  0
  2  6  1  0
  4  8  1  0
  4  3  1  0
  5  4  2  0
  6  7  2  0
 10  9  1  6
 10 11  1  0
 12 10  1  0
 13 12  1  1
 14 13  1  0
 14  6  1  0
 15 13  1  0
 15 22  1  0
 16 15  2  0
 17 18  1  0
 18 19  1  0
 19 20  1  0
 21 22  1  0
 21 20  1  1
 23 21  1  0
 24 23  2  0
 25 23  1  0
M  END
$$$$
