DLM.pdb
     RDKit          3D

 25 24  0  0  1  0  0  0  0  0999 V2000
    9.2397  -18.9233   20.0979 N   0  0  0  0  0  0  0  0  0  0  0  0
   10.5828  -18.4090   19.9706 C   0  0  1  0  0  0  0  0  0  0  0  0
   11.0114  -18.4172   18.5408 C   0  0  0  0  0  0  0  0  0  0  0  0
   11.5733  -19.7367   18.1905 C   0  0  0  0  0  0  0  0  0  0  0  0
   11.2874  -20.7244   18.8991 O   0  0  0  0  0  0  0  0  0  0  0  0
   10.6286  -16.9983   20.4660 C   0  0  0  0  0  0  0  0  0  0  0  0
   11.7292  -16.3729   20.4780 O   0  0  0  0  0  0  0  0  0  0  0  0
   12.3926  -19.8569   17.1029 O   0  0  0  0  0  0  0  0  0  0  0  0
    6.2961  -13.3342   19.9402 C   0  0  0  0  0  0  0  0  0  0  0  0
    7.7198  -13.8732   19.9502 C   0  0  1  0  0  0  0  0  0  0  0  0
    8.6071  -12.9242   19.2315 C   0  0  0  0  0  0  0  0  0  0  0  0
    8.1485  -14.2809   21.3034 C   0  0  0  0  0  0  0  0  0  0  0  0
    9.4508  -14.9933   21.4019 C   0  0  2  0  0  0  0  0  0  0  0  0
    9.4600  -16.3342   20.9287 N   0  0  0  0  0  0  0  0  0  0  0  0
    9.9823  -14.9306   22.8105 C   0  0  0  0  0  0  0  0  0  0  0  0
   10.7860  -14.0446   23.1755 O   0  0  0  0  0  0  0  0  0  0  0  0
    6.9202  -11.8243   28.1199 C   0  0  0  0  0  0  0  0  0  0  0  0
    7.2963  -12.4256   26.4518 S   0  0  0  0  0  0  0  0  0  0  0  0
    7.3965  -14.2292   26.4159 C   0  0  0  0  0  0  0  0  0  0  0  0
    7.8240  -14.7259   25.0341 C   0  0  0  0  0  0  0  0  0  0  0  0
    9.1087  -15.4827   25.0986 C   0  0  2  0  0  0  0  0  0  0  0  0
    9.5893  -15.8844   23.7926 N   0  0  0  0  0  0  0  0  0  0  0  0
    8.9097  -16.6537   25.9912 C   0  0  0  0  0  0  0  0  0  0  0  0
    8.5271  -16.4436   27.1701 O   0  0  0  0  0  0  0  0  0  0  0  0
    9.1296  -17.9529   25.5706 O   0  0  0  0  0  0  0  0  0  0  0  0
  2  1  1  6
  2  3  1  0
  2  6  1  0
  4  8  1  0
  4  3  1  0
  5  4  2  0
  6  7  2  0
 10  9  1  1
 10 11  1  0
 12 10  1  0
 13 12  1  1
 14 13  1  0
 14  6  1  0
 15 13  1  0
 15 22  1  0
 16 15  2  0
 17 18  1  0
 18 19  1  0
 19 20  1  0
 21 22  1  0
 21 20  1  6
 23 21  1  0
 24 23  2  0
 25 23  1  0
M  END
$$$$
