DLM.pdb
     RDKit          3D

 25 24  0  0  1  0  0  0  0  0999 V2000
   10.9053  -18.4234   19.4052 N   0  0  0  0  0  0  0  0  0  0  0  0
   11.8723  -17.7167   20.2114 C   0  0  1  0  0  0  0  0  0  0  0  0
   12.9626  -17.1647   19.3543 C   0  0  0  0  0  0  0  0  0  0  0  0
   13.9274  -18.2301   19.0175 C   0  0  0  0  0  0  0  0  0  0  0  0
   14.0900  -19.1753   19.8173 O   0  0  0  0  0  0  0  0  0  0  0  0
   11.2038  -16.5767   20.9122 C   0  0  0  0  0  0  0  0  0  0  0  0
   11.8953  -15.7728   21.6036 O   0  0  0  0  0  0  0  0  0  0  0  0
   14.6238  -18.1667   17.8428 O   0  0  0  0  0  0  0  0  0  0  0  0
    6.6013  -13.6301   19.0340 C   0  0  0  0  0  0  0  0  0  0  0  0
    7.9632  -13.9900   19.6114 C   0  0  1  0  0  0  0  0  0  0  0  0
    8.7680  -12.7529   19.7738 C   0  0  0  0  0  0  0  0  0  0  0  0
    7.8492  -14.8629   20.7973 C   0  0  0  0  0  0  0  0  0  0  0  0
    9.1239  -15.2811   21.4402 C   0  0  2  0  0  0  0  0  0  0  0  0
    9.8003  -16.3692   20.8232 N   0  0  0  0  0  0  0  0  0  0  0  0
    8.9104  -15.5595   22.9056 C   0  0  0  0  0  0  0  0  0  0  0  0
    9.0790  -16.6984   23.3939 O   0  0  0  0  0  0  0  0  0  0  0  0
    6.6846  -11.0465   27.1696 C   0  0  0  0  0  0  0  0  0  0  0  0
    6.4015  -12.5568   28.1313 S   0  0  0  0  0  0  0  0  0  0  0  0
    7.0542  -14.0074   27.2746 C   0  0  0  0  0  0  0  0  0  0  0  0
    7.5037  -13.6494   25.8574 C   0  0  0  0  0  0  0  0  0  0  0  0
    8.1454  -14.8126   25.1772 C   0  0  2  0  0  0  0  0  0  0  0  0
    8.5048  -14.5304   23.8028 N   0  0  0  0  0  0  0  0  0  0  0  0
    7.2195  -15.9707   25.2728 C   0  0  0  0  0  0  0  0  0  0  0  0
    6.3759  -16.1340   24.3553 O   0  0  0  0  0  0  0  0  0  0  0  0
    7.2563  -16.8647   26.3276 O   0  0  0  0  0  0  0  0  0  0  0  0
  2  1  1  6
  2  3  1  0
  2  6  1  0
  4  8  1  0
  4  3  1  0
  5  4  2  0
  6  7  2  0
 10  9  1  1
 10 11  1  0
 12 10  1  0
 13 12  1  6
 14 13  1  0
 14  6  1  0
 15 13  1  0
 15 22  1  0
 16 15  2  0
 17 18  1  0
 18 19  1  0
 19 20  1  0
 21 22  1  0
 21 20  1  6
 23 21  1  0
 24 23  2  0
 25 23  1  0
M  END
$$$$
