DLM.pdb
     RDKit          3D

 25 24  0  0  1  0  0  0  0  0999 V2000
    8.5033  -18.4101   21.1325 N   0  0  0  0  0  0  0  0  0  0  0  0
    9.7368  -17.6839   20.9437 C   0  0  1  0  0  0  0  0  0  0  0  0
    9.8165  -17.1429   19.5548 C   0  0  0  0  0  0  0  0  0  0  0  0
   10.1013  -18.2355   18.6037 C   0  0  0  0  0  0  0  0  0  0  0  0
   10.1772  -19.4064   19.0311 O   0  0  0  0  0  0  0  0  0  0  0  0
    9.7933  -16.5343   21.8989 C   0  0  0  0  0  0  0  0  0  0  0  0
   10.7609  -15.7198   21.8442 O   0  0  0  0  0  0  0  0  0  0  0  0
   10.2765  -17.9511   17.2781 O   0  0  0  0  0  0  0  0  0  0  0  0
    6.3336  -13.6011   26.2033 C   0  0  0  0  0  0  0  0  0  0  0  0
    7.2392  -13.6441   24.9803 C   0  0  1  0  0  0  0  0  0  0  0  0
    8.4183  -12.7727   25.2139 C   0  0  0  0  0  0  0  0  0  0  0  0
    7.5176  -15.0279   24.5454 C   0  0  0  0  0  0  0  0  0  0  0  0
    8.7862  -15.2480   23.8002 C   0  0  2  0  0  0  0  0  0  0  0  0
    8.7815  -16.3290   22.8762 N   0  0  0  0  0  0  0  0  0  0  0  0
    9.9443  -15.3797   24.7553 C   0  0  0  0  0  0  0  0  0  0  0  0
   10.4858  -14.3819   25.2799 O   0  0  0  0  0  0  0  0  0  0  0  0
    9.8619  -12.6240   28.8275 C   0  0  0  0  0  0  0  0  0  0  0  0
   10.0251  -14.3200   29.4463 S   0  0  0  0  0  0  0  0  0  0  0  0
   11.0396  -15.3237   28.3383 C   0  0  0  0  0  0  0  0  0  0  0  0
   10.1704  -16.2640   27.5024 C   0  0  0  0  0  0  0  0  0  0  0  0
   10.9658  -16.9403   26.4359 C   0  0  2  0  0  0  0  0  0  0  0  0
   10.4747  -16.6549   25.1035 N   0  0  0  0  0  0  0  0  0  0  0  0
   10.9668  -18.3993   26.7167 C   0  0  0  0  0  0  0  0  0  0  0  0
   11.4360  -18.7925   27.8146 O   0  0  0  0  0  0  0  0  0  0  0  0
   10.4735  -19.3280   25.8182 O   0  0  0  0  0  0  0  0  0  0  0  0
  2  1  1  6
  2  3  1  0
  2  6  1  0
  4  8  1  0
  4  3  1  0
  5  4  2  0
  6  7  2  0
 10  9  1  1
 10 11  1  0
 12 10  1  0
 13 12  1  1
 14 13  1  0
 14  6  1  0
 15 13  1  0
 15 22  1  0
 16 15  2  0
 17 18  1  0
 18 19  1  0
 19 20  1  0
 21 22  1  0
 21 20  1  1
 23 21  1  0
 24 23  2  0
 25 23  1  0
M  END
$$$$
