DLM.pdb
     RDKit          3D

 25 24  0  0  1  0  0  0  0  0999 V2000
    8.4462  -18.1326   20.9595 N   0  0  0  0  0  0  0  0  0  0  0  0
    9.7708  -17.5708   20.8396 C   0  0  1  0  0  0  0  0  0  0  0  0
    9.9984  -17.0618   19.4550 C   0  0  0  0  0  0  0  0  0  0  0  0
    9.8701  -18.1666   18.4843 C   0  0  0  0  0  0  0  0  0  0  0  0
    8.8074  -18.8215   18.4487 O   0  0  0  0  0  0  0  0  0  0  0  0
    9.9178  -16.4255   21.7906 C   0  0  0  0  0  0  0  0  0  0  0  0
   10.9703  -15.7225   21.7684 O   0  0  0  0  0  0  0  0  0  0  0  0
   10.9095  -18.4544   17.6443 O   0  0  0  0  0  0  0  0  0  0  0  0
    8.1666  -12.1747   24.7027 C   0  0  0  0  0  0  0  0  0  0  0  0
    7.7852  -13.5281   25.2861 C   0  0  1  0  0  0  0  0  0  0  0  0
    6.5975  -13.3659   26.1622 C   0  0  0  0  0  0  0  0  0  0  0  0
    7.7008  -14.5752   24.2479 C   0  0  0  0  0  0  0  0  0  0  0  0
    8.9862  -15.0165   23.6426 C   0  0  2  0  0  0  0  0  0  0  0  0
    8.8991  -16.1016   22.7278 N   0  0  0  0  0  0  0  0  0  0  0  0
   10.0007  -15.3157   24.7160 C   0  0  0  0  0  0  0  0  0  0  0  0
   10.7550  -14.4316   25.1780 O   0  0  0  0  0  0  0  0  0  0  0  0
    9.7006  -12.7584   29.5854 C   0  0  0  0  0  0  0  0  0  0  0  0
    9.9372  -14.5507   29.4543 S   0  0  0  0  0  0  0  0  0  0  0  0
   10.5540  -15.0092   27.8191 C   0  0  0  0  0  0  0  0  0  0  0  0
   10.5991  -16.5294   27.6581 C   0  0  0  0  0  0  0  0  0  0  0  0
   11.0946  -16.9214   26.3059 C   0  0  2  0  0  0  0  0  0  0  0  0
   10.1444  -16.6269   25.2532 N   0  0  0  0  0  0  0  0  0  0  0  0
   11.4390  -18.3662   26.3422 C   0  0  0  0  0  0  0  0  0  0  0  0
   10.7605  -19.1565   25.6383 O   0  0  0  0  0  0  0  0  0  0  0  0
   12.4710  -18.8636   27.1174 O   0  0  0  0  0  0  0  0  0  0  0  0
  2  1  1  6
  2  3  1  0
  2  6  1  0
  4  8  1  0
  4  3  1  0
  5  4  2  0
  6  7  2  0
 10  9  1  6
 10 11  1  0
 12 10  1  0
 13 12  1  1
 14 13  1  0
 14  6  1  0
 15 13  1  0
 15 22  1  0
 16 15  2  0
 17 18  1  0
 18 19  1  0
 19 20  1  0
 21 22  1  0
 21 20  1  1
 23 21  1  0
 24 23  2  0
 25 23  1  0
M  END
$$$$
