DLM.pdb
     RDKit          3D

 25 24  0  0  1  0  0  0  0  0999 V2000
   10.9125  -17.6256   18.7641 N   0  0  0  0  0  0  0  0  0  0  0  0
   11.1429  -17.9626   20.1490 C   0  0  1  0  0  0  0  0  0  0  0  0
   12.5786  -18.3052   20.3708 C   0  0  0  0  0  0  0  0  0  0  0  0
   12.9727  -19.4214   19.4887 C   0  0  0  0  0  0  0  0  0  0  0  0
   12.2565  -20.4437   19.4482 O   0  0  0  0  0  0  0  0  0  0  0  0
   10.8011  -16.7910   21.0138 C   0  0  0  0  0  0  0  0  0  0  0  0
   11.7208  -16.1749   21.6280 O   0  0  0  0  0  0  0  0  0  0  0  0
   14.1081  -19.3202   18.7341 O   0  0  0  0  0  0  0  0  0  0  0  0
    6.3848  -13.5819   19.8361 C   0  0  0  0  0  0  0  0  0  0  0  0
    7.7901  -14.0111   20.2344 C   0  0  1  0  0  0  0  0  0  0  0  0
    8.7444  -12.9201   19.9124 C   0  0  0  0  0  0  0  0  0  0  0  0
    7.8375  -14.5438   21.6111 C   0  0  0  0  0  0  0  0  0  0  0  0
    9.0803  -15.2608   22.0042 C   0  0  2  0  0  0  0  0  0  0  0  0
    9.4597  -16.3460   21.1672 N   0  0  0  0  0  0  0  0  0  0  0  0
    8.9999  -15.7095   23.4404 C   0  0  0  0  0  0  0  0  0  0  0  0
    8.0527  -16.4083   23.8629 O   0  0  0  0  0  0  0  0  0  0  0  0
    5.9567  -11.9448   26.1752 C   0  0  0  0  0  0  0  0  0  0  0  0
    7.4341  -11.8399   27.2201 S   0  0  0  0  0  0  0  0  0  0  0  0
    8.3650  -13.3881   27.1908 C   0  0  0  0  0  0  0  0  0  0  0  0
    8.7229  -13.7839   25.7576 C   0  0  0  0  0  0  0  0  0  0  0  0
    9.6767  -14.9316   25.7295 C   0  0  2  0  0  0  0  0  0  0  0  0
   10.0060  -15.3544   24.3839 N   0  0  0  0  0  0  0  0  0  0  0  0
    9.0861  -16.0413   26.5215 C   0  0  0  0  0  0  0  0  0  0  0  0
    8.9939  -15.8984   27.7670 O   0  0  0  0  0  0  0  0  0  0  0  0
    8.6397  -17.2133   25.9381 O   0  0  0  0  0  0  0  0  0  0  0  0
  2  1  1  6
  2  3  1  0
  2  6  1  0
  4  8  1  0
  4  3  1  0
  5  4  2  0
  6  7  2  0
 10  9  1  1
 10 11  1  0
 12 10  1  0
 13 12  1  6
 14 13  1  0
 14  6  1  0
 15 13  1  0
 15 22  1  0
 16 15  2  0
 17 18  1  0
 18 19  1  0
 19 20  1  0
 21 22  1  0
 21 20  1  6
 23 21  1  0
 24 23  2  0
 25 23  1  0
M  END
$$$$
