DLM.pdb
     RDKit          3D

 25 24  0  0  1  0  0  0  0  0999 V2000
    9.4504  -18.7805   20.9170 N   0  0  0  0  0  0  0  0  0  0  0  0
   10.6965  -18.1024   20.6485 C   0  0  1  0  0  0  0  0  0  0  0  0
   11.0605  -18.2312   19.2066 C   0  0  0  0  0  0  0  0  0  0  0  0
   11.5880  -19.5837   18.9386 C   0  0  0  0  0  0  0  0  0  0  0  0
   10.7939  -20.5465   18.8970 O   0  0  0  0  0  0  0  0  0  0  0  0
   10.5552  -16.6481   20.9686 C   0  0  0  0  0  0  0  0  0  0  0  0
   11.5404  -15.8706   20.8036 O   0  0  0  0  0  0  0  0  0  0  0  0
   12.9291  -19.7609   18.7413 O   0  0  0  0  0  0  0  0  0  0  0  0
    6.2650  -13.3502   19.5196 C   0  0  0  0  0  0  0  0  0  0  0  0
    7.6758  -13.8099   19.8600 C   0  0  1  0  0  0  0  0  0  0  0  0
    8.6520  -12.8205   19.3379 C   0  0  0  0  0  0  0  0  0  0  0  0
    7.8096  -14.1803   21.2835 C   0  0  0  0  0  0  0  0  0  0  0  0
    9.1273  -14.7250   21.7077 C   0  0  2  0  0  0  0  0  0  0  0  0
    9.3340  -16.1096   21.4581 N   0  0  0  0  0  0  0  0  0  0  0  0
    9.3877  -14.4091   23.1579 C   0  0  0  0  0  0  0  0  0  0  0  0
    9.3660  -13.2371   23.5938 O   0  0  0  0  0  0  0  0  0  0  0  0
    6.8729  -11.8915   26.9088 C   0  0  0  0  0  0  0  0  0  0  0  0
    7.8850  -13.2230   27.6077 S   0  0  0  0  0  0  0  0  0  0  0  0
    7.3275  -14.8401   27.0257 C   0  0  0  0  0  0  0  0  0  0  0  0
    7.7499  -15.0745   25.5747 C   0  0  0  0  0  0  0  0  0  0  0  0
    9.2094  -15.3689   25.4709 C   0  0  2  0  0  0  0  0  0  0  0  0
    9.6715  -15.4389   24.1001 N   0  0  0  0  0  0  0  0  0  0  0  0
    9.4777  -16.6336   26.2030 C   0  0  0  0  0  0  0  0  0  0  0  0
    9.5756  -17.6957   25.5376 O   0  0  0  0  0  0  0  0  0  0  0  0
    9.6215  -16.6788   27.5779 O   0  0  0  0  0  0  0  0  0  0  0  0
  2  1  1  6
  2  3  1  0
  2  6  1  0
  4  8  1  0
  4  3  1  0
  5  4  2  0
  6  7  2  0
 10  9  1  1
 10 11  1  0
 12 10  1  0
 13 12  1  1
 14 13  1  0
 14  6  1  0
 15 13  1  0
 15 22  1  0
 16 15  2  0
 17 18  1  0
 18 19  1  0
 19 20  1  0
 21 22  1  0
 21 20  1  6
 23 21  1  0
 24 23  2  0
 25 23  1  0
M  END
$$$$
