ITL.pdb
     RDKit          3D

 24 23  0  0  1  0  0  0  0  0999 V2000
   14.2090  -14.1249  -19.5600 C   0  0  0  0  0  0  0  0  0  0  0  0
   15.2789  -14.1509  -18.5086 C   0  0  0  0  0  0  0  0  0  0  0  0
   16.1858  -12.9688  -18.6021 C   0  0  2  0  0  0  0  0  0  0  0  0
   17.2557  -13.2582  -19.6436 C   0  0  0  0  0  0  0  0  0  0  0  0
   16.7908  -12.5658  -17.2858 C   0  0  2  0  0  0  0  0  0  0  0  0
   15.6608  -12.2845  -16.3802 N   0  0  0  0  0  0  0  0  0  0  0  0
   17.5883  -11.3255  -17.3726 C   0  0  0  0  0  0  0  0  0  0  0  0
   18.6572  -11.3344  -18.0348 O   0  0  0  0  0  0  0  0  0  0  0  0
   16.5860   -7.7244  -18.4227 C   0  0  0  0  0  0  0  0  0  0  0  0
   17.2760   -7.6762  -17.0800 C   0  0  1  0  0  0  0  0  0  0  0  0
   16.2504   -7.6782  -16.1113 O   0  0  0  0  0  0  0  0  0  0  0  0
   18.1385   -8.9270  -16.8805 C   0  0  2  0  0  0  0  0  0  0  0  0
   17.2525  -10.0877  -16.7632 N   0  0  0  0  0  0  0  0  0  0  0  0
   18.9094   -8.7532  -15.6215 C   0  0  0  0  0  0  0  0  0  0  0  0
   18.6736   -9.4593  -14.5919 O   0  0  0  0  0  0  0  0  0  0  0  0
   22.8804   -9.4410  -12.7496 C   0  0  0  0  0  0  0  0  0  0  0  0
   22.9116   -9.7567  -14.2323 C   0  0  2  0  0  0  0  0  0  0  0  0
   24.2598   -9.5350  -14.8662 C   0  0  0  0  0  0  0  0  0  0  0  0
   21.7451   -9.2716  -14.9824 C   0  0  0  0  0  0  0  0  0  0  0  0
   21.1450   -7.9660  -14.7049 C   0  0  2  0  0  0  0  0  0  0  0  0
   19.9279   -7.7981  -15.5299 N   0  0  0  0  0  0  0  0  0  0  0  0
   21.9290   -6.7586  -14.8307 C   0  0  0  0  0  0  0  0  0  0  0  0
   22.6751   -6.1747  -13.8155 O   0  0  0  0  0  0  0  0  0  0  0  0
   21.9830   -6.1310  -15.9260 O   0  0  0  0  0  0  0  0  0  0  0  0
  2  1  1  0
  3  5  1  0
  3  2  1  0
  3  4  1  6
  5  6  1  1
  7  5  1  0
  8  7  2  0
 10  9  1  6
 10 12  1  0
 11 10  1  0
 12 14  1  0
 12 13  1  1
 13  7  1  0
 14 15  2  0
 17 16  1  1
 17 19  1  0
 18 17  1  0
 20 19  1  6
 20 21  1  0
 20 22  1  0
 21 14  1  0
 22 24  2  0
 22 23  1  0
M  END
$$$$
