ITL.pdb
     RDKit          3D

 24 23  0  0  1  0  0  0  0  0999 V2000
   20.3197  -16.5997  -19.0232 C   0  0  0  0  0  0  0  0  0  0  0  0
   21.7425  -16.1611  -18.8383 C   0  0  0  0  0  0  0  0  0  0  0  0
   21.8547  -14.9989  -17.9082 C   0  0  2  0  0  0  0  0  0  0  0  0
   20.9825  -13.8695  -18.4343 C   0  0  0  0  0  0  0  0  0  0  0  0
   23.2691  -14.5434  -17.6782 C   0  0  2  0  0  0  0  0  0  0  0  0
   23.9892  -15.7001  -17.1129 N   0  0  0  0  0  0  0  0  0  0  0  0
   23.3703  -13.4514  -16.6886 C   0  0  0  0  0  0  0  0  0  0  0  0
   23.0270  -13.6739  -15.4996 O   0  0  0  0  0  0  0  0  0  0  0  0
   26.0919  -11.5695  -15.1763 C   0  0  0  0  0  0  0  0  0  0  0  0
   25.1682  -10.5131  -15.7353 C   0  0  1  0  0  0  0  0  0  0  0  0
   25.6944  -10.1585  -16.9953 O   0  0  0  0  0  0  0  0  0  0  0  0
   23.7628  -11.0893  -15.9377 C   0  0  2  0  0  0  0  0  0  0  0  0
   23.8334  -12.1367  -16.9594 N   0  0  0  0  0  0  0  0  0  0  0  0
   22.8817   -9.9877  -16.4065 C   0  0  0  0  0  0  0  0  0  0  0  0
   22.5609   -9.8643  -17.6297 O   0  0  0  0  0  0  0  0  0  0  0  0
   18.8213   -6.5129  -16.1789 C   0  0  0  0  0  0  0  0  0  0  0  0
   19.3674   -7.4723  -17.2183 C   0  0  2  0  0  0  0  0  0  0  0  0
   18.3033   -8.0794  -18.0944 C   0  0  0  0  0  0  0  0  0  0  0  0
   20.4062   -8.3835  -16.7191 C   0  0  0  0  0  0  0  0  0  0  0  0
   21.5221   -7.9001  -15.9051 C   0  0  2  0  0  0  0  0  0  0  0  0
   22.3733   -9.0437  -15.5075 N   0  0  0  0  0  0  0  0  0  0  0  0
   21.2756   -7.1062  -14.7230 C   0  0  0  0  0  0  0  0  0  0  0  0
   21.2338   -7.5915  -13.4226 O   0  0  0  0  0  0  0  0  0  0  0  0
   21.0718   -5.8621  -14.8075 O   0  0  0  0  0  0  0  0  0  0  0  0
  2  1  1  0
  3  5  1  0
  3  2  1  0
  3  4  1  6
  5  6  1  1
  7  5  1  0
  8  7  2  0
 10  9  1  6
 10 12  1  0
 11 10  1  0
 12 14  1  0
 12 13  1  6
 13  7  1  0
 14 15  2  0
 17 16  1  1
 17 19  1  0
 18 17  1  0
 20 19  1  1
 20 21  1  0
 20 22  1  0
 21 14  1  0
 22 24  2  0
 22 23  1  0
M  END
$$$$
