ITL.pdb
     RDKit          3D

 24 23  0  0  1  0  0  0  0  0999 V2000
   29.7696  -20.4940  -13.3598 C   0  0  0  0  0  0  0  0  0  0  0  0
   28.3605  -19.9986  -13.5006 C   0  0  0  0  0  0  0  0  0  0  0  0
   27.9326  -19.9234  -14.9289 C   0  0  2  0  0  0  0  0  0  0  0  0
   28.8533  -18.9599  -15.6618 C   0  0  0  0  0  0  0  0  0  0  0  0
   26.4871  -19.5502  -15.1077 C   0  0  2  0  0  0  0  0  0  0  0  0
   26.3320  -18.2047  -14.5230 N   0  0  0  0  0  0  0  0  0  0  0  0
   25.5655  -20.4431  -14.3762 C   0  0  0  0  0  0  0  0  0  0  0  0
   25.4222  -21.6275  -14.7737 O   0  0  0  0  0  0  0  0  0  0  0  0
   25.5005  -21.4894  -10.7887 C   0  0  0  0  0  0  0  0  0  0  0  0
   24.0977  -21.0287  -11.1069 C   0  0  1  0  0  0  0  0  0  0  0  0
   24.0047  -19.7013  -10.6384 O   0  0  0  0  0  0  0  0  0  0  0  0
   23.8691  -21.0289  -12.6221 C   0  0  2  0  0  0  0  0  0  0  0  0
   24.8051  -20.0818  -13.2327 N   0  0  0  0  0  0  0  0  0  0  0  0
   22.4719  -20.5875  -12.8724 C   0  0  0  0  0  0  0  0  0  0  0  0
   22.2037  -19.4061  -13.2552 O   0  0  0  0  0  0  0  0  0  0  0  0
   17.2856  -21.4810  -14.3494 C   0  0  0  0  0  0  0  0  0  0  0  0
   18.4736  -20.8320  -15.0322 C   0  0  2  0  0  0  0  0  0  0  0  0
   18.3923  -20.8601  -16.5359 C   0  0  0  0  0  0  0  0  0  0  0  0
   19.7749  -21.1674  -14.4382 C   0  0  0  0  0  0  0  0  0  0  0  0
   19.9906  -21.1229  -12.9915 C   0  0  2  0  0  0  0  0  0  0  0  0
   21.3986  -21.4671  -12.6927 N   0  0  0  0  0  0  0  0  0  0  0  0
   19.1531  -21.8956  -12.1026 C   0  0  0  0  0  0  0  0  0  0  0  0
   18.0935  -21.3947  -11.3580 O   0  0  0  0  0  0  0  0  0  0  0  0
   19.3467  -23.1338  -11.9414 O   0  0  0  0  0  0  0  0  0  0  0  0
  2  1  1  0
  3  5  1  0
  3  2  1  0
  3  4  1  6
  5  6  1  1
  7  5  1  0
  8  7  2  0
 10  9  1  6
 10 12  1  0
 11 10  1  0
 12 14  1  0
 12 13  1  6
 13  7  1  0
 14 15  2  0
 17 16  1  1
 17 19  1  0
 18 17  1  0
 20 19  1  6
 20 21  1  0
 20 22  1  0
 21 14  1  0
 22 24  2  0
 22 23  1  0
M  END
$$$$
