ITL.pdb
     RDKit          3D

 24 23  0  0  1  0  0  0  0  0999 V2000
   16.1555  -15.6734  -16.3985 C   0  0  0  0  0  0  0  0  0  0  0  0
   16.1860  -14.8513  -17.6531 C   0  0  0  0  0  0  0  0  0  0  0  0
   17.1164  -13.6893  -17.5397 C   0  0  2  0  0  0  0  0  0  0  0  0
   16.6967  -12.8454  -16.3461 C   0  0  0  0  0  0  0  0  0  0  0  0
   17.2093  -12.8650  -18.7938 C   0  0  2  0  0  0  0  0  0  0  0  0
   17.6789  -13.7768  -19.8541 N   0  0  0  0  0  0  0  0  0  0  0  0
   18.2018  -11.7754  -18.6962 C   0  0  0  0  0  0  0  0  0  0  0  0
   19.4103  -12.0301  -18.9326 O   0  0  0  0  0  0  0  0  0  0  0  0
   18.1894   -8.4824  -20.4821 C   0  0  0  0  0  0  0  0  0  0  0  0
   18.4851   -8.1649  -19.0354 C   0  0  1  0  0  0  0  0  0  0  0  0
   17.2602   -7.7612  -18.4638 O   0  0  0  0  0  0  0  0  0  0  0  0
   18.9745   -9.4200  -18.3052 C   0  0  2  0  0  0  0  0  0  0  0  0
   17.9128  -10.4282  -18.3527 N   0  0  0  0  0  0  0  0  0  0  0  0
   19.2513   -9.0471  -16.8931 C   0  0  0  0  0  0  0  0  0  0  0  0
   18.4097   -9.2679  -15.9673 O   0  0  0  0  0  0  0  0  0  0  0  0
   21.3139   -8.9503  -12.3383 C   0  0  0  0  0  0  0  0  0  0  0  0
   22.0029   -9.7018  -13.4607 C   0  0  2  0  0  0  0  0  0  0  0  0
   23.3176  -10.3148  -13.0556 C   0  0  0  0  0  0  0  0  0  0  0  0
   21.9693   -9.0185  -14.7609 C   0  0  0  0  0  0  0  0  0  0  0  0
   20.8559   -8.1476  -15.1398 C   0  0  2  0  0  0  0  0  0  0  0  0
   20.4583   -8.4359  -16.5359 N   0  0  0  0  0  0  0  0  0  0  0  0
   20.9699   -6.7133  -15.0045 C   0  0  0  0  0  0  0  0  0  0  0  0
   20.7125   -5.9918  -13.8463 O   0  0  0  0  0  0  0  0  0  0  0  0
   21.3265   -5.9956  -15.9814 O   0  0  0  0  0  0  0  0  0  0  0  0
  2  1  1  0
  3  5  1  0
  3  2  1  0
  3  4  1  1
  5  6  1  6
  7  5  1  0
  8  7  2  0
 10  9  1  6
 10 12  1  0
 11 10  1  0
 12 14  1  0
 12 13  1  1
 13  7  1  0
 14 15  2  0
 17 16  1  1
 17 19  1  0
 18 17  1  0
 20 19  1  6
 20 21  1  0
 20 22  1  0
 21 14  1  0
 22 24  2  0
 22 23  1  0
M  END
$$$$
