ITL.pdb
     RDKit          3D

 24 23  0  0  1  0  0  0  0  0999 V2000
   29.9219  -31.5203  -16.8562 C   0  0  0  0  0  0  0  0  0  0  0  0
   29.1298  -32.7399  -17.2248 C   0  0  0  0  0  0  0  0  0  0  0  0
   28.0199  -33.0002  -16.2609 C   0  0  2  0  0  0  0  0  0  0  0  0
   28.6100  -33.1382  -14.8660 C   0  0  0  0  0  0  0  0  0  0  0  0
   27.1722  -34.1884  -16.6221 C   0  0  2  0  0  0  0  0  0  0  0  0
   26.3533  -33.7761  -17.7778 N   0  0  0  0  0  0  0  0  0  0  0  0
   26.2335  -34.5755  -15.5493 C   0  0  0  0  0  0  0  0  0  0  0  0
   25.0916  -34.0498  -15.5208 O   0  0  0  0  0  0  0  0  0  0  0  0
   24.2288  -37.7292  -12.4882 C   0  0  0  0  0  0  0  0  0  0  0  0
   25.1813  -37.3308  -13.5905 C   0  0  1  0  0  0  0  0  0  0  0  0
   24.5056  -37.5824  -14.8031 O   0  0  0  0  0  0  0  0  0  0  0  0
   25.4939  -35.8330  -13.5074 C   0  0  2  0  0  0  0  0  0  0  0  0
   26.5049  -35.5131  -14.5180 N   0  0  0  0  0  0  0  0  0  0  0  0
   26.0332  -35.5544  -12.1505 C   0  0  0  0  0  0  0  0  0  0  0  0
   27.2460  -35.7885  -11.8534 O   0  0  0  0  0  0  0  0  0  0  0  0
   26.7193  -33.1427   -7.4678 C   0  0  0  0  0  0  0  0  0  0  0  0
   25.8669  -32.4568   -8.5175 C   0  0  2  0  0  0  0  0  0  0  0  0
   25.0993  -31.2733   -7.9896 C   0  0  0  0  0  0  0  0  0  0  0  0
   25.1342  -33.3741   -9.4009 C   0  0  0  0  0  0  0  0  0  0  0  0
   25.6924  -34.6688   -9.7930 C   0  0  2  0  0  0  0  0  0  0  0  0
   25.2147  -35.0208  -11.1488 N   0  0  0  0  0  0  0  0  0  0  0  0
   25.5117  -35.8290   -8.9505 C   0  0  0  0  0  0  0  0  0  0  0  0
   26.4458  -36.3213   -8.0486 O   0  0  0  0  0  0  0  0  0  0  0  0
   24.4405  -36.4980   -8.9882 O   0  0  0  0  0  0  0  0  0  0  0  0
  2  1  1  0
  3  5  1  0
  3  2  1  0
  3  4  1  1
  5  6  1  6
  7  5  1  0
  8  7  2  0
 10  9  1  1
 10 12  1  0
 11 10  1  0
 12 14  1  0
 12 13  1  6
 13  7  1  0
 14 15  2  0
 17 16  1  1
 17 19  1  0
 18 17  1  0
 20 19  1  1
 20 21  1  0
 20 22  1  0
 21 14  1  0
 22 24  2  0
 22 23  1  0
M  END
$$$$
