ITL.pdb
     RDKit          3D

 24 23  0  0  1  0  0  0  0  0999 V2000
   15.5056  -16.7250  -15.5832 C   0  0  0  0  0  0  0  0  0  0  0  0
   14.8851  -15.7697  -14.6069 C   0  0  0  0  0  0  0  0  0  0  0  0
   15.6203  -14.4718  -14.5477 C   0  0  2  0  0  0  0  0  0  0  0  0
   17.0770  -14.7534  -14.2130 C   0  0  0  0  0  0  0  0  0  0  0  0
   15.0165  -13.4782  -13.5943 C   0  0  2  0  0  0  0  0  0  0  0  0
   13.6734  -13.1657  -14.1185 N   0  0  0  0  0  0  0  0  0  0  0  0
   15.7615  -12.2040  -13.5399 C   0  0  0  0  0  0  0  0  0  0  0  0
   16.9344  -12.2036  -13.0865 O   0  0  0  0  0  0  0  0  0  0  0  0
   16.7898   -9.9516  -16.3016 C   0  0  0  0  0  0  0  0  0  0  0  0
   16.0936   -9.0764  -15.2864 C   0  0  1  0  0  0  0  0  0  0  0  0
   14.7550   -8.9641  -15.7172 O   0  0  0  0  0  0  0  0  0  0  0  0
   16.1086   -9.7460  -13.9082 C   0  0  2  0  0  0  0  0  0  0  0  0
   15.2659  -10.9429  -13.9647 N   0  0  0  0  0  0  0  0  0  0  0  0
   15.5470   -8.7813  -12.9265 C   0  0  0  0  0  0  0  0  0  0  0  0
   14.4225   -8.9757  -12.3682 O   0  0  0  0  0  0  0  0  0  0  0  0
   15.7997   -5.3095   -8.8419 C   0  0  0  0  0  0  0  0  0  0  0  0
   15.1286   -6.6473   -9.0845 C   0  0  2  0  0  0  0  0  0  0  0  0
   14.9688   -7.4751   -7.8364 C   0  0  0  0  0  0  0  0  0  0  0  0
   15.5947   -7.3530  -10.2858 C   0  0  0  0  0  0  0  0  0  0  0  0
   15.7901   -6.6546  -11.5568 C   0  0  2  0  0  0  0  0  0  0  0  0
   16.2456   -7.6184  -12.5834 N   0  0  0  0  0  0  0  0  0  0  0  0
   16.6517   -5.4968  -11.6307 C   0  0  0  0  0  0  0  0  0  0  0  0
   16.2419   -4.1784  -11.4808 O   0  0  0  0  0  0  0  0  0  0  0  0
   17.8899   -5.6220  -11.8488 O   0  0  0  0  0  0  0  0  0  0  0  0
  2  1  1  0
  3  5  1  0
  3  2  1  0
  3  4  1  1
  5  6  1  6
  7  5  1  0
  8  7  2  0
 10  9  1  6
 10 12  1  0
 11 10  1  0
 12 14  1  0
 12 13  1  6
 13  7  1  0
 14 15  2  0
 17 16  1  1
 17 19  1  0
 18 17  1  0
 20 19  1  1
 20 21  1  0
 20 22  1  0
 21 14  1  0
 22 24  2  0
 22 23  1  0
M  END
$$$$
