ITL.pdb
     RDKit          3D

 24 23  0  0  1  0  0  0  0  0999 V2000
   28.1072  -16.3654  -16.5256 C   0  0  0  0  0  0  0  0  0  0  0  0
   28.3444  -17.8375  -16.6908 C   0  0  0  0  0  0  0  0  0  0  0  0
   27.1234  -18.6402  -16.3851 C   0  0  2  0  0  0  0  0  0  0  0  0
   26.7695  -18.4468  -14.9186 C   0  0  0  0  0  0  0  0  0  0  0  0
   27.2547  -20.0967  -16.7343 C   0  0  2  0  0  0  0  0  0  0  0  0
   27.6107  -20.1484  -18.1650 N   0  0  0  0  0  0  0  0  0  0  0  0
   25.9895  -20.8434  -16.5813 C   0  0  0  0  0  0  0  0  0  0  0  0
   25.0113  -20.5392  -17.3105 O   0  0  0  0  0  0  0  0  0  0  0  0
   24.7580  -24.0054  -17.4170 C   0  0  0  0  0  0  0  0  0  0  0  0
   24.4469  -23.9284  -15.9410 C   0  0  1  0  0  0  0  0  0  0  0  0
   25.5015  -24.5949  -15.2823 O   0  0  0  0  0  0  0  0  0  0  0  0
   24.4273  -22.4680  -15.4775 C   0  0  2  0  0  0  0  0  0  0  0  0
   25.7664  -21.9039  -15.6638 N   0  0  0  0  0  0  0  0  0  0  0  0
   24.0711  -22.4524  -14.0344 C   0  0  0  0  0  0  0  0  0  0  0  0
   24.4719  -23.3577  -13.2383 O   0  0  0  0  0  0  0  0  0  0  0  0
   25.5350  -22.3023  -10.8545 C   0  0  0  0  0  0  0  0  0  0  0  0
   24.9163  -20.9792  -11.2616 C   0  0  2  0  0  0  0  0  0  0  0  0
   25.6647  -19.7800  -10.7416 C   0  0  0  0  0  0  0  0  0  0  0  0
   23.4514  -20.9351  -11.1583 C   0  0  0  0  0  0  0  0  0  0  0  0
   22.5930  -21.5140  -12.1925 C   0  0  2  0  0  0  0  0  0  0  0  0
   23.2761  -21.4309  -13.5027 N   0  0  0  0  0  0  0  0  0  0  0  0
   21.2409  -21.0368  -12.3729 C   0  0  0  0  0  0  0  0  0  0  0  0
   20.7081  -20.5608  -13.5636 O   0  0  0  0  0  0  0  0  0  0  0  0
   20.4238  -21.0223  -11.4092 O   0  0  0  0  0  0  0  0  0  0  0  0
  2  1  1  0
  3  5  1  0
  3  2  1  0
  3  4  1  1
  5  6  1  6
  7  5  1  0
  8  7  2  0
 10  9  1  6
 10 12  1  0
 11 10  1  0
 12 14  1  0
 12 13  1  1
 13  7  1  0
 14 15  2  0
 17 16  1  1
 17 19  1  0
 18 17  1  0
 20 19  1  1
 20 21  1  0
 20 22  1  0
 21 14  1  0
 22 24  2  0
 22 23  1  0
M  END
$$$$
