ITL.pdb
     RDKit          3D

 24 23  0  0  1  0  0  0  0  0999 V2000
   16.4762  -15.9479  -16.8725 C   0  0  0  0  0  0  0  0  0  0  0  0
   16.9310  -17.3746  -16.9642 C   0  0  0  0  0  0  0  0  0  0  0  0
   18.3563  -17.5366  -16.5509 C   0  0  2  0  0  0  0  0  0  0  0  0
   19.2027  -16.5360  -17.3224 C   0  0  0  0  0  0  0  0  0  0  0  0
   18.8759  -18.9386  -16.7100 C   0  0  2  0  0  0  0  0  0  0  0  0
   18.1111  -19.7730  -15.7640 N   0  0  0  0  0  0  0  0  0  0  0  0
   20.3004  -19.0715  -16.3425 C   0  0  0  0  0  0  0  0  0  0  0  0
   20.6222  -19.0259  -15.1278 O   0  0  0  0  0  0  0  0  0  0  0  0
   22.5452  -21.8804  -16.4283 C   0  0  0  0  0  0  0  0  0  0  0  0
   23.2497  -20.7982  -17.2117 C   0  0  1  0  0  0  0  0  0  0  0  0
   22.9001  -21.0011  -18.5633 O   0  0  0  0  0  0  0  0  0  0  0  0
   22.7474  -19.4166  -16.7795 C   0  0  2  0  0  0  0  0  0  0  0  0
   21.3719  -19.2529  -17.2564 N   0  0  0  0  0  0  0  0  0  0  0  0
   23.6235  -18.3949  -17.4106 C   0  0  0  0  0  0  0  0  0  0  0  0
   23.2702  -17.7675  -18.4573 O   0  0  0  0  0  0  0  0  0  0  0  0
   25.2254  -14.1768  -16.9831 C   0  0  0  0  0  0  0  0  0  0  0  0
   25.7374  -15.1328  -15.9234 C   0  0  2  0  0  0  0  0  0  0  0  0
   26.3770  -14.4413  -14.7481 C   0  0  0  0  0  0  0  0  0  0  0  0
   26.4376  -16.3106  -16.4536 C   0  0  0  0  0  0  0  0  0  0  0  0
   25.8403  -17.1548  -17.4890 C   0  0  2  0  0  0  0  0  0  0  0  0
   24.8761  -18.0894  -16.8668 N   0  0  0  0  0  0  0  0  0  0  0  0
   26.6789  -17.9215  -18.3820 C   0  0  0  0  0  0  0  0  0  0  0  0
   26.8747  -19.2949  -18.3204 O   0  0  0  0  0  0  0  0  0  0  0  0
   27.3163  -17.3590  -19.3167 O   0  0  0  0  0  0  0  0  0  0  0  0
  2  1  1  0
  3  5  1  0
  3  2  1  0
  3  4  1  6
  5  6  1  1
  7  5  1  0
  8  7  2  0
 10  9  1  1
 10 12  1  0
 11 10  1  0
 12 14  1  0
 12 13  1  6
 13  7  1  0
 14 15  2  0
 17 16  1  6
 17 19  1  0
 18 17  1  0
 20 19  1  1
 20 21  1  0
 20 22  1  0
 21 14  1  0
 22 24  2  0
 22 23  1  0
M  END
$$$$
