ITL.pdb
     RDKit          3D

 24 23  0  0  1  0  0  0  0  0999 V2000
   16.9054  -17.0336  -15.9971 C   0  0  0  0  0  0  0  0  0  0  0  0
   16.5180  -16.2939  -17.2435 C   0  0  0  0  0  0  0  0  0  0  0  0
   17.0980  -14.9189  -17.2827 C   0  0  2  0  0  0  0  0  0  0  0  0
   18.6072  -15.0234  -17.1262 C   0  0  0  0  0  0  0  0  0  0  0  0
   16.5010  -13.9822  -16.2693 C   0  0  2  0  0  0  0  0  0  0  0  0
   15.0688  -13.8688  -16.6042 N   0  0  0  0  0  0  0  0  0  0  0  0
   17.0659  -12.6191  -16.3398 C   0  0  0  0  0  0  0  0  0  0  0  0
   18.2807  -12.4488  -16.0634 O   0  0  0  0  0  0  0  0  0  0  0  0
   16.9730  -10.1189  -19.2381 C   0  0  0  0  0  0  0  0  0  0  0  0
   16.5300   -9.3936  -17.9896 C   0  0  1  0  0  0  0  0  0  0  0  0
   15.1194   -9.4063  -18.0079 O   0  0  0  0  0  0  0  0  0  0  0  0
   17.0089  -10.1426  -16.7415 C   0  0  2  0  0  0  0  0  0  0  0  0
   16.3475  -11.4491  -16.7021 N   0  0  0  0  0  0  0  0  0  0  0  0
   16.6158   -9.3436  -15.5513 C   0  0  0  0  0  0  0  0  0  0  0  0
   15.5378   -9.5736  -14.9196 O   0  0  0  0  0  0  0  0  0  0  0  0
   15.3480   -8.4147  -11.6079 C   0  0  0  0  0  0  0  0  0  0  0  0
   16.6726   -9.1014  -11.8777 C   0  0  2  0  0  0  0  0  0  0  0  0
   17.2452   -9.7988  -10.6718 C   0  0  0  0  0  0  0  0  0  0  0  0
   17.6115   -8.3151  -12.6895 C   0  0  0  0  0  0  0  0  0  0  0  0
   17.1607   -7.5400  -13.8460 C   0  0  2  0  0  0  0  0  0  0  0  0
   17.4279   -8.3038  -15.0851 N   0  0  0  0  0  0  0  0  0  0  0  0
   17.6353   -6.1908  -14.0527 C   0  0  0  0  0  0  0  0  0  0  0  0
   17.1809   -5.0660  -13.3768 O   0  0  0  0  0  0  0  0  0  0  0  0
   18.5352   -5.9425  -14.9042 O   0  0  0  0  0  0  0  0  0  0  0  0
  2  1  1  0
  3  5  1  0
  3  2  1  0
  3  4  1  1
  5  6  1  6
  7  5  1  0
  8  7  2  0
 10  9  1  6
 10 12  1  0
 11 10  1  0
 12 14  1  0
 12 13  1  1
 13  7  1  0
 14 15  2  0
 17 16  1  1
 17 19  1  0
 18 17  1  0
 20 19  1  1
 20 21  1  0
 20 22  1  0
 21 14  1  0
 22 24  2  0
 22 23  1  0
M  END
$$$$
