ITL.pdb
     RDKit          3D

 24 23  0  0  1  0  0  0  0  0999 V2000
   20.3801  -12.1738  -17.9294 C   0  0  0  0  0  0  0  0  0  0  0  0
   19.9062  -11.8935  -16.5338 C   0  0  0  0  0  0  0  0  0  0  0  0
   18.4178  -11.9393  -16.4272 C   0  0  2  0  0  0  0  0  0  0  0  0
   17.8283  -10.9637  -17.4340 C   0  0  0  0  0  0  0  0  0  0  0  0
   17.9032  -11.6786  -15.0386 C   0  0  2  0  0  0  0  0  0  0  0  0
   16.4594  -11.9799  -15.0694 N   0  0  0  0  0  0  0  0  0  0  0  0
   18.0366  -10.2656  -14.6294 C   0  0  0  0  0  0  0  0  0  0  0  0
   19.1861   -9.7936  -14.4372 O   0  0  0  0  0  0  0  0  0  0  0  0
   17.9539   -7.1950  -16.2459 C   0  0  0  0  0  0  0  0  0  0  0  0
   16.9005   -7.0482  -15.1735 C   0  0  1  0  0  0  0  0  0  0  0  0
   15.6823   -7.4473  -15.7626 O   0  0  0  0  0  0  0  0  0  0  0  0
   17.2042   -7.9837  -13.9985 C   0  0  2  0  0  0  0  0  0  0  0  0
   16.9593   -9.3627  -14.4280 N   0  0  0  0  0  0  0  0  0  0  0  0
   16.2832   -7.6322  -12.8859 C   0  0  0  0  0  0  0  0  0  0  0  0
   15.5482   -8.5049  -12.3271 O   0  0  0  0  0  0  0  0  0  0  0  0
   15.5866   -7.1519   -7.6632 C   0  0  0  0  0  0  0  0  0  0  0  0
   14.9394   -6.4427   -8.8366 C   0  0  2  0  0  0  0  0  0  0  0  0
   13.4342   -6.4426   -8.7834 C   0  0  0  0  0  0  0  0  0  0  0  0
   15.5508   -6.7391  -10.1393 C   0  0  0  0  0  0  0  0  0  0  0  0
   15.3083   -5.8940  -11.3092 C   0  0  2  0  0  0  0  0  0  0  0  0
   16.1960   -6.3174  -12.4151 N   0  0  0  0  0  0  0  0  0  0  0  0
   15.3962   -4.4555  -11.2037 C   0  0  0  0  0  0  0  0  0  0  0  0
   16.5569   -3.7076  -11.3512 O   0  0  0  0  0  0  0  0  0  0  0  0
   14.3713   -3.7589  -10.9569 O   0  0  0  0  0  0  0  0  0  0  0  0
  2  1  1  0
  3  5  1  0
  3  2  1  0
  3  4  1  6
  5  6  1  6
  7  5  1  0
  8  7  2  0
 10  9  1  6
 10 12  1  0
 11 10  1  0
 12 14  1  0
 12 13  1  6
 13  7  1  0
 14 15  2  0
 17 16  1  1
 17 19  1  0
 18 17  1  0
 20 19  1  1
 20 21  1  0
 20 22  1  0
 21 14  1  0
 22 24  2  0
 22 23  1  0
M  END
$$$$
