ITL.pdb
     RDKit          3D

 24 23  0  0  1  0  0  0  0  0999 V2000
   29.1797  -22.0297  -10.1916 C   0  0  0  0  0  0  0  0  0  0  0  0
   27.7718  -21.7184  -10.6059 C   0  0  0  0  0  0  0  0  0  0  0  0
   27.2511  -20.4868   -9.9421 C   0  0  2  0  0  0  0  0  0  0  0  0
   27.2026  -20.7273   -8.4411 C   0  0  0  0  0  0  0  0  0  0  0  0
   25.9196  -20.0317  -10.4720 C   0  0  2  0  0  0  0  0  0  0  0  0
   24.9567  -21.0998  -10.1432 N   0  0  0  0  0  0  0  0  0  0  0  0
   25.9043  -19.8796  -11.9412 C   0  0  0  0  0  0  0  0  0  0  0  0
   26.8108  -19.2046  -12.4926 O   0  0  0  0  0  0  0  0  0  0  0  0
   25.3819  -22.5558  -14.7465 C   0  0  0  0  0  0  0  0  0  0  0  0
   24.4669  -21.3830  -15.0086 C   0  0  1  0  0  0  0  0  0  0  0  0
   23.2035  -21.7493  -14.4990 O   0  0  0  0  0  0  0  0  0  0  0  0
   24.9589  -20.1454  -14.2506 C   0  0  2  0  0  0  0  0  0  0  0  0
   24.9366  -20.4406  -12.8159 N   0  0  0  0  0  0  0  0  0  0  0  0
   24.0257  -19.0273  -14.5487 C   0  0  0  0  0  0  0  0  0  0  0  0
   23.0849  -18.7136  -13.7546 O   0  0  0  0  0  0  0  0  0  0  0  0
   24.7700  -13.8344  -17.6681 C   0  0  0  0  0  0  0  0  0  0  0  0
   23.8054  -14.6663  -16.8456 C   0  0  2  0  0  0  0  0  0  0  0  0
   23.1596  -13.9013  -15.7204 C   0  0  0  0  0  0  0  0  0  0  0  0
   24.2844  -16.0191  -16.5304 C   0  0  0  0  0  0  0  0  0  0  0  0
   23.3844  -17.0476  -16.0072 C   0  0  2  0  0  0  0  0  0  0  0  0
   24.1553  -18.2787  -15.7237 N   0  0  0  0  0  0  0  0  0  0  0  0
   22.2033  -17.4313  -16.7462 C   0  0  0  0  0  0  0  0  0  0  0  0
   20.9752  -16.7853  -16.6916 O   0  0  0  0  0  0  0  0  0  0  0  0
   22.2188  -18.4278  -17.5228 O   0  0  0  0  0  0  0  0  0  0  0  0
  2  1  1  0
  3  5  1  0
  3  2  1  0
  3  4  1  1
  5  6  1  6
  7  5  1  0
  8  7  2  0
 10  9  1  1
 10 12  1  0
 11 10  1  0
 12 14  1  0
 12 13  1  1
 13  7  1  0
 14 15  2  0
 17 16  1  1
 17 19  1  0
 18 17  1  0
 20 19  1  6
 20 21  1  0
 20 22  1  0
 21 14  1  0
 22 24  2  0
 22 23  1  0
M  END
$$$$
