ITL.pdb
     RDKit          3D

 24 23  0  0  1  0  0  0  0  0999 V2000
   37.2411  -25.4994  -18.7010 C   0  0  0  0  0  0  0  0  0  0  0  0
   36.4349  -26.7516  -18.8819 C   0  0  0  0  0  0  0  0  0  0  0  0
   35.0009  -26.4579  -19.1752 C   0  0  2  0  0  0  0  0  0  0  0  0
   34.4330  -25.6238  -18.0373 C   0  0  0  0  0  0  0  0  0  0  0  0
   34.1716  -27.6867  -19.4267 C   0  0  2  0  0  0  0  0  0  0  0  0
   34.7282  -28.3206  -20.6369 N   0  0  0  0  0  0  0  0  0  0  0  0
   32.7566  -27.3786  -19.7176 C   0  0  0  0  0  0  0  0  0  0  0  0
   32.4757  -26.7365  -20.7616 O   0  0  0  0  0  0  0  0  0  0  0  0
   29.8911  -29.5460  -20.3914 C   0  0  0  0  0  0  0  0  0  0  0  0
   29.4101  -28.6072  -19.3104 C   0  0  1  0  0  0  0  0  0  0  0  0
   29.5598  -29.3022  -18.0918 O   0  0  0  0  0  0  0  0  0  0  0  0
   30.2879  -27.3519  -19.2674 C   0  0  2  0  0  0  0  0  0  0  0  0
   31.6509  -27.7507  -18.9081 N   0  0  0  0  0  0  0  0  0  0  0  0
   29.7374  -26.4461  -18.2252 C   0  0  0  0  0  0  0  0  0  0  0  0
   30.4017  -26.1439  -17.1852 O   0  0  0  0  0  0  0  0  0  0  0  0
   28.5209  -22.7801  -15.1456 C   0  0  0  0  0  0  0  0  0  0  0  0
   28.6443  -22.5131  -16.6331 C   0  0  2  0  0  0  0  0  0  0  0  0
   27.6213  -21.5393  -17.1562 C   0  0  0  0  0  0  0  0  0  0  0  0
   28.8883  -23.7110  -17.4481 C   0  0  0  0  0  0  0  0  0  0  0  0
   27.9310  -24.8171  -17.4896 C   0  0  2  0  0  0  0  0  0  0  0  0
   28.4590  -25.8930  -18.3579 N   0  0  0  0  0  0  0  0  0  0  0  0
   26.5570  -24.5819  -17.8705 C   0  0  0  0  0  0  0  0  0  0  0  0
   25.5211  -24.2777  -16.9972 O   0  0  0  0  0  0  0  0  0  0  0  0
   26.1992  -24.6442  -19.0807 O   0  0  0  0  0  0  0  0  0  0  0  0
  2  1  1  0
  3  5  1  0
  3  2  1  0
  3  4  1  1
  5  6  1  6
  7  5  1  0
  8  7  2  0
 10  9  1  6
 10 12  1  0
 11 10  1  0
 12 14  1  0
 12 13  1  1
 13  7  1  0
 14 15  2  0
 17 16  1  1
 17 19  1  0
 18 17  1  0
 20 19  1  6
 20 21  1  0
 20 22  1  0
 21 14  1  0
 22 24  2  0
 22 23  1  0
M  END
$$$$
