ITL.pdb
     RDKit          3D

 24 23  0  0  1  0  0  0  0  0999 V2000
   23.5137  -28.2103  -16.8923 C   0  0  0  0  0  0  0  0  0  0  0  0
   24.5312  -27.2667  -17.4624 C   0  0  0  0  0  0  0  0  0  0  0  0
   24.9960  -26.2677  -16.4551 C   0  0  2  0  0  0  0  0  0  0  0  0
   23.7817  -25.5502  -15.8862 C   0  0  0  0  0  0  0  0  0  0  0  0
   26.0107  -25.2963  -16.9912 C   0  0  2  0  0  0  0  0  0  0  0  0
   27.2521  -26.0663  -17.1967 N   0  0  0  0  0  0  0  0  0  0  0  0
   26.3320  -24.2131  -16.0398 C   0  0  0  0  0  0  0  0  0  0  0  0
   27.0894  -24.4620  -15.0673 O   0  0  0  0  0  0  0  0  0  0  0  0
   27.7358  -20.6267  -16.6211 C   0  0  0  0  0  0  0  0  0  0  0  0
   26.4735  -20.5487  -15.7953 C   0  0  1  0  0  0  0  0  0  0  0  0
   25.4244  -20.2987  -16.7047 O   0  0  0  0  0  0  0  0  0  0  0  0
   26.2090  -21.8889  -15.1011 C   0  0  2  0  0  0  0  0  0  0  0  0
   25.8547  -22.8783  -16.1217 N   0  0  0  0  0  0  0  0  0  0  0  0
   25.0691  -21.7008  -14.1657 C   0  0  0  0  0  0  0  0  0  0  0  0
   23.9169  -22.1751  -14.4139 O   0  0  0  0  0  0  0  0  0  0  0  0
   24.7845  -22.1278   -9.3090 C   0  0  0  0  0  0  0  0  0  0  0  0
   25.4840  -20.9008   -9.8605 C   0  0  2  0  0  0  0  0  0  0  0  0
   26.2507  -20.1271   -8.8202 C   0  0  0  0  0  0  0  0  0  0  0  0
   24.6784  -20.1134  -10.8037 C   0  0  0  0  0  0  0  0  0  0  0  0
   24.1299  -20.7070  -12.0237 C   0  0  2  0  0  0  0  0  0  0  0  0
   25.2307  -20.9889  -12.9719 N   0  0  0  0  0  0  0  0  0  0  0  0
   23.0817  -20.0351  -12.7572 C   0  0  0  0  0  0  0  0  0  0  0  0
   23.2708  -19.2211  -13.8663 O   0  0  0  0  0  0  0  0  0  0  0  0
   21.8713  -20.1532  -12.4144 O   0  0  0  0  0  0  0  0  0  0  0  0
  2  1  1  0
  3  5  1  0
  3  2  1  0
  3  4  1  6
  5  6  1  1
  7  5  1  0
  8  7  2  0
 10  9  1  6
 10 12  1  0
 11 10  1  0
 12 14  1  0
 12 13  1  6
 13  7  1  0
 14 15  2  0
 17 16  1  1
 17 19  1  0
 18 17  1  0
 20 19  1  1
 20 21  1  0
 20 22  1  0
 21 14  1  0
 22 24  2  0
 22 23  1  0
M  END
$$$$
