SAS.pdb
     RDKit          3D

 18 17  0  0  1  0  0  0  0  0999 V2000
   16.6496  -11.0145  -18.2094 O   0  0  0  0  0  0  0  0  0  0  0  0
   17.4340  -10.3187  -17.3204 C   0  0  0  0  0  0  0  0  0  0  0  0
   18.3178  -11.2009  -16.4744 C   0  0  2  0  0  0  0  0  0  0  0  0
   17.5565  -12.1598  -15.7335 N   0  0  0  0  0  0  0  0  0  0  0  0
   19.2705  -10.4387  -15.6430 C   0  0  0  0  0  0  0  0  0  0  0  0
   18.8033   -9.7548  -14.6963 O   0  0  0  0  0  0  0  0  0  0  0  0
   23.0270   -9.9766  -15.2545 C   0  0  0  0  0  0  0  0  0  0  0  0
   21.5890   -9.6114  -15.0828 C   0  0  2  0  0  0  0  0  0  0  0  0
   20.6753  -10.4193  -15.8313 N   0  0  0  0  0  0  0  0  0  0  0  0
   21.4349   -8.1629  -15.3211 C   0  0  0  0  0  0  0  0  0  0  0  0
   21.0689   -7.8224  -16.4766 O   0  0  0  0  0  0  0  0  0  0  0  0
   20.0659   -3.9452  -14.9002 O   0  0  0  0  0  0  0  0  0  0  0  0
   20.0601   -5.3284  -14.6347 C   0  0  0  0  0  0  0  0  0  0  0  0
   21.4955   -5.7617  -14.5652 C   0  0  2  0  0  0  0  0  0  0  0  0
   21.6729   -7.1637  -14.3387 N   0  0  0  0  0  0  0  0  0  0  0  0
   22.1709   -4.9330  -13.5202 C   0  0  0  0  0  0  0  0  0  0  0  0
   22.6118   -5.4138  -12.4476 O   0  0  0  0  0  0  0  0  0  0  0  0
   22.3042   -3.5764  -13.7700 O   0  0  0  0  0  0  0  0  0  0  0  0
  2  1  1  0
  3  2  1  0
  3  4  1  1
  5  6  2  0
  5  3  1  0
  8  7  1  6
  8  9  1  0
  9  5  1  0
 10  8  1  0
 10 15  1  0
 11 10  2  0
 12 13  1  0
 14 13  1  1
 14 15  1  0
 14 16  1  0
 16 17  2  0
 16 18  1  0
M  END
$$$$
