SAS.pdb
     RDKit          3D

 18 17  0  0  1  0  0  0  0  0999 V2000
   12.5604   -8.1328   -8.4493 O   0  0  0  0  0  0  0  0  0  0  0  0
   13.5749   -7.6240   -9.2250 C   0  0  0  0  0  0  0  0  0  0  0  0
   14.9526   -7.9023   -8.6777 C   0  0  2  0  0  0  0  0  0  0  0  0
   15.1753   -7.2289   -7.4347 N   0  0  0  0  0  0  0  0  0  0  0  0
   16.0248   -7.6776   -9.6674 C   0  0  0  0  0  0  0  0  0  0  0  0
   16.4394   -6.5003   -9.8232 O   0  0  0  0  0  0  0  0  0  0  0  0
   18.0486   -9.6915  -12.1973 C   0  0  0  0  0  0  0  0  0  0  0  0
   17.5555   -8.4563  -11.5179 C   0  0  2  0  0  0  0  0  0  0  0  0
   16.6239   -8.6908  -10.4573 N   0  0  0  0  0  0  0  0  0  0  0  0
   17.0651   -7.5140  -12.5427 C   0  0  0  0  0  0  0  0  0  0  0  0
   15.8584   -7.6345  -12.8812 O   0  0  0  0  0  0  0  0  0  0  0  0
   16.0695   -4.1748  -12.9940 O   0  0  0  0  0  0  0  0  0  0  0  0
   17.2257   -4.2211  -13.7971 C   0  0  0  0  0  0  0  0  0  0  0  0
   17.4127   -5.6537  -14.2040 C   0  0  2  0  0  0  0  0  0  0  0  0
   17.8653   -6.5072  -13.1480 N   0  0  0  0  0  0  0  0  0  0  0  0
   18.3352   -5.6761  -15.3801 C   0  0  0  0  0  0  0  0  0  0  0  0
   19.4144   -6.3175  -15.3889 O   0  0  0  0  0  0  0  0  0  0  0  0
   17.9602   -4.9487  -16.4985 O   0  0  0  0  0  0  0  0  0  0  0  0
  2  1  1  0
  3  2  1  0
  3  4  1  1
  5  6  2  0
  5  3  1  0
  8  7  1  6
  8  9  1  0
  9  5  1  0
 10  8  1  0
 10 15  1  0
 11 10  2  0
 12 13  1  0
 14 13  1  1
 14 15  1  0
 14 16  1  0
 16 17  2  0
 16 18  1  0
M  END
$$$$
