SAS.pdb
     RDKit          3D

 18 17  0  0  1  0  0  0  0  0999 V2000
   14.9102  -11.3564  -14.4230 O   0  0  0  0  0  0  0  0  0  0  0  0
   16.0316  -10.5614  -14.4068 C   0  0  0  0  0  0  0  0  0  0  0  0
   17.1020  -11.0056  -15.3722 C   0  0  2  0  0  0  0  0  0  0  0  0
   17.6118  -12.3008  -15.0394 N   0  0  0  0  0  0  0  0  0  0  0  0
   18.1574   -9.9929  -15.5723 C   0  0  0  0  0  0  0  0  0  0  0  0
   19.1947  -10.0820  -14.8663 O   0  0  0  0  0  0  0  0  0  0  0  0
   19.0256   -7.2404  -18.0338 C   0  0  0  0  0  0  0  0  0  0  0  0
   19.1415   -7.9850  -16.7443 C   0  0  2  0  0  0  0  0  0  0  0  0
   18.0901   -8.9250  -16.5021 N   0  0  0  0  0  0  0  0  0  0  0  0
   19.3341   -7.0131  -15.6502 C   0  0  0  0  0  0  0  0  0  0  0  0
   18.2942   -6.6331  -15.0507 O   0  0  0  0  0  0  0  0  0  0  0  0
   22.2510   -7.0571  -13.0854 O   0  0  0  0  0  0  0  0  0  0  0  0
   22.1201   -5.7130  -13.4856 C   0  0  0  0  0  0  0  0  0  0  0  0
   20.7864   -5.5913  -14.1634 C   0  0  2  0  0  0  0  0  0  0  0  0
   20.5988   -6.5007  -15.2526 N   0  0  0  0  0  0  0  0  0  0  0  0
   20.6180   -4.1668  -14.5843 C   0  0  0  0  0  0  0  0  0  0  0  0
   20.5078   -3.8186  -15.7855 O   0  0  0  0  0  0  0  0  0  0  0  0
   20.5852   -3.2065  -13.5857 O   0  0  0  0  0  0  0  0  0  0  0  0
  2  1  1  0
  3  2  1  0
  3  4  1  1
  5  6  2  0
  5  3  1  0
  8  7  1  6
  8  9  1  0
  9  5  1  0
 10  8  1  0
 10 15  1  0
 11 10  2  0
 12 13  1  0
 14 13  1  6
 14 15  1  0
 14 16  1  0
 16 17  2  0
 16 18  1  0
M  END
$$$$
