SAS.pdb
     RDKit          3D

 18 17  0  0  1  0  0  0  0  0999 V2000
   17.8455   -7.2550  -15.3050 O   0  0  0  0  0  0  0  0  0  0  0  0
   18.6195   -8.3150  -14.8964 C   0  0  0  0  0  0  0  0  0  0  0  0
   19.0698   -8.2168  -13.4602 C   0  0  2  0  0  0  0  0  0  0  0  0
   17.9741   -8.3557  -12.5501 N   0  0  0  0  0  0  0  0  0  0  0  0
   19.9057   -7.0290  -13.1956 C   0  0  0  0  0  0  0  0  0  0  0  0
   19.4125   -6.1126  -12.4890 O   0  0  0  0  0  0  0  0  0  0  0  0
   23.4133   -5.7517  -13.9639 C   0  0  0  0  0  0  0  0  0  0  0  0
   21.9898   -5.6428  -13.5251 C   0  0  2  0  0  0  0  0  0  0  0  0
   21.2252   -6.8426  -13.6789 N   0  0  0  0  0  0  0  0  0  0  0  0
   21.3822   -4.4634  -14.1720 C   0  0  0  0  0  0  0  0  0  0  0  0
   20.7130   -4.6811  -15.2160 O   0  0  0  0  0  0  0  0  0  0  0  0
   19.3667   -1.6232  -12.6499 O   0  0  0  0  0  0  0  0  0  0  0  0
   19.4860   -1.7825  -14.0443 C   0  0  0  0  0  0  0  0  0  0  0  0
   20.9445   -1.9887  -14.3329 C   0  0  2  0  0  0  0  0  0  0  0  0
   21.5122   -3.1333  -13.6878 N   0  0  0  0  0  0  0  0  0  0  0  0
   21.6622   -0.7273  -13.9747 C   0  0  0  0  0  0  0  0  0  0  0  0
   22.5606   -0.6783  -13.0992 O   0  0  0  0  0  0  0  0  0  0  0  0
   21.3018    0.4261  -14.6532 O   0  0  0  0  0  0  0  0  0  0  0  0
  2  1  1  0
  3  2  1  0
  3  4  1  1
  5  6  2  0
  5  3  1  0
  8  7  1  6
  8  9  1  0
  9  5  1  0
 10  8  1  0
 10 15  1  0
 11 10  2  0
 12 13  1  0
 14 13  1  1
 14 15  1  0
 14 16  1  0
 16 17  2  0
 16 18  1  0
M  END
$$$$
