SAS.pdb
     RDKit          3D

 18 17  0  0  1  0  0  0  0  0999 V2000
   16.0336  -11.4958  -16.1245 O   0  0  0  0  0  0  0  0  0  0  0  0
   17.0418  -10.5886  -15.9002 C   0  0  0  0  0  0  0  0  0  0  0  0
   18.3800  -11.0253  -16.4422 C   0  0  2  0  0  0  0  0  0  0  0  0
   18.7900  -12.2818  -15.8934 N   0  0  0  0  0  0  0  0  0  0  0  0
   19.4143   -9.9764  -16.3442 C   0  0  0  0  0  0  0  0  0  0  0  0
   19.9744   -9.8097  -15.2303 O   0  0  0  0  0  0  0  0  0  0  0  0
   21.2965   -7.6016  -18.6478 C   0  0  0  0  0  0  0  0  0  0  0  0
   20.8675   -8.1637  -17.3324 C   0  0  2  0  0  0  0  0  0  0  0  0
   19.8250   -9.1407  -17.4131 N   0  0  0  0  0  0  0  0  0  0  0  0
   20.5668   -7.0477  -16.4142 C   0  0  0  0  0  0  0  0  0  0  0  0
   19.4079   -6.5610  -16.4867 O   0  0  0  0  0  0  0  0  0  0  0  0
   22.3870   -6.3935  -12.8388 O   0  0  0  0  0  0  0  0  0  0  0  0
   21.1493   -5.7981  -13.1504 C   0  0  0  0  0  0  0  0  0  0  0  0
   21.2043   -5.4198  -14.6019 C   0  0  2  0  0  0  0  0  0  0  0  0
   21.4946   -6.5119  -15.4802 N   0  0  0  0  0  0  0  0  0  0  0  0
   22.1905   -4.3055  -14.7447 C   0  0  0  0  0  0  0  0  0  0  0  0
   23.2081   -4.3842  -15.4757 O   0  0  0  0  0  0  0  0  0  0  0  0
   21.9487   -3.1442  -14.0281 O   0  0  0  0  0  0  0  0  0  0  0  0
  2  1  1  0
  3  2  1  0
  3  4  1  1
  5  6  2  0
  5  3  1  0
  8  7  1  6
  8  9  1  0
  9  5  1  0
 10  8  1  0
 10 15  1  0
 11 10  2  0
 12 13  1  0
 14 13  1  1
 14 15  1  0
 14 16  1  0
 16 17  2  0
 16 18  1  0
M  END
$$$$
