SAS.pdb
     RDKit          3D

 18 17  0  0  1  0  0  0  0  0999 V2000
   17.3609  -10.1474  -17.9907 O   0  0  0  0  0  0  0  0  0  0  0  0
   17.2892   -9.6988  -16.6932 C   0  0  0  0  0  0  0  0  0  0  0  0
   18.2114  -10.4289  -15.7489 C   0  0  2  0  0  0  0  0  0  0  0  0
   17.8028  -11.7864  -15.5525 N   0  0  0  0  0  0  0  0  0  0  0  0
   18.4454   -9.6980  -14.4878 C   0  0  0  0  0  0  0  0  0  0  0  0
   17.6677   -9.9273  -13.5261 O   0  0  0  0  0  0  0  0  0  0  0  0
   21.0330   -7.3596  -12.9709 C   0  0  0  0  0  0  0  0  0  0  0  0
   19.7114   -8.0503  -13.0538 C   0  0  2  0  0  0  0  0  0  0  0  0
   19.4828   -8.7549  -14.2782 N   0  0  0  0  0  0  0  0  0  0  0  0
   18.6482   -7.0836  -12.7165 C   0  0  0  0  0  0  0  0  0  0  0  0
   18.0797   -6.5168  -13.6865 O   0  0  0  0  0  0  0  0  0  0  0  0
   17.9571   -5.9534   -8.8394 O   0  0  0  0  0  0  0  0  0  0  0  0
   16.8021   -5.8258   -9.6353 C   0  0  0  0  0  0  0  0  0  0  0  0
   17.2632   -5.7838  -11.0632 C   0  0  2  0  0  0  0  0  0  0  0  0
   18.2470   -6.7708  -11.3893 N   0  0  0  0  0  0  0  0  0  0  0  0
   17.7428   -4.3964  -11.3459 C   0  0  0  0  0  0  0  0  0  0  0  0
   18.9109   -4.1431  -11.7297 O   0  0  0  0  0  0  0  0  0  0  0  0
   16.8389   -3.3609  -11.1691 O   0  0  0  0  0  0  0  0  0  0  0  0
  2  1  1  0
  3  2  1  0
  3  4  1  1
  5  6  2  0
  5  3  1  0
  8  7  1  6
  8  9  1  0
  9  5  1  0
 10  8  1  0
 10 15  1  0
 11 10  2  0
 12 13  1  0
 14 13  1  1
 14 15  1  0
 14 16  1  0
 16 17  2  0
 16 18  1  0
M  END
$$$$
