SAS.pdb
     RDKit          3D

 18 17  0  0  1  0  0  0  0  0999 V2000
   13.9285   -7.6269  -10.8258 O   0  0  0  0  0  0  0  0  0  0  0  0
   15.1884   -7.1546  -11.1072 C   0  0  0  0  0  0  0  0  0  0  0  0
   16.2800   -7.8387  -10.3226 C   0  0  2  0  0  0  0  0  0  0  0  0
   16.1689   -7.5767   -8.9201 N   0  0  0  0  0  0  0  0  0  0  0  0
   17.6296   -7.5809  -10.8628 C   0  0  0  0  0  0  0  0  0  0  0  0
   18.1717   -6.4811  -10.5817 O   0  0  0  0  0  0  0  0  0  0  0  0
   20.2110   -9.3174  -13.0701 C   0  0  0  0  0  0  0  0  0  0  0  0
   19.6268   -8.1918  -12.2812 C   0  0  2  0  0  0  0  0  0  0  0  0
   18.3625   -8.4811  -11.6763 N   0  0  0  0  0  0  0  0  0  0  0  0
   19.6208   -6.9770  -13.1195 C   0  0  0  0  0  0  0  0  0  0  0  0
   18.5171   -6.6591  -13.6353 O   0  0  0  0  0  0  0  0  0  0  0  0
   19.9135   -2.7078  -14.0894 O   0  0  0  0  0  0  0  0  0  0  0  0
   19.8726   -3.8803  -13.3101 C   0  0  0  0  0  0  0  0  0  0  0  0
   20.7238   -4.8971  -14.0133 C   0  0  2  0  0  0  0  0  0  0  0  0
   20.7666   -6.1726  -13.3654 N   0  0  0  0  0  0  0  0  0  0  0  0
   22.0868   -4.3081  -14.1868 C   0  0  0  0  0  0  0  0  0  0  0  0
   23.0587   -4.6084  -13.4511 O   0  0  0  0  0  0  0  0  0  0  0  0
   22.2597   -3.3923  -15.2124 O   0  0  0  0  0  0  0  0  0  0  0  0
  2  1  1  0
  3  2  1  0
  3  4  1  1
  5  6  2  0
  5  3  1  0
  8  7  1  6
  8  9  1  0
  9  5  1  0
 10  8  1  0
 10 15  1  0
 11 10  2  0
 12 13  1  0
 14 13  1  1
 14 15  1  0
 14 16  1  0
 16 17  2  0
 16 18  1  0
M  END
$$$$
