SAS.pdb
     RDKit          3D

 18 17  0  0  1  0  0  0  0  0999 V2000
   16.1767  -12.0492  -15.6064 O   0  0  0  0  0  0  0  0  0  0  0  0
   17.1950  -11.1257  -15.6070 C   0  0  0  0  0  0  0  0  0  0  0  0
   18.4100  -11.5657  -16.3850 C   0  0  2  0  0  0  0  0  0  0  0  0
   18.8732  -12.8522  -15.9623 N   0  0  0  0  0  0  0  0  0  0  0  0
   19.4737  -10.5427  -16.4244 C   0  0  0  0  0  0  0  0  0  0  0  0
   20.2361  -10.4531  -15.4279 O   0  0  0  0  0  0  0  0  0  0  0  0
   20.9577   -8.0265  -18.8596 C   0  0  0  0  0  0  0  0  0  0  0  0
   20.6922   -8.6189  -17.5146 C   0  0  2  0  0  0  0  0  0  0  0  0
   19.7015   -9.6515  -17.5030 N   0  0  0  0  0  0  0  0  0  0  0  0
   20.4239   -7.5265  -16.5588 C   0  0  0  0  0  0  0  0  0  0  0  0
   19.2414   -7.0958  -16.5198 O   0  0  0  0  0  0  0  0  0  0  0  0
   22.2774   -6.9414  -13.0586 O   0  0  0  0  0  0  0  0  0  0  0  0
   21.0690   -6.2845  -13.3619 C   0  0  0  0  0  0  0  0  0  0  0  0
   21.1499   -5.8736  -14.8033 C   0  0  2  0  0  0  0  0  0  0  0  0
   21.4064   -6.9543  -15.7060 N   0  0  0  0  0  0  0  0  0  0  0  0
   22.1780   -4.7938  -14.9117 C   0  0  0  0  0  0  0  0  0  0  0  0
   23.1862   -4.8835  -15.6544 O   0  0  0  0  0  0  0  0  0  0  0  0
   21.9874   -3.6529  -14.1485 O   0  0  0  0  0  0  0  0  0  0  0  0
  2  1  1  0
  3  2  1  0
  3  4  1  1
  5  6  2  0
  5  3  1  0
  8  7  1  6
  8  9  1  0
  9  5  1  0
 10  8  1  0
 10 15  1  0
 11 10  2  0
 12 13  1  0
 14 13  1  1
 14 15  1  0
 14 16  1  0
 16 17  2  0
 16 18  1  0
M  END
$$$$
