SAS.pdb
     RDKit          3D

 18 17  0  0  1  0  0  0  0  0999 V2000
   20.3013  -10.3861  -18.9380 O   0  0  0  0  0  0  0  0  0  0  0  0
   19.2154  -11.0773  -18.4555 C   0  0  0  0  0  0  0  0  0  0  0  0
   19.4435  -11.6895  -17.0959 C   0  0  2  0  0  0  0  0  0  0  0  0
   18.3132  -12.4524  -16.6615 N   0  0  0  0  0  0  0  0  0  0  0  0
   19.9134  -10.7133  -16.0931 C   0  0  0  0  0  0  0  0  0  0  0  0
   19.0499   -9.9945  -15.5273 O   0  0  0  0  0  0  0  0  0  0  0  0
   23.0807   -9.8678  -14.1888 C   0  0  0  0  0  0  0  0  0  0  0  0
   21.7204   -9.5862  -14.7372 C   0  0  2  0  0  0  0  0  0  0  0  0
   21.2674  -10.5241  -15.7185 N   0  0  0  0  0  0  0  0  0  0  0  0
   21.6719   -8.1820  -15.1897 C   0  0  0  0  0  0  0  0  0  0  0  0
   22.0112   -7.9672  -16.3830 O   0  0  0  0  0  0  0  0  0  0  0  0
   19.0784   -5.7705  -15.5575 O   0  0  0  0  0  0  0  0  0  0  0  0
   19.9468   -5.0490  -14.7155 C   0  0  0  0  0  0  0  0  0  0  0  0
   21.2844   -5.7260  -14.7912 C   0  0  2  0  0  0  0  0  0  0  0  0
   21.2726   -7.0932  -14.3680 N   0  0  0  0  0  0  0  0  0  0  0  0
   22.2561   -4.9029  -14.0083 C   0  0  0  0  0  0  0  0  0  0  0  0
   22.8391   -5.3287  -12.9812 O   0  0  0  0  0  0  0  0  0  0  0  0
   22.5077   -3.6158  -14.4562 O   0  0  0  0  0  0  0  0  0  0  0  0
  2  1  1  0
  3  2  1  0
  3  4  1  1
  5  6  2  0
  5  3  1  0
  8  7  1  6
  8  9  1  0
  9  5  1  0
 10  8  1  0
 10 15  1  0
 11 10  2  0
 12 13  1  0
 14 13  1  1
 14 15  1  0
 14 16  1  0
 16 17  2  0
 16 18  1  0
M  END
$$$$
