HIQ.pdb
     RDKit          3D

 28 28  0  0  1  0  0  0  0  0999 V2000
   27.2175  -18.6087  -16.5655 N   0  0  0  0  0  0  0  0  0  0  0  0
   26.6134  -18.1594  -15.3236 C   0  0  1  0  0  0  0  0  0  0  0  0
   25.6034  -17.0421  -15.6024 C   0  0  0  0  0  0  0  0  0  0  0  0
   26.3739  -15.8570  -16.0074 C   0  0  0  0  0  0  0  0  0  0  0  0
   26.8157  -15.5251  -17.2610 C   0  0  0  0  0  0  0  0  0  0  0  0
   27.4828  -14.3615  -17.2081 N   0  0  0  0  0  0  0  0  0  0  0  0
   27.4743  -13.9383  -15.9220 C   0  0  0  0  0  0  0  0  0  0  0  0
   26.7881  -14.8699  -15.1974 N   0  0  0  0  0  0  0  0  0  0  0  0
   25.8988  -19.3037  -14.7135 C   0  0  0  0  0  0  0  0  0  0  0  0
   25.2471  -20.1334  -15.4290 O   0  0  0  0  0  0  0  0  0  0  0  0
   27.4657  -21.4092   -9.7659 C   0  0  0  0  0  0  0  0  0  0  0  0
   26.8912  -21.4258  -11.1503 C   0  0  0  0  0  0  0  0  0  0  0  0
   25.4980  -20.8912  -11.2849 C   0  0  2  0  0  0  0  0  0  0  0  0
   24.5172  -21.8000  -10.5702 C   0  0  0  0  0  0  0  0  0  0  0  0
   25.0641  -20.5339  -12.6543 C   0  0  2  0  0  0  0  0  0  0  0  0
   25.8874  -19.5553  -13.3160 N   0  0  0  0  0  0  0  0  0  0  0  0
   23.6322  -20.1007  -12.7104 C   0  0  0  0  0  0  0  0  0  0  0  0
   23.3137  -19.0043  -12.2001 O   0  0  0  0  0  0  0  0  0  0  0  0
   20.1383  -19.2305  -17.4245 N   0  0  0  0  0  0  0  0  0  0  0  0
   19.1203  -19.3989  -16.4581 C   0  0  0  0  0  0  0  0  0  0  0  0
   17.9477  -19.1152  -16.7678 O   0  0  0  0  0  0  0  0  0  0  0  0
   19.4316  -19.8974  -15.1124 C   0  0  0  0  0  0  0  0  0  0  0  0
   20.8575  -20.1983  -14.8421 C   0  0  0  0  0  0  0  0  0  0  0  0
   21.2321  -20.4781  -13.4280 C   0  0  2  0  0  0  0  0  0  0  0  0
   22.6334  -20.8924  -13.3213 N   0  0  0  0  0  0  0  0  0  0  0  0
   20.3711  -21.5458  -12.8613 C   0  0  0  0  0  0  0  0  0  0  0  0
   19.1587  -21.3165  -12.2610 O   0  0  0  0  0  0  0  0  0  0  0  0
   20.7782  -22.7393  -12.9344 O   0  0  0  0  0  0  0  0  0  0  0  0
  2  1  1  6
  3  2  1  0
  4  3  1  0
  4  8  1  0
  5  4  2  0
  6  5  1  0
  6  7  1  0
  7  8  2  0
  9  2  1  0
 10  9  2  0
 12 11  1  0
 13 15  1  0
 13 12  1  0
 13 14  1  6
 15 16  1  1
 16  9  1  0
 17 18  2  0
 17 15  1  0
 20 19  1  0
 21 20  2  0
 22 20  1  0
 24 23  1  6
 23 22  1  0
 24 25  1  0
 25 17  1  0
 26 27  1  0
 26 24  1  0
 28 26  2  0
M  END
$$$$
