HIQ.pdb
     RDKit          3D

 28 28  0  0  1  0  0  0  0  0999 V2000
   27.9912  -21.7002  -15.7268 N   0  0  0  0  0  0  0  0  0  0  0  0
   27.2601  -20.5774  -15.1665 C   0  0  1  0  0  0  0  0  0  0  0  0
   26.6258  -19.7487  -16.2877 C   0  0  0  0  0  0  0  0  0  0  0  0
   27.6973  -18.9338  -16.8793 C   0  0  0  0  0  0  0  0  0  0  0  0
   29.0063  -18.8454  -16.4848 C   0  0  0  0  0  0  0  0  0  0  0  0
   29.6597  -17.9900  -17.2869 N   0  0  0  0  0  0  0  0  0  0  0  0
   28.7764  -17.5237  -18.2009 C   0  0  0  0  0  0  0  0  0  0  0  0
   27.5746  -18.1145  -17.9355 N   0  0  0  0  0  0  0  0  0  0  0  0
   26.1824  -21.1093  -14.3017 C   0  0  0  0  0  0  0  0  0  0  0  0
   25.4470  -22.0784  -14.6825 O   0  0  0  0  0  0  0  0  0  0  0  0
   26.6012  -20.7827   -8.7555 C   0  0  0  0  0  0  0  0  0  0  0  0
   26.2396  -21.3192  -10.1077 C   0  0  0  0  0  0  0  0  0  0  0  0
   24.9982  -20.7504  -10.7246 C   0  0  2  0  0  0  0  0  0  0  0  0
   23.7854  -21.1134   -9.8903 C   0  0  0  0  0  0  0  0  0  0  0  0
   24.8068  -21.0119  -12.1689 C   0  0  2  0  0  0  0  0  0  0  0  0
   25.8952  -20.5897  -13.0117 N   0  0  0  0  0  0  0  0  0  0  0  0
   23.5230  -20.4463  -12.6917 C   0  0  0  0  0  0  0  0  0  0  0  0
   23.4635  -19.2240  -12.9491 O   0  0  0  0  0  0  0  0  0  0  0  0
   20.1051  -19.8712  -17.0620 N   0  0  0  0  0  0  0  0  0  0  0  0
   19.2113  -19.9736  -15.9714 C   0  0  0  0  0  0  0  0  0  0  0  0
   18.3809  -19.0631  -15.7902 O   0  0  0  0  0  0  0  0  0  0  0  0
   19.2555  -21.1278  -15.0648 C   0  0  0  0  0  0  0  0  0  0  0  0
   20.5929  -21.4965  -14.5430 C   0  0  0  0  0  0  0  0  0  0  0  0
   21.0996  -20.7213  -13.3765 C   0  0  2  0  0  0  0  0  0  0  0  0
   22.3805  -21.2512  -12.9020 N   0  0  0  0  0  0  0  0  0  0  0  0
   20.1217  -20.7580  -12.2608 C   0  0  0  0  0  0  0  0  0  0  0  0
   19.0961  -19.8591  -12.1088 O   0  0  0  0  0  0  0  0  0  0  0  0
   20.2398  -21.6716  -11.3965 O   0  0  0  0  0  0  0  0  0  0  0  0
  2  1  1  6
  3  2  1  0
  4  3  1  0
  4  8  1  0
  5  4  2  0
  6  5  1  0
  6  7  1  0
  7  8  2  0
  9  2  1  0
 10  9  2  0
 12 11  1  0
 13 15  1  0
 13 12  1  0
 13 14  1  1
 15 16  1  6
 16  9  1  0
 17 18  2  0
 17 15  1  0
 20 19  1  0
 21 20  2  0
 22 20  1  0
 24 23  1  6
 23 22  1  0
 24 25  1  0
 25 17  1  0
 26 27  1  0
 26 24  1  0
 28 26  2  0
M  END
$$$$
