HIQ.pdb
     RDKit          3D

 28 28  0  0  1  0  0  0  0  0999 V2000
   16.8322  -14.1641  -17.3748 N   0  0  0  0  0  0  0  0  0  0  0  0
   17.0593  -13.4740  -16.1173 C   0  0  1  0  0  0  0  0  0  0  0  0
   18.1195  -14.2123  -15.2944 C   0  0  0  0  0  0  0  0  0  0  0  0
   17.5025  -15.4589  -14.8172 C   0  0  0  0  0  0  0  0  0  0  0  0
   17.8356  -16.7461  -15.1475 C   0  0  0  0  0  0  0  0  0  0  0  0
   17.0300  -17.5993  -14.4957 N   0  0  0  0  0  0  0  0  0  0  0  0
   16.1750  -16.8673  -13.7431 C   0  0  0  0  0  0  0  0  0  0  0  0
   16.4797  -15.5531  -13.9529 N   0  0  0  0  0  0  0  0  0  0  0  0
   17.5554  -12.1117  -16.4175 C   0  0  0  0  0  0  0  0  0  0  0  0
   18.4393  -11.9128  -17.3142 O   0  0  0  0  0  0  0  0  0  0  0  0
   17.1584   -6.8913  -17.8556 C   0  0  0  0  0  0  0  0  0  0  0  0
   16.8123   -7.2060  -16.4315 C   0  0  0  0  0  0  0  0  0  0  0  0
   16.4088   -8.6224  -16.1559 C   0  0  2  0  0  0  0  0  0  0  0  0
   15.4306   -8.6724  -14.9986 C   0  0  0  0  0  0  0  0  0  0  0  0
   17.5103   -9.6027  -16.0257 C   0  0  2  0  0  0  0  0  0  0  0  0
   17.0924  -10.9513  -15.7425 N   0  0  0  0  0  0  0  0  0  0  0  0
   18.5424   -9.1804  -15.0269 C   0  0  0  0  0  0  0  0  0  0  0  0
   18.3149   -9.3637  -13.8110 O   0  0  0  0  0  0  0  0  0  0  0  0
   24.3289  -10.6061  -14.5196 N   0  0  0  0  0  0  0  0  0  0  0  0
   23.8322  -10.0896  -15.7382 C   0  0  0  0  0  0  0  0  0  0  0  0
   24.4315  -10.3662  -16.7945 O   0  0  0  0  0  0  0  0  0  0  0  0
   22.6336   -9.2417  -15.7663 C   0  0  0  0  0  0  0  0  0  0  0  0
   21.9649   -9.0144  -14.4633 C   0  0  0  0  0  0  0  0  0  0  0  0
   20.7733   -8.1209  -14.4628 C   0  0  2  0  0  0  0  0  0  0  0  0
   19.7621   -8.5827  -15.4173 N   0  0  0  0  0  0  0  0  0  0  0  0
   21.1625   -6.7315  -14.8101 C   0  0  0  0  0  0  0  0  0  0  0  0
   20.7416   -6.0758  -15.9396 O   0  0  0  0  0  0  0  0  0  0  0  0
   21.9290   -6.1134  -14.0188 O   0  0  0  0  0  0  0  0  0  0  0  0
  2  1  1  6
  3  2  1  0
  4  3  1  0
  4  8  1  0
  5  4  2  0
  6  5  1  0
  6  7  1  0
  7  8  2  0
  9  2  1  0
 10  9  2  0
 12 11  1  0
 13 15  1  0
 13 12  1  0
 13 14  1  1
 15 16  1  1
 16  9  1  0
 17 18  2  0
 17 15  1  0
 20 19  1  0
 21 20  2  0
 22 20  1  0
 24 23  1  6
 23 22  1  0
 24 25  1  0
 25 17  1  0
 26 27  1  0
 26 24  1  0
 28 26  2  0
M  END
$$$$
