HIQ.pdb
     RDKit          3D

 28 28  0  0  1  0  0  0  0  0999 V2000
   27.6767  -20.3956  -16.2653 N   0  0  0  0  0  0  0  0  0  0  0  0
   26.8261  -19.4638  -15.5460 C   0  0  1  0  0  0  0  0  0  0  0  0
   26.0301  -18.6058  -16.5340 C   0  0  0  0  0  0  0  0  0  0  0  0
   26.9970  -17.7474  -17.2345 C   0  0  0  0  0  0  0  0  0  0  0  0
   27.3464  -17.7756  -18.5589 C   0  0  0  0  0  0  0  0  0  0  0  0
   28.2647  -16.8268  -18.8008 N   0  0  0  0  0  0  0  0  0  0  0  0
   28.5112  -16.1834  -17.6353 C   0  0  0  0  0  0  0  0  0  0  0  0
   27.7231  -16.7624  -16.6827 N   0  0  0  0  0  0  0  0  0  0  0  0
   25.8753  -20.2437  -14.7215 C   0  0  0  0  0  0  0  0  0  0  0  0
   25.3627  -21.3286  -15.1518 O   0  0  0  0  0  0  0  0  0  0  0  0
   26.7027  -20.6736   -9.3402 C   0  0  0  0  0  0  0  0  0  0  0  0
   26.2854  -20.9731  -10.7484 C   0  0  0  0  0  0  0  0  0  0  0  0
   24.9017  -20.5388  -11.1251 C   0  0  2  0  0  0  0  0  0  0  0  0
   23.8770  -21.2479  -10.2614 C   0  0  0  0  0  0  0  0  0  0  0  0
   24.5726  -20.5825  -12.5677 C   0  0  2  0  0  0  0  0  0  0  0  0
   25.4731  -19.8483  -13.4182 N   0  0  0  0  0  0  0  0  0  0  0  0
   23.1643  -20.1604  -12.8504 C   0  0  0  0  0  0  0  0  0  0  0  0
   22.8260  -18.9830  -12.5994 O   0  0  0  0  0  0  0  0  0  0  0  0
   21.8086  -18.0307  -16.4452 N   0  0  0  0  0  0  0  0  0  0  0  0
   21.5045  -19.4068  -16.5564 C   0  0  0  0  0  0  0  0  0  0  0  0
   22.3171  -20.1551  -17.1319 O   0  0  0  0  0  0  0  0  0  0  0  0
   20.2561  -19.9511  -16.0073 C   0  0  0  0  0  0  0  0  0  0  0  0
   20.4007  -21.0532  -15.0269 C   0  0  0  0  0  0  0  0  0  0  0  0
   20.8158  -20.6786  -13.6465 C   0  0  2  0  0  0  0  0  0  0  0  0
   22.2096  -21.0513  -13.3910 N   0  0  0  0  0  0  0  0  0  0  0  0
   19.9489  -21.3436  -12.6421 C   0  0  0  0  0  0  0  0  0  0  0  0
   18.7340  -20.8546  -12.2326 O   0  0  0  0  0  0  0  0  0  0  0  0
   20.3532  -22.4257  -12.1311 O   0  0  0  0  0  0  0  0  0  0  0  0
  2  1  1  6
  3  2  1  0
  4  3  1  0
  4  8  1  0
  5  4  2  0
  6  5  1  0
  6  7  1  0
  7  8  2  0
  9  2  1  0
 10  9  2  0
 12 11  1  0
 13 15  1  0
 13 12  1  0
 13 14  1  1
 15 16  1  6
 16  9  1  0
 17 18  2  0
 17 15  1  0
 20 19  1  0
 21 20  2  0
 22 20  1  0
 24 23  1  6
 23 22  1  0
 24 25  1  0
 25 17  1  0
 26 27  1  0
 26 24  1  0
 28 26  2  0
M  END
$$$$
