HIQ.pdb
     RDKit          3D

 28 28  0  0  1  0  0  0  0  0999 V2000
   28.4342  -21.1057  -15.5748 N   0  0  0  0  0  0  0  0  0  0  0  0
   27.5963  -20.1179  -14.9180 C   0  0  1  0  0  0  0  0  0  0  0  0
   26.8460  -19.2849  -15.9617 C   0  0  0  0  0  0  0  0  0  0  0  0
   27.8311  -18.3897  -16.5867 C   0  0  0  0  0  0  0  0  0  0  0  0
   29.1255  -18.1587  -16.2018 C   0  0  0  0  0  0  0  0  0  0  0  0
   29.6903  -17.2721  -17.0366 N   0  0  0  0  0  0  0  0  0  0  0  0
   28.7640  -16.9279  -17.9622 C   0  0  0  0  0  0  0  0  0  0  0  0
   27.6268  -17.6245  -17.6705 N   0  0  0  0  0  0  0  0  0  0  0  0
   26.6064  -20.8316  -14.0796 C   0  0  0  0  0  0  0  0  0  0  0  0
   26.0050  -21.8710  -14.5071 O   0  0  0  0  0  0  0  0  0  0  0  0
   26.8112  -20.3114   -8.5307 C   0  0  0  0  0  0  0  0  0  0  0  0
   26.5479  -21.0284   -9.8204 C   0  0  0  0  0  0  0  0  0  0  0  0
   25.2758  -20.6624  -10.5224 C   0  0  2  0  0  0  0  0  0  0  0  0
   24.0811  -21.1752   -9.7424 C   0  0  0  0  0  0  0  0  0  0  0  0
   25.2081  -20.9872  -11.9650 C   0  0  2  0  0  0  0  0  0  0  0  0
   26.2618  -20.4189  -12.7653 N   0  0  0  0  0  0  0  0  0  0  0  0
   23.8825  -20.6458  -12.5710 C   0  0  0  0  0  0  0  0  0  0  0  0
   23.5744  -19.4415  -12.7076 O   0  0  0  0  0  0  0  0  0  0  0  0
   20.2601  -24.5526  -16.1486 N   0  0  0  0  0  0  0  0  0  0  0  0
   19.4577  -23.4000  -15.9866 C   0  0  0  0  0  0  0  0  0  0  0  0
   18.3765  -23.3318  -16.6012 O   0  0  0  0  0  0  0  0  0  0  0  0
   19.8844  -22.2996  -15.1129 C   0  0  0  0  0  0  0  0  0  0  0  0
   21.1980  -22.4672  -14.4473 C   0  0  0  0  0  0  0  0  0  0  0  0
   21.6730  -21.3400  -13.5975 C   0  0  2  0  0  0  0  0  0  0  0  0
   22.9723  -21.6419  -12.9915 N   0  0  0  0  0  0  0  0  0  0  0  0
   20.6952  -21.0515  -12.5189 C   0  0  0  0  0  0  0  0  0  0  0  0
   20.6125  -21.7615  -11.3476 O   0  0  0  0  0  0  0  0  0  0  0  0
   19.8883  -20.0945  -12.6883 O   0  0  0  0  0  0  0  0  0  0  0  0
  2  1  1  6
  3  2  1  0
  4  3  1  0
  4  8  1  0
  5  4  2  0
  6  5  1  0
  6  7  1  0
  7  8  2  0
  9  2  1  0
 10  9  2  0
 12 11  1  0
 13 15  1  0
 13 12  1  0
 13 14  1  1
 15 16  1  6
 16  9  1  0
 17 18  2  0
 17 15  1  0
 20 19  1  0
 21 20  2  0
 22 20  1  0
 24 23  1  1
 23 22  1  0
 24 25  1  0
 25 17  1  0
 26 27  1  0
 26 24  1  0
 28 26  2  0
M  END
$$$$
