HIQ.pdb
     RDKit          3D

 28 28  0  0  1  0  0  0  0  0999 V2000
   28.0710  -21.8557  -15.8417 N   0  0  0  0  0  0  0  0  0  0  0  0
   27.4111  -20.7502  -15.1697 C   0  0  1  0  0  0  0  0  0  0  0  0
   26.7028  -19.8578  -16.1935 C   0  0  0  0  0  0  0  0  0  0  0  0
   27.7506  -19.1787  -16.9701 C   0  0  0  0  0  0  0  0  0  0  0  0
   28.2472  -19.5229  -18.1996 C   0  0  0  0  0  0  0  0  0  0  0  0
   29.1957  -18.6450  -18.5622 N   0  0  0  0  0  0  0  0  0  0  0  0
   29.3149  -17.7319  -17.5695 C   0  0  0  0  0  0  0  0  0  0  0  0
   28.4189  -18.0753  -16.5985 N   0  0  0  0  0  0  0  0  0  0  0  0
   26.3984  -21.3066  -14.2440 C   0  0  0  0  0  0  0  0  0  0  0  0
   25.6537  -22.2823  -14.5880 O   0  0  0  0  0  0  0  0  0  0  0  0
   26.6868  -20.5284   -8.6703 C   0  0  0  0  0  0  0  0  0  0  0  0
   26.3317  -21.2293   -9.9468 C   0  0  0  0  0  0  0  0  0  0  0  0
   25.1639  -20.6655  -10.6975 C   0  0  2  0  0  0  0  0  0  0  0  0
   23.8871  -20.8620   -9.9040 C   0  0  0  0  0  0  0  0  0  0  0  0
   25.0353  -21.0789  -12.1131 C   0  0  2  0  0  0  0  0  0  0  0  0
   26.1870  -20.8043  -12.9327 N   0  0  0  0  0  0  0  0  0  0  0  0
   23.8119  -20.5175  -12.7684 C   0  0  0  0  0  0  0  0  0  0  0  0
   23.8375  -19.3379  -13.1826 O   0  0  0  0  0  0  0  0  0  0  0  0
   20.5698  -23.1802  -17.1649 N   0  0  0  0  0  0  0  0  0  0  0  0
   19.7505  -22.0676  -16.8659 C   0  0  0  0  0  0  0  0  0  0  0  0
   18.7740  -21.8282  -17.6011 O   0  0  0  0  0  0  0  0  0  0  0  0
   20.0392  -21.2055  -15.7128 C   0  0  0  0  0  0  0  0  0  0  0  0
   21.2023  -21.5962  -14.8814 C   0  0  0  0  0  0  0  0  0  0  0  0
   21.4540  -20.7931  -13.6526 C   0  0  2  0  0  0  0  0  0  0  0  0
   22.6330  -21.2798  -12.9317 N   0  0  0  0  0  0  0  0  0  0  0  0
   20.2807  -20.8456  -12.7453 C   0  0  0  0  0  0  0  0  0  0  0  0
   19.1930  -20.0153  -12.8479 O   0  0  0  0  0  0  0  0  0  0  0  0
   20.2822  -21.7062  -11.8206 O   0  0  0  0  0  0  0  0  0  0  0  0
  2  1  1  6
  3  2  1  0
  4  3  1  0
  4  8  1  0
  5  4  2  0
  6  5  1  0
  6  7  1  0
  7  8  2  0
  9  2  1  0
 10  9  2  0
 12 11  1  0
 13 15  1  0
 13 12  1  0
 13 14  1  1
 15 16  1  6
 16  9  1  0
 17 18  2  0
 17 15  1  0
 20 19  1  0
 21 20  2  0
 22 20  1  0
 24 23  1  6
 23 22  1  0
 24 25  1  0
 25 17  1  0
 26 27  1  0
 26 24  1  0
 28 26  2  0
M  END
$$$$
