HIQ.pdb
     RDKit          3D

 28 28  0  0  1  0  0  0  0  0999 V2000
   24.2993  -14.8973  -17.8357 N   0  0  0  0  0  0  0  0  0  0  0  0
   24.1887  -14.0510  -16.6607 C   0  0  1  0  0  0  0  0  0  0  0  0
   25.5810  -13.6272  -16.1831 C   0  0  0  0  0  0  0  0  0  0  0  0
   26.3124  -14.8570  -15.8443 C   0  0  0  0  0  0  0  0  0  0  0  0
   25.9980  -15.7913  -14.8929 C   0  0  0  0  0  0  0  0  0  0  0  0
   26.9213  -16.7658  -14.8988 N   0  0  0  0  0  0  0  0  0  0  0  0
   27.8338  -16.4647  -15.8526 C   0  0  0  0  0  0  0  0  0  0  0  0
   27.4439  -15.2878  -16.4241 N   0  0  0  0  0  0  0  0  0  0  0  0
   23.4247  -12.8382  -17.0314 C   0  0  0  0  0  0  0  0  0  0  0  0
   23.8293  -12.0588  -17.9554 O   0  0  0  0  0  0  0  0  0  0  0  0
   19.2692  -13.8500  -18.3313 C   0  0  0  0  0  0  0  0  0  0  0  0
   19.8906  -12.4927  -18.4668 C   0  0  0  0  0  0  0  0  0  0  0  0
   20.0110  -11.7010  -17.2004 C   0  0  2  0  0  0  0  0  0  0  0  0
   19.0754  -10.5086  -17.2375 C   0  0  0  0  0  0  0  0  0  0  0  0
   21.3850  -11.3459  -16.7793 C   0  0  2  0  0  0  0  0  0  0  0  0
   22.2106  -12.4624  -16.3980 N   0  0  0  0  0  0  0  0  0  0  0  0
   21.4067  -10.3159  -15.6931 C   0  0  0  0  0  0  0  0  0  0  0  0
   21.2459  -10.6850  -14.5092 O   0  0  0  0  0  0  0  0  0  0  0  0
   23.2925   -4.1692  -16.3875 N   0  0  0  0  0  0  0  0  0  0  0  0
   22.7629   -4.2238  -15.0779 C   0  0  0  0  0  0  0  0  0  0  0  0
   22.7677   -3.1878  -14.3863 O   0  0  0  0  0  0  0  0  0  0  0  0
   22.2167   -5.4743  -14.5357 C   0  0  0  0  0  0  0  0  0  0  0  0
   22.1959   -6.6321  -15.4609 C   0  0  0  0  0  0  0  0  0  0  0  0
   21.6679   -7.9167  -14.9230 C   0  0  2  0  0  0  0  0  0  0  0  0
   21.6030   -8.9432  -15.9664 N   0  0  0  0  0  0  0  0  0  0  0  0
   20.3113   -7.7254  -14.3524 C   0  0  0  0  0  0  0  0  0  0  0  0
   20.0537   -7.5985  -13.0106 O   0  0  0  0  0  0  0  0  0  0  0  0
   19.3324   -7.6771  -15.1493 O   0  0  0  0  0  0  0  0  0  0  0  0
  2  1  1  6
  3  2  1  0
  4  3  1  0
  4  8  1  0
  5  4  2  0
  6  5  1  0
  6  7  1  0
  7  8  2  0
  9  2  1  0
 10  9  2  0
 12 11  1  0
 13 15  1  0
 13 12  1  0
 13 14  1  6
 15 16  1  1
 16  9  1  0
 17 18  2  0
 17 15  1  0
 20 19  1  0
 21 20  2  0
 22 20  1  0
 24 23  1  6
 23 22  1  0
 24 25  1  0
 25 17  1  0
 26 27  1  0
 26 24  1  0
 28 26  2  0
M  END
$$$$
