HIQ.pdb
     RDKit          3D

 28 28  0  0  1  0  0  0  0  0999 V2000
   26.6068  -26.2467  -16.0446 N   0  0  0  0  0  0  0  0  0  0  0  0
   25.4384  -25.5960  -16.6108 C   0  0  1  0  0  0  0  0  0  0  0  0
   24.3975  -26.6431  -17.0187 C   0  0  0  0  0  0  0  0  0  0  0  0
   24.8819  -27.2716  -18.2567 C   0  0  0  0  0  0  0  0  0  0  0  0
   24.8289  -26.7750  -19.5324 C   0  0  0  0  0  0  0  0  0  0  0  0
   25.3791  -27.6579  -20.3808 N   0  0  0  0  0  0  0  0  0  0  0  0
   25.7888  -28.7263  -19.6571 C   0  0  0  0  0  0  0  0  0  0  0  0
   25.4752  -28.4719  -18.3529 N   0  0  0  0  0  0  0  0  0  0  0  0
   24.8477  -24.7179  -15.5754 C   0  0  0  0  0  0  0  0  0  0  0  0
   24.7882  -25.0822  -14.3553 O   0  0  0  0  0  0  0  0  0  0  0  0
   26.3868  -20.1201  -16.2239 C   0  0  0  0  0  0  0  0  0  0  0  0
   25.8839  -21.0164  -15.1327 C   0  0  0  0  0  0  0  0  0  0  0  0
   24.3943  -21.1230  -15.0106 C   0  0  2  0  0  0  0  0  0  0  0  0
   23.8871  -20.1735  -13.9430 C   0  0  0  0  0  0  0  0  0  0  0  0
   23.8455  -22.4913  -14.8768 C   0  0  2  0  0  0  0  0  0  0  0  0
   24.3152  -23.4326  -15.8599 N   0  0  0  0  0  0  0  0  0  0  0  0
   22.3489  -22.5110  -14.8428 C   0  0  0  0  0  0  0  0  0  0  0  0
   21.7185  -22.2211  -15.8832 O   0  0  0  0  0  0  0  0  0  0  0  0
   19.0835  -25.4798  -10.3134 N   0  0  0  0  0  0  0  0  0  0  0  0
   19.5464  -26.0538  -11.5195 C   0  0  0  0  0  0  0  0  0  0  0  0
   19.6071  -27.2948  -11.6076 O   0  0  0  0  0  0  0  0  0  0  0  0
   19.9507  -25.2098  -12.6511 C   0  0  0  0  0  0  0  0  0  0  0  0
   19.6919  -23.7576  -12.5067 C   0  0  0  0  0  0  0  0  0  0  0  0
   20.1672  -22.8743  -13.6077 C   0  0  2  0  0  0  0  0  0  0  0  0
   21.6306  -22.8466  -13.6728 N   0  0  0  0  0  0  0  0  0  0  0  0
   19.6684  -21.4895  -13.4182 C   0  0  0  0  0  0  0  0  0  0  0  0
   18.4383  -21.0520  -13.8403 O   0  0  0  0  0  0  0  0  0  0  0  0
   20.4217  -20.6611  -12.8334 O   0  0  0  0  0  0  0  0  0  0  0  0
  2  1  1  1
  3  2  1  0
  4  3  1  0
  4  8  1  0
  5  4  2  0
  6  5  1  0
  6  7  1  0
  7  8  2  0
  9  2  1  0
 10  9  2  0
 12 11  1  0
 13 15  1  0
 13 12  1  0
 13 14  1  1
 15 16  1  6
 16  9  1  0
 17 18  2  0
 17 15  1  0
 20 19  1  0
 21 20  2  0
 22 20  1  0
 24 23  1  1
 23 22  1  0
 24 25  1  0
 25 17  1  0
 26 27  1  0
 26 24  1  0
 28 26  2  0
M  END
$$$$
