HIQ.pdb
     RDKit          3D

 28 28  0  0  1  0  0  0  0  0999 V2000
   17.1992  -11.5863  -15.8190 N   0  0  0  0  0  0  0  0  0  0  0  0
   16.9893  -10.1721  -15.5642 C   0  0  1  0  0  0  0  0  0  0  0  0
   15.4932   -9.8457  -15.6018 C   0  0  0  0  0  0  0  0  0  0  0  0
   15.0744   -9.9091  -17.0099 C   0  0  0  0  0  0  0  0  0  0  0  0
   15.0417   -8.8923  -17.9276 C   0  0  0  0  0  0  0  0  0  0  0  0
   14.5971   -9.3633  -19.1033 N   0  0  0  0  0  0  0  0  0  0  0  0
   14.3414  -10.6840  -18.9495 C   0  0  0  0  0  0  0  0  0  0  0  0
   14.6405  -11.0028  -17.6562 N   0  0  0  0  0  0  0  0  0  0  0  0
   17.5090   -9.8608  -14.2132 C   0  0  0  0  0  0  0  0  0  0  0  0
   17.2388  -10.6043  -13.2136 O   0  0  0  0  0  0  0  0  0  0  0  0
   22.6911   -8.5658  -13.1873 C   0  0  0  0  0  0  0  0  0  0  0  0
   21.2480   -8.9698  -13.2219 C   0  0  0  0  0  0  0  0  0  0  0  0
   20.2810   -7.9859  -12.6373 C   0  0  2  0  0  0  0  0  0  0  0  0
   20.7614   -7.5258  -11.2748 C   0  0  0  0  0  0  0  0  0  0  0  0
   18.8560   -8.3867  -12.6438 C   0  0  2  0  0  0  0  0  0  0  0  0
   18.3293   -8.7349  -13.9379 N   0  0  0  0  0  0  0  0  0  0  0  0
   17.9677   -7.3668  -12.0020 C   0  0  0  0  0  0  0  0  0  0  0  0
   17.7782   -6.2784  -12.5878 O   0  0  0  0  0  0  0  0  0  0  0  0
   13.1493   -8.6918   -8.1049 N   0  0  0  0  0  0  0  0  0  0  0  0
   13.2815   -7.2914   -7.9633 C   0  0  0  0  0  0  0  0  0  0  0  0
   12.4800   -6.6856   -7.2270 O   0  0  0  0  0  0  0  0  0  0  0  0
   14.3404   -6.5578   -8.6681 C   0  0  0  0  0  0  0  0  0  0  0  0
   15.2807   -7.3780   -9.4679 C   0  0  0  0  0  0  0  0  0  0  0  0
   16.3947   -6.6592  -10.1466 C   0  0  2  0  0  0  0  0  0  0  0  0
   17.3392   -7.5980  -10.7574 N   0  0  0  0  0  0  0  0  0  0  0  0
   17.1264   -5.8008   -9.1821 C   0  0  0  0  0  0  0  0  0  0  0  0
   16.7710   -4.5105   -8.8794 O   0  0  0  0  0  0  0  0  0  0  0  0
   18.1394   -6.2860   -8.6041 O   0  0  0  0  0  0  0  0  0  0  0  0
  2  1  1  1
  3  2  1  0
  4  3  1  0
  4  8  1  0
  5  4  2  0
  6  5  1  0
  6  7  1  0
  7  8  2  0
  9  2  1  0
 10  9  2  0
 12 11  1  0
 13 15  1  0
 13 12  1  0
 13 14  1  1
 15 16  1  6
 16  9  1  0
 17 18  2  0
 17 15  1  0
 20 19  1  0
 21 20  2  0
 22 20  1  0
 24 23  1  1
 23 22  1  0
 24 25  1  0
 25 17  1  0
 26 27  1  0
 26 24  1  0
 28 26  2  0
M  END
$$$$
