HIQ.pdb
     RDKit          3D

 28 28  0  0  1  0  0  0  0  0999 V2000
   28.3206  -21.2055  -15.8793 N   0  0  0  0  0  0  0  0  0  0  0  0
   27.5863  -20.1594  -15.1896 C   0  0  1  0  0  0  0  0  0  0  0  0
   26.9464  -19.2073  -16.2045 C   0  0  0  0  0  0  0  0  0  0  0  0
   28.0413  -18.4700  -16.8525 C   0  0  0  0  0  0  0  0  0  0  0  0
   28.5009  -18.5975  -18.1368 C   0  0  0  0  0  0  0  0  0  0  0  0
   29.5155  -17.7418  -18.3372 N   0  0  0  0  0  0  0  0  0  0  0  0
   29.7145  -17.0595  -17.1847 C   0  0  0  0  0  0  0  0  0  0  0  0
   28.7993  -17.5200  -16.2824 N   0  0  0  0  0  0  0  0  0  0  0  0
   26.5126  -20.7938  -14.3915 C   0  0  0  0  0  0  0  0  0  0  0  0
   25.8673  -21.8003  -14.8336 O   0  0  0  0  0  0  0  0  0  0  0  0
   26.8405  -20.7704   -8.8788 C   0  0  0  0  0  0  0  0  0  0  0  0
   26.4881  -21.2758  -10.2453 C   0  0  0  0  0  0  0  0  0  0  0  0
   25.2316  -20.7196  -10.8426 C   0  0  2  0  0  0  0  0  0  0  0  0
   24.0248  -21.1870  -10.0527 C   0  0  0  0  0  0  0  0  0  0  0  0
   25.0696  -20.8928  -12.3038 C   0  0  2  0  0  0  0  0  0  0  0  0
   26.1312  -20.3369  -13.1023 N   0  0  0  0  0  0  0  0  0  0  0  0
   23.7525  -20.3845  -12.8018 C   0  0  0  0  0  0  0  0  0  0  0  0
   23.5565  -19.1499  -12.8351 O   0  0  0  0  0  0  0  0  0  0  0  0
   20.1229  -23.2443  -17.1039 N   0  0  0  0  0  0  0  0  0  0  0  0
   19.3477  -22.1240  -16.7264 C   0  0  0  0  0  0  0  0  0  0  0  0
   18.2893  -21.8934  -17.3413 O   0  0  0  0  0  0  0  0  0  0  0  0
   19.7758  -21.2437  -15.6318 C   0  0  0  0  0  0  0  0  0  0  0  0
   21.0729  -21.5765  -14.9966 C   0  0  0  0  0  0  0  0  0  0  0  0
   21.4560  -20.7897  -13.7914 C   0  0  2  0  0  0  0  0  0  0  0  0
   22.7279  -21.2568  -13.2339 N   0  0  0  0  0  0  0  0  0  0  0  0
   20.4071  -20.8914  -12.7464 C   0  0  0  0  0  0  0  0  0  0  0  0
   19.3418  -20.0330  -12.6417 O   0  0  0  0  0  0  0  0  0  0  0  0
   20.4998  -21.8245  -11.9000 O   0  0  0  0  0  0  0  0  0  0  0  0
  2  1  1  6
  3  2  1  0
  4  3  1  0
  4  8  1  0
  5  4  2  0
  6  5  1  0
  6  7  1  0
  7  8  2  0
  9  2  1  0
 10  9  2  0
 12 11  1  0
 13 15  1  0
 13 12  1  0
 13 14  1  1
 15 16  1  6
 16  9  1  0
 17 18  2  0
 17 15  1  0
 20 19  1  0
 21 20  2  0
 22 20  1  0
 24 23  1  6
 23 22  1  0
 24 25  1  0
 25 17  1  0
 26 27  1  0
 26 24  1  0
 28 26  2  0
M  END
$$$$
