HIQ.pdb
     RDKit          3D

 28 28  0  0  1  0  0  0  0  0999 V2000
   26.4787  -19.9039  -16.0449 N   0  0  0  0  0  0  0  0  0  0  0  0
   25.4076  -19.2750  -15.2922 C   0  0  1  0  0  0  0  0  0  0  0  0
   24.2312  -18.9521  -16.2185 C   0  0  0  0  0  0  0  0  0  0  0  0
   24.6954  -17.9229  -17.1606 C   0  0  0  0  0  0  0  0  0  0  0  0
   24.7146  -17.9782  -18.5294 C   0  0  0  0  0  0  0  0  0  0  0  0
   25.2141  -16.8319  -19.0177 N   0  0  0  0  0  0  0  0  0  0  0  0
   25.5188  -16.0334  -17.9676 C   0  0  0  0  0  0  0  0  0  0  0  0
   25.1934  -16.7200  -16.8334 N   0  0  0  0  0  0  0  0  0  0  0  0
   24.9477  -20.2260  -14.2549 C   0  0  0  0  0  0  0  0  0  0  0  0
   24.5807  -21.4085  -14.5583 O   0  0  0  0  0  0  0  0  0  0  0  0
   25.4261  -21.1725   -8.0711 C   0  0  0  0  0  0  0  0  0  0  0  0
   24.7876  -21.4659   -9.3952 C   0  0  0  0  0  0  0  0  0  0  0  0
   25.1897  -20.5691  -10.5263 C   0  0  2  0  0  0  0  0  0  0  0  0
   25.1413  -19.1188  -10.0872 C   0  0  0  0  0  0  0  0  0  0  0  0
   24.5116  -20.8051  -11.8208 C   0  0  2  0  0  0  0  0  0  0  0  0
   24.8830  -19.8973  -12.8750 N   0  0  0  0  0  0  0  0  0  0  0  0
   23.0204  -20.8371  -11.6927 C   0  0  0  0  0  0  0  0  0  0  0  0
   22.4450  -19.8913  -11.1110 O   0  0  0  0  0  0  0  0  0  0  0  0
   20.2732  -23.5067   -7.8118 N   0  0  0  0  0  0  0  0  0  0  0  0
   19.1368  -23.2214   -8.6028 C   0  0  0  0  0  0  0  0  0  0  0  0
   18.0057  -23.3990   -8.1122 O   0  0  0  0  0  0  0  0  0  0  0  0
   19.2788  -22.7256   -9.9777 C   0  0  0  0  0  0  0  0  0  0  0  0
   20.6665  -22.5385  -10.4633 C   0  0  0  0  0  0  0  0  0  0  0  0
   20.8338  -22.1029  -11.8777 C   0  0  2  0  0  0  0  0  0  0  0  0
   22.2469  -21.9016  -12.2084 N   0  0  0  0  0  0  0  0  0  0  0  0
   20.0977  -20.8381  -12.1249 C   0  0  0  0  0  0  0  0  0  0  0  0
   20.6957  -19.6061  -12.2109 O   0  0  0  0  0  0  0  0  0  0  0  0
   18.8436  -20.8975  -12.2640 O   0  0  0  0  0  0  0  0  0  0  0  0
  2  1  1  6
  3  2  1  0
  4  3  1  0
  4  8  1  0
  5  4  2  0
  6  5  1  0
  6  7  1  0
  7  8  2  0
  9  2  1  0
 10  9  2  0
 12 11  1  0
 13 15  1  0
 13 12  1  0
 13 14  1  1
 15 16  1  6
 16  9  1  0
 17 18  2  0
 17 15  1  0
 20 19  1  0
 21 20  2  0
 22 20  1  0
 24 23  1  1
 23 22  1  0
 24 25  1  0
 25 17  1  0
 26 27  1  0
 26 24  1  0
 28 26  2  0
M  END
$$$$
