HIQ.pdb
     RDKit          3D

 28 28  0  0  1  0  0  0  0  0999 V2000
   20.4992  -20.2049  -12.6300 N   0  0  0  0  0  0  0  0  0  0  0  0
   21.2037  -20.7115  -13.7946 C   0  0  1  0  0  0  0  0  0  0  0  0
   20.5691  -20.1611  -15.0755 C   0  0  0  0  0  0  0  0  0  0  0  0
   19.4821  -21.0795  -15.4459 C   0  0  0  0  0  0  0  0  0  0  0  0
   18.1511  -20.7937  -15.5999 C   0  0  0  0  0  0  0  0  0  0  0  0
   17.4895  -21.9099  -15.9438 N   0  0  0  0  0  0  0  0  0  0  0  0
   18.3895  -22.9191  -16.0131 C   0  0  0  0  0  0  0  0  0  0  0  0
   19.6098  -22.3906  -15.7040 N   0  0  0  0  0  0  0  0  0  0  0  0
   22.6089  -20.2502  -13.7251 C   0  0  0  0  0  0  0  0  0  0  0  0
   22.8974  -19.0086  -13.7181 O   0  0  0  0  0  0  0  0  0  0  0  0
   24.9129  -21.4313   -9.9095 C   0  0  0  0  0  0  0  0  0  0  0  0
   25.1771  -20.4875  -11.0437 C   0  0  0  0  0  0  0  0  0  0  0  0
   25.7537  -21.1019  -12.2827 C   0  0  2  0  0  0  0  0  0  0  0  0
   27.2565  -20.9041  -12.3146 C   0  0  0  0  0  0  0  0  0  0  0  0
   25.0951  -20.7418  -13.5586 C   0  0  2  0  0  0  0  0  0  0  0  0
   23.7148  -21.1387  -13.6624 N   0  0  0  0  0  0  0  0  0  0  0  0
   25.8473  -21.2361  -14.7548 C   0  0  0  0  0  0  0  0  0  0  0  0
   25.7336  -22.4370  -15.0844 O   0  0  0  0  0  0  0  0  0  0  0  0
   28.6888  -17.0182  -18.1901 N   0  0  0  0  0  0  0  0  0  0  0  0
   27.5645  -17.6253  -18.7950 C   0  0  0  0  0  0  0  0  0  0  0  0
   26.9278  -16.9856  -19.6534 O   0  0  0  0  0  0  0  0  0  0  0  0
   27.1484  -18.9836  -18.4231 C   0  0  0  0  0  0  0  0  0  0  0  0
   28.0086  -19.6828  -17.4393 C   0  0  0  0  0  0  0  0  0  0  0  0
   27.4046  -20.8336  -16.7120 C   0  0  2  0  0  0  0  0  0  0  0  0
   26.6793  -20.3874  -15.5197 N   0  0  0  0  0  0  0  0  0  0  0  0
   28.4531  -21.8008  -16.3025 C   0  0  0  0  0  0  0  0  0  0  0  0
   28.8994  -22.8298  -17.0930 O   0  0  0  0  0  0  0  0  0  0  0  0
   28.9667  -21.6707  -15.1558 O   0  0  0  0  0  0  0  0  0  0  0  0
  2  1  1  1
  3  2  1  0
  4  3  1  0
  4  8  1  0
  5  4  2  0
  6  5  1  0
  6  7  1  0
  7  8  2  0
  9  2  1  0
 10  9  2  0
 12 11  1  0
 13 15  1  0
 13 12  1  0
 13 14  1  6
 15 16  1  1
 16  9  1  0
 17 18  2  0
 17 15  1  0
 20 19  1  0
 21 20  2  0
 22 20  1  0
 24 23  1  1
 23 22  1  0
 24 25  1  0
 25 17  1  0
 26 27  1  0
 26 24  1  0
 28 26  2  0
M  END
$$$$
