HMG.pdb
     RDKit          3D

 23 23  0  0  1  0  0  0  0  0999 V2000
   10.8025  -15.2148   20.9146 N   0  0  0  0  0  0  0  0  0  0  0  0
    9.4402  -14.8778   21.1890 C   0  0  1  0  0  0  0  0  0  0  0  0
    8.5608  -15.7673   20.3398 C   0  0  0  0  0  0  0  0  0  0  0  0
    8.3288  -15.0385   19.0586 C   0  0  0  0  0  0  0  0  0  0  0  0
    8.7376  -13.7639   18.7283 C   0  0  0  0  0  0  0  0  0  0  0  0
    8.3376  -13.4544   17.4801 N   0  0  0  0  0  0  0  0  0  0  0  0
    7.6769  -14.5261   17.0164 C   0  0  0  0  0  0  0  0  0  0  0  0
    7.6626  -15.4891   17.9554 N   0  0  0  0  0  0  0  0  0  0  0  0
    9.1027  -14.9661   22.6321 C   0  0  0  0  0  0  0  0  0  0  0  0
    9.8039  -15.6706   23.4029 O   0  0  0  0  0  0  0  0  0  0  0  0
    6.8361  -11.6131   28.9964 C   0  0  0  0  0  0  0  0  0  0  0  0
    7.1224  -11.7091   27.2080 S   0  0  0  0  0  0  0  0  0  0  0  0
    6.4750  -13.2676   26.5299 C   0  0  0  0  0  0  0  0  0  0  0  0
    6.6616  -13.3114   25.0313 C   0  0  0  0  0  0  0  0  0  0  0  0
    7.7070  -14.3258   24.6274 C   0  0  2  0  0  0  0  0  0  0  0  0
    7.9975  -14.2797   23.2170 N   0  0  0  0  0  0  0  0  0  0  0  0
    7.2483  -15.7021   24.9416 C   0  0  0  0  0  0  0  0  0  0  0  0
    6.2151  -16.1259   24.3965 O   0  0  0  0  0  0  0  0  0  0  0  0
    7.9465  -16.5507   25.8413 N   0  0  0  0  0  0  0  0  0  0  0  0
    7.3986  -17.8517   26.1442 C   0  0  0  0  0  0  0  0  0  0  0  0
    8.2723  -18.4926   27.1553 C   0  0  0  0  0  0  0  0  0  0  0  0
    9.3141  -17.8783   27.5078 O   0  0  0  0  0  0  0  0  0  0  0  0
    8.0159  -19.7218   27.7355 O   0  0  0  0  0  0  0  0  0  0  0  0
  2  1  1  1
  2  3  1  0
  2  9  1  0
  4  5  2  0
  4  3  1  0
  6  5  1  0
  7  8  2  0
  7  6  1  0
  8  4  1  0
  9 16  1  0
 10  9  2  0
 12 11  1  0
 13 12  1  0
 14 13  1  0
 15 14  1  6
 15 17  1  0
 16 15  1  0
 17 19  1  0
 18 17  2  0
 19 20  1  0
 20 21  1  0
 21 22  2  0
 21 23  1  0
M  END
$$$$
