HMG.pdb
     RDKit          3D

 23 23  0  0  1  0  0  0  0  0999 V2000
   10.5843  -15.1685   20.6475 N   0  0  0  0  0  0  0  0  0  0  0  0
    9.2537  -14.7729   20.9904 C   0  0  1  0  0  0  0  0  0  0  0  0
    8.2960  -15.5706   20.1347 C   0  0  0  0  0  0  0  0  0  0  0  0
    8.1789  -14.8444   18.8365 C   0  0  0  0  0  0  0  0  0  0  0  0
    8.8653  -13.7177   18.4364 C   0  0  0  0  0  0  0  0  0  0  0  0
    8.4859  -13.3562   17.1958 N   0  0  0  0  0  0  0  0  0  0  0  0
    7.5619  -14.2478   16.8064 C   0  0  0  0  0  0  0  0  0  0  0  0
    7.3656  -15.1509   17.7836 N   0  0  0  0  0  0  0  0  0  0  0  0
    8.9643  -14.9144   22.4397 C   0  0  0  0  0  0  0  0  0  0  0  0
    9.6807  -15.6588   23.1572 O   0  0  0  0  0  0  0  0  0  0  0  0
    6.9938  -11.6460   28.9197 C   0  0  0  0  0  0  0  0  0  0  0  0
    7.2205  -11.7671   27.1244 S   0  0  0  0  0  0  0  0  0  0  0  0
    6.4996  -13.3082   26.4817 C   0  0  0  0  0  0  0  0  0  0  0  0
    6.5963  -13.3504   24.9745 C   0  0  0  0  0  0  0  0  0  0  0  0
    7.6603  -14.3181   24.5093 C   0  0  2  0  0  0  0  0  0  0  0  0
    7.8902  -14.2369   23.0893 N   0  0  0  0  0  0  0  0  0  0  0  0
    7.2653  -15.7157   24.8161 C   0  0  0  0  0  0  0  0  0  0  0  0
    6.1850  -16.1414   24.3737 O   0  0  0  0  0  0  0  0  0  0  0  0
    8.0764  -16.5825   25.5958 N   0  0  0  0  0  0  0  0  0  0  0  0
    7.5983  -17.9130   25.8888 C   0  0  0  0  0  0  0  0  0  0  0  0
    8.4461  -18.4777   26.9652 C   0  0  0  0  0  0  0  0  0  0  0  0
    9.4115  -17.7829   27.3804 O   0  0  0  0  0  0  0  0  0  0  0  0
    8.2442  -19.7187   27.5420 O   0  0  0  0  0  0  0  0  0  0  0  0
  2  1  1  1
  2  3  1  0
  2  9  1  0
  4  5  2  0
  4  3  1  0
  6  5  1  0
  7  8  2  0
  7  6  1  0
  8  4  1  0
  9 16  1  0
 10  9  2  0
 12 11  1  0
 13 12  1  0
 14 13  1  0
 15 14  1  6
 15 17  1  0
 16 15  1  0
 17 19  1  0
 18 17  2  0
 19 20  1  0
 20 21  1  0
 21 22  2  0
 21 23  1  0
M  END
$$$$
