HMG.pdb
     RDKit          3D

 23 23  0  0  1  0  0  0  0  0999 V2000
   10.2948  -15.9980   19.7785 N   0  0  0  0  0  0  0  0  0  0  0  0
    9.1300  -16.0750   20.6045 C   0  0  1  0  0  0  0  0  0  0  0  0
    8.6689  -17.5147   20.6254 C   0  0  0  0  0  0  0  0  0  0  0  0
    8.2652  -17.8529   19.2293 C   0  0  0  0  0  0  0  0  0  0  0  0
    8.4054  -17.0749   18.0998 C   0  0  0  0  0  0  0  0  0  0  0  0
    7.9209  -17.7233   17.0235 N   0  0  0  0  0  0  0  0  0  0  0  0
    7.4737  -18.9091   17.4642 C   0  0  0  0  0  0  0  0  0  0  0  0
    7.6738  -19.0026   18.7910 N   0  0  0  0  0  0  0  0  0  0  0  0
    9.3533  -15.5362   21.9698 C   0  0  0  0  0  0  0  0  0  0  0  0
   10.5142  -15.5003   22.4527 O   0  0  0  0  0  0  0  0  0  0  0  0
    6.9638  -11.0514   27.7187 C   0  0  0  0  0  0  0  0  0  0  0  0
    6.2710  -12.4625   26.8140 S   0  0  0  0  0  0  0  0  0  0  0  0
    7.5919  -13.5523   26.2014 C   0  0  0  0  0  0  0  0  0  0  0  0
    7.3481  -13.9198   24.7563 C   0  0  0  0  0  0  0  0  0  0  0  0
    8.4689  -14.7665   24.1979 C   0  0  2  0  0  0  0  0  0  0  0  0
    8.2995  -15.0410   22.7937 N   0  0  0  0  0  0  0  0  0  0  0  0
    8.5371  -16.0723   24.9006 C   0  0  0  0  0  0  0  0  0  0  0  0
    7.4758  -16.6487   25.1931 O   0  0  0  0  0  0  0  0  0  0  0  0
    9.7695  -16.6855   25.2502 N   0  0  0  0  0  0  0  0  0  0  0  0
   10.3174  -16.4553   26.5660 C   0  0  0  0  0  0  0  0  0  0  0  0
    9.8212  -17.5259   27.4626 C   0  0  0  0  0  0  0  0  0  0  0  0
    8.7140  -17.3473   28.0366 O   0  0  0  0  0  0  0  0  0  0  0  0
   10.4967  -18.7076   27.7085 O   0  0  0  0  0  0  0  0  0  0  0  0
  2  1  1  6
  2  3  1  0
  2  9  1  0
  4  5  2  0
  4  3  1  0
  6  5  1  0
  7  8  2  0
  7  6  1  0
  8  4  1  0
  9 16  1  0
 10  9  2  0
 12 11  1  0
 13 12  1  0
 14 13  1  0
 15 14  1  1
 15 17  1  0
 16 15  1  0
 17 19  1  0
 18 17  2  0
 19 20  1  0
 20 21  1  0
 21 22  2  0
 21 23  1  0
M  END
$$$$
