HMG.pdb
     RDKit          3D

 23 23  0  0  1  0  0  0  0  0999 V2000
    7.8126  -15.7573   20.4419 N   0  0  0  0  0  0  0  0  0  0  0  0
    9.1178  -15.5466   20.9867 C   0  0  1  0  0  0  0  0  0  0  0  0
    9.7814  -14.4448   20.1921 C   0  0  0  0  0  0  0  0  0  0  0  0
    8.9097  -14.1893   19.0083 C   0  0  0  0  0  0  0  0  0  0  0  0
    8.0076  -13.1617   18.8323 C   0  0  0  0  0  0  0  0  0  0  0  0
    7.4074  -13.2683   17.6314 N   0  0  0  0  0  0  0  0  0  0  0  0
    7.9240  -14.3585   17.0442 C   0  0  0  0  0  0  0  0  0  0  0  0
    8.8304  -14.9248   17.8608 N   0  0  0  0  0  0  0  0  0  0  0  0
    9.0960  -15.2553   22.4424 C   0  0  0  0  0  0  0  0  0  0  0  0
   10.1707  -15.0406   23.0598 O   0  0  0  0  0  0  0  0  0  0  0  0
    7.4908  -11.7738   28.5273 C   0  0  0  0  0  0  0  0  0  0  0  0
    7.3699  -12.1641   26.7602 S   0  0  0  0  0  0  0  0  0  0  0  0
    6.6565  -13.8179   26.5082 C   0  0  0  0  0  0  0  0  0  0  0  0
    6.6320  -14.1661   25.0382 C   0  0  0  0  0  0  0  0  0  0  0  0
    7.8786  -14.9114   24.6193 C   0  0  2  0  0  0  0  0  0  0  0  0
    7.8938  -15.2020   23.2082 N   0  0  0  0  0  0  0  0  0  0  0  0
    7.9811  -16.2049   25.3403 C   0  0  0  0  0  0  0  0  0  0  0  0
    7.0337  -17.0055   25.2672 O   0  0  0  0  0  0  0  0  0  0  0  0
    9.1211  -16.5597   26.1094 N   0  0  0  0  0  0  0  0  0  0  0  0
    9.1701  -17.8635   26.7277 C   0  0  0  0  0  0  0  0  0  0  0  0
    9.9033  -17.7356   28.0092 C   0  0  0  0  0  0  0  0  0  0  0  0
   10.3536  -16.6007   28.3195 O   0  0  0  0  0  0  0  0  0  0  0  0
   10.1241  -18.7832   28.8851 O   0  0  0  0  0  0  0  0  0  0  0  0
  2  1  1  6
  2  3  1  0
  2  9  1  0
  4  5  2  0
  4  3  1  0
  6  5  1  0
  7  8  2  0
  7  6  1  0
  8  4  1  0
  9 16  1  0
 10  9  2  0
 12 11  1  0
 13 12  1  0
 14 13  1  0
 15 14  1  1
 15 17  1  0
 16 15  1  0
 17 19  1  0
 18 17  2  0
 19 20  1  0
 20 21  1  0
 21 22  2  0
 21 23  1  0
M  END
$$$$
