HMG.pdb
     RDKit          3D

 23 23  0  0  1  0  0  0  0  0999 V2000
   10.5844  -15.5166   21.7784 N   0  0  0  0  0  0  0  0  0  0  0  0
    9.2709  -15.0195   22.0473 C   0  0  1  0  0  0  0  0  0  0  0  0
    8.3217  -15.6526   21.0553 C   0  0  0  0  0  0  0  0  0  0  0  0
    8.1706  -14.6825   19.9317 C   0  0  0  0  0  0  0  0  0  0  0  0
    8.7771  -13.4521   19.7936 C   0  0  0  0  0  0  0  0  0  0  0  0
    8.3908  -12.8680   18.6432 N   0  0  0  0  0  0  0  0  0  0  0  0
    7.5421  -13.7216   18.0504 C   0  0  0  0  0  0  0  0  0  0  0  0
    7.3988  -14.8195   18.8140 N   0  0  0  0  0  0  0  0  0  0  0  0
    8.8458  -15.2411   23.4524 C   0  0  0  0  0  0  0  0  0  0  0  0
    9.6098  -15.8326   24.2577 O   0  0  0  0  0  0  0  0  0  0  0  0
    7.5721  -10.7320   27.6642 C   0  0  0  0  0  0  0  0  0  0  0  0
    7.3027  -12.5000   27.3625 S   0  0  0  0  0  0  0  0  0  0  0  0
    6.3046  -12.7580   25.8642 C   0  0  0  0  0  0  0  0  0  0  0  0
    5.9608  -14.2202   25.7018 C   0  0  0  0  0  0  0  0  0  0  0  0
    7.1723  -15.0408   25.3229 C   0  0  2  0  0  0  0  0  0  0  0  0
    7.5847  -14.8111   23.9617 N   0  0  0  0  0  0  0  0  0  0  0  0
    6.8854  -16.4907   25.4613 C   0  0  0  0  0  0  0  0  0  0  0  0
    5.9121  -16.9671   24.8532 O   0  0  0  0  0  0  0  0  0  0  0  0
    7.6817  -17.3515   26.2625 N   0  0  0  0  0  0  0  0  0  0  0  0
    7.2646  -18.7215   26.4457 C   0  0  0  0  0  0  0  0  0  0  0  0
    8.2601  -19.3910   27.3158 C   0  0  0  0  0  0  0  0  0  0  0  0
    9.2689  -18.7276   27.6754 O   0  0  0  0  0  0  0  0  0  0  0  0
    8.1511  -20.6973   27.7575 O   0  0  0  0  0  0  0  0  0  0  0  0
  2  1  1  1
  2  3  1  0
  2  9  1  0
  4  5  2  0
  4  3  1  0
  6  5  1  0
  7  8  2  0
  7  6  1  0
  8  4  1  0
  9 16  1  0
 10  9  2  0
 12 11  1  0
 13 12  1  0
 14 13  1  0
 15 14  1  6
 15 17  1  0
 16 15  1  0
 17 19  1  0
 18 17  2  0
 19 20  1  0
 20 21  1  0
 21 22  2  0
 21 23  1  0
M  END
$$$$
