HMG.pdb
     RDKit          3D

 23 23  0  0  1  0  0  0  0  0999 V2000
    2.1069  -83.2947   24.7712 N   0  0  0  0  0  0  0  0  0  0  0  0
    2.9088  -83.1349   23.5980 C   0  0  1  0  0  0  0  0  0  0  0  0
    4.2472  -83.7889   23.8566 C   0  0  0  0  0  0  0  0  0  0  0  0
    5.2025  -83.2092   22.8678 C   0  0  0  0  0  0  0  0  0  0  0  0
    6.3674  -82.5186   23.1266 C   0  0  0  0  0  0  0  0  0  0  0  0
    6.9588  -82.1525   21.9734 N   0  0  0  0  0  0  0  0  0  0  0  0
    6.1751  -82.6073   20.9838 C   0  0  0  0  0  0  0  0  0  0  0  0
    5.1129  -83.2460   21.5060 N   0  0  0  0  0  0  0  0  0  0  0  0
    2.2532  -83.6605   22.3741 C   0  0  0  0  0  0  0  0  0  0  0  0
    1.0514  -83.3800   22.1312 O   0  0  0  0  0  0  0  0  0  0  0  0
    1.6838  -84.0053   14.8844 C   0  0  0  0  0  0  0  0  0  0  0  0
    1.8306  -84.9477   16.4271 S   0  0  0  0  0  0  0  0  0  0  0  0
    1.9600  -83.8332   17.8585 C   0  0  0  0  0  0  0  0  0  0  0  0
    2.0430  -84.6263   19.1418 C   0  0  0  0  0  0  0  0  0  0  0  0
    3.1275  -84.1014   20.0545 C   0  0  2  0  0  0  0  0  0  0  0  0
    2.9232  -84.4902   21.4267 N   0  0  0  0  0  0  0  0  0  0  0  0
    3.1710  -82.6181   20.0149 C   0  0  0  0  0  0  0  0  0  0  0  0
    2.9996  -81.9876   21.0719 O   0  0  0  0  0  0  0  0  0  0  0  0
    3.4010  -81.8948   18.8145 N   0  0  0  0  0  0  0  0  0  0  0  0
    4.7598  -81.6066   18.4205 C   0  0  0  0  0  0  0  0  0  0  0  0
    4.8271  -80.1826   18.0155 C   0  0  0  0  0  0  0  0  0  0  0  0
    5.9635  -79.6868   17.7923 O   0  0  0  0  0  0  0  0  0  0  0  0
    3.7216  -79.3645   17.8675 O   0  0  0  0  0  0  0  0  0  0  0  0
  2  1  1  1
  2  3  1  0
  2  9  1  0
  4  5  2  0
  4  3  1  0
  6  5  1  0
  7  8  2  0
  7  6  1  0
  8  4  1  0
  9 16  1  0
 10  9  2  0
 12 11  1  0
 13 12  1  0
 14 13  1  0
 15 14  1  6
 15 17  1  0
 16 15  1  0
 17 19  1  0
 18 17  2  0
 19 20  1  0
 20 21  1  0
 21 22  2  0
 21 23  1  0
M  END
$$$$
