HMG.pdb
     RDKit          3D

 23 23  0  0  1  0  0  0  0  0999 V2000
   10.2689  -14.4576   20.5686 N   0  0  0  0  0  0  0  0  0  0  0  0
    8.9880  -14.3998   21.2016 C   0  0  1  0  0  0  0  0  0  0  0  0
    8.0546  -15.3199   20.4479 C   0  0  0  0  0  0  0  0  0  0  0  0
    7.9942  -14.8105   19.0467 C   0  0  0  0  0  0  0  0  0  0  0  0
    8.0230  -13.4981   18.6254 C   0  0  0  0  0  0  0  0  0  0  0  0
    7.9467  -13.4376   17.2822 N   0  0  0  0  0  0  0  0  0  0  0  0
    7.8696  -14.7050   16.8488 C   0  0  0  0  0  0  0  0  0  0  0  0
    7.8969  -15.5442   17.8996 N   0  0  0  0  0  0  0  0  0  0  0  0
    9.0446  -14.7199   22.6503 C   0  0  0  0  0  0  0  0  0  0  0  0
   10.0676  -15.2665   23.1370 O   0  0  0  0  0  0  0  0  0  0  0  0
    6.2339  -10.1486   27.3184 C   0  0  0  0  0  0  0  0  0  0  0  0
    5.9404  -11.9231   27.0850 S   0  0  0  0  0  0  0  0  0  0  0  0
    7.0467  -12.6018   25.8110 C   0  0  0  0  0  0  0  0  0  0  0  0
    6.9088  -14.1044   25.7351 C   0  0  0  0  0  0  0  0  0  0  0  0
    8.0455  -14.7320   24.9613 C   0  0  2  0  0  0  0  0  0  0  0  0
    7.9769  -14.4370   23.5528 N   0  0  0  0  0  0  0  0  0  0  0  0
    8.0241  -16.2091   25.1073 C   0  0  0  0  0  0  0  0  0  0  0  0
    7.2436  -16.8675   24.3991 O   0  0  0  0  0  0  0  0  0  0  0  0
    8.8620  -16.8958   26.0256 N   0  0  0  0  0  0  0  0  0  0  0  0
    8.6980  -18.3206   26.1922 C   0  0  0  0  0  0  0  0  0  0  0  0
    9.8723  -18.9909   25.5856 C   0  0  0  0  0  0  0  0  0  0  0  0
   10.0251  -18.8970   24.3386 O   0  0  0  0  0  0  0  0  0  0  0  0
   10.8100  -19.7126   26.3019 O   0  0  0  0  0  0  0  0  0  0  0  0
  2  1  1  6
  2  3  1  0
  2  9  1  0
  4  5  2  0
  4  3  1  0
  6  5  1  0
  7  8  2  0
  7  6  1  0
  8  4  1  0
  9 16  1  0
 10  9  2  0
 12 11  1  0
 13 12  1  0
 14 13  1  0
 15 14  1  1
 15 17  1  0
 16 15  1  0
 17 19  1  0
 18 17  2  0
 19 20  1  0
 20 21  1  0
 21 22  2  0
 21 23  1  0
M  END
$$$$
