HMG.pdb
     RDKit          3D

 23 23  0  0  1  0  0  0  0  0999 V2000
    9.5917  -12.9390   19.7022 N   0  0  0  0  0  0  0  0  0  0  0  0
    8.6096  -13.8080   20.2725 C   0  0  1  0  0  0  0  0  0  0  0  0
    8.6596  -15.1209   19.5245 C   0  0  0  0  0  0  0  0  0  0  0  0
    8.2433  -14.8279   18.1218 C   0  0  0  0  0  0  0  0  0  0  0  0
    7.9693  -13.5973   17.5639 C   0  0  0  0  0  0  0  0  0  0  0  0
    7.6241  -13.7383   16.2698 N   0  0  0  0  0  0  0  0  0  0  0  0
    7.6776  -15.0522   16.0035 C   0  0  0  0  0  0  0  0  0  0  0  0
    8.0490  -15.7224   17.1089 N   0  0  0  0  0  0  0  0  0  0  0  0
    8.7781  -13.9882   21.7365 C   0  0  0  0  0  0  0  0  0  0  0  0
    9.9298  -14.0873   22.2325 O   0  0  0  0  0  0  0  0  0  0  0  0
    7.6512  -11.6782   28.3730 C   0  0  0  0  0  0  0  0  0  0  0  0
    7.4028  -11.9735   26.6009 S   0  0  0  0  0  0  0  0  0  0  0  0
    6.8383  -13.6759   26.2995 C   0  0  0  0  0  0  0  0  0  0  0  0
    6.5758  -13.8945   24.8278 C   0  0  0  0  0  0  0  0  0  0  0  0
    7.8509  -14.1836   24.0692 C   0  0  2  0  0  0  0  0  0  0  0  0
    7.6799  -14.0581   22.6441 N   0  0  0  0  0  0  0  0  0  0  0  0
    8.3180  -15.5662   24.3405 C   0  0  0  0  0  0  0  0  0  0  0  0
    7.4747  -16.4745   24.4292 O   0  0  0  0  0  0  0  0  0  0  0  0
    9.6919  -15.8879   24.5020 N   0  0  0  0  0  0  0  0  0  0  0  0
   10.2308  -16.0062   25.8363 C   0  0  0  0  0  0  0  0  0  0  0  0
   10.1105  -17.4227   26.2550 C   0  0  0  0  0  0  0  0  0  0  0  0
    8.9804  -17.8311   26.6333 O   0  0  0  0  0  0  0  0  0  0  0  0
   11.1601  -18.3236   26.2566 O   0  0  0  0  0  0  0  0  0  0  0  0
  2  1  1  6
  2  3  1  0
  2  9  1  0
  4  5  2  0
  4  3  1  0
  6  5  1  0
  7  8  2  0
  7  6  1  0
  8  4  1  0
  9 16  1  0
 10  9  2  0
 12 11  1  0
 13 12  1  0
 14 13  1  0
 15 14  1  1
 15 17  1  0
 16 15  1  0
 17 19  1  0
 18 17  2  0
 19 20  1  0
 20 21  1  0
 21 22  2  0
 21 23  1  0
M  END
$$$$
