HMG.pdb
     RDKit          3D

 23 23  0  0  1  0  0  0  0  0999 V2000
   10.2914  -14.5945   21.1089 N   0  0  0  0  0  0  0  0  0  0  0  0
    8.9399  -14.5786   21.5755 C   0  0  1  0  0  0  0  0  0  0  0  0
    8.1188  -15.4505   20.6528 C   0  0  0  0  0  0  0  0  0  0  0  0
    8.0756  -14.7529   19.3344 C   0  0  0  0  0  0  0  0  0  0  0  0
    8.7097  -13.5811   18.9801 C   0  0  0  0  0  0  0  0  0  0  0  0
    8.4286  -13.2668   17.7010 N   0  0  0  0  0  0  0  0  0  0  0  0
    7.6191  -14.2333   17.2417 C   0  0  0  0  0  0  0  0  0  0  0  0
    7.3967  -15.1361   18.2137 N   0  0  0  0  0  0  0  0  0  0  0  0
    8.8145  -14.9896   22.9967 C   0  0  0  0  0  0  0  0  0  0  0  0
    9.7175  -15.6786   23.5371 O   0  0  0  0  0  0  0  0  0  0  0  0
    6.4448  -10.1223   27.4053 C   0  0  0  0  0  0  0  0  0  0  0  0
    5.8205  -11.7864   27.0436 S   0  0  0  0  0  0  0  0  0  0  0  0
    7.0557  -12.7581   26.1283 C   0  0  0  0  0  0  0  0  0  0  0  0
    6.5827  -14.1817   25.9482 C   0  0  0  0  0  0  0  0  0  0  0  0
    7.5959  -15.0172   25.1998 C   0  0  2  0  0  0  0  0  0  0  0  0
    7.6980  -14.6404   23.8129 N   0  0  0  0  0  0  0  0  0  0  0  0
    7.2232  -16.4534   25.2435 C   0  0  0  0  0  0  0  0  0  0  0  0
    6.1433  -16.8053   24.7394 O   0  0  0  0  0  0  0  0  0  0  0  0
    8.0550  -17.4381   25.8397 N   0  0  0  0  0  0  0  0  0  0  0  0
    7.5801  -18.7991   25.9216 C   0  0  0  0  0  0  0  0  0  0  0  0
    8.1766  -19.4207   27.1274 C   0  0  0  0  0  0  0  0  0  0  0  0
    8.9923  -18.7363   27.8006 O   0  0  0  0  0  0  0  0  0  0  0  0
    7.8942  -20.7040   27.5596 O   0  0  0  0  0  0  0  0  0  0  0  0
  2  1  1  6
  2  3  1  0
  2  9  1  0
  4  5  2  0
  4  3  1  0
  6  5  1  0
  7  8  2  0
  7  6  1  0
  8  4  1  0
  9 16  1  0
 10  9  2  0
 12 11  1  0
 13 12  1  0
 14 13  1  0
 15 14  1  6
 15 17  1  0
 16 15  1  0
 17 19  1  0
 18 17  2  0
 19 20  1  0
 20 21  1  0
 21 22  2  0
 21 23  1  0
M  END
$$$$
