HMG.pdb
     RDKit          3D

 23 23  0  0  1  0  0  0  0  0999 V2000
    7.9014  -14.6330   19.9522 N   0  0  0  0  0  0  0  0  0  0  0  0
    7.9261  -15.5550   21.0449 C   0  0  1  0  0  0  0  0  0  0  0  0
    8.7402  -16.7565   20.6215 C   0  0  0  0  0  0  0  0  0  0  0  0
    7.9165  -17.4986   19.6228 C   0  0  0  0  0  0  0  0  0  0  0  0
    6.6827  -17.1452   19.1191 C   0  0  0  0  0  0  0  0  0  0  0  0
    6.2565  -18.0699   18.2376 N   0  0  0  0  0  0  0  0  0  0  0  0
    7.2135  -19.0085   18.1793 C   0  0  0  0  0  0  0  0  0  0  0  0
    8.2204  -18.6790   19.0080 N   0  0  0  0  0  0  0  0  0  0  0  0
    8.4317  -14.9478   22.3018 C   0  0  0  0  0  0  0  0  0  0  0  0
    9.3105  -14.0488   22.2602 O   0  0  0  0  0  0  0  0  0  0  0  0
    6.0024  -10.4334   26.6044 C   0  0  0  0  0  0  0  0  0  0  0  0
    6.9342  -11.9707   26.8452 S   0  0  0  0  0  0  0  0  0  0  0  0
    6.5540  -13.1722   25.5339 C   0  0  0  0  0  0  0  0  0  0  0  0
    7.2740  -14.4765   25.7851 C   0  0  0  0  0  0  0  0  0  0  0  0
    8.4061  -14.6879   24.8060 C   0  0  2  0  0  0  0  0  0  0  0  0
    7.9680  -15.3331   23.5946 N   0  0  0  0  0  0  0  0  0  0  0  0
    9.4632  -15.5401   25.4058 C   0  0  0  0  0  0  0  0  0  0  0  0
   10.0831  -15.1145   26.3950 O   0  0  0  0  0  0  0  0  0  0  0  0
    9.7910  -16.8224   24.8906 N   0  0  0  0  0  0  0  0  0  0  0  0
   10.9405  -17.5167   25.4209 C   0  0  0  0  0  0  0  0  0  0  0  0
   10.5590  -18.1030   26.7275 C   0  0  0  0  0  0  0  0  0  0  0  0
    9.3694  -17.9547   27.1148 O   0  0  0  0  0  0  0  0  0  0  0  0
   11.4262  -18.8021   27.5475 O   0  0  0  0  0  0  0  0  0  0  0  0
  2  1  1  6
  2  3  1  0
  2  9  1  0
  4  5  2  0
  4  3  1  0
  6  5  1  0
  7  8  2  0
  7  6  1  0
  8  4  1  0
  9 16  1  0
 10  9  2  0
 12 11  1  0
 13 12  1  0
 14 13  1  0
 15 14  1  1
 15 17  1  0
 16 15  1  0
 17 19  1  0
 18 17  2  0
 19 20  1  0
 20 21  1  0
 21 22  2  0
 21 23  1  0
M  END
$$$$
