HMG.pdb
     RDKit          3D

 23 23  0  0  1  0  0  0  0  0999 V2000
    9.9189  -15.4106   21.3513 N   0  0  0  0  0  0  0  0  0  0  0  0
    8.7871  -14.7312   21.9011 C   0  0  1  0  0  0  0  0  0  0  0  0
    7.5837  -15.0679   21.0500 C   0  0  0  0  0  0  0  0  0  0  0  0
    7.8143  -14.4365   19.7179 C   0  0  0  0  0  0  0  0  0  0  0  0
    8.1674  -13.1301   19.4545 C   0  0  0  0  0  0  0  0  0  0  0  0
    8.2826  -12.9366   18.1267 N   0  0  0  0  0  0  0  0  0  0  0  0
    8.0043  -14.1136   17.5459 C   0  0  0  0  0  0  0  0  0  0  0  0
    7.7200  -15.0276   18.4909 N   0  0  0  0  0  0  0  0  0  0  0  0
    8.5664  -15.0438   23.3357 C   0  0  0  0  0  0  0  0  0  0  0  0
    9.4732  -15.5985   24.0081 O   0  0  0  0  0  0  0  0  0  0  0  0
    7.6526  -10.4553   27.0913 C   0  0  0  0  0  0  0  0  0  0  0  0
    7.5318  -12.2626   26.9993 S   0  0  0  0  0  0  0  0  0  0  0  0
    6.1401  -12.7670   25.9427 C   0  0  0  0  0  0  0  0  0  0  0  0
    5.9606  -14.2667   25.9827 C   0  0  0  0  0  0  0  0  0  0  0  0
    7.1669  -14.9892   25.4279 C   0  0  2  0  0  0  0  0  0  0  0  0
    7.3513  -14.7444   24.0201 N   0  0  0  0  0  0  0  0  0  0  0  0
    7.0264  -16.4558   25.6091 C   0  0  0  0  0  0  0  0  0  0  0  0
    6.0463  -17.0284   25.1033 O   0  0  0  0  0  0  0  0  0  0  0  0
    7.9701  -17.2268   26.3384 N   0  0  0  0  0  0  0  0  0  0  0  0
    7.6812  -18.6157   26.6067 C   0  0  0  0  0  0  0  0  0  0  0  0
    8.8080  -19.1750   27.3901 C   0  0  0  0  0  0  0  0  0  0  0  0
    9.7900  -18.4229   27.6289 O   0  0  0  0  0  0  0  0  0  0  0  0
    8.8492  -20.4699   27.8750 O   0  0  0  0  0  0  0  0  0  0  0  0
  2  1  1  6
  2  3  1  0
  2  9  1  0
  4  5  2  0
  4  3  1  0
  6  5  1  0
  7  8  2  0
  7  6  1  0
  8  4  1  0
  9 16  1  0
 10  9  2  0
 12 11  1  0
 13 12  1  0
 14 13  1  0
 15 14  1  6
 15 17  1  0
 16 15  1  0
 17 19  1  0
 18 17  2  0
 19 20  1  0
 20 21  1  0
 21 22  2  0
 21 23  1  0
M  END
$$$$
