HMG.pdb
     RDKit          3D

 23 23  0  0  1  0  0  0  0  0999 V2000
    7.8437  -16.1878   20.6479 N   0  0  0  0  0  0  0  0  0  0  0  0
    9.1997  -15.9891   21.0558 C   0  0  1  0  0  0  0  0  0  0  0  0
    9.8669  -15.0966   20.0340 C   0  0  0  0  0  0  0  0  0  0  0  0
    8.7726  -14.3837   19.3122 C   0  0  0  0  0  0  0  0  0  0  0  0
    7.4184  -14.4442   19.5637 C   0  0  0  0  0  0  0  0  0  0  0  0
    6.7477  -13.6602   18.6981 N   0  0  0  0  0  0  0  0  0  0  0  0
    7.6694  -13.1025   17.8984 C   0  0  0  0  0  0  0  0  0  0  0  0
    8.8943  -13.5283   18.2553 N   0  0  0  0  0  0  0  0  0  0  0  0
    9.3152  -15.4499   22.4343 C   0  0  0  0  0  0  0  0  0  0  0  0
   10.4000  -14.9495   22.8280 O   0  0  0  0  0  0  0  0  0  0  0  0
    6.5106  -11.3214   27.0129 C   0  0  0  0  0  0  0  0  0  0  0  0
    7.8893  -12.4860   26.8333 S   0  0  0  0  0  0  0  0  0  0  0  0
    7.2897  -14.2029   26.8103 C   0  0  0  0  0  0  0  0  0  0  0  0
    7.0924  -14.6763   25.3891 C   0  0  0  0  0  0  0  0  0  0  0  0
    8.3984  -15.0921   24.7518 C   0  0  2  0  0  0  0  0  0  0  0  0
    8.2381  -15.4646   23.3692 N   0  0  0  0  0  0  0  0  0  0  0  0
    8.9779  -16.2597   25.4620 C   0  0  0  0  0  0  0  0  0  0  0  0
    8.4338  -17.3690   25.3297 O   0  0  0  0  0  0  0  0  0  0  0  0
   10.1299  -16.1548   26.2860 N   0  0  0  0  0  0  0  0  0  0  0  0
   10.7946  -17.3620   26.7166 C   0  0  0  0  0  0  0  0  0  0  0  0
   10.3207  -17.6832   28.0835 C   0  0  0  0  0  0  0  0  0  0  0  0
    9.1337  -18.0839   28.2164 O   0  0  0  0  0  0  0  0  0  0  0  0
   11.0990  -17.5708   29.2215 O   0  0  0  0  0  0  0  0  0  0  0  0
  2  1  1  6
  2  3  1  0
  2  9  1  0
  4  5  2  0
  4  3  1  0
  6  5  1  0
  7  8  2  0
  7  6  1  0
  8  4  1  0
  9 16  1  0
 10  9  2  0
 12 11  1  0
 13 12  1  0
 14 13  1  0
 15 14  1  1
 15 17  1  0
 16 15  1  0
 17 19  1  0
 18 17  2  0
 19 20  1  0
 20 21  1  0
 21 22  2  0
 21 23  1  0
M  END
$$$$
