ALP.pdb
     RDKit          3D

 21 21  0  0  1  0  0  0  0  0999 V2000
    6.7727  -20.4024   25.1506 C   0  0  0  0  0  0  0  0  0  0  0  0
    5.5378  -19.5340   24.9951 C   0  0  2  0  0  0  0  0  0  0  0  0
    4.5872  -20.0665   24.0698 N   0  0  0  0  0  0  0  0  0  0  0  0
    5.9866  -18.1696   24.5906 C   0  0  0  0  0  0  0  0  0  0  0  0
    6.0748  -17.8992   23.3873 O   0  0  0  0  0  0  0  0  0  0  0  0
    6.4284  -12.6844   25.7587 C   0  0  0  0  0  0  0  0  0  0  0  0
    7.5257  -13.6669   26.1393 C   0  0  1  0  0  0  0  0  0  0  0  0
    8.2486  -13.0692   27.3002 C   0  0  0  0  0  0  0  0  0  0  0  0
    6.8946  -14.9715   26.3696 C   0  0  0  0  0  0  0  0  0  0  0  0
    6.9024  -15.9291   25.2046 C   0  0  2  0  0  0  0  0  0  0  0  0
    6.3061  -17.2010   25.5626 N   0  0  0  0  0  0  0  0  0  0  0  0
    8.3256  -16.1030   24.8081 C   0  0  0  0  0  0  0  0  0  0  0  0
    9.0568  -16.8625   25.5116 O   0  0  0  0  0  0  0  0  0  0  0  0
    8.9144  -15.4688   23.6856 N   0  0  0  0  0  0  0  0  0  0  0  0
    8.5612  -14.2393   22.9974 C   0  0  0  0  0  0  0  0  0  0  0  0
    8.8921  -14.4819   21.5168 C   0  0  0  0  0  0  0  0  0  0  0  0
    9.8859  -15.5941   21.5156 C   0  0  0  0  0  0  0  0  0  0  0  0
   10.0813  -15.9550   22.9460 C   0  0  1  0  0  0  0  0  0  0  0  0
   11.2888  -15.3070   23.5191 C   0  0  0  0  0  0  0  0  0  0  0  0
   11.1874  -14.3753   24.3584 O   0  0  0  0  0  0  0  0  0  0  0  0
   12.5672  -15.7016   23.1532 O   0  0  0  0  0  0  0  0  0  0  0  0
  2  1  1  6
  3  2  1  0
  4  5  2  0
  4  2  1  0
  7  6  1  1
  7  8  1  0
  7  9  1  0
 10  9  1  1
 10 11  1  0
 10 12  1  0
 11  4  1  0
 12 14  1  0
 13 12  2  0
 14 15  1  0
 14 18  1  0
 15 16  1  0
 16 17  1  0
 18 17  1  0
 18 19  1  1
 19 21  1  0
 20 19  2  0
M  END
$$$$
