ALP.pdb
     RDKit          3D

 21 21  0  0  1  0  0  0  0  0999 V2000
    6.9033  -20.2794   24.2934 C   0  0  0  0  0  0  0  0  0  0  0  0
    5.6125  -19.5278   24.5620 C   0  0  2  0  0  0  0  0  0  0  0  0
    4.4968  -20.0455   23.8337 N   0  0  0  0  0  0  0  0  0  0  0  0
    5.8480  -18.0882   24.2474 C   0  0  0  0  0  0  0  0  0  0  0  0
    5.5360  -17.6594   23.1305 O   0  0  0  0  0  0  0  0  0  0  0  0
    6.1869  -12.8618   25.9779 C   0  0  0  0  0  0  0  0  0  0  0  0
    7.4772  -13.6646   25.9080 C   0  0  1  0  0  0  0  0  0  0  0  0
    8.4104  -13.0585   26.9025 C   0  0  0  0  0  0  0  0  0  0  0  0
    7.1347  -15.0763   26.1158 C   0  0  0  0  0  0  0  0  0  0  0  0
    6.8109  -15.8717   24.8761 C   0  0  2  0  0  0  0  0  0  0  0  0
    6.4173  -17.2273   25.2064 N   0  0  0  0  0  0  0  0  0  0  0  0
    8.0382  -15.8652   24.0355 C   0  0  0  0  0  0  0  0  0  0  0  0
    8.8784  -16.8013   24.1917 O   0  0  0  0  0  0  0  0  0  0  0  0
    8.3244  -14.8719   23.0658 N   0  0  0  0  0  0  0  0  0  0  0  0
    7.9109  -13.4819   22.9813 C   0  0  0  0  0  0  0  0  0  0  0  0
    7.7529  -13.1857   21.4821 C   0  0  0  0  0  0  0  0  0  0  0  0
    8.5780  -14.2180   20.7906 C   0  0  0  0  0  0  0  0  0  0  0  0
    9.1564  -15.0572   21.8749 C   0  0  1  0  0  0  0  0  0  0  0  0
   10.5414  -14.6419   22.2154 C   0  0  0  0  0  0  0  0  0  0  0  0
   10.7970  -14.0726   23.3077 O   0  0  0  0  0  0  0  0  0  0  0  0
   11.6001  -14.8644   21.3473 O   0  0  0  0  0  0  0  0  0  0  0  0
  2  1  1  6
  3  2  1  0
  4  5  2  0
  4  2  1  0
  7  6  1  1
  7  8  1  0
  7  9  1  0
 10  9  1  1
 10 11  1  0
 10 12  1  0
 11  4  1  0
 12 14  1  0
 13 12  2  0
 14 15  1  0
 14 18  1  0
 15 16  1  0
 16 17  1  0
 18 17  1  0
 18 19  1  1
 19 21  1  0
 20 19  2  0
M  END
$$$$
