ALP.pdb
     RDKit          3D

 21 21  0  0  1  0  0  0  0  0999 V2000
    9.3570  -17.7708   21.5091 C   0  0  0  0  0  0  0  0  0  0  0  0
    9.3666  -16.2802   21.2243 C   0  0  2  0  0  0  0  0  0  0  0  0
   10.3979  -15.8866   20.3162 N   0  0  0  0  0  0  0  0  0  0  0  0
    9.4881  -15.5665   22.5292 C   0  0  0  0  0  0  0  0  0  0  0  0
   10.6138  -15.2920   22.9604 O   0  0  0  0  0  0  0  0  0  0  0  0
    7.5433  -11.8091   26.0738 C   0  0  0  0  0  0  0  0  0  0  0  0
    7.0404  -13.2380   26.2151 C   0  0  1  0  0  0  0  0  0  0  0  0
    5.6860  -13.1533   26.8363 C   0  0  0  0  0  0  0  0  0  0  0  0
    7.1090  -13.8667   24.8910 C   0  0  0  0  0  0  0  0  0  0  0  0
    8.4285  -14.4961   24.5210 C   0  0  2  0  0  0  0  0  0  0  0  0
    8.3390  -15.2090   23.2619 N   0  0  0  0  0  0  0  0  0  0  0  0
    8.7831  -15.4213   25.6307 C   0  0  0  0  0  0  0  0  0  0  0  0
    8.5014  -16.6503   25.5015 O   0  0  0  0  0  0  0  0  0  0  0  0
    9.4207  -15.0090   26.8275 N   0  0  0  0  0  0  0  0  0  0  0  0
    9.2789  -13.7914   27.6069 C   0  0  0  0  0  0  0  0  0  0  0  0
   10.6716  -13.5063   28.1895 C   0  0  0  0  0  0  0  0  0  0  0  0
   11.3821  -14.8174   28.1634 C   0  0  0  0  0  0  0  0  0  0  0  0
   10.4148  -15.7828   27.5745 C   0  0  1  0  0  0  0  0  0  0  0  0
    9.6997  -16.5563   28.6219 C   0  0  0  0  0  0  0  0  0  0  0  0
    8.4878  -16.3350   28.8767 O   0  0  0  0  0  0  0  0  0  0  0  0
   10.3368  -17.5466   29.3549 O   0  0  0  0  0  0  0  0  0  0  0  0
  2  1  1  1
  3  2  1  0
  4  5  2  0
  4  2  1  0
  7  6  1  6
  7  8  1  0
  7  9  1  0
 10  9  1  1
 10 11  1  0
 10 12  1  0
 11  4  1  0
 12 14  1  0
 13 12  2  0
 14 15  1  0
 14 18  1  0
 15 16  1  0
 16 17  1  0
 18 17  1  0
 18 19  1  1
 19 21  1  0
 20 19  2  0
M  END
$$$$
