ALP.pdb
     RDKit          3D

 21 21  0  0  1  0  0  0  0  0999 V2000
    8.0291  -19.4412   24.7083 C   0  0  0  0  0  0  0  0  0  0  0  0
    6.7503  -18.8382   25.2598 C   0  0  2  0  0  0  0  0  0  0  0  0
    5.5973  -19.6494   25.0240 N   0  0  0  0  0  0  0  0  0  0  0  0
    6.5917  -17.4794   24.6637 C   0  0  0  0  0  0  0  0  0  0  0  0
    5.8182  -17.3288   23.7111 O   0  0  0  0  0  0  0  0  0  0  0  0
    8.1830  -12.5467   27.1506 C   0  0  0  0  0  0  0  0  0  0  0  0
    7.3229  -13.5759   26.4328 C   0  0  1  0  0  0  0  0  0  0  0  0
    6.0238  -12.9073   26.1282 C   0  0  0  0  0  0  0  0  0  0  0  0
    8.0861  -14.0673   25.2798 C   0  0  0  0  0  0  0  0  0  0  0  0
    7.4203  -15.1337   24.4470 C   0  0  2  0  0  0  0  0  0  0  0  0
    7.3112  -16.3819   25.1764 N   0  0  0  0  0  0  0  0  0  0  0  0
    8.2556  -15.3028   23.2277 C   0  0  0  0  0  0  0  0  0  0  0  0
    8.9704  -16.3448   23.1288 O   0  0  0  0  0  0  0  0  0  0  0  0
    8.2988  -14.3653   22.1656 N   0  0  0  0  0  0  0  0  0  0  0  0
    7.8212  -12.9956   22.0893 C   0  0  0  0  0  0  0  0  0  0  0  0
    7.3506  -12.7996   20.6400 C   0  0  0  0  0  0  0  0  0  0  0  0
    8.0592  -13.8502   19.8535 C   0  0  0  0  0  0  0  0  0  0  0  0
    8.8789  -14.6024   20.8418 C   0  0  1  0  0  0  0  0  0  0  0  0
   10.2862  -14.1278   20.8673 C   0  0  0  0  0  0  0  0  0  0  0  0
   11.0480  -14.3058   19.8821 O   0  0  0  0  0  0  0  0  0  0  0  0
   10.8118  -13.4739   21.9719 O   0  0  0  0  0  0  0  0  0  0  0  0
  2  1  1  6
  3  2  1  0
  4  5  2  0
  4  2  1  0
  7  6  1  6
  7  8  1  0
  7  9  1  0
 10  9  1  1
 10 11  1  0
 10 12  1  0
 11  4  1  0
 12 14  1  0
 13 12  2  0
 14 15  1  0
 14 18  1  0
 15 16  1  0
 16 17  1  0
 18 17  1  0
 18 19  1  1
 19 21  1  0
 20 19  2  0
M  END
$$$$
