ALP.pdb
     RDKit          3D

 21 21  0  0  1  0  0  0  0  0999 V2000
    7.9619  -19.5547   25.7598 C   0  0  0  0  0  0  0  0  0  0  0  0
    6.5741  -18.9980   26.0184 C   0  0  2  0  0  0  0  0  0  0  0  0
    5.5277  -19.9030   25.6587 N   0  0  0  0  0  0  0  0  0  0  0  0
    6.4550  -17.7065   25.2804 C   0  0  0  0  0  0  0  0  0  0  0  0
    5.8199  -17.6778   24.2200 O   0  0  0  0  0  0  0  0  0  0  0  0
    7.7361  -12.4736   27.4022 C   0  0  0  0  0  0  0  0  0  0  0  0
    6.9483  -13.5786   26.7146 C   0  0  1  0  0  0  0  0  0  0  0  0
    5.7164  -12.9427   26.1619 C   0  0  0  0  0  0  0  0  0  0  0  0
    7.8395  -14.2211   25.7419 C   0  0  0  0  0  0  0  0  0  0  0  0
    7.2495  -15.3620   24.9516 C   0  0  2  0  0  0  0  0  0  0  0  0
    7.0562  -16.5349   25.7815 N   0  0  0  0  0  0  0  0  0  0  0  0
    8.2004  -15.6467   23.8436 C   0  0  0  0  0  0  0  0  0  0  0  0
    8.9513  -16.6630   23.9424 O   0  0  0  0  0  0  0  0  0  0  0  0
    8.3161  -14.8471   22.6791 N   0  0  0  0  0  0  0  0  0  0  0  0
    7.8763  -13.4883   22.4139 C   0  0  0  0  0  0  0  0  0  0  0  0
    7.4788  -13.4622   20.9301 C   0  0  0  0  0  0  0  0  0  0  0  0
    8.1974  -14.6141   20.3126 C   0  0  0  0  0  0  0  0  0  0  0  0
    8.9513  -15.2550   21.4240 C   0  0  1  0  0  0  0  0  0  0  0  0
   10.3672  -14.8072   21.4612 C   0  0  0  0  0  0  0  0  0  0  0  0
   10.7727  -14.0140   22.3495 O   0  0  0  0  0  0  0  0  0  0  0  0
   11.2914  -15.2435   20.5235 O   0  0  0  0  0  0  0  0  0  0  0  0
  2  1  1  6
  3  2  1  0
  4  5  2  0
  4  2  1  0
  7  6  1  6
  7  8  1  0
  7  9  1  0
 10  9  1  1
 10 11  1  0
 10 12  1  0
 11  4  1  0
 12 14  1  0
 13 12  2  0
 14 15  1  0
 14 18  1  0
 15 16  1  0
 16 17  1  0
 18 17  1  0
 18 19  1  1
 19 21  1  0
 20 19  2  0
M  END
$$$$
