ALP.pdb
     RDKit          3D

 21 21  0  0  1  0  0  0  0  0999 V2000
    9.5856  -18.0172   21.7603 C   0  0  0  0  0  0  0  0  0  0  0  0
    9.6344  -16.5468   21.3881 C   0  0  2  0  0  0  0  0  0  0  0  0
   10.7078  -16.2253   20.5006 N   0  0  0  0  0  0  0  0  0  0  0  0
    9.7177  -15.7581   22.6522 C   0  0  0  0  0  0  0  0  0  0  0  0
   10.8279  -15.4087   23.0693 O   0  0  0  0  0  0  0  0  0  0  0  0
    7.5509  -11.8083   25.9983 C   0  0  0  0  0  0  0  0  0  0  0  0
    7.1556  -13.2706   26.1401 C   0  0  1  0  0  0  0  0  0  0  0  0
    5.7826  -13.2858   26.7248 C   0  0  0  0  0  0  0  0  0  0  0  0
    7.3078  -13.9021   24.8243 C   0  0  0  0  0  0  0  0  0  0  0  0
    8.6028  -14.6369   24.5850 C   0  0  2  0  0  0  0  0  0  0  0  0
    8.5505  -15.4146   23.3626 N   0  0  0  0  0  0  0  0  0  0  0  0
    8.8155  -15.5170   25.7653 C   0  0  0  0  0  0  0  0  0  0  0  0
    8.4444  -16.7264   25.6876 O   0  0  0  0  0  0  0  0  0  0  0  0
    9.4118  -15.0824   26.9754 N   0  0  0  0  0  0  0  0  0  0  0  0
    9.1733  -13.8950   27.7775 C   0  0  0  0  0  0  0  0  0  0  0  0
   10.5365  -13.5179   28.3774 C   0  0  0  0  0  0  0  0  0  0  0  0
   11.3439  -14.7711   28.3314 C   0  0  0  0  0  0  0  0  0  0  0  0
   10.4562  -15.7943   27.7154 C   0  0  1  0  0  0  0  0  0  0  0  0
    9.7941  -16.6405   28.7411 C   0  0  0  0  0  0  0  0  0  0  0  0
   10.4619  -17.4247   29.4634 O   0  0  0  0  0  0  0  0  0  0  0  0
    8.4222  -16.5990   28.9410 O   0  0  0  0  0  0  0  0  0  0  0  0
  2  1  1  1
  3  2  1  0
  4  5  2  0
  4  2  1  0
  7  6  1  6
  7  8  1  0
  7  9  1  0
 10  9  1  1
 10 11  1  0
 10 12  1  0
 11  4  1  0
 12 14  1  0
 13 12  2  0
 14 15  1  0
 14 18  1  0
 15 16  1  0
 16 17  1  0
 18 17  1  0
 18 19  1  1
 19 21  1  0
 20 19  2  0
M  END
$$$$
