ALP.pdb
     RDKit          3D

 21 21  0  0  1  0  0  0  0  0999 V2000
    8.8846  -17.4249   21.6956 C   0  0  0  0  0  0  0  0  0  0  0  0
    8.6299  -15.9436   21.4859 C   0  0  2  0  0  0  0  0  0  0  0  0
    9.3276  -15.4056   20.3603 N   0  0  0  0  0  0  0  0  0  0  0  0
    8.9986  -15.2338   22.7457 C   0  0  0  0  0  0  0  0  0  0  0  0
   10.1618  -14.8421   22.8952 O   0  0  0  0  0  0  0  0  0  0  0  0
    5.4040  -12.4669   26.3446 C   0  0  0  0  0  0  0  0  0  0  0  0
    6.5573  -12.7511   25.3940 C   0  0  1  0  0  0  0  0  0  0  0  0
    7.4378  -11.5464   25.4205 C   0  0  0  0  0  0  0  0  0  0  0  0
    7.1750  -14.0157   25.8094 C   0  0  0  0  0  0  0  0  0  0  0  0
    8.3973  -14.4443   25.0372 C   0  0  2  0  0  0  0  0  0  0  0  0
    8.0382  -15.0114   23.7522 N   0  0  0  0  0  0  0  0  0  0  0  0
    9.1025  -15.4460   25.8810 C   0  0  0  0  0  0  0  0  0  0  0  0
    9.1805  -16.6387   25.4592 O   0  0  0  0  0  0  0  0  0  0  0  0
    9.6956  -15.1448   27.1326 N   0  0  0  0  0  0  0  0  0  0  0  0
    9.4163  -14.0830   28.0836 C   0  0  0  0  0  0  0  0  0  0  0  0
   10.7697  -13.7254   28.7167 C   0  0  0  0  0  0  0  0  0  0  0  0
   11.6305  -14.9243   28.5023 C   0  0  0  0  0  0  0  0  0  0  0  0
   10.7801  -15.8985   27.7659 C   0  0  1  0  0  0  0  0  0  0  0  0
   10.1697  -16.8991   28.6784 C   0  0  0  0  0  0  0  0  0  0  0  0
    8.9413  -16.8659   28.9478 O   0  0  0  0  0  0  0  0  0  0  0  0
   10.9260  -17.9028   29.2654 O   0  0  0  0  0  0  0  0  0  0  0  0
  2  1  1  1
  3  2  1  0
  4  5  2  0
  4  2  1  0
  7  6  1  1
  7  8  1  0
  7  9  1  0
 10  9  1  1
 10 11  1  0
 10 12  1  0
 11  4  1  0
 12 14  1  0
 13 12  2  0
 14 15  1  0
 14 18  1  0
 15 16  1  0
 16 17  1  0
 18 17  1  0
 18 19  1  1
 19 21  1  0
 20 19  2  0
M  END
$$$$
