ALP.pdb
     RDKit          3D

 21 21  0  0  1  0  0  0  0  0999 V2000
    8.9821  -17.6739   21.8307 C   0  0  0  0  0  0  0  0  0  0  0  0
    8.7780  -16.1954   21.5558 C   0  0  2  0  0  0  0  0  0  0  0  0
    9.5105  -15.7268   20.4213 N   0  0  0  0  0  0  0  0  0  0  0  0
    9.1486  -15.4454   22.7915 C   0  0  0  0  0  0  0  0  0  0  0  0
   10.2977  -15.0032   22.9029 O   0  0  0  0  0  0  0  0  0  0  0  0
    5.5355  -12.6612   26.2878 C   0  0  0  0  0  0  0  0  0  0  0  0
    6.7119  -12.9540   25.3687 C   0  0  1  0  0  0  0  0  0  0  0  0
    7.5586  -11.7250   25.3559 C   0  0  0  0  0  0  0  0  0  0  0  0
    7.3568  -14.1815   25.8488 C   0  0  0  0  0  0  0  0  0  0  0  0
    8.5735  -14.6370   25.0831 C   0  0  2  0  0  0  0  0  0  0  0  0
    8.2054  -15.2423   23.8183 N   0  0  0  0  0  0  0  0  0  0  0  0
    9.2810  -15.6143   25.9532 C   0  0  0  0  0  0  0  0  0  0  0  0
    9.4632  -16.7888   25.5130 O   0  0  0  0  0  0  0  0  0  0  0  0
    9.7664  -15.3089   27.2494 N   0  0  0  0  0  0  0  0  0  0  0  0
    9.3424  -14.3036   28.2084 C   0  0  0  0  0  0  0  0  0  0  0  0
   10.6194  -13.8625   28.9401 C   0  0  0  0  0  0  0  0  0  0  0  0
   11.5852  -14.9831   28.7508 C   0  0  0  0  0  0  0  0  0  0  0  0
   10.8646  -15.9960   27.9327 C   0  0  1  0  0  0  0  0  0  0  0  0
   10.2786  -17.0703   28.7747 C   0  0  0  0  0  0  0  0  0  0  0  0
    9.0369  -17.1401   28.9644 O   0  0  0  0  0  0  0  0  0  0  0  0
   11.0730  -18.0324   29.3807 O   0  0  0  0  0  0  0  0  0  0  0  0
  2  1  1  1
  3  2  1  0
  4  5  2  0
  4  2  1  0
  7  6  1  1
  7  8  1  0
  7  9  1  0
 10  9  1  1
 10 11  1  0
 10 12  1  0
 11  4  1  0
 12 14  1  0
 13 12  2  0
 14 15  1  0
 14 18  1  0
 15 16  1  0
 16 17  1  0
 18 17  1  0
 18 19  1  1
 19 21  1  0
 20 19  2  0
M  END
$$$$
