ALP.pdb
     RDKit          3D

 21 21  0  0  1  0  0  0  0  0999 V2000
   11.2223  -18.6041   22.8460 C   0  0  0  0  0  0  0  0  0  0  0  0
   11.4182  -17.3746   21.9782 C   0  0  2  0  0  0  0  0  0  0  0  0
   12.7916  -17.0977   21.6949 N   0  0  0  0  0  0  0  0  0  0  0  0
   10.7600  -16.2231   22.6621 C   0  0  0  0  0  0  0  0  0  0  0  0
   11.3902  -15.5955   23.5209 O   0  0  0  0  0  0  0  0  0  0  0  0
    6.2591  -13.6573   20.3673 C   0  0  0  0  0  0  0  0  0  0  0  0
    7.6495  -13.8577   20.9514 C   0  0  1  0  0  0  0  0  0  0  0  0
    8.3559  -12.5488   20.8284 C   0  0  0  0  0  0  0  0  0  0  0  0
    7.4890  -14.3834   22.3119 C   0  0  0  0  0  0  0  0  0  0  0  0
    8.7570  -14.7771   23.0268 C   0  0  2  0  0  0  0  0  0  0  0  0
    9.4400  -15.8535   22.3364 N   0  0  0  0  0  0  0  0  0  0  0  0
    8.3588  -15.1946   24.3980 C   0  0  0  0  0  0  0  0  0  0  0  0
    8.5721  -16.3943   24.7466 O   0  0  0  0  0  0  0  0  0  0  0  0
    7.7540  -14.3270   25.3417 N   0  0  0  0  0  0  0  0  0  0  0  0
    7.1849  -13.0002   25.1818 C   0  0  0  0  0  0  0  0  0  0  0  0
    7.4806  -12.2600   26.4952 C   0  0  0  0  0  0  0  0  0  0  0  0
    7.7132  -13.3330   27.5047 C   0  0  0  0  0  0  0  0  0  0  0  0
    7.5624  -14.6152   26.7648 C   0  0  1  0  0  0  0  0  0  0  0  0
    6.2054  -15.1949   26.9354 C   0  0  0  0  0  0  0  0  0  0  0  0
    5.3202  -15.0422   26.0546 O   0  0  0  0  0  0  0  0  0  0  0  0
    5.8638  -15.9227   28.0657 O   0  0  0  0  0  0  0  0  0  0  0  0
  2  1  1  1
  3  2  1  0
  4  5  2  0
  4  2  1  0
  7  6  1  1
  7  8  1  0
  7  9  1  0
 10  9  1  6
 10 11  1  0
 10 12  1  0
 11  4  1  0
 12 14  1  0
 13 12  2  0
 14 15  1  0
 14 18  1  0
 15 16  1  0
 16 17  1  0
 18 17  1  0
 18 19  1  6
 19 21  1  0
 20 19  2  0
M  END
$$$$
