ALP.pdb
     RDKit          3D

 21 21  0  0  1  0  0  0  0  0999 V2000
    9.4510  -17.8792   21.7113 C   0  0  0  0  0  0  0  0  0  0  0  0
    9.5896  -16.4034   21.3858 C   0  0  2  0  0  0  0  0  0  0  0  0
   10.6962  -16.1172   20.5274 N   0  0  0  0  0  0  0  0  0  0  0  0
    9.6932  -15.6589   22.6749 C   0  0  0  0  0  0  0  0  0  0  0  0
   10.8122  -15.4379   23.1519 O   0  0  0  0  0  0  0  0  0  0  0  0
    7.7128  -11.7210   25.9940 C   0  0  0  0  0  0  0  0  0  0  0  0
    7.2267  -13.1439   26.2257 C   0  0  1  0  0  0  0  0  0  0  0  0
    5.8779  -13.0360   26.8554 C   0  0  0  0  0  0  0  0  0  0  0  0
    7.2885  -13.8499   24.9408 C   0  0  0  0  0  0  0  0  0  0  0  0
    8.6073  -14.4972   24.6003 C   0  0  2  0  0  0  0  0  0  0  0  0
    8.5349  -15.2128   23.3415 N   0  0  0  0  0  0  0  0  0  0  0  0
    8.9267  -15.4234   25.7197 C   0  0  0  0  0  0  0  0  0  0  0  0
    8.6379  -16.6502   25.5855 O   0  0  0  0  0  0  0  0  0  0  0  0
    9.5382  -15.0145   26.9312 N   0  0  0  0  0  0  0  0  0  0  0  0
    9.3626  -13.8092   27.7226 C   0  0  0  0  0  0  0  0  0  0  0  0
   10.7408  -13.5065   28.3304 C   0  0  0  0  0  0  0  0  0  0  0  0
   11.4751  -14.8043   28.2998 C   0  0  0  0  0  0  0  0  0  0  0  0
   10.5345  -15.7795   27.6844 C   0  0  1  0  0  0  0  0  0  0  0  0
    9.8173  -16.5783   28.7111 C   0  0  0  0  0  0  0  0  0  0  0  0
    8.5927  -16.3962   28.9347 O   0  0  0  0  0  0  0  0  0  0  0  0
   10.4661  -17.5500   29.4586 O   0  0  0  0  0  0  0  0  0  0  0  0
  2  1  1  1
  3  2  1  0
  4  5  2  0
  4  2  1  0
  7  6  1  6
  7  8  1  0
  7  9  1  0
 10  9  1  1
 10 11  1  0
 10 12  1  0
 11  4  1  0
 12 14  1  0
 13 12  2  0
 14 15  1  0
 14 18  1  0
 15 16  1  0
 16 17  1  0
 18 17  1  0
 18 19  1  1
 19 21  1  0
 20 19  2  0
M  END
$$$$
