ALP.pdb
     RDKit          3D

 21 21  0  0  1  0  0  0  0  0999 V2000
    8.1282  -19.5385   25.1730 C   0  0  0  0  0  0  0  0  0  0  0  0
    6.7988  -18.9421   25.5975 C   0  0  2  0  0  0  0  0  0  0  0  0
    5.6886  -19.8088   25.3532 N   0  0  0  0  0  0  0  0  0  0  0  0
    6.6371  -17.6374   24.8916 C   0  0  0  0  0  0  0  0  0  0  0  0
    5.9454  -17.5908   23.8678 O   0  0  0  0  0  0  0  0  0  0  0  0
    7.9553  -12.5343   27.1764 C   0  0  0  0  0  0  0  0  0  0  0  0
    7.1689  -13.6485   26.5022 C   0  0  1  0  0  0  0  0  0  0  0  0
    5.8283  -13.0829   26.1702 C   0  0  0  0  0  0  0  0  0  0  0  0
    7.9667  -14.1344   25.3706 C   0  0  0  0  0  0  0  0  0  0  0  0
    7.3733  -15.2719   24.5781 C   0  0  2  0  0  0  0  0  0  0  0  0
    7.2618  -16.4735   25.3816 N   0  0  0  0  0  0  0  0  0  0  0  0
    8.2735  -15.4932   23.4146 C   0  0  0  0  0  0  0  0  0  0  0  0
    9.0245  -16.5141   23.4215 O   0  0  0  0  0  0  0  0  0  0  0  0
    8.3405  -14.6278   22.2940 N   0  0  0  0  0  0  0  0  0  0  0  0
    7.8858  -13.2587   22.1244 C   0  0  0  0  0  0  0  0  0  0  0  0
    7.4302  -13.1504   20.6611 C   0  0  0  0  0  0  0  0  0  0  0  0
    8.1281  -14.2611   19.9512 C   0  0  0  0  0  0  0  0  0  0  0  0
    8.9274  -14.9599   20.9939 C   0  0  1  0  0  0  0  0  0  0  0  0
   10.3420  -14.5067   21.0014 C   0  0  0  0  0  0  0  0  0  0  0  0
   10.7754  -13.7510   21.9089 O   0  0  0  0  0  0  0  0  0  0  0  0
   11.2345  -14.8970   20.0139 O   0  0  0  0  0  0  0  0  0  0  0  0
  2  1  1  6
  3  2  1  0
  4  5  2  0
  4  2  1  0
  7  6  1  6
  7  8  1  0
  7  9  1  0
 10  9  1  1
 10 11  1  0
 10 12  1  0
 11  4  1  0
 12 14  1  0
 13 12  2  0
 14 15  1  0
 14 18  1  0
 15 16  1  0
 16 17  1  0
 18 17  1  0
 18 19  1  1
 19 21  1  0
 20 19  2  0
M  END
$$$$
