ALP.pdb
     RDKit          3D

 21 21  0  0  1  0  0  0  0  0999 V2000
    7.3299  -20.2773   24.7839 C   0  0  0  0  0  0  0  0  0  0  0  0
    5.9704  -19.6465   25.0227 C   0  0  2  0  0  0  0  0  0  0  0  0
    4.9079  -20.3257   24.3494 N   0  0  0  0  0  0  0  0  0  0  0  0
    6.0515  -18.2154   24.6079 C   0  0  0  0  0  0  0  0  0  0  0  0
    5.6784  -17.8977   23.4727 O   0  0  0  0  0  0  0  0  0  0  0  0
    6.1681  -12.7271   26.1331 C   0  0  0  0  0  0  0  0  0  0  0  0
    7.4087  -13.5776   25.9048 C   0  0  1  0  0  0  0  0  0  0  0  0
    8.5013  -12.9632   26.7148 C   0  0  0  0  0  0  0  0  0  0  0  0
    7.0621  -14.9660   26.2294 C   0  0  0  0  0  0  0  0  0  0  0  0
    6.8269  -15.8845   25.0567 C   0  0  2  0  0  0  0  0  0  0  0  0
    6.5454  -17.2377   25.4941 N   0  0  0  0  0  0  0  0  0  0  0  0
    8.0623  -15.8405   24.2290 C   0  0  0  0  0  0  0  0  0  0  0  0
    9.0213  -16.6086   24.5397 O   0  0  0  0  0  0  0  0  0  0  0  0
    8.2307  -14.9885   23.1089 N   0  0  0  0  0  0  0  0  0  0  0  0
    7.6572  -13.6874   22.8121 C   0  0  0  0  0  0  0  0  0  0  0  0
    7.4667  -13.6550   21.2879 C   0  0  0  0  0  0  0  0  0  0  0  0
    8.4076  -14.6819   20.7545 C   0  0  0  0  0  0  0  0  0  0  0  0
    9.0796  -15.2642   21.9477 C   0  0  1  0  0  0  0  0  0  0  0  0
   10.4061  -14.6422   22.1929 C   0  0  0  0  0  0  0  0  0  0  0  0
   10.5850  -13.8574   23.1597 O   0  0  0  0  0  0  0  0  0  0  0  0
   11.4924  -14.9010   21.3701 O   0  0  0  0  0  0  0  0  0  0  0  0
  2  1  1  6
  3  2  1  0
  4  5  2  0
  4  2  1  0
  7  6  1  1
  7  8  1  0
  7  9  1  0
 10  9  1  1
 10 11  1  0
 10 12  1  0
 11  4  1  0
 12 14  1  0
 13 12  2  0
 14 15  1  0
 14 18  1  0
 15 16  1  0
 16 17  1  0
 18 17  1  0
 18 19  1  1
 19 21  1  0
 20 19  2  0
M  END
$$$$
