WGF.pdb
     RDKit          3D

 30 32  0  0  1  0  0  0  0  0999 V2000
   26.2737  -22.6295  -11.7055 N   0  0  0  0  0  0  0  0  0  0  0  0
   25.7720  -21.2879  -11.5090 C   0  0  1  0  0  0  0  0  0  0  0  0
   26.8625  -20.2642  -11.4059 C   0  0  0  0  0  0  0  0  0  0  0  0
   27.8041  -20.4818  -10.2830 C   0  0  0  0  0  0  0  0  0  0  0  0
   29.0419  -21.1244  -10.4161 C   0  0  0  0  0  0  0  0  0  0  0  0
   29.6360  -21.1750   -9.2125 N   0  0  0  0  0  0  0  0  0  0  0  0
   28.8664  -20.6007   -8.2733 C   0  0  0  0  0  0  0  0  0  0  0  0
   29.0466  -20.4105   -6.9225 C   0  0  0  0  0  0  0  0  0  0  0  0
   28.0678  -19.7703   -6.1993 C   0  0  0  0  0  0  0  0  0  0  0  0
   26.9403  -19.3444   -6.8675 C   0  0  0  0  0  0  0  0  0  0  0  0
   26.7501  -19.5320   -8.2289 C   0  0  0  0  0  0  0  0  0  0  0  0
   27.7177  -20.1659   -8.9454 C   0  0  0  0  0  0  0  0  0  0  0  0
   24.7585  -20.9419  -12.5319 C   0  0  0  0  0  0  0  0  0  0  0  0
   24.9959  -21.1948  -13.7298 O   0  0  0  0  0  0  0  0  0  0  0  0
   23.5309  -20.3322  -12.1767 N   0  0  0  0  0  0  0  0  0  0  0  0
   22.5167  -19.9699  -13.1344 C   0  0  0  0  0  0  0  0  0  0  0  0
   21.7759  -21.1372  -13.6593 C   0  0  0  0  0  0  0  0  0  0  0  0
   22.3950  -22.1900  -14.0382 O   0  0  0  0  0  0  0  0  0  0  0  0
   20.3653  -21.1609  -13.7763 N   0  0  0  0  0  0  0  0  0  0  0  0
   19.6722  -22.3369  -14.1996 C   0  0  1  0  0  0  0  0  0  0  0  0
   20.0258  -23.5971  -13.4965 C   0  0  0  0  0  0  0  0  0  0  0  0
   19.7197  -23.4608  -12.0607 C   0  0  0  0  0  0  0  0  0  0  0  0
   20.6950  -23.2715  -11.1123 C   0  0  0  0  0  0  0  0  0  0  0  0
   20.3224  -23.1545   -9.7950 C   0  0  0  0  0  0  0  0  0  0  0  0
   19.0050  -23.2202   -9.3911 C   0  0  0  0  0  0  0  0  0  0  0  0
   18.0288  -23.4097  -10.3405 C   0  0  0  0  0  0  0  0  0  0  0  0
   18.4045  -23.5268  -11.6610 C   0  0  0  0  0  0  0  0  0  0  0  0
   18.1911  -22.0588  -14.0987 C   0  0  0  0  0  0  0  0  0  0  0  0
   17.8130  -21.0023  -13.5328 O   0  0  0  0  0  0  0  0  0  0  0  0
   17.2411  -22.9178  -14.6006 O   0  0  0  0  0  0  0  0  0  0  0  0
  2  1  1  6
  2 13  1  0
  2  3  1  0
  3  4  1  0
  4  5  2  0
  5  6  1  0
  7  6  1  0
  8  7  2  0
  9  8  1  0
 10 11  1  0
 10  9  2  0
 11 12  2  0
 12  4  1  0
 12  7  1  0
 13 15  1  0
 14 13  2  0
 15 16  1  0
 17 18  2  0
 17 16  1  0
 19 17  1  0
 20 21  1  1
 20 19  1  0
 21 22  1  0
 22 23  2  0
 23 24  1  0
 25 24  2  0
 26 25  1  0
 27 26  2  0
 27 22  1  0
 28 30  1  0
 28 20  1  0
 29 28  2  0
M  END
$$$$
