WGF.pdb
     RDKit          3D

 30 32  0  0  1  0  0  0  0  0999 V2000
   27.7390  -22.1091  -12.2436 N   0  0  0  0  0  0  0  0  0  0  0  0
   26.4727  -21.6371  -11.7299 C   0  0  1  0  0  0  0  0  0  0  0  0
   26.5965  -20.3658  -10.9450 C   0  0  0  0  0  0  0  0  0  0  0  0
   27.7278  -20.3429   -9.9887 C   0  0  0  0  0  0  0  0  0  0  0  0
   29.0666  -20.5250  -10.3593 C   0  0  0  0  0  0  0  0  0  0  0  0
   29.8334  -20.4668   -9.2580 N   0  0  0  0  0  0  0  0  0  0  0  0
   29.0847  -20.2548   -8.1632 C   0  0  0  0  0  0  0  0  0  0  0  0
   29.4123  -20.1192   -6.8336 C   0  0  0  0  0  0  0  0  0  0  0  0
   28.4122  -19.8983   -5.9161 C   0  0  0  0  0  0  0  0  0  0  0  0
   27.1151  -19.8220   -6.3750 C   0  0  0  0  0  0  0  0  0  0  0  0
   26.7755  -19.9576   -7.7134 C   0  0  0  0  0  0  0  0  0  0  0  0
   27.7643  -20.1769   -8.6222 C   0  0  0  0  0  0  0  0  0  0  0  0
   25.4599  -21.5473  -12.8067 C   0  0  0  0  0  0  0  0  0  0  0  0
   25.3101  -20.4654  -13.4088 O   0  0  0  0  0  0  0  0  0  0  0  0
   24.6624  -22.6616  -13.1635 N   0  0  0  0  0  0  0  0  0  0  0  0
   23.5176  -22.5736  -14.0344 C   0  0  0  0  0  0  0  0  0  0  0  0
   22.2762  -22.2064  -13.3197 C   0  0  0  0  0  0  0  0  0  0  0  0
   22.1364  -22.4630  -12.0747 O   0  0  0  0  0  0  0  0  0  0  0  0
   21.1862  -21.5648  -13.9556 N   0  0  0  0  0  0  0  0  0  0  0  0
   20.0054  -21.2100  -13.2329 C   0  0  1  0  0  0  0  0  0  0  0  0
   19.8497  -19.7719  -12.8934 C   0  0  0  0  0  0  0  0  0  0  0  0
   20.1104  -18.9536  -14.0918 C   0  0  0  0  0  0  0  0  0  0  0  0
   19.1410  -18.6822  -15.0262 C   0  0  0  0  0  0  0  0  0  0  0  0
   19.4693  -17.9107  -16.1146 C   0  0  0  0  0  0  0  0  0  0  0  0
   20.7367  -17.3993  -16.3025 C   0  0  0  0  0  0  0  0  0  0  0  0
   21.7071  -17.6710  -15.3673 C   0  0  0  0  0  0  0  0  0  0  0  0
   21.3757  -18.4449  -14.2764 C   0  0  0  0  0  0  0  0  0  0  0  0
   18.8173  -21.7116  -14.0190 C   0  0  0  0  0  0  0  0  0  0  0  0
   18.9939  -22.0865  -15.2054 O   0  0  0  0  0  0  0  0  0  0  0  0
   17.5502  -21.7720  -13.4870 O   0  0  0  0  0  0  0  0  0  0  0  0
  2  1  1  6
  2 13  1  0
  2  3  1  0
  3  4  1  0
  4  5  2  0
  5  6  1  0
  7  6  1  0
  8  7  2  0
  9  8  1  0
 10 11  1  0
 10  9  2  0
 11 12  2  0
 12  4  1  0
 12  7  1  0
 13 15  1  0
 14 13  2  0
 15 16  1  0
 17 18  2  0
 17 16  1  0
 19 17  1  0
 20 21  1  6
 20 19  1  0
 21 22  1  0
 22 23  2  0
 23 24  1  0
 25 24  2  0
 26 25  1  0
 27 26  2  0
 27 22  1  0
 28 30  1  0
 28 20  1  0
 29 28  2  0
M  END
$$$$
