WGF.pdb
     RDKit          3D

 30 32  0  0  1  0  0  0  0  0999 V2000
   24.3689  -19.9567  -17.2346 N   0  0  0  0  0  0  0  0  0  0  0  0
   25.4151  -20.7302  -17.8652 C   0  0  1  0  0  0  0  0  0  0  0  0
   26.4378  -19.8786  -18.5554 C   0  0  0  0  0  0  0  0  0  0  0  0
   25.8765  -18.9148  -19.5306 C   0  0  0  0  0  0  0  0  0  0  0  0
   25.9086  -17.5244  -19.3604 C   0  0  0  0  0  0  0  0  0  0  0  0
   25.3014  -16.9449  -20.4090 N   0  0  0  0  0  0  0  0  0  0  0  0
   24.8611  -17.8688  -21.2789 C   0  0  0  0  0  0  0  0  0  0  0  0
   24.1963  -17.7634  -22.4791 C   0  0  0  0  0  0  0  0  0  0  0  0
   23.8719  -18.9081  -23.1684 C   0  0  0  0  0  0  0  0  0  0  0  0
   24.2312  -20.1202  -22.6202 C   0  0  0  0  0  0  0  0  0  0  0  0
   24.9014  -20.2361  -21.4109 C   0  0  0  0  0  0  0  0  0  0  0  0
   25.2224  -19.1041  -20.7275 C   0  0  0  0  0  0  0  0  0  0  0  0
   26.0193  -21.6883  -16.9112 C   0  0  0  0  0  0  0  0  0  0  0  0
   27.0746  -22.2733  -17.2266 O   0  0  0  0  0  0  0  0  0  0  0  0
   25.4239  -21.9512  -15.6536 N   0  0  0  0  0  0  0  0  0  0  0  0
   25.9408  -22.9151  -14.7153 C   0  0  0  0  0  0  0  0  0  0  0  0
   25.6678  -22.5534  -13.3076 C   0  0  0  0  0  0  0  0  0  0  0  0
   25.8752  -23.3909  -12.3637 O   0  0  0  0  0  0  0  0  0  0  0  0
   25.1670  -21.2859  -12.9248 N   0  0  0  0  0  0  0  0  0  0  0  0
   24.8373  -20.9945  -11.5650 C   0  0  1  0  0  0  0  0  0  0  0  0
   25.5999  -19.8914  -10.9255 C   0  0  0  0  0  0  0  0  0  0  0  0
   27.0435  -20.1084  -11.1322 C   0  0  0  0  0  0  0  0  0  0  0  0
   27.6677  -19.8383  -12.3255 C   0  0  0  0  0  0  0  0  0  0  0  0
   29.0177  -20.0700  -12.4328 C   0  0  0  0  0  0  0  0  0  0  0  0
   29.7682  -20.5637  -11.3858 C   0  0  0  0  0  0  0  0  0  0  0  0
   29.1434  -20.8341  -10.1914 C   0  0  0  0  0  0  0  0  0  0  0  0
   27.7894  -20.6011  -10.0859 C   0  0  0  0  0  0  0  0  0  0  0  0
   23.3510  -20.7339  -11.4982 C   0  0  0  0  0  0  0  0  0  0  0  0
   22.8144  -20.5877  -10.3713 O   0  0  0  0  0  0  0  0  0  0  0  0
   22.5629  -20.6523  -12.6227 O   0  0  0  0  0  0  0  0  0  0  0  0
  2  1  1  1
  2 13  1  0
  2  3  1  0
  3  4  1  0
  4  5  2  0
  5  6  1  0
  7  6  1  0
  8  7  2  0
  9  8  1  0
 10 11  1  0
 10  9  2  0
 11 12  2  0
 12  4  1  0
 12  7  1  0
 13 15  1  0
 14 13  2  0
 15 16  1  0
 17 18  2  0
 17 16  1  0
 19 17  1  0
 20 21  1  6
 20 19  1  0
 21 22  1  0
 22 23  2  0
 23 24  1  0
 25 24  2  0
 26 25  1  0
 27 26  2  0
 27 22  1  0
 28 30  1  0
 28 20  1  0
 29 28  2  0
M  END
$$$$
