WGF.pdb
     RDKit          3D

 30 32  0  0  1  0  0  0  0  0999 V2000
   22.2832  -20.5437  -12.5921 N   0  0  0  0  0  0  0  0  0  0  0  0
   23.5763  -20.4500  -13.2319 C   0  0  1  0  0  0  0  0  0  0  0  0
   23.7230  -19.2215  -14.0786 C   0  0  0  0  0  0  0  0  0  0  0  0
   22.5694  -18.9471  -14.9668 C   0  0  0  0  0  0  0  0  0  0  0  0
   21.4603  -19.7943  -15.0894 C   0  0  0  0  0  0  0  0  0  0  0  0
   20.6092  -19.2678  -15.9853 N   0  0  0  0  0  0  0  0  0  0  0  0
   21.0834  -18.1102  -16.4744 C   0  0  0  0  0  0  0  0  0  0  0  0
   20.5769  -17.2207  -17.3941 C   0  0  0  0  0  0  0  0  0  0  0  0
   21.2980  -16.0909  -17.7013 C   0  0  0  0  0  0  0  0  0  0  0  0
   22.5067  -15.8995  -17.0676 C   0  0  0  0  0  0  0  0  0  0  0  0
   23.0251  -16.7908  -16.1393 C   0  0  0  0  0  0  0  0  0  0  0  0
   22.3127  -17.9095  -15.8349 C   0  0  0  0  0  0  0  0  0  0  0  0
   24.6716  -20.5986  -12.2462 C   0  0  0  0  0  0  0  0  0  0  0  0
   24.8102  -19.7327  -11.3594 O   0  0  0  0  0  0  0  0  0  0  0  0
   25.5601  -21.7002  -12.2919 N   0  0  0  0  0  0  0  0  0  0  0  0
   26.9892  -21.5751  -12.1536 C   0  0  0  0  0  0  0  0  0  0  0  0
   27.4207  -21.4145  -10.7483 C   0  0  0  0  0  0  0  0  0  0  0  0
   28.6012  -21.7440  -10.3835 O   0  0  0  0  0  0  0  0  0  0  0  0
   26.5712  -20.9005   -9.7392 N   0  0  0  0  0  0  0  0  0  0  0  0
   27.0004  -20.8089   -8.3791 C   0  0  1  0  0  0  0  0  0  0  0  0
   27.7203  -19.5660   -7.9992 C   0  0  0  0  0  0  0  0  0  0  0  0
   28.1030  -19.6355   -6.5770 C   0  0  0  0  0  0  0  0  0  0  0  0
   28.9152  -20.6245   -6.0781 C   0  0  0  0  0  0  0  0  0  0  0  0
   29.2224  -20.6149   -4.7390 C   0  0  0  0  0  0  0  0  0  0  0  0
   28.7447  -19.6485   -3.8782 C   0  0  0  0  0  0  0  0  0  0  0  0
   27.9316  -18.6586   -4.3776 C   0  0  0  0  0  0  0  0  0  0  0  0
   27.6248  -18.6700   -5.7209 C   0  0  0  0  0  0  0  0  0  0  0  0
   25.7909  -21.0233   -7.5001 C   0  0  0  0  0  0  0  0  0  0  0  0
   24.6543  -20.7502   -7.9613 O   0  0  0  0  0  0  0  0  0  0  0  0
   25.8863  -21.5040   -6.2148 O   0  0  0  0  0  0  0  0  0  0  0  0
  2  1  1  1
  2 13  1  0
  2  3  1  0
  3  4  1  0
  4  5  2  0
  5  6  1  0
  7  6  1  0
  8  7  2  0
  9  8  1  0
 10 11  1  0
 10  9  2  0
 11 12  2  0
 12  4  1  0
 12  7  1  0
 13 15  1  0
 14 13  2  0
 15 16  1  0
 17 18  2  0
 17 16  1  0
 19 17  1  0
 20 21  1  6
 20 19  1  0
 21 22  1  0
 22 23  2  0
 23 24  1  0
 25 24  2  0
 26 25  1  0
 27 26  2  0
 27 22  1  0
 28 30  1  0
 28 20  1  0
 29 28  2  0
M  END
$$$$
