WGF.pdb
     RDKit          3D

 30 32  0  0  1  0  0  0  0  0999 V2000
   24.5516  -19.4869  -14.1606 N   0  0  0  0  0  0  0  0  0  0  0  0
   24.2982  -20.6121  -13.2888 C   0  0  1  0  0  0  0  0  0  0  0  0
   23.0254  -21.3327  -13.6179 C   0  0  0  0  0  0  0  0  0  0  0  0
   21.8069  -20.4938  -13.5374 C   0  0  0  0  0  0  0  0  0  0  0  0
   21.1771  -19.9237  -14.6515 C   0  0  0  0  0  0  0  0  0  0  0  0
   20.1181  -19.2109  -14.2337 N   0  0  0  0  0  0  0  0  0  0  0  0
   19.9982  -19.2690  -12.8971 C   0  0  0  0  0  0  0  0  0  0  0  0
   19.0865  -18.7155  -12.0277 C   0  0  0  0  0  0  0  0  0  0  0  0
   19.2132  -18.9576  -10.6800 C   0  0  0  0  0  0  0  0  0  0  0  0
   20.2577  -19.7513  -10.2581 C   0  0  0  0  0  0  0  0  0  0  0  0
   21.1815  -20.3134  -11.1273 C   0  0  0  0  0  0  0  0  0  0  0  0
   21.0576  -20.0740  -12.4611 C   0  0  0  0  0  0  0  0  0  0  0  0
   25.4689  -21.5174  -13.2319 C   0  0  0  0  0  0  0  0  0  0  0  0
   25.3353  -22.7039  -13.5922 O   0  0  0  0  0  0  0  0  0  0  0  0
   26.7308  -21.0630  -12.7780 N   0  0  0  0  0  0  0  0  0  0  0  0
   26.9031  -20.2165  -11.6244 C   0  0  0  0  0  0  0  0  0  0  0  0
   26.9035  -20.9695  -10.3516 C   0  0  0  0  0  0  0  0  0  0  0  0
   26.0091  -21.8513  -10.1115 O   0  0  0  0  0  0  0  0  0  0  0  0
   27.8711  -20.7633   -9.3389 N   0  0  0  0  0  0  0  0  0  0  0  0
   27.6691  -21.2405   -8.0070 C   0  0  1  0  0  0  0  0  0  0  0  0
   28.8517  -21.2018   -7.1084 C   0  0  0  0  0  0  0  0  0  0  0  0
   28.6041  -20.2475   -6.0120 C   0  0  0  0  0  0  0  0  0  0  0  0
   27.9448  -20.6008   -4.8600 C   0  0  0  0  0  0  0  0  0  0  0  0
   27.7561  -19.6486   -3.8877 C   0  0  0  0  0  0  0  0  0  0  0  0
   28.2046  -18.3515   -4.0269 C   0  0  0  0  0  0  0  0  0  0  0  0
   28.8644  -17.9978   -5.1800 C   0  0  0  0  0  0  0  0  0  0  0  0
   29.0527  -18.9543   -6.1539 C   0  0  0  0  0  0  0  0  0  0  0  0
   26.5135  -20.4702   -7.4132 C   0  0  0  0  0  0  0  0  0  0  0  0
   26.3083  -19.2937   -7.8045 O   0  0  0  0  0  0  0  0  0  0  0  0
   25.6789  -21.0062   -6.4600 O   0  0  0  0  0  0  0  0  0  0  0  0
  2  1  1  6
  2 13  1  0
  2  3  1  0
  3  4  1  0
  4  5  2  0
  5  6  1  0
  7  6  1  0
  8  7  2  0
  9  8  1  0
 10 11  1  0
 10  9  2  0
 11 12  2  0
 12  4  1  0
 12  7  1  0
 13 15  1  0
 14 13  2  0
 15 16  1  0
 17 18  2  0
 17 16  1  0
 19 17  1  0
 20 21  1  1
 20 19  1  0
 21 22  1  0
 22 23  2  0
 23 24  1  0
 25 24  2  0
 26 25  1  0
 27 26  2  0
 27 22  1  0
 28 30  1  0
 28 20  1  0
 29 28  2  0
M  END
$$$$
