WGF.pdb
     RDKit          3D

 30 32  0  0  1  0  0  0  0  0999 V2000
   27.0600  -20.1384  -15.8881 N   0  0  0  0  0  0  0  0  0  0  0  0
   27.0312  -19.4405  -14.6223 C   0  0  1  0  0  0  0  0  0  0  0  0
   25.9289  -18.4278  -14.5370 C   0  0  0  0  0  0  0  0  0  0  0  0
   26.2888  -17.0847  -15.0481 C   0  0  0  0  0  0  0  0  0  0  0  0
   27.0943  -16.1746  -14.3510 C   0  0  0  0  0  0  0  0  0  0  0  0
   27.2090  -15.0512  -15.0782 N   0  0  0  0  0  0  0  0  0  0  0  0
   26.5247  -15.1533  -16.2296 C   0  0  0  0  0  0  0  0  0  0  0  0
   26.3503  -14.2813  -17.2796 C   0  0  0  0  0  0  0  0  0  0  0  0
   25.5837  -14.6697  -18.3531 C   0  0  0  0  0  0  0  0  0  0  0  0
   25.0199  -15.9269  -18.3276 C   0  0  0  0  0  0  0  0  0  0  0  0
   25.1902  -16.8125  -17.2733 C   0  0  0  0  0  0  0  0  0  0  0  0
   25.9481  -16.4291  -16.2101 C   0  0  0  0  0  0  0  0  0  0  0  0
   27.0213  -20.3926  -13.4879 C   0  0  0  0  0  0  0  0  0  0  0  0
   26.3184  -21.4199  -13.5654 O   0  0  0  0  0  0  0  0  0  0  0  0
   27.7912  -20.1591  -12.3228 N   0  0  0  0  0  0  0  0  0  0  0  0
   28.4181  -21.2094  -11.5606 C   0  0  0  0  0  0  0  0  0  0  0  0
   27.5203  -21.7990  -10.5442 C   0  0  0  0  0  0  0  0  0  0  0  0
   26.5113  -22.5040  -10.8909 O   0  0  0  0  0  0  0  0  0  0  0  0
   27.7148  -21.6209   -9.1532 N   0  0  0  0  0  0  0  0  0  0  0  0
   26.6732  -21.1187   -8.3134 C   0  0  1  0  0  0  0  0  0  0  0  0
   26.8387  -19.7264   -7.8220 C   0  0  0  0  0  0  0  0  0  0  0  0
   27.7520  -19.7195   -6.6646 C   0  0  0  0  0  0  0  0  0  0  0  0
   27.3390  -20.0452   -5.3958 C   0  0  0  0  0  0  0  0  0  0  0  0
   28.2560  -20.0129   -4.3732 C   0  0  0  0  0  0  0  0  0  0  0  0
   29.5757  -19.6652   -4.5749 C   0  0  0  0  0  0  0  0  0  0  0  0
   29.9891  -19.3392   -5.8449 C   0  0  0  0  0  0  0  0  0  0  0  0
   29.0679  -19.3723   -6.8691 C   0  0  0  0  0  0  0  0  0  0  0  0
   25.3674  -21.2786   -9.0553 C   0  0  0  0  0  0  0  0  0  0  0  0
   25.3246  -20.9731  -10.2736 O   0  0  0  0  0  0  0  0  0  0  0  0
   24.2238  -21.7437   -8.4486 O   0  0  0  0  0  0  0  0  0  0  0  0
  2  1  1  6
  2 13  1  0
  2  3  1  0
  3  4  1  0
  4  5  2  0
  5  6  1  0
  7  6  1  0
  8  7  2  0
  9  8  1  0
 10 11  1  0
 10  9  2  0
 11 12  2  0
 12  4  1  0
 12  7  1  0
 13 15  1  0
 14 13  2  0
 15 16  1  0
 17 18  2  0
 17 16  1  0
 19 17  1  0
 20 21  1  6
 20 19  1  0
 21 22  1  0
 22 23  2  0
 23 24  1  0
 25 24  2  0
 26 25  1  0
 27 26  2  0
 27 22  1  0
 28 30  1  0
 28 20  1  0
 29 28  2  0
M  END
$$$$
