WGF.pdb
     RDKit          3D

 30 32  0  0  1  0  0  0  0  0999 V2000
   24.9612  -17.8692  -17.2531 N   0  0  0  0  0  0  0  0  0  0  0  0
   25.1498  -17.6174  -15.8420 C   0  0  1  0  0  0  0  0  0  0  0  0
   23.8583  -17.4464  -15.1000 C   0  0  0  0  0  0  0  0  0  0  0  0
   22.8673  -16.5835  -15.7841 C   0  0  0  0  0  0  0  0  0  0  0  0
   21.6674  -17.0561  -16.3318 C   0  0  0  0  0  0  0  0  0  0  0  0
   21.0114  -16.0268  -16.8926 N   0  0  0  0  0  0  0  0  0  0  0  0
   21.7032  -14.8840  -16.7528 C   0  0  0  0  0  0  0  0  0  0  0  0
   21.4417  -13.5928  -17.1499 C   0  0  0  0  0  0  0  0  0  0  0  0
   22.3510  -12.6040  -16.8562 C   0  0  0  0  0  0  0  0  0  0  0  0
   23.4937  -12.9554  -16.1708 C   0  0  0  0  0  0  0  0  0  0  0  0
   23.7658  -14.2544  -15.7666 C   0  0  0  0  0  0  0  0  0  0  0  0
   22.8669  -15.2338  -16.0573 C   0  0  0  0  0  0  0  0  0  0  0  0
   26.0291  -18.6400  -15.2302 C   0  0  0  0  0  0  0  0  0  0  0  0
   26.3205  -18.5437  -14.0213 O   0  0  0  0  0  0  0  0  0  0  0  0
   26.5427  -19.7198  -15.9886 N   0  0  0  0  0  0  0  0  0  0  0  0
   27.3924  -20.7452  -15.4376 C   0  0  0  0  0  0  0  0  0  0  0  0
   26.7017  -21.5932  -14.4423 C   0  0  0  0  0  0  0  0  0  0  0  0
   26.7956  -22.8677  -14.4893 O   0  0  0  0  0  0  0  0  0  0  0  0
   25.9069  -21.0593  -13.3995 N   0  0  0  0  0  0  0  0  0  0  0  0
   25.1783  -21.9071  -12.5090 C   0  0  1  0  0  0  0  0  0  0  0  0
   25.9183  -22.4017  -11.3193 C   0  0  0  0  0  0  0  0  0  0  0  0
   26.3989  -21.2541  -10.5281 C   0  0  0  0  0  0  0  0  0  0  0  0
   27.5920  -20.6254  -10.7883 C   0  0  0  0  0  0  0  0  0  0  0  0
   27.9648  -19.5627  -10.0012 C   0  0  0  0  0  0  0  0  0  0  0  0
   27.1843  -19.1050   -8.9598 C   0  0  0  0  0  0  0  0  0  0  0  0
   25.9901  -19.7344   -8.6993 C   0  0  0  0  0  0  0  0  0  0  0  0
   25.6181  -20.7999   -9.4899 C   0  0  0  0  0  0  0  0  0  0  0  0
   23.9239  -21.1727  -12.0987 C   0  0  0  0  0  0  0  0  0  0  0  0
   23.8476  -19.9383  -12.3215 O   0  0  0  0  0  0  0  0  0  0  0  0
   22.8636  -21.8026  -11.4893 O   0  0  0  0  0  0  0  0  0  0  0  0
  2  1  1  6
  2 13  1  0
  2  3  1  0
  3  4  1  0
  4  5  2  0
  5  6  1  0
  7  6  1  0
  8  7  2  0
  9  8  1  0
 10 11  1  0
 10  9  2  0
 11 12  2  0
 12  4  1  0
 12  7  1  0
 13 15  1  0
 14 13  2  0
 15 16  1  0
 17 18  2  0
 17 16  1  0
 19 17  1  0
 20 21  1  1
 20 19  1  0
 21 22  1  0
 22 23  2  0
 23 24  1  0
 25 24  2  0
 26 25  1  0
 27 26  2  0
 27 22  1  0
 28 30  1  0
 28 20  1  0
 29 28  2  0
M  END
$$$$
