WGF.pdb
     RDKit          3D

 30 32  0  0  1  0  0  0  0  0999 V2000
   23.9684  -23.1433  -19.5469 N   0  0  0  0  0  0  0  0  0  0  0  0
   25.3900  -22.9419  -19.7159 C   0  0  1  0  0  0  0  0  0  0  0  0
   25.8063  -21.5146  -19.5224 C   0  0  0  0  0  0  0  0  0  0  0  0
   25.0024  -20.5321  -20.2862 C   0  0  0  0  0  0  0  0  0  0  0  0
   23.9372  -19.8033  -19.7410 C   0  0  0  0  0  0  0  0  0  0  0  0
   23.4121  -19.0209  -20.6981 N   0  0  0  0  0  0  0  0  0  0  0  0
   24.0654  -19.1814  -21.8607 C   0  0  0  0  0  0  0  0  0  0  0  0
   23.8999  -18.6052  -23.0993 C   0  0  0  0  0  0  0  0  0  0  0  0
   24.7410  -18.9676  -24.1249 C   0  0  0  0  0  0  0  0  0  0  0  0
   25.7208  -19.9004  -23.8625 C   0  0  0  0  0  0  0  0  0  0  0  0
   25.8950  -20.4866  -22.6171 C   0  0  0  0  0  0  0  0  0  0  0  0
   25.0629  -20.1292  -21.6015 C   0  0  0  0  0  0  0  0  0  0  0  0
   26.1660  -23.8822  -18.8751 C   0  0  0  0  0  0  0  0  0  0  0  0
   27.3946  -23.7094  -18.7485 O   0  0  0  0  0  0  0  0  0  0  0  0
   25.5417  -24.9687  -18.2156 N   0  0  0  0  0  0  0  0  0  0  0  0
   26.1381  -25.6770  -17.1112 C   0  0  0  0  0  0  0  0  0  0  0  0
   25.6585  -25.2024  -15.7953 C   0  0  0  0  0  0  0  0  0  0  0  0
   26.1111  -25.7081  -14.7114 O   0  0  0  0  0  0  0  0  0  0  0  0
   24.6862  -24.1829  -15.6555 N   0  0  0  0  0  0  0  0  0  0  0  0
   24.5496  -23.4452  -14.4391 C   0  0  1  0  0  0  0  0  0  0  0  0
   25.7333  -22.6546  -14.0133 C   0  0  0  0  0  0  0  0  0  0  0  0
   25.4147  -21.9224  -12.7738 C   0  0  0  0  0  0  0  0  0  0  0  0
   25.5780  -22.4748  -11.5269 C   0  0  0  0  0  0  0  0  0  0  0  0
   25.2562  -21.7224  -10.4232 C   0  0  0  0  0  0  0  0  0  0  0  0
   24.7752  -20.4332  -10.5224 C   0  0  0  0  0  0  0  0  0  0  0  0
   24.6117  -19.8804  -11.7705 C   0  0  0  0  0  0  0  0  0  0  0  0
   24.9351  -20.6366  -12.8762 C   0  0  0  0  0  0  0  0  0  0  0  0
   23.3299  -22.5641  -14.5705 C   0  0  0  0  0  0  0  0  0  0  0  0
   22.7216  -22.2167  -13.5272 O   0  0  0  0  0  0  0  0  0  0  0  0
   22.8590  -22.1293  -15.7877 O   0  0  0  0  0  0  0  0  0  0  0  0
  2  1  1  1
  2 13  1  0
  2  3  1  0
  3  4  1  0
  4  5  2  0
  5  6  1  0
  7  6  1  0
  8  7  2  0
  9  8  1  0
 10 11  1  0
 10  9  2  0
 11 12  2  0
 12  4  1  0
 12  7  1  0
 13 15  1  0
 14 13  2  0
 15 16  1  0
 17 18  2  0
 17 16  1  0
 19 17  1  0
 20 21  1  6
 20 19  1  0
 21 22  1  0
 22 23  2  0
 23 24  1  0
 25 24  2  0
 26 25  1  0
 27 26  2  0
 27 22  1  0
 28 30  1  0
 28 20  1  0
 29 28  2  0
M  END
$$$$
