WGF.pdb
     RDKit          3D

 30 32  0  0  1  0  0  0  0  0999 V2000
   25.0293  -19.1371  -16.6685 N   0  0  0  0  0  0  0  0  0  0  0  0
   24.7229  -18.6078  -15.3585 C   0  0  1  0  0  0  0  0  0  0  0  0
   23.3346  -18.9422  -14.9019 C   0  0  0  0  0  0  0  0  0  0  0  0
   22.2717  -18.6180  -15.8818 C   0  0  0  0  0  0  0  0  0  0  0  0
   21.5417  -19.5825  -16.5888 C   0  0  0  0  0  0  0  0  0  0  0  0
   20.6756  -18.9591  -17.4045 N   0  0  0  0  0  0  0  0  0  0  0  0
   20.7808  -17.6252  -17.2865 C   0  0  0  0  0  0  0  0  0  0  0  0
   20.1149  -16.5893  -17.9003 C   0  0  0  0  0  0  0  0  0  0  0  0
   20.4380  -15.2946  -17.5684 C   0  0  0  0  0  0  0  0  0  0  0  0
   21.4235  -15.0922  -16.6267 C   0  0  0  0  0  0  0  0  0  0  0  0
   22.1002  -16.1304  -16.0029 C   0  0  0  0  0  0  0  0  0  0  0  0
   21.7818  -17.4120  -16.3310 C   0  0  0  0  0  0  0  0  0  0  0  0
   25.7574  -18.9939  -14.3715 C   0  0  0  0  0  0  0  0  0  0  0  0
   25.5625  -18.7522  -13.1636 O   0  0  0  0  0  0  0  0  0  0  0  0
   26.9578  -19.6293  -14.7721 N   0  0  0  0  0  0  0  0  0  0  0  0
   27.9779  -20.0562  -13.8479 C   0  0  0  0  0  0  0  0  0  0  0  0
   27.4647  -20.9692  -12.8039 C   0  0  0  0  0  0  0  0  0  0  0  0
   27.6938  -22.2260  -12.8620 O   0  0  0  0  0  0  0  0  0  0  0  0
   26.7007  -20.5197  -11.7001 N   0  0  0  0  0  0  0  0  0  0  0  0
   26.0749  -21.4395  -10.8028 C   0  0  1  0  0  0  0  0  0  0  0  0
   26.9728  -22.1435   -9.8512 C   0  0  0  0  0  0  0  0  0  0  0  0
   27.4974  -21.1795   -8.8666 C   0  0  0  0  0  0  0  0  0  0  0  0
   28.8044  -21.1922   -8.4444 C   0  0  0  0  0  0  0  0  0  0  0  0
   29.2107  -20.2573   -7.5231 C   0  0  0  0  0  0  0  0  0  0  0  0
   28.3537  -19.3072   -7.0074 C   0  0  0  0  0  0  0  0  0  0  0  0
   27.0455  -19.2946   -7.4299 C   0  0  0  0  0  0  0  0  0  0  0  0
   26.6400  -20.2330   -8.3540 C   0  0  0  0  0  0  0  0  0  0  0  0
   24.9851  -20.6955  -10.0681 C   0  0  0  0  0  0  0  0  0  0  0  0
   24.2627  -21.3291   -9.2582 O   0  0  0  0  0  0  0  0  0  0  0  0
   24.7521  -19.3524  -10.2529 O   0  0  0  0  0  0  0  0  0  0  0  0
  2  1  1  6
  2 13  1  0
  2  3  1  0
  3  4  1  0
  4  5  2  0
  5  6  1  0
  7  6  1  0
  8  7  2  0
  9  8  1  0
 10 11  1  0
 10  9  2  0
 11 12  2  0
 12  4  1  0
 12  7  1  0
 13 15  1  0
 14 13  2  0
 15 16  1  0
 17 18  2  0
 17 16  1  0
 19 17  1  0
 20 21  1  1
 20 19  1  0
 21 22  1  0
 22 23  2  0
 23 24  1  0
 25 24  2  0
 26 25  1  0
 27 26  2  0
 27 22  1  0
 28 30  1  0
 28 20  1  0
 29 28  2  0
M  END
$$$$
