VHK.pdb
     RDKit          3D

 27 27  0  0  1  0  0  0  0  0999 V2000
    9.3021  -12.3246   20.1262 C   0  0  0  0  0  0  0  0  0  0  0  0
    8.2875  -13.3677   19.6825 C   0  0  1  0  0  0  0  0  0  0  0  0
    6.9238  -12.7264   19.4909 C   0  0  0  0  0  0  0  0  0  0  0  0
    8.7650  -14.0413   18.4215 C   0  0  2  0  0  0  0  0  0  0  0  0
    7.8168  -15.0290   17.9501 N   0  0  0  0  0  0  0  0  0  0  0  0
   10.0933  -14.6654   18.7108 C   0  0  0  0  0  0  0  0  0  0  0  0
   10.1723  -15.8013   19.2430 O   0  0  0  0  0  0  0  0  0  0  0  0
   11.3210  -14.0125   18.4019 N   0  0  0  0  0  0  0  0  0  0  0  0
   12.6184  -14.6361   18.5966 C   0  0  1  0  0  0  0  0  0  0  0  0
   13.6569  -14.0783   17.6729 C   0  0  0  0  0  0  0  0  0  0  0  0
   14.9253  -14.8001   17.7848 C   0  0  0  0  0  0  0  0  0  0  0  0
   15.0665  -16.0485   18.3809 C   0  0  0  0  0  0  0  0  0  0  0  0
   16.3583  -16.4128   18.3111 N   0  0  0  0  0  0  0  0  0  0  0  0
   17.0291  -15.4355   17.6922 C   0  0  0  0  0  0  0  0  0  0  0  0
   16.1751  -14.4731   17.3779 N   0  0  0  0  0  0  0  0  0  0  0  0
   13.0140  -14.6326   20.0274 C   0  0  0  0  0  0  0  0  0  0  0  0
   13.3618  -13.5689   20.5809 O   0  0  0  0  0  0  0  0  0  0  0  0
   13.0139  -15.8095   20.8088 N   0  0  0  0  0  0  0  0  0  0  0  0
   13.2873  -15.8904   22.2034 C   0  0  1  0  0  0  0  0  0  0  0  0
   12.5813  -17.0823   22.8578 C   0  0  0  0  0  0  0  0  0  0  0  0
   12.8716  -17.1140   24.3450 C   0  0  0  0  0  0  0  0  0  0  0  0
   12.2323  -18.3336   24.9495 C   0  0  0  0  0  0  0  0  0  0  0  0
   12.4123  -18.3971   26.4430 C   0  0  0  0  0  0  0  0  0  0  0  0
   11.8380  -19.5901   26.9984 N   0  0  0  0  0  0  0  0  0  0  0  0
   14.6957  -15.8708   22.5639 C   0  0  0  0  0  0  0  0  0  0  0  0
   15.1146  -15.0781   23.4314 O   0  0  0  0  0  0  0  0  0  0  0  0
   15.5916  -16.7238   21.9568 O   0  0  0  0  0  0  0  0  0  0  0  0
  2  1  1  6
  2  4  1  0
  2  3  1  0
  4  5  1  1
  6  4  1  0
  6  7  2  0
  8  6  1  0
  9  8  1  0
  9 10  1  6
 11 10  1  0
 11 15  1  0
 12 13  1  0
 12 11  2  0
 13 14  1  0
 14 15  2  0
 16  9  1  0
 17 16  2  0
 18 16  1  0
 19 18  1  0
 19 25  1  0
 19 20  1  6
 21 20  1  0
 21 22  1  0
 23 24  1  0
 23 22  1  0
 25 27  1  0
 26 25  2  0
M  END
$$$$
