VHK.pdb
     RDKit          3D

 27 27  0  0  1  0  0  0  0  0999 V2000
    8.9205  -21.5549   15.2670 C   0  0  0  0  0  0  0  0  0  0  0  0
    9.2354  -20.4410   16.2539 C   0  0  1  0  0  0  0  0  0  0  0  0
   10.4262  -20.8236   17.1161 C   0  0  0  0  0  0  0  0  0  0  0  0
    9.4811  -19.1533   15.5100 C   0  0  2  0  0  0  0  0  0  0  0  0
   10.6187  -19.2574   14.6203 N   0  0  0  0  0  0  0  0  0  0  0  0
    9.6868  -18.0718   16.5227 C   0  0  0  0  0  0  0  0  0  0  0  0
   10.8418  -17.7500   16.8999 O   0  0  0  0  0  0  0  0  0  0  0  0
    8.5983  -17.3604   17.1041 N   0  0  0  0  0  0  0  0  0  0  0  0
    8.7650  -16.4112   18.1909 C   0  0  1  0  0  0  0  0  0  0  0  0
    7.5729  -15.5185   18.3482 C   0  0  0  0  0  0  0  0  0  0  0  0
    7.7788  -14.5198   19.3983 C   0  0  0  0  0  0  0  0  0  0  0  0
    8.9301  -14.4224   20.1721 C   0  0  0  0  0  0  0  0  0  0  0  0
    8.7817  -13.4020   21.0342 N   0  0  0  0  0  0  0  0  0  0  0  0
    7.5777  -12.8586   20.8260 C   0  0  0  0  0  0  0  0  0  0  0  0
    6.9788  -13.5248   19.8504 N   0  0  0  0  0  0  0  0  0  0  0  0
    9.1865  -17.0873   19.4435 C   0  0  0  0  0  0  0  0  0  0  0  0
    8.6353  -18.1491   19.8008 O   0  0  0  0  0  0  0  0  0  0  0  0
   10.2091  -16.5688   20.2685 N   0  0  0  0  0  0  0  0  0  0  0  0
   10.6235  -17.0978   21.5234 C   0  0  1  0  0  0  0  0  0  0  0  0
   12.1453  -17.2549   21.6050 C   0  0  0  0  0  0  0  0  0  0  0  0
   12.5290  -18.0209   22.8552 C   0  0  0  0  0  0  0  0  0  0  0  0
   14.0178  -18.2326   22.8703 C   0  0  0  0  0  0  0  0  0  0  0  0
   14.4610  -19.1224   24.0012 C   0  0  0  0  0  0  0  0  0  0  0  0
   15.8680  -19.4016   23.9390 N   0  0  0  0  0  0  0  0  0  0  0  0
   10.1197  -16.3949   22.6923 C   0  0  0  0  0  0  0  0  0  0  0  0
    9.2854  -16.9377   23.4445 O   0  0  0  0  0  0  0  0  0  0  0  0
   10.5521  -15.1211   22.9907 O   0  0  0  0  0  0  0  0  0  0  0  0
  2  1  1  6
  2  4  1  0
  2  3  1  0
  4  5  1  1
  6  4  1  0
  6  7  2  0
  8  6  1  0
  9  8  1  0
  9 10  1  1
 11 10  1  0
 11 15  1  0
 12 13  1  0
 12 11  2  0
 13 14  1  0
 14 15  2  0
 16  9  1  0
 17 16  2  0
 18 16  1  0
 19 18  1  0
 19 25  1  0
 19 20  1  6
 21 20  1  0
 21 22  1  0
 23 24  1  0
 23 22  1  0
 25 27  1  0
 26 25  2  0
M  END
$$$$
