VHK.pdb
     RDKit          3D

 27 27  0  0  1  0  0  0  0  0999 V2000
    8.1222  -19.6308   16.8317 C   0  0  0  0  0  0  0  0  0  0  0  0
    8.7287  -18.4777   17.6169 C   0  0  1  0  0  0  0  0  0  0  0  0
    8.1190  -17.1597   17.1707 C   0  0  0  0  0  0  0  0  0  0  0  0
    8.5337  -18.7064   19.0939 C   0  0  2  0  0  0  0  0  0  0  0  0
    7.1346  -18.8681   19.4306 N   0  0  0  0  0  0  0  0  0  0  0  0
    9.1312  -17.5432   19.8200 C   0  0  0  0  0  0  0  0  0  0  0  0
   10.3419  -17.2399   19.6705 O   0  0  0  0  0  0  0  0  0  0  0  0
    8.3687  -16.7300   20.7067 N   0  0  0  0  0  0  0  0  0  0  0  0
    8.9451  -15.6354   21.4679 C   0  0  1  0  0  0  0  0  0  0  0  0
    8.0647  -14.4240   21.4695 C   0  0  0  0  0  0  0  0  0  0  0  0
    7.8696  -13.8944   20.1190 C   0  0  0  0  0  0  0  0  0  0  0  0
    8.6838  -12.9338   19.5289 C   0  0  0  0  0  0  0  0  0  0  0  0
    8.2195  -12.6792   18.2936 N   0  0  0  0  0  0  0  0  0  0  0  0
    7.1436  -13.4472   18.0914 C   0  0  0  0  0  0  0  0  0  0  0  0
    6.9342  -14.1724   19.1797 N   0  0  0  0  0  0  0  0  0  0  0  0
    9.3707  -16.0781   22.8195 C   0  0  0  0  0  0  0  0  0  0  0  0
    8.5597  -16.0679   23.7686 O   0  0  0  0  0  0  0  0  0  0  0  0
   10.6856  -16.5212   23.0844 N   0  0  0  0  0  0  0  0  0  0  0  0
   11.1309  -17.1619   24.2750 C   0  0  1  0  0  0  0  0  0  0  0  0
   11.7263  -18.5451   23.9934 C   0  0  0  0  0  0  0  0  0  0  0  0
   12.0715  -19.2440   25.2933 C   0  0  0  0  0  0  0  0  0  0  0  0
   12.8036  -20.5221   24.9904 C   0  0  0  0  0  0  0  0  0  0  0  0
   13.1212  -21.3116   26.2325 C   0  0  0  0  0  0  0  0  0  0  0  0
   13.9622  -22.4395   25.9462 N   0  0  0  0  0  0  0  0  0  0  0  0
   12.0317  -16.3778   25.1044 C   0  0  0  0  0  0  0  0  0  0  0  0
   12.2376  -16.6996   26.2920 O   0  0  0  0  0  0  0  0  0  0  0  0
   12.6727  -15.2686   24.5969 O   0  0  0  0  0  0  0  0  0  0  0  0
  2  1  1  6
  2  4  1  0
  2  3  1  0
  4  5  1  6
  6  4  1  0
  6  7  2  0
  8  6  1  0
  9  8  1  0
  9 10  1  1
 11 10  1  0
 11 15  1  0
 12 13  1  0
 12 11  2  0
 13 14  1  0
 14 15  2  0
 16  9  1  0
 17 16  2  0
 18 16  1  0
 19 18  1  0
 19 25  1  0
 19 20  1  6
 21 20  1  0
 21 22  1  0
 23 24  1  0
 23 22  1  0
 25 27  1  0
 26 25  2  0
M  END
$$$$
