VHK.pdb
     RDKit          3D

 27 27  0  0  1  0  0  0  0  0999 V2000
    7.6367  -12.0469   19.0468 C   0  0  0  0  0  0  0  0  0  0  0  0
    8.5392  -13.2040   19.4477 C   0  0  1  0  0  0  0  0  0  0  0  0
    7.9077  -13.9953   20.5803 C   0  0  0  0  0  0  0  0  0  0  0  0
    8.8153  -14.0758   18.2495 C   0  0  2  0  0  0  0  0  0  0  0  0
    7.5944  -14.6107   17.6837 N   0  0  0  0  0  0  0  0  0  0  0  0
    9.7334  -15.1738   18.6843 C   0  0  0  0  0  0  0  0  0  0  0  0
    9.2907  -16.3196   18.9511 O   0  0  0  0  0  0  0  0  0  0  0  0
   11.1383  -14.9796   18.8166 N   0  0  0  0  0  0  0  0  0  0  0  0
   12.0391  -16.0189   19.2838 C   0  0  1  0  0  0  0  0  0  0  0  0
   13.2190  -16.1921   18.3779 C   0  0  0  0  0  0  0  0  0  0  0  0
   13.0026  -17.2646   17.4057 C   0  0  0  0  0  0  0  0  0  0  0  0
   11.7509  -17.7273   17.0150 C   0  0  0  0  0  0  0  0  0  0  0  0
   11.9196  -18.7116   16.1155 N   0  0  0  0  0  0  0  0  0  0  0  0
   13.2332  -18.8800   15.9306 C   0  0  0  0  0  0  0  0  0  0  0  0
   13.8800  -18.0173   16.6998 N   0  0  0  0  0  0  0  0  0  0  0  0
   12.3938  -15.8289   20.7127 C   0  0  0  0  0  0  0  0  0  0  0  0
   12.8474  -14.7348   21.1077 O   0  0  0  0  0  0  0  0  0  0  0  0
   12.2363  -16.8575   21.6681 N   0  0  0  0  0  0  0  0  0  0  0  0
   12.6004  -16.7886   23.0425 C   0  0  1  0  0  0  0  0  0  0  0  0
   12.0793  -17.9921   23.8346 C   0  0  0  0  0  0  0  0  0  0  0  0
   12.5352  -17.9095   25.2777 C   0  0  0  0  0  0  0  0  0  0  0  0
   12.1221  -19.1615   26.0011 C   0  0  0  0  0  0  0  0  0  0  0  0
   12.5684  -19.1691   27.4390 C   0  0  0  0  0  0  0  0  0  0  0  0
   12.0175  -20.2806   28.1618 N   0  0  0  0  0  0  0  0  0  0  0  0
   14.0159  -16.5812   23.3019 C   0  0  0  0  0  0  0  0  0  0  0  0
   14.8744  -17.2498   22.6916 O   0  0  0  0  0  0  0  0  0  0  0  0
   14.4351  -15.6460   24.2230 O   0  0  0  0  0  0  0  0  0  0  0  0
  2  1  1  6
  2  4  1  0
  2  3  1  0
  4  5  1  1
  6  4  1  0
  6  7  2  0
  8  6  1  0
  9  8  1  0
  9 10  1  6
 11 10  1  0
 11 15  1  0
 12 13  1  0
 12 11  2  0
 13 14  1  0
 14 15  2  0
 16  9  1  0
 17 16  2  0
 18 16  1  0
 19 18  1  0
 19 25  1  0
 19 20  1  1
 21 20  1  0
 21 22  1  0
 23 24  1  0
 23 22  1  0
 25 27  1  0
 26 25  2  0
M  END
$$$$
