VHK.pdb
     RDKit          3D

 27 27  0  0  1  0  0  0  0  0999 V2000
    9.1433  -20.0683   20.9740 C   0  0  0  0  0  0  0  0  0  0  0  0
    9.4426  -19.8007   19.5067 C   0  0  1  0  0  0  0  0  0  0  0  0
    8.9980  -20.9783   18.6563 C   0  0  0  0  0  0  0  0  0  0  0  0
    8.7742  -18.5211   19.0738 C   0  0  2  0  0  0  0  0  0  0  0  0
    8.9777  -18.2610   17.6639 N   0  0  0  0  0  0  0  0  0  0  0  0
    9.3253  -17.4108   19.9111 C   0  0  0  0  0  0  0  0  0  0  0  0
   10.5366  -17.0837   19.8357 O   0  0  0  0  0  0  0  0  0  0  0  0
    8.5161  -16.6769   20.8251 N   0  0  0  0  0  0  0  0  0  0  0  0
    9.0352  -15.6028   21.6538 C   0  0  1  0  0  0  0  0  0  0  0  0
    8.1350  -14.4061   21.6558 C   0  0  0  0  0  0  0  0  0  0  0  0
    7.8550  -13.9365   20.2981 C   0  0  0  0  0  0  0  0  0  0  0  0
    8.5544  -12.9168   19.6618 C   0  0  0  0  0  0  0  0  0  0  0  0
    8.0369  -12.7443   18.4335 N   0  0  0  0  0  0  0  0  0  0  0  0
    7.0386  -13.6206   18.2802 C   0  0  0  0  0  0  0  0  0  0  0  0
    6.9294  -14.3322   19.3919 N   0  0  0  0  0  0  0  0  0  0  0  0
    9.4013  -16.0892   23.0077 C   0  0  0  0  0  0  0  0  0  0  0  0
    8.5235  -16.2273   23.8847 O   0  0  0  0  0  0  0  0  0  0  0  0
   10.7324  -16.4104   23.3551 N   0  0  0  0  0  0  0  0  0  0  0  0
   11.1764  -16.8923   24.6188 C   0  0  1  0  0  0  0  0  0  0  0  0
   11.6442  -18.3493   24.5446 C   0  0  0  0  0  0  0  0  0  0  0  0
   10.5246  -19.2362   24.0376 C   0  0  0  0  0  0  0  0  0  0  0  0
   11.0483  -20.6318   23.8386 C   0  0  0  0  0  0  0  0  0  0  0  0
   10.0428  -21.5344   23.1744 C   0  0  0  0  0  0  0  0  0  0  0  0
   10.5908  -22.8335   22.9030 N   0  0  0  0  0  0  0  0  0  0  0  0
   12.1740  -16.0693   25.2833 C   0  0  0  0  0  0  0  0  0  0  0  0
   12.4409  -16.2504   26.4886 O   0  0  0  0  0  0  0  0  0  0  0  0
   12.8413  -15.0776   24.5979 O   0  0  0  0  0  0  0  0  0  0  0  0
  2  1  1  1
  2  4  1  0
  2  3  1  0
  4  5  1  6
  6  4  1  0
  6  7  2  0
  8  6  1  0
  9  8  1  0
  9 10  1  1
 11 10  1  0
 11 15  1  0
 12 13  1  0
 12 11  2  0
 13 14  1  0
 14 15  2  0
 16  9  1  0
 17 16  2  0
 18 16  1  0
 19 18  1  0
 19 25  1  0
 19 20  1  6
 21 20  1  0
 21 22  1  0
 23 24  1  0
 23 22  1  0
 25 27  1  0
 26 25  2  0
M  END
$$$$
