VHK.pdb
     RDKit          3D

 27 27  0  0  1  0  0  0  0  0999 V2000
    8.5950  -12.9165   20.6218 C   0  0  0  0  0  0  0  0  0  0  0  0
    7.8517  -13.5973   19.4824 C   0  0  1  0  0  0  0  0  0  0  0  0
    7.6269  -12.6187   18.3425 C   0  0  0  0  0  0  0  0  0  0  0  0
    8.6177  -14.8126   19.0263 C   0  0  2  0  0  0  0  0  0  0  0  0
    7.9342  -15.5050   17.9537 N   0  0  0  0  0  0  0  0  0  0  0  0
    8.8051  -15.7066   20.2107 C   0  0  0  0  0  0  0  0  0  0  0  0
    7.8283  -16.2983   20.7358 O   0  0  0  0  0  0  0  0  0  0  0  0
   10.0839  -15.9304   20.7969 N   0  0  0  0  0  0  0  0  0  0  0  0
   10.2687  -16.6775   22.0288 C   0  0  1  0  0  0  0  0  0  0  0  0
   11.4815  -17.5548   21.9802 C   0  0  0  0  0  0  0  0  0  0  0  0
   11.2123  -18.8130   21.2825 C   0  0  0  0  0  0  0  0  0  0  0  0
   10.0264  -19.1013   20.6160 C   0  0  0  0  0  0  0  0  0  0  0  0
   10.1181  -20.3360   20.0933 N   0  0  0  0  0  0  0  0  0  0  0  0
   11.3200  -20.8294   20.4101 C   0  0  0  0  0  0  0  0  0  0  0  0
   11.9734  -19.9215   21.1194 N   0  0  0  0  0  0  0  0  0  0  0  0
   10.2090  -15.7899   23.2172 C   0  0  0  0  0  0  0  0  0  0  0  0
   11.0301  -14.8585   23.3480 O   0  0  0  0  0  0  0  0  0  0  0  0
    9.2397  -15.9575   24.2310 N   0  0  0  0  0  0  0  0  0  0  0  0
    9.1020  -15.1577   25.4004 C   0  0  1  0  0  0  0  0  0  0  0  0
    7.8253  -14.3114   25.3691 C   0  0  0  0  0  0  0  0  0  0  0  0
    7.8100  -13.3388   26.5315 C   0  0  0  0  0  0  0  0  0  0  0  0
    6.5765  -12.4829   26.4463 C   0  0  0  0  0  0  0  0  0  0  0  0
    6.5948  -11.3472   27.4346 C   0  0  0  0  0  0  0  0  0  0  0  0
    5.4872  -10.4545   27.2406 N   0  0  0  0  0  0  0  0  0  0  0  0
    9.2084  -15.8744   26.6609 C   0  0  0  0  0  0  0  0  0  0  0  0
    8.8339  -17.0614   26.7461 O   0  0  0  0  0  0  0  0  0  0  0  0
    9.7228  -15.2591   27.7815 O   0  0  0  0  0  0  0  0  0  0  0  0
  2  1  1  1
  2  4  1  0
  2  3  1  0
  4  5  1  6
  6  4  1  0
  6  7  2  0
  8  6  1  0
  9  8  1  0
  9 10  1  6
 11 10  1  0
 11 15  1  0
 12 13  1  0
 12 11  2  0
 13 14  1  0
 14 15  2  0
 16  9  1  0
 17 16  2  0
 18 16  1  0
 19 18  1  0
 19 25  1  0
 19 20  1  6
 21 20  1  0
 21 22  1  0
 23 24  1  0
 23 22  1  0
 25 27  1  0
 26 25  2  0
M  END
$$$$
