VHK.pdb
     RDKit          3D

 27 27  0  0  1  0  0  0  0  0999 V2000
    6.1068  -11.0467   27.2958 C   0  0  0  0  0  0  0  0  0  0  0  0
    6.8524  -12.0784   26.4629 C   0  0  1  0  0  0  0  0  0  0  0  0
    7.9617  -12.7141   27.2831 C   0  0  0  0  0  0  0  0  0  0  0  0
    5.8856  -13.1117   25.9437 C   0  0  2  0  0  0  0  0  0  0  0  0
    5.3907  -13.9632   27.0053 N   0  0  0  0  0  0  0  0  0  0  0  0
    6.5909  -13.9128   24.8957 C   0  0  0  0  0  0  0  0  0  0  0  0
    7.1137  -15.0219   25.1720 O   0  0  0  0  0  0  0  0  0  0  0  0
    6.7048  -13.4653   23.5482 N   0  0  0  0  0  0  0  0  0  0  0  0
    7.3829  -14.2302   22.5162 C   0  0  1  0  0  0  0  0  0  0  0  0
    7.3179  -13.5568   21.1801 C   0  0  0  0  0  0  0  0  0  0  0  0
    7.8694  -14.4021   20.1201 C   0  0  0  0  0  0  0  0  0  0  0  0
    8.4494  -15.6478   20.3332 C   0  0  0  0  0  0  0  0  0  0  0  0
    8.8478  -16.1430   19.1490 N   0  0  0  0  0  0  0  0  0  0  0  0
    8.5370  -15.2500   18.2034 C   0  0  0  0  0  0  0  0  0  0  0  0
    7.9533  -14.2112   18.7818 N   0  0  0  0  0  0  0  0  0  0  0  0
    8.7540  -14.6140   22.9364 C   0  0  0  0  0  0  0  0  0  0  0  0
    9.4423  -13.8325   23.6250 O   0  0  0  0  0  0  0  0  0  0  0  0
    9.3274  -15.8555   22.5821 N   0  0  0  0  0  0  0  0  0  0  0  0
   10.5461  -16.3909   23.0866 C   0  0  1  0  0  0  0  0  0  0  0  0
   10.4730  -16.6624   24.5926 C   0  0  0  0  0  0  0  0  0  0  0  0
    9.5439  -17.8266   24.8729 C   0  0  0  0  0  0  0  0  0  0  0  0
    9.4569  -18.0458   26.3581 C   0  0  0  0  0  0  0  0  0  0  0  0
    8.5518  -19.1938   26.7183 C   0  0  0  0  0  0  0  0  0  0  0  0
    9.2963  -20.3479   27.1369 N   0  0  0  0  0  0  0  0  0  0  0  0
   11.0526  -17.5573   22.3817 C   0  0  0  0  0  0  0  0  0  0  0  0
   12.1855  -18.0101   22.6425 O   0  0  0  0  0  0  0  0  0  0  0  0
   10.2944  -18.1828   21.4160 O   0  0  0  0  0  0  0  0  0  0  0  0
  2  1  1  1
  2  4  1  0
  2  3  1  0
  4  5  1  1
  6  4  1  0
  6  7  2  0
  8  6  1  0
  9  8  1  0
  9 10  1  6
 11 10  1  0
 11 15  1  0
 12 13  1  0
 12 11  2  0
 13 14  1  0
 14 15  2  0
 16  9  1  0
 17 16  2  0
 18 16  1  0
 19 18  1  0
 19 25  1  0
 19 20  1  1
 21 20  1  0
 21 22  1  0
 23 24  1  0
 23 22  1  0
 25 27  1  0
 26 25  2  0
M  END
$$$$
