VHK.pdb
     RDKit          3D

 27 27  0  0  1  0  0  0  0  0999 V2000
    8.9759  -20.7435   18.0313 C   0  0  0  0  0  0  0  0  0  0  0  0
    9.4044  -19.7877   19.1345 C   0  0  1  0  0  0  0  0  0  0  0  0
   10.7760  -20.1736   19.6611 C   0  0  0  0  0  0  0  0  0  0  0  0
    9.3872  -18.3714   18.6191 C   0  0  2  0  0  0  0  0  0  0  0  0
   10.3481  -18.1777   17.5532 N   0  0  0  0  0  0  0  0  0  0  0  0
    9.6712  -17.4614   19.7717 C   0  0  0  0  0  0  0  0  0  0  0  0
   10.8373  -17.0519   20.0007 O   0  0  0  0  0  0  0  0  0  0  0  0
    8.6477  -17.0179   20.6577 N   0  0  0  0  0  0  0  0  0  0  0  0
    8.9011  -16.1217   21.7724 C   0  0  1  0  0  0  0  0  0  0  0  0
    7.8241  -15.0923   21.9248 C   0  0  0  0  0  0  0  0  0  0  0  0
    7.6978  -14.2592   20.7279 C   0  0  0  0  0  0  0  0  0  0  0  0
    8.7442  -13.5423   20.1582 C   0  0  0  0  0  0  0  0  0  0  0  0
    8.2791  -12.8907   19.0786 N   0  0  0  0  0  0  0  0  0  0  0  0
    6.9786  -13.1756   18.9540 C   0  0  0  0  0  0  0  0  0  0  0  0
    6.6309  -13.9919   19.9374 N   0  0  0  0  0  0  0  0  0  0  0  0
    9.2027  -16.8733   23.0165 C   0  0  0  0  0  0  0  0  0  0  0  0
    8.3312  -17.5979   23.5401 O   0  0  0  0  0  0  0  0  0  0  0  0
   10.4639  -16.8023   23.6489 N   0  0  0  0  0  0  0  0  0  0  0  0
   10.8666  -17.5340   24.8015 C   0  0  1  0  0  0  0  0  0  0  0  0
   12.3857  -17.7250   24.8576 C   0  0  0  0  0  0  0  0  0  0  0  0
   12.8726  -18.4387   23.6123 C   0  0  0  0  0  0  0  0  0  0  0  0
   14.3658  -18.6018   23.6856 C   0  0  0  0  0  0  0  0  0  0  0  0
   14.9244  -19.3291   22.4915 C   0  0  0  0  0  0  0  0  0  0  0  0
   16.3465  -19.5005   22.5897 N   0  0  0  0  0  0  0  0  0  0  0  0
   10.3695  -17.0228   26.0686 C   0  0  0  0  0  0  0  0  0  0  0  0
    9.8473  -15.8915   26.1319 O   0  0  0  0  0  0  0  0  0  0  0  0
   10.4650  -17.7746   27.2194 O   0  0  0  0  0  0  0  0  0  0  0  0
  2  1  1  6
  2  4  1  0
  2  3  1  0
  4  5  1  6
  6  4  1  0
  6  7  2  0
  8  6  1  0
  9  8  1  0
  9 10  1  1
 11 10  1  0
 11 15  1  0
 12 13  1  0
 12 11  2  0
 13 14  1  0
 14 15  2  0
 16  9  1  0
 17 16  2  0
 18 16  1  0
 19 18  1  0
 19 25  1  0
 19 20  1  1
 21 20  1  0
 21 22  1  0
 23 24  1  0
 23 22  1  0
 25 27  1  0
 26 25  2  0
M  END
$$$$
