VHK.pdb
     RDKit          3D

 27 27  0  0  1  0  0  0  0  0999 V2000
    9.4385  -20.2732   18.8356 C   0  0  0  0  0  0  0  0  0  0  0  0
    9.6327  -19.5754   17.4979 C   0  0  1  0  0  0  0  0  0  0  0  0
    9.1788  -20.4779   16.3634 C   0  0  0  0  0  0  0  0  0  0  0  0
    8.8904  -18.2636   17.4930 C   0  0  2  0  0  0  0  0  0  0  0  0
    9.0982  -17.5353   16.2588 N   0  0  0  0  0  0  0  0  0  0  0  0
    9.3568  -17.4695   18.6717 C   0  0  0  0  0  0  0  0  0  0  0  0
   10.5315  -17.0259   18.7290 O   0  0  0  0  0  0  0  0  0  0  0  0
    8.5046  -17.1790   19.7754 N   0  0  0  0  0  0  0  0  0  0  0  0
    8.9418  -16.4174   20.9325 C   0  0  1  0  0  0  0  0  0  0  0  0
    7.9318  -15.3927   21.3480 C   0  0  0  0  0  0  0  0  0  0  0  0
    7.8300  -14.3059   20.3729 C   0  0  0  0  0  0  0  0  0  0  0  0
    6.8162  -14.1936   19.4277 C   0  0  0  0  0  0  0  0  0  0  0  0
    7.0310  -13.0849   18.6990 N   0  0  0  0  0  0  0  0  0  0  0  0
    8.1436  -12.5006   19.1560 C   0  0  0  0  0  0  0  0  0  0  0  0
    8.6209  -13.2283   20.1545 N   0  0  0  0  0  0  0  0  0  0  0  0
    9.3902  -17.3083   22.0320 C   0  0  0  0  0  0  0  0  0  0  0  0
    8.7074  -18.3030   22.3532 O   0  0  0  0  0  0  0  0  0  0  0  0
   10.5852  -17.0736   22.7478 N   0  0  0  0  0  0  0  0  0  0  0  0
   11.1088  -17.8837   23.7946 C   0  0  1  0  0  0  0  0  0  0  0  0
   12.5633  -18.2879   23.5338 C   0  0  0  0  0  0  0  0  0  0  0  0
   13.0495  -19.2313   24.6159 C   0  0  0  0  0  0  0  0  0  0  0  0
   14.4587  -19.6560   24.3077 C   0  0  0  0  0  0  0  0  0  0  0  0
   15.0064  -20.6172   25.3291 C   0  0  0  0  0  0  0  0  0  0  0  0
   16.2715  -21.1616   24.9234 N   0  0  0  0  0  0  0  0  0  0  0  0
   10.9627  -17.3400   25.1351 C   0  0  0  0  0  0  0  0  0  0  0  0
   10.7261  -18.0943   26.1003 O   0  0  0  0  0  0  0  0  0  0  0  0
   11.0822  -15.9866   25.3647 O   0  0  0  0  0  0  0  0  0  0  0  0
  2  1  1  1
  2  4  1  0
  2  3  1  0
  4  5  1  6
  6  4  1  0
  6  7  2  0
  8  6  1  0
  9  8  1  0
  9 10  1  1
 11 10  1  0
 11 15  1  0
 12 13  1  0
 12 11  2  0
 13 14  1  0
 14 15  2  0
 16  9  1  0
 17 16  2  0
 18 16  1  0
 19 18  1  0
 19 25  1  0
 19 20  1  6
 21 20  1  0
 21 22  1  0
 23 24  1  0
 23 22  1  0
 25 27  1  0
 26 25  2  0
M  END
$$$$
