VHK.pdb
     RDKit          3D

 27 27  0  0  1  0  0  0  0  0999 V2000
    5.6931  -20.2047   19.4651 C   0  0  0  0  0  0  0  0  0  0  0  0
    6.7560  -19.2256   19.9403 C   0  0  1  0  0  0  0  0  0  0  0  0
    7.9756  -19.9777   20.4449 C   0  0  0  0  0  0  0  0  0  0  0  0
    7.1125  -18.2769   18.8247 C   0  0  2  0  0  0  0  0  0  0  0  0
    7.5964  -18.9820   17.6561 N   0  0  0  0  0  0  0  0  0  0  0  0
    8.1433  -17.3258   19.3446 C   0  0  0  0  0  0  0  0  0  0  0  0
    9.3691  -17.5390   19.1658 O   0  0  0  0  0  0  0  0  0  0  0  0
    7.7931  -16.1448   20.0599 N   0  0  0  0  0  0  0  0  0  0  0  0
    8.7792  -15.2084   20.5704 C   0  0  1  0  0  0  0  0  0  0  0  0
    8.3890  -13.7847   20.3185 C   0  0  0  0  0  0  0  0  0  0  0  0
    8.1687  -13.5273   18.8945 C   0  0  0  0  0  0  0  0  0  0  0  0
    6.9687  -13.0757   18.3564 C   0  0  0  0  0  0  0  0  0  0  0  0
    7.1164  -12.9489   17.0266 N   0  0  0  0  0  0  0  0  0  0  0  0
    8.3670  -13.3055   16.7151 C   0  0  0  0  0  0  0  0  0  0  0  0
    8.9954  -13.6507   17.8288 N   0  0  0  0  0  0  0  0  0  0  0  0
    9.1266  -15.5015   21.9836 C   0  0  0  0  0  0  0  0  0  0  0  0
    8.2292  -15.7711   22.8086 O   0  0  0  0  0  0  0  0  0  0  0  0
   10.4612  -15.4882   22.4465 N   0  0  0  0  0  0  0  0  0  0  0  0
   10.9628  -16.1876   23.5803 C   0  0  1  0  0  0  0  0  0  0  0  0
   10.6215  -17.6804   23.5301 C   0  0  0  0  0  0  0  0  0  0  0  0
   11.6180  -18.4191   22.6592 C   0  0  0  0  0  0  0  0  0  0  0  0
   11.3087  -19.8904   22.6895 C   0  0  0  0  0  0  0  0  0  0  0  0
   12.1771  -20.6804   21.7468 C   0  0  0  0  0  0  0  0  0  0  0  0
   11.8522  -22.0788   21.7688 N   0  0  0  0  0  0  0  0  0  0  0  0
   12.3780  -15.9967   23.8537 C   0  0  0  0  0  0  0  0  0  0  0  0
   13.1214  -15.4739   22.9989 O   0  0  0  0  0  0  0  0  0  0  0  0
   12.9235  -16.3878   25.0571 O   0  0  0  0  0  0  0  0  0  0  0  0
  2  1  1  6
  2  4  1  0
  2  3  1  0
  4  5  1  6
  6  4  1  0
  6  7  2  0
  8  6  1  0
  9  8  1  0
  9 10  1  1
 11 10  1  0
 11 15  1  0
 12 13  1  0
 12 11  2  0
 13 14  1  0
 14 15  2  0
 16  9  1  0
 17 16  2  0
 18 16  1  0
 19 18  1  0
 19 25  1  0
 19 20  1  6
 21 20  1  0
 21 22  1  0
 23 24  1  0
 23 22  1  0
 25 27  1  0
 26 25  2  0
M  END
$$$$
