VHK.pdb
     RDKit          3D

 27 27  0  0  1  0  0  0  0  0999 V2000
    9.0072  -19.3256   16.8010 C   0  0  0  0  0  0  0  0  0  0  0  0
    9.3861  -18.0389   17.5185 C   0  0  1  0  0  0  0  0  0  0  0  0
    8.4343  -16.9205   17.1300 C   0  0  0  0  0  0  0  0  0  0  0  0
    9.3935  -18.2675   19.0084 C   0  0  2  0  0  0  0  0  0  0  0  0
    8.1047  -18.7221   19.4868 N   0  0  0  0  0  0  0  0  0  0  0  0
    9.7899  -16.9840   19.6663 C   0  0  0  0  0  0  0  0  0  0  0  0
   10.8588  -16.4005   19.3550 O   0  0  0  0  0  0  0  0  0  0  0  0
    8.9866  -16.3651   20.6667 N   0  0  0  0  0  0  0  0  0  0  0  0
    9.3538  -15.1186   21.3156 C   0  0  1  0  0  0  0  0  0  0  0  0
    8.2554  -14.1028   21.2491 C   0  0  0  0  0  0  0  0  0  0  0  0
    7.9372  -13.7388   19.8675 C   0  0  0  0  0  0  0  0  0  0  0  0
    6.6687  -13.8305   19.3053 C   0  0  0  0  0  0  0  0  0  0  0  0
    6.7358  -13.4192   18.0275 N   0  0  0  0  0  0  0  0  0  0  0  0
    8.0020  -13.0736   17.7719 C   0  0  0  0  0  0  0  0  0  0  0  0
    8.7194  -13.2639   18.8689 N   0  0  0  0  0  0  0  0  0  0  0  0
    9.8820  -15.3526   22.6831 C   0  0  0  0  0  0  0  0  0  0  0  0
    9.1232  -15.2763   23.6717 O   0  0  0  0  0  0  0  0  0  0  0  0
   11.2390  -15.6655   22.9200 N   0  0  0  0  0  0  0  0  0  0  0  0
   11.7380  -16.5033   23.9570 C   0  0  1  0  0  0  0  0  0  0  0  0
   11.0658  -17.8800   23.9550 C   0  0  0  0  0  0  0  0  0  0  0  0
   11.5989  -18.7274   25.0930 C   0  0  0  0  0  0  0  0  0  0  0  0
   10.9076  -20.0629   25.0833 C   0  0  0  0  0  0  0  0  0  0  0  0
   11.3568  -20.9515   26.2128 C   0  0  0  0  0  0  0  0  0  0  0  0
   10.5779  -22.1554   26.2853 N   0  0  0  0  0  0  0  0  0  0  0  0
   13.1846  -16.6417   24.0037 C   0  0  0  0  0  0  0  0  0  0  0  0
   13.8504  -16.6728   22.9490 O   0  0  0  0  0  0  0  0  0  0  0  0
   13.8456  -16.7410   25.2086 O   0  0  0  0  0  0  0  0  0  0  0  0
  2  1  1  6
  2  4  1  0
  2  3  1  0
  4  5  1  1
  6  4  1  0
  6  7  2  0
  8  6  1  0
  9  8  1  0
  9 10  1  1
 11 10  1  0
 11 15  1  0
 12 13  1  0
 12 11  2  0
 13 14  1  0
 14 15  2  0
 16  9  1  0
 17 16  2  0
 18 16  1  0
 19 18  1  0
 19 25  1  0
 19 20  1  6
 21 20  1  0
 21 22  1  0
 23 24  1  0
 23 22  1  0
 25 27  1  0
 26 25  2  0
M  END
$$$$
