VHK.pdb
     RDKit          3D

 27 27  0  0  1  0  0  0  0  0999 V2000
    8.7247  -21.4269   18.2351 C   0  0  0  0  0  0  0  0  0  0  0  0
    9.2537  -20.3577   19.1790 C   0  0  1  0  0  0  0  0  0  0  0  0
   10.6907  -20.6624   19.5661 C   0  0  0  0  0  0  0  0  0  0  0  0
    9.1293  -19.0005   18.5353 C   0  0  2  0  0  0  0  0  0  0  0  0
    9.9027  -18.9140   17.3141 N   0  0  0  0  0  0  0  0  0  0  0  0
    9.5791  -17.9788   19.5308 C   0  0  0  0  0  0  0  0  0  0  0  0
   10.7968  -17.6966   19.6631 O   0  0  0  0  0  0  0  0  0  0  0  0
    8.6622  -17.2821   20.3693 N   0  0  0  0  0  0  0  0  0  0  0  0
    9.0860  -16.4156   21.4553 C   0  0  1  0  0  0  0  0  0  0  0  0
    8.0463  -15.3949   21.8014 C   0  0  0  0  0  0  0  0  0  0  0  0
    7.9505  -14.3512   20.7797 C   0  0  0  0  0  0  0  0  0  0  0  0
    8.7414  -14.2983   19.6371 C   0  0  0  0  0  0  0  0  0  0  0  0
    8.3908  -13.2147   18.9234 N   0  0  0  0  0  0  0  0  0  0  0  0
    7.4085  -12.5888   19.5803 C   0  0  0  0  0  0  0  0  0  0  0  0
    7.1453  -13.2660   20.6877 N   0  0  0  0  0  0  0  0  0  0  0  0
    9.5770  -17.1996   22.6164 C   0  0  0  0  0  0  0  0  0  0  0  0
    8.8081  -17.9748   23.2217 O   0  0  0  0  0  0  0  0  0  0  0  0
   10.9091  -17.1040   23.0769 N   0  0  0  0  0  0  0  0  0  0  0  0
   11.4834  -17.8516   24.1434 C   0  0  1  0  0  0  0  0  0  0  0  0
   12.9207  -18.2817   23.8330 C   0  0  0  0  0  0  0  0  0  0  0  0
   12.9657  -19.7568   23.4877 C   0  0  0  0  0  0  0  0  0  0  0  0
   14.3874  -20.1573   23.2053 C   0  0  0  0  0  0  0  0  0  0  0  0
   14.5070  -21.5990   22.7879 C   0  0  0  0  0  0  0  0  0  0  0  0
   15.8306  -21.9124   22.3285 N   0  0  0  0  0  0  0  0  0  0  0  0
   11.4099  -17.2249   25.4533 C   0  0  0  0  0  0  0  0  0  0  0  0
   11.6807  -17.8773   26.4817 O   0  0  0  0  0  0  0  0  0  0  0  0
   11.0412  -15.9036   25.5839 O   0  0  0  0  0  0  0  0  0  0  0  0
  2  1  1  6
  2  4  1  0
  2  3  1  0
  4  5  1  6
  6  4  1  0
  6  7  2  0
  8  6  1  0
  9  8  1  0
  9 10  1  1
 11 10  1  0
 11 15  1  0
 12 13  1  0
 12 11  2  0
 13 14  1  0
 14 15  2  0
 16  9  1  0
 17 16  2  0
 18 16  1  0
 19 18  1  0
 19 25  1  0
 19 20  1  6
 21 20  1  0
 21 22  1  0
 23 24  1  0
 23 22  1  0
 25 27  1  0
 26 25  2  0
M  END
$$$$
