VHK.pdb
     RDKit          3D

 27 27  0  0  1  0  0  0  0  0999 V2000
    7.6245  -12.2332   18.8031 C   0  0  0  0  0  0  0  0  0  0  0  0
    8.7440  -13.0890   19.3761 C   0  0  1  0  0  0  0  0  0  0  0  0
    8.2046  -13.9995   20.4659 C   0  0  0  0  0  0  0  0  0  0  0  0
    9.4021  -13.8762   18.2720 C   0  0  2  0  0  0  0  0  0  0  0  0
    8.4360  -14.6380   17.5083 N   0  0  0  0  0  0  0  0  0  0  0  0
   10.4235  -14.7734   18.8957 C   0  0  0  0  0  0  0  0  0  0  0  0
   10.1669  -15.9814   19.1297 O   0  0  0  0  0  0  0  0  0  0  0  0
   11.7228  -14.3108   19.2518 N   0  0  0  0  0  0  0  0  0  0  0  0
   12.6731  -15.1191   19.9957 C   0  0  1  0  0  0  0  0  0  0  0  0
   14.0786  -14.6273   19.8364 C   0  0  0  0  0  0  0  0  0  0  0  0
   14.6241  -14.9629   18.5203 C   0  0  0  0  0  0  0  0  0  0  0  0
   14.9089  -14.0301   17.5290 C   0  0  0  0  0  0  0  0  0  0  0  0
   15.3920  -14.6793   16.4560 N   0  0  0  0  0  0  0  0  0  0  0  0
   15.4189  -15.9853   16.7423 C   0  0  0  0  0  0  0  0  0  0  0  0
   14.9610  -16.1553   17.9734 N   0  0  0  0  0  0  0  0  0  0  0  0
   12.2484  -15.2964   21.4071 C   0  0  0  0  0  0  0  0  0  0  0  0
   11.1918  -14.7721   21.8161 O   0  0  0  0  0  0  0  0  0  0  0  0
   13.0066  -16.0510   22.3296 N   0  0  0  0  0  0  0  0  0  0  0  0
   12.4954  -17.0071   23.2520 C   0  0  1  0  0  0  0  0  0  0  0  0
   11.6814  -18.1003   22.5524 C   0  0  0  0  0  0  0  0  0  0  0  0
   10.1977  -17.8408   22.7208 C   0  0  0  0  0  0  0  0  0  0  0  0
    9.4227  -18.9710   22.1017 C   0  0  0  0  0  0  0  0  0  0  0  0
    7.9409  -18.8513   22.3404 C   0  0  0  0  0  0  0  0  0  0  0  0
    7.2094  -19.8974   21.6831 N   0  0  0  0  0  0  0  0  0  0  0  0
   13.4784  -17.5965   24.1467 C   0  0  0  0  0  0  0  0  0  0  0  0
   14.6395  -17.8212   23.7493 O   0  0  0  0  0  0  0  0  0  0  0  0
   13.1481  -17.9169   25.4455 O   0  0  0  0  0  0  0  0  0  0  0  0
  2  1  1  6
  2  4  1  0
  2  3  1  0
  4  5  1  1
  6  4  1  0
  6  7  2  0
  8  6  1  0
  9  8  1  0
  9 10  1  1
 11 10  1  0
 11 15  1  0
 12 13  1  0
 12 11  2  0
 13 14  1  0
 14 15  2  0
 16  9  1  0
 17 16  2  0
 18 16  1  0
 19 18  1  0
 19 25  1  0
 19 20  1  6
 21 20  1  0
 21 22  1  0
 23 24  1  0
 23 22  1  0
 25 27  1  0
 26 25  2  0
M  END
$$$$
