MVT.pdb
     RDKit          3D

 23 22  0  0  1  0  0  0  0  0999 V2000
    6.7823  -10.9157   26.8059 C   0  0  0  0  0  0  0  0  0  0  0  0
    6.3341  -12.2465   27.9073 S   0  0  0  0  0  0  0  0  0  0  0  0
    5.9247  -13.7956   27.1376 C   0  0  0  0  0  0  0  0  0  0  0  0
    6.8857  -14.3205   26.1372 C   0  0  0  0  0  0  0  0  0  0  0  0
    6.4165  -15.5661   25.4750 C   0  0  2  0  0  0  0  0  0  0  0  0
    6.3725  -16.6525   26.4168 N   0  0  0  0  0  0  0  0  0  0  0  0
    7.3686  -15.9880   24.3716 C   0  0  0  0  0  0  0  0  0  0  0  0
    7.8913  -17.1248   24.3928 O   0  0  0  0  0  0  0  0  0  0  0  0
    9.0810  -14.8045   19.7742 C   0  0  0  0  0  0  0  0  0  0  0  0
    8.2977  -14.5697   21.0221 C   0  0  1  0  0  0  0  0  0  0  0  0
    6.8484  -14.2658   20.8309 C   0  0  0  0  0  0  0  0  0  0  0  0
    8.5403  -15.4715   22.1626 C   0  0  2  0  0  0  0  0  0  0  0  0
    7.6850  -15.1235   23.3093 N   0  0  0  0  0  0  0  0  0  0  0  0
    9.9090  -15.7401   22.5774 C   0  0  0  0  0  0  0  0  0  0  0  0
   10.5336  -14.8002   23.1878 O   0  0  0  0  0  0  0  0  0  0  0  0
   11.5442  -18.3176   24.9496 C   0  0  0  0  0  0  0  0  0  0  0  0
   12.1459  -18.4436   23.5695 C   0  0  1  0  0  0  0  0  0  0  0  0
   11.4150  -19.4629   22.9208 O   0  0  0  0  0  0  0  0  0  0  0  0
   11.9954  -17.1286   22.8473 C   0  0  2  0  0  0  0  0  0  0  0  0
   10.6326  -16.9056   22.3923 N   0  0  0  0  0  0  0  0  0  0  0  0
   12.8632  -17.1553   21.6600 C   0  0  0  0  0  0  0  0  0  0  0  0
   12.3311  -17.2179   20.3897 O   0  0  0  0  0  0  0  0  0  0  0  0
   14.1012  -17.1213   21.7910 O   0  0  0  0  0  0  0  0  0  0  0  0
  2  1  1  0
  3  2  1  0
  4  3  1  0
  5  4  1  0
  5  7  1  0
  5  6  1  1
  7 13  1  0
  7  8  2  0
 10  9  1  6
 10 11  1  0
 12 10  1  0
 12 13  1  1
 14 12  1  0
 14 15  2  0
 17 16  1  1
 17 19  1  0
 18 17  1  0
 19 20  1  6
 20 14  1  0
 21 19  1  0
 22 21  1  0
 23 21  2  0
M  END
$$$$
