MVT.pdb
     RDKit          3D

 23 22  0  0  1  0  0  0  0  0999 V2000
    8.4627  -11.1090   19.9605 C   0  0  0  0  0  0  0  0  0  0  0  0
    8.2337  -12.5439   18.9242 S   0  0  0  0  0  0  0  0  0  0  0  0
    7.9380  -14.0800   19.7684 C   0  0  0  0  0  0  0  0  0  0  0  0
    7.1740  -14.0099   21.0378 C   0  0  0  0  0  0  0  0  0  0  0  0
    7.4752  -15.1340   21.9629 C   0  0  2  0  0  0  0  0  0  0  0  0
    6.2963  -15.9242   22.1975 N   0  0  0  0  0  0  0  0  0  0  0  0
    7.9276  -14.6190   23.3164 C   0  0  0  0  0  0  0  0  0  0  0  0
    8.2268  -13.4127   23.4622 O   0  0  0  0  0  0  0  0  0  0  0  0
    7.4336  -12.7337   25.3580 C   0  0  0  0  0  0  0  0  0  0  0  0
    7.5318  -13.9303   26.2438 C   0  0  1  0  0  0  0  0  0  0  0  0
    6.2498  -14.3936   26.8530 C   0  0  0  0  0  0  0  0  0  0  0  0
    8.3796  -15.0484   25.7925 C   0  0  2  0  0  0  0  0  0  0  0  0
    8.0214  -15.4731   24.4290 N   0  0  0  0  0  0  0  0  0  0  0  0
    8.5794  -16.1892   26.6736 C   0  0  0  0  0  0  0  0  0  0  0  0
    7.5307  -16.7789   27.1190 O   0  0  0  0  0  0  0  0  0  0  0  0
    9.9177  -19.3840   25.7915 C   0  0  0  0  0  0  0  0  0  0  0  0
   10.7166  -18.9989   27.0147 C   0  0  1  0  0  0  0  0  0  0  0  0
   11.9209  -18.4429   26.5305 O   0  0  0  0  0  0  0  0  0  0  0  0
    9.9355  -17.9841   27.8107 C   0  0  2  0  0  0  0  0  0  0  0  0
    9.7828  -16.7268   27.0969 N   0  0  0  0  0  0  0  0  0  0  0  0
   10.6754  -17.7058   29.0510 C   0  0  0  0  0  0  0  0  0  0  0  0
   10.8618  -18.6841   30.0044 O   0  0  0  0  0  0  0  0  0  0  0  0
   11.1465  -16.5712   29.2555 O   0  0  0  0  0  0  0  0  0  0  0  0
  2  1  1  0
  3  2  1  0
  4  3  1  0
  5  4  1  0
  5  7  1  0
  5  6  1  1
  7 13  1  0
  7  8  2  0
 10  9  1  6
 10 11  1  0
 12 10  1  0
 12 13  1  6
 14 12  1  0
 14 15  2  0
 17 16  1  6
 17 19  1  0
 18 17  1  0
 19 20  1  6
 20 14  1  0
 21 19  1  0
 22 21  1  0
 23 21  2  0
M  END
$$$$
