MVT.pdb
     RDKit          3D

 23 22  0  0  1  0  0  0  0  0999 V2000
    8.9214  -12.1411   18.5798 C   0  0  0  0  0  0  0  0  0  0  0  0
    7.3723  -12.5082   19.3864 S   0  0  0  0  0  0  0  0  0  0  0  0
    7.1879  -14.1618   20.0118 C   0  0  0  0  0  0  0  0  0  0  0  0
    8.3734  -15.0484   19.9196 C   0  0  0  0  0  0  0  0  0  0  0  0
    8.1236  -16.4140   20.4514 C   0  0  2  0  0  0  0  0  0  0  0  0
    6.8564  -16.9123   19.9873 N   0  0  0  0  0  0  0  0  0  0  0  0
    8.0558  -16.4040   21.9671 C   0  0  0  0  0  0  0  0  0  0  0  0
    6.9471  -16.3811   22.5468 O   0  0  0  0  0  0  0  0  0  0  0  0
   10.5974  -17.6306   26.0912 C   0  0  0  0  0  0  0  0  0  0  0  0
   10.3190  -17.5045   24.6309 C   0  0  1  0  0  0  0  0  0  0  0  0
   10.2913  -18.7845   23.8627 C   0  0  0  0  0  0  0  0  0  0  0  0
    9.2556  -16.5725   24.2147 C   0  0  2  0  0  0  0  0  0  0  0  0
    9.2227  -16.4199   22.7507 N   0  0  0  0  0  0  0  0  0  0  0  0
    9.1308  -15.2895   24.8899 C   0  0  0  0  0  0  0  0  0  0  0  0
    9.8355  -14.3169   24.4391 O   0  0  0  0  0  0  0  0  0  0  0  0
    6.3170  -12.8374   25.3524 C   0  0  0  0  0  0  0  0  0  0  0  0
    6.8250  -13.1925   26.7303 C   0  0  1  0  0  0  0  0  0  0  0  0
    5.9752  -14.2161   27.2036 O   0  0  0  0  0  0  0  0  0  0  0  0
    8.2471  -13.6808   26.6176 C   0  0  2  0  0  0  0  0  0  0  0  0
    8.3306  -14.9834   25.9772 N   0  0  0  0  0  0  0  0  0  0  0  0
    8.7948  -13.8158   27.9760 C   0  0  0  0  0  0  0  0  0  0  0  0
    8.9216  -12.7217   28.8052 O   0  0  0  0  0  0  0  0  0  0  0  0
    9.1539  -14.9319   28.3960 O   0  0  0  0  0  0  0  0  0  0  0  0
  2  1  1  0
  3  2  1  0
  4  3  1  0
  5  4  1  0
  5  7  1  0
  5  6  1  6
  7 13  1  0
  7  8  2  0
 10  9  1  1
 10 11  1  0
 12 10  1  0
 12 13  1  6
 14 12  1  0
 14 15  2  0
 17 16  1  6
 17 19  1  0
 18 17  1  0
 19 20  1  1
 20 14  1  0
 21 19  1  0
 22 21  1  0
 23 21  2  0
M  END
$$$$
