MVT.pdb
     RDKit          3D

 23 22  0  0  1  0  0  0  0  0999 V2000
    5.9873  -10.7585   26.9274 C   0  0  0  0  0  0  0  0  0  0  0  0
    6.9931  -12.0607   27.6188 S   0  0  0  0  0  0  0  0  0  0  0  0
    6.3355  -13.7074   27.4945 C   0  0  0  0  0  0  0  0  0  0  0  0
    6.2640  -14.2989   26.1361 C   0  0  0  0  0  0  0  0  0  0  0  0
    7.4374  -15.1506   25.8081 C   0  0  2  0  0  0  0  0  0  0  0  0
    8.6626  -14.4593   26.1086 N   0  0  0  0  0  0  0  0  0  0  0  0
    7.4764  -15.4767   24.3269 C   0  0  0  0  0  0  0  0  0  0  0  0
    6.5582  -16.1490   23.8066 O   0  0  0  0  0  0  0  0  0  0  0  0
    8.8042  -14.1931   19.8035 C   0  0  0  0  0  0  0  0  0  0  0  0
    8.5379  -14.0943   21.2682 C   0  0  1  0  0  0  0  0  0  0  0  0
    7.3527  -13.2742   21.6583 C   0  0  0  0  0  0  0  0  0  0  0  0
    8.6635  -15.3238   22.0714 C   0  0  2  0  0  0  0  0  0  0  0  0
    8.5324  -15.0374   23.5096 N   0  0  0  0  0  0  0  0  0  0  0  0
    9.7648  -16.2370   21.8053 C   0  0  0  0  0  0  0  0  0  0  0  0
   10.9021  -15.9543   22.3273 O   0  0  0  0  0  0  0  0  0  0  0  0
   11.5964  -20.5342   20.1150 C   0  0  0  0  0  0  0  0  0  0  0  0
   10.3986  -19.6235   20.2513 C   0  0  1  0  0  0  0  0  0  0  0  0
    9.4700  -20.3235   21.0524 O   0  0  0  0  0  0  0  0  0  0  0  0
   10.8303  -18.3427   20.9196 C   0  0  2  0  0  0  0  0  0  0  0  0
    9.7358  -17.3940   21.0460 N   0  0  0  0  0  0  0  0  0  0  0  0
   11.8684  -17.7175   20.0861 C   0  0  0  0  0  0  0  0  0  0  0  0
   13.1880  -17.7002   20.4850 O   0  0  0  0  0  0  0  0  0  0  0  0
   11.5631  -17.1913   18.9993 O   0  0  0  0  0  0  0  0  0  0  0  0
  2  1  1  0
  3  2  1  0
  4  3  1  0
  5  4  1  0
  5  7  1  0
  5  6  1  6
  7 13  1  0
  7  8  2  0
 10  9  1  6
 10 11  1  0
 12 10  1  0
 12 13  1  1
 14 12  1  0
 14 15  2  0
 17 16  1  1
 17 19  1  0
 18 17  1  0
 19 20  1  6
 20 14  1  0
 21 19  1  0
 22 21  1  0
 23 21  2  0
M  END
$$$$
