MVT.pdb
     RDKit          3D

 23 22  0  0  1  0  0  0  0  0999 V2000
    7.6011  -18.7390   21.5627 C   0  0  0  0  0  0  0  0  0  0  0  0
    6.2072  -17.7537   21.0417 S   0  0  0  0  0  0  0  0  0  0  0  0
    6.2290  -16.0453   21.5323 C   0  0  0  0  0  0  0  0  0  0  0  0
    7.0411  -15.1213   20.7036 C   0  0  0  0  0  0  0  0  0  0  0  0
    7.1153  -13.7467   21.2649 C   0  0  2  0  0  0  0  0  0  0  0  0
    7.9096  -12.8978   20.4176 N   0  0  0  0  0  0  0  0  0  0  0  0
    7.7861  -13.7497   22.6257 C   0  0  0  0  0  0  0  0  0  0  0  0
    9.0339  -13.7082   22.7118 O   0  0  0  0  0  0  0  0  0  0  0  0
    7.2049  -13.0692   27.5443 C   0  0  0  0  0  0  0  0  0  0  0  0
    6.9033  -12.9528   26.0878 C   0  0  1  0  0  0  0  0  0  0  0  0
    6.8215  -11.5618   25.5513 C   0  0  0  0  0  0  0  0  0  0  0  0
    7.5978  -13.8728   25.1691 C   0  0  2  0  0  0  0  0  0  0  0  0
    7.0329  -13.7985   23.8115 N   0  0  0  0  0  0  0  0  0  0  0  0
    7.8249  -15.2502   25.5801 C   0  0  0  0  0  0  0  0  0  0  0  0
    6.7955  -16.0077   25.6917 O   0  0  0  0  0  0  0  0  0  0  0  0
    9.3903  -18.0361   23.9306 C   0  0  0  0  0  0  0  0  0  0  0  0
   10.0784  -17.9999   25.2751 C   0  0  1  0  0  0  0  0  0  0  0  0
   11.3021  -17.3270   25.0651 O   0  0  0  0  0  0  0  0  0  0  0  0
    9.2092  -17.2471   26.2505 C   0  0  2  0  0  0  0  0  0  0  0  0
    9.0360  -15.8548   25.8694 N   0  0  0  0  0  0  0  0  0  0  0  0
    9.8680  -17.2710   27.5653 C   0  0  0  0  0  0  0  0  0  0  0  0
   10.0834  -18.4578   28.2330 O   0  0  0  0  0  0  0  0  0  0  0  0
   10.2423  -16.2079   28.0952 O   0  0  0  0  0  0  0  0  0  0  0  0
  2  1  1  0
  3  2  1  0
  4  3  1  0
  5  4  1  0
  5  7  1  0
  5  6  1  6
  7 13  1  0
  7  8  2  0
 10  9  1  1
 10 11  1  0
 12 10  1  0
 12 13  1  6
 14 12  1  0
 14 15  2  0
 17 16  1  6
 17 19  1  0
 18 17  1  0
 19 20  1  6
 20 14  1  0
 21 19  1  0
 22 21  1  0
 23 21  2  0
M  END
$$$$
