MVT.pdb
     RDKit          3D

 23 22  0  0  1  0  0  0  0  0999 V2000
   10.6813  -13.3526   28.0618 C   0  0  0  0  0  0  0  0  0  0  0  0
    9.6975  -14.3661   29.1527 S   0  0  0  0  0  0  0  0  0  0  0  0
    8.4599  -15.3788   28.3765 C   0  0  0  0  0  0  0  0  0  0  0  0
    8.6209  -15.6376   26.9249 C   0  0  0  0  0  0  0  0  0  0  0  0
    7.4612  -16.3505   26.3273 C   0  0  2  0  0  0  0  0  0  0  0  0
    7.3027  -17.6481   26.9276 N   0  0  0  0  0  0  0  0  0  0  0  0
    7.6713  -16.5831   24.8428 C   0  0  0  0  0  0  0  0  0  0  0  0
    7.7041  -17.7482   24.3873 O   0  0  0  0  0  0  0  0  0  0  0  0
    7.9251  -14.4656   20.2832 C   0  0  0  0  0  0  0  0  0  0  0  0
    7.6415  -14.4970   21.7476 C   0  0  1  0  0  0  0  0  0  0  0  0
    6.2542  -14.1173   22.1481 C   0  0  0  0  0  0  0  0  0  0  0  0
    8.1602  -15.6395   22.5211 C   0  0  2  0  0  0  0  0  0  0  0  0
    7.8327  -15.5089   23.9506 N   0  0  0  0  0  0  0  0  0  0  0  0
    9.5382  -16.0641   22.3241 C   0  0  0  0  0  0  0  0  0  0  0  0
   10.4571  -15.3430   22.8545 O   0  0  0  0  0  0  0  0  0  0  0  0
   11.6083  -19.3441   23.0031 C   0  0  0  0  0  0  0  0  0  0  0  0
   11.6451  -18.9828   21.5365 C   0  0  1  0  0  0  0  0  0  0  0  0
   10.6224  -19.7413   20.9258 O   0  0  0  0  0  0  0  0  0  0  0  0
   11.3825  -17.5054   21.3889 C   0  0  2  0  0  0  0  0  0  0  0  0
    9.9874  -17.1702   21.6234 N   0  0  0  0  0  0  0  0  0  0  0  0
   11.7086  -17.1171   20.0082 C   0  0  0  0  0  0  0  0  0  0  0  0
   13.0137  -17.0909   19.5646 O   0  0  0  0  0  0  0  0  0  0  0  0
   10.7994  -16.8043   19.2167 O   0  0  0  0  0  0  0  0  0  0  0  0
  2  1  1  0
  3  2  1  0
  4  3  1  0
  5  4  1  0
  5  7  1  0
  5  6  1  1
  7 13  1  0
  7  8  2  0
 10  9  1  6
 10 11  1  0
 12 10  1  0
 12 13  1  1
 14 12  1  0
 14 15  2  0
 17 16  1  1
 17 19  1  0
 18 17  1  0
 19 20  1  6
 20 14  1  0
 21 19  1  0
 22 21  1  0
 23 21  2  0
M  END
$$$$
