MVT.pdb
     RDKit          3D

 23 22  0  0  1  0  0  0  0  0999 V2000
    7.2399  -10.6311   26.8926 C   0  0  0  0  0  0  0  0  0  0  0  0
    6.1134  -11.6920   27.7818 S   0  0  0  0  0  0  0  0  0  0  0  0
    5.6251  -13.1862   26.9519 C   0  0  0  0  0  0  0  0  0  0  0  0
    6.6678  -13.8834   26.1602 C   0  0  0  0  0  0  0  0  0  0  0  0
    6.1431  -15.0514   25.4047 C   0  0  2  0  0  0  0  0  0  0  0  0
    5.7609  -16.1052   26.3063 N   0  0  0  0  0  0  0  0  0  0  0  0
    7.2057  -15.6294   24.4889 C   0  0  0  0  0  0  0  0  0  0  0  0
    7.7432  -16.7258   24.7628 O   0  0  0  0  0  0  0  0  0  0  0  0
    9.4150  -15.1349   19.9679 C   0  0  0  0  0  0  0  0  0  0  0  0
    8.4674  -14.7556   21.0561 C   0  0  1  0  0  0  0  0  0  0  0  0
    7.0513  -14.5369   20.6363 C   0  0  0  0  0  0  0  0  0  0  0  0
    8.5720  -15.4769   22.3373 C   0  0  2  0  0  0  0  0  0  0  0  0
    7.6098  -14.9566   23.3227 N   0  0  0  0  0  0  0  0  0  0  0  0
    9.8846  -15.6866   22.9296 C   0  0  0  0  0  0  0  0  0  0  0  0
   10.4232  -14.6908   23.5331 O   0  0  0  0  0  0  0  0  0  0  0  0
   11.3353  -18.3889   25.4843 C   0  0  0  0  0  0  0  0  0  0  0  0
   12.1048  -18.3634   24.1843 C   0  0  1  0  0  0  0  0  0  0  0  0
   11.5365  -19.3745   23.3788 O   0  0  0  0  0  0  0  0  0  0  0  0
   11.9412  -17.0080   23.5444 C   0  0  2  0  0  0  0  0  0  0  0  0
   10.6365  -16.8489   22.9228 N   0  0  0  0  0  0  0  0  0  0  0  0
   12.9572  -16.8730   22.4895 C   0  0  0  0  0  0  0  0  0  0  0  0
   14.2971  -16.7746   22.7990 O   0  0  0  0  0  0  0  0  0  0  0  0
   12.6143  -16.8458   21.2925 O   0  0  0  0  0  0  0  0  0  0  0  0
  2  1  1  0
  3  2  1  0
  4  3  1  0
  5  4  1  0
  5  7  1  0
  5  6  1  1
  7 13  1  0
  7  8  2  0
 10  9  1  6
 10 11  1  0
 12 10  1  0
 12 13  1  1
 14 12  1  0
 14 15  2  0
 17 16  1  1
 17 19  1  0
 18 17  1  0
 19 20  1  6
 20 14  1  0
 21 19  1  0
 22 21  1  0
 23 21  2  0
M  END
$$$$
