MVT.pdb
     RDKit          3D

 23 22  0  0  1  0  0  0  0  0999 V2000
    7.4085  -11.0943   26.9596 C   0  0  0  0  0  0  0  0  0  0  0  0
    6.8258  -12.5263   27.8512 S   0  0  0  0  0  0  0  0  0  0  0  0
    6.1418  -13.8376   26.8651 C   0  0  0  0  0  0  0  0  0  0  0  0
    6.9433  -14.2874   25.7009 C   0  0  0  0  0  0  0  0  0  0  0  0
    6.2837  -15.3674   24.9207 C   0  0  2  0  0  0  0  0  0  0  0  0
    6.1905  -16.5707   25.7036 N   0  0  0  0  0  0  0  0  0  0  0  0
    7.0907  -15.7168   23.6844 C   0  0  0  0  0  0  0  0  0  0  0  0
    7.4382  -16.9004   23.4740 O   0  0  0  0  0  0  0  0  0  0  0  0
    8.7168  -13.9819   19.2301 C   0  0  0  0  0  0  0  0  0  0  0  0
    8.0049  -13.8884   20.5379 C   0  0  1  0  0  0  0  0  0  0  0  0
    6.5871  -13.4248   20.4732 C   0  0  0  0  0  0  0  0  0  0  0  0
    8.1969  -14.9867   21.5020 C   0  0  2  0  0  0  0  0  0  0  0  0
    7.4650  -14.7319   22.7538 N   0  0  0  0  0  0  0  0  0  0  0  0
    9.5418  -15.4798   21.7588 C   0  0  0  0  0  0  0  0  0  0  0  0
   10.3116  -14.7433   22.4735 O   0  0  0  0  0  0  0  0  0  0  0  0
   11.1088  -18.5443   23.4927 C   0  0  0  0  0  0  0  0  0  0  0  0
   11.5641  -18.5022   22.0527 C   0  0  1  0  0  0  0  0  0  0  0  0
   10.6799  -19.3440   21.3430 O   0  0  0  0  0  0  0  0  0  0  0  0
   11.4761  -17.0827   21.5521 C   0  0  2  0  0  0  0  0  0  0  0  0
   10.1023  -16.6671   21.3201 N   0  0  0  0  0  0  0  0  0  0  0  0
   12.1887  -17.0041   20.2678 C   0  0  0  0  0  0  0  0  0  0  0  0
   13.5631  -17.0954   20.2087 O   0  0  0  0  0  0  0  0  0  0  0  0
   11.5513  -16.8525   19.2087 O   0  0  0  0  0  0  0  0  0  0  0  0
  2  1  1  0
  3  2  1  0
  4  3  1  0
  5  4  1  0
  5  7  1  0
  5  6  1  1
  7 13  1  0
  7  8  2  0
 10  9  1  6
 10 11  1  0
 12 10  1  0
 12 13  1  1
 14 12  1  0
 14 15  2  0
 17 16  1  1
 17 19  1  0
 18 17  1  0
 19 20  1  6
 20 14  1  0
 21 19  1  0
 22 21  1  0
 23 21  2  0
M  END
$$$$
