MVT.pdb
     RDKit          3D

 23 22  0  0  1  0  0  0  0  0999 V2000
   15.1976  -19.1797   18.8997 C   0  0  0  0  0  0  0  0  0  0  0  0
   15.0258  -18.5965   17.2217 S   0  0  0  0  0  0  0  0  0  0  0  0
   14.1668  -17.0543   17.0129 C   0  0  0  0  0  0  0  0  0  0  0  0
   13.4684  -16.5107   18.2032 C   0  0  0  0  0  0  0  0  0  0  0  0
   12.8317  -15.1907   17.9538 C   0  0  2  0  0  0  0  0  0  0  0  0
   13.8320  -14.1670   17.8096 N   0  0  0  0  0  0  0  0  0  0  0  0
   11.9563  -14.7789   19.1226 C   0  0  0  0  0  0  0  0  0  0  0  0
   12.4771  -14.3870   20.1908 O   0  0  0  0  0  0  0  0  0  0  0  0
    7.2970  -13.4998   20.4881 C   0  0  0  0  0  0  0  0  0  0  0  0
    8.4498  -13.7296   19.5694 C   0  0  1  0  0  0  0  0  0  0  0  0
    8.8205  -12.5789   18.6931 C   0  0  0  0  0  0  0  0  0  0  0  0
    9.6282  -14.4297   20.1114 C   0  0  2  0  0  0  0  0  0  0  0  0
   10.5540  -14.8263   19.0374 N   0  0  0  0  0  0  0  0  0  0  0  0
    9.4361  -15.5022   21.0760 C   0  0  0  0  0  0  0  0  0  0  0  0
    9.0485  -16.6381   20.6229 O   0  0  0  0  0  0  0  0  0  0  0  0
   11.7856  -16.9864   23.7546 C   0  0  0  0  0  0  0  0  0  0  0  0
   10.4754  -16.6375   24.4212 C   0  0  1  0  0  0  0  0  0  0  0  0
   10.6795  -15.3865   25.0436 O   0  0  0  0  0  0  0  0  0  0  0  0
    9.3989  -16.5476   23.3693 C   0  0  2  0  0  0  0  0  0  0  0  0
    9.6245  -15.4472   22.4463 N   0  0  0  0  0  0  0  0  0  0  0  0
    8.1154  -16.3062   24.0459 C   0  0  0  0  0  0  0  0  0  0  0  0
    7.4502  -15.1068   23.9053 O   0  0  0  0  0  0  0  0  0  0  0  0
    7.6104  -17.1922   24.7609 O   0  0  0  0  0  0  0  0  0  0  0  0
  2  1  1  0
  3  2  1  0
  4  3  1  0
  5  4  1  0
  5  7  1  0
  5  6  1  1
  7 13  1  0
  7  8  2  0
 10  9  1  1
 10 11  1  0
 12 10  1  0
 12 13  1  6
 14 12  1  0
 14 15  2  0
 17 16  1  6
 17 19  1  0
 18 17  1  0
 19 20  1  6
 20 14  1  0
 21 19  1  0
 22 21  1  0
 23 21  2  0
M  END
$$$$
