MVT.pdb
     RDKit          3D

 23 22  0  0  1  0  0  0  0  0999 V2000
    8.5214  -11.6585   27.6444 C   0  0  0  0  0  0  0  0  0  0  0  0
    6.7548  -11.8884   27.7515 S   0  0  0  0  0  0  0  0  0  0  0  0
    6.0894  -13.2713   26.8546 C   0  0  0  0  0  0  0  0  0  0  0  0
    6.9507  -13.8634   25.8021 C   0  0  0  0  0  0  0  0  0  0  0  0
    6.2776  -14.9470   25.0386 C   0  0  2  0  0  0  0  0  0  0  0  0
    5.9652  -16.0539   25.9026 N   0  0  0  0  0  0  0  0  0  0  0  0
    7.1841  -15.4900   23.9500 C   0  0  0  0  0  0  0  0  0  0  0  0
    7.8089  -16.5597   24.1274 O   0  0  0  0  0  0  0  0  0  0  0  0
    6.5308  -14.4245   19.9061 C   0  0  0  0  0  0  0  0  0  0  0  0
    7.9397  -14.4916   20.3924 C   0  0  1  0  0  0  0  0  0  0  0  0
    8.7039  -13.2097   20.3459 C   0  0  0  0  0  0  0  0  0  0  0  0
    8.2041  -15.2629   21.6203 C   0  0  2  0  0  0  0  0  0  0  0  0
    7.3444  -14.8140   22.7279 N   0  0  0  0  0  0  0  0  0  0  0  0
    9.5793  -15.4577   22.0547 C   0  0  0  0  0  0  0  0  0  0  0  0
   10.1331  -14.4980   22.7014 O   0  0  0  0  0  0  0  0  0  0  0  0
   11.3505  -17.8759   24.4554 C   0  0  0  0  0  0  0  0  0  0  0  0
   11.9512  -18.0098   23.0756 C   0  0  1  0  0  0  0  0  0  0  0  0
   11.2593  -19.0725   22.4543 O   0  0  0  0  0  0  0  0  0  0  0  0
   11.7449  -16.7191   22.3239 C   0  0  2  0  0  0  0  0  0  0  0  0
   10.3772  -16.5708   21.8536 N   0  0  0  0  0  0  0  0  0  0  0  0
   12.6235  -16.7297   21.1443 C   0  0  0  0  0  0  0  0  0  0  0  0
   13.9947  -16.6745   21.2765 O   0  0  0  0  0  0  0  0  0  0  0  0
   12.1328  -16.7892   20.0012 O   0  0  0  0  0  0  0  0  0  0  0  0
  2  1  1  0
  3  2  1  0
  4  3  1  0
  5  4  1  0
  5  7  1  0
  5  6  1  1
  7 13  1  0
  7  8  2  0
 10  9  1  1
 10 11  1  0
 12 10  1  0
 12 13  1  1
 14 12  1  0
 14 15  2  0
 17 16  1  1
 17 19  1  0
 18 17  1  0
 19 20  1  6
 20 14  1  0
 21 19  1  0
 22 21  1  0
 23 21  2  0
M  END
$$$$
