MVT.pdb
     RDKit          3D

 23 22  0  0  1  0  0  0  0  0999 V2000
    8.0121  -11.4347   28.0759 C   0  0  0  0  0  0  0  0  0  0  0  0
    6.3097  -11.4494   27.5403 S   0  0  0  0  0  0  0  0  0  0  0  0
    5.7470  -12.9447   26.7612 C   0  0  0  0  0  0  0  0  0  0  0  0
    6.7429  -13.6980   25.9606 C   0  0  0  0  0  0  0  0  0  0  0  0
    6.1570  -14.8637   25.2478 C   0  0  2  0  0  0  0  0  0  0  0  0
    5.6816  -15.8432   26.1879 N   0  0  0  0  0  0  0  0  0  0  0  0
    7.1988  -15.5569   24.3898 C   0  0  0  0  0  0  0  0  0  0  0  0
    7.6396  -16.6803   24.7209 O   0  0  0  0  0  0  0  0  0  0  0  0
    9.4873  -15.4355   19.8849 C   0  0  0  0  0  0  0  0  0  0  0  0
    8.5515  -14.9497   20.9404 C   0  0  1  0  0  0  0  0  0  0  0  0
    7.1549  -14.6717   20.4915 C   0  0  0  0  0  0  0  0  0  0  0  0
    8.6007  -15.6116   22.2565 C   0  0  2  0  0  0  0  0  0  0  0  0
    7.6905  -14.9627   23.2146 N   0  0  0  0  0  0  0  0  0  0  0  0
    9.8937  -15.9014   22.8582 C   0  0  0  0  0  0  0  0  0  0  0  0
   10.4670  -14.9533   23.5049 O   0  0  0  0  0  0  0  0  0  0  0  0
   13.5175  -18.9944   24.2413 C   0  0  0  0  0  0  0  0  0  0  0  0
   12.1396  -18.8166   23.6478 C   0  0  1  0  0  0  0  0  0  0  0  0
   11.2424  -19.3912   24.5747 O   0  0  0  0  0  0  0  0  0  0  0  0
   11.8668  -17.3439   23.4746 C   0  0  2  0  0  0  0  0  0  0  0  0
   10.5930  -17.0954   22.8190 N   0  0  0  0  0  0  0  0  0  0  0  0
   12.9243  -16.7784   22.6230 C   0  0  0  0  0  0  0  0  0  0  0  0
   14.0070  -16.1242   23.1712 O   0  0  0  0  0  0  0  0  0  0  0  0
   12.8523  -16.8856   21.3843 O   0  0  0  0  0  0  0  0  0  0  0  0
  2  1  1  0
  3  2  1  0
  4  3  1  0
  5  4  1  0
  5  7  1  0
  5  6  1  1
  7 13  1  0
  7  8  2  0
 10  9  1  6
 10 11  1  0
 12 10  1  0
 12 13  1  1
 14 12  1  0
 14 15  2  0
 17 16  1  1
 17 19  1  0
 18 17  1  0
 19 20  1  6
 20 14  1  0
 21 19  1  0
 22 21  1  0
 23 21  2  0
M  END
$$$$
