MVT.pdb
     RDKit          3D

 23 22  0  0  1  0  0  0  0  0999 V2000
    7.1941  -11.6604   26.3248 C   0  0  0  0  0  0  0  0  0  0  0  0
    6.0328  -12.6350   27.2665 S   0  0  0  0  0  0  0  0  0  0  0  0
    6.5331  -14.2978   27.6464 C   0  0  0  0  0  0  0  0  0  0  0  0
    7.3472  -15.0016   26.6255 C   0  0  0  0  0  0  0  0  0  0  0  0
    6.5243  -15.7081   25.6088 C   0  0  2  0  0  0  0  0  0  0  0  0
    5.9440  -16.8995   26.1685 N   0  0  0  0  0  0  0  0  0  0  0  0
    7.3745  -16.1519   24.4331 C   0  0  0  0  0  0  0  0  0  0  0  0
    7.7244  -17.3486   24.3264 O   0  0  0  0  0  0  0  0  0  0  0  0
    9.1305  -14.8460   19.8971 C   0  0  0  0  0  0  0  0  0  0  0  0
    8.3544  -14.6477   21.1558 C   0  0  1  0  0  0  0  0  0  0  0  0
    6.9047  -14.3357   20.9818 C   0  0  0  0  0  0  0  0  0  0  0  0
    8.6016  -15.5839   22.2672 C   0  0  2  0  0  0  0  0  0  0  0  0
    7.7866  -15.2415   23.4445 N   0  0  0  0  0  0  0  0  0  0  0  0
    9.9727  -15.9000   22.6385 C   0  0  0  0  0  0  0  0  0  0  0  0
   10.5863  -15.0614   23.3908 O   0  0  0  0  0  0  0  0  0  0  0  0
   11.6955  -18.7743   24.5801 C   0  0  0  0  0  0  0  0  0  0  0  0
   12.2668  -18.6835   23.1844 C   0  0  1  0  0  0  0  0  0  0  0  0
   11.5343  -19.6064   22.4061 O   0  0  0  0  0  0  0  0  0  0  0  0
   12.0830  -17.2782   22.6700 C   0  0  2  0  0  0  0  0  0  0  0  0
   10.7090  -17.0142   22.2744 N   0  0  0  0  0  0  0  0  0  0  0  0
   12.9299  -17.1110   21.4790 C   0  0  0  0  0  0  0  0  0  0  0  0
   14.3039  -17.0641   21.5825 O   0  0  0  0  0  0  0  0  0  0  0  0
   12.4092  -17.0089   20.3523 O   0  0  0  0  0  0  0  0  0  0  0  0
  2  1  1  0
  3  2  1  0
  4  3  1  0
  5  4  1  0
  5  7  1  0
  5  6  1  1
  7 13  1  0
  7  8  2  0
 10  9  1  6
 10 11  1  0
 12 10  1  0
 12 13  1  1
 14 12  1  0
 14 15  2  0
 17 16  1  1
 17 19  1  0
 18 17  1  0
 19 20  1  6
 20 14  1  0
 21 19  1  0
 22 21  1  0
 23 21  2  0
M  END
$$$$
