EMM.pdb
     RDKit          3D

 26 25  0  0  1  0  0  0  0  0999 V2000
    7.6247  -18.9427   21.0477 N   0  0  0  0  0  0  0  0  0  0  0  0
    9.0408  -18.7028   20.9585 C   0  0  1  0  0  0  0  0  0  0  0  0
    9.4986  -18.6133   19.5310 C   0  0  0  0  0  0  0  0  0  0  0  0
    8.4879  -17.8635   18.7163 C   0  0  0  0  0  0  0  0  0  0  0  0
    8.9751  -17.6847   17.3377 C   0  0  0  0  0  0  0  0  0  0  0  0
    8.2982  -17.1147   16.4209 O   0  0  0  0  0  0  0  0  0  0  0  0
    9.3955  -17.4193   21.6506 C   0  0  0  0  0  0  0  0  0  0  0  0
   10.5580  -17.0264   21.5803 O   0  0  0  0  0  0  0  0  0  0  0  0
   10.2325  -18.1419   16.9596 O   0  0  0  0  0  0  0  0  0  0  0  0
    5.6033  -14.1335   25.8430 C   0  0  0  0  0  0  0  0  0  0  0  0
    6.7748  -12.8342   25.4500 S   0  0  0  0  0  0  0  0  0  0  0  0
    7.9903  -13.3310   24.1950 C   0  0  0  0  0  0  0  0  0  0  0  0
    7.6454  -14.6959   23.6677 C   0  0  0  0  0  0  0  0  0  0  0  0
    8.7860  -15.4351   23.0731 C   0  0  2  0  0  0  0  0  0  0  0  0
    8.4421  -16.6516   22.3770 N   0  0  0  0  0  0  0  0  0  0  0  0
    9.9412  -15.6294   23.9990 C   0  0  0  0  0  0  0  0  0  0  0  0
   10.8995  -14.8242   24.1073 O   0  0  0  0  0  0  0  0  0  0  0  0
   11.0345  -12.6509   28.1658 C   0  0  0  0  0  0  0  0  0  0  0  0
   10.7310  -14.1203   29.1966 S   0  0  0  0  0  0  0  0  0  0  0  0
   11.1201  -15.6238   28.2708 C   0  0  0  0  0  0  0  0  0  0  0  0
   10.3781  -15.6169   26.9530 C   0  0  0  0  0  0  0  0  0  0  0  0
   10.7524  -16.8047   26.0941 C   0  0  2  0  0  0  0  0  0  0  0  0
   10.0046  -16.7829   24.8328 N   0  0  0  0  0  0  0  0  0  0  0  0
   10.6592  -18.0853   26.7887 C   0  0  0  0  0  0  0  0  0  0  0  0
   11.5060  -18.3749   27.8399 O   0  0  0  0  0  0  0  0  0  0  0  0
    9.8163  -18.9449   26.4508 O   0  0  0  0  0  0  0  0  0  0  0  0
  2  1  1  6
  2  7  1  0
  3  2  1  0
  4  3  1  0
  4  5  1  0
  5  9  1  0
  5  6  2  0
  7  8  2  0
  7 15  1  0
 10 11  1  0
 11 12  1  0
 13 12  1  0
 14 13  1  1
 15 14  1  0
 16 14  1  0
 16 17  2  0
 18 19  1  0
 19 20  1  0
 20 21  1  0
 22 21  1  1
 22 23  1  0
 23 16  1  0
 24 22  1  0
 25 24  1  0
 26 24  2  0
M  END
$$$$
