EMM.pdb
     RDKit          3D

 26 25  0  0  1  0  0  0  0  0999 V2000
    9.1890  -19.4174   20.1640 N   0  0  0  0  0  0  0  0  0  0  0  0
   10.3735  -18.6059   20.0695 C   0  0  1  0  0  0  0  0  0  0  0  0
   10.8029  -18.4166   18.6429 C   0  0  0  0  0  0  0  0  0  0  0  0
    9.6191  -18.0564   17.7965 C   0  0  0  0  0  0  0  0  0  0  0  0
   10.0105  -17.9784   16.3785 C   0  0  0  0  0  0  0  0  0  0  0  0
   11.1957  -18.1934   15.9631 O   0  0  0  0  0  0  0  0  0  0  0  0
   10.1275  -17.2541   20.6730 C   0  0  0  0  0  0  0  0  0  0  0  0
   11.0398  -16.4310   20.6398 O   0  0  0  0  0  0  0  0  0  0  0  0
    9.0792  -17.6575   15.3973 O   0  0  0  0  0  0  0  0  0  0  0  0
    8.0965  -12.5031   19.4649 C   0  0  0  0  0  0  0  0  0  0  0  0
    7.6725  -12.0758   21.1540 S   0  0  0  0  0  0  0  0  0  0  0  0
    7.3434  -13.5296   22.1920 C   0  0  0  0  0  0  0  0  0  0  0  0
    7.6082  -14.7837   21.4064 C   0  0  0  0  0  0  0  0  0  0  0  0
    8.6836  -15.6435   21.9589 C   0  0  2  0  0  0  0  0  0  0  0  0
    8.8881  -16.8981   21.2755 N   0  0  0  0  0  0  0  0  0  0  0  0
    8.6299  -15.8177   23.4410 C   0  0  0  0  0  0  0  0  0  0  0  0
    7.5836  -16.0928   24.0798 O   0  0  0  0  0  0  0  0  0  0  0  0
    6.1426  -12.5166   26.0057 C   0  0  0  0  0  0  0  0  0  0  0  0
    7.3973  -12.3125   27.3088 S   0  0  0  0  0  0  0  0  0  0  0  0
    8.6399  -13.6204   27.1895 C   0  0  0  0  0  0  0  0  0  0  0  0
    8.7441  -14.0948   25.7572 C   0  0  0  0  0  0  0  0  0  0  0  0
    9.7923  -15.1744   25.6005 C   0  0  2  0  0  0  0  0  0  0  0  0
    9.8127  -15.6748   24.2222 N   0  0  0  0  0  0  0  0  0  0  0  0
    9.6903  -16.2414   26.5916 C   0  0  0  0  0  0  0  0  0  0  0  0
    9.3955  -17.5328   26.2022 O   0  0  0  0  0  0  0  0  0  0  0  0
    9.8658  -16.0133   27.8084 O   0  0  0  0  0  0  0  0  0  0  0  0
  2  1  1  6
  2  7  1  0
  3  2  1  0
  4  3  1  0
  4  5  1  0
  5  9  1  0
  5  6  2  0
  7  8  2  0
  7 15  1  0
 10 11  1  0
 11 12  1  0
 13 12  1  0
 14 13  1  6
 15 14  1  0
 16 14  1  0
 16 17  2  0
 18 19  1  0
 19 20  1  0
 20 21  1  0
 22 21  1  6
 22 23  1  0
 23 16  1  0
 24 22  1  0
 25 24  1  0
 26 24  2  0
M  END
$$$$
