EMM.pdb
     RDKit          3D

 26 25  0  0  1  0  0  0  0  0999 V2000
    7.2580  -17.8056   20.1801 N   0  0  0  0  0  0  0  0  0  0  0  0
    8.6809  -17.6317   20.3056 C   0  0  1  0  0  0  0  0  0  0  0  0
    9.2837  -17.0735   19.0485 C   0  0  0  0  0  0  0  0  0  0  0  0
    8.2036  -16.7762   18.0523 C   0  0  0  0  0  0  0  0  0  0  0  0
    8.7900  -16.2655   16.8011 C   0  0  0  0  0  0  0  0  0  0  0  0
    9.8741  -16.7095   16.2999 O   0  0  0  0  0  0  0  0  0  0  0  0
    8.9929  -16.6957   21.4363 C   0  0  0  0  0  0  0  0  0  0  0  0
   10.1469  -16.2874   21.5477 O   0  0  0  0  0  0  0  0  0  0  0  0
    8.1713  -15.2458   16.0865 O   0  0  0  0  0  0  0  0  0  0  0  0
    6.8536  -11.1783   25.2690 C   0  0  0  0  0  0  0  0  0  0  0  0
    6.3880  -12.8021   25.8704 S   0  0  0  0  0  0  0  0  0  0  0  0
    7.6145  -14.0827   25.4766 C   0  0  0  0  0  0  0  0  0  0  0  0
    7.2779  -14.7180   24.1564 C   0  0  0  0  0  0  0  0  0  0  0  0
    8.3419  -15.5901   23.6011 C   0  0  2  0  0  0  0  0  0  0  0  0
    8.0088  -16.2704   22.3727 N   0  0  0  0  0  0  0  0  0  0  0  0
    8.9631  -16.5116   24.5985 C   0  0  0  0  0  0  0  0  0  0  0  0
    8.3328  -17.4013   25.2227 O   0  0  0  0  0  0  0  0  0  0  0  0
    9.9995  -13.1312   28.8103 C   0  0  0  0  0  0  0  0  0  0  0  0
   10.3262  -14.6592   29.7444 S   0  0  0  0  0  0  0  0  0  0  0  0
   10.8579  -15.9746   28.6236 C   0  0  0  0  0  0  0  0  0  0  0  0
   10.4855  -15.6146   27.2027 C   0  0  0  0  0  0  0  0  0  0  0  0
   10.8990  -16.6932   26.2258 C   0  0  2  0  0  0  0  0  0  0  0  0
   10.3537  -16.4159   24.8929 N   0  0  0  0  0  0  0  0  0  0  0  0
   10.6102  -18.0474   26.6881 C   0  0  0  0  0  0  0  0  0  0  0  0
   11.6302  -18.9630   26.8539 O   0  0  0  0  0  0  0  0  0  0  0  0
    9.4406  -18.4086   26.9430 O   0  0  0  0  0  0  0  0  0  0  0  0
  2  1  1  6
  2  7  1  0
  3  2  1  0
  4  3  1  0
  4  5  1  0
  5  9  1  0
  5  6  2  0
  7  8  2  0
  7 15  1  0
 10 11  1  0
 11 12  1  0
 13 12  1  0
 14 13  1  1
 15 14  1  0
 16 14  1  0
 16 17  2  0
 18 19  1  0
 19 20  1  0
 20 21  1  0
 22 21  1  1
 22 23  1  0
 23 16  1  0
 24 22  1  0
 25 24  1  0
 26 24  2  0
M  END
$$$$
