EMM.pdb
     RDKit          3D

 26 25  0  0  1  0  0  0  0  0999 V2000
    9.8446  -18.5140   19.1977 N   0  0  0  0  0  0  0  0  0  0  0  0
   10.9682  -17.7044   19.5883 C   0  0  1  0  0  0  0  0  0  0  0  0
   11.5596  -16.9752   18.4163 C   0  0  0  0  0  0  0  0  0  0  0  0
   11.4194  -17.8042   17.1751 C   0  0  0  0  0  0  0  0  0  0  0  0
   12.6457  -17.7190   16.3633 C   0  0  0  0  0  0  0  0  0  0  0  0
   12.8090  -18.3485   15.2676 O   0  0  0  0  0  0  0  0  0  0  0  0
   10.5483  -16.6915   20.6130 C   0  0  0  0  0  0  0  0  0  0  0  0
   11.3886  -15.8865   21.0088 O   0  0  0  0  0  0  0  0  0  0  0  0
   13.7141  -16.9251   16.7648 O   0  0  0  0  0  0  0  0  0  0  0  0
    8.2507  -11.8764   18.9820 C   0  0  0  0  0  0  0  0  0  0  0  0
    8.4167  -12.8603   20.4719 S   0  0  0  0  0  0  0  0  0  0  0  0
    7.3355  -14.3198   20.4821 C   0  0  0  0  0  0  0  0  0  0  0  0
    7.4586  -15.0325   21.8000 C   0  0  0  0  0  0  0  0  0  0  0  0
    8.7969  -15.6154   22.0646 C   0  0  2  0  0  0  0  0  0  0  0  0
    9.2256  -16.6332   21.1355 N   0  0  0  0  0  0  0  0  0  0  0  0
    9.0182  -16.0261   23.4832 C   0  0  0  0  0  0  0  0  0  0  0  0
    8.5821  -17.0931   23.9831 O   0  0  0  0  0  0  0  0  0  0  0  0
    6.3455  -11.8754   26.0877 C   0  0  0  0  0  0  0  0  0  0  0  0
    6.7741  -12.6189   27.6931 S   0  0  0  0  0  0  0  0  0  0  0  0
    7.9250  -13.9933   27.4574 C   0  0  0  0  0  0  0  0  0  0  0  0
    8.3335  -14.0719   26.0034 C   0  0  0  0  0  0  0  0  0  0  0  0
    9.4525  -15.0674   25.7898 C   0  0  2  0  0  0  0  0  0  0  0  0
    9.7654  -15.1905   24.3624 N   0  0  0  0  0  0  0  0  0  0  0  0
    9.2238  -16.3566   26.4354 C   0  0  0  0  0  0  0  0  0  0  0  0
    9.5795  -16.5517   27.7550 O   0  0  0  0  0  0  0  0  0  0  0  0
    8.7043  -17.3087   25.8133 O   0  0  0  0  0  0  0  0  0  0  0  0
  2  1  1  6
  2  7  1  0
  3  2  1  0
  4  3  1  0
  4  5  1  0
  5  9  1  0
  5  6  2  0
  7  8  2  0
  7 15  1  0
 10 11  1  0
 11 12  1  0
 13 12  1  0
 14 13  1  1
 15 14  1  0
 16 14  1  0
 16 17  2  0
 18 19  1  0
 19 20  1  0
 20 21  1  0
 22 21  1  6
 22 23  1  0
 23 16  1  0
 24 22  1  0
 25 24  1  0
 26 24  2  0
M  END
$$$$
