EMM.pdb
     RDKit          3D

 26 25  0  0  1  0  0  0  0  0999 V2000
    9.2655  -16.6941   18.8790 N   0  0  0  0  0  0  0  0  0  0  0  0
    9.1124  -17.4167   20.1139 C   0  0  1  0  0  0  0  0  0  0  0  0
   10.0237  -18.6087   20.1748 C   0  0  0  0  0  0  0  0  0  0  0  0
   11.1944  -18.4041   19.2610 C   0  0  0  0  0  0  0  0  0  0  0  0
   12.3991  -19.0365   19.8257 C   0  0  0  0  0  0  0  0  0  0  0  0
   12.5680  -20.2979   19.8877 O   0  0  0  0  0  0  0  0  0  0  0  0
    9.4215  -16.5245   21.2804 C   0  0  0  0  0  0  0  0  0  0  0  0
   10.5992  -16.2543   21.5058 O   0  0  0  0  0  0  0  0  0  0  0  0
   13.4394  -18.2657   20.3325 O   0  0  0  0  0  0  0  0  0  0  0  0
    5.7753  -11.6516   25.7511 C   0  0  0  0  0  0  0  0  0  0  0  0
    6.3155  -13.3333   26.0597 S   0  0  0  0  0  0  0  0  0  0  0  0
    7.8418  -13.7619   25.1731 C   0  0  0  0  0  0  0  0  0  0  0  0
    7.5304  -14.7318   24.0675 C   0  0  0  0  0  0  0  0  0  0  0  0
    8.7012  -15.1332   23.2496 C   0  0  2  0  0  0  0  0  0  0  0  0
    8.4085  -15.9878   22.1240 N   0  0  0  0  0  0  0  0  0  0  0  0
    9.8621  -15.6345   24.0437 C   0  0  0  0  0  0  0  0  0  0  0  0
   11.0337  -15.1950   23.9316 O   0  0  0  0  0  0  0  0  0  0  0  0
   11.3988  -13.7618   30.8103 C   0  0  0  0  0  0  0  0  0  0  0  0
   10.4892  -13.8287   29.2348 S   0  0  0  0  0  0  0  0  0  0  0  0
   10.8361  -15.3831   28.3789 C   0  0  0  0  0  0  0  0  0  0  0  0
   10.1438  -15.3897   27.0344 C   0  0  0  0  0  0  0  0  0  0  0  0
   10.3758  -16.6875   26.2922 C   0  0  2  0  0  0  0  0  0  0  0  0
    9.6795  -16.6731   25.0016 N   0  0  0  0  0  0  0  0  0  0  0  0
   10.0818  -17.8783   27.0839 C   0  0  0  0  0  0  0  0  0  0  0  0
   11.0962  -18.5605   27.7254 O   0  0  0  0  0  0  0  0  0  0  0  0
    8.9127  -18.3064   27.1992 O   0  0  0  0  0  0  0  0  0  0  0  0
  2  1  1  6
  2  7  1  0
  3  2  1  0
  4  3  1  0
  4  5  1  0
  5  9  1  0
  5  6  2  0
  7  8  2  0
  7 15  1  0
 10 11  1  0
 11 12  1  0
 13 12  1  0
 14 13  1  1
 15 14  1  0
 16 14  1  0
 16 17  2  0
 18 19  1  0
 19 20  1  0
 20 21  1  0
 22 21  1  1
 22 23  1  0
 23 16  1  0
 24 22  1  0
 25 24  1  0
 26 24  2  0
M  END
$$$$
