EMM.pdb
     RDKit          3D

 26 25  0  0  1  0  0  0  0  0999 V2000
    8.1027  -19.1834   21.3344 N   0  0  0  0  0  0  0  0  0  0  0  0
    9.1187  -18.3683   20.7229 C   0  0  1  0  0  0  0  0  0  0  0  0
    8.7934  -18.0603   19.2895 C   0  0  0  0  0  0  0  0  0  0  0  0
    9.9161  -17.2872   18.6656 C   0  0  0  0  0  0  0  0  0  0  0  0
   10.0084  -17.5924   17.2274 C   0  0  0  0  0  0  0  0  0  0  0  0
    8.9965  -17.8473   16.4961 O   0  0  0  0  0  0  0  0  0  0  0  0
    9.2618  -17.0717   21.4649 C   0  0  0  0  0  0  0  0  0  0  0  0
   10.2713  -16.3994   21.2654 O   0  0  0  0  0  0  0  0  0  0  0  0
   11.2387  -17.6176   16.5802 O   0  0  0  0  0  0  0  0  0  0  0  0
    6.7550  -12.9273   27.2754 C   0  0  0  0  0  0  0  0  0  0  0  0
    6.0787  -13.4732   25.7069 S   0  0  0  0  0  0  0  0  0  0  0  0
    7.3098  -13.4908   24.3714 C   0  0  0  0  0  0  0  0  0  0  0  0
    7.1430  -14.7353   23.5448 C   0  0  0  0  0  0  0  0  0  0  0  0
    8.4146  -15.3566   23.0999 C   0  0  2  0  0  0  0  0  0  0  0  0
    8.2794  -16.6007   22.3809 N   0  0  0  0  0  0  0  0  0  0  0  0
    9.4630  -15.4360   24.1601 C   0  0  0  0  0  0  0  0  0  0  0  0
    9.9391  -14.4371   24.7552 O   0  0  0  0  0  0  0  0  0  0  0  0
   11.6659  -12.4682   28.7453 C   0  0  0  0  0  0  0  0  0  0  0  0
   11.2177  -14.2304   28.6567 S   0  0  0  0  0  0  0  0  0  0  0  0
   10.8231  -14.6895   26.9530 C   0  0  0  0  0  0  0  0  0  0  0  0
   10.3486  -16.1248   26.9091 C   0  0  0  0  0  0  0  0  0  0  0  0
   10.8905  -16.8563   25.7008 C   0  0  2  0  0  0  0  0  0  0  0  0
    9.9858  -16.7004   24.5572 N   0  0  0  0  0  0  0  0  0  0  0  0
   11.2395  -18.2491   25.9643 C   0  0  0  0  0  0  0  0  0  0  0  0
   12.4656  -18.5723   26.5105 O   0  0  0  0  0  0  0  0  0  0  0  0
   10.4424  -19.1765   25.7033 O   0  0  0  0  0  0  0  0  0  0  0  0
  2  1  1  1
  2  7  1  0
  3  2  1  0
  4  3  1  0
  4  5  1  0
  5  9  1  0
  5  6  2  0
  7  8  2  0
  7 15  1  0
 10 11  1  0
 11 12  1  0
 13 12  1  0
 14 13  1  1
 15 14  1  0
 16 14  1  0
 16 17  2  0
 18 19  1  0
 19 20  1  0
 20 21  1  0
 22 21  1  1
 22 23  1  0
 23 16  1  0
 24 22  1  0
 25 24  1  0
 26 24  2  0
M  END
$$$$
