EMM.pdb
     RDKit          3D

 26 25  0  0  1  0  0  0  0  0999 V2000
    7.8081  -18.0383   20.8630 N   0  0  0  0  0  0  0  0  0  0  0  0
    9.1361  -17.5898   20.5373 C   0  0  1  0  0  0  0  0  0  0  0  0
    9.2109  -17.0503   19.1379 C   0  0  0  0  0  0  0  0  0  0  0  0
    8.4009  -17.9102   18.2148 C   0  0  0  0  0  0  0  0  0  0  0  0
    8.4615  -17.3821   16.8409 C   0  0  0  0  0  0  0  0  0  0  0  0
    9.5507  -17.1939   16.2071 O   0  0  0  0  0  0  0  0  0  0  0  0
    9.5671  -16.5089   21.4850 C   0  0  0  0  0  0  0  0  0  0  0  0
   10.6481  -15.9599   21.2831 O   0  0  0  0  0  0  0  0  0  0  0  0
    7.3003  -17.0544   16.1500 O   0  0  0  0  0  0  0  0  0  0  0  0
    6.6788  -12.3188   26.2574 C   0  0  0  0  0  0  0  0  0  0  0  0
    5.8994  -13.1678   24.8838 S   0  0  0  0  0  0  0  0  0  0  0  0
    7.0967  -13.8550   23.7033 C   0  0  0  0  0  0  0  0  0  0  0  0
    8.1895  -14.5698   24.4482 C   0  0  0  0  0  0  0  0  0  0  0  0
    9.2412  -15.1612   23.5849 C   0  0  2  0  0  0  0  0  0  0  0  0
    8.7753  -16.1037   22.5963 N   0  0  0  0  0  0  0  0  0  0  0  0
   10.4294  -15.6748   24.3292 C   0  0  0  0  0  0  0  0  0  0  0  0
   11.4477  -14.9867   24.5901 O   0  0  0  0  0  0  0  0  0  0  0  0
   11.1137  -13.0871   29.5512 C   0  0  0  0  0  0  0  0  0  0  0  0
   10.1894  -14.5782   29.0650 S   0  0  0  0  0  0  0  0  0  0  0  0
   11.0080  -15.3947   27.6748 C   0  0  0  0  0  0  0  0  0  0  0  0
   10.1468  -16.5322   27.1733 C   0  0  0  0  0  0  0  0  0  0  0  0
   10.8763  -17.3783   26.1532 C   0  0  2  0  0  0  0  0  0  0  0  0
   10.4561  -17.0211   24.7943 N   0  0  0  0  0  0  0  0  0  0  0  0
   10.7978  -18.8124   26.4144 C   0  0  0  0  0  0  0  0  0  0  0  0
   11.7702  -19.4414   27.1659 O   0  0  0  0  0  0  0  0  0  0  0  0
    9.8550  -19.5010   25.9669 O   0  0  0  0  0  0  0  0  0  0  0  0
  2  1  1  1
  2  7  1  0
  3  2  1  0
  4  3  1  0
  4  5  1  0
  5  9  1  0
  5  6  2  0
  7  8  2  0
  7 15  1  0
 10 11  1  0
 11 12  1  0
 13 12  1  0
 14 13  1  1
 15 14  1  0
 16 14  1  0
 16 17  2  0
 18 19  1  0
 19 20  1  0
 20 21  1  0
 22 21  1  1
 22 23  1  0
 23 16  1  0
 24 22  1  0
 25 24  1  0
 26 24  2  0
M  END
$$$$
