EMM.pdb
     RDKit          3D

 26 25  0  0  1  0  0  0  0  0999 V2000
   10.8373  -18.4106   18.0951 N   0  0  0  0  0  0  0  0  0  0  0  0
    9.8412  -18.5382   19.1257 C   0  0  1  0  0  0  0  0  0  0  0  0
    9.9766  -19.8360   19.8692 C   0  0  0  0  0  0  0  0  0  0  0  0
   11.3555  -20.3927   19.6785 C   0  0  0  0  0  0  0  0  0  0  0  0
   11.3078  -21.8637   19.6170 C   0  0  0  0  0  0  0  0  0  0  0  0
   10.2263  -22.5353   19.6702 O   0  0  0  0  0  0  0  0  0  0  0  0
    9.9650  -17.4131   20.1110 C   0  0  0  0  0  0  0  0  0  0  0  0
   11.0842  -17.1401   20.5396 O   0  0  0  0  0  0  0  0  0  0  0  0
   12.4736  -22.6115   19.4944 O   0  0  0  0  0  0  0  0  0  0  0  0
    7.5827  -11.2346   20.1830 C   0  0  0  0  0  0  0  0  0  0  0  0
    7.1791  -12.6542   19.1645 S   0  0  0  0  0  0  0  0  0  0  0  0
    8.1956  -14.1110   19.5436 C   0  0  0  0  0  0  0  0  0  0  0  0
    8.2770  -14.2986   21.0329 C   0  0  0  0  0  0  0  0  0  0  0  0
    8.9639  -15.5413   21.4626 C   0  0  2  0  0  0  0  0  0  0  0  0
    8.8431  -16.6612   20.5603 N   0  0  0  0  0  0  0  0  0  0  0  0
    8.6949  -15.9336   22.8780 C   0  0  0  0  0  0  0  0  0  0  0  0
    7.7635  -16.6992   23.2312 O   0  0  0  0  0  0  0  0  0  0  0  0
    6.6535  -10.8241   27.2611 C   0  0  0  0  0  0  0  0  0  0  0  0
    6.4065  -12.4118   26.4054 S   0  0  0  0  0  0  0  0  0  0  0  0
    7.9820  -13.2830   26.2386 C   0  0  0  0  0  0  0  0  0  0  0  0
    7.7889  -14.5294   25.4041 C   0  0  0  0  0  0  0  0  0  0  0  0
    9.0590  -15.3469   25.3177 C   0  0  2  0  0  0  0  0  0  0  0  0
    9.5192  -15.4361   23.9281 N   0  0  0  0  0  0  0  0  0  0  0  0
    8.9657  -16.6491   25.9708 C   0  0  0  0  0  0  0  0  0  0  0  0
    9.7815  -16.9553   27.0417 O   0  0  0  0  0  0  0  0  0  0  0  0
    8.1509  -17.5127   25.5789 O   0  0  0  0  0  0  0  0  0  0  0  0
  2  1  1  6
  2  7  1  0
  3  2  1  0
  4  3  1  0
  4  5  1  0
  5  9  1  0
  5  6  2  0
  7  8  2  0
  7 15  1  0
 10 11  1  0
 11 12  1  0
 13 12  1  0
 14 13  1  6
 15 14  1  0
 16 14  1  0
 16 17  2  0
 18 19  1  0
 19 20  1  0
 20 21  1  0
 22 21  1  6
 22 23  1  0
 23 16  1  0
 24 22  1  0
 25 24  1  0
 26 24  2  0
M  END
$$$$
