EMM.pdb
     RDKit          3D

 26 25  0  0  1  0  0  0  0  0999 V2000
    8.1623  -17.8716   19.7029 N   0  0  0  0  0  0  0  0  0  0  0  0
    9.4731  -17.2812   19.7646 C   0  0  1  0  0  0  0  0  0  0  0  0
    9.7489  -16.4182   18.5670 C   0  0  0  0  0  0  0  0  0  0  0  0
    8.6356  -16.5540   17.5721 C   0  0  0  0  0  0  0  0  0  0  0  0
    9.1640  -17.0061   16.2735 C   0  0  0  0  0  0  0  0  0  0  0  0
    9.5466  -16.2108   15.3544 O   0  0  0  0  0  0  0  0  0  0  0  0
    9.6055  -16.4361   20.9976 C   0  0  0  0  0  0  0  0  0  0  0  0
   10.7092  -15.9620   21.2582 O   0  0  0  0  0  0  0  0  0  0  0  0
    9.2742  -18.3606   15.9798 O   0  0  0  0  0  0  0  0  0  0  0  0
    6.3383  -11.8689   26.6010 C   0  0  0  0  0  0  0  0  0  0  0  0
    6.1416  -12.9983   25.2221 S   0  0  0  0  0  0  0  0  0  0  0  0
    7.6732  -13.8807   24.8040 C   0  0  0  0  0  0  0  0  0  0  0  0
    7.4690  -14.6842   23.5500 C   0  0  0  0  0  0  0  0  0  0  0  0
    8.6551  -15.4612   23.1139 C   0  0  2  0  0  0  0  0  0  0  0  0
    8.5088  -16.1688   21.8647 N   0  0  0  0  0  0  0  0  0  0  0  0
    9.2487  -16.3245   24.1780 C   0  0  0  0  0  0  0  0  0  0  0  0
    8.8521  -17.4866   24.4440 O   0  0  0  0  0  0  0  0  0  0  0  0
    9.7088  -12.7924   29.7675 C   0  0  0  0  0  0  0  0  0  0  0  0
   11.0169  -13.8468   29.0668 S   0  0  0  0  0  0  0  0  0  0  0  0
   10.3429  -14.8852   27.7489 C   0  0  0  0  0  0  0  0  0  0  0  0
   11.4486  -15.7199   27.1423 C   0  0  0  0  0  0  0  0  0  0  0  0
   10.9279  -16.6312   26.0527 C   0  0  2  0  0  0  0  0  0  0  0  0
   10.3350  -15.8457   24.9655 N   0  0  0  0  0  0  0  0  0  0  0  0
   10.0438  -17.6854   26.5405 C   0  0  0  0  0  0  0  0  0  0  0  0
   10.5348  -18.9516   26.7892 O   0  0  0  0  0  0  0  0  0  0  0  0
    8.8291  -17.4690   26.7433 O   0  0  0  0  0  0  0  0  0  0  0  0
  2  1  1  6
  2  7  1  0
  3  2  1  0
  4  3  1  0
  4  5  1  0
  5  9  1  0
  5  6  2  0
  7  8  2  0
  7 15  1  0
 10 11  1  0
 11 12  1  0
 13 12  1  0
 14 13  1  1
 15 14  1  0
 16 14  1  0
 16 17  2  0
 18 19  1  0
 19 20  1  0
 20 21  1  0
 22 21  1  1
 22 23  1  0
 23 16  1  0
 24 22  1  0
 25 24  1  0
 26 24  2  0
M  END
$$$$
