ETL.pdb
     RDKit          3D

 25 24  0  0  1  0  0  0  0  0999 V2000
   13.9659  -11.2680  -15.2938 N   0  0  0  0  0  0  0  0  0  0  0  0
   15.2344  -11.2281  -14.6569 C   0  0  1  0  0  0  0  0  0  0  0  0
   16.1148  -12.4335  -14.8777 C   0  0  0  0  0  0  0  0  0  0  0  0
   15.5278  -13.7143  -14.4304 C   0  0  0  0  0  0  0  0  0  0  0  0
   16.3870  -14.8702  -14.6972 C   0  0  0  0  0  0  0  0  0  0  0  0
   17.5141  -14.8236  -15.2442 O   0  0  0  0  0  0  0  0  0  0  0  0
   16.0221   -9.9887  -14.9937 C   0  0  0  0  0  0  0  0  0  0  0  0
   16.3057   -9.7152  -16.1975 O   0  0  0  0  0  0  0  0  0  0  0  0
   15.9431  -16.1504  -14.3157 O   0  0  0  0  0  0  0  0  0  0  0  0
   14.9215   -6.6141  -14.5287 C   0  0  0  0  0  0  0  0  0  0  0  0
   16.2935   -6.6549  -13.9016 C   0  0  1  0  0  0  0  0  0  0  0  0
   16.0426   -6.8144  -12.5185 O   0  0  0  0  0  0  0  0  0  0  0  0
   17.1417   -7.8229  -14.4053 C   0  0  2  0  0  0  0  0  0  0  0  0
   16.4809   -9.0770  -14.0203 N   0  0  0  0  0  0  0  0  0  0  0  0
   18.4660   -7.7213  -13.7846 C   0  0  0  0  0  0  0  0  0  0  0  0
   18.8147   -8.7151  -13.0412 O   0  0  0  0  0  0  0  0  0  0  0  0
   23.8305   -7.2953  -14.9441 C   0  0  0  0  0  0  0  0  0  0  0  0
   23.0015   -8.0305  -13.8787 C   0  0  2  0  0  0  0  0  0  0  0  0
   23.4807   -9.4514  -13.8994 C   0  0  0  0  0  0  0  0  0  0  0  0
   21.5695   -7.8800  -14.2125 C   0  0  0  0  0  0  0  0  0  0  0  0
   20.8045   -6.8493  -13.4283 C   0  0  2  0  0  0  0  0  0  0  0  0
   19.4161   -6.7063  -13.8769 N   0  0  0  0  0  0  0  0  0  0  0  0
   21.4337   -5.5319  -13.7023 C   0  0  0  0  0  0  0  0  0  0  0  0
   22.6117   -5.1420  -13.0215 O   0  0  0  0  0  0  0  0  0  0  0  0
   21.0052   -4.6884  -14.5221 O   0  0  0  0  0  0  0  0  0  0  0  0
  2  1  1  6
  3  2  1  0
  4  3  1  0
  5  4  1  0
  6  5  2  0
  7 14  1  0
  7  2  1  0
  8  7  2  0
  9  5  1  0
 11 10  1  6
 11 13  1  0
 12 11  1  0
 13 15  1  0
 13 14  1  1
 15 22  1  0
 16 15  2  0
 18 20  1  0
 18 17  1  6
 19 18  1  0
 21 23  1  0
 21 20  1  6
 22 21  1  0
 23 24  1  0
 25 23  2  0
M  END
$$$$
