ETL.pdb
     RDKit          3D

 25 24  0  0  1  0  0  0  0  0999 V2000
   19.6129  -12.8451  -15.4866 N   0  0  0  0  0  0  0  0  0  0  0  0
   18.7307  -11.7699  -15.7732 C   0  0  1  0  0  0  0  0  0  0  0  0
   17.2972  -11.9694  -15.3467 C   0  0  0  0  0  0  0  0  0  0  0  0
   16.7018  -13.2538  -15.7720 C   0  0  0  0  0  0  0  0  0  0  0  0
   15.2669  -13.3480  -15.4931 C   0  0  0  0  0  0  0  0  0  0  0  0
   14.5764  -12.4583  -14.9423 O   0  0  0  0  0  0  0  0  0  0  0  0
   19.2157  -10.4513  -15.2291 C   0  0  0  0  0  0  0  0  0  0  0  0
   19.3087  -10.2671  -13.9794 O   0  0  0  0  0  0  0  0  0  0  0  0
   14.5765  -14.5166  -15.8663 O   0  0  0  0  0  0  0  0  0  0  0  0
   22.5077   -8.9181  -15.5884 C   0  0  0  0  0  0  0  0  0  0  0  0
   21.5104   -7.8764  -16.0329 C   0  0  1  0  0  0  0  0  0  0  0  0
   21.4845   -7.9941  -17.4425 O   0  0  0  0  0  0  0  0  0  0  0  0
   20.1085   -8.1203  -15.4738 C   0  0  2  0  0  0  0  0  0  0  0  0
   19.5886   -9.3672  -16.0506 N   0  0  0  0  0  0  0  0  0  0  0  0
   19.2659   -6.9817  -15.8521 C   0  0  0  0  0  0  0  0  0  0  0  0
   18.2386   -7.2613  -16.5788 O   0  0  0  0  0  0  0  0  0  0  0  0
   15.5974   -3.7492  -16.7840 C   0  0  0  0  0  0  0  0  0  0  0  0
   16.3751   -3.3005  -15.5365 C   0  0  2  0  0  0  0  0  0  0  0  0
   17.0617   -2.0243  -15.9223 C   0  0  0  0  0  0  0  0  0  0  0  0
   17.3040   -4.3827  -15.1484 C   0  0  0  0  0  0  0  0  0  0  0  0
   18.5019   -4.5861  -16.0351 C   0  0  2  0  0  0  0  0  0  0  0  0
   19.4053   -5.6304  -15.5423 N   0  0  0  0  0  0  0  0  0  0  0  0
   19.3009   -3.3347  -15.9889 C   0  0  0  0  0  0  0  0  0  0  0  0
   19.2024   -2.3799  -17.0290 O   0  0  0  0  0  0  0  0  0  0  0  0
   20.0923   -3.0218  -15.0707 O   0  0  0  0  0  0  0  0  0  0  0  0
  2  1  1  1
  3  2  1  0
  4  3  1  0
  5  4  1  0
  6  5  2  0
  7 14  1  0
  7  2  1  0
  8  7  2  0
  9  5  1  0
 11 10  1  1
 11 13  1  0
 12 11  1  0
 13 15  1  0
 13 14  1  6
 15 22  1  0
 16 15  2  0
 18 20  1  0
 18 17  1  6
 19 18  1  0
 21 23  1  0
 21 20  1  1
 22 21  1  0
 23 24  1  0
 25 23  2  0
M  END
$$$$
