ETL.pdb
     RDKit          3D

 25 24  0  0  1  0  0  0  0  0999 V2000
   21.8563  -15.3891  -17.0386 N   0  0  0  0  0  0  0  0  0  0  0  0
   21.7878  -14.0982  -17.6260 C   0  0  1  0  0  0  0  0  0  0  0  0
   20.7099  -13.9094  -18.6649 C   0  0  0  0  0  0  0  0  0  0  0  0
   19.3460  -14.2451  -18.2043 C   0  0  0  0  0  0  0  0  0  0  0  0
   18.3137  -13.9831  -19.2101 C   0  0  0  0  0  0  0  0  0  0  0  0
   18.5275  -13.5959  -20.3831 O   0  0  0  0  0  0  0  0  0  0  0  0
   21.6726  -12.9945  -16.6069 C   0  0  0  0  0  0  0  0  0  0  0  0
   20.9268  -13.1322  -15.5924 O   0  0  0  0  0  0  0  0  0  0  0  0
   16.9629  -14.1778  -18.8653 O   0  0  0  0  0  0  0  0  0  0  0  0
   24.4240  -11.3681  -14.6081 C   0  0  0  0  0  0  0  0  0  0  0  0
   23.6230  -10.2712  -15.2657 C   0  0  1  0  0  0  0  0  0  0  0  0
   24.3750   -9.9272  -16.4135 O   0  0  0  0  0  0  0  0  0  0  0  0
   22.2262  -10.7277  -15.6875 C   0  0  2  0  0  0  0  0  0  0  0  0
   22.3679  -11.7719  -16.7108 N   0  0  0  0  0  0  0  0  0  0  0  0
   21.5135   -9.5652  -16.2262 C   0  0  0  0  0  0  0  0  0  0  0  0
   21.4818   -9.4730  -17.5116 O   0  0  0  0  0  0  0  0  0  0  0  0
   16.5583   -6.3498  -16.4472 C   0  0  0  0  0  0  0  0  0  0  0  0
   18.0132   -6.3899  -16.9414 C   0  0  2  0  0  0  0  0  0  0  0  0
   17.9339   -6.6143  -18.4220 C   0  0  0  0  0  0  0  0  0  0  0  0
   18.7263   -7.4611  -16.2141 C   0  0  0  0  0  0  0  0  0  0  0  0
   20.2290   -7.3959  -16.2317 C   0  0  2  0  0  0  0  0  0  0  0  0
   20.8571   -8.5352  -15.5558 N   0  0  0  0  0  0  0  0  0  0  0  0
   20.6272   -6.2086  -15.4327 C   0  0  0  0  0  0  0  0  0  0  0  0
   20.5119   -4.9060  -15.9739 O   0  0  0  0  0  0  0  0  0  0  0  0
   21.0750   -6.2471  -14.2643 O   0  0  0  0  0  0  0  0  0  0  0  0
  2  1  1  1
  3  2  1  0
  4  3  1  0
  5  4  1  0
  6  5  2  0
  7 14  1  0
  7  2  1  0
  8  7  2  0
  9  5  1  0
 11 10  1  6
 11 13  1  0
 12 11  1  0
 13 15  1  0
 13 14  1  6
 15 22  1  0
 16 15  2  0
 18 20  1  0
 18 17  1  1
 19 18  1  0
 21 23  1  0
 21 20  1  1
 22 21  1  0
 23 24  1  0
 25 23  2  0
M  END
$$$$
