ETL.pdb
     RDKit          3D

 25 24  0  0  1  0  0  0  0  0999 V2000
   26.3669  -16.1810  -19.2139 N   0  0  0  0  0  0  0  0  0  0  0  0
   26.7672  -17.0535  -18.1675 C   0  0  1  0  0  0  0  0  0  0  0  0
   28.1388  -16.7983  -17.5926 C   0  0  0  0  0  0  0  0  0  0  0  0
   29.1341  -17.8511  -17.8852 C   0  0  0  0  0  0  0  0  0  0  0  0
   29.3974  -18.0182  -19.3165 C   0  0  0  0  0  0  0  0  0  0  0  0
   28.8676  -17.3470  -20.2332 O   0  0  0  0  0  0  0  0  0  0  0  0
   25.7737  -17.1084  -17.0362 C   0  0  0  0  0  0  0  0  0  0  0  0
   25.6466  -16.1277  -16.2447 O   0  0  0  0  0  0  0  0  0  0  0  0
   30.3191  -18.9991  -19.7288 O   0  0  0  0  0  0  0  0  0  0  0  0
   22.1445  -17.2474  -17.2781 C   0  0  0  0  0  0  0  0  0  0  0  0
   22.5508  -18.3964  -16.3881 C   0  0  1  0  0  0  0  0  0  0  0  0
   22.6038  -19.5116  -17.2569 O   0  0  0  0  0  0  0  0  0  0  0  0
   23.9192  -18.1888  -15.7386 C   0  0  2  0  0  0  0  0  0  0  0  0
   24.9430  -18.2216  -16.7914 N   0  0  0  0  0  0  0  0  0  0  0  0
   24.1311  -19.2720  -14.7736 C   0  0  0  0  0  0  0  0  0  0  0  0
   24.6088  -20.3677  -15.2562 O   0  0  0  0  0  0  0  0  0  0  0  0
   25.1234  -20.6072   -8.8518 C   0  0  0  0  0  0  0  0  0  0  0  0
   24.8917  -21.2103  -10.2465 C   0  0  2  0  0  0  0  0  0  0  0  0
   26.0827  -22.0808  -10.5163 C   0  0  0  0  0  0  0  0  0  0  0  0
   24.7305  -20.1050  -11.2145 C   0  0  0  0  0  0  0  0  0  0  0  0
   24.1514  -20.4683  -12.5545 C   0  0  2  0  0  0  0  0  0  0  0  0
   23.8947  -19.2989  -13.4007 N   0  0  0  0  0  0  0  0  0  0  0  0
   22.8134  -21.0648  -12.3083 C   0  0  0  0  0  0  0  0  0  0  0  0
   22.6301  -22.4671  -12.3634 O   0  0  0  0  0  0  0  0  0  0  0  0
   21.7771  -20.4164  -12.0387 O   0  0  0  0  0  0  0  0  0  0  0  0
  2  1  1  6
  3  2  1  0
  4  3  1  0
  5  4  1  0
  6  5  2  0
  7 14  1  0
  7  2  1  0
  8  7  2  0
  9  5  1  0
 11 10  1  6
 11 13  1  0
 12 11  1  0
 13 15  1  0
 13 14  1  6
 15 22  1  0
 16 15  2  0
 18 20  1  0
 18 17  1  1
 19 18  1  0
 21 23  1  0
 21 20  1  1
 22 21  1  0
 23 24  1  0
 25 23  2  0
M  END
$$$$
