ETL.pdb
     RDKit          3D

 25 24  0  0  1  0  0  0  0  0999 V2000
   15.5050  -13.4116  -18.2040 N   0  0  0  0  0  0  0  0  0  0  0  0
   15.8530  -12.3306  -17.3516 C   0  0  1  0  0  0  0  0  0  0  0  0
   15.7837  -12.6168  -15.8717 C   0  0  0  0  0  0  0  0  0  0  0  0
   16.4381  -13.8757  -15.4573 C   0  0  0  0  0  0  0  0  0  0  0  0
   17.6918  -13.6649  -14.7296 C   0  0  0  0  0  0  0  0  0  0  0  0
   17.9060  -12.7422  -13.9084 O   0  0  0  0  0  0  0  0  0  0  0  0
   17.2059  -11.7468  -17.6661 C   0  0  0  0  0  0  0  0  0  0  0  0
   18.1437  -12.4879  -18.0853 O   0  0  0  0  0  0  0  0  0  0  0  0
   18.7604  -14.5562  -14.9428 O   0  0  0  0  0  0  0  0  0  0  0  0
   17.7942   -8.3924  -19.7937 C   0  0  0  0  0  0  0  0  0  0  0  0
   18.5647   -8.4154  -18.4963 C   0  0  1  0  0  0  0  0  0  0  0  0
   17.7468   -7.7010  -17.5896 O   0  0  0  0  0  0  0  0  0  0  0  0
   18.7966   -9.8315  -17.9689 C   0  0  2  0  0  0  0  0  0  0  0  0
   17.5087  -10.3771  -17.5203 N   0  0  0  0  0  0  0  0  0  0  0  0
   19.7435   -9.7494  -16.8527 C   0  0  0  0  0  0  0  0  0  0  0  0
   19.2224   -9.7550  -15.6736 O   0  0  0  0  0  0  0  0  0  0  0  0
   25.7609  -10.1308  -15.3186 C   0  0  0  0  0  0  0  0  0  0  0  0
   24.3276   -9.9544  -14.7919 C   0  0  2  0  0  0  0  0  0  0  0  0
   24.1365  -11.0298  -13.7644 C   0  0  0  0  0  0  0  0  0  0  0  0
   23.3935  -10.0488  -15.9335 C   0  0  0  0  0  0  0  0  0  0  0  0
   21.9640   -9.6678  -15.6616 C   0  0  2  0  0  0  0  0  0  0  0  0
   21.1343   -9.6670  -16.8703 N   0  0  0  0  0  0  0  0  0  0  0  0
   21.9656   -8.2570  -15.1965 C   0  0  0  0  0  0  0  0  0  0  0  0
   22.0197   -7.9554  -13.8148 O   0  0  0  0  0  0  0  0  0  0  0  0
   21.9257   -7.2544  -15.9451 O   0  0  0  0  0  0  0  0  0  0  0  0
  2  1  1  6
  3  2  1  0
  4  3  1  0
  5  4  1  0
  6  5  2  0
  7 14  1  0
  7  2  1  0
  8  7  2  0
  9  5  1  0
 11 10  1  6
 11 13  1  0
 12 11  1  0
 13 15  1  0
 13 14  1  1
 15 22  1  0
 16 15  2  0
 18 20  1  0
 18 17  1  6
 19 18  1  0
 21 23  1  0
 21 20  1  6
 22 21  1  0
 23 24  1  0
 25 23  2  0
M  END
$$$$
