ETL.pdb
     RDKit          3D

 25 24  0  0  1  0  0  0  0  0999 V2000
   16.7395  -25.0274   -9.3193 N   0  0  0  0  0  0  0  0  0  0  0  0
   17.8553  -25.2807   -8.4783 C   0  0  1  0  0  0  0  0  0  0  0  0
   19.1169  -24.5277   -8.8219 C   0  0  0  0  0  0  0  0  0  0  0  0
   19.5803  -24.7066  -10.2141 C   0  0  0  0  0  0  0  0  0  0  0  0
   19.4630  -23.4921  -11.0246 C   0  0  0  0  0  0  0  0  0  0  0  0
   19.1565  -22.3574  -10.5884 O   0  0  0  0  0  0  0  0  0  0  0  0
   17.5505  -25.0681   -7.0181 C   0  0  0  0  0  0  0  0  0  0  0  0
   16.9577  -24.0174   -6.6320 O   0  0  0  0  0  0  0  0  0  0  0  0
   19.7138  -23.5702  -12.4076 O   0  0  0  0  0  0  0  0  0  0  0  0
   15.0579  -25.1547   -5.2945 C   0  0  0  0  0  0  0  0  0  0  0  0
   15.9144  -26.1944   -4.6141 C   0  0  1  0  0  0  0  0  0  0  0  0
   15.6930  -27.3751   -5.3612 O   0  0  0  0  0  0  0  0  0  0  0  0
   17.4027  -25.8456   -4.6383 C   0  0  2  0  0  0  0  0  0  0  0  0
   17.8933  -25.9977   -6.0144 N   0  0  0  0  0  0  0  0  0  0  0  0
   18.0981  -26.7664   -3.7338 C   0  0  0  0  0  0  0  0  0  0  0  0
   18.8591  -27.6399   -4.2991 O   0  0  0  0  0  0  0  0  0  0  0  0
   21.1519  -26.2291    0.0071 C   0  0  0  0  0  0  0  0  0  0  0  0
   19.6337  -26.0704    0.1874 C   0  0  2  0  0  0  0  0  0  0  0  0
   19.4380  -25.6054    1.5996 C   0  0  0  0  0  0  0  0  0  0  0  0
   18.9883  -27.3670   -0.1074 C   0  0  0  0  0  0  0  0  0  0  0  0
   18.8997  -27.7558   -1.5579 C   0  0  2  0  0  0  0  0  0  0  0  0
   18.0639  -26.8422   -2.3430 N   0  0  0  0  0  0  0  0  0  0  0  0
   18.2005  -29.0649   -1.6205 C   0  0  0  0  0  0  0  0  0  0  0  0
   18.8873  -30.2626   -1.3092 O   0  0  0  0  0  0  0  0  0  0  0  0
   16.9988  -29.2226   -1.9342 O   0  0  0  0  0  0  0  0  0  0  0  0
  2  1  1  6
  3  2  1  0
  4  3  1  0
  5  4  1  0
  6  5  2  0
  7 14  1  0
  7  2  1  0
  8  7  2  0
  9  5  1  0
 11 10  1  6
 11 13  1  0
 12 11  1  0
 13 15  1  0
 13 14  1  6
 15 22  1  0
 16 15  2  0
 18 20  1  0
 18 17  1  1
 19 18  1  0
 21 23  1  0
 21 20  1  1
 22 21  1  0
 23 24  1  0
 25 23  2  0
M  END
$$$$
