ETL.pdb
     RDKit          3D

 25 24  0  0  1  0  0  0  0  0999 V2000
   16.6971  -10.9796  -20.1510 N   0  0  0  0  0  0  0  0  0  0  0  0
   17.2164  -11.8136  -19.1258 C   0  0  1  0  0  0  0  0  0  0  0  0
   17.3104  -13.2815  -19.4623 C   0  0  0  0  0  0  0  0  0  0  0  0
   17.7293  -13.5688  -20.8504 C   0  0  0  0  0  0  0  0  0  0  0  0
   17.7379  -14.9986  -21.1690 C   0  0  0  0  0  0  0  0  0  0  0  0
   16.9069  -15.5813  -21.9050 O   0  0  0  0  0  0  0  0  0  0  0  0
   18.5557  -11.3504  -18.6140 C   0  0  0  0  0  0  0  0  0  0  0  0
   19.2070  -12.0564  -17.7882 O   0  0  0  0  0  0  0  0  0  0  0  0
   18.7511  -15.8107  -20.6255 O   0  0  0  0  0  0  0  0  0  0  0  0
   21.2479   -8.9282  -20.7678 C   0  0  0  0  0  0  0  0  0  0  0  0
   20.9795   -8.5595  -19.3292 C   0  0  1  0  0  0  0  0  0  0  0  0
   19.9732   -7.5678  -19.4030 O   0  0  0  0  0  0  0  0  0  0  0  0
   20.4745   -9.7394  -18.4985 C   0  0  2  0  0  0  0  0  0  0  0  0
   19.1560  -10.1371  -19.0096 N   0  0  0  0  0  0  0  0  0  0  0  0
   20.3806   -9.3026  -17.1022 C   0  0  0  0  0  0  0  0  0  0  0  0
   19.2096   -8.9362  -16.7067 O   0  0  0  0  0  0  0  0  0  0  0  0
   23.1045   -9.6207  -11.5692 C   0  0  0  0  0  0  0  0  0  0  0  0
   21.9678   -8.9605  -12.3659 C   0  0  2  0  0  0  0  0  0  0  0  0
   20.7080   -9.2789  -11.6172 C   0  0  0  0  0  0  0  0  0  0  0  0
   21.9915   -9.4921  -13.7449 C   0  0  0  0  0  0  0  0  0  0  0  0
   21.1244   -8.7841  -14.7497 C   0  0  2  0  0  0  0  0  0  0  0  0
   21.3720   -9.2234  -16.1264 N   0  0  0  0  0  0  0  0  0  0  0  0
   21.5094   -7.3496  -14.7297 C   0  0  0  0  0  0  0  0  0  0  0  0
   22.4660   -6.8489  -15.6448 O   0  0  0  0  0  0  0  0  0  0  0  0
   21.0444   -6.4925  -13.9445 O   0  0  0  0  0  0  0  0  0  0  0  0
  2  1  1  6
  3  2  1  0
  4  3  1  0
  5  4  1  0
  6  5  2  0
  7 14  1  0
  7  2  1  0
  8  7  2  0
  9  5  1  0
 11 10  1  6
 11 13  1  0
 12 11  1  0
 13 15  1  0
 13 14  1  6
 15 22  1  0
 16 15  2  0
 18 20  1  0
 18 17  1  1
 19 18  1  0
 21 23  1  0
 21 20  1  1
 22 21  1  0
 23 24  1  0
 25 23  2  0
M  END
$$$$
