ETL.pdb
     RDKit          3D

 25 24  0  0  1  0  0  0  0  0999 V2000
   27.1868  -21.1471  -18.6818 N   0  0  0  0  0  0  0  0  0  0  0  0
   27.8516  -22.0886  -17.8524 C   0  0  1  0  0  0  0  0  0  0  0  0
   29.2714  -22.4168  -18.2440 C   0  0  0  0  0  0  0  0  0  0  0  0
   29.5765  -22.2160  -19.6763 C   0  0  0  0  0  0  0  0  0  0  0  0
   29.7736  -20.8096  -20.0353 C   0  0  0  0  0  0  0  0  0  0  0  0
   30.3090  -19.9438  -19.3037 O   0  0  0  0  0  0  0  0  0  0  0  0
   27.8305  -21.7056  -16.3953 C   0  0  0  0  0  0  0  0  0  0  0  0
   28.4348  -22.4136  -15.5362 O   0  0  0  0  0  0  0  0  0  0  0  0
   29.3433  -20.3633  -21.2992 O   0  0  0  0  0  0  0  0  0  0  0  0
   29.1869  -18.6542  -14.9494 C   0  0  0  0  0  0  0  0  0  0  0  0
   27.7904  -18.7729  -14.3899 C   0  0  1  0  0  0  0  0  0  0  0  0
   27.0156  -17.9028  -15.1924 O   0  0  0  0  0  0  0  0  0  0  0  0
   27.2307  -20.1923  -14.4874 C   0  0  2  0  0  0  0  0  0  0  0  0
   27.1580  -20.5667  -15.9059 N   0  0  0  0  0  0  0  0  0  0  0  0
   25.8965  -20.1954  -13.8799 C   0  0  0  0  0  0  0  0  0  0  0  0
   24.9062  -20.1115  -14.7009 O   0  0  0  0  0  0  0  0  0  0  0  0
   21.9111  -21.8194  -10.6539 C   0  0  0  0  0  0  0  0  0  0  0  0
   21.9568  -21.5862  -12.1725 C   0  0  2  0  0  0  0  0  0  0  0  0
   21.2259  -22.7440  -12.7841 C   0  0  0  0  0  0  0  0  0  0  0  0
   23.3714  -21.4876  -12.5895 C   0  0  0  0  0  0  0  0  0  0  0  0
   24.1395  -20.3010  -12.0749 C   0  0  2  0  0  0  0  0  0  0  0  0
   25.5303  -20.2777  -12.5380 N   0  0  0  0  0  0  0  0  0  0  0  0
   24.2290  -20.4415  -10.5988 C   0  0  0  0  0  0  0  0  0  0  0  0
   23.3636  -19.7078   -9.7528 O   0  0  0  0  0  0  0  0  0  0  0  0
   25.0342  -21.1871   -9.9963 O   0  0  0  0  0  0  0  0  0  0  0  0
  2  1  1  6
  3  2  1  0
  4  3  1  0
  5  4  1  0
  6  5  2  0
  7 14  1  0
  7  2  1  0
  8  7  2  0
  9  5  1  0
 11 10  1  6
 11 13  1  0
 12 11  1  0
 13 15  1  0
 13 14  1  6
 15 22  1  0
 16 15  2  0
 18 20  1  0
 18 17  1  1
 19 18  1  0
 21 23  1  0
 21 20  1  6
 22 21  1  0
 23 24  1  0
 25 23  2  0
M  END
$$$$
