ETL.pdb
     RDKit          3D

 25 24  0  0  1  0  0  0  0  0999 V2000
   22.7318  -32.8412  -12.0199 N   0  0  0  0  0  0  0  0  0  0  0  0
   23.1243  -32.1925  -10.8193 C   0  0  1  0  0  0  0  0  0  0  0  0
   22.0171  -31.5133  -10.0514 C   0  0  0  0  0  0  0  0  0  0  0  0
   21.4465  -30.3236  -10.7176 C   0  0  0  0  0  0  0  0  0  0  0  0
   20.3503  -29.7082   -9.9657 C   0  0  0  0  0  0  0  0  0  0  0  0
   19.9191  -30.1065   -8.8580 O   0  0  0  0  0  0  0  0  0  0  0  0
   23.8751  -33.1001   -9.8798 C   0  0  0  0  0  0  0  0  0  0  0  0
   23.7250  -34.3562   -9.9430 O   0  0  0  0  0  0  0  0  0  0  0  0
   19.7122  -28.5728  -10.4998 O   0  0  0  0  0  0  0  0  0  0  0  0
   27.7940  -34.0018   -7.0721 C   0  0  0  0  0  0  0  0  0  0  0  0
   26.9790  -33.2201   -8.0731 C   0  0  1  0  0  0  0  0  0  0  0  0
   27.4998  -33.6085   -9.3298 O   0  0  0  0  0  0  0  0  0  0  0  0
   25.4878  -33.5521   -8.0130 C   0  0  2  0  0  0  0  0  0  0  0  0
   24.7694  -32.6256   -8.8978 N   0  0  0  0  0  0  0  0  0  0  0  0
   25.0445  -33.3939   -6.6245 C   0  0  0  0  0  0  0  0  0  0  0  0
   25.0303  -32.1860   -6.1745 O   0  0  0  0  0  0  0  0  0  0  0  0
   21.3894  -33.2211   -3.7694 C   0  0  0  0  0  0  0  0  0  0  0  0
   21.8196  -34.5935   -4.3115 C   0  0  2  0  0  0  0  0  0  0  0  0
   20.7611  -35.5574   -3.8649 C   0  0  0  0  0  0  0  0  0  0  0  0
   23.1665  -34.9035   -3.7876 C   0  0  0  0  0  0  0  0  0  0  0  0
   24.2979  -34.0616   -4.3109 C   0  0  2  0  0  0  0  0  0  0  0  0
   24.6305  -34.3580   -5.7077 N   0  0  0  0  0  0  0  0  0  0  0  0
   25.5134  -34.4304   -3.5406 C   0  0  0  0  0  0  0  0  0  0  0  0
   25.7912  -33.8141   -2.2972 O   0  0  0  0  0  0  0  0  0  0  0  0
   26.3599  -35.2802   -3.8990 O   0  0  0  0  0  0  0  0  0  0  0  0
  2  1  1  6
  3  2  1  0
  4  3  1  0
  5  4  1  0
  6  5  2  0
  7 14  1  0
  7  2  1  0
  8  7  2  0
  9  5  1  0
 11 10  1  1
 11 13  1  0
 12 11  1  0
 13 15  1  0
 13 14  1  6
 15 22  1  0
 16 15  2  0
 18 20  1  0
 18 17  1  1
 19 18  1  0
 21 23  1  0
 21 20  1  1
 22 21  1  0
 23 24  1  0
 25 23  2  0
M  END
$$$$
