ETL.pdb
     RDKit          3D

 25 24  0  0  1  0  0  0  0  0999 V2000
   25.7465  -18.8602  -16.2409 N   0  0  0  0  0  0  0  0  0  0  0  0
   26.6862  -18.6572  -15.1958 C   0  0  1  0  0  0  0  0  0  0  0  0
   27.5492  -17.4260  -15.3231 C   0  0  0  0  0  0  0  0  0  0  0  0
   27.9278  -17.0807  -16.7095 C   0  0  0  0  0  0  0  0  0  0  0  0
   28.3766  -18.2346  -17.4923 C   0  0  0  0  0  0  0  0  0  0  0  0
   29.4471  -18.8611  -17.3098 O   0  0  0  0  0  0  0  0  0  0  0  0
   26.0539  -18.6625  -13.8282 C   0  0  0  0  0  0  0  0  0  0  0  0
   25.8418  -17.5751  -13.2143 O   0  0  0  0  0  0  0  0  0  0  0  0
   27.5603  -18.7069  -18.5373 O   0  0  0  0  0  0  0  0  0  0  0  0
   22.6928  -20.2168  -13.1298 C   0  0  0  0  0  0  0  0  0  0  0  0
   23.6645  -20.7097  -12.0856 C   0  0  1  0  0  0  0  0  0  0  0  0
   24.0864  -21.9714  -12.5665 O   0  0  0  0  0  0  0  0  0  0  0  0
   24.8771  -19.7928  -11.9236 C   0  0  2  0  0  0  0  0  0  0  0  0
   25.6665  -19.8433  -13.1612 N   0  0  0  0  0  0  0  0  0  0  0  0
   25.6631  -20.2788  -10.7855 C   0  0  0  0  0  0  0  0  0  0  0  0
   26.5480  -21.1760  -11.0573 O   0  0  0  0  0  0  0  0  0  0  0  0
   28.0810  -18.9228   -5.3337 C   0  0  0  0  0  0  0  0  0  0  0  0
   27.8804  -20.0357   -6.3748 C   0  0  2  0  0  0  0  0  0  0  0  0
   29.2579  -20.4414   -6.8071 C   0  0  0  0  0  0  0  0  0  0  0  0
   27.0438  -19.5061   -7.4721 C   0  0  0  0  0  0  0  0  0  0  0  0
   26.4310  -20.5224   -8.3965 C   0  0  2  0  0  0  0  0  0  0  0  0
   25.6014  -19.9153   -9.4418 N   0  0  0  0  0  0  0  0  0  0  0  0
   25.4915  -21.3417   -7.5887 C   0  0  0  0  0  0  0  0  0  0  0  0
   25.9786  -22.3464   -6.7190 O   0  0  0  0  0  0  0  0  0  0  0  0
   24.2453  -21.2233   -7.5980 O   0  0  0  0  0  0  0  0  0  0  0  0
  2  1  1  6
  3  2  1  0
  4  3  1  0
  5  4  1  0
  6  5  2  0
  7 14  1  0
  7  2  1  0
  8  7  2  0
  9  5  1  0
 11 10  1  6
 11 13  1  0
 12 11  1  0
 13 15  1  0
 13 14  1  6
 15 22  1  0
 16 15  2  0
 18 20  1  0
 18 17  1  1
 19 18  1  0
 21 23  1  0
 21 20  1  1
 22 21  1  0
 23 24  1  0
 25 23  2  0
M  END
$$$$
