ETL.pdb
     RDKit          3D

 25 24  0  0  1  0  0  0  0  0999 V2000
   15.7725  -12.6540  -18.6094 N   0  0  0  0  0  0  0  0  0  0  0  0
   16.1405  -11.7479  -17.5800 C   0  0  1  0  0  0  0  0  0  0  0  0
   16.2653  -12.3433  -16.1991 C   0  0  0  0  0  0  0  0  0  0  0  0
   16.6547  -13.7691  -16.1768 C   0  0  0  0  0  0  0  0  0  0  0  0
   16.6573  -14.3482  -14.8314 C   0  0  0  0  0  0  0  0  0  0  0  0
   16.2941  -13.7563  -13.7877 O   0  0  0  0  0  0  0  0  0  0  0  0
   17.4026  -10.9862  -17.8915 C   0  0  0  0  0  0  0  0  0  0  0  0
   18.2602  -11.4638  -18.6920 O   0  0  0  0  0  0  0  0  0  0  0  0
   17.0916  -15.6767  -14.6633 O   0  0  0  0  0  0  0  0  0  0  0  0
   17.4610   -7.1934  -18.8167 C   0  0  0  0  0  0  0  0  0  0  0  0
   18.5393   -7.4933  -17.8044 C   0  0  1  0  0  0  0  0  0  0  0  0
   17.9829   -7.0883  -16.5684 O   0  0  0  0  0  0  0  0  0  0  0  0
   18.8979   -8.9782  -17.7416 C   0  0  2  0  0  0  0  0  0  0  0  0
   17.7033   -9.7277  -17.3304 N   0  0  0  0  0  0  0  0  0  0  0  0
   19.9769   -9.1423  -16.7628 C   0  0  0  0  0  0  0  0  0  0  0  0
   19.7244   -9.9337  -15.7771 O   0  0  0  0  0  0  0  0  0  0  0  0
   23.9199  -10.8274  -14.1674 C   0  0  0  0  0  0  0  0  0  0  0  0
   24.4382  -10.2718  -15.5035 C   0  0  2  0  0  0  0  0  0  0  0  0
   25.2915   -9.0905  -15.1492 C   0  0  0  0  0  0  0  0  0  0  0  0
   23.2769   -9.9341  -16.3532 C   0  0  0  0  0  0  0  0  0  0  0  0
   22.2907   -8.9538  -15.7794 C   0  0  2  0  0  0  0  0  0  0  0  0
   21.2469   -8.5698  -16.7347 N   0  0  0  0  0  0  0  0  0  0  0  0
   23.0324   -7.6982  -15.4965 C   0  0  0  0  0  0  0  0  0  0  0  0
   23.5466   -7.4428  -14.2029 O   0  0  0  0  0  0  0  0  0  0  0  0
   23.2637   -6.7969  -16.3339 O   0  0  0  0  0  0  0  0  0  0  0  0
  2  1  1  6
  3  2  1  0
  4  3  1  0
  5  4  1  0
  6  5  2  0
  7 14  1  0
  7  2  1  0
  8  7  2  0
  9  5  1  0
 11 10  1  6
 11 13  1  0
 12 11  1  0
 13 15  1  0
 13 14  1  1
 15 22  1  0
 16 15  2  0
 18 20  1  0
 18 17  1  1
 19 18  1  0
 21 23  1  0
 21 20  1  6
 22 21  1  0
 23 24  1  0
 25 23  2  0
M  END
$$$$
