ETL.pdb
     RDKit          3D

 25 24  0  0  1  0  0  0  0  0999 V2000
   16.2611  -13.6344  -18.9326 N   0  0  0  0  0  0  0  0  0  0  0  0
   16.4356  -12.7671  -17.8219 C   0  0  1  0  0  0  0  0  0  0  0  0
   16.7165  -13.4432  -16.5026 C   0  0  0  0  0  0  0  0  0  0  0  0
   15.6988  -14.4324  -16.0893 C   0  0  0  0  0  0  0  0  0  0  0  0
   15.9943  -15.0644  -14.8013 C   0  0  0  0  0  0  0  0  0  0  0  0
   16.9832  -14.8029  -14.0765 O   0  0  0  0  0  0  0  0  0  0  0  0
   17.4886  -11.7155  -18.0576 C   0  0  0  0  0  0  0  0  0  0  0  0
   18.5041  -11.9716  -18.7701 O   0  0  0  0  0  0  0  0  0  0  0  0
   15.1134  -16.0445  -14.3063 O   0  0  0  0  0  0  0  0  0  0  0  0
   17.1731   -8.3396  -19.6767 C   0  0  0  0  0  0  0  0  0  0  0  0
   17.7989   -8.1495  -18.3167 C   0  0  1  0  0  0  0  0  0  0  0  0
   16.7158   -7.7959  -17.4782 O   0  0  0  0  0  0  0  0  0  0  0  0
   18.4627   -9.4204  -17.7860 C   0  0  2  0  0  0  0  0  0  0  0  0
   17.4151  -10.4145  -17.5180 N   0  0  0  0  0  0  0  0  0  0  0  0
   19.1798   -9.0760  -16.5546 C   0  0  0  0  0  0  0  0  0  0  0  0
   18.4940   -9.1534  -15.4658 O   0  0  0  0  0  0  0  0  0  0  0  0
   22.3314  -10.8112  -13.5950 C   0  0  0  0  0  0  0  0  0  0  0  0
   22.8153  -10.2620  -14.9466 C   0  0  2  0  0  0  0  0  0  0  0  0
   24.2721  -10.6083  -15.0285 C   0  0  0  0  0  0  0  0  0  0  0  0
   22.5454   -8.8094  -14.9863 C   0  0  0  0  0  0  0  0  0  0  0  0
   21.1004   -8.3993  -15.0681 C   0  0  2  0  0  0  0  0  0  0  0  0
   20.5026   -8.6754  -16.3780 N   0  0  0  0  0  0  0  0  0  0  0  0
   21.0541   -6.9211  -14.9292 C   0  0  0  0  0  0  0  0  0  0  0  0
   21.1867   -6.3138  -13.6577 O   0  0  0  0  0  0  0  0  0  0  0  0
   20.9055   -6.1155  -15.8759 O   0  0  0  0  0  0  0  0  0  0  0  0
  2  1  1  6
  3  2  1  0
  4  3  1  0
  5  4  1  0
  6  5  2  0
  7 14  1  0
  7  2  1  0
  8  7  2  0
  9  5  1  0
 11 10  1  6
 11 13  1  0
 12 11  1  0
 13 15  1  0
 13 14  1  1
 15 22  1  0
 16 15  2  0
 18 20  1  0
 18 17  1  1
 19 18  1  0
 21 23  1  0
 21 20  1  6
 22 21  1  0
 23 24  1  0
 25 23  2  0
M  END
$$$$
