ETL.pdb
     RDKit          3D

 25 24  0  0  1  0  0  0  0  0999 V2000
   14.3160  -11.6231  -18.8413 N   0  0  0  0  0  0  0  0  0  0  0  0
   14.6307  -10.8881  -17.6678 C   0  0  1  0  0  0  0  0  0  0  0  0
   14.4816  -11.6384  -16.3671 C   0  0  0  0  0  0  0  0  0  0  0  0
   15.4806  -12.7071  -16.1555 C   0  0  0  0  0  0  0  0  0  0  0  0
   15.2486  -13.4838  -14.9354 C   0  0  0  0  0  0  0  0  0  0  0  0
   15.9874  -14.4037  -14.5113 O   0  0  0  0  0  0  0  0  0  0  0  0
   16.0042  -10.2703  -17.7124 C   0  0  0  0  0  0  0  0  0  0  0  0
   17.0231  -10.9858  -17.9454 O   0  0  0  0  0  0  0  0  0  0  0  0
   14.1167  -13.1951  -14.1499 O   0  0  0  0  0  0  0  0  0  0  0  0
   16.5011   -6.5674  -19.3013 C   0  0  0  0  0  0  0  0  0  0  0  0
   17.3550   -6.8121  -18.0813 C   0  0  1  0  0  0  0  0  0  0  0  0
   16.6358   -6.2092  -17.0228 O   0  0  0  0  0  0  0  0  0  0  0  0
   17.5526   -8.2986  -17.7837 C   0  0  2  0  0  0  0  0  0  0  0  0
   16.2395   -8.8953  -17.5053 N   0  0  0  0  0  0  0  0  0  0  0  0
   18.4335   -8.4135  -16.6174 C   0  0  0  0  0  0  0  0  0  0  0  0
   17.8550   -8.7118  -15.5048 O   0  0  0  0  0  0  0  0  0  0  0  0
   24.0946   -9.8826  -14.7902 C   0  0  0  0  0  0  0  0  0  0  0  0
   22.7838   -9.2215  -14.3350 C   0  0  2  0  0  0  0  0  0  0  0  0
   22.2947  -10.0417  -13.1786 C   0  0  0  0  0  0  0  0  0  0  0  0
   21.8507   -9.1920  -15.4809 C   0  0  0  0  0  0  0  0  0  0  0  0
   20.5729   -8.4233  -15.2836 C   0  0  2  0  0  0  0  0  0  0  0  0
   19.8142   -8.2499  -16.5261 N   0  0  0  0  0  0  0  0  0  0  0  0
   20.9472   -7.0473  -14.8675 C   0  0  0  0  0  0  0  0  0  0  0  0
   20.9365   -5.9852  -15.8029 O   0  0  0  0  0  0  0  0  0  0  0  0
   21.2855   -6.7148  -13.7090 O   0  0  0  0  0  0  0  0  0  0  0  0
  2  1  1  6
  3  2  1  0
  4  3  1  0
  5  4  1  0
  6  5  2  0
  7 14  1  0
  7  2  1  0
  8  7  2  0
  9  5  1  0
 11 10  1  6
 11 13  1  0
 12 11  1  0
 13 15  1  0
 13 14  1  1
 15 22  1  0
 16 15  2  0
 18 20  1  0
 18 17  1  6
 19 18  1  0
 21 23  1  0
 21 20  1  6
 22 21  1  0
 23 24  1  0
 25 23  2  0
M  END
$$$$
