QEG.pdb
     RDKit          3D

 23 22  0  0  1  0  0  0  0  0999 V2000
   27.1370  -18.6653  -14.3674 N   0  0  0  0  0  0  0  0  0  0  0  0
   27.3293  -19.2970  -15.6470 C   0  0  0  0  0  0  0  0  0  0  0  0
   28.4981  -19.2872  -16.0766 O   0  0  0  0  0  0  0  0  0  0  0  0
   26.1918  -19.8853  -16.3416 C   0  0  0  0  0  0  0  0  0  0  0  0
   24.9340  -19.7966  -15.5541 C   0  0  0  0  0  0  0  0  0  0  0  0
   24.7634  -20.8387  -14.5100 C   0  0  2  0  0  0  0  0  0  0  0  0
   25.1553  -22.1632  -14.8082 N   0  0  0  0  0  0  0  0  0  0  0  0
   23.3234  -20.8198  -14.1008 C   0  0  0  0  0  0  0  0  0  0  0  0
   22.4691  -21.5538  -14.6751 O   0  0  0  0  0  0  0  0  0  0  0  0
   22.9117  -19.9828  -13.0742 N   0  0  0  0  0  0  0  0  0  0  0  0
   21.4869  -19.8183  -12.6739 C   0  0  1  0  0  0  0  0  0  0  0  0
   21.5584  -19.4898  -11.2215 C   0  0  0  0  0  0  0  0  0  0  0  0
   21.5830  -20.6308  -10.2586 C   0  0  0  0  0  0  0  0  0  0  0  0
   20.3074  -21.3637  -10.3012 C   0  0  0  0  0  0  0  0  0  0  0  0
   20.2491  -22.5219   -9.8098 O   0  0  0  0  0  0  0  0  0  0  0  0
   20.8314  -18.8971  -13.5839 C   0  0  0  0  0  0  0  0  0  0  0  0
   21.4606  -17.8730  -14.0283 O   0  0  0  0  0  0  0  0  0  0  0  0
   19.1789  -20.8222  -10.8611 O   0  0  0  0  0  0  0  0  0  0  0  0
   19.4981  -19.0254  -14.0519 N   0  0  0  0  0  0  0  0  0  0  0  0
   18.8758  -18.0940  -14.9744 C   0  0  0  0  0  0  0  0  0  0  0  0
   19.0363  -18.5583  -16.3619 C   0  0  0  0  0  0  0  0  0  0  0  0
   19.8197  -19.4822  -16.6864 O   0  0  0  0  0  0  0  0  0  0  0  0
   18.2905  -17.9500  -17.3535 O   0  0  0  0  0  0  0  0  0  0  0  0
  2  1  1  0
  2  3  2  0
  4  2  1  0
  5  4  1  0
  6  5  1  0
  6  7  1  6
  8  6  1  0
  8 10  1  0
  9  8  2  0
 11 10  1  0
 11 12  1  1
 12 13  1  0
 13 14  1  0
 14 15  2  0
 16 11  1  0
 17 16  2  0
 18 14  1  0
 19 16  1  0
 20 21  1  0
 20 19  1  0
 21 23  1  0
 22 21  2  0
M  END
$$$$
