QEG.pdb
     RDKit          3D

 23 22  0  0  1  0  0  0  0  0999 V2000
   28.4176  -10.3379  -16.1947 N   0  0  0  0  0  0  0  0  0  0  0  0
   28.0806  -11.7055  -15.8952 C   0  0  0  0  0  0  0  0  0  0  0  0
   29.0493  -12.4645  -15.7050 O   0  0  0  0  0  0  0  0  0  0  0  0
   26.6821  -12.1098  -15.8371 C   0  0  0  0  0  0  0  0  0  0  0  0
   25.7497  -10.9565  -15.9403 C   0  0  0  0  0  0  0  0  0  0  0  0
   24.3077  -11.2938  -15.8320 C   0  0  2  0  0  0  0  0  0  0  0  0
   23.7920  -12.3232  -16.6513 N   0  0  0  0  0  0  0  0  0  0  0  0
   23.5412  -10.0298  -16.0696 C   0  0  0  0  0  0  0  0  0  0  0  0
   23.9270   -9.1798  -16.9223 O   0  0  0  0  0  0  0  0  0  0  0  0
   22.3863   -9.7796  -15.3432 N   0  0  0  0  0  0  0  0  0  0  0  0
   21.5295   -8.5804  -15.5556 C   0  0  1  0  0  0  0  0  0  0  0  0
   20.1558   -9.1420  -15.6962 C   0  0  0  0  0  0  0  0  0  0  0  0
   19.0245   -8.1735  -15.8049 C   0  0  0  0  0  0  0  0  0  0  0  0
   17.7488   -8.8918  -15.9554 C   0  0  0  0  0  0  0  0  0  0  0  0
   17.2579   -9.0348  -17.1065 O   0  0  0  0  0  0  0  0  0  0  0  0
   21.7995   -7.6023  -14.5179 C   0  0  0  0  0  0  0  0  0  0  0  0
   22.1262   -7.9861  -13.3398 O   0  0  0  0  0  0  0  0  0  0  0  0
   17.0777   -9.4106  -14.8781 O   0  0  0  0  0  0  0  0  0  0  0  0
   21.7335   -6.1952  -14.6883 N   0  0  0  0  0  0  0  0  0  0  0  0
   21.9280   -5.2439  -13.6099 C   0  0  0  0  0  0  0  0  0  0  0  0
   21.9257   -3.8673  -14.1305 C   0  0  0  0  0  0  0  0  0  0  0  0
   21.7637   -3.5966  -15.3443 O   0  0  0  0  0  0  0  0  0  0  0  0
   22.1101   -2.8241  -13.2433 O   0  0  0  0  0  0  0  0  0  0  0  0
  2  1  1  0
  2  3  2  0
  4  2  1  0
  5  4  1  0
  6  5  1  0
  6  7  1  6
  8  6  1  0
  8 10  1  0
  9  8  2  0
 11 10  1  0
 11 12  1  1
 12 13  1  0
 13 14  1  0
 14 15  2  0
 16 11  1  0
 17 16  2  0
 18 14  1  0
 19 16  1  0
 20 21  1  0
 20 19  1  0
 21 23  1  0
 22 21  2  0
M  END
$$$$
