QEG.pdb
     RDKit          3D

 23 22  0  0  1  0  0  0  0  0999 V2000
   16.6366  -12.1440  -10.3049 N   0  0  0  0  0  0  0  0  0  0  0  0
   15.8035  -12.8408  -11.2503 C   0  0  0  0  0  0  0  0  0  0  0  0
   15.5154  -14.0132  -10.9452 O   0  0  0  0  0  0  0  0  0  0  0  0
   15.3644  -12.1644  -12.4638 C   0  0  0  0  0  0  0  0  0  0  0  0
   15.8742  -10.7710  -12.5568 C   0  0  0  0  0  0  0  0  0  0  0  0
   15.1576   -9.7753  -11.7201 C   0  0  2  0  0  0  0  0  0  0  0  0
   13.7701   -9.5985  -11.9210 N   0  0  0  0  0  0  0  0  0  0  0  0
   15.8623   -8.4658  -11.8943 C   0  0  0  0  0  0  0  0  0  0  0  0
   15.6331   -7.7261  -12.8936 O   0  0  0  0  0  0  0  0  0  0  0  0
   16.7861   -8.0511  -10.9463 N   0  0  0  0  0  0  0  0  0  0  0  0
   17.4798   -6.7347  -11.0007 C   0  0  1  0  0  0  0  0  0  0  0  0
   17.2090   -6.1316   -9.6645 C   0  0  0  0  0  0  0  0  0  0  0  0
   15.8830   -5.4756   -9.4618 C   0  0  0  0  0  0  0  0  0  0  0  0
   15.4778   -5.5663   -8.0499 C   0  0  0  0  0  0  0  0  0  0  0  0
   16.2684   -6.0842   -7.2173 O   0  0  0  0  0  0  0  0  0  0  0  0
   18.8516   -6.9275  -11.4335 C   0  0  0  0  0  0  0  0  0  0  0  0
   19.4930   -7.9828  -11.0913 O   0  0  0  0  0  0  0  0  0  0  0  0
   14.2632   -5.1033   -7.6133 O   0  0  0  0  0  0  0  0  0  0  0  0
   19.5875   -6.0183  -12.2366 N   0  0  0  0  0  0  0  0  0  0  0  0
   20.9131   -6.2955  -12.7577 C   0  0  0  0  0  0  0  0  0  0  0  0
   21.3678   -5.1941  -13.6217 C   0  0  0  0  0  0  0  0  0  0  0  0
   20.6362   -4.2245  -13.9338 O   0  0  0  0  0  0  0  0  0  0  0  0
   22.6593   -5.2278  -14.1119 O   0  0  0  0  0  0  0  0  0  0  0  0
  2  1  1  0
  2  3  2  0
  4  2  1  0
  5  4  1  0
  6  5  1  0
  6  7  1  6
  8  6  1  0
  8 10  1  0
  9  8  2  0
 11 10  1  0
 11 12  1  1
 12 13  1  0
 13 14  1  0
 14 15  2  0
 16 11  1  0
 17 16  2  0
 18 14  1  0
 19 16  1  0
 20 21  1  0
 20 19  1  0
 21 23  1  0
 22 21  2  0
M  END
$$$$
