QEG.pdb
     RDKit          3D

 23 22  0  0  1  0  0  0  0  0999 V2000
   18.2085  -14.0271  -16.9602 N   0  0  0  0  0  0  0  0  0  0  0  0
   17.1108  -14.2986  -16.0686 C   0  0  0  0  0  0  0  0  0  0  0  0
   16.5660  -15.4086  -16.2155 O   0  0  0  0  0  0  0  0  0  0  0  0
   16.7124  -13.2989  -15.0864 C   0  0  0  0  0  0  0  0  0  0  0  0
   17.5017  -12.0440  -15.1968 C   0  0  0  0  0  0  0  0  0  0  0  0
   17.1917  -11.0070  -14.1801 C   0  0  2  0  0  0  0  0  0  0  0  0
   15.8370  -10.6999  -13.9209 N   0  0  0  0  0  0  0  0  0  0  0  0
   17.9215   -9.7635  -14.5834 C   0  0  0  0  0  0  0  0  0  0  0  0
   19.1049   -9.8123  -15.0258 O   0  0  0  0  0  0  0  0  0  0  0  0
   17.2943   -8.5315  -14.4707 N   0  0  0  0  0  0  0  0  0  0  0  0
   17.9386   -7.2465  -14.8591 C   0  0  1  0  0  0  0  0  0  0  0  0
   16.7911   -6.3620  -15.2100 C   0  0  0  0  0  0  0  0  0  0  0  0
   17.0918   -4.9294  -15.5047 C   0  0  0  0  0  0  0  0  0  0  0  0
   15.8578   -4.2104  -15.8606 C   0  0  0  0  0  0  0  0  0  0  0  0
   15.1904   -3.6508  -14.9509 O   0  0  0  0  0  0  0  0  0  0  0  0
   18.8661   -6.8364  -13.8208 C   0  0  0  0  0  0  0  0  0  0  0  0
   18.5354   -6.9327  -12.5866 O   0  0  0  0  0  0  0  0  0  0  0  0
   15.4127   -4.1318  -17.1551 O   0  0  0  0  0  0  0  0  0  0  0  0
   20.1654   -6.3140  -14.0496 N   0  0  0  0  0  0  0  0  0  0  0  0
   21.0263   -5.8082  -12.9968 C   0  0  0  0  0  0  0  0  0  0  0  0
   22.2905   -5.3080  -13.5607 C   0  0  0  0  0  0  0  0  0  0  0  0
   23.1486   -4.6986  -12.8787 O   0  0  0  0  0  0  0  0  0  0  0  0
   22.5456   -5.5188  -14.9023 O   0  0  0  0  0  0  0  0  0  0  0  0
  2  1  1  0
  2  3  2  0
  4  2  1  0
  5  4  1  0
  6  5  1  0
  6  7  1  6
  8  6  1  0
  8 10  1  0
  9  8  2  0
 11 10  1  0
 11 12  1  1
 12 13  1  0
 13 14  1  0
 14 15  2  0
 16 11  1  0
 17 16  2  0
 18 14  1  0
 19 16  1  0
 20 21  1  0
 20 19  1  0
 21 23  1  0
 22 21  2  0
M  END
$$$$
