QEG.pdb
     RDKit          3D

 23 22  0  0  1  0  0  0  0  0999 V2000
   22.2942  -16.9453  -16.0153 N   0  0  0  0  0  0  0  0  0  0  0  0
   20.9405  -17.4208  -15.8934 C   0  0  0  0  0  0  0  0  0  0  0  0
   20.0844  -16.7572  -16.5077 O   0  0  0  0  0  0  0  0  0  0  0  0
   20.6584  -18.6018  -15.0880 C   0  0  0  0  0  0  0  0  0  0  0  0
   21.8882  -19.2077  -14.5131 C   0  0  0  0  0  0  0  0  0  0  0  0
   22.6824  -20.0428  -15.4494 C   0  0  2  0  0  0  0  0  0  0  0  0
   21.9959  -20.9135  -16.3253 N   0  0  0  0  0  0  0  0  0  0  0  0
   23.6564  -20.8245  -14.6237 C   0  0  0  0  0  0  0  0  0  0  0  0
   23.2798  -21.8034  -13.9177 O   0  0  0  0  0  0  0  0  0  0  0  0
   24.9982  -20.4728  -14.6274 N   0  0  0  0  0  0  0  0  0  0  0  0
   26.0396  -21.2100  -13.8598 C   0  0  1  0  0  0  0  0  0  0  0  0
   27.2229  -21.2061  -14.7664 C   0  0  0  0  0  0  0  0  0  0  0  0
   27.1571  -22.0638  -15.9870 C   0  0  0  0  0  0  0  0  0  0  0  0
   28.4087  -21.9586  -16.7542 C   0  0  0  0  0  0  0  0  0  0  0  0
   29.2910  -22.8462  -16.6125 O   0  0  0  0  0  0  0  0  0  0  0  0
   26.1556  -20.6398  -12.5301 C   0  0  0  0  0  0  0  0  0  0  0  0
   26.4182  -19.3941  -12.3838 O   0  0  0  0  0  0  0  0  0  0  0  0
   28.6431  -20.9213  -17.6198 O   0  0  0  0  0  0  0  0  0  0  0  0
   25.9996  -21.3612  -11.3184 N   0  0  0  0  0  0  0  0  0  0  0  0
   26.2160  -20.7843  -10.0046 C   0  0  0  0  0  0  0  0  0  0  0  0
   24.9607  -20.7668   -9.2364 C   0  0  0  0  0  0  0  0  0  0  0  0
   23.8540  -21.0911   -9.7292 O   0  0  0  0  0  0  0  0  0  0  0  0
   25.0012  -20.3759   -7.9116 O   0  0  0  0  0  0  0  0  0  0  0  0
  2  1  1  0
  2  3  2  0
  4  2  1  0
  5  4  1  0
  6  5  1  0
  6  7  1  1
  8  6  1  0
  8 10  1  0
  9  8  2  0
 11 10  1  0
 11 12  1  6
 12 13  1  0
 13 14  1  0
 14 15  2  0
 16 11  1  0
 17 16  2  0
 18 14  1  0
 19 16  1  0
 20 21  1  0
 20 19  1  0
 21 23  1  0
 22 21  2  0
M  END
$$$$
