QEG.pdb
     RDKit          3D

 23 22  0  0  1  0  0  0  0  0999 V2000
   17.6170  -14.6404  -14.6310 N   0  0  0  0  0  0  0  0  0  0  0  0
   16.4593  -14.1365  -15.3232 C   0  0  0  0  0  0  0  0  0  0  0  0
   15.4379  -14.8440  -15.2403 O   0  0  0  0  0  0  0  0  0  0  0  0
   16.5444  -12.8798  -16.0554 C   0  0  0  0  0  0  0  0  0  0  0  0
   17.8482  -12.1927  -15.8604 C   0  0  0  0  0  0  0  0  0  0  0  0
   17.7609  -10.7538  -15.5040 C   0  0  2  0  0  0  0  0  0  0  0  0
   16.9030   -9.9225  -16.2588 N   0  0  0  0  0  0  0  0  0  0  0  0
   19.1538  -10.2060  -15.5415 C   0  0  0  0  0  0  0  0  0  0  0  0
   20.1081  -10.8017  -14.9645 O   0  0  0  0  0  0  0  0  0  0  0  0
   19.4089   -9.0227  -16.2188 N   0  0  0  0  0  0  0  0  0  0  0  0
   20.7409   -8.3573  -16.2307 C   0  0  1  0  0  0  0  0  0  0  0  0
   20.9558   -8.0114  -17.6648 C   0  0  0  0  0  0  0  0  0  0  0  0
   22.1530   -7.1848  -18.0011 C   0  0  0  0  0  0  0  0  0  0  0  0
   22.1831   -6.8909  -19.4429 C   0  0  0  0  0  0  0  0  0  0  0  0
   21.3526   -6.0725  -19.9192 O   0  0  0  0  0  0  0  0  0  0  0  0
   20.7663   -7.3064  -15.2300 C   0  0  0  0  0  0  0  0  0  0  0  0
   19.7243   -6.5904  -15.0209 O   0  0  0  0  0  0  0  0  0  0  0  0
   23.0898   -7.4826  -20.2843 O   0  0  0  0  0  0  0  0  0  0  0  0
   21.8856   -6.9782  -14.4222 N   0  0  0  0  0  0  0  0  0  0  0  0
   21.9024   -5.8746  -13.4801 C   0  0  0  0  0  0  0  0  0  0  0  0
   21.8962   -4.5875  -14.1940 C   0  0  0  0  0  0  0  0  0  0  0  0
   21.8065   -4.4993  -15.4418 O   0  0  0  0  0  0  0  0  0  0  0  0
   21.9934   -3.4222  -13.4578 O   0  0  0  0  0  0  0  0  0  0  0  0
  2  1  1  0
  2  3  2  0
  4  2  1  0
  5  4  1  0
  6  5  1  0
  6  7  1  6
  8  6  1  0
  8 10  1  0
  9  8  2  0
 11 10  1  0
 11 12  1  6
 12 13  1  0
 13 14  1  0
 14 15  2  0
 16 11  1  0
 17 16  2  0
 18 14  1  0
 19 16  1  0
 20 21  1  0
 20 19  1  0
 21 23  1  0
 22 21  2  0
M  END
$$$$
