QEG.pdb
     RDKit          3D

 23 22  0  0  1  0  0  0  0  0999 V2000
   23.1240   -8.9434  -13.6635 N   0  0  0  0  0  0  0  0  0  0  0  0
   22.5501   -8.2484  -14.7865 C   0  0  0  0  0  0  0  0  0  0  0  0
   21.4111   -7.7811  -14.5995 O   0  0  0  0  0  0  0  0  0  0  0  0
   23.3017   -8.1380  -16.0298 C   0  0  0  0  0  0  0  0  0  0  0  0
   24.6606   -8.7325  -15.9300 C   0  0  0  0  0  0  0  0  0  0  0  0
   25.5396   -8.5090  -17.1057 C   0  0  2  0  0  0  0  0  0  0  0  0
   25.1118   -8.9798  -18.3675 N   0  0  0  0  0  0  0  0  0  0  0  0
   26.8753   -9.0989  -16.7748 C   0  0  0  0  0  0  0  0  0  0  0  0
   27.4699   -8.8113  -15.6968 O   0  0  0  0  0  0  0  0  0  0  0  0
   27.4781   -9.9767  -17.6637 N   0  0  0  0  0  0  0  0  0  0  0  0
   28.7516  -10.6909  -17.3718 C   0  0  1  0  0  0  0  0  0  0  0  0
   28.3810  -12.1325  -17.4545 C   0  0  0  0  0  0  0  0  0  0  0  0
   27.5311  -12.6881  -16.3596 C   0  0  0  0  0  0  0  0  0  0  0  0
   27.1574  -14.0799  -16.6583 C   0  0  0  0  0  0  0  0  0  0  0  0
   27.5473  -14.6015  -17.7364 O   0  0  0  0  0  0  0  0  0  0  0  0
   29.8043  -10.1731  -18.2264 C   0  0  0  0  0  0  0  0  0  0  0  0
   29.5105   -9.5859  -19.3269 O   0  0  0  0  0  0  0  0  0  0  0  0
   26.3959  -14.8267  -15.7965 O   0  0  0  0  0  0  0  0  0  0  0  0
   31.1933  -10.2576  -17.9495 N   0  0  0  0  0  0  0  0  0  0  0  0
   32.2247   -9.7888  -18.8562 C   0  0  0  0  0  0  0  0  0  0  0  0
   33.5405   -9.8139  -18.1971 C   0  0  0  0  0  0  0  0  0  0  0  0
   34.6034   -9.4964  -18.7821 O   0  0  0  0  0  0  0  0  0  0  0  0
   33.6099  -10.2044  -16.8734 O   0  0  0  0  0  0  0  0  0  0  0  0
  2  1  1  0
  2  3  2  0
  4  2  1  0
  5  4  1  0
  6  5  1  0
  6  7  1  6
  8  6  1  0
  8 10  1  0
  9  8  2  0
 11 10  1  0
 11 12  1  6
 12 13  1  0
 13 14  1  0
 14 15  2  0
 16 11  1  0
 17 16  2  0
 18 14  1  0
 19 16  1  0
 20 21  1  0
 20 19  1  0
 21 23  1  0
 22 21  2  0
M  END
$$$$
