QEG.pdb
     RDKit          3D

 23 22  0  0  1  0  0  0  0  0999 V2000
   22.8096  -14.1247  -17.7903 N   0  0  0  0  0  0  0  0  0  0  0  0
   23.7659  -14.9220  -17.0669 C   0  0  0  0  0  0  0  0  0  0  0  0
   23.5706  -16.1514  -17.1014 O   0  0  0  0  0  0  0  0  0  0  0  0
   24.8623  -14.2726  -16.3605 C   0  0  0  0  0  0  0  0  0  0  0  0
   24.8556  -12.7957  -16.5306 C   0  0  0  0  0  0  0  0  0  0  0  0
   23.9747  -12.0525  -15.5943 C   0  0  2  0  0  0  0  0  0  0  0  0
   22.5971  -12.3663  -15.5709 N   0  0  0  0  0  0  0  0  0  0  0  0
   24.1540  -10.5948  -15.8852 C   0  0  0  0  0  0  0  0  0  0  0  0
   25.2840  -10.0387  -15.7754 O   0  0  0  0  0  0  0  0  0  0  0  0
   23.0639   -9.8340  -16.2814 N   0  0  0  0  0  0  0  0  0  0  0  0
   23.1397   -8.3704  -16.5449 C   0  0  1  0  0  0  0  0  0  0  0  0
   22.8343   -8.2519  -17.9992 C   0  0  0  0  0  0  0  0  0  0  0  0
   22.6948   -6.8762  -18.5629 C   0  0  0  0  0  0  0  0  0  0  0  0
   22.4251   -6.9406  -20.0083 C   0  0  0  0  0  0  0  0  0  0  0  0
   22.5132   -8.0492  -20.5996 O   0  0  0  0  0  0  0  0  0  0  0  0
   22.3177   -7.6616  -15.5814 C   0  0  0  0  0  0  0  0  0  0  0  0
   21.1648   -8.1182  -15.2584 O   0  0  0  0  0  0  0  0  0  0  0  0
   22.0804   -5.8278  -20.7315 O   0  0  0  0  0  0  0  0  0  0  0  0
   22.6830   -6.4545  -14.9313 N   0  0  0  0  0  0  0  0  0  0  0  0
   21.8206   -5.7477  -14.0026 C   0  0  0  0  0  0  0  0  0  0  0  0
   20.8252   -4.9457  -14.7321 C   0  0  0  0  0  0  0  0  0  0  0  0
   20.7253   -4.9538  -15.9822 O   0  0  0  0  0  0  0  0  0  0  0  0
   19.9602   -4.1471  -14.0086 O   0  0  0  0  0  0  0  0  0  0  0  0
  2  1  1  0
  2  3  2  0
  4  2  1  0
  5  4  1  0
  6  5  1  0
  6  7  1  6
  8  6  1  0
  8 10  1  0
  9  8  2  0
 11 10  1  0
 11 12  1  6
 12 13  1  0
 13 14  1  0
 14 15  2  0
 16 11  1  0
 17 16  2  0
 18 14  1  0
 19 16  1  0
 20 21  1  0
 20 19  1  0
 21 23  1  0
 22 21  2  0
M  END
$$$$
