QEG.pdb
     RDKit          3D

 23 22  0  0  1  0  0  0  0  0999 V2000
   25.9274  -31.7358   -9.0949 N   0  0  0  0  0  0  0  0  0  0  0  0
   26.2914  -31.9084   -7.7125 C   0  0  0  0  0  0  0  0  0  0  0  0
   27.5132  -31.8752   -7.4742 O   0  0  0  0  0  0  0  0  0  0  0  0
   25.2527  -32.1078   -6.7104 C   0  0  0  0  0  0  0  0  0  0  0  0
   25.8081  -32.4066   -5.3642 C   0  0  0  0  0  0  0  0  0  0  0  0
   25.9559  -33.8490   -5.0438 C   0  0  2  0  0  0  0  0  0  0  0  0
   24.7946  -34.6529   -4.9999 N   0  0  0  0  0  0  0  0  0  0  0  0
   26.6790  -33.9372   -3.7358 C   0  0  0  0  0  0  0  0  0  0  0  0
   27.6038  -33.1268   -3.4422 O   0  0  0  0  0  0  0  0  0  0  0  0
   26.3340  -34.9250   -2.8252 N   0  0  0  0  0  0  0  0  0  0  0  0
   26.9931  -35.0821   -1.4993 C   0  0  1  0  0  0  0  0  0  0  0  0
   25.8927  -35.5409   -0.6043 C   0  0  0  0  0  0  0  0  0  0  0  0
   26.2318  -35.7968    0.8273 C   0  0  0  0  0  0  0  0  0  0  0  0
   25.0255  -36.1806    1.5780 C   0  0  0  0  0  0  0  0  0  0  0  0
   25.1503  -36.8466    2.6397 O   0  0  0  0  0  0  0  0  0  0  0  0
   28.1844  -35.8985   -1.6442 C   0  0  0  0  0  0  0  0  0  0  0  0
   28.1516  -36.9663   -2.3518 O   0  0  0  0  0  0  0  0  0  0  0  0
   23.7680  -35.8341    1.1552 O   0  0  0  0  0  0  0  0  0  0  0  0
   29.4418  -35.6166   -1.0504 N   0  0  0  0  0  0  0  0  0  0  0  0
   30.6505  -36.3694   -1.3295 C   0  0  0  0  0  0  0  0  0  0  0  0
   30.8011  -37.4761   -0.3710 C   0  0  0  0  0  0  0  0  0  0  0  0
   31.8194  -38.2068   -0.3262 O   0  0  0  0  0  0  0  0  0  0  0  0
   29.7752  -37.7228    0.5212 O   0  0  0  0  0  0  0  0  0  0  0  0
  2  1  1  0
  2  3  2  0
  4  2  1  0
  5  4  1  0
  6  5  1  0
  6  7  1  1
  8  6  1  0
  8 10  1  0
  9  8  2  0
 11 10  1  0
 11 12  1  1
 12 13  1  0
 13 14  1  0
 14 15  2  0
 16 11  1  0
 17 16  2  0
 18 14  1  0
 19 16  1  0
 20 21  1  0
 20 19  1  0
 21 23  1  0
 22 21  2  0
M  END
$$$$
