QEG.pdb
     RDKit          3D

 23 22  0  0  1  0  0  0  0  0999 V2000
   21.7759  -14.5475  -18.2836 N   0  0  0  0  0  0  0  0  0  0  0  0
   20.6365  -13.6917  -18.0765 C   0  0  0  0  0  0  0  0  0  0  0  0
   19.5676  -14.2782  -17.8236 O   0  0  0  0  0  0  0  0  0  0  0  0
   20.7904  -12.2462  -18.1738 C   0  0  0  0  0  0  0  0  0  0  0  0
   22.1812  -11.8414  -18.5082 C   0  0  0  0  0  0  0  0  0  0  0  0
   22.8813  -11.0511  -17.4640 C   0  0  2  0  0  0  0  0  0  0  0  0
   23.2180  -11.6877  -16.2483 N   0  0  0  0  0  0  0  0  0  0  0  0
   22.0374   -9.8464  -17.1844 C   0  0  0  0  0  0  0  0  0  0  0  0
   21.6057   -9.1166  -18.1222 O   0  0  0  0  0  0  0  0  0  0  0  0
   21.7208   -9.5181  -15.8745 N   0  0  0  0  0  0  0  0  0  0  0  0
   20.8569   -8.3625  -15.5062 C   0  0  1  0  0  0  0  0  0  0  0  0
   19.6213   -8.9971  -14.9651 C   0  0  0  0  0  0  0  0  0  0  0  0
   18.6120   -9.4878  -15.9501 C   0  0  0  0  0  0  0  0  0  0  0  0
   17.3991   -9.9468  -15.2542 C   0  0  0  0  0  0  0  0  0  0  0  0
   17.4159  -11.0578  -14.6613 O   0  0  0  0  0  0  0  0  0  0  0  0
   21.6097   -7.4403  -14.6759 C   0  0  0  0  0  0  0  0  0  0  0  0
   22.7580   -7.7764  -14.2173 O   0  0  0  0  0  0  0  0  0  0  0  0
   16.2496   -9.1996  -15.2323 O   0  0  0  0  0  0  0  0  0  0  0  0
   21.1777   -6.1409  -14.3043 N   0  0  0  0  0  0  0  0  0  0  0  0
   22.0008   -5.1985  -13.5695 C   0  0  0  0  0  0  0  0  0  0  0  0
   21.3345   -3.8889  -13.4850 C   0  0  0  0  0  0  0  0  0  0  0  0
   21.8151   -2.9177  -12.8536 O   0  0  0  0  0  0  0  0  0  0  0  0
   20.1244   -3.7195  -14.1303 O   0  0  0  0  0  0  0  0  0  0  0  0
  2  1  1  0
  2  3  2  0
  4  2  1  0
  5  4  1  0
  6  5  1  0
  6  7  1  1
  8  6  1  0
  8 10  1  0
  9  8  2  0
 11 10  1  0
 11 12  1  1
 12 13  1  0
 13 14  1  0
 14 15  2  0
 16 11  1  0
 17 16  2  0
 18 14  1  0
 19 16  1  0
 20 21  1  0
 20 19  1  0
 21 23  1  0
 22 21  2  0
M  END
$$$$
