YSM.pdb
     RDKit          3D

 27 27  0  0  1  0  0  0  0  0999 V2000
    8.2756  -12.3980   17.0173 O   0  0  0  0  0  0  0  0  0  0  0  0
    8.0338  -13.1394   18.1909 C   0  0  0  0  0  0  0  0  0  0  0  0
    7.8361  -12.5217   19.4080 C   0  0  0  0  0  0  0  0  0  0  0  0
    7.6008  -13.2846   20.5410 C   0  0  0  0  0  0  0  0  0  0  0  0
    7.5551  -14.6620   20.5028 C   0  0  0  0  0  0  0  0  0  0  0  0
    7.3029  -15.3860   21.7414 C   0  0  0  0  0  0  0  0  0  0  0  0
    7.1982  -16.8747   21.5806 C   0  0  2  0  0  0  0  0  0  0  0  0
    5.8991  -17.1803   21.0111 N   0  0  0  0  0  0  0  0  0  0  0  0
    7.2582  -17.4928   22.9517 C   0  0  0  0  0  0  0  0  0  0  0  0
    6.2453  -17.5544   23.6950 O   0  0  0  0  0  0  0  0  0  0  0  0
    7.7513  -15.2901   19.2912 C   0  0  0  0  0  0  0  0  0  0  0  0
    7.9849  -14.5134   18.1700 C   0  0  0  0  0  0  0  0  0  0  0  0
   10.4205  -19.8418   23.8197 O   0  0  0  0  0  0  0  0  0  0  0  0
    9.2770  -20.0032   24.5892 C   0  0  0  0  0  0  0  0  0  0  0  0
    8.5755  -18.6522   24.7813 C   0  0  2  0  0  0  0  0  0  0  0  0
    8.4810  -18.0333   23.4535 N   0  0  0  0  0  0  0  0  0  0  0  0
    9.4926  -17.8191   25.6007 C   0  0  0  0  0  0  0  0  0  0  0  0
   10.3325  -17.0293   25.0528 O   0  0  0  0  0  0  0  0  0  0  0  0
    9.2643  -12.5980   28.2801 C   0  0  0  0  0  0  0  0  0  0  0  0
   10.7369  -13.5537   28.6634 S   0  0  0  0  0  0  0  0  0  0  0  0
   10.3655  -15.1176   29.4504 C   0  0  0  0  0  0  0  0  0  0  0  0
    9.6453  -16.1032   28.6293 C   0  0  0  0  0  0  0  0  0  0  0  0
   10.4562  -17.0290   27.7836 C   0  0  2  0  0  0  0  0  0  0  0  0
    9.4889  -17.8520   27.0027 N   0  0  0  0  0  0  0  0  0  0  0  0
   11.3223  -17.9731   28.4750 C   0  0  0  0  0  0  0  0  0  0  0  0
   12.6506  -17.7314   28.7815 O   0  0  0  0  0  0  0  0  0  0  0  0
   10.8648  -19.1162   28.8354 O   0  0  0  0  0  0  0  0  0  0  0  0
  1  2  1  0
  2  3  2  0
  3  4  1  0
  5  6  1  0
  5  4  2  0
  6  7  1  0
  7  8  1  1
  7  9  1  0
  9 16  1  0
  9 10  2  0
 11  5  1  0
 12 11  2  0
 12  2  1  0
 14 13  1  0
 15 14  1  6
 16 15  1  0
 17 15  1  0
 17 18  2  0
 19 20  1  0
 20 21  1  0
 21 22  1  0
 23 22  1  1
 23 24  1  0
 24 17  1  0
 25 23  1  0
 26 25  1  0
 27 25  2  0
M  END
$$$$
