YSM.pdb
     RDKit          3D

 27 27  0  0  1  0  0  0  0  0999 V2000
   13.1048  -24.2470   19.1827 O   0  0  0  0  0  0  0  0  0  0  0  0
   12.7562  -22.9441   19.5910 C   0  0  0  0  0  0  0  0  0  0  0  0
   11.4448  -22.5868   19.8246 C   0  0  0  0  0  0  0  0  0  0  0  0
   11.1405  -21.2953   20.2252 C   0  0  0  0  0  0  0  0  0  0  0  0
   12.1118  -20.3332   20.4036 C   0  0  0  0  0  0  0  0  0  0  0  0
   11.7038  -19.0001   20.8256 C   0  0  0  0  0  0  0  0  0  0  0  0
   10.9943  -18.2040   19.7692 C   0  0  2  0  0  0  0  0  0  0  0  0
   11.9323  -17.9359   18.6951 N   0  0  0  0  0  0  0  0  0  0  0  0
   10.5962  -16.8847   20.3745 C   0  0  0  0  0  0  0  0  0  0  0  0
   11.2528  -15.8333   20.1609 O   0  0  0  0  0  0  0  0  0  0  0  0
   13.4262  -20.6796   20.1728 C   0  0  0  0  0  0  0  0  0  0  0  0
   13.7126  -21.9733   19.7734 C   0  0  0  0  0  0  0  0  0  0  0  0
    6.8255  -16.4567   21.4382 O   0  0  0  0  0  0  0  0  0  0  0  0
    7.5628  -15.2899   21.2939 C   0  0  0  0  0  0  0  0  0  0  0  0
    8.9998  -15.5100   21.7847 C   0  0  2  0  0  0  0  0  0  0  0  0
    9.4480  -16.7879   21.2182 N   0  0  0  0  0  0  0  0  0  0  0  0
    8.9159  -15.6770   23.2584 C   0  0  0  0  0  0  0  0  0  0  0  0
    8.3490  -16.6973   23.7751 O   0  0  0  0  0  0  0  0  0  0  0  0
    6.2543  -10.8817   27.2096 C   0  0  0  0  0  0  0  0  0  0  0  0
    5.5674  -12.4461   26.6529 S   0  0  0  0  0  0  0  0  0  0  0  0
    6.7763  -13.7655   26.6244 C   0  0  0  0  0  0  0  0  0  0  0  0
    7.6426  -13.8273   25.4369 C   0  0  0  0  0  0  0  0  0  0  0  0
    8.9054  -14.6179   25.5378 C   0  0  2  0  0  0  0  0  0  0  0  0
    9.4465  -14.7371   24.1537 N   0  0  0  0  0  0  0  0  0  0  0  0
    8.7987  -15.9775   26.0473 C   0  0  0  0  0  0  0  0  0  0  0  0
    9.3383  -16.4037   27.2490 O   0  0  0  0  0  0  0  0  0  0  0  0
    8.1776  -16.8697   25.3661 O   0  0  0  0  0  0  0  0  0  0  0  0
  1  2  1  0
  2  3  2  0
  3  4  1  0
  5  6  1  0
  5  4  2  0
  6  7  1  0
  7  8  1  6
  7  9  1  0
  9 16  1  0
  9 10  2  0
 11  5  1  0
 12 11  2  0
 12  2  1  0
 14 13  1  0
 15 14  1  6
 16 15  1  0
 17 15  1  0
 17 18  2  0
 19 20  1  0
 20 21  1  0
 21 22  1  0
 23 22  1  6
 23 24  1  0
 24 17  1  0
 25 23  1  0
 26 25  1  0
 27 25  2  0
M  END
$$$$
