YSM.pdb
     RDKit          3D

 27 27  0  0  1  0  0  0  0  0999 V2000
    8.0872  -11.9415   17.5555 O   0  0  0  0  0  0  0  0  0  0  0  0
    8.1168  -12.7985   18.6737 C   0  0  0  0  0  0  0  0  0  0  0  0
    6.9959  -13.0158   19.4474 C   0  0  0  0  0  0  0  0  0  0  0  0
    7.0636  -13.8660   20.5400 C   0  0  0  0  0  0  0  0  0  0  0  0
    8.2265  -14.5168   20.8937 C   0  0  0  0  0  0  0  0  0  0  0  0
    8.2093  -15.3922   22.0578 C   0  0  0  0  0  0  0  0  0  0  0  0
    8.2125  -16.8577   21.7332 C   0  0  2  0  0  0  0  0  0  0  0  0
    6.9033  -17.2121   21.2178 N   0  0  0  0  0  0  0  0  0  0  0  0
    8.4238  -17.6146   23.0169 C   0  0  0  0  0  0  0  0  0  0  0  0
    7.5792  -17.5867   23.9486 O   0  0  0  0  0  0  0  0  0  0  0  0
    9.3531  -14.3068   20.1271 C   0  0  0  0  0  0  0  0  0  0  0  0
    9.2681  -13.4550   19.0398 C   0  0  0  0  0  0  0  0  0  0  0  0
   11.9784  -19.6362   23.4710 O   0  0  0  0  0  0  0  0  0  0  0  0
   10.9059  -20.1909   24.1550 C   0  0  0  0  0  0  0  0  0  0  0  0
    9.8656  -19.1084   24.4718 C   0  0  2  0  0  0  0  0  0  0  0  0
    9.6029  -18.3954   23.2159 N   0  0  0  0  0  0  0  0  0  0  0  0
   10.5257  -18.1548   25.4000 C   0  0  0  0  0  0  0  0  0  0  0  0
   11.2919  -17.2324   24.9624 O   0  0  0  0  0  0  0  0  0  0  0  0
    9.8858  -12.7113   27.6855 C   0  0  0  0  0  0  0  0  0  0  0  0
    9.6248  -13.7156   29.1526 S   0  0  0  0  0  0  0  0  0  0  0  0
   10.5460  -15.2496   29.1179 C   0  0  0  0  0  0  0  0  0  0  0  0
   10.0919  -16.2584   28.1482 C   0  0  0  0  0  0  0  0  0  0  0  0
   11.0828  -17.2763   27.6881 C   0  0  2  0  0  0  0  0  0  0  0  0
   10.3482  -18.2123   26.7898 N   0  0  0  0  0  0  0  0  0  0  0  0
   11.7069  -18.1047   28.7097 C   0  0  0  0  0  0  0  0  0  0  0  0
   11.4819  -19.4629   28.8559 O   0  0  0  0  0  0  0  0  0  0  0  0
   12.5195  -17.5791   29.5519 O   0  0  0  0  0  0  0  0  0  0  0  0
  1  2  1  0
  2  3  2  0
  3  4  1  0
  5  6  1  0
  5  4  2  0
  6  7  1  0
  7  8  1  1
  7  9  1  0
  9 16  1  0
  9 10  2  0
 11  5  1  0
 12 11  2  0
 12  2  1  0
 14 13  1  0
 15 14  1  6
 16 15  1  0
 17 15  1  0
 17 18  2  0
 19 20  1  0
 20 21  1  0
 21 22  1  0
 23 22  1  1
 23 24  1  0
 24 17  1  0
 25 23  1  0
 26 25  1  0
 27 25  2  0
M  END
$$$$
