YSM.pdb
     RDKit          3D

 27 27  0  0  1  0  0  0  0  0999 V2000
    7.5914  -11.6635   22.5696 O   0  0  0  0  0  0  0  0  0  0  0  0
    7.6523  -12.2684   21.2984 C   0  0  0  0  0  0  0  0  0  0  0  0
    7.0351  -13.4748   21.0419 C   0  0  0  0  0  0  0  0  0  0  0  0
    7.1171  -14.0391   19.7786 C   0  0  0  0  0  0  0  0  0  0  0  0
    7.8028  -13.4342   18.7467 C   0  0  0  0  0  0  0  0  0  0  0  0
    7.8390  -14.0973   17.4503 C   0  0  0  0  0  0  0  0  0  0  0  0
    9.1977  -14.5863   17.0404 C   0  0  2  0  0  0  0  0  0  0  0  0
    9.0490  -15.3908   15.8420 N   0  0  0  0  0  0  0  0  0  0  0  0
    9.7166  -15.4797   18.1348 C   0  0  0  0  0  0  0  0  0  0  0  0
    9.1599  -16.5716   18.4179 O   0  0  0  0  0  0  0  0  0  0  0  0
    8.4235  -12.2277   18.9920 C   0  0  0  0  0  0  0  0  0  0  0  0
    8.3318  -11.6783   20.2588 C   0  0  0  0  0  0  0  0  0  0  0  0
   13.3601  -14.4957   19.7623 O   0  0  0  0  0  0  0  0  0  0  0  0
   13.0369  -15.8404   19.6476 C   0  0  0  0  0  0  0  0  0  0  0  0
   11.5251  -16.0362   19.8220 C   0  0  2  0  0  0  0  0  0  0  0  0
   10.8696  -15.1091   18.8917 N   0  0  0  0  0  0  0  0  0  0  0  0
   11.2034  -15.5899   21.2019 C   0  0  0  0  0  0  0  0  0  0  0  0
   11.2062  -14.3516   21.5117 O   0  0  0  0  0  0  0  0  0  0  0  0
    6.6315  -12.7817   24.9909 C   0  0  0  0  0  0  0  0  0  0  0  0
    7.3142  -14.4432   25.0375 S   0  0  0  0  0  0  0  0  0  0  0  0
    8.8153  -14.6054   24.0765 C   0  0  0  0  0  0  0  0  0  0  0  0
    9.4266  -15.9431   24.0473 C   0  0  0  0  0  0  0  0  0  0  0  0
   10.8628  -16.0428   23.6506 C   0  0  2  0  0  0  0  0  0  0  0  0
   10.8832  -16.4899   22.2285 N   0  0  0  0  0  0  0  0  0  0  0  0
   11.6898  -16.9911   24.3830 C   0  0  0  0  0  0  0  0  0  0  0  0
   12.3318  -16.7058   25.5760 O   0  0  0  0  0  0  0  0  0  0  0  0
   11.8647  -18.1761   23.9239 O   0  0  0  0  0  0  0  0  0  0  0  0
  1  2  1  0
  2  3  2  0
  3  4  1  0
  5  6  1  0
  5  4  2  0
  6  7  1  0
  7  8  1  6
  7  9  1  0
  9 16  1  0
  9 10  2  0
 11  5  1  0
 12 11  2  0
 12  2  1  0
 14 13  1  0
 15 14  1  1
 16 15  1  0
 17 15  1  0
 17 18  2  0
 19 20  1  0
 20 21  1  0
 21 22  1  0
 23 22  1  1
 23 24  1  0
 24 17  1  0
 25 23  1  0
 26 25  1  0
 27 25  2  0
M  END
$$$$
