YSM.pdb
     RDKit          3D

 27 27  0  0  1  0  0  0  0  0999 V2000
    7.8286  -13.3522   15.4264 O   0  0  0  0  0  0  0  0  0  0  0  0
    7.8326  -13.6357   16.8067 C   0  0  0  0  0  0  0  0  0  0  0  0
    6.8430  -13.1647   17.6439 C   0  0  0  0  0  0  0  0  0  0  0  0
    6.8806  -13.4643   18.9966 C   0  0  0  0  0  0  0  0  0  0  0  0
    7.8848  -14.2282   19.5524 C   0  0  0  0  0  0  0  0  0  0  0  0
    7.8474  -14.4944   20.9840 C   0  0  0  0  0  0  0  0  0  0  0  0
    9.0602  -15.2007   21.5164 C   0  0  2  0  0  0  0  0  0  0  0  0
    9.2443  -16.4234   20.7572 N   0  0  0  0  0  0  0  0  0  0  0  0
    8.7822  -15.5822   22.9456 C   0  0  0  0  0  0  0  0  0  0  0  0
    8.3071  -14.7594   23.7700 O   0  0  0  0  0  0  0  0  0  0  0  0
    8.8792  -14.7044   18.7246 C   0  0  0  0  0  0  0  0  0  0  0  0
    8.8265  -14.3959   17.3765 C   0  0  0  0  0  0  0  0  0  0  0  0
   10.5741  -18.9047   24.5018 O   0  0  0  0  0  0  0  0  0  0  0  0
    9.2579  -18.7712   24.9210 C   0  0  0  0  0  0  0  0  0  0  0  0
    8.8126  -17.3076   24.8028 C   0  0  2  0  0  0  0  0  0  0  0  0
    9.0528  -16.9046   23.4118 N   0  0  0  0  0  0  0  0  0  0  0  0
    9.7331  -16.5211   25.6634 C   0  0  0  0  0  0  0  0  0  0  0  0
   10.8102  -16.0224   25.1936 O   0  0  0  0  0  0  0  0  0  0  0  0
    7.0911  -11.3044   26.5339 C   0  0  0  0  0  0  0  0  0  0  0  0
    7.9803  -12.1415   27.8521 S   0  0  0  0  0  0  0  0  0  0  0  0
    8.9865  -13.4979   27.2598 C   0  0  0  0  0  0  0  0  0  0  0  0
    9.7106  -14.2655   28.2848 C   0  0  0  0  0  0  0  0  0  0  0  0
   10.4337  -15.4974   27.8495 C   0  0  2  0  0  0  0  0  0  0  0  0
    9.4760  -16.2849   27.0216 N   0  0  0  0  0  0  0  0  0  0  0  0
   10.8988  -16.3985   28.8941 C   0  0  0  0  0  0  0  0  0  0  0  0
   11.9550  -16.1240   29.7463 O   0  0  0  0  0  0  0  0  0  0  0  0
   10.3234  -17.5323   29.0646 O   0  0  0  0  0  0  0  0  0  0  0  0
  1  2  1  0
  2  3  2  0
  3  4  1  0
  5  6  1  0
  5  4  2  0
  6  7  1  0
  7  8  1  6
  7  9  1  0
  9 16  1  0
  9 10  2  0
 11  5  1  0
 12 11  2  0
 12  2  1  0
 14 13  1  0
 15 14  1  6
 16 15  1  0
 17 15  1  0
 17 18  2  0
 19 20  1  0
 20 21  1  0
 21 22  1  0
 23 22  1  1
 23 24  1  0
 24 17  1  0
 25 23  1  0
 26 25  1  0
 27 25  2  0
M  END
$$$$
