YSM.pdb
     RDKit          3D

 27 27  0  0  1  0  0  0  0  0999 V2000
    8.9793  -21.0895   30.3021 O   0  0  0  0  0  0  0  0  0  0  0  0
    8.3401  -20.5643   29.1614 C   0  0  0  0  0  0  0  0  0  0  0  0
    8.6617  -19.3198   28.6616 C   0  0  0  0  0  0  0  0  0  0  0  0
    8.0112  -18.8366   27.5371 C   0  0  0  0  0  0  0  0  0  0  0  0
    7.0370  -19.5611   26.8836 C   0  0  0  0  0  0  0  0  0  0  0  0
    6.4035  -18.9771   25.7092 C   0  0  0  0  0  0  0  0  0  0  0  0
    6.5070  -19.8134   24.4670 C   0  0  2  0  0  0  0  0  0  0  0  0
    7.2430  -21.0209   24.7917 N   0  0  0  0  0  0  0  0  0  0  0  0
    7.3104  -19.0408   23.4556 C   0  0  0  0  0  0  0  0  0  0  0  0
    8.5174  -19.3092   23.2243 O   0  0  0  0  0  0  0  0  0  0  0  0
    6.7077  -20.8067   27.3747 C   0  0  0  0  0  0  0  0  0  0  0  0
    7.3669  -21.2739   28.4982 C   0  0  0  0  0  0  0  0  0  0  0  0
    5.3845  -15.9893   21.7141 O   0  0  0  0  0  0  0  0  0  0  0  0
    6.4969  -16.3382   20.9614 C   0  0  0  0  0  0  0  0  0  0  0  0
    7.5028  -17.1043   21.8308 C   0  0  2  0  0  0  0  0  0  0  0  0
    6.7184  -17.9687   22.7211 N   0  0  0  0  0  0  0  0  0  0  0  0
    8.1823  -16.0886   22.6754 C   0  0  0  0  0  0  0  0  0  0  0  0
    8.8371  -15.1264   22.1510 O   0  0  0  0  0  0  0  0  0  0  0  0
    6.0071  -10.9053   27.1065 C   0  0  0  0  0  0  0  0  0  0  0  0
    6.3011  -12.6780   27.1180 S   0  0  0  0  0  0  0  0  0  0  0  0
    7.5416  -13.1847   25.9317 C   0  0  0  0  0  0  0  0  0  0  0  0
    7.8766  -14.6171   25.9137 C   0  0  0  0  0  0  0  0  0  0  0  0
    8.8487  -15.0910   24.8841 C   0  0  2  0  0  0  0  0  0  0  0  0
    8.1445  -16.1278   24.0766 N   0  0  0  0  0  0  0  0  0  0  0  0
   10.0724  -15.7168   25.3643 C   0  0  0  0  0  0  0  0  0  0  0  0
   10.3989  -17.0468   25.1610 O   0  0  0  0  0  0  0  0  0  0  0  0
   10.9265  -15.0269   26.0279 O   0  0  0  0  0  0  0  0  0  0  0  0
  1  2  1  0
  2  3  2  0
  3  4  1  0
  5  6  1  0
  5  4  2  0
  6  7  1  0
  7  8  1  1
  7  9  1  0
  9 16  1  0
  9 10  2  0
 11  5  1  0
 12 11  2  0
 12  2  1  0
 14 13  1  0
 15 14  1  6
 16 15  1  0
 17 15  1  0
 17 18  2  0
 19 20  1  0
 20 21  1  0
 21 22  1  0
 23 22  1  1
 23 24  1  0
 24 17  1  0
 25 23  1  0
 26 25  1  0
 27 25  2  0
M  END
$$$$
