YSM.pdb
     RDKit          3D

 27 27  0  0  1  0  0  0  0  0999 V2000
    5.5737  -10.9074   25.9321 O   0  0  0  0  0  0  0  0  0  0  0  0
    6.1064  -12.1833   25.6603 C   0  0  0  0  0  0  0  0  0  0  0  0
    7.0679  -12.3732   24.6900 C   0  0  0  0  0  0  0  0  0  0  0  0
    7.5682  -13.6435   24.4510 C   0  0  0  0  0  0  0  0  0  0  0  0
    7.1374  -14.7475   25.1555 C   0  0  0  0  0  0  0  0  0  0  0  0
    7.7161  -16.0462   24.8391 C   0  0  0  0  0  0  0  0  0  0  0  0
    7.1943  -16.6679   23.5764 C   0  0  2  0  0  0  0  0  0  0  0  0
    6.2748  -17.7302   23.9388 N   0  0  0  0  0  0  0  0  0  0  0  0
    8.3580  -17.2912   22.8533 C   0  0  0  0  0  0  0  0  0  0  0  0
    8.5803  -18.5284   22.8997 O   0  0  0  0  0  0  0  0  0  0  0  0
    6.1763  -14.5691   26.1279 C   0  0  0  0  0  0  0  0  0  0  0  0
    5.6876  -13.2943   26.3538 C   0  0  0  0  0  0  0  0  0  0  0  0
   10.9655  -14.6526   21.1603 O   0  0  0  0  0  0  0  0  0  0  0  0
   11.1306  -15.9428   20.6766 C   0  0  0  0  0  0  0  0  0  0  0  0
   10.5850  -16.9591   21.6885 C   0  0  2  0  0  0  0  0  0  0  0  0
    9.2531  -16.4863   22.0849 N   0  0  0  0  0  0  0  0  0  0  0  0
   11.4656  -16.8731   22.8817 C   0  0  0  0  0  0  0  0  0  0  0  0
   12.7155  -17.1181   22.7978 O   0  0  0  0  0  0  0  0  0  0  0  0
    9.4523  -14.0175   28.6326 C   0  0  0  0  0  0  0  0  0  0  0  0
   11.2026  -14.3744   28.8282 S   0  0  0  0  0  0  0  0  0  0  0  0
   11.7786  -15.6570   27.7208 C   0  0  0  0  0  0  0  0  0  0  0  0
   11.2566  -15.6111   26.3462 C   0  0  0  0  0  0  0  0  0  0  0  0
   11.8920  -16.5030   25.3310 C   0  0  2  0  0  0  0  0  0  0  0  0
   10.9815  -16.5235   24.1506 N   0  0  0  0  0  0  0  0  0  0  0  0
   12.0976  -17.8947   25.7055 C   0  0  0  0  0  0  0  0  0  0  0  0
   11.3423  -18.9507   25.2245 O   0  0  0  0  0  0  0  0  0  0  0  0
   13.0245  -18.2039   26.5369 O   0  0  0  0  0  0  0  0  0  0  0  0
  1  2  1  0
  2  3  2  0
  3  4  1  0
  5  6  1  0
  5  4  2  0
  6  7  1  0
  7  8  1  1
  7  9  1  0
  9 16  1  0
  9 10  2  0
 11  5  1  0
 12 11  2  0
 12  2  1  0
 14 13  1  0
 15 14  1  6
 16 15  1  0
 17 15  1  0
 17 18  2  0
 19 20  1  0
 20 21  1  0
 21 22  1  0
 23 22  1  1
 23 24  1  0
 24 17  1  0
 25 23  1  0
 26 25  1  0
 27 25  2  0
M  END
$$$$
