YSM.pdb
     RDKit          3D

 27 27  0  0  1  0  0  0  0  0999 V2000
   18.0454  -14.2659   18.2812 O   0  0  0  0  0  0  0  0  0  0  0  0
   16.6948  -14.3445   18.6755 C   0  0  0  0  0  0  0  0  0  0  0  0
   16.2652  -15.2722   19.6011 C   0  0  0  0  0  0  0  0  0  0  0  0
   14.9284  -15.3192   19.9642 C   0  0  0  0  0  0  0  0  0  0  0  0
   13.9910  -14.4615   19.4291 C   0  0  0  0  0  0  0  0  0  0  0  0
   12.6066  -14.5806   19.8664 C   0  0  0  0  0  0  0  0  0  0  0  0
   11.8467  -15.7044   19.2240 C   0  0  2  0  0  0  0  0  0  0  0  0
   11.4193  -15.2701   17.9072 N   0  0  0  0  0  0  0  0  0  0  0  0
   10.6138  -15.9592   20.0489 C   0  0  0  0  0  0  0  0  0  0  0  0
    9.5274  -15.3699   19.8150 O   0  0  0  0  0  0  0  0  0  0  0  0
   14.4096  -13.5300   18.5028 C   0  0  0  0  0  0  0  0  0  0  0  0
   15.7477  -13.4965   18.1515 C   0  0  0  0  0  0  0  0  0  0  0  0
   10.8185  -18.8368   23.0032 O   0  0  0  0  0  0  0  0  0  0  0  0
    9.5725  -18.6089   22.4363 C   0  0  0  0  0  0  0  0  0  0  0  0
    9.4646  -17.1515   21.9685 C   0  0  2  0  0  0  0  0  0  0  0  0
   10.6426  -16.8883   21.1330 N   0  0  0  0  0  0  0  0  0  0  0  0
    9.5829  -16.3123   23.1884 C   0  0  0  0  0  0  0  0  0  0  0  0
   10.7228  -15.9327   23.6195 O   0  0  0  0  0  0  0  0  0  0  0  0
    6.3612  -10.6180   27.4224 C   0  0  0  0  0  0  0  0  0  0  0  0
    6.2063  -11.8402   26.1144 S   0  0  0  0  0  0  0  0  0  0  0  0
    7.2935  -13.2435   26.3417 C   0  0  0  0  0  0  0  0  0  0  0  0
    7.4120  -14.1650   25.2010 C   0  0  0  0  0  0  0  0  0  0  0  0
    8.6301  -15.0256   25.1260 C   0  0  2  0  0  0  0  0  0  0  0  0
    8.4656  -15.8952   23.9262 N   0  0  0  0  0  0  0  0  0  0  0  0
    8.8781  -15.9243   26.2441 C   0  0  0  0  0  0  0  0  0  0  0  0
    8.5869  -17.2779   26.2351 O   0  0  0  0  0  0  0  0  0  0  0  0
    9.3931  -15.4709   27.3281 O   0  0  0  0  0  0  0  0  0  0  0  0
  1  2  1  0
  2  3  2  0
  3  4  1  0
  5  6  1  0
  5  4  2  0
  6  7  1  0
  7  8  1  6
  7  9  1  0
  9 16  1  0
  9 10  2  0
 11  5  1  0
 12 11  2  0
 12  2  1  0
 14 13  1  0
 15 14  1  1
 16 15  1  0
 17 15  1  0
 17 18  2  0
 19 20  1  0
 20 21  1  0
 21 22  1  0
 23 22  1  1
 23 24  1  0
 24 17  1  0
 25 23  1  0
 26 25  1  0
 27 25  2  0
M  END
$$$$
