YSM.pdb
     RDKit          3D

 27 27  0  0  1  0  0  0  0  0999 V2000
    7.4519  -14.8807   14.8166 O   0  0  0  0  0  0  0  0  0  0  0  0
    7.4968  -14.4851   16.1683 C   0  0  0  0  0  0  0  0  0  0  0  0
    6.9070  -15.2385   17.1616 C   0  0  0  0  0  0  0  0  0  0  0  0
    6.9719  -14.8171   18.4803 C   0  0  0  0  0  0  0  0  0  0  0  0
    7.6135  -13.6539   18.8493 C   0  0  0  0  0  0  0  0  0  0  0  0
    7.6333  -13.2852   20.2584 C   0  0  0  0  0  0  0  0  0  0  0  0
    8.9545  -13.4986   20.9379 C   0  0  2  0  0  0  0  0  0  0  0  0
    9.9569  -13.7411   19.9173 N   0  0  0  0  0  0  0  0  0  0  0  0
    8.8448  -14.7403   21.7815 C   0  0  0  0  0  0  0  0  0  0  0  0
    8.0102  -14.8327   22.7182 O   0  0  0  0  0  0  0  0  0  0  0  0
    8.2066  -12.8929   17.8644 C   0  0  0  0  0  0  0  0  0  0  0  0
    8.1325  -13.3281   16.5528 C   0  0  0  0  0  0  0  0  0  0  0  0
   11.7335  -17.7891   21.4387 O   0  0  0  0  0  0  0  0  0  0  0  0
   10.4065  -18.1629   21.5976 C   0  0  0  0  0  0  0  0  0  0  0  0
    9.6405  -17.0760   22.3632 C   0  0  2  0  0  0  0  0  0  0  0  0
    9.6947  -15.8621   21.5396 N   0  0  0  0  0  0  0  0  0  0  0  0
   10.4168  -16.8130   23.6021 C   0  0  0  0  0  0  0  0  0  0  0  0
   11.3042  -15.8964   23.6419 O   0  0  0  0  0  0  0  0  0  0  0  0
    9.2222  -12.7691   29.3579 C   0  0  0  0  0  0  0  0  0  0  0  0
    9.0305  -13.5271   27.7400 S   0  0  0  0  0  0  0  0  0  0  0  0
    9.6360  -15.2104   27.6846 C   0  0  0  0  0  0  0  0  0  0  0  0
    9.5860  -15.8759   26.3736 C   0  0  0  0  0  0  0  0  0  0  0  0
   10.5772  -16.9603   26.1061 C   0  0  2  0  0  0  0  0  0  0  0  0
   10.2227  -17.5460   24.7817 N   0  0  0  0  0  0  0  0  0  0  0  0
   10.6119  -18.0741   27.0430 C   0  0  0  0  0  0  0  0  0  0  0  0
    9.9225  -19.2618   26.8672 O   0  0  0  0  0  0  0  0  0  0  0  0
   11.3100  -17.9869   28.1158 O   0  0  0  0  0  0  0  0  0  0  0  0
  1  2  1  0
  2  3  2  0
  3  4  1  0
  5  6  1  0
  5  4  2  0
  6  7  1  0
  7  8  1  6
  7  9  1  0
  9 16  1  0
  9 10  2  0
 11  5  1  0
 12 11  2  0
 12  2  1  0
 14 13  1  0
 15 14  1  6
 16 15  1  0
 17 15  1  0
 17 18  2  0
 19 20  1  0
 20 21  1  0
 21 22  1  0
 23 22  1  1
 23 24  1  0
 24 17  1  0
 25 23  1  0
 26 25  1  0
 27 25  2  0
M  END
$$$$
