YSM.pdb
     RDKit          3D

 27 27  0  0  1  0  0  0  0  0999 V2000
    8.4618  -21.3881   31.1071 O   0  0  0  0  0  0  0  0  0  0  0  0
    8.5565  -20.7992   29.8304 C   0  0  0  0  0  0  0  0  0  0  0  0
    7.4765  -20.7534   28.9740 C   0  0  0  0  0  0  0  0  0  0  0  0
    7.6080  -20.1657   27.7256 C   0  0  0  0  0  0  0  0  0  0  0  0
    8.7958  -19.6140   27.2946 C   0  0  0  0  0  0  0  0  0  0  0  0
    8.8462  -19.0172   25.9668 C   0  0  0  0  0  0  0  0  0  0  0  0
    8.7393  -20.0016   24.8387 C   0  0  2  0  0  0  0  0  0  0  0  0
    9.2899  -21.2674   25.2860 N   0  0  0  0  0  0  0  0  0  0  0  0
    9.5945  -19.5007   23.7059 C   0  0  0  0  0  0  0  0  0  0  0  0
   10.7581  -19.9372   23.5117 O   0  0  0  0  0  0  0  0  0  0  0  0
    9.8820  -19.6543   28.1428 C   0  0  0  0  0  0  0  0  0  0  0  0
    9.7335  -20.2447   29.3856 C   0  0  0  0  0  0  0  0  0  0  0  0
    7.9818  -16.5592   21.4164 O   0  0  0  0  0  0  0  0  0  0  0  0
    9.0660  -17.1706   20.8027 C   0  0  0  0  0  0  0  0  0  0  0  0
    9.9791  -17.8080   21.8582 C   0  0  2  0  0  0  0  0  0  0  0  0
    9.1034  -18.5040   22.8088 N   0  0  0  0  0  0  0  0  0  0  0  0
   10.6257  -16.6843   22.5833 C   0  0  0  0  0  0  0  0  0  0  0  0
   10.1924  -15.4892   22.4682 O   0  0  0  0  0  0  0  0  0  0  0  0
    9.4882  -13.7932   28.1499 C   0  0  0  0  0  0  0  0  0  0  0  0
   11.1621  -14.2351   27.6686 S   0  0  0  0  0  0  0  0  0  0  0  0
   11.2152  -15.5950   26.5062 C   0  0  0  0  0  0  0  0  0  0  0  0
   11.1806  -15.2329   25.0807 C   0  0  0  0  0  0  0  0  0  0  0  0
   12.2873  -15.7299   24.2100 C   0  0  2  0  0  0  0  0  0  0  0  0
   11.7333  -16.8688   23.4234 N   0  0  0  0  0  0  0  0  0  0  0  0
   13.4773  -16.2406   24.8752 C   0  0  0  0  0  0  0  0  0  0  0  0
   13.8260  -17.5795   24.9285 O   0  0  0  0  0  0  0  0  0  0  0  0
   14.2773  -15.4310   25.4670 O   0  0  0  0  0  0  0  0  0  0  0  0
  1  2  1  0
  2  3  2  0
  3  4  1  0
  5  6  1  0
  5  4  2  0
  6  7  1  0
  7  8  1  1
  7  9  1  0
  9 16  1  0
  9 10  2  0
 11  5  1  0
 12 11  2  0
 12  2  1  0
 14 13  1  0
 15 14  1  6
 16 15  1  0
 17 15  1  0
 17 18  2  0
 19 20  1  0
 20 21  1  0
 21 22  1  0
 23 22  1  1
 23 24  1  0
 24 17  1  0
 25 23  1  0
 26 25  1  0
 27 25  2  0
M  END
$$$$
