YSM.pdb
     RDKit          3D

 27 27  0  0  1  0  0  0  0  0999 V2000
    8.0418  -11.8592   17.3634 O   0  0  0  0  0  0  0  0  0  0  0  0
    8.1518  -12.7545   18.4459 C   0  0  0  0  0  0  0  0  0  0  0  0
    9.3780  -13.1987   18.8945 C   0  0  0  0  0  0  0  0  0  0  0  0
    9.4463  -14.0795   19.9625 C   0  0  0  0  0  0  0  0  0  0  0  0
    8.3187  -14.5399   20.6085 C   0  0  0  0  0  0  0  0  0  0  0  0
    8.4816  -15.4649   21.7220 C   0  0  0  0  0  0  0  0  0  0  0  0
    8.9789  -16.8261   21.3311 C   0  0  2  0  0  0  0  0  0  0  0  0
    7.9592  -17.4679   20.5226 N   0  0  0  0  0  0  0  0  0  0  0  0
    9.1476  -17.6351   22.5891 C   0  0  0  0  0  0  0  0  0  0  0  0
    8.1711  -17.9192   23.3293 O   0  0  0  0  0  0  0  0  0  0  0  0
    7.0876  -14.1023   20.1683 C   0  0  0  0  0  0  0  0  0  0  0  0
    7.0373  -13.2230   19.1009 C   0  0  0  0  0  0  0  0  0  0  0  0
   12.8862  -19.2099   23.4483 O   0  0  0  0  0  0  0  0  0  0  0  0
   11.7707  -19.8662   23.9490 C   0  0  0  0  0  0  0  0  0  0  0  0
   10.6467  -18.8592   24.2265 C   0  0  2  0  0  0  0  0  0  0  0  0
   10.4361  -18.1088   22.9826 N   0  0  0  0  0  0  0  0  0  0  0  0
   11.1775  -17.9105   25.2388 C   0  0  0  0  0  0  0  0  0  0  0  0
   11.5130  -16.7219   24.9164 O   0  0  0  0  0  0  0  0  0  0  0  0
    9.8237  -12.6550   29.3729 C   0  0  0  0  0  0  0  0  0  0  0  0
   10.3229  -13.8783   28.1550 S   0  0  0  0  0  0  0  0  0  0  0  0
    9.5760  -15.4809   28.4327 C   0  0  0  0  0  0  0  0  0  0  0  0
    9.9335  -16.5389   27.4751 C   0  0  0  0  0  0  0  0  0  0  0  0
   11.2468  -17.2261   27.6564 C   0  0  2  0  0  0  0  0  0  0  0  0
   11.3387  -18.2610   26.5871 N   0  0  0  0  0  0  0  0  0  0  0  0
   11.4617  -17.9264   28.9144 C   0  0  0  0  0  0  0  0  0  0  0  0
   12.1977  -17.4199   29.9722 O   0  0  0  0  0  0  0  0  0  0  0  0
   10.9584  -19.0930   29.0920 O   0  0  0  0  0  0  0  0  0  0  0  0
  1  2  1  0
  2  3  2  0
  3  4  1  0
  5  6  1  0
  5  4  2  0
  6  7  1  0
  7  8  1  6
  7  9  1  0
  9 16  1  0
  9 10  2  0
 11  5  1  0
 12 11  2  0
 12  2  1  0
 14 13  1  0
 15 14  1  6
 16 15  1  0
 17 15  1  0
 17 18  2  0
 19 20  1  0
 20 21  1  0
 21 22  1  0
 23 22  1  1
 23 24  1  0
 24 17  1  0
 25 23  1  0
 26 25  1  0
 27 25  2  0
M  END
$$$$
