YSM.pdb
     RDKit          3D

 27 27  0  0  1  0  0  0  0  0999 V2000
    7.9668  -12.2828   16.7056 O   0  0  0  0  0  0  0  0  0  0  0  0
    8.0494  -12.9952   17.9185 C   0  0  0  0  0  0  0  0  0  0  0  0
    9.2468  -13.1510   18.5849 C   0  0  0  0  0  0  0  0  0  0  0  0
    9.2887  -13.8586   19.7759 C   0  0  0  0  0  0  0  0  0  0  0  0
    8.1624  -14.4246   20.3344 C   0  0  0  0  0  0  0  0  0  0  0  0
    8.2966  -15.1524   21.5890 C   0  0  0  0  0  0  0  0  0  0  0  0
    8.9356  -16.5043   21.4577 C   0  0  2  0  0  0  0  0  0  0  0  0
    8.0815  -17.3323   20.6269 N   0  0  0  0  0  0  0  0  0  0  0  0
    8.9890  -17.1250   22.8278 C   0  0  0  0  0  0  0  0  0  0  0  0
    7.9493  -17.5145   23.4191 O   0  0  0  0  0  0  0  0  0  0  0  0
    6.9600  -14.2749   19.6766 C   0  0  0  0  0  0  0  0  0  0  0  0
    6.9358  -13.5656   18.4886 C   0  0  0  0  0  0  0  0  0  0  0  0
   12.6478  -17.9590   24.4517 O   0  0  0  0  0  0  0  0  0  0  0  0
   11.5590  -18.5627   25.0648 C   0  0  0  0  0  0  0  0  0  0  0  0
   10.3136  -17.6785   24.9173 C   0  0  2  0  0  0  0  0  0  0  0  0
   10.2361  -17.2915   23.5034 N   0  0  0  0  0  0  0  0  0  0  0  0
   10.5803  -16.4481   25.7056 C   0  0  0  0  0  0  0  0  0  0  0  0
   11.3815  -15.5514   25.2774 O   0  0  0  0  0  0  0  0  0  0  0  0
    6.5780  -12.1916   26.5763 C   0  0  0  0  0  0  0  0  0  0  0  0
    7.3785  -11.9286   28.1635 S   0  0  0  0  0  0  0  0  0  0  0  0
    8.8879  -12.8728   28.3459 C   0  0  0  0  0  0  0  0  0  0  0  0
    8.9379  -14.1611   27.6372 C   0  0  0  0  0  0  0  0  0  0  0  0
   10.2208  -14.9245   27.6721 C   0  0  2  0  0  0  0  0  0  0  0  0
    9.9763  -16.2043   26.9475 N   0  0  0  0  0  0  0  0  0  0  0  0
   10.7375  -15.2952   28.9817 C   0  0  0  0  0  0  0  0  0  0  0  0
   10.8511  -16.5989   29.4339 O   0  0  0  0  0  0  0  0  0  0  0  0
   11.1171  -14.3845   29.8016 O   0  0  0  0  0  0  0  0  0  0  0  0
  1  2  1  0
  2  3  2  0
  3  4  1  0
  5  6  1  0
  5  4  2  0
  6  7  1  0
  7  8  1  6
  7  9  1  0
  9 16  1  0
  9 10  2  0
 11  5  1  0
 12 11  2  0
 12  2  1  0
 14 13  1  0
 15 14  1  6
 16 15  1  0
 17 15  1  0
 17 18  2  0
 19 20  1  0
 20 21  1  0
 21 22  1  0
 23 22  1  1
 23 24  1  0
 24 17  1  0
 25 23  1  0
 26 25  1  0
 27 25  2  0
M  END
$$$$
