QFC.pdb
     RDKit          3D

 27 27  0  0  1  0  0  0  0  0999 V2000
   27.7196  -17.2729  -14.9755 N   0  0  0  0  0  0  0  0  0  0  0  0
   28.6143  -17.6761  -15.9943 C   0  0  0  0  0  0  0  0  0  0  0  0
   29.5067  -16.8742  -16.3453 O   0  0  0  0  0  0  0  0  0  0  0  0
   28.4514  -19.0045  -16.5813 C   0  0  0  0  0  0  0  0  0  0  0  0
   27.3975  -19.8709  -15.9472 C   0  0  0  0  0  0  0  0  0  0  0  0
   27.9667  -20.4961  -14.7016 C   0  0  2  0  0  0  0  0  0  0  0  0
   28.7794  -21.6152  -15.1404 N   0  0  0  0  0  0  0  0  0  0  0  0
   26.9132  -21.0287  -13.8035 C   0  0  0  0  0  0  0  0  0  0  0  0
   26.3664  -22.1056  -14.1215 O   0  0  0  0  0  0  0  0  0  0  0  0
   26.5062  -20.3765  -12.6158 N   0  0  0  0  0  0  0  0  0  0  0  0
   25.4433  -20.8949  -11.7886 C   0  0  1  0  0  0  0  0  0  0  0  0
   25.4067  -20.2152  -10.4356 C   0  0  0  0  0  0  0  0  0  0  0  0
   26.5914  -20.5687   -9.6220 C   0  0  0  0  0  0  0  0  0  0  0  0
   27.5109  -21.4507  -10.1341 C   0  0  0  0  0  0  0  0  0  0  0  0
   28.6145  -21.7743   -9.3463 C   0  0  0  0  0  0  0  0  0  0  0  0
   28.7811  -21.2294   -8.0950 C   0  0  0  0  0  0  0  0  0  0  0  0
   27.8524  -20.3478   -7.5960 C   0  0  0  0  0  0  0  0  0  0  0  0
   26.7506  -20.0173   -8.3679 C   0  0  0  0  0  0  0  0  0  0  0  0
   24.1169  -20.8553  -12.4625 C   0  0  0  0  0  0  0  0  0  0  0  0
   23.7610  -19.8363  -13.1304 O   0  0  0  0  0  0  0  0  0  0  0  0
   23.1825  -21.9202  -12.4076 N   0  0  0  0  0  0  0  0  0  0  0  0
   21.9116  -21.8765  -13.1173 C   0  0  1  0  0  0  0  0  0  0  0  0
   21.5017  -23.2628  -13.5692 C   0  0  0  0  0  0  0  0  0  0  0  0
   19.8063  -23.2387  -14.2062 S   0  0  0  0  0  0  0  0  0  0  0  0
   20.8596  -21.2676  -12.2676 C   0  0  0  0  0  0  0  0  0  0  0  0
   20.9648  -21.3848  -11.0225 O   0  0  0  0  0  0  0  0  0  0  0  0
   19.7811  -20.5850  -12.7804 O   0  0  0  0  0  0  0  0  0  0  0  0
  2  4  1  0
  2  1  1  0
  3  2  2  0
  5  4  1  0
  6  5  1  0
  6  8  1  0
  6  7  1  6
  8  9  2  0
 10  8  1  0
 10 11  1  0
 11 12  1  1
 12 13  1  0
 13 14  2  0
 14 15  1  0
 16 15  2  0
 17 16  1  0
 18 13  1  0
 18 17  2  0
 19 21  1  0
 19 11  1  0
 20 19  2  0
 22 25  1  0
 22 23  1  1
 22 21  1  0
 23 24  1  0
 25 27  1  0
 26 25  2  0
M  END
$$$$
