QFC.pdb
     RDKit          3D

 27 27  0  0  1  0  0  0  0  0999 V2000
   27.4436  -16.7610  -14.5480 N   0  0  0  0  0  0  0  0  0  0  0  0
   28.4156  -17.0863  -15.5227 C   0  0  0  0  0  0  0  0  0  0  0  0
   29.2715  -16.2224  -15.8119 O   0  0  0  0  0  0  0  0  0  0  0  0
   28.3709  -18.4109  -16.1386 C   0  0  0  0  0  0  0  0  0  0  0  0
   27.3396  -19.3533  -15.5803 C   0  0  0  0  0  0  0  0  0  0  0  0
   27.8966  -20.0065  -14.3436 C   0  0  2  0  0  0  0  0  0  0  0  0
   28.8386  -21.0111  -14.8008 N   0  0  0  0  0  0  0  0  0  0  0  0
   26.8517  -20.6968  -13.5487 C   0  0  0  0  0  0  0  0  0  0  0  0
   26.4187  -21.7871  -13.9776 O   0  0  0  0  0  0  0  0  0  0  0  0
   26.3308  -20.1790  -12.3395 N   0  0  0  0  0  0  0  0  0  0  0  0
   25.3065  -20.8704  -11.5940 C   0  0  1  0  0  0  0  0  0  0  0  0
   25.2496  -20.4003  -10.1554 C   0  0  0  0  0  0  0  0  0  0  0  0
   26.5534  -20.5775   -9.4778 C   0  0  0  0  0  0  0  0  0  0  0  0
   26.8172  -19.8513   -8.3426 C   0  0  0  0  0  0  0  0  0  0  0  0
   28.0547  -20.0295   -7.7263 C   0  0  0  0  0  0  0  0  0  0  0  0
   28.9850  -20.9044   -8.2357 C   0  0  0  0  0  0  0  0  0  0  0  0
   28.7065  -21.6245   -9.3725 C   0  0  0  0  0  0  0  0  0  0  0  0
   27.4807  -21.4574   -9.9955 C   0  0  0  0  0  0  0  0  0  0  0  0
   23.9722  -20.8040  -12.2499 C   0  0  0  0  0  0  0  0  0  0  0  0
   23.3482  -19.7021  -12.3365 O   0  0  0  0  0  0  0  0  0  0  0  0
   23.3205  -21.9331  -12.8072 N   0  0  0  0  0  0  0  0  0  0  0  0
   22.0954  -21.8176  -13.5861 C   0  0  1  0  0  0  0  0  0  0  0  0
   21.8870  -23.0486  -14.4435 C   0  0  0  0  0  0  0  0  0  0  0  0
   22.4866  -24.5232  -13.5793 S   0  0  0  0  0  0  0  0  0  0  0  0
   20.9303  -21.5925  -12.6967 C   0  0  0  0  0  0  0  0  0  0  0  0
   19.8296  -21.3049  -13.2265 O   0  0  0  0  0  0  0  0  0  0  0  0
   21.0023  -21.6843  -11.3261 O   0  0  0  0  0  0  0  0  0  0  0  0
  2  4  1  0
  2  1  1  0
  3  2  2  0
  5  4  1  0
  6  5  1  0
  6  8  1  0
  6  7  1  6
  8  9  2  0
 10  8  1  0
 10 11  1  0
 11 12  1  1
 12 13  1  0
 13 14  2  0
 14 15  1  0
 16 15  2  0
 17 16  1  0
 18 13  1  0
 18 17  2  0
 19 21  1  0
 19 11  1  0
 20 19  2  0
 22 25  1  0
 22 23  1  1
 22 21  1  0
 23 24  1  0
 25 27  1  0
 26 25  2  0
M  END
$$$$
