QFC.pdb
     RDKit          3D

 27 27  0  0  1  0  0  0  0  0999 V2000
   31.5984  -39.8884   -2.9142 N   0  0  0  0  0  0  0  0  0  0  0  0
   31.5390  -40.6448   -4.1080 C   0  0  0  0  0  0  0  0  0  0  0  0
   30.6136  -41.4759   -4.2329 O   0  0  0  0  0  0  0  0  0  0  0  0
   32.5573  -40.4163   -5.1310 C   0  0  0  0  0  0  0  0  0  0  0  0
   33.5637  -39.3425   -4.8185 C   0  0  0  0  0  0  0  0  0  0  0  0
   33.0336  -38.0216   -5.3089 C   0  0  2  0  0  0  0  0  0  0  0  0
   33.5693  -37.8365   -6.6446 N   0  0  0  0  0  0  0  0  0  0  0  0
   33.4936  -36.8831   -4.4768 C   0  0  0  0  0  0  0  0  0  0  0  0
   34.6070  -36.3819   -4.7398 O   0  0  0  0  0  0  0  0  0  0  0  0
   32.7338  -36.3469   -3.4106 N   0  0  0  0  0  0  0  0  0  0  0  0
   33.1993  -35.2231   -2.6340 C   0  0  1  0  0  0  0  0  0  0  0  0
   32.3764  -33.9801   -2.9017 C   0  0  0  0  0  0  0  0  0  0  0  0
   32.5015  -33.5432   -4.3102 C   0  0  0  0  0  0  0  0  0  0  0  0
   33.7215  -33.1077   -4.7657 C   0  0  0  0  0  0  0  0  0  0  0  0
   33.8131  -32.6941   -6.0937 C   0  0  0  0  0  0  0  0  0  0  0  0
   32.7184  -32.7201   -6.9252 C   0  0  0  0  0  0  0  0  0  0  0  0
   31.5039  -33.1589   -6.4551 C   0  0  0  0  0  0  0  0  0  0  0  0
   31.3983  -33.5728   -5.1374 C   0  0  0  0  0  0  0  0  0  0  0  0
   33.2869  -35.5246   -1.1791 C   0  0  0  0  0  0  0  0  0  0  0  0
   32.7049  -36.5427   -0.6935 O   0  0  0  0  0  0  0  0  0  0  0  0
   34.0039  -34.7198   -0.2581 N   0  0  0  0  0  0  0  0  0  0  0  0
   34.0548  -35.0246    1.1651 C   0  0  1  0  0  0  0  0  0  0  0  0
   34.7638  -36.3412    1.4064 C   0  0  0  0  0  0  0  0  0  0  0  0
   34.8198  -36.7070    3.1795 S   0  0  0  0  0  0  0  0  0  0  0  0
   34.7158  -33.9266    1.9111 C   0  0  0  0  0  0  0  0  0  0  0  0
   35.5735  -33.2361    1.3090 O   0  0  0  0  0  0  0  0  0  0  0  0
   34.4324  -33.6337    3.2249 O   0  0  0  0  0  0  0  0  0  0  0  0
  2  4  1  0
  2  1  1  0
  3  2  2  0
  5  4  1  0
  6  5  1  0
  6  8  1  0
  6  7  1  6
  8  9  2  0
 10  8  1  0
 10 11  1  0
 11 12  1  1
 12 13  1  0
 13 14  2  0
 14 15  1  0
 16 15  2  0
 17 16  1  0
 18 13  1  0
 18 17  2  0
 19 21  1  0
 19 11  1  0
 20 19  2  0
 22 25  1  0
 22 23  1  6
 22 21  1  0
 23 24  1  0
 25 27  1  0
 26 25  2  0
M  END
$$$$
