QFC.pdb
     RDKit          3D

 27 27  0  0  1  0  0  0  0  0999 V2000
   18.6817  -21.5087  -16.2917 N   0  0  0  0  0  0  0  0  0  0  0  0
   20.0783  -21.3408  -16.1432 C   0  0  0  0  0  0  0  0  0  0  0  0
   20.8259  -22.2714  -16.5142 O   0  0  0  0  0  0  0  0  0  0  0  0
   20.5743  -20.0926  -15.5671 C   0  0  0  0  0  0  0  0  0  0  0  0
   20.2336  -19.8638  -14.1197 C   0  0  0  0  0  0  0  0  0  0  0  0
   20.9169  -20.9156  -13.2871 C   0  0  2  0  0  0  0  0  0  0  0  0
   20.0714  -21.1326  -12.1280 N   0  0  0  0  0  0  0  0  0  0  0  0
   22.2467  -20.4754  -12.7992 C   0  0  0  0  0  0  0  0  0  0  0  0
   22.4642  -19.2475  -12.7290 O   0  0  0  0  0  0  0  0  0  0  0  0
   23.2671  -21.3767  -12.4142 N   0  0  0  0  0  0  0  0  0  0  0  0
   24.5426  -20.9164  -11.9202 C   0  0  1  0  0  0  0  0  0  0  0  0
   25.0833  -21.8266  -10.8371 C   0  0  0  0  0  0  0  0  0  0  0  0
   26.2770  -21.2413  -10.1867 C   0  0  0  0  0  0  0  0  0  0  0  0
   26.1083  -20.4410   -9.0837 C   0  0  0  0  0  0  0  0  0  0  0  0
   27.2467  -19.8950   -8.4928 C   0  0  0  0  0  0  0  0  0  0  0  0
   28.5013  -20.1477   -8.9954 C   0  0  0  0  0  0  0  0  0  0  0  0
   28.6543  -20.9509  -10.0999 C   0  0  0  0  0  0  0  0  0  0  0  0
   27.5317  -21.5001  -10.6974 C   0  0  0  0  0  0  0  0  0  0  0  0
   25.5369  -20.6992  -13.0062 C   0  0  0  0  0  0  0  0  0  0  0  0
   25.7603  -21.6032  -13.8688 O   0  0  0  0  0  0  0  0  0  0  0  0
   26.2850  -19.5035  -13.1505 N   0  0  0  0  0  0  0  0  0  0  0  0
   27.1512  -19.2621  -14.2960 C   0  0  1  0  0  0  0  0  0  0  0  0
   27.5194  -17.7959  -14.3903 C   0  0  0  0  0  0  0  0  0  0  0  0
   28.7099  -17.5336  -15.7299 S   0  0  0  0  0  0  0  0  0  0  0  0
   28.3681  -20.1062  -14.2177 C   0  0  0  0  0  0  0  0  0  0  0  0
   28.9969  -20.1368  -13.1321 O   0  0  0  0  0  0  0  0  0  0  0  0
   28.8347  -20.8518  -15.2752 O   0  0  0  0  0  0  0  0  0  0  0  0
  2  4  1  0
  2  1  1  0
  3  2  2  0
  5  4  1  0
  6  5  1  0
  6  8  1  0
  6  7  1  1
  8  9  2  0
 10  8  1  0
 10 11  1  0
 11 12  1  1
 12 13  1  0
 13 14  2  0
 14 15  1  0
 16 15  2  0
 17 16  1  0
 18 13  1  0
 18 17  2  0
 19 21  1  0
 19 11  1  0
 20 19  2  0
 22 25  1  0
 22 23  1  1
 22 21  1  0
 23 24  1  0
 25 27  1  0
 26 25  2  0
M  END
$$$$
