QFC.pdb
     RDKit          3D

 27 27  0  0  1  0  0  0  0  0999 V2000
   24.4233  -18.9127  -14.9734 N   0  0  0  0  0  0  0  0  0  0  0  0
   24.6293  -20.2941  -14.7496 C   0  0  0  0  0  0  0  0  0  0  0  0
   25.4933  -20.8795  -15.4376 O   0  0  0  0  0  0  0  0  0  0  0  0
   23.8259  -20.9637  -13.7288 C   0  0  0  0  0  0  0  0  0  0  0  0
   24.5782  -21.4319  -12.5129 C   0  0  0  0  0  0  0  0  0  0  0  0
   25.0082  -20.2302  -11.7145 C   0  0  2  0  0  0  0  0  0  0  0  0
   25.8948  -19.4657  -12.5717 N   0  0  0  0  0  0  0  0  0  0  0  0
   25.7689  -20.6026  -10.4967 C   0  0  0  0  0  0  0  0  0  0  0  0
   25.7028  -21.7879  -10.1084 O   0  0  0  0  0  0  0  0  0  0  0  0
   26.5570  -19.6833   -9.7651 N   0  0  0  0  0  0  0  0  0  0  0  0
   27.0247  -19.9744   -8.4311 C   0  0  1  0  0  0  0  0  0  0  0  0
   28.1004  -19.0027   -7.9922 C   0  0  0  0  0  0  0  0  0  0  0  0
   28.5965  -19.3238   -6.6353 C   0  0  0  0  0  0  0  0  0  0  0  0
   28.3276  -18.4556   -5.6060 C   0  0  0  0  0  0  0  0  0  0  0  0
   28.8116  -18.7754   -4.3386 C   0  0  0  0  0  0  0  0  0  0  0  0
   29.5360  -19.9237   -4.1213 C   0  0  0  0  0  0  0  0  0  0  0  0
   29.7970  -20.7831   -5.1614 C   0  0  0  0  0  0  0  0  0  0  0  0
   29.3222  -20.4778   -6.4264 C   0  0  0  0  0  0  0  0  0  0  0  0
   25.9190  -20.0596   -7.4385 C   0  0  0  0  0  0  0  0  0  0  0  0
   24.7579  -19.6350   -7.7257 O   0  0  0  0  0  0  0  0  0  0  0  0
   26.0785  -20.6034   -6.1389 N   0  0  0  0  0  0  0  0  0  0  0  0
   24.9694  -21.1926   -5.4015 C   0  0  1  0  0  0  0  0  0  0  0  0
   24.3613  -22.3432   -6.1764 C   0  0  0  0  0  0  0  0  0  0  0  0
   22.9958  -23.0773   -5.2398 S   0  0  0  0  0  0  0  0  0  0  0  0
   25.4134  -21.6390   -4.0588 C   0  0  0  0  0  0  0  0  0  0  0  0
   26.3380  -22.4850   -3.9934 O   0  0  0  0  0  0  0  0  0  0  0  0
   24.8604  -21.1699   -2.8899 O   0  0  0  0  0  0  0  0  0  0  0  0
  2  4  1  0
  2  1  1  0
  3  2  2  0
  5  4  1  0
  6  5  1  0
  6  8  1  0
  6  7  1  6
  8  9  2  0
 10  8  1  0
 10 11  1  0
 11 12  1  1
 12 13  1  0
 13 14  2  0
 14 15  1  0
 16 15  2  0
 17 16  1  0
 18 13  1  0
 18 17  2  0
 19 21  1  0
 19 11  1  0
 20 19  2  0
 22 25  1  0
 22 23  1  6
 22 21  1  0
 23 24  1  0
 25 27  1  0
 26 25  2  0
M  END
$$$$
