QFC.pdb
     RDKit          3D

 27 27  0  0  1  0  0  0  0  0999 V2000
   27.8058  -22.3497  -20.0250 N   0  0  0  0  0  0  0  0  0  0  0  0
   28.1553  -20.9939  -19.8236 C   0  0  0  0  0  0  0  0  0  0  0  0
   29.0110  -20.4877  -20.5813 O   0  0  0  0  0  0  0  0  0  0  0  0
   27.4999  -20.2565  -18.7454 C   0  0  0  0  0  0  0  0  0  0  0  0
   26.4933  -21.0353  -17.9431 C   0  0  0  0  0  0  0  0  0  0  0  0
   27.2139  -21.7844  -16.8541 C   0  0  2  0  0  0  0  0  0  0  0  0
   27.2936  -23.1656  -17.2917 N   0  0  0  0  0  0  0  0  0  0  0  0
   26.4762  -21.7609  -15.5674 C   0  0  0  0  0  0  0  0  0  0  0  0
   25.3668  -22.3329  -15.5215 O   0  0  0  0  0  0  0  0  0  0  0  0
   26.9699  -21.1258  -14.4036 N   0  0  0  0  0  0  0  0  0  0  0  0
   26.2402  -21.1442  -13.1586 C   0  0  1  0  0  0  0  0  0  0  0  0
   27.0632  -20.5770  -12.0207 C   0  0  0  0  0  0  0  0  0  0  0  0
   26.2935  -20.5553  -10.7567 C   0  0  0  0  0  0  0  0  0  0  0  0
   25.9387  -21.7468  -10.1736 C   0  0  0  0  0  0  0  0  0  0  0  0
   25.2076  -21.7012   -8.9876 C   0  0  0  0  0  0  0  0  0  0  0  0
   24.8510  -20.5027   -8.4160 C   0  0  0  0  0  0  0  0  0  0  0  0
   25.2136  -19.3183   -9.0112 C   0  0  0  0  0  0  0  0  0  0  0  0
   25.9402  -19.3486  -10.1902 C   0  0  0  0  0  0  0  0  0  0  0  0
   24.9099  -20.4846  -13.2604 C   0  0  0  0  0  0  0  0  0  0  0  0
   24.7761  -19.3932  -13.8943 O   0  0  0  0  0  0  0  0  0  0  0  0
   23.7318  -21.0111  -12.6731 N   0  0  0  0  0  0  0  0  0  0  0  0
   22.4331  -20.3705  -12.8276 C   0  0  1  0  0  0  0  0  0  0  0  0
   21.9097  -20.5526  -14.2372 C   0  0  0  0  0  0  0  0  0  0  0  0
   20.1824  -20.0168  -14.3385 S   0  0  0  0  0  0  0  0  0  0  0  0
   21.4675  -20.9013  -11.8352 C   0  0  0  0  0  0  0  0  0  0  0  0
   21.6895  -22.0339  -11.3422 O   0  0  0  0  0  0  0  0  0  0  0  0
   20.3469  -20.2119  -11.4339 O   0  0  0  0  0  0  0  0  0  0  0  0
  2  4  1  0
  2  1  1  0
  3  2  2  0
  5  4  1  0
  6  5  1  0
  6  8  1  0
  6  7  1  6
  8  9  2  0
 10  8  1  0
 10 11  1  0
 11 12  1  1
 12 13  1  0
 13 14  2  0
 14 15  1  0
 16 15  2  0
 17 16  1  0
 18 13  1  0
 18 17  2  0
 19 21  1  0
 19 11  1  0
 20 19  2  0
 22 25  1  0
 22 23  1  6
 22 21  1  0
 23 24  1  0
 25 27  1  0
 26 25  2  0
M  END
$$$$
