QFC.pdb
     RDKit          3D

 27 27  0  0  1  0  0  0  0  0999 V2000
   17.3998  -11.8576  -18.2739 N   0  0  0  0  0  0  0  0  0  0  0  0
   18.1078  -11.5140  -19.4492 C   0  0  0  0  0  0  0  0  0  0  0  0
   18.2887  -12.4034  -20.3088 O   0  0  0  0  0  0  0  0  0  0  0  0
   18.5888  -10.1421  -19.5989 C   0  0  0  0  0  0  0  0  0  0  0  0
   18.2400   -9.2045  -18.4752 C   0  0  0  0  0  0  0  0  0  0  0  0
   19.1276   -9.5059  -17.2972 C   0  0  2  0  0  0  0  0  0  0  0  0
   18.4331  -10.5055  -16.5073 N   0  0  0  0  0  0  0  0  0  0  0  0
   19.3442   -8.3194  -16.4337 C   0  0  0  0  0  0  0  0  0  0  0  0
   18.4983   -8.0830  -15.5457 O   0  0  0  0  0  0  0  0  0  0  0  0
   20.4554   -7.4546  -16.5713 N   0  0  0  0  0  0  0  0  0  0  0  0
   20.6327   -6.3019  -15.7211 C   0  0  1  0  0  0  0  0  0  0  0  0
   21.9696   -6.3330  -15.0101 C   0  0  0  0  0  0  0  0  0  0  0  0
   22.0872   -7.5198  -14.1338 C   0  0  0  0  0  0  0  0  0  0  0  0
   22.7930   -8.6095  -14.5810 C   0  0  0  0  0  0  0  0  0  0  0  0
   22.8837   -9.7184  -13.7412 C   0  0  0  0  0  0  0  0  0  0  0  0
   22.2867   -9.7249  -12.5027 C   0  0  0  0  0  0  0  0  0  0  0  0
   21.5838   -8.6267  -12.0687 C   0  0  0  0  0  0  0  0  0  0  0  0
   21.4854   -7.5177  -12.8929 C   0  0  0  0  0  0  0  0  0  0  0  0
   20.4196   -5.0166  -16.4408 C   0  0  0  0  0  0  0  0  0  0  0  0
   20.8841   -4.8452  -17.6095 O   0  0  0  0  0  0  0  0  0  0  0  0
   19.7053   -3.9233  -15.8888 N   0  0  0  0  0  0  0  0  0  0  0  0
   19.3493   -2.7508  -16.6758 C   0  0  1  0  0  0  0  0  0  0  0  0
   18.4814   -3.1395  -17.8546 C   0  0  0  0  0  0  0  0  0  0  0  0
   17.8860   -1.6580  -18.7100 S   0  0  0  0  0  0  0  0  0  0  0  0
   18.6669   -1.7417  -15.8300 C   0  0  0  0  0  0  0  0  0  0  0  0
   17.7769   -2.1384  -15.0392 O   0  0  0  0  0  0  0  0  0  0  0  0
   18.9644   -0.3994  -15.8739 O   0  0  0  0  0  0  0  0  0  0  0  0
  2  4  1  0
  2  1  1  0
  3  2  2  0
  5  4  1  0
  6  5  1  0
  6  8  1  0
  6  7  1  1
  8  9  2  0
 10  8  1  0
 10 11  1  0
 11 12  1  6
 12 13  1  0
 13 14  2  0
 14 15  1  0
 16 15  2  0
 17 16  1  0
 18 13  1  0
 18 17  2  0
 19 21  1  0
 19 11  1  0
 20 19  2  0
 22 25  1  0
 22 23  1  6
 22 21  1  0
 23 24  1  0
 25 27  1  0
 26 25  2  0
M  END
$$$$
