QFC.pdb
     RDKit          3D

 27 27  0  0  1  0  0  0  0  0999 V2000
   20.6682  -23.4009  -13.0623 N   0  0  0  0  0  0  0  0  0  0  0  0
   19.5410  -22.6158  -12.7249 C   0  0  0  0  0  0  0  0  0  0  0  0
   18.4539  -23.2005  -12.5280 O   0  0  0  0  0  0  0  0  0  0  0  0
   19.7042  -21.1671  -12.6229 C   0  0  0  0  0  0  0  0  0  0  0  0
   21.0995  -20.6522  -12.8502 C   0  0  0  0  0  0  0  0  0  0  0  0
   21.8083  -20.5668  -11.5248 C   0  0  2  0  0  0  0  0  0  0  0  0
   21.2463  -19.4216  -10.8336 N   0  0  0  0  0  0  0  0  0  0  0  0
   23.2651  -20.3319  -11.6763 C   0  0  0  0  0  0  0  0  0  0  0  0
   23.6310  -19.2524  -12.1870 O   0  0  0  0  0  0  0  0  0  0  0  0
   24.2461  -21.2674  -11.2714 N   0  0  0  0  0  0  0  0  0  0  0  0
   25.6486  -21.0668  -11.5464 C   0  0  1  0  0  0  0  0  0  0  0  0
   26.5227  -21.8579  -10.5957 C   0  0  0  0  0  0  0  0  0  0  0  0
   26.7683  -21.1121   -9.3412 C   0  0  0  0  0  0  0  0  0  0  0  0
   25.7064  -20.8250   -8.5192 C   0  0  0  0  0  0  0  0  0  0  0  0
   25.9611  -20.1150   -7.3471 C   0  0  0  0  0  0  0  0  0  0  0  0
   27.2346  -19.7129   -7.0201 C   0  0  0  0  0  0  0  0  0  0  0  0
   28.2875  -20.0077   -7.8526 C   0  0  0  0  0  0  0  0  0  0  0  0
   28.0489  -20.7127   -9.0209 C   0  0  0  0  0  0  0  0  0  0  0  0
   26.0005  -21.3297  -12.9684 C   0  0  0  0  0  0  0  0  0  0  0  0
   25.4157  -22.2485  -13.6201 O   0  0  0  0  0  0  0  0  0  0  0  0
   26.9858  -20.5958  -13.6761 N   0  0  0  0  0  0  0  0  0  0  0  0
   27.1369  -20.6909  -15.1214 C   0  0  1  0  0  0  0  0  0  0  0  0
   27.1655  -19.3128  -15.7494 C   0  0  0  0  0  0  0  0  0  0  0  0
   27.5073  -19.4395  -17.5236 S   0  0  0  0  0  0  0  0  0  0  0  0
   28.3603  -21.4532  -15.4697 C   0  0  0  0  0  0  0  0  0  0  0  0
   29.3755  -21.3031  -14.7474 O   0  0  0  0  0  0  0  0  0  0  0  0
   28.4309  -22.3117  -16.5422 O   0  0  0  0  0  0  0  0  0  0  0  0
  2  4  1  0
  2  1  1  0
  3  2  2  0
  5  4  1  0
  6  5  1  0
  6  8  1  0
  6  7  1  1
  8  9  2  0
 10  8  1  0
 10 11  1  0
 11 12  1  1
 12 13  1  0
 13 14  2  0
 14 15  1  0
 16 15  2  0
 17 16  1  0
 18 13  1  0
 18 17  2  0
 19 21  1  0
 19 11  1  0
 20 19  2  0
 22 25  1  0
 22 23  1  6
 22 21  1  0
 23 24  1  0
 25 27  1  0
 26 25  2  0
M  END
$$$$
