QFC.pdb
     RDKit          3D

 27 27  0  0  1  0  0  0  0  0999 V2000
   25.1083  -18.1430  -13.8375 N   0  0  0  0  0  0  0  0  0  0  0  0
   24.4972  -19.1134  -14.6656 C   0  0  0  0  0  0  0  0  0  0  0  0
   24.3926  -18.8641  -15.8861 O   0  0  0  0  0  0  0  0  0  0  0  0
   24.0224  -20.3534  -14.0552 C   0  0  0  0  0  0  0  0  0  0  0  0
   24.2407  -20.4730  -12.5714 C   0  0  0  0  0  0  0  0  0  0  0  0
   25.7149  -20.6261  -12.3075 C   0  0  2  0  0  0  0  0  0  0  0  0
   26.1449  -21.7934  -13.0545 N   0  0  0  0  0  0  0  0  0  0  0  0
   26.0106  -20.8733  -10.8751 C   0  0  0  0  0  0  0  0  0  0  0  0
   25.9104  -22.0447  -10.4534 O   0  0  0  0  0  0  0  0  0  0  0  0
   26.3972  -19.8509   -9.9770 N   0  0  0  0  0  0  0  0  0  0  0  0
   26.6376  -20.1165   -8.5790 C   0  0  1  0  0  0  0  0  0  0  0  0
   27.3857  -18.9791   -7.9151 C   0  0  0  0  0  0  0  0  0  0  0  0
   27.8595  -19.3598   -6.5657 C   0  0  0  0  0  0  0  0  0  0  0  0
   27.3627  -18.6922   -5.4734 C   0  0  0  0  0  0  0  0  0  0  0  0
   27.8295  -19.0632   -4.2134 C   0  0  0  0  0  0  0  0  0  0  0  0
   28.7583  -20.0660   -4.0645 C   0  0  0  0  0  0  0  0  0  0  0  0
   29.2461  -20.7253   -5.1671 C   0  0  0  0  0  0  0  0  0  0  0  0
   28.7911  -20.3670   -6.4255 C   0  0  0  0  0  0  0  0  0  0  0  0
   25.3962  -20.4683   -7.8373 C   0  0  0  0  0  0  0  0  0  0  0  0
   24.3685  -19.7268   -7.9081 O   0  0  0  0  0  0  0  0  0  0  0  0
   25.2759  -21.6216   -7.0214 N   0  0  0  0  0  0  0  0  0  0  0  0
   24.0472  -21.9458   -6.3101 C   0  0  1  0  0  0  0  0  0  0  0  0
   24.0590  -23.3886   -5.8495 C   0  0  0  0  0  0  0  0  0  0  0  0
   22.5767  -23.7466   -4.8720 S   0  0  0  0  0  0  0  0  0  0  0  0
   23.8510  -21.0284   -5.1615 C   0  0  0  0  0  0  0  0  0  0  0  0
   24.8617  -20.6808   -4.5038 O   0  0  0  0  0  0  0  0  0  0  0  0
   22.6185  -20.5451   -4.7879 O   0  0  0  0  0  0  0  0  0  0  0  0
  2  4  1  0
  2  1  1  0
  3  2  2  0
  5  4  1  0
  6  5  1  0
  6  8  1  0
  6  7  1  6
  8  9  2  0
 10  8  1  0
 10 11  1  0
 11 12  1  1
 12 13  1  0
 13 14  2  0
 14 15  1  0
 16 15  2  0
 17 16  1  0
 18 13  1  0
 18 17  2  0
 19 21  1  0
 19 11  1  0
 20 19  2  0
 22 25  1  0
 22 23  1  1
 22 21  1  0
 23 24  1  0
 25 27  1  0
 26 25  2  0
M  END
$$$$
