QFC.pdb
     RDKit          3D

 27 27  0  0  1  0  0  0  0  0999 V2000
   27.4127  -19.7401  -17.7096 N   0  0  0  0  0  0  0  0  0  0  0  0
   28.2994  -18.7809  -17.1670 C   0  0  0  0  0  0  0  0  0  0  0  0
   29.0706  -18.1834  -17.9486 O   0  0  0  0  0  0  0  0  0  0  0  0
   28.2683  -18.5372  -15.7263 C   0  0  0  0  0  0  0  0  0  0  0  0
   27.1900  -19.2616  -14.9673 C   0  0  0  0  0  0  0  0  0  0  0  0
   27.8213  -20.0207  -13.8309 C   0  0  2  0  0  0  0  0  0  0  0  0
   28.6407  -21.0546  -14.4350 N   0  0  0  0  0  0  0  0  0  0  0  0
   26.8158  -20.6884  -12.9687 C   0  0  0  0  0  0  0  0  0  0  0  0
   26.3276  -21.7657  -13.3703 O   0  0  0  0  0  0  0  0  0  0  0  0
   26.3914  -20.1634  -11.7254 N   0  0  0  0  0  0  0  0  0  0  0  0
   25.2226  -20.6677  -11.0452 C   0  0  1  0  0  0  0  0  0  0  0  0
   25.1356  -20.1484   -9.6252 C   0  0  0  0  0  0  0  0  0  0  0  0
   26.4419  -20.2409   -8.9358 C   0  0  0  0  0  0  0  0  0  0  0  0
   26.7044  -19.3893   -7.8910 C   0  0  0  0  0  0  0  0  0  0  0  0
   27.9444  -19.4900   -7.2622 C   0  0  0  0  0  0  0  0  0  0  0  0
   28.8784  -20.4121   -7.6719 C   0  0  0  0  0  0  0  0  0  0  0  0
   28.6011  -21.2579   -8.7190 C   0  0  0  0  0  0  0  0  0  0  0  0
   27.3729  -21.1688   -9.3533 C   0  0  0  0  0  0  0  0  0  0  0  0
   23.9646  -20.4215  -11.8014 C   0  0  0  0  0  0  0  0  0  0  0  0
   23.9978  -19.9139  -12.9643 O   0  0  0  0  0  0  0  0  0  0  0  0
   22.6768  -20.7256  -11.2921 N   0  0  0  0  0  0  0  0  0  0  0  0
   21.5433  -21.0062  -12.1623 C   0  0  1  0  0  0  0  0  0  0  0  0
   21.7684  -22.2861  -12.9403 C   0  0  0  0  0  0  0  0  0  0  0  0
   20.2869  -22.7097  -13.8923 S   0  0  0  0  0  0  0  0  0  0  0  0
   20.2878  -21.0821  -11.3765 C   0  0  0  0  0  0  0  0  0  0  0  0
   20.3069  -21.7136  -10.2922 O   0  0  0  0  0  0  0  0  0  0  0  0
   19.1115  -20.4949  -11.7809 O   0  0  0  0  0  0  0  0  0  0  0  0
  2  4  1  0
  2  1  1  0
  3  2  2  0
  5  4  1  0
  6  5  1  0
  6  8  1  0
  6  7  1  6
  8  9  2  0
 10  8  1  0
 10 11  1  0
 11 12  1  1
 12 13  1  0
 13 14  2  0
 14 15  1  0
 16 15  2  0
 17 16  1  0
 18 13  1  0
 18 17  2  0
 19 21  1  0
 19 11  1  0
 20 19  2  0
 22 25  1  0
 22 23  1  1
 22 21  1  0
 23 24  1  0
 25 27  1  0
 26 25  2  0
M  END
$$$$
