QFC.pdb
     RDKit          3D

 27 27  0  0  1  0  0  0  0  0999 V2000
   17.3032  -10.8861  -20.8705 N   0  0  0  0  0  0  0  0  0  0  0  0
   17.0739  -12.2667  -20.6652 C   0  0  0  0  0  0  0  0  0  0  0  0
   17.0029  -13.0075  -21.6696 O   0  0  0  0  0  0  0  0  0  0  0  0
   16.9334  -12.7551  -19.2950 C   0  0  0  0  0  0  0  0  0  0  0  0
   17.0074  -11.7055  -18.2196 C   0  0  0  0  0  0  0  0  0  0  0  0
   18.1186  -12.0615  -17.2683 C   0  0  2  0  0  0  0  0  0  0  0  0
   17.6032  -13.1143  -16.4132 N   0  0  0  0  0  0  0  0  0  0  0  0
   18.5056  -10.9235  -16.3991 C   0  0  0  0  0  0  0  0  0  0  0  0
   17.8079  -10.6995  -15.3877 O   0  0  0  0  0  0  0  0  0  0  0  0
   19.6185  -10.0910  -16.6637 N   0  0  0  0  0  0  0  0  0  0  0  0
   19.9139   -8.9344  -15.8526 C   0  0  1  0  0  0  0  0  0  0  0  0
   21.3718   -8.8966  -15.4440 C   0  0  0  0  0  0  0  0  0  0  0  0
   21.6867   -7.6682  -14.6810 C   0  0  0  0  0  0  0  0  0  0  0  0
   21.4687   -7.6530  -13.3253 C   0  0  0  0  0  0  0  0  0  0  0  0
   21.7656   -6.4824  -12.6293 C   0  0  0  0  0  0  0  0  0  0  0  0
   22.2617   -5.3751  -13.2761 C   0  0  0  0  0  0  0  0  0  0  0  0
   22.4749   -5.4055  -14.6333 C   0  0  0  0  0  0  0  0  0  0  0  0
   22.1842   -6.5622  -15.3378 C   0  0  0  0  0  0  0  0  0  0  0  0
   19.4855   -7.6592  -16.4893 C   0  0  0  0  0  0  0  0  0  0  0  0
   19.8149   -7.3910  -17.6854 O   0  0  0  0  0  0  0  0  0  0  0  0
   18.7035   -6.6806  -15.8253 N   0  0  0  0  0  0  0  0  0  0  0  0
   18.4705   -5.3582  -16.3891 C   0  0  1  0  0  0  0  0  0  0  0  0
   17.0151   -5.1873  -16.7720 C   0  0  0  0  0  0  0  0  0  0  0  0
   16.2967   -6.7847  -17.2337 S   0  0  0  0  0  0  0  0  0  0  0  0
   18.8913   -4.3026  -15.4362 C   0  0  0  0  0  0  0  0  0  0  0  0
   19.0613   -4.6247  -14.2352 O   0  0  0  0  0  0  0  0  0  0  0  0
   19.1020   -2.9952  -15.8080 O   0  0  0  0  0  0  0  0  0  0  0  0
  2  4  1  0
  2  1  1  0
  3  2  2  0
  5  4  1  0
  6  5  1  0
  6  8  1  0
  6  7  1  1
  8  9  2  0
 10  8  1  0
 10 11  1  0
 11 12  1  6
 12 13  1  0
 13 14  2  0
 14 15  1  0
 16 15  2  0
 17 16  1  0
 18 13  1  0
 18 17  2  0
 19 21  1  0
 19 11  1  0
 20 19  2  0
 22 25  1  0
 22 23  1  1
 22 21  1  0
 23 24  1  0
 25 27  1  0
 26 25  2  0
M  END
$$$$
