QFC.pdb
     RDKit          3D

 27 27  0  0  1  0  0  0  0  0999 V2000
   23.4421  -18.8071  -13.2045 N   0  0  0  0  0  0  0  0  0  0  0  0
   23.2523  -19.8785  -14.1083 C   0  0  0  0  0  0  0  0  0  0  0  0
   22.8763  -19.6094  -15.2697 O   0  0  0  0  0  0  0  0  0  0  0  0
   23.5058  -21.2398  -13.6409 C   0  0  0  0  0  0  0  0  0  0  0  0
   23.9261  -21.3656  -12.2018 C   0  0  0  0  0  0  0  0  0  0  0  0
   25.2867  -20.7429  -12.0363 C   0  0  2  0  0  0  0  0  0  0  0  0
   26.1555  -21.3974  -12.9967 N   0  0  0  0  0  0  0  0  0  0  0  0
   25.8538  -20.9731  -10.6852 C   0  0  0  0  0  0  0  0  0  0  0  0
   26.1421  -22.1458  -10.3664 O   0  0  0  0  0  0  0  0  0  0  0  0
   26.0797  -19.9329   -9.7531 N   0  0  0  0  0  0  0  0  0  0  0  0
   26.6388  -20.1889   -8.4475 C   0  0  1  0  0  0  0  0  0  0  0  0
   27.3802  -18.9820   -7.9112 C   0  0  0  0  0  0  0  0  0  0  0  0
   28.0359  -19.2820   -6.6187 C   0  0  0  0  0  0  0  0  0  0  0  0
   27.5505  -18.6970   -5.4751 C   0  0  0  0  0  0  0  0  0  0  0  0
   28.1891  -18.9887   -4.2708 C   0  0  0  0  0  0  0  0  0  0  0  0
   29.2715  -19.8353   -4.2250 C   0  0  0  0  0  0  0  0  0  0  0  0
   29.7457  -20.4135   -5.3780 C   0  0  0  0  0  0  0  0  0  0  0  0
   29.1209  -20.1325   -6.5820 C   0  0  0  0  0  0  0  0  0  0  0  0
   25.6293  -20.6930   -7.4769 C   0  0  0  0  0  0  0  0  0  0  0  0
   24.4969  -20.1296   -7.3704 O   0  0  0  0  0  0  0  0  0  0  0  0
   25.8534  -21.8046   -6.6258 N   0  0  0  0  0  0  0  0  0  0  0  0
   24.8752  -22.2360   -5.6370 C   0  0  1  0  0  0  0  0  0  0  0  0
   25.3979  -23.4167   -4.8453 C   0  0  0  0  0  0  0  0  0  0  0  0
   24.2321  -23.8549   -3.5301 S   0  0  0  0  0  0  0  0  0  0  0  0
   24.5154  -21.1154   -4.7347 C   0  0  0  0  0  0  0  0  0  0  0  0
   25.4205  -20.3137   -4.3986 O   0  0  0  0  0  0  0  0  0  0  0  0
   23.2421  -20.9172   -4.2534 O   0  0  0  0  0  0  0  0  0  0  0  0
  2  4  1  0
  2  1  1  0
  3  2  2  0
  5  4  1  0
  6  5  1  0
  6  8  1  0
  6  7  1  6
  8  9  2  0
 10  8  1  0
 10 11  1  0
 11 12  1  1
 12 13  1  0
 13 14  2  0
 14 15  1  0
 16 15  2  0
 17 16  1  0
 18 13  1  0
 18 17  2  0
 19 21  1  0
 19 11  1  0
 20 19  2  0
 22 25  1  0
 22 23  1  1
 22 21  1  0
 23 24  1  0
 25 27  1  0
 26 25  2  0
M  END
$$$$
