GIF.pdb
     RDKit          3D

 24 24  0  0  1  0  0  0  0  0999 V2000
   22.4151  -18.0475  -14.0465 N   0  0  0  0  0  0  0  0  0  0  0  0
   23.3633  -18.1394  -12.9704 C   0  0  0  0  0  0  0  0  0  0  0  0
   24.2428  -19.3522  -13.1272 C   0  0  0  0  0  0  0  0  0  0  0  0
   23.7594  -20.4517  -13.4729 O   0  0  0  0  0  0  0  0  0  0  0  0
   27.8478  -22.4766  -14.6682 C   0  0  0  0  0  0  0  0  0  0  0  0
   28.5392  -21.2410  -14.2213 C   0  0  0  0  0  0  0  0  0  0  0  0
   27.6876  -20.0527  -13.9400 C   0  0  2  0  0  0  0  0  0  0  0  0
   28.6381  -19.0014  -13.3378 C   0  0  0  0  0  0  0  0  0  0  0  0
   26.5643  -20.3357  -13.0306 C   0  0  2  0  0  0  0  0  0  0  0  0
   25.6509  -19.2544  -12.8795 N   0  0  0  0  0  0  0  0  0  0  0  0
   26.9354  -20.8691  -11.7161 C   0  0  0  0  0  0  0  0  0  0  0  0
   28.0886  -21.2976  -11.4323 O   0  0  0  0  0  0  0  0  0  0  0  0
   25.9651  -20.9231  -10.6819 N   0  0  0  0  0  0  0  0  0  0  0  0
   26.3446  -20.9117   -9.2825 C   0  0  1  0  0  0  0  0  0  0  0  0
   27.3187  -19.8418   -8.9214 C   0  0  0  0  0  0  0  0  0  0  0  0
   27.8358  -19.8970   -7.5491 C   0  0  0  0  0  0  0  0  0  0  0  0
   28.8803  -20.7310   -7.1834 C   0  0  0  0  0  0  0  0  0  0  0  0
   29.3632  -20.7693   -5.8904 C   0  0  0  0  0  0  0  0  0  0  0  0
   28.8242  -19.9781   -4.9110 C   0  0  0  0  0  0  0  0  0  0  0  0
   27.7833  -19.1396   -5.2519 C   0  0  0  0  0  0  0  0  0  0  0  0
   27.3015  -19.1067   -6.5598 C   0  0  0  0  0  0  0  0  0  0  0  0
   25.1280  -20.8796   -8.4139 C   0  0  0  0  0  0  0  0  0  0  0  0
   24.0910  -20.2931   -8.7831 O   0  0  0  0  0  0  0  0  0  0  0  0
   25.1482  -21.5060   -7.1862 O   0  0  0  0  0  0  0  0  0  0  0  0
  2  1  1  0
  3  2  1  0
  3  4  2  0
  6  7  1  0
  6  5  1  0
  7  8  1  1
  9 10  1  1
  9  7  1  0
 10  3  1  0
 11  9  1  0
 12 11  2  0
 13 11  1  0
 14 13  1  0
 14 15  1  6
 15 16  1  0
 16 17  2  0
 17 18  1  0
 19 18  2  0
 20 19  1  0
 21 16  1  0
 21 20  2  0
 22 14  1  0
 22 24  1  0
 23 22  2  0
M  END
$$$$
