GIF.pdb
     RDKit          3D

 24 24  0  0  1  0  0  0  0  0999 V2000
   24.8793  -24.5820  -16.4624 N   0  0  0  0  0  0  0  0  0  0  0  0
   26.2001  -24.9632  -16.0429 C   0  0  0  0  0  0  0  0  0  0  0  0
   26.6964  -26.1475  -16.8304 C   0  0  0  0  0  0  0  0  0  0  0  0
   25.9174  -27.0677  -17.1598 O   0  0  0  0  0  0  0  0  0  0  0  0
   30.7453  -24.8756  -19.4426 C   0  0  0  0  0  0  0  0  0  0  0  0
   29.8338  -26.0418  -19.5593 C   0  0  0  0  0  0  0  0  0  0  0  0
   29.9407  -27.0922  -18.5097 C   0  0  2  0  0  0  0  0  0  0  0  0
   30.4643  -28.3449  -19.2362 C   0  0  0  0  0  0  0  0  0  0  0  0
   28.6678  -27.3699  -17.8231 C   0  0  2  0  0  0  0  0  0  0  0  0
   28.0755  -26.2293  -17.2110 N   0  0  0  0  0  0  0  0  0  0  0  0
   28.6910  -28.4926  -16.8801 C   0  0  0  0  0  0  0  0  0  0  0  0
   29.2256  -28.4388  -15.7376 O   0  0  0  0  0  0  0  0  0  0  0  0
   28.0890  -29.7255  -17.2426 N   0  0  0  0  0  0  0  0  0  0  0  0
   28.0754  -30.8592  -16.3388 C   0  0  1  0  0  0  0  0  0  0  0  0
   26.7140  -31.3949  -16.0499 C   0  0  0  0  0  0  0  0  0  0  0  0
   26.6790  -32.6645  -15.3147 C   0  0  0  0  0  0  0  0  0  0  0  0
   26.5199  -32.7206  -13.9393 C   0  0  0  0  0  0  0  0  0  0  0  0
   26.4815  -33.9215  -13.2590 C   0  0  0  0  0  0  0  0  0  0  0  0
   26.6001  -35.1137  -13.9226 C   0  0  0  0  0  0  0  0  0  0  0  0
   26.7594  -35.0825  -15.2924 C   0  0  0  0  0  0  0  0  0  0  0  0
   26.7971  -33.8657  -15.9720 C   0  0  0  0  0  0  0  0  0  0  0  0
   29.0057  -31.9237  -16.8256 C   0  0  0  0  0  0  0  0  0  0  0  0
   29.0956  -32.1912  -18.0405 O   0  0  0  0  0  0  0  0  0  0  0  0
   29.7774  -32.6222  -15.9220 O   0  0  0  0  0  0  0  0  0  0  0  0
  2  1  1  0
  3  2  1  0
  3  4  2  0
  6  7  1  0
  6  5  1  0
  7  8  1  6
  9 10  1  1
  9  7  1  0
 10  3  1  0
 11  9  1  0
 12 11  2  0
 13 11  1  0
 14 13  1  0
 14 15  1  6
 15 16  1  0
 16 17  2  0
 17 18  1  0
 19 18  2  0
 20 19  1  0
 21 16  1  0
 21 20  2  0
 22 14  1  0
 22 24  1  0
 23 22  2  0
M  END
$$$$
