GIF.pdb
     RDKit          3D

 24 24  0  0  1  0  0  0  0  0999 V2000
   34.5385  -10.5382  -17.8729 N   0  0  0  0  0  0  0  0  0  0  0  0
   33.4217  -10.1501  -17.0558 C   0  0  0  0  0  0  0  0  0  0  0  0
   32.1190  -10.3809  -17.7762 C   0  0  0  0  0  0  0  0  0  0  0  0
   32.0531  -10.2931  -19.0213 O   0  0  0  0  0  0  0  0  0  0  0  0
   27.5780  -13.1793  -18.8891 C   0  0  0  0  0  0  0  0  0  0  0  0
   27.5889  -12.2678  -17.7170 C   0  0  0  0  0  0  0  0  0  0  0  0
   28.9009  -12.0342  -17.0534 C   0  0  2  0  0  0  0  0  0  0  0  0
   28.5709  -11.7888  -15.5694 C   0  0  0  0  0  0  0  0  0  0  0  0
   29.6558  -10.9053  -17.6230 C   0  0  2  0  0  0  0  0  0  0  0  0
   30.9365  -10.7053  -17.0347 N   0  0  0  0  0  0  0  0  0  0  0  0
   28.9303   -9.6330  -17.6951 C   0  0  0  0  0  0  0  0  0  0  0  0
   28.8656   -8.8068  -16.7426 O   0  0  0  0  0  0  0  0  0  0  0  0
   28.2488   -9.2810  -18.8890 N   0  0  0  0  0  0  0  0  0  0  0  0
   27.4519   -8.0732  -18.9812 C   0  0  1  0  0  0  0  0  0  0  0  0
   27.9863   -7.0590  -19.9350 C   0  0  0  0  0  0  0  0  0  0  0  0
   27.1300   -5.8875  -20.1548 C   0  0  0  0  0  0  0  0  0  0  0  0
   26.2518   -5.8011  -21.2231 C   0  0  0  0  0  0  0  0  0  0  0  0
   25.4459   -4.6967  -21.4160 C   0  0  0  0  0  0  0  0  0  0  0  0
   25.4835   -3.6349  -20.5517 C   0  0  0  0  0  0  0  0  0  0  0  0
   26.3502   -3.6987  -19.4806 C   0  0  0  0  0  0  0  0  0  0  0  0
   27.1607   -4.8175  -19.2928 C   0  0  0  0  0  0  0  0  0  0  0  0
   26.0237   -8.4128  -19.2650 C   0  0  0  0  0  0  0  0  0  0  0  0
   25.7268   -9.3675  -20.0106 O   0  0  0  0  0  0  0  0  0  0  0  0
   25.0169   -7.6624  -18.6963 O   0  0  0  0  0  0  0  0  0  0  0  0
  2  1  1  0
  3  2  1  0
  3  4  2  0
  6  7  1  0
  6  5  1  0
  7  8  1  1
  9 10  1  1
  9  7  1  0
 10  3  1  0
 11  9  1  0
 12 11  2  0
 13 11  1  0
 14 13  1  0
 14 15  1  6
 15 16  1  0
 16 17  2  0
 17 18  1  0
 19 18  2  0
 20 19  1  0
 21 16  1  0
 21 20  2  0
 22 14  1  0
 22 24  1  0
 23 22  2  0
M  END
$$$$
