GIF.pdb
     RDKit          3D

 24 24  0  0  1  0  0  0  0  0999 V2000
   28.8371  -22.0273  -15.8072 N   0  0  0  0  0  0  0  0  0  0  0  0
   27.5520  -22.4776  -15.3472 C   0  0  0  0  0  0  0  0  0  0  0  0
   27.0281  -21.5873  -14.2509 C   0  0  0  0  0  0  0  0  0  0  0  0
   27.5090  -20.4482  -14.0681 O   0  0  0  0  0  0  0  0  0  0  0  0
   23.7193  -19.3341  -14.3661 C   0  0  0  0  0  0  0  0  0  0  0  0
   23.3569  -20.7292  -14.0100 C   0  0  0  0  0  0  0  0  0  0  0  0
   23.7961  -21.2233  -12.6760 C   0  0  2  0  0  0  0  0  0  0  0  0
   23.0989  -20.3094  -11.6513 C   0  0  0  0  0  0  0  0  0  0  0  0
   25.2574  -21.2067  -12.4942 C   0  0  2  0  0  0  0  0  0  0  0  0
   25.9666  -22.0424  -13.4026 N   0  0  0  0  0  0  0  0  0  0  0  0
   25.7258  -21.4400  -11.1244 C   0  0  0  0  0  0  0  0  0  0  0  0
   25.6514  -22.5554  -10.5374 O   0  0  0  0  0  0  0  0  0  0  0  0
   26.2984  -20.3710  -10.3874 N   0  0  0  0  0  0  0  0  0  0  0  0
   26.6993  -20.5313   -9.0032 C   0  0  1  0  0  0  0  0  0  0  0  0
   27.7890  -19.6095   -8.5713 C   0  0  0  0  0  0  0  0  0  0  0  0
   28.1870  -19.7200   -7.1630 C   0  0  0  0  0  0  0  0  0  0  0  0
   27.6417  -18.9182   -6.1733 C   0  0  0  0  0  0  0  0  0  0  0  0
   28.0189  -19.0359   -4.8503 C   0  0  0  0  0  0  0  0  0  0  0  0
   28.9545  -19.9575   -4.4616 C   0  0  0  0  0  0  0  0  0  0  0  0
   29.5112  -20.7671   -5.4298 C   0  0  0  0  0  0  0  0  0  0  0  0
   29.1249  -20.6419   -6.7636 C   0  0  0  0  0  0  0  0  0  0  0  0
   25.5074  -20.4517   -8.1040 C   0  0  0  0  0  0  0  0  0  0  0  0
   24.5850  -19.6433   -8.3307 O   0  0  0  0  0  0  0  0  0  0  0  0
   25.4224  -21.2821   -7.0071 O   0  0  0  0  0  0  0  0  0  0  0  0
  2  1  1  0
  3  2  1  0
  3  4  2  0
  6  7  1  0
  6  5  1  0
  7  8  1  1
  9 10  1  6
  9  7  1  0
 10  3  1  0
 11  9  1  0
 12 11  2  0
 13 11  1  0
 14 13  1  0
 14 15  1  1
 15 16  1  0
 16 17  2  0
 17 18  1  0
 19 18  2  0
 20 19  1  0
 21 16  1  0
 21 20  2  0
 22 14  1  0
 22 24  1  0
 23 22  2  0
M  END
$$$$
