GIF.pdb
     RDKit          3D

 24 24  0  0  1  0  0  0  0  0999 V2000
   29.5411  -21.2272  -16.4900 N   0  0  0  0  0  0  0  0  0  0  0  0
   28.8771  -21.9225  -15.4216 C   0  0  0  0  0  0  0  0  0  0  0  0
   27.8899  -21.0240  -14.7236 C   0  0  0  0  0  0  0  0  0  0  0  0
   27.8246  -19.8075  -15.0028 O   0  0  0  0  0  0  0  0  0  0  0  0
   23.3969  -18.7690  -14.1131 C   0  0  0  0  0  0  0  0  0  0  0  0
   23.5183  -20.1799  -13.6668 C   0  0  0  0  0  0  0  0  0  0  0  0
   24.6988  -20.9449  -14.1542 C   0  0  2  0  0  0  0  0  0  0  0  0
   24.2023  -22.3911  -14.3370 C   0  0  0  0  0  0  0  0  0  0  0  0
   25.8528  -20.8913  -13.2408 C   0  0  2  0  0  0  0  0  0  0  0  0
   27.0114  -21.5606  -13.7267 N   0  0  0  0  0  0  0  0  0  0  0  0
   25.5818  -21.2935  -11.8570 C   0  0  0  0  0  0  0  0  0  0  0  0
   25.3970  -22.4895  -11.4969 O   0  0  0  0  0  0  0  0  0  0  0  0
   25.5143  -20.3060  -10.8401 N   0  0  0  0  0  0  0  0  0  0  0  0
   25.1061  -20.6342   -9.4880 C   0  0  1  0  0  0  0  0  0  0  0  0
   25.4548  -19.5971   -8.4749 C   0  0  0  0  0  0  0  0  0  0  0  0
   26.8220  -19.6670   -7.9461 C   0  0  0  0  0  0  0  0  0  0  0  0
   27.4538  -18.5726   -7.3774 C   0  0  0  0  0  0  0  0  0  0  0  0
   28.7381  -18.6520   -6.8767 C   0  0  0  0  0  0  0  0  0  0  0  0
   29.4434  -19.8251   -6.9232 C   0  0  0  0  0  0  0  0  0  0  0  0
   28.8346  -20.9281   -7.4849 C   0  0  0  0  0  0  0  0  0  0  0  0
   27.5374  -20.8397   -7.9881 C   0  0  0  0  0  0  0  0  0  0  0  0
   23.6532  -20.9857   -9.4542 C   0  0  0  0  0  0  0  0  0  0  0  0
   22.8681  -20.5548  -10.3224 O   0  0  0  0  0  0  0  0  0  0  0  0
   23.1697  -21.7976   -8.4507 O   0  0  0  0  0  0  0  0  0  0  0  0
  2  1  1  0
  3  2  1  0
  3  4  2  0
  6  7  1  0
  6  5  1  0
  7  8  1  1
  9 10  1  6
  9  7  1  0
 10  3  1  0
 11  9  1  0
 12 11  2  0
 13 11  1  0
 14 13  1  0
 14 15  1  1
 15 16  1  0
 16 17  2  0
 17 18  1  0
 19 18  2  0
 20 19  1  0
 21 16  1  0
 21 20  2  0
 22 14  1  0
 22 24  1  0
 23 22  2  0
M  END
$$$$
