GIF.pdb
     RDKit          3D

 24 24  0  0  1  0  0  0  0  0999 V2000
   20.5220  -13.7554  -19.0845 N   0  0  0  0  0  0  0  0  0  0  0  0
   20.7353  -13.2899  -17.7416 C   0  0  0  0  0  0  0  0  0  0  0  0
   20.8272  -11.7870  -17.6988 C   0  0  0  0  0  0  0  0  0  0  0  0
   21.7684  -11.1880  -18.2623 O   0  0  0  0  0  0  0  0  0  0  0  0
   16.4924   -8.2437  -16.9893 C   0  0  0  0  0  0  0  0  0  0  0  0
   17.3768   -9.3543  -17.4239 C   0  0  0  0  0  0  0  0  0  0  0  0
   18.7664   -8.9973  -17.8213 C   0  0  2  0  0  0  0  0  0  0  0  0
   18.9093   -9.4701  -19.2798 C   0  0  0  0  0  0  0  0  0  0  0  0
   19.7982   -9.6039  -16.9631 C   0  0  2  0  0  0  0  0  0  0  0  0
   19.8292  -11.0264  -17.0067 N   0  0  0  0  0  0  0  0  0  0  0  0
   19.8133   -9.1421  -15.5715 C   0  0  0  0  0  0  0  0  0  0  0  0
   19.1864   -9.7125  -14.6357 O   0  0  0  0  0  0  0  0  0  0  0  0
   20.5638   -7.9891  -15.2233 N   0  0  0  0  0  0  0  0  0  0  0  0
   20.5856   -7.4777  -13.8667 C   0  0  1  0  0  0  0  0  0  0  0  0
   21.9305   -7.0305  -13.4030 C   0  0  0  0  0  0  0  0  0  0  0  0
   22.4956   -5.8824  -14.1217 C   0  0  0  0  0  0  0  0  0  0  0  0
   23.3421   -6.0317  -15.2085 C   0  0  0  0  0  0  0  0  0  0  0  0
   23.8622   -4.9440  -15.8814 C   0  0  0  0  0  0  0  0  0  0  0  0
   23.5592   -3.6647  -15.4976 C   0  0  0  0  0  0  0  0  0  0  0  0
   22.7182   -3.4915  -14.4181 C   0  0  0  0  0  0  0  0  0  0  0  0
   22.1970   -4.5951  -13.7440 C   0  0  0  0  0  0  0  0  0  0  0  0
   19.5502   -6.4127  -13.6956 C   0  0  0  0  0  0  0  0  0  0  0  0
   19.0397   -5.8490  -14.6842 O   0  0  0  0  0  0  0  0  0  0  0  0
   19.1507   -6.0453  -12.4285 O   0  0  0  0  0  0  0  0  0  0  0  0
  2  1  1  0
  3  2  1  0
  3  4  2  0
  6  7  1  0
  6  5  1  0
  7  8  1  6
  9 10  1  1
  9  7  1  0
 10  3  1  0
 11  9  1  0
 12 11  2  0
 13 11  1  0
 14 13  1  0
 14 15  1  6
 15 16  1  0
 16 17  2  0
 17 18  1  0
 19 18  2  0
 20 19  1  0
 21 16  1  0
 21 20  2  0
 22 14  1  0
 22 24  1  0
 23 22  2  0
M  END
$$$$
