GIF.pdb
     RDKit          3D

 24 24  0  0  1  0  0  0  0  0999 V2000
   22.9470  -14.2026  -19.2526 N   0  0  0  0  0  0  0  0  0  0  0  0
   22.8968  -12.7864  -19.4926 C   0  0  0  0  0  0  0  0  0  0  0  0
   23.0086  -12.0155  -18.2033 C   0  0  0  0  0  0  0  0  0  0  0  0
   22.0966  -12.0620  -17.3499 O   0  0  0  0  0  0  0  0  0  0  0  0
   27.5962  -12.0797  -15.4857 C   0  0  0  0  0  0  0  0  0  0  0  0
   26.2046  -11.9155  -15.9768 C   0  0  0  0  0  0  0  0  0  0  0  0
   25.7292  -10.5244  -16.2115 C   0  0  2  0  0  0  0  0  0  0  0  0
   25.8169   -9.8255  -14.8422 C   0  0  0  0  0  0  0  0  0  0  0  0
   24.3632  -10.4535  -16.7572 C   0  0  2  0  0  0  0  0  0  0  0  0
   24.1696  -11.2169  -17.9431 N   0  0  0  0  0  0  0  0  0  0  0  0
   23.8237   -9.1016  -16.9347 C   0  0  0  0  0  0  0  0  0  0  0  0
   24.3843   -8.2074  -17.6278 O   0  0  0  0  0  0  0  0  0  0  0  0
   22.6044   -8.7445  -16.3026 N   0  0  0  0  0  0  0  0  0  0  0  0
   22.0255   -7.4243  -16.4591 C   0  0  1  0  0  0  0  0  0  0  0  0
   20.8899   -7.3648  -17.4238 C   0  0  0  0  0  0  0  0  0  0  0  0
   20.2586   -6.0485  -17.5740 C   0  0  0  0  0  0  0  0  0  0  0  0
   18.9740   -5.7868  -17.1254 C   0  0  0  0  0  0  0  0  0  0  0  0
   18.3928   -4.5422  -17.2660 C   0  0  0  0  0  0  0  0  0  0  0  0
   19.0690   -3.5095  -17.8592 C   0  0  0  0  0  0  0  0  0  0  0  0
   20.3496   -3.7466  -18.3135 C   0  0  0  0  0  0  0  0  0  0  0  0
   20.9294   -5.0061  -18.1677 C   0  0  0  0  0  0  0  0  0  0  0  0
   21.6596   -6.8554  -15.1257 C   0  0  0  0  0  0  0  0  0  0  0  0
   21.1563   -7.5726  -14.2380 O   0  0  0  0  0  0  0  0  0  0  0  0
   21.8799   -5.5192  -14.8691 O   0  0  0  0  0  0  0  0  0  0  0  0
  2  1  1  0
  3  2  1  0
  3  4  2  0
  6  7  1  0
  6  5  1  0
  7  8  1  1
  9 10  1  6
  9  7  1  0
 10  3  1  0
 11  9  1  0
 12 11  2  0
 13 11  1  0
 14 13  1  0
 14 15  1  6
 15 16  1  0
 16 17  2  0
 17 18  1  0
 19 18  2  0
 20 19  1  0
 21 16  1  0
 21 20  2  0
 22 14  1  0
 22 24  1  0
 23 22  2  0
M  END
$$$$
