GIF.pdb
     RDKit          3D

 24 24  0  0  1  0  0  0  0  0999 V2000
   15.6775  -12.0845  -12.8509 N   0  0  0  0  0  0  0  0  0  0  0  0
   16.2291  -11.5779  -11.6243 C   0  0  0  0  0  0  0  0  0  0  0  0
   16.2935  -10.0730  -11.6417 C   0  0  0  0  0  0  0  0  0  0  0  0
   16.4048   -9.4506  -12.7198 O   0  0  0  0  0  0  0  0  0  0  0  0
   13.6336   -8.5911   -8.5442 C   0  0  0  0  0  0  0  0  0  0  0  0
   14.2567   -7.4076   -9.1889 C   0  0  0  0  0  0  0  0  0  0  0  0
   15.7422   -7.3187   -9.1491 C   0  0  2  0  0  0  0  0  0  0  0  0
   16.0598   -5.8149   -9.0548 C   0  0  0  0  0  0  0  0  0  0  0  0
   16.3998   -7.9279  -10.3176 C   0  0  2  0  0  0  0  0  0  0  0  0
   16.2272   -9.3377  -10.4135 N   0  0  0  0  0  0  0  0  0  0  0  0
   17.8125   -7.5797  -10.4997 C   0  0  0  0  0  0  0  0  0  0  0  0
   18.7312   -7.9385   -9.7115 O   0  0  0  0  0  0  0  0  0  0  0  0
   18.2028   -6.7931  -11.6145 N   0  0  0  0  0  0  0  0  0  0  0  0
   19.5881   -6.4289  -11.8398 C   0  0  1  0  0  0  0  0  0  0  0  0
   20.5058   -7.5915  -12.0133 C   0  0  0  0  0  0  0  0  0  0  0  0
   20.3863   -8.3038  -13.2909 C   0  0  0  0  0  0  0  0  0  0  0  0
   20.8574   -7.7744  -14.4817 C   0  0  0  0  0  0  0  0  0  0  0  0
   20.7457   -8.4569  -15.6768 C   0  0  0  0  0  0  0  0  0  0  0  0
   20.1601   -9.6938  -15.7322 C   0  0  0  0  0  0  0  0  0  0  0  0
   19.6838  -10.2409  -14.5589 C   0  0  0  0  0  0  0  0  0  0  0  0
   19.8005   -9.5454  -13.3562 C   0  0  0  0  0  0  0  0  0  0  0  0
   19.6930   -5.4573  -12.9714 C   0  0  0  0  0  0  0  0  0  0  0  0
   20.7669   -4.8728  -13.2182 O   0  0  0  0  0  0  0  0  0  0  0  0
   18.5893   -5.2005  -13.7561 O   0  0  0  0  0  0  0  0  0  0  0  0
  2  1  1  0
  3  2  1  0
  3  4  2  0
  6  7  1  0
  6  5  1  0
  7  8  1  6
  9 10  1  1
  9  7  1  0
 10  3  1  0
 11  9  1  0
 12 11  2  0
 13 11  1  0
 14 13  1  0
 14 15  1  6
 15 16  1  0
 16 17  2  0
 17 18  1  0
 19 18  2  0
 20 19  1  0
 21 16  1  0
 21 20  2  0
 22 14  1  0
 22 24  1  0
 23 22  2  0
M  END
$$$$
