GIF.pdb
     RDKit          3D

 24 24  0  0  1  0  0  0  0  0999 V2000
   28.0950  -22.9955  -16.8325 N   0  0  0  0  0  0  0  0  0  0  0  0
   27.1997  -23.1173  -15.7148 C   0  0  0  0  0  0  0  0  0  0  0  0
   27.5856  -22.1713  -14.6078 C   0  0  0  0  0  0  0  0  0  0  0  0
   28.7586  -22.1351  -14.1781 O   0  0  0  0  0  0  0  0  0  0  0  0
   26.7650  -17.0917  -15.0667 C   0  0  0  0  0  0  0  0  0  0  0  0
   27.2042  -18.4168  -14.5609 C   0  0  0  0  0  0  0  0  0  0  0  0
   26.4852  -18.9616  -13.3766 C   0  0  2  0  0  0  0  0  0  0  0  0
   26.7906  -17.9837  -12.2270 C   0  0  0  0  0  0  0  0  0  0  0  0
   26.8852  -20.3348  -13.0257 C   0  0  2  0  0  0  0  0  0  0  0  0
   26.6037  -21.2990  -14.0345 N   0  0  0  0  0  0  0  0  0  0  0  0
   26.4139  -20.8163  -11.7233 C   0  0  0  0  0  0  0  0  0  0  0  0
   25.3224  -21.4279  -11.5539 O   0  0  0  0  0  0  0  0  0  0  0  0
   27.2052  -20.5961  -10.5660 N   0  0  0  0  0  0  0  0  0  0  0  0
   26.8506  -21.1701   -9.2826 C   0  0  1  0  0  0  0  0  0  0  0  0
   28.0068  -21.3738   -8.3631 C   0  0  0  0  0  0  0  0  0  0  0  0
   27.9453  -20.6312   -7.0988 C   0  0  0  0  0  0  0  0  0  0  0  0
   28.5111  -19.3753   -6.9483 C   0  0  0  0  0  0  0  0  0  0  0  0
   28.4409  -18.6830   -5.7557 C   0  0  0  0  0  0  0  0  0  0  0  0
   27.8042  -19.2151   -4.6662 C   0  0  0  0  0  0  0  0  0  0  0  0
   27.2332  -20.4644   -4.7925 C   0  0  0  0  0  0  0  0  0  0  0  0
   27.3084  -21.1570   -6.0002 C   0  0  0  0  0  0  0  0  0  0  0  0
   25.7573  -20.3763   -8.6421 C   0  0  0  0  0  0  0  0  0  0  0  0
   25.6521  -19.1498   -8.8431 O   0  0  0  0  0  0  0  0  0  0  0  0
   24.8498  -21.0051   -7.8167 O   0  0  0  0  0  0  0  0  0  0  0  0
  2  1  1  0
  3  2  1  0
  3  4  2  0
  6  7  1  0
  6  5  1  0
  7  8  1  1
  9 10  1  6
  9  7  1  0
 10  3  1  0
 11  9  1  0
 12 11  2  0
 13 11  1  0
 14 13  1  0
 14 15  1  1
 15 16  1  0
 16 17  2  0
 17 18  1  0
 19 18  2  0
 20 19  1  0
 21 16  1  0
 21 20  2  0
 22 14  1  0
 22 24  1  0
 23 22  2  0
M  END
$$$$
