GIF.pdb
     RDKit          3D

 24 24  0  0  1  0  0  0  0  0999 V2000
   22.8000  -28.4852  -15.7903 N   0  0  0  0  0  0  0  0  0  0  0  0
   21.5198  -27.8762  -16.0265 C   0  0  0  0  0  0  0  0  0  0  0  0
   21.2749  -26.7427  -15.0651 C   0  0  0  0  0  0  0  0  0  0  0  0
   22.1005  -26.4790  -14.1646 O   0  0  0  0  0  0  0  0  0  0  0  0
   19.9317  -23.4424  -17.5258 C   0  0  0  0  0  0  0  0  0  0  0  0
   20.2451  -23.1451  -16.1053 C   0  0  0  0  0  0  0  0  0  0  0  0
   19.2931  -23.6554  -15.0808 C   0  0  2  0  0  0  0  0  0  0  0  0
   19.0446  -22.4720  -14.1275 C   0  0  0  0  0  0  0  0  0  0  0  0
   19.7916  -24.8317  -14.3482 C   0  0  2  0  0  0  0  0  0  0  0  0
   20.0850  -25.9519  -15.1761 N   0  0  0  0  0  0  0  0  0  0  0  0
   18.9802  -25.2516  -13.2013 C   0  0  0  0  0  0  0  0  0  0  0  0
   17.9191  -25.9284  -13.3023 O   0  0  0  0  0  0  0  0  0  0  0  0
   19.3814  -24.8909  -11.8888 N   0  0  0  0  0  0  0  0  0  0  0  0
   18.6234  -25.3011  -10.7227 C   0  0  1  0  0  0  0  0  0  0  0  0
   19.4266  -25.3839   -9.4690 C   0  0  0  0  0  0  0  0  0  0  0  0
   18.6891  -25.8133   -8.2751 C   0  0  0  0  0  0  0  0  0  0  0  0
   18.4881  -27.1496   -7.9685 C   0  0  0  0  0  0  0  0  0  0  0  0
   17.7985  -27.5419   -6.8385 C   0  0  0  0  0  0  0  0  0  0  0  0
   17.2820  -26.6178   -5.9695 C   0  0  0  0  0  0  0  0  0  0  0  0
   17.4698  -25.2813   -6.2541 C   0  0  0  0  0  0  0  0  0  0  0  0
   18.1674  -24.8933   -7.3973 C   0  0  0  0  0  0  0  0  0  0  0  0
   17.4138  -24.4377  -10.5585 C   0  0  0  0  0  0  0  0  0  0  0  0
   17.4783  -23.2036  -10.7279 O   0  0  0  0  0  0  0  0  0  0  0  0
   16.2076  -25.0095  -10.2149 O   0  0  0  0  0  0  0  0  0  0  0  0
  2  1  1  0
  3  2  1  0
  3  4  2  0
  6  7  1  0
  6  5  1  0
  7  8  1  1
  9 10  1  6
  9  7  1  0
 10  3  1  0
 11  9  1  0
 12 11  2  0
 13 11  1  0
 14 13  1  0
 14 15  1  1
 15 16  1  0
 16 17  2  0
 17 18  1  0
 19 18  2  0
 20 19  1  0
 21 16  1  0
 21 20  2  0
 22 14  1  0
 22 24  1  0
 23 22  2  0
M  END
$$$$
