GIF.pdb
     RDKit          3D

 24 24  0  0  1  0  0  0  0  0999 V2000
   14.3392  -12.4816  -10.8323 N   0  0  0  0  0  0  0  0  0  0  0  0
   13.5997  -11.4298  -10.1900 C   0  0  0  0  0  0  0  0  0  0  0  0
   14.1981  -10.0823  -10.4985 C   0  0  0  0  0  0  0  0  0  0  0  0
   14.1906   -9.6315  -11.6642 O   0  0  0  0  0  0  0  0  0  0  0  0
   12.7102   -7.6052   -7.6215 C   0  0  0  0  0  0  0  0  0  0  0  0
   13.5879   -6.6939   -8.3985 C   0  0  0  0  0  0  0  0  0  0  0  0
   15.0236   -7.0707   -8.5123 C   0  0  2  0  0  0  0  0  0  0  0  0
   15.7834   -5.7419   -8.6802 C   0  0  0  0  0  0  0  0  0  0  0  0
   15.3046   -7.9877   -9.6299 C   0  0  2  0  0  0  0  0  0  0  0  0
   14.7849   -9.3008   -9.4504 N   0  0  0  0  0  0  0  0  0  0  0  0
   16.7066   -8.0545  -10.0545 C   0  0  0  0  0  0  0  0  0  0  0  0
   17.6325   -8.5385   -9.3456 O   0  0  0  0  0  0  0  0  0  0  0  0
   17.0781   -7.5526  -11.3288 N   0  0  0  0  0  0  0  0  0  0  0  0
   18.4319   -7.6826  -11.8316 C   0  0  1  0  0  0  0  0  0  0  0  0
   18.7997   -9.0666  -12.2476 C   0  0  0  0  0  0  0  0  0  0  0  0
   20.1498   -9.2204  -12.8018 C   0  0  0  0  0  0  0  0  0  0  0  0
   20.3965   -9.2159  -14.1653 C   0  0  0  0  0  0  0  0  0  0  0  0
   21.6722   -9.3546  -14.6751 C   0  0  0  0  0  0  0  0  0  0  0  0
   22.7522   -9.5032  -13.8462 C   0  0  0  0  0  0  0  0  0  0  0  0
   22.5308   -9.5106  -12.4847 C   0  0  0  0  0  0  0  0  0  0  0  0
   21.2396   -9.3699  -11.9778 C   0  0  0  0  0  0  0  0  0  0  0  0
   18.6816   -6.6851  -12.9170 C   0  0  0  0  0  0  0  0  0  0  0  0
   17.8024   -6.4218  -13.7616 O   0  0  0  0  0  0  0  0  0  0  0  0
   19.9000   -6.0445  -12.9893 O   0  0  0  0  0  0  0  0  0  0  0  0
  2  1  1  0
  3  2  1  0
  3  4  2  0
  6  7  1  0
  6  5  1  0
  7  8  1  6
  9 10  1  1
  9  7  1  0
 10  3  1  0
 11  9  1  0
 12 11  2  0
 13 11  1  0
 14 13  1  0
 14 15  1  6
 15 16  1  0
 16 17  2  0
 17 18  1  0
 19 18  2  0
 20 19  1  0
 21 16  1  0
 21 20  2  0
 22 14  1  0
 22 24  1  0
 23 22  2  0
M  END
$$$$
