GIF.pdb
     RDKit          3D

 24 24  0  0  1  0  0  0  0  0999 V2000
   23.2463  -13.9134  -16.7824 N   0  0  0  0  0  0  0  0  0  0  0  0
   24.4317  -14.4523  -16.1740 C   0  0  0  0  0  0  0  0  0  0  0  0
   24.4445  -15.9564  -16.2548 C   0  0  0  0  0  0  0  0  0  0  0  0
   23.8034  -16.5540  -17.1458 O   0  0  0  0  0  0  0  0  0  0  0  0
   28.0790  -20.6820  -14.4968 C   0  0  0  0  0  0  0  0  0  0  0  0
   26.7687  -20.1078  -14.8945 C   0  0  0  0  0  0  0  0  0  0  0  0
   26.6439  -18.6245  -14.8689 C   0  0  2  0  0  0  0  0  0  0  0  0
   26.8797  -18.2192  -13.4022 C   0  0  0  0  0  0  0  0  0  0  0  0
   25.3417  -18.1351  -15.3522 C   0  0  2  0  0  0  0  0  0  0  0  0
   25.1973  -16.7197  -15.3038 N   0  0  0  0  0  0  0  0  0  0  0  0
   24.1656  -18.7819  -14.7618 C   0  0  0  0  0  0  0  0  0  0  0  0
   23.9018  -18.7668  -13.5271 O   0  0  0  0  0  0  0  0  0  0  0  0
   23.2528  -19.4754  -15.5982 N   0  0  0  0  0  0  0  0  0  0  0  0
   22.0786  -20.1341  -15.0599 C   0  0  1  0  0  0  0  0  0  0  0  0
   20.8085  -19.3781  -15.2574 C   0  0  0  0  0  0  0  0  0  0  0  0
   20.7324  -18.0831  -14.5712 C   0  0  0  0  0  0  0  0  0  0  0  0
   21.0138  -16.8870  -15.2118 C   0  0  0  0  0  0  0  0  0  0  0  0
   20.9321  -15.6737  -14.5577 C   0  0  0  0  0  0  0  0  0  0  0  0
   20.5668  -15.6047  -13.2396 C   0  0  0  0  0  0  0  0  0  0  0  0
   20.2819  -16.7828  -12.5812 C   0  0  0  0  0  0  0  0  0  0  0  0
   20.3666  -18.0039  -13.2488 C   0  0  0  0  0  0  0  0  0  0  0  0
   21.9847  -21.5340  -15.5766 C   0  0  0  0  0  0  0  0  0  0  0  0
   21.1274  -22.3251  -15.1351 O   0  0  0  0  0  0  0  0  0  0  0  0
   22.8563  -21.9610  -16.5554 O   0  0  0  0  0  0  0  0  0  0  0  0
  2  1  1  0
  3  2  1  0
  3  4  2  0
  6  7  1  0
  6  5  1  0
  7  8  1  1
  9 10  1  1
  9  7  1  0
 10  3  1  0
 11  9  1  0
 12 11  2  0
 13 11  1  0
 14 13  1  0
 14 15  1  6
 15 16  1  0
 16 17  2  0
 17 18  1  0
 19 18  2  0
 20 19  1  0
 21 16  1  0
 21 20  2  0
 22 14  1  0
 22 24  1  0
 23 22  2  0
M  END
$$$$
