GIF.pdb
     RDKit          3D

 24 24  0  0  1  0  0  0  0  0999 V2000
   28.3534  -24.3227  -16.8926 N   0  0  0  0  0  0  0  0  0  0  0  0
   27.7156  -23.0703  -17.1934 C   0  0  0  0  0  0  0  0  0  0  0  0
   27.6834  -22.1756  -15.9820 C   0  0  0  0  0  0  0  0  0  0  0  0
   28.3736  -22.4397  -14.9741 O   0  0  0  0  0  0  0  0  0  0  0  0
   29.1122  -18.4438  -15.7051 C   0  0  0  0  0  0  0  0  0  0  0  0
   27.7256  -18.1807  -16.1662 C   0  0  0  0  0  0  0  0  0  0  0  0
   26.6193  -18.6813  -15.3049 C   0  0  2  0  0  0  0  0  0  0  0  0
   26.5945  -17.7431  -14.0841 C   0  0  0  0  0  0  0  0  0  0  0  0
   26.7840  -20.0853  -14.8922 C   0  0  2  0  0  0  0  0  0  0  0  0
   26.8553  -21.0061  -15.9754 N   0  0  0  0  0  0  0  0  0  0  0  0
   25.8302  -20.5637  -13.8863 C   0  0  0  0  0  0  0  0  0  0  0  0
   24.6062  -20.7663  -14.1200 O   0  0  0  0  0  0  0  0  0  0  0  0
   26.2758  -20.8209  -12.5638 N   0  0  0  0  0  0  0  0  0  0  0  0
   25.3757  -21.3193  -11.5421 C   0  0  1  0  0  0  0  0  0  0  0  0
   26.0589  -21.9946  -10.4015 C   0  0  0  0  0  0  0  0  0  0  0  0
   26.6637  -21.0986   -9.4090 C   0  0  0  0  0  0  0  0  0  0  0  0
   25.9169  -20.1851   -8.6824 C   0  0  0  0  0  0  0  0  0  0  0  0
   26.4960  -19.3517   -7.7460 C   0  0  0  0  0  0  0  0  0  0  0  0
   27.8420  -19.3960   -7.4970 C   0  0  0  0  0  0  0  0  0  0  0  0
   28.6057  -20.2978   -8.2084 C   0  0  0  0  0  0  0  0  0  0  0  0
   28.0133  -21.1359   -9.1522 C   0  0  0  0  0  0  0  0  0  0  0  0
   24.4576  -20.2324  -11.0825 C   0  0  0  0  0  0  0  0  0  0  0  0
   23.3575  -20.4998  -10.5592 O   0  0  0  0  0  0  0  0  0  0  0  0
   24.8283  -18.9138  -11.2374 O   0  0  0  0  0  0  0  0  0  0  0  0
  2  1  1  0
  3  2  1  0
  3  4  2  0
  6  7  1  0
  6  5  1  0
  7  8  1  1
  9 10  1  6
  9  7  1  0
 10  3  1  0
 11  9  1  0
 12 11  2  0
 13 11  1  0
 14 13  1  0
 14 15  1  1
 15 16  1  0
 16 17  2  0
 17 18  1  0
 19 18  2  0
 20 19  1  0
 21 16  1  0
 21 20  2  0
 22 14  1  0
 22 24  1  0
 23 22  2  0
M  END
$$$$
