VHS.pdb
     RDKit          3D

 24 24  0  0  1  0  0  0  0  0999 V2000
   22.4810  -13.9722  -20.1730 C   0  0  0  0  0  0  0  0  0  0  0  0
   22.5255  -13.1590  -18.8959 C   0  0  2  0  0  0  0  0  0  0  0  0
   21.7236  -13.9176  -17.8577 C   0  0  0  0  0  0  0  0  0  0  0  0
   21.8421  -11.8304  -19.1016 C   0  0  2  0  0  0  0  0  0  0  0  0
   22.4812  -11.1842  -20.2261 N   0  0  0  0  0  0  0  0  0  0  0  0
   21.8914  -10.9618  -17.9202 C   0  0  0  0  0  0  0  0  0  0  0  0
   21.4056  -11.3001  -16.8045 O   0  0  0  0  0  0  0  0  0  0  0  0
   22.5072   -9.6877  -18.0229 N   0  0  0  0  0  0  0  0  0  0  0  0
   22.5238   -8.6569  -17.0521 C   0  0  1  0  0  0  0  0  0  0  0  0
   23.8787   -8.0038  -16.8087 C   0  0  0  0  0  0  0  0  0  0  0  0
   24.8639   -8.9627  -16.2518 C   0  0  0  0  0  0  0  0  0  0  0  0
   24.6090  -10.2935  -15.8867 C   0  0  0  0  0  0  0  0  0  0  0  0
   25.7389  -10.8424  -15.4268 N   0  0  0  0  0  0  0  0  0  0  0  0
   26.6895   -9.8945  -15.4941 C   0  0  0  0  0  0  0  0  0  0  0  0
   26.1450   -8.7633  -15.9951 N   0  0  0  0  0  0  0  0  0  0  0  0
   21.5129   -7.6105  -17.1846 C   0  0  0  0  0  0  0  0  0  0  0  0
   21.3316   -7.0809  -18.3239 O   0  0  0  0  0  0  0  0  0  0  0  0
   17.4025   -5.6084  -15.9427 O   0  0  0  0  0  0  0  0  0  0  0  0
   18.3872   -6.5773  -15.8914 C   0  0  0  0  0  0  0  0  0  0  0  0
   19.7276   -6.0380  -16.3468 C   0  0  2  0  0  0  0  0  0  0  0  0
   20.6935   -7.1163  -16.1397 N   0  0  0  0  0  0  0  0  0  0  0  0
   20.1319   -4.9020  -15.4910 C   0  0  0  0  0  0  0  0  0  0  0  0
   21.0480   -5.0485  -14.6483 O   0  0  0  0  0  0  0  0  0  0  0  0
   19.5420   -3.6489  -15.5667 O   0  0  0  0  0  0  0  0  0  0  0  0
  2  1  1  6
  2  3  1  0
  4  6  1  0
  4  2  1  0
  4  5  1  6
  6  7  2  0
  8  6  1  0
  8  9  1  0
  9 10  1  6
 10 11  1  0
 11 15  1  0
 11 12  2  0
 12 13  1  0
 14 13  1  0
 15 14  2  0
 16 17  2  0
 16  9  1  0
 18 19  1  0
 20 19  1  1
 20 21  1  0
 21 16  1  0
 22 20  1  0
 22 24  1  0
 23 22  2  0
M  END
$$$$
