VHS.pdb
     RDKit          3D

 24 24  0  0  1  0  0  0  0  0999 V2000
   25.9989  -18.0689  -18.4452 C   0  0  0  0  0  0  0  0  0  0  0  0
   27.3510  -17.8811  -17.7888 C   0  0  2  0  0  0  0  0  0  0  0  0
   28.3988  -18.0726  -18.8667 C   0  0  0  0  0  0  0  0  0  0  0  0
   27.5789  -18.9527  -16.7523 C   0  0  2  0  0  0  0  0  0  0  0  0
   27.4677  -20.2308  -17.4191 N   0  0  0  0  0  0  0  0  0  0  0  0
   26.6401  -18.8826  -15.6270 C   0  0  0  0  0  0  0  0  0  0  0  0
   26.5410  -17.8658  -14.8842 O   0  0  0  0  0  0  0  0  0  0  0  0
   25.8045  -19.9958  -15.3520 N   0  0  0  0  0  0  0  0  0  0  0  0
   24.8516  -20.1232  -14.3123 C   0  0  1  0  0  0  0  0  0  0  0  0
   23.4809  -20.6370  -14.7351 C   0  0  0  0  0  0  0  0  0  0  0  0
   22.7185  -19.6184  -15.4976 C   0  0  0  0  0  0  0  0  0  0  0  0
   23.0963  -18.2824  -15.7016 C   0  0  0  0  0  0  0  0  0  0  0  0
   22.1596  -17.6729  -16.4370 N   0  0  0  0  0  0  0  0  0  0  0  0
   21.2102  -18.5881  -16.6972 C   0  0  0  0  0  0  0  0  0  0  0  0
   21.5624  -19.7598  -16.1225 N   0  0  0  0  0  0  0  0  0  0  0  0
   25.2760  -20.8431  -13.1140 C   0  0  0  0  0  0  0  0  0  0  0  0
   25.6053  -22.0642  -13.2229 O   0  0  0  0  0  0  0  0  0  0  0  0
   27.8711  -20.4006  -10.6136 O   0  0  0  0  0  0  0  0  0  0  0  0
   26.7152  -20.4740   -9.8591 C   0  0  0  0  0  0  0  0  0  0  0  0
   25.5859  -21.1295  -10.6272 C   0  0  2  0  0  0  0  0  0  0  0  0
   25.3591  -20.2982  -11.8088 N   0  0  0  0  0  0  0  0  0  0  0  0
   24.3476  -21.1098   -9.8194 C   0  0  0  0  0  0  0  0  0  0  0  0
   23.3414  -20.4866  -10.2316 O   0  0  0  0  0  0  0  0  0  0  0  0
   24.2291  -21.7576   -8.5987 O   0  0  0  0  0  0  0  0  0  0  0  0
  2  1  1  6
  2  3  1  0
  4  6  1  0
  4  2  1  0
  4  5  1  6
  6  7  2  0
  8  6  1  0
  8  9  1  0
  9 10  1  6
 10 11  1  0
 11 15  1  0
 11 12  2  0
 12 13  1  0
 14 13  1  0
 15 14  2  0
 16 17  2  0
 16  9  1  0
 18 19  1  0
 20 19  1  1
 20 21  1  0
 21 16  1  0
 22 20  1  0
 22 24  1  0
 23 22  2  0
M  END
$$$$
