VHS.pdb
     RDKit          3D

 24 24  0  0  1  0  0  0  0  0999 V2000
   18.4197  -13.4184  -17.2195 C   0  0  0  0  0  0  0  0  0  0  0  0
   18.7124  -12.2593  -16.2893 C   0  0  2  0  0  0  0  0  0  0  0  0
   17.3770  -11.6893  -15.8556 C   0  0  0  0  0  0  0  0  0  0  0  0
   19.4411  -11.1679  -17.0324 C   0  0  2  0  0  0  0  0  0  0  0  0
   20.2454  -11.8015  -18.0532 N   0  0  0  0  0  0  0  0  0  0  0  0
   20.2827  -10.3356  -16.1653 C   0  0  0  0  0  0  0  0  0  0  0  0
   20.0908  -10.2362  -14.9209 O   0  0  0  0  0  0  0  0  0  0  0  0
   21.3587   -9.6082  -16.7363 N   0  0  0  0  0  0  0  0  0  0  0  0
   22.2573   -8.7359  -16.0754 C   0  0  1  0  0  0  0  0  0  0  0  0
   23.7307   -8.9313  -16.4105 C   0  0  0  0  0  0  0  0  0  0  0  0
   24.1919  -10.3065  -16.1003 C   0  0  0  0  0  0  0  0  0  0  0  0
   23.7728  -11.0962  -15.0186 C   0  0  0  0  0  0  0  0  0  0  0  0
   24.4053  -12.2739  -15.0689 N   0  0  0  0  0  0  0  0  0  0  0  0
   25.2054  -12.2419  -16.1485 C   0  0  0  0  0  0  0  0  0  0  0  0
   25.0652  -11.0456  -16.7621 N   0  0  0  0  0  0  0  0  0  0  0  0
   21.9474   -7.3091  -16.1253 C   0  0  0  0  0  0  0  0  0  0  0  0
   21.7527   -6.7684  -17.2572 O   0  0  0  0  0  0  0  0  0  0  0  0
   19.5629   -3.6304  -14.8774 O   0  0  0  0  0  0  0  0  0  0  0  0
   19.9962   -4.9427  -14.9096 C   0  0  0  0  0  0  0  0  0  0  0  0
   21.4911   -5.0333  -15.1381 C   0  0  2  0  0  0  0  0  0  0  0  0
   21.8395   -6.4474  -15.0058 N   0  0  0  0  0  0  0  0  0  0  0  0
   22.2095   -4.2924  -14.0793 C   0  0  0  0  0  0  0  0  0  0  0  0
   22.6347   -4.9000  -13.0689 O   0  0  0  0  0  0  0  0  0  0  0  0
   22.4481   -2.9273  -14.1384 O   0  0  0  0  0  0  0  0  0  0  0  0
  2  1  1  6
  2  3  1  0
  4  6  1  0
  4  2  1  0
  4  5  1  6
  6  7  2  0
  8  6  1  0
  8  9  1  0
  9 10  1  6
 10 11  1  0
 11 15  1  0
 11 12  2  0
 12 13  1  0
 14 13  1  0
 15 14  2  0
 16 17  2  0
 16  9  1  0
 18 19  1  0
 20 19  1  1
 20 21  1  0
 21 16  1  0
 22 20  1  0
 22 24  1  0
 23 22  2  0
M  END
$$$$
