VHS.pdb
     RDKit          3D

 24 24  0  0  1  0  0  0  0  0999 V2000
   33.4242  -31.1372  -20.4026 C   0  0  0  0  0  0  0  0  0  0  0  0
   34.7716  -31.1559  -19.7108 C   0  0  2  0  0  0  0  0  0  0  0  0
   35.7928  -30.6562  -20.7127 C   0  0  0  0  0  0  0  0  0  0  0  0
   35.1536  -32.5710  -19.3552 C   0  0  2  0  0  0  0  0  0  0  0  0
   35.3994  -33.2771  -20.5927 N   0  0  0  0  0  0  0  0  0  0  0  0
   34.1323  -33.2683  -18.5657 C   0  0  0  0  0  0  0  0  0  0  0  0
   33.2363  -33.9863  -19.0920 O   0  0  0  0  0  0  0  0  0  0  0  0
   34.1412  -33.1384  -17.1529 N   0  0  0  0  0  0  0  0  0  0  0  0
   33.2007  -33.6616  -16.2325 C   0  0  1  0  0  0  0  0  0  0  0  0
   33.7793  -34.1720  -14.9187 C   0  0  0  0  0  0  0  0  0  0  0  0
   34.6394  -35.3640  -15.1180 C   0  0  0  0  0  0  0  0  0  0  0  0
   34.7557  -36.1130  -16.2989 C   0  0  0  0  0  0  0  0  0  0  0  0
   35.6246  -37.1102  -16.0978 N   0  0  0  0  0  0  0  0  0  0  0  0
   36.0528  -37.0052  -14.8281 C   0  0  0  0  0  0  0  0  0  0  0  0
   35.4481  -35.9444  -14.2484 N   0  0  0  0  0  0  0  0  0  0  0  0
   32.0316  -32.8348  -15.9433 C   0  0  0  0  0  0  0  0  0  0  0  0
   32.1838  -31.5780  -15.8493 O   0  0  0  0  0  0  0  0  0  0  0  0
   28.2700  -30.8990  -16.9261 O   0  0  0  0  0  0  0  0  0  0  0  0
   29.3912  -31.7077  -16.9212 C   0  0  0  0  0  0  0  0  0  0  0  0
   29.5709  -32.4076  -15.5898 C   0  0  2  0  0  0  0  0  0  0  0  0
   30.7103  -33.3096  -15.7531 N   0  0  0  0  0  0  0  0  0  0  0  0
   28.3825  -33.2345  -15.2895 C   0  0  0  0  0  0  0  0  0  0  0  0
   28.3764  -34.4522  -15.5859 O   0  0  0  0  0  0  0  0  0  0  0  0
   27.2420  -32.7296  -14.6826 O   0  0  0  0  0  0  0  0  0  0  0  0
  2  1  1  6
  2  3  1  0
  4  6  1  0
  4  2  1  0
  4  5  1  6
  6  7  2  0
  8  6  1  0
  8  9  1  0
  9 10  1  1
 10 11  1  0
 11 15  1  0
 11 12  2  0
 12 13  1  0
 14 13  1  0
 15 14  2  0
 16 17  2  0
 16  9  1  0
 18 19  1  0
 20 19  1  6
 20 21  1  0
 21 16  1  0
 22 20  1  0
 22 24  1  0
 23 22  2  0
M  END
$$$$
