VHS.pdb
     RDKit          3D

 24 24  0  0  1  0  0  0  0  0999 V2000
   18.7106  -12.7722  -15.9067 C   0  0  0  0  0  0  0  0  0  0  0  0
   19.2487  -12.6161  -17.3140 C   0  0  2  0  0  0  0  0  0  0  0  0
   18.8989  -13.8837  -18.0669 C   0  0  0  0  0  0  0  0  0  0  0  0
   20.7534  -12.5162  -17.2870 C   0  0  2  0  0  0  0  0  0  0  0  0
   21.2629  -13.7826  -16.8107 N   0  0  0  0  0  0  0  0  0  0  0  0
   21.2486  -11.4200  -16.4468 C   0  0  0  0  0  0  0  0  0  0  0  0
   21.2830  -11.4893  -15.1861 O   0  0  0  0  0  0  0  0  0  0  0  0
   21.7104  -10.2289  -17.0640 N   0  0  0  0  0  0  0  0  0  0  0  0
   22.1785   -9.0534  -16.4283 C   0  0  1  0  0  0  0  0  0  0  0  0
   23.6385   -8.7024  -16.6863 C   0  0  0  0  0  0  0  0  0  0  0  0
   24.5548   -9.7791  -16.2376 C   0  0  0  0  0  0  0  0  0  0  0  0
   25.1730  -10.7355  -17.0576 C   0  0  0  0  0  0  0  0  0  0  0  0
   25.9261  -11.5386  -16.2976 N   0  0  0  0  0  0  0  0  0  0  0  0
   25.7961  -11.1117  -15.0297 C   0  0  0  0  0  0  0  0  0  0  0  0
   24.9636  -10.0469  -15.0095 N   0  0  0  0  0  0  0  0  0  0  0  0
   21.3681   -7.8488  -16.5909 C   0  0  0  0  0  0  0  0  0  0  0  0
   21.1252   -7.4333  -17.7656 O   0  0  0  0  0  0  0  0  0  0  0  0
   18.8048   -6.5807  -13.7976 O   0  0  0  0  0  0  0  0  0  0  0  0
   18.6385   -6.2017  -15.1166 C   0  0  0  0  0  0  0  0  0  0  0  0
   19.9655   -5.9124  -15.7876 C   0  0  2  0  0  0  0  0  0  0  0  0
   20.8116   -7.0791  -15.5396 N   0  0  0  0  0  0  0  0  0  0  0  0
   20.6106   -4.7455  -15.1485 C   0  0  0  0  0  0  0  0  0  0  0  0
   21.6936   -4.8878  -14.5340 O   0  0  0  0  0  0  0  0  0  0  0  0
   20.0745   -3.4668  -15.1892 O   0  0  0  0  0  0  0  0  0  0  0  0
  2  1  1  1
  2  3  1  0
  4  6  1  0
  4  2  1  0
  4  5  1  1
  6  7  2  0
  8  6  1  0
  8  9  1  0
  9 10  1  6
 10 11  1  0
 11 15  1  0
 11 12  2  0
 12 13  1  0
 14 13  1  0
 15 14  2  0
 16 17  2  0
 16  9  1  0
 18 19  1  0
 20 19  1  1
 20 21  1  0
 21 16  1  0
 22 20  1  0
 22 24  1  0
 23 22  2  0
M  END
$$$$
