VHS.pdb
     RDKit          3D

 24 24  0  0  1  0  0  0  0  0999 V2000
   17.7096  -14.2774    1.9252 C   0  0  0  0  0  0  0  0  0  0  0  0
   17.6010  -14.9076    3.2983 C   0  0  2  0  0  0  0  0  0  0  0  0
   18.4345  -14.0642    4.2417 C   0  0  0  0  0  0  0  0  0  0  0  0
   18.2058  -16.2892    3.2853 C   0  0  2  0  0  0  0  0  0  0  0  0
   17.4455  -17.0859    2.3485 N   0  0  0  0  0  0  0  0  0  0  0  0
   18.2196  -16.9305    4.6048 C   0  0  0  0  0  0  0  0  0  0  0  0
   18.1206  -16.2775    5.6814 O   0  0  0  0  0  0  0  0  0  0  0  0
   18.3491  -18.3410    4.6877 N   0  0  0  0  0  0  0  0  0  0  0  0
   18.3448  -19.1405    5.8565 C   0  0  1  0  0  0  0  0  0  0  0  0
   17.7063  -20.5162    5.7106 C   0  0  0  0  0  0  0  0  0  0  0  0
   16.3177  -20.4308    5.1962 C   0  0  0  0  0  0  0  0  0  0  0  0
   15.9137  -20.6263    3.8666 C   0  0  0  0  0  0  0  0  0  0  0  0
   14.5875  -20.4689    3.7873 N   0  0  0  0  0  0  0  0  0  0  0  0
   14.1533  -20.1814    5.0264 C   0  0  0  0  0  0  0  0  0  0  0  0
   15.2113  -20.1619    5.8675 N   0  0  0  0  0  0  0  0  0  0  0  0
   19.6161  -19.2831    6.5621 C   0  0  0  0  0  0  0  0  0  0  0  0
   20.6710  -19.4735    5.8820 O   0  0  0  0  0  0  0  0  0  0  0  0
   22.8260  -17.7663    9.3113 O   0  0  0  0  0  0  0  0  0  0  0  0
   21.6091  -17.8539    8.6612 C   0  0  0  0  0  0  0  0  0  0  0  0
   21.1129  -19.2835    8.5922 C   0  0  2  0  0  0  0  0  0  0  0  0
   19.7922  -19.2277    7.9668 N   0  0  0  0  0  0  0  0  0  0  0  0
   20.9411  -19.8248    9.9574 C   0  0  0  0  0  0  0  0  0  0  0  0
   19.8204  -19.7701   10.5159 O   0  0  0  0  0  0  0  0  0  0  0  0
   21.9744  -20.4059   10.6776 O   0  0  0  0  0  0  0  0  0  0  0  0
  2  1  1  6
  2  3  1  0
  4  6  1  0
  4  2  1  0
  4  5  1  6
  6  7  2  0
  8  6  1  0
  8  9  1  0
  9 10  1  6
 10 11  1  0
 11 15  1  0
 11 12  2  0
 12 13  1  0
 14 13  1  0
 15 14  2  0
 16 17  2  0
 16  9  1  0
 18 19  1  0
 20 19  1  1
 20 21  1  0
 21 16  1  0
 22 20  1  0
 22 24  1  0
 23 22  2  0
M  END
$$$$
