VHS.pdb
     RDKit          3D

 24 24  0  0  1  0  0  0  0  0999 V2000
   23.9483  -34.5882  -10.4578 C   0  0  0  0  0  0  0  0  0  0  0  0
   24.4851  -33.1903  -10.2296 C   0  0  2  0  0  0  0  0  0  0  0  0
   25.9968  -33.2806  -10.2810 C   0  0  0  0  0  0  0  0  0  0  0  0
   24.1153  -32.7106   -8.8484 C   0  0  2  0  0  0  0  0  0  0  0  0
   24.5777  -31.3462   -8.7255 N   0  0  0  0  0  0  0  0  0  0  0  0
   24.6787  -33.5374   -7.7752 C   0  0  0  0  0  0  0  0  0  0  0  0
   24.4071  -34.7641   -7.6456 O   0  0  0  0  0  0  0  0  0  0  0  0
   25.5658  -32.9463   -6.8390 N   0  0  0  0  0  0  0  0  0  0  0  0
   26.2111  -33.5747   -5.7463 C   0  0  1  0  0  0  0  0  0  0  0  0
   27.4641  -32.8770   -5.2320 C   0  0  0  0  0  0  0  0  0  0  0  0
   28.5449  -33.8421   -4.9146 C   0  0  0  0  0  0  0  0  0  0  0  0
   28.4680  -35.2386   -5.0290 C   0  0  0  0  0  0  0  0  0  0  0  0
   29.6369  -35.7708   -4.6548 N   0  0  0  0  0  0  0  0  0  0  0  0
   30.4393  -34.7488   -4.3108 C   0  0  0  0  0  0  0  0  0  0  0  0
   29.7648  -33.5887   -4.4733 N   0  0  0  0  0  0  0  0  0  0  0  0
   25.3728  -33.9390   -4.6067 C   0  0  0  0  0  0  0  0  0  0  0  0
   24.5379  -33.0886   -4.1694 O   0  0  0  0  0  0  0  0  0  0  0  0
   24.1788  -37.4430   -1.4697 O   0  0  0  0  0  0  0  0  0  0  0  0
   24.4649  -37.0347   -2.7590 C   0  0  0  0  0  0  0  0  0  0  0  0
   24.4254  -35.5260   -2.8903 C   0  0  2  0  0  0  0  0  0  0  0  0
   25.4002  -35.1803   -3.9242 N   0  0  0  0  0  0  0  0  0  0  0  0
   24.8680  -34.8975   -1.6272 C   0  0  0  0  0  0  0  0  0  0  0  0
   26.0452  -34.4826   -1.5136 O   0  0  0  0  0  0  0  0  0  0  0  0
   24.0357  -34.7348   -0.5296 O   0  0  0  0  0  0  0  0  0  0  0  0
  2  1  1  1
  2  3  1  0
  4  6  1  0
  4  2  1  0
  4  5  1  1
  6  7  2  0
  8  6  1  0
  8  9  1  0
  9 10  1  1
 10 11  1  0
 11 15  1  0
 11 12  2  0
 12 13  1  0
 14 13  1  0
 15 14  2  0
 16 17  2  0
 16  9  1  0
 18 19  1  0
 20 19  1  1
 20 21  1  0
 21 16  1  0
 22 20  1  0
 22 24  1  0
 23 22  2  0
M  END
$$$$
