VHS.pdb
     RDKit          3D

 24 24  0  0  1  0  0  0  0  0999 V2000
   14.7635   -9.0354   -8.3888 C   0  0  0  0  0  0  0  0  0  0  0  0
   13.6013   -8.9770   -9.3586 C   0  0  2  0  0  0  0  0  0  0  0  0
   12.6435  -10.0856   -8.9717 C   0  0  0  0  0  0  0  0  0  0  0  0
   14.0779   -9.2703  -10.7591 C   0  0  2  0  0  0  0  0  0  0  0  0
   14.6298  -10.6067  -10.7578 N   0  0  0  0  0  0  0  0  0  0  0  0
   15.0729   -8.3094  -11.2482 C   0  0  0  0  0  0  0  0  0  0  0  0
   14.8479   -7.0682  -11.3124 O   0  0  0  0  0  0  0  0  0  0  0  0
   16.3430   -8.7815  -11.6690 N   0  0  0  0  0  0  0  0  0  0  0  0
   17.3945   -8.0298  -12.2472 C   0  0  1  0  0  0  0  0  0  0  0  0
   18.5921   -8.8377  -12.7314 C   0  0  0  0  0  0  0  0  0  0  0  0
   19.7234   -7.9657  -13.1316 C   0  0  0  0  0  0  0  0  0  0  0  0
   19.7650   -6.5664  -13.0344 C   0  0  0  0  0  0  0  0  0  0  0  0
   20.9460   -6.1336  -13.4900 N   0  0  0  0  0  0  0  0  0  0  0  0
   21.6411   -7.2202  -13.8678 C   0  0  0  0  0  0  0  0  0  0  0  0
   20.8885   -8.3207  -13.6449 N   0  0  0  0  0  0  0  0  0  0  0  0
   17.0249   -7.0677  -13.2826 C   0  0  0  0  0  0  0  0  0  0  0  0
   16.4988   -7.4997  -14.3541 O   0  0  0  0  0  0  0  0  0  0  0  0
   15.4352   -2.7692  -14.4917 O   0  0  0  0  0  0  0  0  0  0  0  0
   15.8482   -3.7435  -13.6021 C   0  0  0  0  0  0  0  0  0  0  0  0
   16.7525   -4.7612  -14.2665 C   0  0  2  0  0  0  0  0  0  0  0  0
   17.1998   -5.6638  -13.2064 N   0  0  0  0  0  0  0  0  0  0  0  0
   17.9482   -4.0896  -14.8192 C   0  0  0  0  0  0  0  0  0  0  0  0
   18.9221   -3.8324  -14.0735 O   0  0  0  0  0  0  0  0  0  0  0  0
   18.0601   -3.7166  -16.1505 O   0  0  0  0  0  0  0  0  0  0  0  0
  2  1  1  1
  2  3  1  0
  4  6  1  0
  4  2  1  0
  4  5  1  1
  6  7  2  0
  8  6  1  0
  8  9  1  0
  9 10  1  6
 10 11  1  0
 11 15  1  0
 11 12  2  0
 12 13  1  0
 14 13  1  0
 15 14  2  0
 16 17  2  0
 16  9  1  0
 18 19  1  0
 20 19  1  1
 20 21  1  0
 21 16  1  0
 22 20  1  0
 22 24  1  0
 23 22  2  0
M  END
$$$$
