VHS.pdb
     RDKit          3D

 24 24  0  0  1  0  0  0  0  0999 V2000
   16.3574  -11.8924  -17.0417 C   0  0  0  0  0  0  0  0  0  0  0  0
   17.6231  -12.7163  -16.9246 C   0  0  2  0  0  0  0  0  0  0  0  0
   17.2971  -13.9099  -16.0498 C   0  0  0  0  0  0  0  0  0  0  0  0
   18.6942  -11.9255  -16.2162 C   0  0  2  0  0  0  0  0  0  0  0  0
   18.2899  -11.7895  -14.8347 N   0  0  0  0  0  0  0  0  0  0  0  0
   18.9306  -10.6046  -16.8095 C   0  0  0  0  0  0  0  0  0  0  0  0
   19.4168  -10.4536  -17.9654 O   0  0  0  0  0  0  0  0  0  0  0  0
   18.6038   -9.4423  -16.0643 N   0  0  0  0  0  0  0  0  0  0  0  0
   18.9329   -8.0997  -16.3715 C   0  0  1  0  0  0  0  0  0  0  0  0
   17.7702   -7.1154  -16.3491 C   0  0  0  0  0  0  0  0  0  0  0  0
   18.1775   -5.7661  -16.8115 C   0  0  0  0  0  0  0  0  0  0  0  0
   18.4171   -4.6489  -15.9968 C   0  0  0  0  0  0  0  0  0  0  0  0
   18.7649   -3.6136  -16.7694 N   0  0  0  0  0  0  0  0  0  0  0  0
   18.7493   -4.0517  -18.0400 C   0  0  0  0  0  0  0  0  0  0  0  0
   18.3923   -5.3554  -18.0493 N   0  0  0  0  0  0  0  0  0  0  0  0
   20.0595   -7.5153  -15.6480 C   0  0  0  0  0  0  0  0  0  0  0  0
   20.1534   -7.7222  -14.3991 O   0  0  0  0  0  0  0  0  0  0  0  0
   24.3845   -5.2580  -15.8633 O   0  0  0  0  0  0  0  0  0  0  0  0
   23.2314   -5.7209  -16.4693 C   0  0  0  0  0  0  0  0  0  0  0  0
   22.2632   -6.3027  -15.4598 C   0  0  2  0  0  0  0  0  0  0  0  0
   21.0845   -6.7203  -16.2179 N   0  0  0  0  0  0  0  0  0  0  0  0
   21.8370   -5.2554  -14.5071 C   0  0  0  0  0  0  0  0  0  0  0  0
   21.0793   -4.3330  -14.8890 O   0  0  0  0  0  0  0  0  0  0  0  0
   22.2362   -5.2314  -13.1790 O   0  0  0  0  0  0  0  0  0  0  0  0
  2  1  1  1
  2  3  1  0
  4  6  1  0
  4  2  1  0
  4  5  1  1
  6  7  2  0
  8  6  1  0
  8  9  1  0
  9 10  1  1
 10 11  1  0
 11 15  1  0
 11 12  2  0
 12 13  1  0
 14 13  1  0
 15 14  2  0
 16 17  2  0
 16  9  1  0
 18 19  1  0
 20 19  1  6
 20 21  1  0
 21 16  1  0
 22 20  1  0
 22 24  1  0
 23 22  2  0
M  END
$$$$
