VHS.pdb
     RDKit          3D

 24 24  0  0  1  0  0  0  0  0999 V2000
   19.2022  -14.8352  -17.9165 C   0  0  0  0  0  0  0  0  0  0  0  0
   19.4561  -13.7610  -16.8790 C   0  0  2  0  0  0  0  0  0  0  0  0
   18.5614  -14.0665  -15.6948 C   0  0  0  0  0  0  0  0  0  0  0  0
   19.0407  -12.4134  -17.4138 C   0  0  2  0  0  0  0  0  0  0  0  0
   19.8759  -12.1255  -18.5584 N   0  0  0  0  0  0  0  0  0  0  0  0
   19.1464  -11.3365  -16.4230 C   0  0  0  0  0  0  0  0  0  0  0  0
   18.4303  -11.2938  -15.3835 O   0  0  0  0  0  0  0  0  0  0  0  0
   20.0877  -10.2953  -16.6300 N   0  0  0  0  0  0  0  0  0  0  0  0
   20.2246   -9.0963  -15.8891 C   0  0  1  0  0  0  0  0  0  0  0  0
   21.6432   -8.5525  -15.7732 C   0  0  0  0  0  0  0  0  0  0  0  0
   21.7090   -7.3589  -14.8950 C   0  0  0  0  0  0  0  0  0  0  0  0
   21.5934   -7.3525  -13.4965 C   0  0  0  0  0  0  0  0  0  0  0  0
   21.7043   -6.0940  -13.0565 N   0  0  0  0  0  0  0  0  0  0  0  0
   21.8854   -5.3166  -14.1380 C   0  0  0  0  0  0  0  0  0  0  0  0
   21.8859   -6.0960  -15.2424 N   0  0  0  0  0  0  0  0  0  0  0  0
   19.3261   -7.9989  -16.2394 C   0  0  0  0  0  0  0  0  0  0  0  0
   19.1819   -7.6985  -17.4643 O   0  0  0  0  0  0  0  0  0  0  0  0
   15.5361   -5.2590  -15.5535 O   0  0  0  0  0  0  0  0  0  0  0  0
   16.3795   -6.3103  -15.2460 C   0  0  0  0  0  0  0  0  0  0  0  0
   17.7885   -6.0618  -15.7438 C   0  0  2  0  0  0  0  0  0  0  0  0
   18.5801   -7.2172  -15.3230 N   0  0  0  0  0  0  0  0  0  0  0  0
   18.3536   -4.8655  -15.0837 C   0  0  0  0  0  0  0  0  0  0  0  0
   18.9351   -4.9763  -13.9790 O   0  0  0  0  0  0  0  0  0  0  0  0
   18.2768   -3.5922  -15.6286 O   0  0  0  0  0  0  0  0  0  0  0  0
  2  1  1  6
  2  3  1  0
  4  6  1  0
  4  2  1  0
  4  5  1  6
  6  7  2  0
  8  6  1  0
  8  9  1  0
  9 10  1  6
 10 11  1  0
 11 15  1  0
 11 12  2  0
 12 13  1  0
 14 13  1  0
 15 14  2  0
 16 17  2  0
 16  9  1  0
 18 19  1  0
 20 19  1  1
 20 21  1  0
 21 16  1  0
 22 20  1  0
 22 24  1  0
 23 22  2  0
M  END
$$$$
