PVD.pdb
     RDKit          3D

 23 23  0  0  1  0  0  0  0  0999 V2000
    7.8869  -15.4341   17.5330 N   0  0  0  0  0  0  0  0  0  0  0  0
    7.4556  -15.1068   16.1678 C   0  0  0  0  0  0  0  0  0  0  0  0
    7.7201  -13.6077   16.0353 C   0  0  0  0  0  0  0  0  0  0  0  0
    8.5651  -13.2599   17.2421 C   0  0  0  0  0  0  0  0  0  0  0  0
    9.0712  -14.6251   17.6573 C   0  0  1  0  0  0  0  0  0  0  0  0
    9.5562  -14.5831   19.0788 C   0  0  0  0  0  0  0  0  0  0  0  0
   10.7624  -14.3061   19.2773 O   0  0  0  0  0  0  0  0  0  0  0  0
    7.0299  -13.0998   21.7982 C   0  0  0  0  0  0  0  0  0  0  0  0
    7.5278  -14.4648   22.2443 C   0  0  2  0  0  0  0  0  0  0  0  0
    7.8257  -14.4203   23.7141 C   0  0  0  0  0  0  0  0  0  0  0  0
    8.7785  -14.8273   21.4898 C   0  0  2  0  0  0  0  0  0  0  0  0
    8.6216  -14.8577   20.0805 N   0  0  0  0  0  0  0  0  0  0  0  0
    9.5750  -15.9070   22.0444 C   0  0  0  0  0  0  0  0  0  0  0  0
    9.2065  -17.0988   21.9284 O   0  0  0  0  0  0  0  0  0  0  0  0
   10.8093  -15.6507   22.7434 N   0  0  0  0  0  0  0  0  0  0  0  0
   11.6494  -16.7105   23.2172 C   0  0  1  0  0  0  0  0  0  0  0  0
   13.0955  -16.2921   23.2182 C   0  0  0  0  0  0  0  0  0  0  0  0
   14.0255  -17.3219   23.6938 C   0  0  0  0  0  0  0  0  0  0  0  0
   13.6403  -18.5140   23.8051 O   0  0  0  0  0  0  0  0  0  0  0  0
   11.2428  -17.2116   24.5494 C   0  0  0  0  0  0  0  0  0  0  0  0
   11.4248  -18.5266   24.9254 O   0  0  0  0  0  0  0  0  0  0  0  0
   15.3337  -17.0442   24.0345 O   0  0  0  0  0  0  0  0  0  0  0  0
   10.7176  -16.4179   25.3596 O   0  0  0  0  0  0  0  0  0  0  0  0
  1  2  1  0
  2  3  1  0
  4  3  1  0
  5  1  1  0
  5  4  1  0
  5  6  1  1
  6  7  2  0
  9  8  1  6
  9 11  1  0
 10  9  1  0
 11 12  1  6
 11 13  1  0
 12  6  1  0
 13 15  1  0
 14 13  2  0
 15 16  1  0
 16 20  1  0
 16 17  1  1
 17 18  1  0
 18 22  1  0
 18 19  2  0
 20 23  2  0
 20 21  1  0
M  END
$$$$
