PVD.pdb
     RDKit          3D

 23 23  0  0  1  0  0  0  0  0999 V2000
    7.6196  -16.1549   16.1555 N   0  0  0  0  0  0  0  0  0  0  0  0
    7.2507  -16.1080   14.7348 C   0  0  0  0  0  0  0  0  0  0  0  0
    7.6669  -14.7097   14.2805 C   0  0  0  0  0  0  0  0  0  0  0  0
    8.5182  -14.1768   15.4130 C   0  0  0  0  0  0  0  0  0  0  0  0
    8.8763  -15.4529   16.1450 C   0  0  1  0  0  0  0  0  0  0  0  0
    9.3345  -15.1339   17.5401 C   0  0  0  0  0  0  0  0  0  0  0  0
   10.5530  -14.8983   17.7159 O   0  0  0  0  0  0  0  0  0  0  0  0
    7.2451  -12.6673   19.6177 C   0  0  0  0  0  0  0  0  0  0  0  0
    7.3744  -13.9319   20.4508 C   0  0  2  0  0  0  0  0  0  0  0  0
    7.6711  -13.5530   21.8719 C   0  0  0  0  0  0  0  0  0  0  0  0
    8.4912  -14.7874   19.9162 C   0  0  2  0  0  0  0  0  0  0  0  0
    8.3631  -15.1238   18.5443 N   0  0  0  0  0  0  0  0  0  0  0  0
    8.9436  -15.8666   20.7755 C   0  0  0  0  0  0  0  0  0  0  0  0
    8.3616  -16.9760   20.7696 O   0  0  0  0  0  0  0  0  0  0  0  0
   10.0699  -15.7038   21.6603 N   0  0  0  0  0  0  0  0  0  0  0  0
   10.8491  -16.8180   22.1128 C   0  0  1  0  0  0  0  0  0  0  0  0
   11.3324  -17.6446   20.9513 C   0  0  0  0  0  0  0  0  0  0  0  0
   11.1083  -19.0869   21.0971 C   0  0  0  0  0  0  0  0  0  0  0  0
   10.5509  -19.5352   22.1316 O   0  0  0  0  0  0  0  0  0  0  0  0
   11.9783  -16.4127   22.9798 C   0  0  0  0  0  0  0  0  0  0  0  0
   12.5155  -17.2588   23.9281 O   0  0  0  0  0  0  0  0  0  0  0  0
   11.4869  -20.0007   20.1347 O   0  0  0  0  0  0  0  0  0  0  0  0
   12.4605  -15.2671   22.8486 O   0  0  0  0  0  0  0  0  0  0  0  0
  1  2  1  0
  2  3  1  0
  4  3  1  0
  5  1  1  0
  5  4  1  0
  5  6  1  1
  6  7  2  0
  9  8  1  6
  9 11  1  0
 10  9  1  0
 11 12  1  6
 11 13  1  0
 12  6  1  0
 13 15  1  0
 14 13  2  0
 15 16  1  0
 16 20  1  0
 16 17  1  6
 17 18  1  0
 18 22  1  0
 18 19  2  0
 20 23  2  0
 20 21  1  0
M  END
$$$$
