PVD.pdb
     RDKit          3D

 23 23  0  0  1  0  0  0  0  0999 V2000
    6.9073  -14.7013   21.0499 N   0  0  0  0  0  0  0  0  0  0  0  0
    6.5623  -14.4922   19.6378 C   0  0  0  0  0  0  0  0  0  0  0  0
    7.1152  -13.1052   19.3133 C   0  0  0  0  0  0  0  0  0  0  0  0
    7.9991  -12.7598   20.4926 C   0  0  0  0  0  0  0  0  0  0  0  0
    8.2251  -14.1247   21.1077 C   0  0  1  0  0  0  0  0  0  0  0  0
    8.6942  -13.9774   22.5276 C   0  0  0  0  0  0  0  0  0  0  0  0
    9.8968  -13.6799   22.7184 O   0  0  0  0  0  0  0  0  0  0  0  0
    6.6844  -11.9782   25.0130 C   0  0  0  0  0  0  0  0  0  0  0  0
    6.8450  -13.3443   25.6598 C   0  0  2  0  0  0  0  0  0  0  0  0
    7.2371  -13.1620   27.0965 C   0  0  0  0  0  0  0  0  0  0  0  0
    7.9114  -14.1292   24.9445 C   0  0  2  0  0  0  0  0  0  0  0  0
    7.7500  -14.1842   23.5365 N   0  0  0  0  0  0  0  0  0  0  0  0
    8.3203  -15.3754   25.5669 C   0  0  0  0  0  0  0  0  0  0  0  0
    7.4734  -16.2479   25.8689 O   0  0  0  0  0  0  0  0  0  0  0  0
    9.7043  -15.6536   25.8584 N   0  0  0  0  0  0  0  0  0  0  0  0
   10.1193  -16.8734   26.4855 C   0  0  1  0  0  0  0  0  0  0  0  0
   11.4972  -17.2723   26.0290 C   0  0  0  0  0  0  0  0  0  0  0  0
   11.6374  -17.4179   24.5761 C   0  0  0  0  0  0  0  0  0  0  0  0
   10.8006  -18.0981   23.9287 O   0  0  0  0  0  0  0  0  0  0  0  0
   10.0490  -16.8107   27.9628 C   0  0  0  0  0  0  0  0  0  0  0  0
    9.8197  -15.6288   28.6367 O   0  0  0  0  0  0  0  0  0  0  0  0
   12.6653  -16.8334   23.8645 O   0  0  0  0  0  0  0  0  0  0  0  0
   10.2024  -17.8623   28.6206 O   0  0  0  0  0  0  0  0  0  0  0  0
  1  2  1  0
  2  3  1  0
  4  3  1  0
  5  1  1  0
  5  4  1  0
  5  6  1  1
  6  7  2  0
  9  8  1  6
  9 11  1  0
 10  9  1  0
 11 12  1  6
 11 13  1  0
 12  6  1  0
 13 15  1  0
 14 13  2  0
 15 16  1  0
 16 20  1  0
 16 17  1  1
 17 18  1  0
 18 22  1  0
 18 19  2  0
 20 23  2  0
 20 21  1  0
M  END
$$$$
