PVD.pdb
     RDKit          3D

 23 23  0  0  1  0  0  0  0  0999 V2000
    6.9287  -14.3633   20.9215 N   0  0  0  0  0  0  0  0  0  0  0  0
    6.6545  -13.9830   19.5298 C   0  0  0  0  0  0  0  0  0  0  0  0
    7.4040  -12.6647   19.3418 C   0  0  0  0  0  0  0  0  0  0  0  0
    8.2952  -12.5539   20.5603 C   0  0  0  0  0  0  0  0  0  0  0  0
    8.3120  -13.9863   21.0507 C   0  0  1  0  0  0  0  0  0  0  0  0
    8.7585  -14.0334   22.4847 C   0  0  0  0  0  0  0  0  0  0  0  0
    9.9906  -14.0655   22.7129 O   0  0  0  0  0  0  0  0  0  0  0  0
    6.8633  -11.7557   24.9760 C   0  0  0  0  0  0  0  0  0  0  0  0
    6.8632  -13.1540   25.5718 C   0  0  2  0  0  0  0  0  0  0  0  0
    7.1956  -13.0634   27.0320 C   0  0  0  0  0  0  0  0  0  0  0  0
    7.8880  -14.0089   24.8761 C   0  0  2  0  0  0  0  0  0  0  0  0
    7.7617  -14.0383   23.4638 N   0  0  0  0  0  0  0  0  0  0  0  0
    8.1866  -15.2879   25.4948 C   0  0  0  0  0  0  0  0  0  0  0  0
    7.2820  -16.1337   25.6842 O   0  0  0  0  0  0  0  0  0  0  0  0
    9.5237  -15.6300   25.9107 N   0  0  0  0  0  0  0  0  0  0  0  0
    9.8787  -16.9588   26.3129 C   0  0  1  0  0  0  0  0  0  0  0  0
   11.0625  -17.4604   25.5301 C   0  0  0  0  0  0  0  0  0  0  0  0
   11.5377  -18.7888   25.9317 C   0  0  0  0  0  0  0  0  0  0  0  0
   10.7432  -19.6070   26.4620 O   0  0  0  0  0  0  0  0  0  0  0  0
   10.1213  -17.0709   27.7688 C   0  0  0  0  0  0  0  0  0  0  0  0
    9.9261  -18.2511   28.4563 O   0  0  0  0  0  0  0  0  0  0  0  0
   12.8437  -19.1980   25.7540 O   0  0  0  0  0  0  0  0  0  0  0  0
   10.5154  -16.0638   28.3955 O   0  0  0  0  0  0  0  0  0  0  0  0
  1  2  1  0
  2  3  1  0
  4  3  1  0
  5  1  1  0
  5  4  1  0
  5  6  1  1
  6  7  2  0
  9  8  1  6
  9 11  1  0
 10  9  1  0
 11 12  1  6
 11 13  1  0
 12  6  1  0
 13 15  1  0
 14 13  2  0
 15 16  1  0
 16 20  1  0
 16 17  1  6
 17 18  1  0
 18 22  1  0
 18 19  2  0
 20 23  2  0
 20 21  1  0
M  END
$$$$
