PVD.pdb
     RDKit          3D

 23 23  0  0  1  0  0  0  0  0999 V2000
    7.0849  -14.6730   21.1271 N   0  0  0  0  0  0  0  0  0  0  0  0
    6.8627  -14.4305   19.6958 C   0  0  0  0  0  0  0  0  0  0  0  0
    7.4291  -13.0318   19.4554 C   0  0  0  0  0  0  0  0  0  0  0  0
    8.2034  -12.7105   20.7158 C   0  0  0  0  0  0  0  0  0  0  0  0
    8.3873  -14.0890   21.3143 C   0  0  1  0  0  0  0  0  0  0  0  0
    8.7291  -13.9746   22.7731 C   0  0  0  0  0  0  0  0  0  0  0  0
    9.9403  -13.8936   23.0854 O   0  0  0  0  0  0  0  0  0  0  0  0
    6.8159  -11.6697   25.1962 C   0  0  0  0  0  0  0  0  0  0  0  0
    6.6797  -13.0799   25.7464 C   0  0  2  0  0  0  0  0  0  0  0  0
    6.9125  -13.0512   27.2283 C   0  0  0  0  0  0  0  0  0  0  0  0
    7.6918  -13.9848   25.0971 C   0  0  2  0  0  0  0  0  0  0  0  0
    7.6656  -13.9672   23.6792 N   0  0  0  0  0  0  0  0  0  0  0  0
    7.8585  -15.2976   25.6940 C   0  0  0  0  0  0  0  0  0  0  0  0
    7.0942  -16.2417   25.3872 O   0  0  0  0  0  0  0  0  0  0  0  0
    8.9008  -15.5623   26.6539 N   0  0  0  0  0  0  0  0  0  0  0  0
    9.4797  -16.8640   26.8089 C   0  0  1  0  0  0  0  0  0  0  0  0
   10.0016  -17.3813   25.4951 C   0  0  0  0  0  0  0  0  0  0  0  0
   10.7084  -18.6635   25.5847 C   0  0  0  0  0  0  0  0  0  0  0  0
   10.2708  -19.5715   26.3371 O   0  0  0  0  0  0  0  0  0  0  0  0
   10.5327  -16.9024   27.8485 C   0  0  0  0  0  0  0  0  0  0  0  0
   11.0365  -15.7547   28.4252 O   0  0  0  0  0  0  0  0  0  0  0  0
   11.8574  -18.9324   24.8692 O   0  0  0  0  0  0  0  0  0  0  0  0
   10.9798  -18.0103   28.2156 O   0  0  0  0  0  0  0  0  0  0  0  0
  1  2  1  0
  2  3  1  0
  4  3  1  0
  5  1  1  0
  5  4  1  0
  5  6  1  1
  6  7  2  0
  9  8  1  6
  9 11  1  0
 10  9  1  0
 11 12  1  6
 11 13  1  0
 12  6  1  0
 13 15  1  0
 14 13  2  0
 15 16  1  0
 16 20  1  0
 16 17  1  6
 17 18  1  0
 18 22  1  0
 18 19  2  0
 20 23  2  0
 20 21  1  0
M  END
$$$$
