PVD.pdb
     RDKit          3D

 23 23  0  0  1  0  0  0  0  0999 V2000
    6.9177  -14.3219   21.0304 N   0  0  0  0  0  0  0  0  0  0  0  0
    6.7450  -13.9791   19.6128 C   0  0  0  0  0  0  0  0  0  0  0  0
    7.5944  -12.7236   19.4197 C   0  0  0  0  0  0  0  0  0  0  0  0
    8.4254  -12.6258   20.6812 C   0  0  0  0  0  0  0  0  0  0  0  0
    8.3153  -14.0354   21.2227 C   0  0  1  0  0  0  0  0  0  0  0  0
    8.6807  -14.0561   22.6801 C   0  0  0  0  0  0  0  0  0  0  0  0
    9.8978  -14.0943   22.9774 O   0  0  0  0  0  0  0  0  0  0  0  0
    6.8794  -11.6384   24.9879 C   0  0  0  0  0  0  0  0  0  0  0  0
    6.7184  -13.0032   25.6372 C   0  0  2  0  0  0  0  0  0  0  0  0
    7.0035  -12.8829   27.1053 C   0  0  0  0  0  0  0  0  0  0  0  0
    7.6787  -13.9830   25.0185 C   0  0  2  0  0  0  0  0  0  0  0  0
    7.6309  -14.0315   23.6018 N   0  0  0  0  0  0  0  0  0  0  0  0
    7.7958  -15.2723   25.6755 C   0  0  0  0  0  0  0  0  0  0  0  0
    6.8900  -16.1309   25.5658 O   0  0  0  0  0  0  0  0  0  0  0  0
    8.9487  -15.6104   26.4719 N   0  0  0  0  0  0  0  0  0  0  0  0
    9.3499  -16.9684   26.6914 C   0  0  1  0  0  0  0  0  0  0  0  0
    9.5902  -17.6771   25.3852 C   0  0  0  0  0  0  0  0  0  0  0  0
   10.1623  -19.0210   25.5194 C   0  0  0  0  0  0  0  0  0  0  0  0
    9.8565  -19.7390   26.5058 O   0  0  0  0  0  0  0  0  0  0  0  0
   10.5292  -17.0809   27.5790 C   0  0  0  0  0  0  0  0  0  0  0  0
   10.6900  -18.1343   28.4554 O   0  0  0  0  0  0  0  0  0  0  0  0
   11.0408  -19.5523   24.5971 O   0  0  0  0  0  0  0  0  0  0  0  0
   11.4075  -16.1927   27.5330 O   0  0  0  0  0  0  0  0  0  0  0  0
  1  2  1  0
  2  3  1  0
  4  3  1  0
  5  1  1  0
  5  4  1  0
  5  6  1  1
  6  7  2  0
  9  8  1  6
  9 11  1  0
 10  9  1  0
 11 12  1  6
 11 13  1  0
 12  6  1  0
 13 15  1  0
 14 13  2  0
 15 16  1  0
 16 20  1  0
 16 17  1  6
 17 18  1  0
 18 22  1  0
 18 19  2  0
 20 23  2  0
 20 21  1  0
M  END
$$$$
