PVD.pdb
     RDKit          3D

 23 23  0  0  1  0  0  0  0  0999 V2000
    6.7360  -14.4195   21.3856 N   0  0  0  0  0  0  0  0  0  0  0  0
    6.2864  -14.1149   20.0211 C   0  0  0  0  0  0  0  0  0  0  0  0
    7.1497  -12.9290   19.5928 C   0  0  0  0  0  0  0  0  0  0  0  0
    8.2347  -12.8455   20.6450 C   0  0  0  0  0  0  0  0  0  0  0  0
    8.1572  -14.2244   21.2656 C   0  0  1  0  0  0  0  0  0  0  0  0
    8.8228  -14.2199   22.6127 C   0  0  0  0  0  0  0  0  0  0  0  0
   10.0758  -14.2216   22.6460 O   0  0  0  0  0  0  0  0  0  0  0  0
    6.0771  -13.6170   25.9634 C   0  0  0  0  0  0  0  0  0  0  0  0
    7.5334  -13.1842   25.9178 C   0  0  2  0  0  0  0  0  0  0  0  0
    7.6207  -11.8274   25.2835 C   0  0  0  0  0  0  0  0  0  0  0  0
    8.3366  -14.1680   25.1104 C   0  0  2  0  0  0  0  0  0  0  0  0
    7.9912  -14.2143   23.7355 N   0  0  0  0  0  0  0  0  0  0  0  0
    8.5825  -15.4589   25.7276 C   0  0  0  0  0  0  0  0  0  0  0  0
    7.6560  -16.2917   25.8598 O   0  0  0  0  0  0  0  0  0  0  0  0
    9.8907  -15.8279   26.2074 N   0  0  0  0  0  0  0  0  0  0  0  0
   10.1679  -17.1311   26.7349 C   0  0  1  0  0  0  0  0  0  0  0  0
   11.5896  -17.5361   26.4508 C   0  0  0  0  0  0  0  0  0  0  0  0
   11.9726  -17.4581   25.0370 C   0  0  0  0  0  0  0  0  0  0  0  0
   11.1211  -17.6913   24.1411 O   0  0  0  0  0  0  0  0  0  0  0  0
    9.8654  -17.2402   28.1798 C   0  0  0  0  0  0  0  0  0  0  0  0
    9.4925  -16.1480   28.9358 O   0  0  0  0  0  0  0  0  0  0  0  0
   13.2503  -17.1346   24.6280 O   0  0  0  0  0  0  0  0  0  0  0  0
    9.9506  -18.3580   28.7326 O   0  0  0  0  0  0  0  0  0  0  0  0
  1  2  1  0
  2  3  1  0
  4  3  1  0
  5  1  1  0
  5  4  1  0
  5  6  1  1
  6  7  2  0
  9  8  1  6
  9 11  1  0
 10  9  1  0
 11 12  1  6
 11 13  1  0
 12  6  1  0
 13 15  1  0
 14 13  2  0
 15 16  1  0
 16 20  1  0
 16 17  1  1
 17 18  1  0
 18 22  1  0
 18 19  2  0
 20 23  2  0
 20 21  1  0
M  END
$$$$
