PVD.pdb
     RDKit          3D

 23 23  0  0  1  0  0  0  0  0999 V2000
    6.8264  -14.4802   20.9870 N   0  0  0  0  0  0  0  0  0  0  0  0
    6.5168  -14.1413   19.5919 C   0  0  0  0  0  0  0  0  0  0  0  0
    7.1898  -12.7872   19.3719 C   0  0  0  0  0  0  0  0  0  0  0  0
    8.0862  -12.6047   20.5779 C   0  0  0  0  0  0  0  0  0  0  0  0
    8.1879  -14.0246   21.0935 C   0  0  1  0  0  0  0  0  0  0  0  0
    8.6514  -14.0205   22.5228 C   0  0  0  0  0  0  0  0  0  0  0  0
    9.8850  -13.9626   22.7374 O   0  0  0  0  0  0  0  0  0  0  0  0
    6.7771  -11.8532   25.1226 C   0  0  0  0  0  0  0  0  0  0  0  0
    6.7851  -13.2755   25.6586 C   0  0  2  0  0  0  0  0  0  0  0  0
    7.1222  -13.2454   27.1202 C   0  0  0  0  0  0  0  0  0  0  0  0
    7.8112  -14.0956   24.9240 C   0  0  2  0  0  0  0  0  0  0  0  0
    7.6676  -14.0822   23.5130 N   0  0  0  0  0  0  0  0  0  0  0  0
    8.1326  -15.3895   25.4983 C   0  0  0  0  0  0  0  0  0  0  0  0
    7.2391  -16.2486   25.6802 O   0  0  0  0  0  0  0  0  0  0  0  0
    9.4805  -15.7319   25.8777 N   0  0  0  0  0  0  0  0  0  0  0  0
    9.8316  -17.0427   26.3379 C   0  0  1  0  0  0  0  0  0  0  0  0
   10.9830  -17.6015   25.5453 C   0  0  0  0  0  0  0  0  0  0  0  0
   11.5009  -18.8797   26.0449 C   0  0  0  0  0  0  0  0  0  0  0  0
   10.7206  -19.8519   26.2126 O   0  0  0  0  0  0  0  0  0  0  0  0
   10.1200  -17.0820   27.7893 C   0  0  0  0  0  0  0  0  0  0  0  0
   10.0253  -18.2454   28.5248 O   0  0  0  0  0  0  0  0  0  0  0  0
   12.8326  -19.0765   26.3485 O   0  0  0  0  0  0  0  0  0  0  0  0
   10.4602  -16.0271   28.3669 O   0  0  0  0  0  0  0  0  0  0  0  0
  1  2  1  0
  2  3  1  0
  4  3  1  0
  5  1  1  0
  5  4  1  0
  5  6  1  1
  6  7  2  0
  9  8  1  6
  9 11  1  0
 10  9  1  0
 11 12  1  6
 11 13  1  0
 12  6  1  0
 13 15  1  0
 14 13  2  0
 15 16  1  0
 16 20  1  0
 16 17  1  6
 17 18  1  0
 18 22  1  0
 18 19  2  0
 20 23  2  0
 20 21  1  0
M  END
$$$$
