PVD.pdb
     RDKit          3D

 23 23  0  0  1  0  0  0  0  0999 V2000
    6.7624  -14.5528   21.0146 N   0  0  0  0  0  0  0  0  0  0  0  0
    6.2688  -14.2073   19.6752 C   0  0  0  0  0  0  0  0  0  0  0  0
    6.9857  -12.9024   19.3313 C   0  0  0  0  0  0  0  0  0  0  0  0
    8.0630  -12.7680   20.3862 C   0  0  0  0  0  0  0  0  0  0  0  0
    8.1505  -14.1867   20.9078 C   0  0  1  0  0  0  0  0  0  0  0  0
    8.8229  -14.1997   22.2516 C   0  0  0  0  0  0  0  0  0  0  0  0
   10.0522  -13.9585   22.2928 O   0  0  0  0  0  0  0  0  0  0  0  0
    6.0866  -14.4281   25.6764 C   0  0  0  0  0  0  0  0  0  0  0  0
    7.4502  -13.7578   25.6384 C   0  0  2  0  0  0  0  0  0  0  0  0
    7.2932  -12.3592   25.1186 C   0  0  0  0  0  0  0  0  0  0  0  0
    8.3761  -14.5275   24.7355 C   0  0  2  0  0  0  0  0  0  0  0  0
    8.0238  -14.4817   23.3625 N   0  0  0  0  0  0  0  0  0  0  0  0
    8.8124  -15.8259   25.2166 C   0  0  0  0  0  0  0  0  0  0  0  0
    8.0650  -16.8271   25.1232 O   0  0  0  0  0  0  0  0  0  0  0  0
   10.1108  -16.0107   25.8147 N   0  0  0  0  0  0  0  0  0  0  0  0
   10.5870  -17.3014   26.2156 C   0  0  1  0  0  0  0  0  0  0  0  0
   12.0604  -17.4414   25.9406 C   0  0  0  0  0  0  0  0  0  0  0  0
   12.4631  -17.0656   24.5811 C   0  0  0  0  0  0  0  0  0  0  0  0
   11.9402  -17.6366   23.5900 O   0  0  0  0  0  0  0  0  0  0  0  0
   10.2812  -17.6106   27.6306 C   0  0  0  0  0  0  0  0  0  0  0  0
   10.4405  -18.8764   28.1559 O   0  0  0  0  0  0  0  0  0  0  0  0
   13.4097  -16.0942   24.3263 O   0  0  0  0  0  0  0  0  0  0  0  0
    9.8653  -16.6953   28.3732 O   0  0  0  0  0  0  0  0  0  0  0  0
  1  2  1  0
  2  3  1  0
  4  3  1  0
  5  1  1  0
  5  4  1  0
  5  6  1  1
  6  7  2  0
  9  8  1  6
  9 11  1  0
 10  9  1  0
 11 12  1  6
 11 13  1  0
 12  6  1  0
 13 15  1  0
 14 13  2  0
 15 16  1  0
 16 20  1  0
 16 17  1  1
 17 18  1  0
 18 22  1  0
 18 19  2  0
 20 23  2  0
 20 21  1  0
M  END
$$$$
