PVD.pdb
     RDKit          3D

 23 23  0  0  1  0  0  0  0  0999 V2000
    6.8561  -14.4443   20.7658 N   0  0  0  0  0  0  0  0  0  0  0  0
    6.5864  -14.0458   19.3782 C   0  0  0  0  0  0  0  0  0  0  0  0
    7.3005  -12.7038   19.2231 C   0  0  0  0  0  0  0  0  0  0  0  0
    8.1749  -12.5909   20.4536 C   0  0  0  0  0  0  0  0  0  0  0  0
    8.2267  -14.0312   20.9177 C   0  0  1  0  0  0  0  0  0  0  0  0
    8.6586  -14.0926   22.3556 C   0  0  0  0  0  0  0  0  0  0  0  0
    9.8879  -14.1425   22.5954 O   0  0  0  0  0  0  0  0  0  0  0  0
    6.7364  -11.8305   24.8608 C   0  0  0  0  0  0  0  0  0  0  0  0
    6.7331  -13.2370   25.4369 C   0  0  2  0  0  0  0  0  0  0  0  0
    7.0522  -13.1663   26.9012 C   0  0  0  0  0  0  0  0  0  0  0  0
    7.7656  -14.0805   24.7388 C   0  0  2  0  0  0  0  0  0  0  0  0
    7.6525  -14.0900   23.3250 N   0  0  0  0  0  0  0  0  0  0  0  0
    8.0602  -15.3678   25.3419 C   0  0  0  0  0  0  0  0  0  0  0  0
    7.1530  -16.2131   25.5211 O   0  0  0  0  0  0  0  0  0  0  0  0
    9.3962  -15.7191   25.7536 N   0  0  0  0  0  0  0  0  0  0  0  0
    9.7555  -17.0606   26.1066 C   0  0  1  0  0  0  0  0  0  0  0  0
   10.9759  -17.5089   25.3478 C   0  0  0  0  0  0  0  0  0  0  0  0
   11.4854  -18.8271   25.7408 C   0  0  0  0  0  0  0  0  0  0  0  0
   12.0350  -18.9802   26.8617 O   0  0  0  0  0  0  0  0  0  0  0  0
    9.9438  -17.2384   27.5640 C   0  0  0  0  0  0  0  0  0  0  0  0
    9.7510  -18.4550   28.1856 O   0  0  0  0  0  0  0  0  0  0  0  0
   11.3914  -19.9358   24.9245 O   0  0  0  0  0  0  0  0  0  0  0  0
   10.2886  -16.2546   28.2536 O   0  0  0  0  0  0  0  0  0  0  0  0
  1  2  1  0
  2  3  1  0
  4  3  1  0
  5  1  1  0
  5  4  1  0
  5  6  1  1
  6  7  2  0
  9  8  1  6
  9 11  1  0
 10  9  1  0
 11 12  1  6
 11 13  1  0
 12  6  1  0
 13 15  1  0
 14 13  2  0
 15 16  1  0
 16 20  1  0
 16 17  1  6
 17 18  1  0
 18 22  1  0
 18 19  2  0
 20 23  2  0
 20 21  1  0
M  END
$$$$
