PVD.pdb
     RDKit          3D

 23 23  0  0  1  0  0  0  0  0999 V2000
    6.8097  -14.4898   21.1289 N   0  0  0  0  0  0  0  0  0  0  0  0
    6.4114  -14.2566   19.7347 C   0  0  0  0  0  0  0  0  0  0  0  0
    7.2492  -13.0562   19.2963 C   0  0  0  0  0  0  0  0  0  0  0  0
    8.2817  -12.8899   20.3907 C   0  0  0  0  0  0  0  0  0  0  0  0
    8.2268  -14.2452   21.0633 C   0  0  1  0  0  0  0  0  0  0  0  0
    8.8301  -14.1623   22.4369 C   0  0  0  0  0  0  0  0  0  0  0  0
   10.0793  -14.2045   22.5306 O   0  0  0  0  0  0  0  0  0  0  0  0
    7.9134  -12.6753   27.0150 C   0  0  0  0  0  0  0  0  0  0  0  0
    7.3495  -12.9490   25.6303 C   0  0  2  0  0  0  0  0  0  0  0  0
    5.9725  -13.5285   25.7689 C   0  0  0  0  0  0  0  0  0  0  0  0
    8.2328  -13.9239   24.8994 C   0  0  2  0  0  0  0  0  0  0  0  0
    7.9491  -14.0438   23.5149 N   0  0  0  0  0  0  0  0  0  0  0  0
    8.5139  -15.1744   25.5812 C   0  0  0  0  0  0  0  0  0  0  0  0
    7.6320  -16.0581   25.6864 O   0  0  0  0  0  0  0  0  0  0  0  0
    9.8071  -15.4443   26.1578 N   0  0  0  0  0  0  0  0  0  0  0  0
   10.0869  -16.6600   26.8629 C   0  0  1  0  0  0  0  0  0  0  0  0
   11.4285  -17.2161   26.4667 C   0  0  0  0  0  0  0  0  0  0  0  0
   11.5006  -17.7021   25.0846 C   0  0  0  0  0  0  0  0  0  0  0  0
   10.4510  -17.8079   24.3997 O   0  0  0  0  0  0  0  0  0  0  0  0
    9.9915  -16.5050   28.3319 C   0  0  0  0  0  0  0  0  0  0  0  0
    9.8578  -17.5876   29.1767 O   0  0  0  0  0  0  0  0  0  0  0  0
   12.6895  -18.0585   24.4813 O   0  0  0  0  0  0  0  0  0  0  0  0
   10.0331  -15.3563   28.8227 O   0  0  0  0  0  0  0  0  0  0  0  0
  1  2  1  0
  2  3  1  0
  4  3  1  0
  5  1  1  0
  5  4  1  0
  5  6  1  1
  6  7  2  0
  9  8  1  1
  9 11  1  0
 10  9  1  0
 11 12  1  6
 11 13  1  0
 12  6  1  0
 13 15  1  0
 14 13  2  0
 15 16  1  0
 16 20  1  0
 16 17  1  1
 17 18  1  0
 18 22  1  0
 18 19  2  0
 20 23  2  0
 20 21  1  0
M  END
$$$$
