GMP.pdb
     RDKit          3D

 20 20  0  0  1  0  0  0  0  0999 V2000
    4.4489  -20.3302   23.4572 N   0  0  0  0  0  0  0  0  0  0  0  0
    5.7614  -19.8411   23.8258 C   0  0  0  0  0  0  0  0  0  0  0  0
    5.7874  -18.3425   23.7273 C   0  0  0  0  0  0  0  0  0  0  0  0
    5.2879  -17.7565   22.7376 O   0  0  0  0  0  0  0  0  0  0  0  0
    6.8191  -11.3702   26.8195 C   0  0  0  0  0  0  0  0  0  0  0  0
    6.3135  -13.0748   26.7281 S   0  0  0  0  0  0  0  0  0  0  0  0
    7.4941  -14.1823   25.9568 C   0  0  0  0  0  0  0  0  0  0  0  0
    7.1272  -15.6320   25.9786 C   0  0  0  0  0  0  0  0  0  0  0  0
    6.8207  -16.2128   24.6278 C   0  0  2  0  0  0  0  0  0  0  0  0
    6.3786  -17.5957   24.7575 N   0  0  0  0  0  0  0  0  0  0  0  0
    7.9184  -16.0962   23.6761 C   0  0  0  0  0  0  0  0  0  0  0  0
    8.8131  -17.0426   23.7627 O   0  0  0  0  0  0  0  0  0  0  0  0
    8.1818  -15.1479   22.6844 N   0  0  0  0  0  0  0  0  0  0  0  0
    7.3095  -13.9611   22.4949 C   0  0  0  0  0  0  0  0  0  0  0  0
    7.4468  -13.8069   20.9737 C   0  0  0  0  0  0  0  0  0  0  0  0
    8.9570  -13.8206   20.8994 C   0  0  0  0  0  0  0  0  0  0  0  0
    9.2390  -15.1092   21.7232 C   0  0  1  0  0  0  0  0  0  0  0  0
   10.6005  -15.0052   22.2928 C   0  0  0  0  0  0  0  0  0  0  0  0
   11.6847  -15.1733   21.4497 O   0  0  0  0  0  0  0  0  0  0  0  0
   10.7884  -14.7721   23.5033 O   0  0  0  0  0  0  0  0  0  0  0  0
  2  1  1  0
  3  2  1  0
  3 10  1  0
  4  3  2  0
  5  6  1  0
  7  6  1  0
  8  7  1  0
  9 11  1  0
  9  8  1  1
  9 10  1  0
 11 13  1  0
 12 11  2  0
 13 14  1  0
 13 17  1  0
 14 15  1  0
 15 16  1  0
 17 16  1  0
 17 18  1  1
 18 19  1  0
 20 18  2  0
M  END
$$$$
