GMP.pdb
     RDKit          3D

 20 20  0  0  1  0  0  0  0  0999 V2000
    4.7552  -20.2020   23.5922 N   0  0  0  0  0  0  0  0  0  0  0  0
    5.5801  -19.5963   24.6171 C   0  0  0  0  0  0  0  0  0  0  0  0
    5.9321  -18.1920   24.2169 C   0  0  0  0  0  0  0  0  0  0  0  0
    5.7711  -17.8027   23.0358 O   0  0  0  0  0  0  0  0  0  0  0  0
    5.5326  -11.8407   27.0809 C   0  0  0  0  0  0  0  0  0  0  0  0
    7.1565  -12.5641   27.1783 S   0  0  0  0  0  0  0  0  0  0  0  0
    7.5407  -13.7562   25.8951 C   0  0  0  0  0  0  0  0  0  0  0  0
    6.9903  -15.1307   26.1068 C   0  0  0  0  0  0  0  0  0  0  0  0
    7.0157  -16.0021   24.8837 C   0  0  2  0  0  0  0  0  0  0  0  0
    6.4462  -17.3108   25.1801 N   0  0  0  0  0  0  0  0  0  0  0  0
    8.3356  -16.1252   24.2781 C   0  0  0  0  0  0  0  0  0  0  0  0
    9.1339  -16.9610   24.8846 O   0  0  0  0  0  0  0  0  0  0  0  0
    8.8980  -15.5052   23.1595 N   0  0  0  0  0  0  0  0  0  0  0  0
    8.1760  -14.4402   22.4180 C   0  0  0  0  0  0  0  0  0  0  0  0
    8.7017  -14.7365   21.0064 C   0  0  0  0  0  0  0  0  0  0  0  0
   10.1780  -14.7472   21.3330 C   0  0  0  0  0  0  0  0  0  0  0  0
   10.1639  -15.7330   22.5357 C   0  0  1  0  0  0  0  0  0  0  0  0
   11.3414  -15.4448   23.3838 C   0  0  0  0  0  0  0  0  0  0  0  0
   12.5918  -15.8270   22.9312 O   0  0  0  0  0  0  0  0  0  0  0  0
   11.2309  -14.8713   24.4855 O   0  0  0  0  0  0  0  0  0  0  0  0
  2  1  1  0
  3  2  1  0
  3 10  1  0
  4  3  2  0
  5  6  1  0
  7  6  1  0
  8  7  1  0
  9 11  1  0
  9  8  1  1
  9 10  1  0
 11 13  1  0
 12 11  2  0
 13 14  1  0
 13 17  1  0
 14 15  1  0
 15 16  1  0
 17 16  1  0
 17 18  1  1
 18 19  1  0
 20 18  2  0
M  END
$$$$
