GMP.pdb
     RDKit          3D

 20 20  0  0  1  0  0  0  0  0999 V2000
    5.1301  -20.2758   24.2794 N   0  0  0  0  0  0  0  0  0  0  0  0
    6.0086  -19.3922   25.0180 C   0  0  0  0  0  0  0  0  0  0  0  0
    5.9252  -18.0052   24.4474 C   0  0  0  0  0  0  0  0  0  0  0  0
    5.1368  -17.7452   23.5075 O   0  0  0  0  0  0  0  0  0  0  0  0
   10.3531  -13.9257   28.3486 C   0  0  0  0  0  0  0  0  0  0  0  0
    8.8220  -13.6610   27.4792 S   0  0  0  0  0  0  0  0  0  0  0  0
    8.4145  -14.9039   26.2526 C   0  0  0  0  0  0  0  0  0  0  0  0
    7.1648  -14.6519   25.4705 C   0  0  0  0  0  0  0  0  0  0  0  0
    6.8931  -15.6654   24.3957 C   0  0  2  0  0  0  0  0  0  0  0  0
    6.7410  -16.9937   24.9764 N   0  0  0  0  0  0  0  0  0  0  0  0
    7.8833  -15.6666   23.3264 C   0  0  0  0  0  0  0  0  0  0  0  0
    8.7845  -16.6058   23.4238 O   0  0  0  0  0  0  0  0  0  0  0  0
    8.0377  -14.8380   22.2121 N   0  0  0  0  0  0  0  0  0  0  0  0
    7.1824  -13.6407   22.0115 C   0  0  0  0  0  0  0  0  0  0  0  0
    7.1177  -13.6503   20.4777 C   0  0  0  0  0  0  0  0  0  0  0  0
    8.6030  -13.7365   20.2081 C   0  0  0  0  0  0  0  0  0  0  0  0
    8.9564  -14.9440   21.1221 C   0  0  1  0  0  0  0  0  0  0  0  0
   10.3847  -14.8404   21.4937 C   0  0  0  0  0  0  0  0  0  0  0  0
   11.3385  -15.2223   20.5671 O   0  0  0  0  0  0  0  0  0  0  0  0
   10.7419  -14.4209   22.6124 O   0  0  0  0  0  0  0  0  0  0  0  0
  2  1  1  0
  3  2  1  0
  3 10  1  0
  4  3  2  0
  5  6  1  0
  7  6  1  0
  8  7  1  0
  9 11  1  0
  9  8  1  1
  9 10  1  0
 11 13  1  0
 12 11  2  0
 13 14  1  0
 13 17  1  0
 14 15  1  0
 15 16  1  0
 17 16  1  0
 17 18  1  1
 18 19  1  0
 20 18  2  0
M  END
$$$$
