GMP.pdb
     RDKit          3D

 20 20  0  0  1  0  0  0  0  0999 V2000
    5.2241  -20.5806   24.2502 N   0  0  0  0  0  0  0  0  0  0  0  0
    6.1548  -19.7277   24.9604 C   0  0  0  0  0  0  0  0  0  0  0  0
    6.0631  -18.3265   24.4269 C   0  0  0  0  0  0  0  0  0  0  0  0
    5.5929  -18.1047   23.2859 O   0  0  0  0  0  0  0  0  0  0  0  0
    8.2134  -12.6816   28.0656 C   0  0  0  0  0  0  0  0  0  0  0  0
    6.9919  -12.3262   26.8201 S   0  0  0  0  0  0  0  0  0  0  0  0
    6.9090  -13.5054   25.4719 C   0  0  0  0  0  0  0  0  0  0  0  0
    6.8573  -14.9443   25.8766 C   0  0  0  0  0  0  0  0  0  0  0  0
    6.7447  -15.9060   24.7284 C   0  0  2  0  0  0  0  0  0  0  0  0
    6.5101  -17.2584   25.2192 N   0  0  0  0  0  0  0  0  0  0  0  0
    7.8797  -15.8651   23.8150 C   0  0  0  0  0  0  0  0  0  0  0  0
    8.8607  -16.6647   24.1340 O   0  0  0  0  0  0  0  0  0  0  0  0
    8.1027  -15.1193   22.6548 N   0  0  0  0  0  0  0  0  0  0  0  0
    7.1646  -14.0503   22.2277 C   0  0  0  0  0  0  0  0  0  0  0  0
    7.3180  -14.1944   20.7070 C   0  0  0  0  0  0  0  0  0  0  0  0
    8.8273  -14.1294   20.6438 C   0  0  0  0  0  0  0  0  0  0  0  0
    9.1718  -15.2078   21.7101 C   0  0  1  0  0  0  0  0  0  0  0  0
   10.5149  -14.9085   22.2536 C   0  0  0  0  0  0  0  0  0  0  0  0
   11.6208  -15.1681   21.4637 O   0  0  0  0  0  0  0  0  0  0  0  0
   10.6684  -14.4326   23.3959 O   0  0  0  0  0  0  0  0  0  0  0  0
  2  1  1  0
  3  2  1  0
  3 10  1  0
  4  3  2  0
  5  6  1  0
  7  6  1  0
  8  7  1  0
  9 11  1  0
  9  8  1  1
  9 10  1  0
 11 13  1  0
 12 11  2  0
 13 14  1  0
 13 17  1  0
 14 15  1  0
 15 16  1  0
 17 16  1  0
 17 18  1  1
 18 19  1  0
 20 18  2  0
M  END
$$$$
