GMP.pdb
     RDKit          3D

 20 20  0  0  1  0  0  0  0  0999 V2000
    4.8882  -20.5568   23.4324 N   0  0  0  0  0  0  0  0  0  0  0  0
    5.7480  -19.8717   24.3752 C   0  0  0  0  0  0  0  0  0  0  0  0
    5.8106  -18.4107   24.0317 C   0  0  0  0  0  0  0  0  0  0  0  0
    5.2436  -17.9691   23.0042 O   0  0  0  0  0  0  0  0  0  0  0  0
    6.4818  -11.3030   27.0049 C   0  0  0  0  0  0  0  0  0  0  0  0
    7.3141  -12.8758   27.0638 S   0  0  0  0  0  0  0  0  0  0  0  0
    7.1659  -13.8752   25.5825 C   0  0  0  0  0  0  0  0  0  0  0  0
    6.9777  -15.3414   25.8105 C   0  0  0  0  0  0  0  0  0  0  0  0
    6.8210  -16.1476   24.5529 C   0  0  2  0  0  0  0  0  0  0  0  0
    6.5127  -17.5357   24.8742 N   0  0  0  0  0  0  0  0  0  0  0  0
    7.9618  -16.0552   23.6506 C   0  0  0  0  0  0  0  0  0  0  0  0
    8.9178  -16.9090   23.8969 O   0  0  0  0  0  0  0  0  0  0  0  0
    8.2124  -15.2120   22.5650 N   0  0  0  0  0  0  0  0  0  0  0  0
    7.3330  -14.0542   22.2631 C   0  0  0  0  0  0  0  0  0  0  0  0
    7.4570  -14.0554   20.7329 C   0  0  0  0  0  0  0  0  0  0  0  0
    8.9666  -14.0707   20.6473 C   0  0  0  0  0  0  0  0  0  0  0  0
    9.2616  -15.2673   21.5958 C   0  0  1  0  0  0  0  0  0  0  0  0
   10.6272  -15.1004   22.1400 C   0  0  0  0  0  0  0  0  0  0  0  0
   11.7052  -15.3520   21.3099 O   0  0  0  0  0  0  0  0  0  0  0  0
   10.8238  -14.7420   23.3181 O   0  0  0  0  0  0  0  0  0  0  0  0
  2  1  1  0
  3  2  1  0
  3 10  1  0
  4  3  2  0
  5  6  1  0
  7  6  1  0
  8  7  1  0
  9 11  1  0
  9  8  1  1
  9 10  1  0
 11 13  1  0
 12 11  2  0
 13 14  1  0
 13 17  1  0
 14 15  1  0
 15 16  1  0
 17 16  1  0
 17 18  1  1
 18 19  1  0
 20 18  2  0
M  END
$$$$
