GMP.pdb
     RDKit          3D

 20 20  0  0  1  0  0  0  0  0999 V2000
    4.6284  -20.0426   23.7654 N   0  0  0  0  0  0  0  0  0  0  0  0
    5.4968  -19.4156   24.7404 C   0  0  0  0  0  0  0  0  0  0  0  0
    5.9389  -18.0729   24.2328 C   0  0  0  0  0  0  0  0  0  0  0  0
    5.6342  -17.6924   23.0775 O   0  0  0  0  0  0  0  0  0  0  0  0
    6.6623  -11.3455   26.8628 C   0  0  0  0  0  0  0  0  0  0  0  0
    6.6736  -13.0205   27.4661 S   0  0  0  0  0  0  0  0  0  0  0  0
    6.3642  -14.2809   26.2288 C   0  0  0  0  0  0  0  0  0  0  0  0
    7.5531  -15.0941   25.8260 C   0  0  0  0  0  0  0  0  0  0  0  0
    7.3182  -15.9886   24.6426 C   0  0  2  0  0  0  0  0  0  0  0  0
    6.7010  -17.2397   25.0655 N   0  0  0  0  0  0  0  0  0  0  0  0
    8.5134  -16.2325   23.8449 C   0  0  0  0  0  0  0  0  0  0  0  0
    9.2162  -17.2649   24.2240 O   0  0  0  0  0  0  0  0  0  0  0  0
    9.0401  -15.5546   22.7425 N   0  0  0  0  0  0  0  0  0  0  0  0
    8.3548  -14.3738   22.1584 C   0  0  0  0  0  0  0  0  0  0  0  0
    8.7479  -14.5753   20.6881 C   0  0  0  0  0  0  0  0  0  0  0  0
   10.2386  -14.7273   20.8911 C   0  0  0  0  0  0  0  0  0  0  0  0
   10.2330  -15.8174   22.0002 C   0  0  1  0  0  0  0  0  0  0  0  0
   11.4900  -15.6990   22.7714 C   0  0  0  0  0  0  0  0  0  0  0  0
   12.6673  -16.1324   22.1876 O   0  0  0  0  0  0  0  0  0  0  0  0
   11.5096  -15.2222   23.9234 O   0  0  0  0  0  0  0  0  0  0  0  0
  2  1  1  0
  3  2  1  0
  3 10  1  0
  4  3  2  0
  5  6  1  0
  7  6  1  0
  8  7  1  0
  9 11  1  0
  9  8  1  1
  9 10  1  0
 11 13  1  0
 12 11  2  0
 13 14  1  0
 13 17  1  0
 14 15  1  0
 15 16  1  0
 17 16  1  0
 17 18  1  1
 18 19  1  0
 20 18  2  0
M  END
$$$$
