GMP.pdb
     RDKit          3D

 20 20  0  0  1  0  0  0  0  0999 V2000
    6.3192  -16.8774   19.8497 N   0  0  0  0  0  0  0  0  0  0  0  0
    5.8909  -16.9891   21.2288 C   0  0  0  0  0  0  0  0  0  0  0  0
    6.8498  -16.2483   22.1166 C   0  0  0  0  0  0  0  0  0  0  0  0
    7.9479  -15.8374   21.6720 O   0  0  0  0  0  0  0  0  0  0  0  0
    6.0276  -11.3045   26.5371 C   0  0  0  0  0  0  0  0  0  0  0  0
    7.5527  -12.2153   26.4166 S   0  0  0  0  0  0  0  0  0  0  0  0
    7.3907  -13.9971   26.5367 C   0  0  0  0  0  0  0  0  0  0  0  0
    6.5764  -14.6440   25.4619 C   0  0  0  0  0  0  0  0  0  0  0  0
    7.3840  -15.3905   24.4389 C   0  0  2  0  0  0  0  0  0  0  0  0
    6.5070  -16.0167   23.4572 N   0  0  0  0  0  0  0  0  0  0  0  0
    8.3092  -16.3586   25.0141 C   0  0  0  0  0  0  0  0  0  0  0  0
    7.7361  -17.3874   25.5769 O   0  0  0  0  0  0  0  0  0  0  0  0
    9.7052  -16.3798   25.0686 N   0  0  0  0  0  0  0  0  0  0  0  0
   10.5220  -15.3069   24.4465 C   0  0  0  0  0  0  0  0  0  0  0  0
   11.7370  -16.1469   24.0281 C   0  0  0  0  0  0  0  0  0  0  0  0
   12.0033  -16.8054   25.3628 C   0  0  0  0  0  0  0  0  0  0  0  0
   10.5758  -17.3408   25.6700 C   0  0  1  0  0  0  0  0  0  0  0  0
   10.4394  -17.4789   27.1367 C   0  0  0  0  0  0  0  0  0  0  0  0
   11.0915  -18.5244   27.7660 O   0  0  0  0  0  0  0  0  0  0  0  0
    9.7562  -16.6814   27.8092 O   0  0  0  0  0  0  0  0  0  0  0  0
  2  1  1  0
  3  2  1  0
  3 10  1  0
  4  3  2  0
  5  6  1  0
  7  6  1  0
  8  7  1  0
  9 11  1  0
  9  8  1  1
  9 10  1  0
 11 13  1  0
 12 11  2  0
 13 14  1  0
 13 17  1  0
 14 15  1  0
 15 16  1  0
 17 16  1  0
 17 18  1  1
 18 19  1  0
 20 18  2  0
M  END
$$$$
