GMP.pdb
     RDKit          3D

 20 20  0  0  1  0  0  0  0  0999 V2000
    4.9424  -20.3066   23.3584 N   0  0  0  0  0  0  0  0  0  0  0  0
    5.7864  -19.6125   24.3089 C   0  0  0  0  0  0  0  0  0  0  0  0
    5.8648  -18.1571   23.9455 C   0  0  0  0  0  0  0  0  0  0  0  0
    5.4125  -17.7446   22.8512 O   0  0  0  0  0  0  0  0  0  0  0  0
    7.5725  -11.7371   27.8811 C   0  0  0  0  0  0  0  0  0  0  0  0
    6.4551  -12.5802   26.7808 S   0  0  0  0  0  0  0  0  0  0  0  0
    7.2363  -13.6256   25.5511 C   0  0  0  0  0  0  0  0  0  0  0  0
    7.0874  -15.0978   25.7685 C   0  0  0  0  0  0  0  0  0  0  0  0
    6.8260  -15.8845   24.5160 C   0  0  2  0  0  0  0  0  0  0  0  0
    6.4516  -17.2544   24.8450 N   0  0  0  0  0  0  0  0  0  0  0  0
    7.9277  -15.8527   23.5624 C   0  0  0  0  0  0  0  0  0  0  0  0
    8.8268  -16.7816   23.7422 O   0  0  0  0  0  0  0  0  0  0  0  0
    8.1910  -15.0013   22.4863 N   0  0  0  0  0  0  0  0  0  0  0  0
    7.3489  -13.8082   22.2172 C   0  0  0  0  0  0  0  0  0  0  0  0
    7.4484  -13.7888   20.6853 C   0  0  0  0  0  0  0  0  0  0  0  0
    8.9549  -13.8563   20.5746 C   0  0  0  0  0  0  0  0  0  0  0  0
    9.2220  -15.0780   21.4991 C   0  0  1  0  0  0  0  0  0  0  0  0
   10.6012  -14.9686   22.0233 C   0  0  0  0  0  0  0  0  0  0  0  0
   11.6526  -15.3253   21.1976 O   0  0  0  0  0  0  0  0  0  0  0  0
   10.8323  -14.5664   23.1807 O   0  0  0  0  0  0  0  0  0  0  0  0
  2  1  1  0
  3  2  1  0
  3 10  1  0
  4  3  2  0
  5  6  1  0
  7  6  1  0
  8  7  1  0
  9 11  1  0
  9  8  1  1
  9 10  1  0
 11 13  1  0
 12 11  2  0
 13 14  1  0
 13 17  1  0
 14 15  1  0
 15 16  1  0
 17 16  1  0
 17 18  1  1
 18 19  1  0
 20 18  2  0
M  END
$$$$
