GMP.pdb
     RDKit          3D

 20 20  0  0  1  0  0  0  0  0999 V2000
    6.6898  -17.3463   19.7242 N   0  0  0  0  0  0  0  0  0  0  0  0
    6.1885  -17.4715   21.0773 C   0  0  0  0  0  0  0  0  0  0  0  0
    7.0372  -16.6526   22.0076 C   0  0  0  0  0  0  0  0  0  0  0  0
    8.1405  -16.1916   21.6301 O   0  0  0  0  0  0  0  0  0  0  0  0
    6.8781  -11.3802   27.1351 C   0  0  0  0  0  0  0  0  0  0  0  0
    7.5837  -12.5924   26.0385 S   0  0  0  0  0  0  0  0  0  0  0  0
    7.1579  -14.2951   26.4054 C   0  0  0  0  0  0  0  0  0  0  0  0
    6.4491  -15.0317   25.3136 C   0  0  0  0  0  0  0  0  0  0  0  0
    7.3611  -15.7241   24.3416 C   0  0  2  0  0  0  0  0  0  0  0  0
    6.5847  -16.4043   23.3122 N   0  0  0  0  0  0  0  0  0  0  0  0
    8.3112  -16.6315   24.9725 C   0  0  0  0  0  0  0  0  0  0  0  0
    7.7753  -17.7040   25.4882 O   0  0  0  0  0  0  0  0  0  0  0  0
    9.6983  -16.5556   25.1221 N   0  0  0  0  0  0  0  0  0  0  0  0
   10.4825  -15.4426   24.5293 C   0  0  0  0  0  0  0  0  0  0  0  0
   11.7773  -16.2058   24.2161 C   0  0  0  0  0  0  0  0  0  0  0  0
   11.9937  -16.8161   25.5825 C   0  0  0  0  0  0  0  0  0  0  0  0
   10.5875  -17.4415   25.8058 C   0  0  1  0  0  0  0  0  0  0  0  0
   10.3591  -17.5576   27.2630 C   0  0  0  0  0  0  0  0  0  0  0  0
   10.8658  -18.6612   27.9260 O   0  0  0  0  0  0  0  0  0  0  0  0
    9.7262  -16.6909   27.8981 O   0  0  0  0  0  0  0  0  0  0  0  0
  2  1  1  0
  3  2  1  0
  3 10  1  0
  4  3  2  0
  5  6  1  0
  7  6  1  0
  8  7  1  0
  9 11  1  0
  9  8  1  1
  9 10  1  0
 11 13  1  0
 12 11  2  0
 13 14  1  0
 13 17  1  0
 14 15  1  0
 15 16  1  0
 17 16  1  0
 17 18  1  1
 18 19  1  0
 20 18  2  0
M  END
$$$$
