GMP.pdb
     RDKit          3D

 20 20  0  0  1  0  0  0  0  0999 V2000
    4.5714  -20.4626   23.3933 N   0  0  0  0  0  0  0  0  0  0  0  0
    5.6935  -19.8872   24.1058 C   0  0  0  0  0  0  0  0  0  0  0  0
    5.7454  -18.4072   23.8546 C   0  0  0  0  0  0  0  0  0  0  0  0
    5.3206  -17.9246   22.7780 O   0  0  0  0  0  0  0  0  0  0  0  0
    7.1926  -11.2999   27.2071 C   0  0  0  0  0  0  0  0  0  0  0  0
    7.0662  -13.0690   27.3631 S   0  0  0  0  0  0  0  0  0  0  0  0
    6.9604  -13.9674   25.8149 C   0  0  0  0  0  0  0  0  0  0  0  0
    6.7152  -15.4376   25.9385 C   0  0  0  0  0  0  0  0  0  0  0  0
    6.6296  -16.1628   24.6259 C   0  0  2  0  0  0  0  0  0  0  0  0
    6.2760  -17.5607   24.8397 N   0  0  0  0  0  0  0  0  0  0  0  0
    7.8300  -16.0406   23.8085 C   0  0  0  0  0  0  0  0  0  0  0  0
    8.7794  -16.8837   24.1111 O   0  0  0  0  0  0  0  0  0  0  0  0
    8.1440  -15.1784   22.7549 N   0  0  0  0  0  0  0  0  0  0  0  0
    7.2366  -14.0702   22.3630 C   0  0  0  0  0  0  0  0  0  0  0  0
    7.5188  -14.0555   20.8540 C   0  0  0  0  0  0  0  0  0  0  0  0
    9.0275  -13.9853   20.9260 C   0  0  0  0  0  0  0  0  0  0  0  0
    9.2896  -15.1689   21.9001 C   0  0  1  0  0  0  0  0  0  0  0  0
   10.5796  -14.9286   22.5834 C   0  0  0  0  0  0  0  0  0  0  0  0
   11.7500  -15.0968   21.8649 O   0  0  0  0  0  0  0  0  0  0  0  0
   10.6327  -14.5817   23.7800 O   0  0  0  0  0  0  0  0  0  0  0  0
  2  1  1  0
  3  2  1  0
  3 10  1  0
  4  3  2  0
  5  6  1  0
  7  6  1  0
  8  7  1  0
  9 11  1  0
  9  8  1  1
  9 10  1  0
 11 13  1  0
 12 11  2  0
 13 14  1  0
 13 17  1  0
 14 15  1  0
 15 16  1  0
 17 16  1  0
 17 18  1  1
 18 19  1  0
 20 18  2  0
M  END
$$$$
