GMP.pdb
     RDKit          3D

 20 20  0  0  1  0  0  0  0  0999 V2000
    5.1398  -20.2211   24.2533 N   0  0  0  0  0  0  0  0  0  0  0  0
    6.1211  -19.4187   24.9540 C   0  0  0  0  0  0  0  0  0  0  0  0
    6.0847  -18.0098   24.4345 C   0  0  0  0  0  0  0  0  0  0  0  0
    5.4013  -17.7164   23.4251 O   0  0  0  0  0  0  0  0  0  0  0  0
    7.6113  -11.5280   26.5828 C   0  0  0  0  0  0  0  0  0  0  0  0
    6.5877  -12.7546   27.3687 S   0  0  0  0  0  0  0  0  0  0  0  0
    6.3054  -14.2432   26.4098 C   0  0  0  0  0  0  0  0  0  0  0  0
    7.4789  -14.7359   25.6242 C   0  0  0  0  0  0  0  0  0  0  0  0
    7.1285  -15.7042   24.5308 C   0  0  2  0  0  0  0  0  0  0  0  0
    6.8258  -17.0155   25.0909 N   0  0  0  0  0  0  0  0  0  0  0  0
    8.1379  -15.7973   23.4836 C   0  0  0  0  0  0  0  0  0  0  0  0
    8.9919  -16.7719   23.6397 O   0  0  0  0  0  0  0  0  0  0  0  0
    8.3523  -15.0256   22.3388 N   0  0  0  0  0  0  0  0  0  0  0  0
    7.4613  -13.8897   21.9911 C   0  0  0  0  0  0  0  0  0  0  0  0
    7.5369  -13.9892   20.4610 C   0  0  0  0  0  0  0  0  0  0  0  0
    9.0431  -14.0098   20.3288 C   0  0  0  0  0  0  0  0  0  0  0  0
    9.3704  -15.1430   21.3423 C   0  0  1  0  0  0  0  0  0  0  0  0
   10.7522  -14.9413   21.8312 C   0  0  0  0  0  0  0  0  0  0  0  0
   11.8042  -15.2697   20.9946 O   0  0  0  0  0  0  0  0  0  0  0  0
   10.9850  -14.4869   22.9689 O   0  0  0  0  0  0  0  0  0  0  0  0
  2  1  1  0
  3  2  1  0
  3 10  1  0
  4  3  2  0
  5  6  1  0
  7  6  1  0
  8  7  1  0
  9 11  1  0
  9  8  1  1
  9 10  1  0
 11 13  1  0
 12 11  2  0
 13 14  1  0
 13 17  1  0
 14 15  1  0
 15 16  1  0
 17 16  1  0
 17 18  1  1
 18 19  1  0
 20 18  2  0
M  END
$$$$
