GMP.pdb
     RDKit          3D

 20 20  0  0  1  0  0  0  0  0999 V2000
    5.5818  -19.9903   24.3462 N   0  0  0  0  0  0  0  0  0  0  0  0
    6.5065  -19.0807   24.9907 C   0  0  0  0  0  0  0  0  0  0  0  0
    6.4314  -17.7334   24.3310 C   0  0  0  0  0  0  0  0  0  0  0  0
    5.6340  -17.5261   23.3858 O   0  0  0  0  0  0  0  0  0  0  0  0
    5.8140  -11.6241   27.8473 C   0  0  0  0  0  0  0  0  0  0  0  0
    7.1669  -12.4119   26.9995 S   0  0  0  0  0  0  0  0  0  0  0  0
    6.6979  -13.6922   25.8350 C   0  0  0  0  0  0  0  0  0  0  0  0
    7.8297  -14.3594   25.1204 C   0  0  0  0  0  0  0  0  0  0  0  0
    7.4047  -15.4040   24.1283 C   0  0  2  0  0  0  0  0  0  0  0  0
    7.2654  -16.6993   24.7823 N   0  0  0  0  0  0  0  0  0  0  0  0
    8.2728  -15.4924   22.9610 C   0  0  0  0  0  0  0  0  0  0  0  0
    9.1111  -16.4926   22.9838 O   0  0  0  0  0  0  0  0  0  0  0  0
    8.3654  -14.6934   21.8185 N   0  0  0  0  0  0  0  0  0  0  0  0
    7.4814  -13.5166   21.6214 C   0  0  0  0  0  0  0  0  0  0  0  0
    7.3521  -13.5711   20.0926 C   0  0  0  0  0  0  0  0  0  0  0  0
    8.8260  -13.6405   19.7623 C   0  0  0  0  0  0  0  0  0  0  0  0
    9.2389  -14.8154   20.6937 C   0  0  1  0  0  0  0  0  0  0  0  0
   10.6796  -14.6777   21.0009 C   0  0  0  0  0  0  0  0  0  0  0  0
   11.6001  -15.1253   20.0699 O   0  0  0  0  0  0  0  0  0  0  0  0
   11.0763  -14.1725   22.0697 O   0  0  0  0  0  0  0  0  0  0  0  0
  2  1  1  0
  3  2  1  0
  3 10  1  0
  4  3  2  0
  5  6  1  0
  7  6  1  0
  8  7  1  0
  9 11  1  0
  9  8  1  1
  9 10  1  0
 11 13  1  0
 12 11  2  0
 13 14  1  0
 13 17  1  0
 14 15  1  0
 15 16  1  0
 17 16  1  0
 17 18  1  1
 18 19  1  0
 20 18  2  0
M  END
$$$$
