GMP.pdb
     RDKit          3D

 20 20  0  0  1  0  0  0  0  0999 V2000
    4.9968  -20.3591   23.9479 N   0  0  0  0  0  0  0  0  0  0  0  0
    6.0219  -19.6400   24.6758 C   0  0  0  0  0  0  0  0  0  0  0  0
    5.9682  -18.1827   24.3158 C   0  0  0  0  0  0  0  0  0  0  0  0
    5.4047  -17.8033   23.2618 O   0  0  0  0  0  0  0  0  0  0  0  0
    5.6604  -11.8722   27.3124 C   0  0  0  0  0  0  0  0  0  0  0  0
    7.3188  -12.4635   27.0480 S   0  0  0  0  0  0  0  0  0  0  0  0
    7.5128  -13.6124   25.6851 C   0  0  0  0  0  0  0  0  0  0  0  0
    7.1772  -15.0375   25.9908 C   0  0  0  0  0  0  0  0  0  0  0  0
    6.9447  -15.8920   24.7777 C   0  0  2  0  0  0  0  0  0  0  0  0
    6.5569  -17.2405   25.1727 N   0  0  0  0  0  0  0  0  0  0  0  0
    8.0703  -15.9159   23.8522 C   0  0  0  0  0  0  0  0  0  0  0  0
    9.0168  -16.7558   24.1720 O   0  0  0  0  0  0  0  0  0  0  0  0
    8.3149  -15.1968   22.6795 N   0  0  0  0  0  0  0  0  0  0  0  0
    7.4265  -14.0867   22.2509 C   0  0  0  0  0  0  0  0  0  0  0  0
    7.5513  -14.2572   20.7303 C   0  0  0  0  0  0  0  0  0  0  0  0
    9.0610  -14.2699   20.6465 C   0  0  0  0  0  0  0  0  0  0  0  0
    9.3649  -15.3512   21.7220 C   0  0  1  0  0  0  0  0  0  0  0  0
   10.7289  -15.1140   22.2438 C   0  0  0  0  0  0  0  0  0  0  0  0
   11.8089  -15.4170   21.4337 O   0  0  0  0  0  0  0  0  0  0  0  0
   10.9225  -14.6522   23.3858 O   0  0  0  0  0  0  0  0  0  0  0  0
  2  1  1  0
  3  2  1  0
  3 10  1  0
  4  3  2  0
  5  6  1  0
  7  6  1  0
  8  7  1  0
  9 11  1  0
  9  8  1  1
  9 10  1  0
 11 13  1  0
 12 11  2  0
 13 14  1  0
 13 17  1  0
 14 15  1  0
 15 16  1  0
 17 16  1  0
 17 18  1  1
 18 19  1  0
 20 18  2  0
M  END
$$$$
