GMP.pdb
     RDKit          3D

 20 20  0  0  1  0  0  0  0  0999 V2000
    4.8182  -20.3744   23.3415 N   0  0  0  0  0  0  0  0  0  0  0  0
    5.6079  -19.7751   24.3975 C   0  0  0  0  0  0  0  0  0  0  0  0
    5.7830  -18.3082   24.1261 C   0  0  0  0  0  0  0  0  0  0  0  0
    5.2991  -17.7850   23.0944 O   0  0  0  0  0  0  0  0  0  0  0  0
    6.6452  -11.1844   26.8103 C   0  0  0  0  0  0  0  0  0  0  0  0
    6.2762  -12.9255   26.8606 S   0  0  0  0  0  0  0  0  0  0  0  0
    7.4333  -13.9780   25.9838 C   0  0  0  0  0  0  0  0  0  0  0  0
    7.1885  -15.4482   26.1078 C   0  0  0  0  0  0  0  0  0  0  0  0
    6.8997  -16.1390   24.8057 C   0  0  2  0  0  0  0  0  0  0  0  0
    6.4968  -17.5199   25.0414 N   0  0  0  0  0  0  0  0  0  0  0  0
    7.9944  -16.0645   23.8464 C   0  0  0  0  0  0  0  0  0  0  0  0
    8.9307  -16.9566   24.0227 O   0  0  0  0  0  0  0  0  0  0  0  0
    8.2181  -15.2047   22.7681 N   0  0  0  0  0  0  0  0  0  0  0  0
    7.3714  -14.0056   22.5436 C   0  0  0  0  0  0  0  0  0  0  0  0
    7.4093  -13.9729   21.0092 C   0  0  0  0  0  0  0  0  0  0  0  0
    8.9098  -14.0459   20.8373 C   0  0  0  0  0  0  0  0  0  0  0  0
    9.2081  -15.2770   21.7395 C   0  0  1  0  0  0  0  0  0  0  0  0
   10.6078  -15.1783   22.2086 C   0  0  0  0  0  0  0  0  0  0  0  0
   11.6267  -15.4293   21.3068 O   0  0  0  0  0  0  0  0  0  0  0  0
   10.8844  -14.8771   23.3866 O   0  0  0  0  0  0  0  0  0  0  0  0
  2  1  1  0
  3  2  1  0
  3 10  1  0
  4  3  2  0
  5  6  1  0
  7  6  1  0
  8  7  1  0
  9 11  1  0
  9  8  1  1
  9 10  1  0
 11 13  1  0
 12 11  2  0
 13 14  1  0
 13 17  1  0
 14 15  1  0
 15 16  1  0
 17 16  1  0
 17 18  1  1
 18 19  1  0
 20 18  2  0
M  END
$$$$
