FCS.pdb
     RDKit          3D

 24 24  0  0  1  0  0  0  0  0999 V2000
   19.0529  -25.2588  -11.1072 N   0  0  0  0  0  0  0  0  0  0  0  0
   18.8041  -26.3550  -10.1902 C   0  0  1  0  0  0  0  0  0  0  0  0
   20.0029  -27.2817  -10.0999 C   0  0  0  0  0  0  0  0  0  0  0  0
   20.2674  -27.9648  -11.3812 C   0  0  0  0  0  0  0  0  0  0  0  0
   19.4583  -29.0222  -11.8051 C   0  0  0  0  0  0  0  0  0  0  0  0
   19.7468  -29.6277  -13.0099 C   0  0  0  0  0  0  0  0  0  0  0  0
   20.7843  -29.2557  -13.8244 C   0  0  0  0  0  0  0  0  0  0  0  0
   21.5839  -28.2024  -13.3942 C   0  0  0  0  0  0  0  0  0  0  0  0
   21.3235  -27.5667  -12.1835 C   0  0  0  0  0  0  0  0  0  0  0  0
   18.4875  -25.8093   -8.8448 C   0  0  0  0  0  0  0  0  0  0  0  0
   19.1406  -24.8340   -8.3824 O   0  0  0  0  0  0  0  0  0  0  0  0
   17.4607  -26.3443   -8.0333 N   0  0  0  0  0  0  0  0  0  0  0  0
   17.1813  -25.9192   -6.6807 C   0  0  1  0  0  0  0  0  0  0  0  0
   15.8682  -25.1673   -6.7115 C   0  0  0  0  0  0  0  0  0  0  0  0
   16.2235  -23.4189   -7.0329 S   0  0  0  0  0  0  0  0  0  0  0  0
   17.1935  -27.0168   -5.7156 C   0  0  0  0  0  0  0  0  0  0  0  0
   16.6019  -28.0982   -5.9638 O   0  0  0  0  0  0  0  0  0  0  0  0
   18.7966  -26.2276   -2.1857 O   0  0  0  0  0  0  0  0  0  0  0  0
   18.8803  -27.6131   -2.4035 C   0  0  0  0  0  0  0  0  0  0  0  0
   17.9489  -27.9279   -3.5545 C   0  0  2  0  0  0  0  0  0  0  0  0
   17.8884  -26.8363   -4.4896 N   0  0  0  0  0  0  0  0  0  0  0  0
   16.6027  -28.1732   -3.0087 C   0  0  0  0  0  0  0  0  0  0  0  0
   16.3352  -29.3583   -2.3296 O   0  0  0  0  0  0  0  0  0  0  0  0
   15.6992  -27.3139   -3.1566 O   0  0  0  0  0  0  0  0  0  0  0  0
  2  1  1  6
  2 10  1  0
  3  2  1  0
  4  9  2  0
  4  3  1  0
  5  4  1  0
  6  7  1  0
  6  5  2  0
  7  8  2  0
  8  9  1  0
 10 11  2  0
 12 10  1  0
 12 13  1  0
 13 16  1  0
 13 14  1  6
 14 15  1  0
 16 17  2  0
 18 19  1  0
 20 19  1  1
 20 22  1  0
 21 16  1  0
 21 20  1  0
 22 24  2  0
 22 23  1  0
M  END
$$$$
