FCS.pdb
     RDKit          3D

 24 24  0  0  1  0  0  0  0  0999 V2000
   19.7330  -12.2664  -18.9883 N   0  0  0  0  0  0  0  0  0  0  0  0
   20.2665  -10.9182  -19.0375 C   0  0  1  0  0  0  0  0  0  0  0  0
   19.3499   -9.9902  -19.8138 C   0  0  0  0  0  0  0  0  0  0  0  0
   19.3457  -10.3020  -21.2564 C   0  0  0  0  0  0  0  0  0  0  0  0
   20.4645  -10.0286  -22.0477 C   0  0  0  0  0  0  0  0  0  0  0  0
   20.4108  -10.3385  -23.3903 C   0  0  0  0  0  0  0  0  0  0  0  0
   19.3220  -10.9017  -24.0028 C   0  0  0  0  0  0  0  0  0  0  0  0
   18.2135  -11.1702  -23.2073 C   0  0  0  0  0  0  0  0  0  0  0  0
   18.2305  -10.8712  -21.8479 C   0  0  0  0  0  0  0  0  0  0  0  0
   20.4438  -10.4081  -17.6532 C   0  0  0  0  0  0  0  0  0  0  0  0
   19.7009  -10.8214  -16.7212 O   0  0  0  0  0  0  0  0  0  0  0  0
   21.4327   -9.4546  -17.3188 N   0  0  0  0  0  0  0  0  0  0  0  0
   21.5866   -8.8593  -16.0110 C   0  0  1  0  0  0  0  0  0  0  0  0
   22.7904   -9.5092  -15.3637 C   0  0  0  0  0  0  0  0  0  0  0  0
   22.9000   -8.9218  -13.6522 S   0  0  0  0  0  0  0  0  0  0  0  0
   21.6694   -7.4005  -16.0458 C   0  0  0  0  0  0  0  0  0  0  0  0
   22.4645   -6.8199  -16.8280 O   0  0  0  0  0  0  0  0  0  0  0  0
   19.0696   -5.2081  -13.7416 O   0  0  0  0  0  0  0  0  0  0  0  0
   19.5167   -4.6138  -14.9336 C   0  0  0  0  0  0  0  0  0  0  0  0
   20.8733   -5.2142  -15.2350 C   0  0  2  0  0  0  0  0  0  0  0  0
   20.8320   -6.6510  -15.1766 N   0  0  0  0  0  0  0  0  0  0  0  0
   21.8338   -4.7163  -14.2351 C   0  0  0  0  0  0  0  0  0  0  0  0
   22.1301   -3.3577  -14.1746 O   0  0  0  0  0  0  0  0  0  0  0  0
   22.3835   -5.5171  -13.4395 O   0  0  0  0  0  0  0  0  0  0  0  0
  2  1  1  1
  2 10  1  0
  3  2  1  0
  4  9  2  0
  4  3  1  0
  5  4  1  0
  6  7  1  0
  6  5  2  0
  7  8  2  0
  8  9  1  0
 10 11  2  0
 12 10  1  0
 12 13  1  0
 13 16  1  0
 13 14  1  6
 14 15  1  0
 16 17  2  0
 18 19  1  0
 20 19  1  1
 20 22  1  0
 21 16  1  0
 21 20  1  0
 22 24  2  0
 22 23  1  0
M  END
$$$$
