FCS.pdb
     RDKit          3D

 24 24  0  0  1  0  0  0  0  0999 V2000
   26.8661  -26.0339  -16.0935 N   0  0  0  0  0  0  0  0  0  0  0  0
   26.0929  -24.9678  -16.7021 C   0  0  1  0  0  0  0  0  0  0  0  0
   25.2918  -25.4747  -17.8875 C   0  0  0  0  0  0  0  0  0  0  0  0
   26.1573  -25.7952  -19.0393 C   0  0  0  0  0  0  0  0  0  0  0  0
   26.4643  -27.1220  -19.3523 C   0  0  0  0  0  0  0  0  0  0  0  0
   27.2771  -27.3692  -20.4383 C   0  0  0  0  0  0  0  0  0  0  0  0
   27.8072  -26.3894  -21.2364 C   0  0  0  0  0  0  0  0  0  0  0  0
   27.4961  -25.0722  -20.9171 C   0  0  0  0  0  0  0  0  0  0  0  0
   26.6786  -24.7836  -19.8280 C   0  0  0  0  0  0  0  0  0  0  0  0
   25.1768  -24.3837  -15.6884 C   0  0  0  0  0  0  0  0  0  0  0  0
   24.7012  -25.1038  -14.7684 O   0  0  0  0  0  0  0  0  0  0  0  0
   24.8006  -23.0208  -15.7042 N   0  0  0  0  0  0  0  0  0  0  0  0
   23.9375  -22.3987  -14.7264 C   0  0  1  0  0  0  0  0  0  0  0  0
   24.5149  -21.0323  -14.4265 C   0  0  0  0  0  0  0  0  0  0  0  0
   23.4802  -20.2441  -13.1638 S   0  0  0  0  0  0  0  0  0  0  0  0
   22.5357  -22.3534  -15.1380 C   0  0  0  0  0  0  0  0  0  0  0  0
   22.2025  -21.8238  -16.2287 O   0  0  0  0  0  0  0  0  0  0  0  0
   19.8181  -23.8306  -12.5638 O   0  0  0  0  0  0  0  0  0  0  0  0
   19.3461  -23.8694  -13.8866 C   0  0  0  0  0  0  0  0  0  0  0  0
   20.1729  -22.8731  -14.6711 C   0  0  2  0  0  0  0  0  0  0  0  0
   21.5564  -22.9208  -14.2793 N   0  0  0  0  0  0  0  0  0  0  0  0
   19.6425  -21.5234  -14.4120 C   0  0  0  0  0  0  0  0  0  0  0  0
   20.4412  -20.5738  -13.7815 O   0  0  0  0  0  0  0  0  0  0  0  0
   18.4719  -21.2315  -14.7599 O   0  0  0  0  0  0  0  0  0  0  0  0
  2  1  1  1
  2 10  1  0
  3  2  1  0
  4  9  2  0
  4  3  1  0
  5  4  1  0
  6  7  1  0
  6  5  2  0
  7  8  2  0
  8  9  1  0
 10 11  2  0
 12 10  1  0
 12 13  1  0
 13 16  1  0
 13 14  1  6
 14 15  1  0
 16 17  2  0
 18 19  1  0
 20 19  1  1
 20 22  1  0
 21 16  1  0
 21 20  1  0
 22 24  2  0
 22 23  1  0
M  END
$$$$
