FCS.pdb
     RDKit          3D

 24 24  0  0  1  0  0  0  0  0999 V2000
   22.9897  -10.6216  -15.3626 N   0  0  0  0  0  0  0  0  0  0  0  0
   22.3061   -9.6158  -16.1536 C   0  0  1  0  0  0  0  0  0  0  0  0
   21.1363  -10.2134  -16.9142 C   0  0  0  0  0  0  0  0  0  0  0  0
   21.5845  -11.1336  -17.9777 C   0  0  0  0  0  0  0  0  0  0  0  0
   21.6711  -12.5080  -17.7407 C   0  0  0  0  0  0  0  0  0  0  0  0
   22.0952  -13.3257  -18.7668 C   0  0  0  0  0  0  0  0  0  0  0  0
   22.4399  -12.8731  -20.0136 C   0  0  0  0  0  0  0  0  0  0  0  0
   22.3506  -11.5040  -20.2398 C   0  0  0  0  0  0  0  0  0  0  0  0
   21.9264  -10.6471  -19.2282 C   0  0  0  0  0  0  0  0  0  0  0  0
   21.8238   -8.5309  -15.2602 C   0  0  0  0  0  0  0  0  0  0  0  0
   21.2765   -8.8083  -14.1580 O   0  0  0  0  0  0  0  0  0  0  0  0
   21.9514   -7.1628  -15.5937 N   0  0  0  0  0  0  0  0  0  0  0  0
   21.5412   -6.0707  -14.7408 C   0  0  1  0  0  0  0  0  0  0  0  0
   22.7887   -5.2940  -14.3793 C   0  0  0  0  0  0  0  0  0  0  0  0
   22.3037   -3.9001  -13.3266 S   0  0  0  0  0  0  0  0  0  0  0  0
   20.4953   -5.2376  -15.3309 C   0  0  0  0  0  0  0  0  0  0  0  0
   20.6531   -4.7126  -16.4625 O   0  0  0  0  0  0  0  0  0  0  0  0
   15.9992   -3.6254  -15.1506 O   0  0  0  0  0  0  0  0  0  0  0  0
   16.9426   -4.4106  -14.4669 C   0  0  0  0  0  0  0  0  0  0  0  0
   18.2715   -4.1907  -15.1576 C   0  0  2  0  0  0  0  0  0  0  0  0
   19.2951   -5.0330  -14.5986 N   0  0  0  0  0  0  0  0  0  0  0  0
   18.6573   -2.7796  -14.9838 C   0  0  0  0  0  0  0  0  0  0  0  0
   18.2710   -1.8337  -15.9290 O   0  0  0  0  0  0  0  0  0  0  0  0
   19.3333   -2.4321  -13.9844 O   0  0  0  0  0  0  0  0  0  0  0  0
  2  1  1  1
  2 10  1  0
  3  2  1  0
  4  9  2  0
  4  3  1  0
  5  4  1  0
  6  7  1  0
  6  5  2  0
  7  8  2  0
  8  9  1  0
 10 11  2  0
 12 10  1  0
 12 13  1  0
 13 16  1  0
 13 14  1  6
 14 15  1  0
 16 17  2  0
 18 19  1  0
 20 19  1  1
 20 22  1  0
 21 16  1  0
 21 20  1  0
 22 24  2  0
 22 23  1  0
M  END
$$$$
