FCS.pdb
     RDKit          3D

 24 24  0  0  1  0  0  0  0  0999 V2000
   27.2987  -19.3313  -15.9829 N   0  0  0  0  0  0  0  0  0  0  0  0
   26.5206  -18.9179  -14.8304 C   0  0  1  0  0  0  0  0  0  0  0  0
   25.6308  -17.7336  -15.1615 C   0  0  0  0  0  0  0  0  0  0  0  0
   26.4181  -16.5387  -15.5234 C   0  0  0  0  0  0  0  0  0  0  0  0
   26.6809  -16.2373  -16.8623 C   0  0  0  0  0  0  0  0  0  0  0  0
   27.4211  -15.1096  -17.1484 C   0  0  0  0  0  0  0  0  0  0  0  0
   27.9192  -14.2591  -16.1963 C   0  0  0  0  0  0  0  0  0  0  0  0
   27.6525  -14.5673  -14.8668 C   0  0  0  0  0  0  0  0  0  0  0  0
   26.9087  -15.6973  -14.5391 C   0  0  0  0  0  0  0  0  0  0  0  0
   25.6887  -20.0572  -14.3637 C   0  0  0  0  0  0  0  0  0  0  0  0
   25.3704  -20.9827  -15.1597 O   0  0  0  0  0  0  0  0  0  0  0  0
   25.2225  -20.1588  -13.0327 N   0  0  0  0  0  0  0  0  0  0  0  0
   24.3536  -21.2066  -12.5476 C   0  0  1  0  0  0  0  0  0  0  0  0
   24.7689  -21.5071  -11.1236 C   0  0  0  0  0  0  0  0  0  0  0  0
   24.3349  -20.0801  -10.0933 S   0  0  0  0  0  0  0  0  0  0  0  0
   22.9334  -20.8866  -12.6775 C   0  0  0  0  0  0  0  0  0  0  0  0
   22.5317  -19.6980  -12.5939 O   0  0  0  0  0  0  0  0  0  0  0  0
   20.3160  -23.9545  -13.1294 O   0  0  0  0  0  0  0  0  0  0  0  0
   19.9136  -22.7891  -13.8031 C   0  0  0  0  0  0  0  0  0  0  0  0
   20.6311  -21.6342  -13.1376 C   0  0  2  0  0  0  0  0  0  0  0  0
   22.0151  -21.9475  -12.9005 N   0  0  0  0  0  0  0  0  0  0  0  0
   19.9701  -21.3565  -11.8507 C   0  0  0  0  0  0  0  0  0  0  0  0
   18.6431  -20.9371  -11.8291 O   0  0  0  0  0  0  0  0  0  0  0  0
   20.6037  -21.4984  -10.7760 O   0  0  0  0  0  0  0  0  0  0  0  0
  2  1  1  6
  2 10  1  0
  3  2  1  0
  4  9  2  0
  4  3  1  0
  5  4  1  0
  6  7  1  0
  6  5  2  0
  7  8  2  0
  8  9  1  0
 10 11  2  0
 12 10  1  0
 12 13  1  0
 13 16  1  0
 13 14  1  1
 14 15  1  0
 16 17  2  0
 18 19  1  0
 20 19  1  1
 20 22  1  0
 21 16  1  0
 21 20  1  0
 22 24  2  0
 22 23  1  0
M  END
$$$$
