FCS.pdb
     RDKit          3D

 24 24  0  0  1  0  0  0  0  0999 V2000
   34.1903  -34.6520   -7.4900 N   0  0  0  0  0  0  0  0  0  0  0  0
   33.5838  -35.6693   -6.6522 C   0  0  1  0  0  0  0  0  0  0  0  0
   34.6214  -36.3638   -5.7891 C   0  0  0  0  0  0  0  0  0  0  0  0
   35.5605  -37.1663   -6.5969 C   0  0  0  0  0  0  0  0  0  0  0  0
   35.1691  -38.3968   -7.1311 C   0  0  0  0  0  0  0  0  0  0  0  0
   36.0833  -39.1085   -7.8788 C   0  0  0  0  0  0  0  0  0  0  0  0
   37.3608  -38.6830   -8.1334 C   0  0  0  0  0  0  0  0  0  0  0  0
   37.7411  -37.4574   -7.5976 C   0  0  0  0  0  0  0  0  0  0  0  0
   36.8456  -36.7104   -6.8375 C   0  0  0  0  0  0  0  0  0  0  0  0
   32.5486  -35.0435   -5.7892 C   0  0  0  0  0  0  0  0  0  0  0  0
   32.5108  -33.7909   -5.6448 O   0  0  0  0  0  0  0  0  0  0  0  0
   31.5753  -35.8044   -5.1016 N   0  0  0  0  0  0  0  0  0  0  0  0
   30.4951  -35.2411   -4.3244 C   0  0  1  0  0  0  0  0  0  0  0  0
   29.7830  -34.2410   -5.2093 C   0  0  0  0  0  0  0  0  0  0  0  0
   28.3741  -33.5700   -4.2868 S   0  0  0  0  0  0  0  0  0  0  0  0
   29.6006  -36.2505   -3.7610 C   0  0  0  0  0  0  0  0  0  0  0  0
   28.9732  -37.0432   -4.5087 O   0  0  0  0  0  0  0  0  0  0  0  0
   28.8563  -36.1628    0.2310 O   0  0  0  0  0  0  0  0  0  0  0  0
   28.8306  -37.4663   -0.2927 C   0  0  0  0  0  0  0  0  0  0  0  0
   28.6038  -37.3301   -1.7831 C   0  0  2  0  0  0  0  0  0  0  0  0
   29.4545  -36.3174   -2.3494 N   0  0  0  0  0  0  0  0  0  0  0  0
   27.1955  -36.9600   -2.0066 C   0  0  0  0  0  0  0  0  0  0  0  0
   26.1786  -37.7892   -1.5422 O   0  0  0  0  0  0  0  0  0  0  0  0
   26.9144  -35.8983   -2.6151 O   0  0  0  0  0  0  0  0  0  0  0  0
  2  1  1  1
  2 10  1  0
  3  2  1  0
  4  9  2  0
  4  3  1  0
  5  4  1  0
  6  7  1  0
  6  5  2  0
  7  8  2  0
  8  9  1  0
 10 11  2  0
 12 10  1  0
 12 13  1  0
 13 16  1  0
 13 14  1  6
 14 15  1  0
 16 17  2  0
 18 19  1  0
 20 19  1  1
 20 22  1  0
 21 16  1  0
 21 20  1  0
 22 24  2  0
 22 23  1  0
M  END
$$$$
