FCS.pdb
     RDKit          3D

 24 24  0  0  1  0  0  0  0  0999 V2000
   15.2544   -8.9891  -13.8972 N   0  0  0  0  0  0  0  0  0  0  0  0
   16.2337   -8.6497  -12.8820 C   0  0  1  0  0  0  0  0  0  0  0  0
   17.5562   -8.2422  -13.5056 C   0  0  0  0  0  0  0  0  0  0  0  0
   18.1664   -9.3466  -14.2713 C   0  0  0  0  0  0  0  0  0  0  0  0
   18.5236  -10.5401  -13.6384 C   0  0  0  0  0  0  0  0  0  0  0  0
   19.0905  -11.5419  -14.3976 C   0  0  0  0  0  0  0  0  0  0  0  0
   19.3278  -11.4410  -15.7436 C   0  0  0  0  0  0  0  0  0  0  0  0
   18.9690  -10.2496  -16.3646 C   0  0  0  0  0  0  0  0  0  0  0  0
   18.3943   -9.2157  -15.6308 C   0  0  0  0  0  0  0  0  0  0  0  0
   15.7096   -7.5404  -12.0438 C   0  0  0  0  0  0  0  0  0  0  0  0
   14.9246   -6.6846  -12.5367 O   0  0  0  0  0  0  0  0  0  0  0  0
   16.0570   -7.3918  -10.6813 N   0  0  0  0  0  0  0  0  0  0  0  0
   15.5621   -6.3421   -9.8203 C   0  0  1  0  0  0  0  0  0  0  0  0
   15.7979   -6.7872   -8.3932 C   0  0  0  0  0  0  0  0  0  0  0  0
   14.8042   -8.2731   -8.0912 S   0  0  0  0  0  0  0  0  0  0  0  0
   16.1374   -5.0316  -10.1169 C   0  0  0  0  0  0  0  0  0  0  0  0
   17.3663   -4.9069  -10.3520 O   0  0  0  0  0  0  0  0  0  0  0  0
   15.8878   -0.9188  -12.1077 O   0  0  0  0  0  0  0  0  0  0  0  0
   15.3681   -2.2045  -11.8822 C   0  0  0  0  0  0  0  0  0  0  0  0
   15.8201   -2.6181  -10.4980 C   0  0  2  0  0  0  0  0  0  0  0  0
   15.2783   -3.9001  -10.1341 N   0  0  0  0  0  0  0  0  0  0  0  0
   15.3543   -1.6048   -9.5355 C   0  0  0  0  0  0  0  0  0  0  0  0
   16.0357   -0.3970   -9.4160 O   0  0  0  0  0  0  0  0  0  0  0  0
   14.3444   -1.8314   -8.8247 O   0  0  0  0  0  0  0  0  0  0  0  0
  2  1  1  6
  2 10  1  0
  3  2  1  0
  4  9  2  0
  4  3  1  0
  5  4  1  0
  6  7  1  0
  6  5  2  0
  7  8  2  0
  8  9  1  0
 10 11  2  0
 12 10  1  0
 12 13  1  0
 13 16  1  0
 13 14  1  1
 14 15  1  0
 16 17  2  0
 18 19  1  0
 20 19  1  6
 20 22  1  0
 21 16  1  0
 21 20  1  0
 22 24  2  0
 22 23  1  0
M  END
$$$$
