FCS.pdb
     RDKit          3D

 24 24  0  0  1  0  0  0  0  0999 V2000
   24.2935  -19.8239  -10.0995 N   0  0  0  0  0  0  0  0  0  0  0  0
   25.6384  -19.9102  -10.6367 C   0  0  1  0  0  0  0  0  0  0  0  0
   26.4551  -20.9647   -9.9121 C   0  0  0  0  0  0  0  0  0  0  0  0
   26.8320  -20.5303   -8.5529 C   0  0  0  0  0  0  0  0  0  0  0  0
   25.9028  -20.5672   -7.5099 C   0  0  0  0  0  0  0  0  0  0  0  0
   26.3040  -20.1506   -6.2581 C   0  0  0  0  0  0  0  0  0  0  0  0
   27.5653  -19.6993   -5.9694 C   0  0  0  0  0  0  0  0  0  0  0  0
   28.4829  -19.6662   -7.0137 C   0  0  0  0  0  0  0  0  0  0  0  0
   28.1146  -20.0788   -8.2910 C   0  0  0  0  0  0  0  0  0  0  0  0
   25.5700  -20.2342  -12.0852 C   0  0  0  0  0  0  0  0  0  0  0  0
   24.5769  -20.8551  -12.5537 O   0  0  0  0  0  0  0  0  0  0  0  0
   26.5927  -19.8704  -12.9913 N   0  0  0  0  0  0  0  0  0  0  0  0
   26.5073  -20.0224  -14.4258 C   0  0  1  0  0  0  0  0  0  0  0  0
   27.3202  -18.9045  -15.0422 C   0  0  0  0  0  0  0  0  0  0  0  0
   28.9407  -18.8677  -14.2303 S   0  0  0  0  0  0  0  0  0  0  0  0
   26.9070  -21.3490  -14.8915 C   0  0  0  0  0  0  0  0  0  0  0  0
   27.9109  -21.9268  -14.4024 O   0  0  0  0  0  0  0  0  0  0  0  0
   24.1727  -23.6050  -16.6329 O   0  0  0  0  0  0  0  0  0  0  0  0
   25.3087  -24.2549  -16.1220 C   0  0  0  0  0  0  0  0  0  0  0  0
   26.4744  -23.3096  -16.3197 C   0  0  2  0  0  0  0  0  0  0  0  0
   26.1368  -21.9727  -15.9095 N   0  0  0  0  0  0  0  0  0  0  0  0
   26.8290  -23.3024  -17.7496 C   0  0  0  0  0  0  0  0  0  0  0  0
   27.2967  -24.4657  -18.3539 O   0  0  0  0  0  0  0  0  0  0  0  0
   26.7090  -22.2481  -18.4208 O   0  0  0  0  0  0  0  0  0  0  0  0
  2  1  1  1
  2 10  1  0
  3  2  1  0
  4  9  2  0
  4  3  1  0
  5  4  1  0
  6  7  1  0
  6  5  2  0
  7  8  2  0
  8  9  1  0
 10 11  2  0
 12 10  1  0
 12 13  1  0
 13 16  1  0
 13 14  1  6
 14 15  1  0
 16 17  2  0
 18 19  1  0
 20 19  1  6
 20 22  1  0
 21 16  1  0
 21 20  1  0
 22 24  2  0
 22 23  1  0
M  END
$$$$
