FCS.pdb
     RDKit          3D

 24 24  0  0  1  0  0  0  0  0999 V2000
   27.3952  -19.3337  -16.3261 N   0  0  0  0  0  0  0  0  0  0  0  0
   26.7644  -18.9416  -15.0799 C   0  0  1  0  0  0  0  0  0  0  0  0
   25.7405  -17.8432  -15.3016 C   0  0  0  0  0  0  0  0  0  0  0  0
   26.3633  -16.6058  -15.8111 C   0  0  0  0  0  0  0  0  0  0  0  0
   26.4422  -16.3613  -17.1846 C   0  0  0  0  0  0  0  0  0  0  0  0
   27.0334  -15.1905  -17.6103 C   0  0  0  0  0  0  0  0  0  0  0  0
   27.5524  -14.2442  -16.7658 C   0  0  0  0  0  0  0  0  0  0  0  0
   27.4692  -14.4963  -15.4008 C   0  0  0  0  0  0  0  0  0  0  0  0
   26.8794  -15.6673  -14.9335 C   0  0  0  0  0  0  0  0  0  0  0  0
   26.1078  -20.1251  -14.4666 C   0  0  0  0  0  0  0  0  0  0  0  0
   25.7248  -21.0869  -15.1876 O   0  0  0  0  0  0  0  0  0  0  0  0
   25.8844  -20.2302  -13.0745 N   0  0  0  0  0  0  0  0  0  0  0  0
   25.0265  -21.2145  -12.4552 C   0  0  1  0  0  0  0  0  0  0  0  0
   25.5607  -21.4575  -11.0602 C   0  0  0  0  0  0  0  0  0  0  0  0
   25.9709  -19.8531  -10.3227 S   0  0  0  0  0  0  0  0  0  0  0  0
   23.6130  -20.8431  -12.4737 C   0  0  0  0  0  0  0  0  0  0  0  0
   23.2535  -19.6673  -12.2103 O   0  0  0  0  0  0  0  0  0  0  0  0
   21.7252  -21.9587  -15.2160 O   0  0  0  0  0  0  0  0  0  0  0  0
   20.9996  -21.0650  -14.4105 C   0  0  0  0  0  0  0  0  0  0  0  0
   21.2785  -21.4521  -12.9739 C   0  0  2  0  0  0  0  0  0  0  0  0
   22.6525  -21.8392  -12.7957 N   0  0  0  0  0  0  0  0  0  0  0  0
   20.4063  -22.5856  -12.6208 C   0  0  0  0  0  0  0  0  0  0  0  0
   20.9590  -23.8446  -12.4044 O   0  0  0  0  0  0  0  0  0  0  0  0
   19.1669  -22.4150  -12.5155 O   0  0  0  0  0  0  0  0  0  0  0  0
  2  1  1  6
  2 10  1  0
  3  2  1  0
  4  9  2  0
  4  3  1  0
  5  4  1  0
  6  7  1  0
  6  5  2  0
  7  8  2  0
  8  9  1  0
 10 11  2  0
 12 10  1  0
 12 13  1  0
 13 16  1  0
 13 14  1  1
 14 15  1  0
 16 17  2  0
 18 19  1  0
 20 19  1  6
 20 22  1  0
 21 16  1  0
 21 20  1  0
 22 24  2  0
 22 23  1  0
M  END
$$$$
