FCS.pdb
     RDKit          3D

 24 24  0  0  1  0  0  0  0  0999 V2000
   19.5306  -19.3867  -13.8221 N   0  0  0  0  0  0  0  0  0  0  0  0
   20.5056  -19.7444  -14.8351 C   0  0  1  0  0  0  0  0  0  0  0  0
   20.3058  -18.9349  -16.1034 C   0  0  0  0  0  0  0  0  0  0  0  0
   19.0786  -19.3314  -16.8211 C   0  0  0  0  0  0  0  0  0  0  0  0
   18.9089  -20.6434  -17.2711 C   0  0  0  0  0  0  0  0  0  0  0  0
   17.7444  -20.9638  -17.9365 C   0  0  0  0  0  0  0  0  0  0  0  0
   16.7353  -20.0710  -18.1866 C   0  0  0  0  0  0  0  0  0  0  0  0
   16.9133  -18.7679  -17.7350 C   0  0  0  0  0  0  0  0  0  0  0  0
   18.0756  -18.4070  -17.0594 C   0  0  0  0  0  0  0  0  0  0  0  0
   21.8743  -19.5167  -14.3032 C   0  0  0  0  0  0  0  0  0  0  0  0
   22.2044  -18.3843  -13.8560 O   0  0  0  0  0  0  0  0  0  0  0  0
   22.8537  -20.5360  -14.2723 N   0  0  0  0  0  0  0  0  0  0  0  0
   24.2109  -20.3532  -13.8108 C   0  0  1  0  0  0  0  0  0  0  0  0
   24.3760  -21.1965  -12.5651 C   0  0  0  0  0  0  0  0  0  0  0  0
   23.1753  -20.6274  -11.3319 S   0  0  0  0  0  0  0  0  0  0  0  0
   25.2133  -20.6379  -14.8357 C   0  0  0  0  0  0  0  0  0  0  0  0
   25.1128  -21.6545  -15.5688 O   0  0  0  0  0  0  0  0  0  0  0  0
   28.5437  -18.3397  -14.9201 O   0  0  0  0  0  0  0  0  0  0  0  0
   28.2158  -18.8313  -16.1948 C   0  0  0  0  0  0  0  0  0  0  0  0
   27.3074  -20.0228  -15.9792 C   0  0  2  0  0  0  0  0  0  0  0  0
   26.3050  -19.7412  -14.9865 N   0  0  0  0  0  0  0  0  0  0  0  0
   28.1302  -21.1584  -15.5280 C   0  0  0  0  0  0  0  0  0  0  0  0
   27.9441  -21.6864  -14.2537 O   0  0  0  0  0  0  0  0  0  0  0  0
   28.9976  -21.6481  -16.2924 O   0  0  0  0  0  0  0  0  0  0  0  0
  2  1  1  1
  2 10  1  0
  3  2  1  0
  4  9  2  0
  4  3  1  0
  5  4  1  0
  6  7  1  0
  6  5  2  0
  7  8  2  0
  8  9  1  0
 10 11  2  0
 12 10  1  0
 12 13  1  0
 13 16  1  0
 13 14  1  1
 14 15  1  0
 16 17  2  0
 18 19  1  0
 20 19  1  1
 20 22  1  0
 21 16  1  0
 21 20  1  0
 22 24  2  0
 22 23  1  0
M  END
$$$$
