FCS.pdb
     RDKit          3D

 24 24  0  0  1  0  0  0  0  0999 V2000
   25.7526  -19.2786  -18.9060 N   0  0  0  0  0  0  0  0  0  0  0  0
   25.4743  -18.6233  -17.6419 C   0  0  1  0  0  0  0  0  0  0  0  0
   23.9843  -18.4071  -17.4489 C   0  0  0  0  0  0  0  0  0  0  0  0
   23.4430  -17.4228  -18.4063 C   0  0  0  0  0  0  0  0  0  0  0  0
   23.7885  -16.0722  -18.3113 C   0  0  0  0  0  0  0  0  0  0  0  0
   23.2563  -15.1921  -19.2297 C   0  0  0  0  0  0  0  0  0  0  0  0
   22.4037  -15.5603  -20.2375 C   0  0  0  0  0  0  0  0  0  0  0  0
   22.0657  -16.9064  -20.3240 C   0  0  0  0  0  0  0  0  0  0  0  0
   22.5832  -17.8245  -19.4147 C   0  0  0  0  0  0  0  0  0  0  0  0
   26.0110  -19.4501  -16.5301 C   0  0  0  0  0  0  0  0  0  0  0  0
   26.1070  -20.7017  -16.6549 O   0  0  0  0  0  0  0  0  0  0  0  0
   26.4317  -18.8874  -15.3031 N   0  0  0  0  0  0  0  0  0  0  0  0
   27.0483  -19.6328  -14.2295 C   0  0  1  0  0  0  0  0  0  0  0  0
   28.0710  -18.7227  -13.5843 C   0  0  0  0  0  0  0  0  0  0  0  0
   29.3065  -18.2814  -14.8354 S   0  0  0  0  0  0  0  0  0  0  0  0
   26.0838  -20.1807  -13.2778 C   0  0  0  0  0  0  0  0  0  0  0  0
   24.8897  -19.7868  -13.2733 O   0  0  0  0  0  0  0  0  0  0  0  0
   25.5982  -22.3864   -9.0674 O   0  0  0  0  0  0  0  0  0  0  0  0
   26.4916  -22.1480  -10.1253 C   0  0  0  0  0  0  0  0  0  0  0  0
   25.6902  -21.4935  -11.2302 C   0  0  2  0  0  0  0  0  0  0  0  0
   26.5239  -21.1689  -12.3567 N   0  0  0  0  0  0  0  0  0  0  0  0
   25.0908  -20.2571  -10.6991 C   0  0  0  0  0  0  0  0  0  0  0  0
   25.8475  -19.0905  -10.6375 O   0  0  0  0  0  0  0  0  0  0  0  0
   23.8993  -20.2568  -10.3030 O   0  0  0  0  0  0  0  0  0  0  0  0
  2  1  1  6
  2 10  1  0
  3  2  1  0
  4  9  2  0
  4  3  1  0
  5  4  1  0
  6  7  1  0
  6  5  2  0
  7  8  2  0
  8  9  1  0
 10 11  2  0
 12 10  1  0
 12 13  1  0
 13 16  1  0
 13 14  1  1
 14 15  1  0
 16 17  2  0
 18 19  1  0
 20 19  1  1
 20 22  1  0
 21 16  1  0
 21 20  1  0
 22 24  2  0
 22 23  1  0
M  END
$$$$
