FCS.pdb
     RDKit          3D

 24 24  0  0  1  0  0  0  0  0999 V2000
   23.8751  -10.8266  -16.8300 N   0  0  0  0  0  0  0  0  0  0  0  0
   23.8915   -9.4639  -16.3324 C   0  0  1  0  0  0  0  0  0  0  0  0
   25.0951   -8.7004  -16.8544 C   0  0  0  0  0  0  0  0  0  0  0  0
   26.3599   -9.4042  -16.5660 C   0  0  0  0  0  0  0  0  0  0  0  0
   27.3218   -9.5788  -17.5645 C   0  0  0  0  0  0  0  0  0  0  0  0
   28.4870  -10.2431  -17.2448 C   0  0  0  0  0  0  0  0  0  0  0  0
   28.7642  -10.7470  -16.0009 C   0  0  0  0  0  0  0  0  0  0  0  0
   27.8010  -10.5685  -15.0139 C   0  0  0  0  0  0  0  0  0  0  0  0
   26.6123   -9.9028  -15.2991 C   0  0  0  0  0  0  0  0  0  0  0  0
   22.6411   -8.7745  -16.7439 C   0  0  0  0  0  0  0  0  0  0  0  0
   21.7834   -9.3754  -17.4472 O   0  0  0  0  0  0  0  0  0  0  0  0
   22.3565   -7.4394  -16.3757 N   0  0  0  0  0  0  0  0  0  0  0  0
   21.1537   -6.7277  -16.7432 C   0  0  1  0  0  0  0  0  0  0  0  0
   19.9835   -7.5187  -16.1998 C   0  0  0  0  0  0  0  0  0  0  0  0
   20.3738   -8.0130  -14.4999 S   0  0  0  0  0  0  0  0  0  0  0  0
   21.1539   -5.3310  -16.3127 C   0  0  0  0  0  0  0  0  0  0  0  0
   21.6968   -4.9916  -15.2305 O   0  0  0  0  0  0  0  0  0  0  0  0
   19.6201   -2.5822  -18.8634 O   0  0  0  0  0  0  0  0  0  0  0  0
   20.5998   -2.0796  -17.9906 C   0  0  0  0  0  0  0  0  0  0  0  0
   20.5939   -2.9756  -16.7705 C   0  0  2  0  0  0  0  0  0  0  0  0
   20.5273   -4.3635  -17.1432 N   0  0  0  0  0  0  0  0  0  0  0  0
   19.4170   -2.6370  -15.9516 C   0  0  0  0  0  0  0  0  0  0  0  0
   19.3359   -1.3915  -15.3357 O   0  0  0  0  0  0  0  0  0  0  0  0
   18.4895   -3.4714  -15.8103 O   0  0  0  0  0  0  0  0  0  0  0  0
  2  1  1  6
  2 10  1  0
  3  2  1  0
  4  9  2  0
  4  3  1  0
  5  4  1  0
  6  7  1  0
  6  5  2  0
  7  8  2  0
  8  9  1  0
 10 11  2  0
 12 10  1  0
 12 13  1  0
 13 16  1  0
 13 14  1  1
 14 15  1  0
 16 17  2  0
 18 19  1  0
 20 19  1  6
 20 22  1  0
 21 16  1  0
 21 20  1  0
 22 24  2  0
 22 23  1  0
M  END
$$$$
