FCS.pdb
     RDKit          3D

 24 24  0  0  1  0  0  0  0  0999 V2000
   19.7959  -11.1554  -15.7332 N   0  0  0  0  0  0  0  0  0  0  0  0
   19.1652   -9.8566  -15.5923 C   0  0  1  0  0  0  0  0  0  0  0  0
   17.6998   -9.9094  -15.9847 C   0  0  0  0  0  0  0  0  0  0  0  0
   17.5262  -10.1534  -17.4299 C   0  0  0  0  0  0  0  0  0  0  0  0
   17.7829   -9.1418  -18.3591 C   0  0  0  0  0  0  0  0  0  0  0  0
   17.6057   -9.4197  -19.6980 C   0  0  0  0  0  0  0  0  0  0  0  0
   17.1907  -10.6339  -20.1794 C   0  0  0  0  0  0  0  0  0  0  0  0
   16.9377  -11.6342  -19.2472 C   0  0  0  0  0  0  0  0  0  0  0  0
   17.1054  -11.3910  -17.8869 C   0  0  0  0  0  0  0  0  0  0  0  0
   19.2929   -9.3974  -14.1849 C   0  0  0  0  0  0  0  0  0  0  0  0
   19.0890  -10.1982  -13.2317 O   0  0  0  0  0  0  0  0  0  0  0  0
   19.6418   -8.0685  -13.8510 N   0  0  0  0  0  0  0  0  0  0  0  0
   19.7787   -7.5730  -12.5004 C   0  0  1  0  0  0  0  0  0  0  0  0
   21.1793   -7.0147  -12.3697 C   0  0  0  0  0  0  0  0  0  0  0  0
   22.3439   -8.4038  -12.3508 S   0  0  0  0  0  0  0  0  0  0  0  0
   18.7400   -6.6145  -12.1281 C   0  0  0  0  0  0  0  0  0  0  0  0
   18.4870   -5.6237  -12.8599 O   0  0  0  0  0  0  0  0  0  0  0  0
   15.7205   -7.7496  -10.0418 O   0  0  0  0  0  0  0  0  0  0  0  0
   15.6343   -6.4597  -10.5921 C   0  0  0  0  0  0  0  0  0  0  0  0
   17.0252   -5.8661  -10.5249 C   0  0  2  0  0  0  0  0  0  0  0  0
   18.0212   -6.8256  -10.9209 N   0  0  0  0  0  0  0  0  0  0  0  0
   17.2835   -5.4447   -9.1371 C   0  0  0  0  0  0  0  0  0  0  0  0
   16.4840   -4.4693   -8.5483 O   0  0  0  0  0  0  0  0  0  0  0  0
   18.2236   -5.9653   -8.4877 O   0  0  0  0  0  0  0  0  0  0  0  0
  2  1  1  1
  2 10  1  0
  3  2  1  0
  4  9  2  0
  4  3  1  0
  5  4  1  0
  6  7  1  0
  6  5  2  0
  7  8  2  0
  8  9  1  0
 10 11  2  0
 12 10  1  0
 12 13  1  0
 13 16  1  0
 13 14  1  6
 14 15  1  0
 16 17  2  0
 18 19  1  0
 20 19  1  1
 20 22  1  0
 21 16  1  0
 21 20  1  0
 22 24  2  0
 22 23  1  0
M  END
$$$$
