FCS.pdb
     RDKit          3D

 24 24  0  0  1  0  0  0  0  0999 V2000
   23.3262  -11.1260  -19.9223 N   0  0  0  0  0  0  0  0  0  0  0  0
   23.3226   -9.6939  -19.6909 C   0  0  1  0  0  0  0  0  0  0  0  0
   22.5565   -8.9614  -20.7774 C   0  0  0  0  0  0  0  0  0  0  0  0
   23.2289   -9.0621  -22.0874 C   0  0  0  0  0  0  0  0  0  0  0  0
   22.8131  -10.0051  -23.0310 C   0  0  0  0  0  0  0  0  0  0  0  0
   23.4737  -10.0594  -24.2402 C   0  0  0  0  0  0  0  0  0  0  0  0
   24.5200   -9.2414  -24.5781 C   0  0  0  0  0  0  0  0  0  0  0  0
   24.9266   -8.3063  -23.6327 C   0  0  0  0  0  0  0  0  0  0  0  0
   24.2839   -8.2217  -22.4009 C   0  0  0  0  0  0  0  0  0  0  0  0
   22.7115   -9.4107  -18.3663 C   0  0  0  0  0  0  0  0  0  0  0  0
   21.7178  -10.0773  -17.9668 O   0  0  0  0  0  0  0  0  0  0  0  0
   23.2029   -8.4019  -17.5061 N   0  0  0  0  0  0  0  0  0  0  0  0
   22.7347   -8.1766  -16.1576 C   0  0  1  0  0  0  0  0  0  0  0  0
   23.7060   -8.8693  -15.2265 C   0  0  0  0  0  0  0  0  0  0  0  0
   23.3521  -10.6470  -15.2583 S   0  0  0  0  0  0  0  0  0  0  0  0
   22.5427   -6.7627  -15.8409 C   0  0  0  0  0  0  0  0  0  0  0  0
   23.4041   -5.9074  -16.1687 O   0  0  0  0  0  0  0  0  0  0  0  0
   19.5786   -3.3484  -14.2449 O   0  0  0  0  0  0  0  0  0  0  0  0
   19.7089   -4.7348  -14.4319 C   0  0  0  0  0  0  0  0  0  0  0  0
   21.1264   -4.9770  -14.9046 C   0  0  2  0  0  0  0  0  0  0  0  0
   21.3611   -6.3742  -15.1542 N   0  0  0  0  0  0  0  0  0  0  0  0
   22.0513   -4.5102  -13.8573 C   0  0  0  0  0  0  0  0  0  0  0  0
   22.6085   -3.2374  -13.9413 O   0  0  0  0  0  0  0  0  0  0  0  0
   22.3356   -5.2600  -12.8911 O   0  0  0  0  0  0  0  0  0  0  0  0
  2  1  1  6
  2 10  1  0
  3  2  1  0
  4  9  2  0
  4  3  1  0
  5  4  1  0
  6  7  1  0
  6  5  2  0
  7  8  2  0
  8  9  1  0
 10 11  2  0
 12 10  1  0
 12 13  1  0
 13 16  1  0
 13 14  1  1
 14 15  1  0
 16 17  2  0
 18 19  1  0
 20 19  1  1
 20 22  1  0
 21 16  1  0
 21 20  1  0
 22 24  2  0
 22 23  1  0
M  END
$$$$
