FCS.pdb
     RDKit          3D

 24 24  0  0  1  0  0  0  0  0999 V2000
   27.9235  -19.8097  -16.0038 N   0  0  0  0  0  0  0  0  0  0  0  0
   27.2289  -19.1994  -14.8859 C   0  0  1  0  0  0  0  0  0  0  0  0
   26.2173  -18.1717  -15.3596 C   0  0  0  0  0  0  0  0  0  0  0  0
   26.8717  -16.9548  -15.8787 C   0  0  0  0  0  0  0  0  0  0  0  0
   27.0240  -16.7592  -17.2538 C   0  0  0  0  0  0  0  0  0  0  0  0
   27.6421  -15.6059  -17.6885 C   0  0  0  0  0  0  0  0  0  0  0  0
   28.1203  -14.6317  -16.8516 C   0  0  0  0  0  0  0  0  0  0  0  0
   27.9642  -14.8352  -15.4849 C   0  0  0  0  0  0  0  0  0  0  0  0
   27.3451  -15.9874  -15.0085 C   0  0  0  0  0  0  0  0  0  0  0  0
   26.5421  -20.2551  -14.0974 C   0  0  0  0  0  0  0  0  0  0  0  0
   25.9483  -21.2027  -14.6814 O   0  0  0  0  0  0  0  0  0  0  0  0
   26.5203  -20.2505  -12.6837 N   0  0  0  0  0  0  0  0  0  0  0  0
   25.5414  -20.9441  -11.8780 C   0  0  1  0  0  0  0  0  0  0  0  0
   25.9057  -20.7044  -10.4287 C   0  0  0  0  0  0  0  0  0  0  0  0
   24.5853  -21.3880   -9.3917 S   0  0  0  0  0  0  0  0  0  0  0  0
   24.1638  -20.5720  -12.1942 C   0  0  0  0  0  0  0  0  0  0  0  0
   23.8035  -19.3674  -12.1800 O   0  0  0  0  0  0  0  0  0  0  0  0
   21.7739  -23.4184  -13.8099 O   0  0  0  0  0  0  0  0  0  0  0  0
   21.4925  -22.0841  -14.1478 C   0  0  0  0  0  0  0  0  0  0  0  0
   21.9214  -21.2384  -12.9678 C   0  0  2  0  0  0  0  0  0  0  0  0
   23.2391  -21.6007  -12.5184 N   0  0  0  0  0  0  0  0  0  0  0  0
   20.9606  -21.4501  -11.8713 C   0  0  0  0  0  0  0  0  0  0  0  0
   19.6249  -21.0979  -12.0421 O   0  0  0  0  0  0  0  0  0  0  0  0
   21.3472  -21.9473  -10.7851 O   0  0  0  0  0  0  0  0  0  0  0  0
  2  1  1  6
  2 10  1  0
  3  2  1  0
  4  9  2  0
  4  3  1  0
  5  4  1  0
  6  7  1  0
  6  5  2  0
  7  8  2  0
  8  9  1  0
 10 11  2  0
 12 10  1  0
 12 13  1  0
 13 16  1  0
 13 14  1  1
 14 15  1  0
 16 17  2  0
 18 19  1  0
 20 19  1  6
 20 22  1  0
 21 16  1  0
 21 20  1  0
 22 24  2  0
 22 23  1  0
M  END
$$$$
