FCS.pdb
     RDKit          3D

 24 24  0  0  1  0  0  0  0  0999 V2000
   24.0518  -10.7590  -15.6689 N   0  0  0  0  0  0  0  0  0  0  0  0
   23.1476   -9.9211  -16.4338 C   0  0  1  0  0  0  0  0  0  0  0  0
   21.9658  -10.7177  -16.9557 C   0  0  0  0  0  0  0  0  0  0  0  0
   22.3841  -11.7541  -17.9198 C   0  0  0  0  0  0  0  0  0  0  0  0
   22.3512  -13.1067  -17.5707 C   0  0  0  0  0  0  0  0  0  0  0  0
   22.7521  -14.0364  -18.5069 C   0  0  0  0  0  0  0  0  0  0  0  0
   23.1841  -13.7160  -19.7674 C   0  0  0  0  0  0  0  0  0  0  0  0
   23.2133  -12.3675  -20.1056 C   0  0  0  0  0  0  0  0  0  0  0  0
   22.8161  -11.4001  -19.1869 C   0  0  0  0  0  0  0  0  0  0  0  0
   22.6646   -8.8075  -15.5766 C   0  0  0  0  0  0  0  0  0  0  0  0
   22.8090   -8.8578  -14.3244 O   0  0  0  0  0  0  0  0  0  0  0  0
   22.0327   -7.6608  -16.1102 N   0  0  0  0  0  0  0  0  0  0  0  0
   21.8514   -6.4185  -15.3945 C   0  0  1  0  0  0  0  0  0  0  0  0
   23.2288   -5.9095  -15.0280 C   0  0  0  0  0  0  0  0  0  0  0  0
   23.0354   -4.3455  -14.1321 S   0  0  0  0  0  0  0  0  0  0  0  0
   21.0526   -5.4393  -16.1289 C   0  0  0  0  0  0  0  0  0  0  0  0
   21.4559   -4.9718  -17.2242 O   0  0  0  0  0  0  0  0  0  0  0  0
   17.5901   -4.3006  -14.4541 O   0  0  0  0  0  0  0  0  0  0  0  0
   17.5443   -4.1697  -15.8522 C   0  0  0  0  0  0  0  0  0  0  0  0
   18.9798   -4.1224  -16.3303 C   0  0  2  0  0  0  0  0  0  0  0  0
   19.8094   -5.0262  -15.5789 N   0  0  0  0  0  0  0  0  0  0  0  0
   19.4815   -2.7481  -16.1582 C   0  0  0  0  0  0  0  0  0  0  0  0
   18.8423   -1.6912  -16.7997 O   0  0  0  0  0  0  0  0  0  0  0  0
   20.4840   -2.5319  -15.4339 O   0  0  0  0  0  0  0  0  0  0  0  0
  2  1  1  1
  2 10  1  0
  3  2  1  0
  4  9  2  0
  4  3  1  0
  5  4  1  0
  6  7  1  0
  6  5  2  0
  7  8  2  0
  8  9  1  0
 10 11  2  0
 12 10  1  0
 12 13  1  0
 13 16  1  0
 13 14  1  6
 14 15  1  0
 16 17  2  0
 18 19  1  0
 20 19  1  1
 20 22  1  0
 21 16  1  0
 21 20  1  0
 22 24  2  0
 22 23  1  0
M  END
$$$$
