ISD.pdb
     RDKit          3D

 23 22  0  0  1  0  0  0  0  0999 V2000
    6.4249  -11.4066   27.4960 C   0  0  0  0  0  0  0  0  0  0  0  0
    5.8348  -12.5364   26.7196 C   0  0  0  0  0  0  0  0  0  0  0  0
    6.8014  -13.3627   25.9418 C   0  0  2  0  0  0  0  0  0  0  0  0
    7.5098  -12.4395   24.9663 C   0  0  0  0  0  0  0  0  0  0  0  0
    6.2013  -14.5481   25.2583 C   0  0  2  0  0  0  0  0  0  0  0  0
    5.5399  -15.3710   26.2618 N   0  0  0  0  0  0  0  0  0  0  0  0
    7.2509  -15.3514   24.5988 C   0  0  0  0  0  0  0  0  0  0  0  0
    7.9438  -16.1436   25.3184 O   0  0  0  0  0  0  0  0  0  0  0  0
    8.6766  -14.7576   20.7356 O   0  0  0  0  0  0  0  0  0  0  0  0
    8.3611  -16.0589   21.1134 C   0  0  0  0  0  0  0  0  0  0  0  0
    8.4357  -16.2228   22.6149 C   0  0  2  0  0  0  0  0  0  0  0  0
    7.5213  -15.2774   23.2094 N   0  0  0  0  0  0  0  0  0  0  0  0
    9.8169  -16.0536   23.1196 C   0  0  0  0  0  0  0  0  0  0  0  0
   10.2635  -14.9080   23.3401 O   0  0  0  0  0  0  0  0  0  0  0  0
   10.6698  -17.1773   23.3669 N   0  0  0  0  0  0  0  0  0  0  0  0
   12.0355  -17.0575   23.7686 C   0  0  1  0  0  0  0  0  0  0  0  0
   12.4368  -18.2443   24.6129 C   0  0  0  0  0  0  0  0  0  0  0  0
   11.8732  -18.2556   25.9644 C   0  0  0  0  0  0  0  0  0  0  0  0
   11.4645  -17.2061   26.5114 O   0  0  0  0  0  0  0  0  0  0  0  0
   12.9549  -16.8918   22.6074 C   0  0  0  0  0  0  0  0  0  0  0  0
   14.1719  -16.6314   22.7521 O   0  0  0  0  0  0  0  0  0  0  0  0
   11.7625  -19.4397   26.7042 O   0  0  0  0  0  0  0  0  0  0  0  0
   12.4826  -17.0259   21.3015 O   0  0  0  0  0  0  0  0  0  0  0  0
  1  2  1  0
  2  3  1  0
  3  4  1  6
  5  3  1  0
  5  6  1  1
  7  5  1  0
  7  8  2  0
 10  9  1  0
 11 10  1  6
 11 12  1  0
 12  7  1  0
 13 15  1  0
 13 11  1  0
 14 13  2  0
 16 15  1  0
 16 20  1  0
 16 17  1  6
 18 17  1  0
 18 22  1  0
 19 18  2  0
 20 23  1  0
 21 20  2  0
M  END
$$$$
