ISD.pdb
     RDKit          3D

 23 22  0  0  1  0  0  0  0  0999 V2000
    6.2054  -12.3734   27.3715 C   0  0  0  0  0  0  0  0  0  0  0  0
    6.4491  -13.4226   26.3385 C   0  0  0  0  0  0  0  0  0  0  0  0
    7.3190  -13.0188   25.1973 C   0  0  2  0  0  0  0  0  0  0  0  0
    6.6095  -11.8993   24.4563 C   0  0  0  0  0  0  0  0  0  0  0  0
    7.7115  -14.1355   24.2854 C   0  0  2  0  0  0  0  0  0  0  0  0
    6.5087  -14.8655   23.9089 N   0  0  0  0  0  0  0  0  0  0  0  0
    8.6371  -15.0611   24.9698 C   0  0  0  0  0  0  0  0  0  0  0  0
    9.7363  -14.5931   25.4151 O   0  0  0  0  0  0  0  0  0  0  0  0
    8.2993  -19.1897   24.6911 O   0  0  0  0  0  0  0  0  0  0  0  0
    8.7696  -18.6721   25.8938 C   0  0  0  0  0  0  0  0  0  0  0  0
    9.3786  -17.3022   25.6954 C   0  0  2  0  0  0  0  0  0  0  0  0
    8.3587  -16.4393   25.1489 N   0  0  0  0  0  0  0  0  0  0  0  0
   10.5828  -17.3538   24.8363 C   0  0  0  0  0  0  0  0  0  0  0  0
   10.4855  -17.1212   23.6127 O   0  0  0  0  0  0  0  0  0  0  0  0
   11.8745  -17.6660   25.3704 N   0  0  0  0  0  0  0  0  0  0  0  0
   13.0583  -17.7475   24.5747 C   0  0  1  0  0  0  0  0  0  0  0  0
   13.2113  -16.4989   23.7381 C   0  0  0  0  0  0  0  0  0  0  0  0
   14.4755  -16.4011   23.0056 C   0  0  0  0  0  0  0  0  0  0  0  0
   15.5767  -16.5752   23.5754 O   0  0  0  0  0  0  0  0  0  0  0  0
   14.2771  -17.9935   25.3964 C   0  0  0  0  0  0  0  0  0  0  0  0
   15.3980  -18.2077   24.8794 O   0  0  0  0  0  0  0  0  0  0  0  0
   14.5101  -16.1124   21.6355 O   0  0  0  0  0  0  0  0  0  0  0  0
   14.2079  -17.9906   26.7898 O   0  0  0  0  0  0  0  0  0  0  0  0
  1  2  1  0
  2  3  1  0
  3  4  1  6
  5  3  1  0
  5  6  1  1
  7  5  1  0
  7  8  2  0
 10  9  1  0
 11 10  1  6
 11 12  1  0
 12  7  1  0
 13 15  1  0
 13 11  1  0
 14 13  2  0
 16 15  1  0
 16 20  1  0
 16 17  1  1
 18 17  1  0
 18 22  1  0
 19 18  2  0
 20 23  1  0
 21 20  2  0
M  END
$$$$
