ISD.pdb
     RDKit          3D

 23 22  0  0  1  0  0  0  0  0999 V2000
    7.6994  -12.5194   22.3524 C   0  0  0  0  0  0  0  0  0  0  0  0
    7.3504  -13.6887   21.4930 C   0  0  0  0  0  0  0  0  0  0  0  0
    7.9495  -13.6913   20.1280 C   0  0  2  0  0  0  0  0  0  0  0  0
    7.5447  -12.3947   19.4493 C   0  0  0  0  0  0  0  0  0  0  0  0
    7.6114  -14.8882   19.2999 C   0  0  2  0  0  0  0  0  0  0  0  0
    6.1630  -15.0397   19.2812 N   0  0  0  0  0  0  0  0  0  0  0  0
    8.2113  -16.1061   19.8819 C   0  0  0  0  0  0  0  0  0  0  0  0
    7.5890  -16.6897   20.8294 O   0  0  0  0  0  0  0  0  0  0  0  0
   10.7296  -18.4882   17.8670 O   0  0  0  0  0  0  0  0  0  0  0  0
    9.9962  -18.9249   18.9656 C   0  0  0  0  0  0  0  0  0  0  0  0
    9.9406  -17.8621   20.0399 C   0  0  2  0  0  0  0  0  0  0  0  0
    9.4427  -16.6488   19.4370 N   0  0  0  0  0  0  0  0  0  0  0  0
   11.2573  -17.6625   20.6861 C   0  0  0  0  0  0  0  0  0  0  0  0
   11.9880  -16.7135   20.3311 O   0  0  0  0  0  0  0  0  0  0  0  0
   11.7271  -18.5350   21.7202 N   0  0  0  0  0  0  0  0  0  0  0  0
   13.0314  -18.4449   22.2960 C   0  0  1  0  0  0  0  0  0  0  0  0
   12.9335  -18.3838   23.8023 C   0  0  0  0  0  0  0  0  0  0  0  0
   12.9401  -17.0316   24.3642 C   0  0  0  0  0  0  0  0  0  0  0  0
   13.3559  -16.0515   23.7052 O   0  0  0  0  0  0  0  0  0  0  0  0
   13.9201  -19.5600   21.8625 C   0  0  0  0  0  0  0  0  0  0  0  0
   15.1368  -19.5969   22.1588 O   0  0  0  0  0  0  0  0  0  0  0  0
   12.4790  -16.7728   25.6612 O   0  0  0  0  0  0  0  0  0  0  0  0
   13.4166  -20.6163   21.1028 O   0  0  0  0  0  0  0  0  0  0  0  0
  1  2  1  0
  2  3  1  0
  3  4  1  6
  5  3  1  0
  5  6  1  1
  7  5  1  0
  7  8  2  0
 10  9  1  0
 11 10  1  6
 11 12  1  0
 12  7  1  0
 13 15  1  0
 13 11  1  0
 14 13  2  0
 16 15  1  0
 16 20  1  0
 16 17  1  1
 18 17  1  0
 18 22  1  0
 19 18  2  0
 20 23  1  0
 21 20  2  0
M  END
$$$$
