ISD.pdb
     RDKit          3D

 23 22  0  0  1  0  0  0  0  0999 V2000
    6.6210  -12.1626   27.7572 C   0  0  0  0  0  0  0  0  0  0  0  0
    6.0610  -13.0525   26.6980 C   0  0  0  0  0  0  0  0  0  0  0  0
    7.0205  -14.0162   26.0873 C   0  0  2  0  0  0  0  0  0  0  0  0
    8.2037  -13.2170   25.5706 C   0  0  0  0  0  0  0  0  0  0  0  0
    6.4344  -14.8975   25.0326 C   0  0  2  0  0  0  0  0  0  0  0  0
    5.3403  -15.6560   25.6235 N   0  0  0  0  0  0  0  0  0  0  0  0
    7.4502  -15.8420   24.5245 C   0  0  0  0  0  0  0  0  0  0  0  0
    7.6301  -16.9320   25.1610 O   0  0  0  0  0  0  0  0  0  0  0  0
   10.5742  -15.0312   21.7071 O   0  0  0  0  0  0  0  0  0  0  0  0
    9.7375  -16.1374   21.5975 C   0  0  0  0  0  0  0  0  0  0  0  0
    9.2138  -16.5598   22.9518 C   0  0  2  0  0  0  0  0  0  0  0  0
    8.2305  -15.5888   23.3687 N   0  0  0  0  0  0  0  0  0  0  0  0
   10.3038  -16.7083   23.9421 C   0  0  0  0  0  0  0  0  0  0  0  0
   10.6077  -15.7491   24.6825 O   0  0  0  0  0  0  0  0  0  0  0  0
   11.0315  -17.9340   24.0809 N   0  0  0  0  0  0  0  0  0  0  0  0
   12.0314  -18.1491   25.0784 C   0  0  1  0  0  0  0  0  0  0  0  0
   11.5271  -19.1182   26.1218 C   0  0  0  0  0  0  0  0  0  0  0  0
   11.8079  -18.7318   27.5061 C   0  0  0  0  0  0  0  0  0  0  0  0
   12.5407  -17.7531   27.7761 O   0  0  0  0  0  0  0  0  0  0  0  0
   13.3219  -18.6140   24.4957 C   0  0  0  0  0  0  0  0  0  0  0  0
   13.3859  -19.1690   23.3743 O   0  0  0  0  0  0  0  0  0  0  0  0
   11.2674  -19.4361   28.5894 O   0  0  0  0  0  0  0  0  0  0  0  0
   14.5192  -18.4410   25.1906 O   0  0  0  0  0  0  0  0  0  0  0  0
  1  2  1  0
  2  3  1  0
  3  4  1  6
  5  3  1  0
  5  6  1  1
  7  5  1  0
  7  8  2  0
 10  9  1  0
 11 10  1  6
 11 12  1  0
 12  7  1  0
 13 15  1  0
 13 11  1  0
 14 13  2  0
 16 15  1  0
 16 20  1  0
 16 17  1  1
 18 17  1  0
 18 22  1  0
 19 18  2  0
 20 23  1  0
 21 20  2  0
M  END
$$$$
