ISD.pdb
     RDKit          3D

 23 22  0  0  1  0  0  0  0  0999 V2000
    6.5101  -11.3701   27.2347 C   0  0  0  0  0  0  0  0  0  0  0  0
    5.8921  -12.5363   26.5379 C   0  0  0  0  0  0  0  0  0  0  0  0
    6.8153  -13.3547   25.7012 C   0  0  2  0  0  0  0  0  0  0  0  0
    7.4557  -12.4254   24.6854 C   0  0  0  0  0  0  0  0  0  0  0  0
    6.1830  -14.5439   25.0541 C   0  0  2  0  0  0  0  0  0  0  0  0
    5.6638  -15.4143   26.1001 N   0  0  0  0  0  0  0  0  0  0  0  0
    7.1796  -15.2924   24.2613 C   0  0  0  0  0  0  0  0  0  0  0  0
    7.9493  -16.1038   24.8736 O   0  0  0  0  0  0  0  0  0  0  0  0
    8.2569  -14.3272   20.3588 O   0  0  0  0  0  0  0  0  0  0  0  0
    8.1484  -15.6762   20.6815 C   0  0  0  0  0  0  0  0  0  0  0  0
    8.3373  -15.8975   22.1655 C   0  0  2  0  0  0  0  0  0  0  0  0
    7.3181  -15.1461   22.8584 N   0  0  0  0  0  0  0  0  0  0  0  0
    9.7000  -15.5266   22.6087 C   0  0  0  0  0  0  0  0  0  0  0  0
    9.8899  -14.4408   23.1966 O   0  0  0  0  0  0  0  0  0  0  0  0
   10.8238  -16.3851   22.3822 N   0  0  0  0  0  0  0  0  0  0  0  0
   11.8000  -16.6864   23.3808 C   0  0  1  0  0  0  0  0  0  0  0  0
   11.1309  -17.2596   24.6080 C   0  0  0  0  0  0  0  0  0  0  0  0
   12.0457  -17.6343   25.6883 C   0  0  0  0  0  0  0  0  0  0  0  0
   13.2783  -17.4323   25.6011 O   0  0  0  0  0  0  0  0  0  0  0  0
   12.8637  -17.6000   22.8756 C   0  0  0  0  0  0  0  0  0  0  0  0
   12.7048  -18.8414   22.8184 O   0  0  0  0  0  0  0  0  0  0  0  0
   11.5838  -18.2314   26.8681 O   0  0  0  0  0  0  0  0  0  0  0  0
   14.0888  -17.0933   22.4411 O   0  0  0  0  0  0  0  0  0  0  0  0
  1  2  1  0
  2  3  1  0
  3  4  1  6
  5  3  1  0
  5  6  1  1
  7  5  1  0
  7  8  2  0
 10  9  1  0
 11 10  1  6
 11 12  1  0
 12  7  1  0
 13 15  1  0
 13 11  1  0
 14 13  2  0
 16 15  1  0
 16 20  1  0
 16 17  1  1
 18 17  1  0
 18 22  1  0
 19 18  2  0
 20 23  1  0
 21 20  2  0
M  END
$$$$
