ISD.pdb
     RDKit          3D

 23 22  0  0  1  0  0  0  0  0999 V2000
    6.7912  -11.5820   27.6939 C   0  0  0  0  0  0  0  0  0  0  0  0
    6.0789  -12.6835   26.9820 C   0  0  0  0  0  0  0  0  0  0  0  0
    6.9170  -13.5154   26.0722 C   0  0  2  0  0  0  0  0  0  0  0  0
    7.5858  -12.5777   25.0828 C   0  0  0  0  0  0  0  0  0  0  0  0
    6.1851  -14.6243   25.3886 C   0  0  2  0  0  0  0  0  0  0  0  0
    5.7348  -15.5701   26.4006 N   0  0  0  0  0  0  0  0  0  0  0  0
    7.0761  -15.3260   24.4422 C   0  0  0  0  0  0  0  0  0  0  0  0
    7.8143  -16.2629   24.8926 O   0  0  0  0  0  0  0  0  0  0  0  0
    8.6511  -15.9462   19.8993 O   0  0  0  0  0  0  0  0  0  0  0  0
    7.8594  -15.2345   20.7951 C   0  0  0  0  0  0  0  0  0  0  0  0
    8.0217  -15.7623   22.2029 C   0  0  2  0  0  0  0  0  0  0  0  0
    7.1474  -15.0025   23.0641 N   0  0  0  0  0  0  0  0  0  0  0  0
    9.4308  -15.7077   22.6528 C   0  0  0  0  0  0  0  0  0  0  0  0
    9.8886  -14.6524   23.1401 O   0  0  0  0  0  0  0  0  0  0  0  0
   10.2986  -16.8420   22.5459 N   0  0  0  0  0  0  0  0  0  0  0  0
   11.6572  -16.8401   22.9876 C   0  0  1  0  0  0  0  0  0  0  0  0
   11.8442  -17.8415   24.1032 C   0  0  0  0  0  0  0  0  0  0  0  0
   13.0438  -17.6371   24.9178 C   0  0  0  0  0  0  0  0  0  0  0  0
   13.8754  -16.7420   24.6441 O   0  0  0  0  0  0  0  0  0  0  0  0
   12.6150  -17.0944   21.8745 C   0  0  0  0  0  0  0  0  0  0  0  0
   13.8558  -17.0885   22.0478 O   0  0  0  0  0  0  0  0  0  0  0  0
   13.3131  -18.4298   26.0406 O   0  0  0  0  0  0  0  0  0  0  0  0
   12.1528  -17.3535   20.5839 O   0  0  0  0  0  0  0  0  0  0  0  0
  1  2  1  0
  2  3  1  0
  3  4  1  6
  5  3  1  0
  5  6  1  1
  7  5  1  0
  7  8  2  0
 10  9  1  0
 11 10  1  6
 11 12  1  0
 12  7  1  0
 13 15  1  0
 13 11  1  0
 14 13  2  0
 16 15  1  0
 16 20  1  0
 16 17  1  1
 18 17  1  0
 18 22  1  0
 19 18  2  0
 20 23  1  0
 21 20  2  0
M  END
$$$$
