ISD.pdb
     RDKit          3D

 23 22  0  0  1  0  0  0  0  0999 V2000
    6.1230  -11.7353   27.3013 C   0  0  0  0  0  0  0  0  0  0  0  0
    5.6752  -12.9369   26.5377 C   0  0  0  0  0  0  0  0  0  0  0  0
    6.7536  -13.7167   25.8660 C   0  0  2  0  0  0  0  0  0  0  0  0
    7.5219  -12.7581   24.9735 C   0  0  0  0  0  0  0  0  0  0  0  0
    6.2808  -14.9219   25.1200 C   0  0  2  0  0  0  0  0  0  0  0  0
    5.5176  -15.7589   26.0357 N   0  0  0  0  0  0  0  0  0  0  0  0
    7.4294  -15.6976   24.6091 C   0  0  0  0  0  0  0  0  0  0  0  0
    7.9660  -16.5581   25.3819 O   0  0  0  0  0  0  0  0  0  0  0  0
    9.5635  -14.8017   21.1763 O   0  0  0  0  0  0  0  0  0  0  0  0
    9.2142  -16.1349   21.3661 C   0  0  0  0  0  0  0  0  0  0  0  0
    8.9764  -16.4320   22.8297 C   0  0  2  0  0  0  0  0  0  0  0  0
    7.9592  -15.5253   23.3058 N   0  0  0  0  0  0  0  0  0  0  0  0
   10.2234  -16.3345   23.6213 C   0  0  0  0  0  0  0  0  0  0  0  0
   10.4422  -15.3198   24.3163 O   0  0  0  0  0  0  0  0  0  0  0  0
   11.2009  -17.3812   23.6160 N   0  0  0  0  0  0  0  0  0  0  0  0
   12.4643  -17.2838   24.2759 C   0  0  1  0  0  0  0  0  0  0  0  0
   13.1182  -15.9597   23.9575 C   0  0  0  0  0  0  0  0  0  0  0  0
   14.1040  -16.0056   22.8757 C   0  0  0  0  0  0  0  0  0  0  0  0
   13.8549  -16.5725   21.7874 O   0  0  0  0  0  0  0  0  0  0  0  0
   12.3510  -17.4842   25.7484 C   0  0  0  0  0  0  0  0  0  0  0  0
   13.3352  -17.8006   26.4561 O   0  0  0  0  0  0  0  0  0  0  0  0
   15.3672  -15.4151   23.0074 O   0  0  0  0  0  0  0  0  0  0  0  0
   11.1262  -17.3208   26.3961 O   0  0  0  0  0  0  0  0  0  0  0  0
  1  2  1  0
  2  3  1  0
  3  4  1  6
  5  3  1  0
  5  6  1  1
  7  5  1  0
  7  8  2  0
 10  9  1  0
 11 10  1  6
 11 12  1  0
 12  7  1  0
 13 15  1  0
 13 11  1  0
 14 13  2  0
 16 15  1  0
 16 20  1  0
 16 17  1  1
 18 17  1  0
 18 22  1  0
 19 18  2  0
 20 23  1  0
 21 20  2  0
M  END
$$$$
