ISD.pdb
     RDKit          3D

 23 22  0  0  1  0  0  0  0  0999 V2000
    7.5340  -11.5609   19.3623 C   0  0  0  0  0  0  0  0  0  0  0  0
    7.9138  -12.8106   18.6401 C   0  0  0  0  0  0  0  0  0  0  0  0
    8.4102  -13.9270   19.4941 C   0  0  2  0  0  0  0  0  0  0  0  0
    9.6282  -13.4200   20.2458 C   0  0  0  0  0  0  0  0  0  0  0  0
    8.6921  -15.1974   18.7596 C   0  0  2  0  0  0  0  0  0  0  0  0
    7.4835  -15.5965   18.0514 N   0  0  0  0  0  0  0  0  0  0  0  0
    9.0674  -16.2689   19.7046 C   0  0  0  0  0  0  0  0  0  0  0  0
    8.1603  -16.7495   20.4607 O   0  0  0  0  0  0  0  0  0  0  0  0
   11.3786  -19.1607   19.0045 O   0  0  0  0  0  0  0  0  0  0  0  0
   10.6274  -19.1290   20.1751 C   0  0  0  0  0  0  0  0  0  0  0  0
   10.6853  -17.7633   20.8219 C   0  0  2  0  0  0  0  0  0  0  0  0
   10.3852  -16.7804   19.8083 N   0  0  0  0  0  0  0  0  0  0  0  0
   11.9936  -17.5147   21.4680 C   0  0  0  0  0  0  0  0  0  0  0  0
   12.9640  -17.1299   20.7818 O   0  0  0  0  0  0  0  0  0  0  0  0
   12.1853  -17.7035   22.8747 N   0  0  0  0  0  0  0  0  0  0  0  0
   13.4557  -17.5953   23.5191 C   0  0  1  0  0  0  0  0  0  0  0  0
   14.0103  -16.2005   23.3476 C   0  0  0  0  0  0  0  0  0  0  0  0
   15.0210  -16.0660   22.2965 C   0  0  0  0  0  0  0  0  0  0  0  0
   15.3424  -17.0342   21.5705 O   0  0  0  0  0  0  0  0  0  0  0  0
   13.3942  -17.9731   24.9594 C   0  0  0  0  0  0  0  0  0  0  0  0
   12.3074  -18.1014   25.5695 O   0  0  0  0  0  0  0  0  0  0  0  0
   15.6706  -14.8492   22.0535 O   0  0  0  0  0  0  0  0  0  0  0  0
   14.5635  -18.2019   25.6852 O   0  0  0  0  0  0  0  0  0  0  0  0
  1  2  1  0
  2  3  1  0
  3  4  1  6
  5  3  1  0
  5  6  1  1
  7  5  1  0
  7  8  2  0
 10  9  1  0
 11 10  1  6
 11 12  1  0
 12  7  1  0
 13 15  1  0
 13 11  1  0
 14 13  2  0
 16 15  1  0
 16 20  1  0
 16 17  1  1
 18 17  1  0
 18 22  1  0
 19 18  2  0
 20 23  1  0
 21 20  2  0
M  END
$$$$
