ISD.pdb
     RDKit          3D

 23 22  0  0  1  0  0  0  0  0999 V2000
    7.6024  -11.6970   19.7600 C   0  0  0  0  0  0  0  0  0  0  0  0
    7.2049  -13.1341   19.6936 C   0  0  0  0  0  0  0  0  0  0  0  0
    7.8657  -14.0354   20.6799 C   0  0  2  0  0  0  0  0  0  0  0  0
    9.3662  -13.8758   20.5105 C   0  0  0  0  0  0  0  0  0  0  0  0
    7.4407  -15.4658   20.6015 C   0  0  2  0  0  0  0  0  0  0  0  0
    5.9884  -15.5195   20.6986 N   0  0  0  0  0  0  0  0  0  0  0  0
    8.0226  -16.2403   21.7166 C   0  0  0  0  0  0  0  0  0  0  0  0
    7.5653  -16.0420   22.8901 O   0  0  0  0  0  0  0  0  0  0  0  0
    9.4645  -19.8375   21.3801 O   0  0  0  0  0  0  0  0  0  0  0  0
    9.2290  -19.2999   22.6415 C   0  0  0  0  0  0  0  0  0  0  0  0
    9.6277  -17.8422   22.6947 C   0  0  2  0  0  0  0  0  0  0  0  0
    9.0631  -17.1863   21.5395 N   0  0  0  0  0  0  0  0  0  0  0  0
   11.0966  -17.6750   22.7669 C   0  0  0  0  0  0  0  0  0  0  0  0
   11.7345  -17.3262   21.7510 O   0  0  0  0  0  0  0  0  0  0  0  0
   11.8204  -17.9034   23.9815 N   0  0  0  0  0  0  0  0  0  0  0  0
   13.2419  -17.8034   24.0832 C   0  0  1  0  0  0  0  0  0  0  0  0
   13.7006  -16.4313   23.6483 C   0  0  0  0  0  0  0  0  0  0  0  0
   15.0570  -16.3823   23.0987 C   0  0  0  0  0  0  0  0  0  0  0  0
   15.7698  -17.4090   23.0238 O   0  0  0  0  0  0  0  0  0  0  0  0
   13.7356  -18.1235   25.4524 C   0  0  0  0  0  0  0  0  0  0  0  0
   12.9929  -18.0657   26.4597 O   0  0  0  0  0  0  0  0  0  0  0  0
   15.6166  -15.1873   22.6291 O   0  0  0  0  0  0  0  0  0  0  0  0
   15.0613  -18.5062   25.6589 O   0  0  0  0  0  0  0  0  0  0  0  0
  1  2  1  0
  2  3  1  0
  3  4  1  6
  5  3  1  0
  5  6  1  1
  7  5  1  0
  7  8  2  0
 10  9  1  0
 11 10  1  6
 11 12  1  0
 12  7  1  0
 13 15  1  0
 13 11  1  0
 14 13  2  0
 16 15  1  0
 16 20  1  0
 16 17  1  1
 18 17  1  0
 18 22  1  0
 19 18  2  0
 20 23  1  0
 21 20  2  0
M  END
$$$$
