ISD.pdb
     RDKit          3D

 23 22  0  0  1  0  0  0  0  0999 V2000
    8.0698  -11.9181   20.6630 C   0  0  0  0  0  0  0  0  0  0  0  0
    7.5711  -13.2159   20.1202 C   0  0  0  0  0  0  0  0  0  0  0  0
    8.2297  -14.4397   20.6594 C   0  0  2  0  0  0  0  0  0  0  0  0
    9.7247  -14.2870   20.4421 C   0  0  0  0  0  0  0  0  0  0  0  0
    7.7097  -15.7254   20.1033 C   0  0  2  0  0  0  0  0  0  0  0  0
    6.2696  -15.7693   20.3170 N   0  0  0  0  0  0  0  0  0  0  0  0
    8.3298  -16.8754   20.7923 C   0  0  0  0  0  0  0  0  0  0  0  0
    7.8952  -17.1898   21.9489 O   0  0  0  0  0  0  0  0  0  0  0  0
   10.7982  -19.5776   18.9120 O   0  0  0  0  0  0  0  0  0  0  0  0
   10.0891  -19.9144   20.0607 C   0  0  0  0  0  0  0  0  0  0  0  0
    9.9546  -18.7253   20.9852 C   0  0  2  0  0  0  0  0  0  0  0  0
    9.3828  -17.6379   20.2275 N   0  0  0  0  0  0  0  0  0  0  0  0
   11.2498  -18.3552   21.5988 C   0  0  0  0  0  0  0  0  0  0  0  0
   12.0536  -17.6345   20.9701 O   0  0  0  0  0  0  0  0  0  0  0  0
   11.6162  -18.8030   22.9089 N   0  0  0  0  0  0  0  0  0  0  0  0
   12.9178  -18.6214   23.4691 C   0  0  1  0  0  0  0  0  0  0  0  0
   12.8233  -17.8639   24.7729 C   0  0  0  0  0  0  0  0  0  0  0  0
   12.2575  -16.5179   24.6619 C   0  0  0  0  0  0  0  0  0  0  0  0
   12.9005  -15.5791   24.1397 O   0  0  0  0  0  0  0  0  0  0  0  0
   13.6411  -19.9116   23.6513 C   0  0  0  0  0  0  0  0  0  0  0  0
   13.0876  -21.0192   23.4604 O   0  0  0  0  0  0  0  0  0  0  0  0
   10.9716  -16.2208   25.1310 O   0  0  0  0  0  0  0  0  0  0  0  0
   14.9797  -19.9272   24.0441 O   0  0  0  0  0  0  0  0  0  0  0  0
  1  2  1  0
  2  3  1  0
  3  4  1  6
  5  3  1  0
  5  6  1  1
  7  5  1  0
  7  8  2  0
 10  9  1  0
 11 10  1  6
 11 12  1  0
 12  7  1  0
 13 15  1  0
 13 11  1  0
 14 13  2  0
 16 15  1  0
 16 20  1  0
 16 17  1  1
 18 17  1  0
 18 22  1  0
 19 18  2  0
 20 23  1  0
 21 20  2  0
M  END
$$$$
