ESC.pdb
     RDKit          3D

 22 21  0  0  1  0  0  0  0  0999 V2000
   19.5315  -12.6994  -16.0822 N   0  0  0  0  0  0  0  0  0  0  0  0
   18.2878  -11.9785  -15.8836 C   0  0  1  0  0  0  0  0  0  0  0  0
   17.2651  -12.9291  -15.3603 C   0  0  0  0  0  0  0  0  0  0  0  0
   16.8279  -13.9754  -16.3353 C   0  0  0  0  0  0  0  0  0  0  0  0
   15.7770  -14.7862  -15.6876 C   0  0  0  0  0  0  0  0  0  0  0  0
   16.0102  -15.9805  -15.4178 O   0  0  0  0  0  0  0  0  0  0  0  0
   18.5474  -10.8198  -15.0269 C   0  0  0  0  0  0  0  0  0  0  0  0
   19.1995  -10.9165  -13.9355 O   0  0  0  0  0  0  0  0  0  0  0  0
   14.5482  -14.2502  -15.3769 O   0  0  0  0  0  0  0  0  0  0  0  0
   17.1178   -6.8398  -15.9319 O   0  0  0  0  0  0  0  0  0  0  0  0
   18.2921   -7.0498  -15.2091 C   0  0  0  0  0  0  0  0  0  0  0  0
   18.2838   -8.3649  -14.4893 C   0  0  2  0  0  0  0  0  0  0  0  0
   18.1023   -9.5013  -15.3303 N   0  0  0  0  0  0  0  0  0  0  0  0
   17.3233   -8.3013  -13.3657 C   0  0  0  0  0  0  0  0  0  0  0  0
   16.1526   -8.6953  -13.5740 O   0  0  0  0  0  0  0  0  0  0  0  0
   17.6550   -7.8215  -12.0748 N   0  0  0  0  0  0  0  0  0  0  0  0
   16.7027   -7.5658  -11.0363 C   0  0  1  0  0  0  0  0  0  0  0  0
   17.3500   -7.2922   -9.7015 C   0  0  0  0  0  0  0  0  0  0  0  0
   16.1536   -7.2970   -8.3547 S   0  0  0  0  0  0  0  0  0  0  0  0
   15.9162   -6.3359  -11.3853 C   0  0  0  0  0  0  0  0  0  0  0  0
   16.5312   -5.2734  -12.0182 O   0  0  0  0  0  0  0  0  0  0  0  0
   14.6973   -6.2355  -11.1180 O   0  0  0  0  0  0  0  0  0  0  0  0
  2  1  1  1
  2  7  1  0
  3  2  1  0
  4  5  1  0
  4  3  1  0
  5  9  1  0
  6  5  2  0
  7 13  1  0
  7  8  2  0
 10 11  1  0
 12 11  1  6
 12 14  1  0
 13 12  1  0
 14 15  2  0
 14 16  1  0
 16 17  1  0
 17 18  1  1
 18 19  1  0
 20 17  1  0
 20 21  1  0
 22 20  2  0
M  END
$$$$
