ESC.pdb
     RDKit          3D

 22 21  0  0  1  0  0  0  0  0999 V2000
   19.8239  -11.8308  -17.8373 N   0  0  0  0  0  0  0  0  0  0  0  0
   20.8571  -10.8236  -17.6818 C   0  0  1  0  0  0  0  0  0  0  0  0
   21.5423  -10.6384  -18.9932 C   0  0  0  0  0  0  0  0  0  0  0  0
   22.2716  -11.8446  -19.4928 C   0  0  0  0  0  0  0  0  0  0  0  0
   22.9140  -11.4863  -20.7735 C   0  0  0  0  0  0  0  0  0  0  0  0
   22.7431  -12.2208  -21.7660 O   0  0  0  0  0  0  0  0  0  0  0  0
   20.2524   -9.6115  -17.1259 C   0  0  0  0  0  0  0  0  0  0  0  0
   19.0878   -9.2184  -17.4650 O   0  0  0  0  0  0  0  0  0  0  0  0
   23.6959  -10.3601  -20.8923 O   0  0  0  0  0  0  0  0  0  0  0  0
   20.1023   -8.2563  -13.3170 O   0  0  0  0  0  0  0  0  0  0  0  0
   20.7067   -7.3419  -14.1797 C   0  0  0  0  0  0  0  0  0  0  0  0
   20.3398   -7.5903  -15.6120 C   0  0  2  0  0  0  0  0  0  0  0  0
   20.8998   -8.7754  -16.1717 N   0  0  0  0  0  0  0  0  0  0  0  0
   20.6172   -6.3730  -16.4060 C   0  0  0  0  0  0  0  0  0  0  0  0
   21.7918   -6.1862  -16.7991 O   0  0  0  0  0  0  0  0  0  0  0  0
   19.6313   -5.4134  -16.7433 N   0  0  0  0  0  0  0  0  0  0  0  0
   19.8854   -4.2204  -17.4936 C   0  0  1  0  0  0  0  0  0  0  0  0
   18.6770   -3.7403  -18.2585 C   0  0  0  0  0  0  0  0  0  0  0  0
   17.9642   -5.0390  -19.2835 S   0  0  0  0  0  0  0  0  0  0  0  0
   20.2531   -3.1155  -16.5465 C   0  0  0  0  0  0  0  0  0  0  0  0
   20.7217   -1.9103  -17.0321 O   0  0  0  0  0  0  0  0  0  0  0  0
   20.1485   -3.2489  -15.3062 O   0  0  0  0  0  0  0  0  0  0  0  0
  2  1  1  6
  2  7  1  0
  3  2  1  0
  4  5  1  0
  4  3  1  0
  5  9  1  0
  6  5  2  0
  7 13  1  0
  7  8  2  0
 10 11  1  0
 12 11  1  1
 12 14  1  0
 13 12  1  0
 14 15  2  0
 14 16  1  0
 16 17  1  0
 17 18  1  1
 18 19  1  0
 20 17  1  0
 20 21  1  0
 22 20  2  0
M  END
$$$$
