ESC.pdb
     RDKit          3D

 22 21  0  0  1  0  0  0  0  0999 V2000
   19.7989  -12.6983  -16.1511 N   0  0  0  0  0  0  0  0  0  0  0  0
   18.5435  -11.9731  -16.0878 C   0  0  1  0  0  0  0  0  0  0  0  0
   17.5116  -12.8602  -15.4783 C   0  0  0  0  0  0  0  0  0  0  0  0
   17.3608  -14.1913  -16.1429 C   0  0  0  0  0  0  0  0  0  0  0  0
   16.2836  -14.9245  -15.4477 C   0  0  0  0  0  0  0  0  0  0  0  0
   15.0987  -14.5858  -15.6346 O   0  0  0  0  0  0  0  0  0  0  0  0
   18.7652  -10.7099  -15.3811 C   0  0  0  0  0  0  0  0  0  0  0  0
   18.0446  -10.3510  -14.3924 O   0  0  0  0  0  0  0  0  0  0  0  0
   16.5618  -15.9718  -14.5995 O   0  0  0  0  0  0  0  0  0  0  0  0
   22.3408   -8.4874  -15.7017 O   0  0  0  0  0  0  0  0  0  0  0  0
   21.4458   -8.3193  -14.6452 C   0  0  0  0  0  0  0  0  0  0  0  0
   20.0250   -8.5419  -15.0686 C   0  0  2  0  0  0  0  0  0  0  0  0
   19.7893   -9.7830  -15.7286 N   0  0  0  0  0  0  0  0  0  0  0  0
   19.5527   -7.3665  -15.8332 C   0  0  0  0  0  0  0  0  0  0  0  0
   19.7362   -7.3626  -17.0723 O   0  0  0  0  0  0  0  0  0  0  0  0
   18.9081   -6.2521  -15.2423 N   0  0  0  0  0  0  0  0  0  0  0  0
   18.4939   -5.0827  -15.9576 C   0  0  1  0  0  0  0  0  0  0  0  0
   17.5790   -4.1952  -15.1509 C   0  0  0  0  0  0  0  0  0  0  0  0
   16.1400   -5.0871  -14.5350 S   0  0  0  0  0  0  0  0  0  0  0  0
   19.7030   -4.2564  -16.2867 C   0  0  0  0  0  0  0  0  0  0  0  0
   20.9553   -4.6565  -15.8632 O   0  0  0  0  0  0  0  0  0  0  0  0
   19.6162   -3.1951  -16.9451 O   0  0  0  0  0  0  0  0  0  0  0  0
  2  1  1  1
  2  7  1  0
  3  2  1  0
  4  5  1  0
  4  3  1  0
  5  9  1  0
  6  5  2  0
  7 13  1  0
  7  8  2  0
 10 11  1  0
 12 11  1  6
 12 14  1  0
 13 12  1  0
 14 15  2  0
 14 16  1  0
 16 17  1  0
 17 18  1  1
 18 19  1  0
 20 17  1  0
 20 21  1  0
 22 20  2  0
M  END
$$$$
