ESC.pdb
     RDKit          3D

 22 21  0  0  1  0  0  0  0  0999 V2000
   23.4303  -10.8614  -17.3518 N   0  0  0  0  0  0  0  0  0  0  0  0
   23.5509   -9.6340  -16.5870 C   0  0  1  0  0  0  0  0  0  0  0  0
   24.7265   -8.8703  -17.0950 C   0  0  0  0  0  0  0  0  0  0  0  0
   26.0366   -9.5792  -16.9626 C   0  0  0  0  0  0  0  0  0  0  0  0
   27.0855   -8.6977  -17.5139 C   0  0  0  0  0  0  0  0  0  0  0  0
   28.2484   -9.1324  -17.6252 O   0  0  0  0  0  0  0  0  0  0  0  0
   22.2766   -8.9153  -16.6471 C   0  0  0  0  0  0  0  0  0  0  0  0
   21.3715   -9.2105  -17.4954 O   0  0  0  0  0  0  0  0  0  0  0  0
   26.8049   -7.4089  -17.9062 O   0  0  0  0  0  0  0  0  0  0  0  0
   20.7365   -6.7041  -13.4310 O   0  0  0  0  0  0  0  0  0  0  0  0
   19.9526   -7.1569  -14.4922 C   0  0  0  0  0  0  0  0  0  0  0  0
   20.6980   -7.1368  -15.7928 C   0  0  2  0  0  0  0  0  0  0  0  0
   21.9382   -7.8391  -15.7777 N   0  0  0  0  0  0  0  0  0  0  0  0
   20.8150   -5.7404  -16.2678 C   0  0  0  0  0  0  0  0  0  0  0  0
   21.7842   -5.0619  -15.8564 O   0  0  0  0  0  0  0  0  0  0  0  0
   19.8948   -5.1335  -17.1576 N   0  0  0  0  0  0  0  0  0  0  0  0
   19.9979   -3.7876  -17.6357 C   0  0  1  0  0  0  0  0  0  0  0  0
   19.3363   -3.5895  -18.9768 C   0  0  0  0  0  0  0  0  0  0  0  0
   20.0731   -4.6235  -20.2549 S   0  0  0  0  0  0  0  0  0  0  0  0
   19.2933   -2.8723  -16.6770 C   0  0  0  0  0  0  0  0  0  0  0  0
   19.7426   -1.5793  -16.4922 O   0  0  0  0  0  0  0  0  0  0  0  0
   18.2920   -3.2457  -16.0250 O   0  0  0  0  0  0  0  0  0  0  0  0
  2  1  1  6
  2  7  1  0
  3  2  1  0
  4  5  1  0
  4  3  1  0
  5  9  1  0
  6  5  2  0
  7 13  1  0
  7  8  2  0
 10 11  1  0
 12 11  1  1
 12 14  1  0
 13 12  1  0
 14 15  2  0
 14 16  1  0
 16 17  1  0
 17 18  1  6
 18 19  1  0
 20 17  1  0
 20 21  1  0
 22 20  2  0
M  END
$$$$
