ESC.pdb
     RDKit          3D

 22 21  0  0  1  0  0  0  0  0999 V2000
   21.1013  -14.3124  -18.4325 N   0  0  0  0  0  0  0  0  0  0  0  0
   20.2174  -13.1699  -18.5722 C   0  0  1  0  0  0  0  0  0  0  0  0
   18.9388  -13.4683  -17.8654 C   0  0  0  0  0  0  0  0  0  0  0  0
   18.1157  -14.5480  -18.4923 C   0  0  0  0  0  0  0  0  0  0  0  0
   16.8770  -14.6897  -17.7007 C   0  0  0  0  0  0  0  0  0  0  0  0
   16.8054  -15.5875  -16.8390 O   0  0  0  0  0  0  0  0  0  0  0  0
   20.9173  -11.9734  -18.1007 C   0  0  0  0  0  0  0  0  0  0  0  0
   21.5776  -11.9601  -17.0099 O   0  0  0  0  0  0  0  0  0  0  0  0
   15.8027  -13.8520  -17.8952 O   0  0  0  0  0  0  0  0  0  0  0  0
   22.6065   -7.4672  -18.9796 O   0  0  0  0  0  0  0  0  0  0  0  0
   21.9049   -8.5741  -19.4573 C   0  0  0  0  0  0  0  0  0  0  0  0
   21.5788   -9.5491  -18.3661 C   0  0  2  0  0  0  0  0  0  0  0  0
   20.9239  -10.7361  -18.8062 N   0  0  0  0  0  0  0  0  0  0  0  0
   20.8610   -8.8457  -17.2803 C   0  0  0  0  0  0  0  0  0  0  0  0
   19.6134   -8.7666  -17.3592 O   0  0  0  0  0  0  0  0  0  0  0  0
   21.5055   -8.2603  -16.1629 N   0  0  0  0  0  0  0  0  0  0  0  0
   20.8305   -7.5494  -15.1190 C   0  0  1  0  0  0  0  0  0  0  0  0
   21.6137   -7.5172  -13.8301 C   0  0  0  0  0  0  0  0  0  0  0  0
   21.7865   -9.1556  -13.1014 S   0  0  0  0  0  0  0  0  0  0  0  0
   20.6478   -6.1200  -15.5390 C   0  0  0  0  0  0  0  0  0  0  0  0
   19.8624   -5.2688  -14.7865 O   0  0  0  0  0  0  0  0  0  0  0  0
   21.1929   -5.6610  -16.5683 O   0  0  0  0  0  0  0  0  0  0  0  0
  2  1  1  1
  2  7  1  0
  3  2  1  0
  4  5  1  0
  4  3  1  0
  5  9  1  0
  6  5  2  0
  7 13  1  0
  7  8  2  0
 10 11  1  0
 12 11  1  6
 12 14  1  0
 13 12  1  0
 14 15  2  0
 14 16  1  0
 16 17  1  0
 17 18  1  1
 18 19  1  0
 20 17  1  0
 20 21  1  0
 22 20  2  0
M  END
$$$$
