ESC.pdb
     RDKit          3D

 22 21  0  0  1  0  0  0  0  0999 V2000
   36.8439  -37.2337   -7.4814 N   0  0  0  0  0  0  0  0  0  0  0  0
   35.8458  -36.3624   -8.0735 C   0  0  1  0  0  0  0  0  0  0  0  0
   35.2994  -37.0243   -9.2928 C   0  0  0  0  0  0  0  0  0  0  0  0
   34.7299  -38.3875   -9.0614 C   0  0  0  0  0  0  0  0  0  0  0  0
   34.0982  -38.8333  -10.3197 C   0  0  0  0  0  0  0  0  0  0  0  0
   33.6962  -40.0093  -10.4150 O   0  0  0  0  0  0  0  0  0  0  0  0
   34.8489  -36.0285   -7.0544 C   0  0  0  0  0  0  0  0  0  0  0  0
   34.7420  -36.6890   -5.9690 O   0  0  0  0  0  0  0  0  0  0  0  0
   33.9449  -37.9778  -11.3867 O   0  0  0  0  0  0  0  0  0  0  0  0
   31.1118  -33.1709   -5.6096 O   0  0  0  0  0  0  0  0  0  0  0  0
   32.0171  -33.5009   -6.6181 C   0  0  0  0  0  0  0  0  0  0  0  0
   32.9730  -34.5733   -6.1893 C   0  0  2  0  0  0  0  0  0  0  0  0
   33.9234  -34.9533   -7.1812 N   0  0  0  0  0  0  0  0  0  0  0  0
   32.2114  -35.7131   -5.6327 C   0  0  0  0  0  0  0  0  0  0  0  0
   31.7660  -36.5663   -6.4344 O   0  0  0  0  0  0  0  0  0  0  0  0
   31.9604  -35.8900   -4.2497 N   0  0  0  0  0  0  0  0  0  0  0  0
   31.1720  -36.9509   -3.6988 C   0  0  1  0  0  0  0  0  0  0  0  0
   31.9690  -37.8730   -2.8100 C   0  0  0  0  0  0  0  0  0  0  0  0
   30.9908  -39.2721   -2.2346 S   0  0  0  0  0  0  0  0  0  0  0  0
   30.0923  -36.3622   -2.8380 C   0  0  0  0  0  0  0  0  0  0  0  0
   28.8773  -37.0063   -2.7085 O   0  0  0  0  0  0  0  0  0  0  0  0
   30.2561  -35.2860   -2.2199 O   0  0  0  0  0  0  0  0  0  0  0  0
  2  1  1  1
  2  7  1  0
  3  2  1  0
  4  5  1  0
  4  3  1  0
  5  9  1  0
  6  5  2  0
  7 13  1  0
  7  8  2  0
 10 11  1  0
 12 11  1  6
 12 14  1  0
 13 12  1  0
 14 15  2  0
 14 16  1  0
 16 17  1  0
 17 18  1  1
 18 19  1  0
 20 17  1  0
 20 21  1  0
 22 20  2  0
M  END
$$$$
