ESC.pdb
     RDKit          3D

 22 21  0  0  1  0  0  0  0  0999 V2000
   19.3613  -13.5855  -15.4763 N   0  0  0  0  0  0  0  0  0  0  0  0
   18.8602  -12.4792  -16.2708 C   0  0  1  0  0  0  0  0  0  0  0  0
   17.5233  -12.8519  -16.8159 C   0  0  0  0  0  0  0  0  0  0  0  0
   17.5604  -13.8283  -17.9479 C   0  0  0  0  0  0  0  0  0  0  0  0
   16.1785  -14.0048  -18.4383 C   0  0  0  0  0  0  0  0  0  0  0  0
   15.5029  -14.9652  -18.0203 O   0  0  0  0  0  0  0  0  0  0  0  0
   18.8749  -11.2665  -15.4503 C   0  0  0  0  0  0  0  0  0  0  0  0
   18.0659  -11.0952  -14.4797 O   0  0  0  0  0  0  0  0  0  0  0  0
   15.6234  -13.1316  -19.3457 O   0  0  0  0  0  0  0  0  0  0  0  0
   22.1401   -8.6373  -15.3284 O   0  0  0  0  0  0  0  0  0  0  0  0
   21.1503   -8.6186  -14.3458 C   0  0  0  0  0  0  0  0  0  0  0  0
   19.8036   -8.9832  -14.8947 C   0  0  2  0  0  0  0  0  0  0  0  0
   19.7793  -10.1862  -15.6587 N   0  0  0  0  0  0  0  0  0  0  0  0
   19.2345   -7.8183  -15.6076 C   0  0  0  0  0  0  0  0  0  0  0  0
   19.4250   -7.7384  -16.8430 O   0  0  0  0  0  0  0  0  0  0  0  0
   18.4901   -6.7947  -14.9713 N   0  0  0  0  0  0  0  0  0  0  0  0
   17.9313   -5.6613  -15.6450 C   0  0  1  0  0  0  0  0  0  0  0  0
   16.6830   -5.1394  -14.9779 C   0  0  0  0  0  0  0  0  0  0  0  0
   15.4418   -6.4270  -14.7615 S   0  0  0  0  0  0  0  0  0  0  0  0
   18.9260   -4.5374  -15.6197 C   0  0  0  0  0  0  0  0  0  0  0  0
   18.6528   -3.3519  -16.2737 O   0  0  0  0  0  0  0  0  0  0  0  0
   20.0174   -4.6371  -15.0146 O   0  0  0  0  0  0  0  0  0  0  0  0
  2  1  1  1
  2  7  1  0
  3  2  1  0
  4  5  1  0
  4  3  1  0
  5  9  1  0
  6  5  2  0
  7 13  1  0
  7  8  2  0
 10 11  1  0
 12 11  1  6
 12 14  1  0
 13 12  1  0
 14 15  2  0
 14 16  1  0
 16 17  1  0
 17 18  1  1
 18 19  1  0
 20 17  1  0
 20 21  1  0
 22 20  2  0
M  END
$$$$
