ESC.pdb
     RDKit          3D

 22 21  0  0  1  0  0  0  0  0999 V2000
   15.4058   -7.5432   -7.8666 N   0  0  0  0  0  0  0  0  0  0  0  0
   15.3008   -8.2006   -9.1562 C   0  0  1  0  0  0  0  0  0  0  0  0
   13.8699   -8.2003   -9.5754 C   0  0  0  0  0  0  0  0  0  0  0  0
   12.9965   -9.1478   -8.8167 C   0  0  0  0  0  0  0  0  0  0  0  0
   12.8894  -10.3930   -9.6036 C   0  0  0  0  0  0  0  0  0  0  0  0
   13.1482  -10.3661  -10.8226 O   0  0  0  0  0  0  0  0  0  0  0  0
   16.2175   -7.5476  -10.0929 C   0  0  0  0  0  0  0  0  0  0  0  0
   16.7136   -6.3956   -9.8637 O   0  0  0  0  0  0  0  0  0  0  0  0
   12.5104  -11.5796   -9.0188 O   0  0  0  0  0  0  0  0  0  0  0  0
   18.8662   -9.3002  -12.9018 O   0  0  0  0  0  0  0  0  0  0  0  0
   17.9452   -8.3745  -13.3922 C   0  0  0  0  0  0  0  0  0  0  0  0
   17.4209   -7.4749  -12.3135 C   0  0  2  0  0  0  0  0  0  0  0  0
   16.6312   -8.1307  -11.3247 N   0  0  0  0  0  0  0  0  0  0  0  0
   16.7479   -6.3112  -12.9316 C   0  0  0  0  0  0  0  0  0  0  0  0
   15.5654   -6.4568  -13.3183 O   0  0  0  0  0  0  0  0  0  0  0  0
   17.3657   -5.0488  -13.1083 N   0  0  0  0  0  0  0  0  0  0  0  0
   16.7686   -3.9440  -13.7964 C   0  0  1  0  0  0  0  0  0  0  0  0
   16.6136   -2.7238  -12.9231 C   0  0  0  0  0  0  0  0  0  0  0  0
   16.0316   -1.2947  -13.8528 S   0  0  0  0  0  0  0  0  0  0  0  0
   17.6576   -3.5385  -14.9359 C   0  0  0  0  0  0  0  0  0  0  0  0
   17.1093   -3.0605  -16.1100 O   0  0  0  0  0  0  0  0  0  0  0  0
   18.9046   -3.6195  -14.8595 O   0  0  0  0  0  0  0  0  0  0  0  0
  2  1  1  1
  2  7  1  0
  3  2  1  0
  4  5  1  0
  4  3  1  0
  5  9  1  0
  6  5  2  0
  7 13  1  0
  7  8  2  0
 10 11  1  0
 12 11  1  6
 12 14  1  0
 13 12  1  0
 14 15  2  0
 14 16  1  0
 16 17  1  0
 17 18  1  1
 18 19  1  0
 20 17  1  0
 20 21  1  0
 22 20  2  0
M  END
$$$$
