ESC.pdb
     RDKit          3D

 22 21  0  0  1  0  0  0  0  0999 V2000
   28.2777  -20.7559  -15.6275 N   0  0  0  0  0  0  0  0  0  0  0  0
   27.7738  -20.0201  -14.4827 C   0  0  1  0  0  0  0  0  0  0  0  0
   27.4901  -18.6186  -14.9051 C   0  0  0  0  0  0  0  0  0  0  0  0
   28.5583  -17.9899  -15.7419 C   0  0  0  0  0  0  0  0  0  0  0  0
   28.2232  -18.2319  -17.1597 C   0  0  0  0  0  0  0  0  0  0  0  0
   27.0388  -18.1212  -17.5321 O   0  0  0  0  0  0  0  0  0  0  0  0
   26.6261  -20.7409  -13.9285 C   0  0  0  0  0  0  0  0  0  0  0  0
   25.9227  -21.5385  -14.6320 O   0  0  0  0  0  0  0  0  0  0  0  0
   29.1906  -18.5765  -18.0757 O   0  0  0  0  0  0  0  0  0  0  0  0
   25.0569  -19.9536  -10.0105 O   0  0  0  0  0  0  0  0  0  0  0  0
   25.0056  -21.2521  -10.5172 C   0  0  0  0  0  0  0  0  0  0  0  0
   25.0647  -21.2758  -12.0151 C   0  0  2  0  0  0  0  0  0  0  0  0
   26.1984  -20.6183  -12.5754 N   0  0  0  0  0  0  0  0  0  0  0  0
   23.7750  -20.8006  -12.5628 C   0  0  0  0  0  0  0  0  0  0  0  0
   23.6872  -19.5946  -12.8897 O   0  0  0  0  0  0  0  0  0  0  0  0
   22.6410  -21.6317  -12.7362 N   0  0  0  0  0  0  0  0  0  0  0  0
   21.3937  -21.1954  -13.2880 C   0  0  1  0  0  0  0  0  0  0  0  0
   20.7576  -22.2264  -14.1870 C   0  0  0  0  0  0  0  0  0  0  0  0
   19.1331  -21.7083  -14.7683 S   0  0  0  0  0  0  0  0  0  0  0  0
   20.4223  -20.9517  -12.1700 C   0  0  0  0  0  0  0  0  0  0  0  0
   19.4657  -19.9618  -12.2830 O   0  0  0  0  0  0  0  0  0  0  0  0
   20.4477  -21.6273  -11.1163 O   0  0  0  0  0  0  0  0  0  0  0  0
  2  1  1  6
  2  7  1  0
  3  2  1  0
  4  5  1  0
  4  3  1  0
  5  9  1  0
  6  5  2  0
  7 13  1  0
  7  8  2  0
 10 11  1  0
 12 11  1  1
 12 14  1  0
 13 12  1  0
 14 15  2  0
 14 16  1  0
 16 17  1  0
 17 18  1  6
 18 19  1  0
 20 17  1  0
 20 21  1  0
 22 20  2  0
M  END
$$$$
