ESC.pdb
     RDKit          3D

 22 21  0  0  1  0  0  0  0  0999 V2000
   15.5246  -11.4259  -11.6041 N   0  0  0  0  0  0  0  0  0  0  0  0
   14.9709  -10.0848  -11.5704 C   0  0  1  0  0  0  0  0  0  0  0  0
   14.7510   -9.6964  -10.1478 C   0  0  0  0  0  0  0  0  0  0  0  0
   13.7406  -10.5267   -9.4225 C   0  0  0  0  0  0  0  0  0  0  0  0
   12.4122   -9.9225   -9.6490 C   0  0  0  0  0  0  0  0  0  0  0  0
   11.6621  -10.4106  -10.5166 O   0  0  0  0  0  0  0  0  0  0  0  0
   15.8544   -9.1923  -12.3234 C   0  0  0  0  0  0  0  0  0  0  0  0
   17.0200   -9.5495  -12.6970 O   0  0  0  0  0  0  0  0  0  0  0  0
   11.9872   -8.8336   -8.9227 O   0  0  0  0  0  0  0  0  0  0  0  0
   14.5189   -5.9810  -14.7514 O   0  0  0  0  0  0  0  0  0  0  0  0
   15.6181   -5.7358  -13.9285 C   0  0  0  0  0  0  0  0  0  0  0  0
   16.2982   -7.0024  -13.5034 C   0  0  2  0  0  0  0  0  0  0  0  0
   15.4976   -7.8659  -12.7003 N   0  0  0  0  0  0  0  0  0  0  0  0
   17.6068   -6.6746  -12.8958 C   0  0  0  0  0  0  0  0  0  0  0  0
   17.6661   -6.5845  -11.6478 O   0  0  0  0  0  0  0  0  0  0  0  0
   18.7891   -6.4584  -13.6456 N   0  0  0  0  0  0  0  0  0  0  0  0
   20.0655   -6.1497  -13.0743 C   0  0  1  0  0  0  0  0  0  0  0  0
   20.9414   -7.3660  -12.9044 C   0  0  0  0  0  0  0  0  0  0  0  0
   22.5847   -6.9386  -12.3023 S   0  0  0  0  0  0  0  0  0  0  0  0
   20.8030   -5.2226  -13.9960 C   0  0  0  0  0  0  0  0  0  0  0  0
   21.8459   -4.4524  -13.5196 O   0  0  0  0  0  0  0  0  0  0  0  0
   20.5012   -5.1195  -15.2066 O   0  0  0  0  0  0  0  0  0  0  0  0
  2  1  1  1
  2  7  1  0
  3  2  1  0
  4  5  1  0
  4  3  1  0
  5  9  1  0
  6  5  2  0
  7 13  1  0
  7  8  2  0
 10 11  1  0
 12 11  1  1
 12 14  1  0
 13 12  1  0
 14 15  2  0
 14 16  1  0
 16 17  1  0
 17 18  1  6
 18 19  1  0
 20 17  1  0
 20 21  1  0
 22 20  2  0
M  END
$$$$
