ESC.pdb
     RDKit          3D

 22 21  0  0  1  0  0  0  0  0999 V2000
   15.0730  -10.7550  -16.7512 N   0  0  0  0  0  0  0  0  0  0  0  0
   15.6543  -10.3364  -15.4891 C   0  0  1  0  0  0  0  0  0  0  0  0
   16.2275  -11.5332  -14.8091 C   0  0  0  0  0  0  0  0  0  0  0  0
   16.3054  -12.7590  -15.6621 C   0  0  0  0  0  0  0  0  0  0  0  0
   16.8319  -13.8580  -14.8278 C   0  0  0  0  0  0  0  0  0  0  0  0
   17.3047  -14.8694  -15.3820 O   0  0  0  0  0  0  0  0  0  0  0  0
   16.6100   -9.2573  -15.7465 C   0  0  0  0  0  0  0  0  0  0  0  0
   17.3473   -9.2388  -16.7866 O   0  0  0  0  0  0  0  0  0  0  0  0
   16.8107  -13.7875  -13.4536 O   0  0  0  0  0  0  0  0  0  0  0  0
   16.5733   -5.6044  -13.5392 O   0  0  0  0  0  0  0  0  0  0  0  0
   17.0381   -5.6986  -14.8510 C   0  0  0  0  0  0  0  0  0  0  0  0
   17.6506   -7.0367  -15.1376 C   0  0  2  0  0  0  0  0  0  0  0  0
   16.7994   -8.1487  -14.8725 N   0  0  0  0  0  0  0  0  0  0  0  0
   18.9663   -7.1260  -14.4667 C   0  0  0  0  0  0  0  0  0  0  0  0
   18.9961   -7.5640  -13.2935 O   0  0  0  0  0  0  0  0  0  0  0  0
   20.1867   -6.7448  -15.0766 N   0  0  0  0  0  0  0  0  0  0  0  0
   21.4560   -6.7373  -14.4135 C   0  0  1  0  0  0  0  0  0  0  0  0
   22.6132   -6.9389  -15.3600 C   0  0  0  0  0  0  0  0  0  0  0  0
   22.4054   -8.4088  -16.3806 S   0  0  0  0  0  0  0  0  0  0  0  0
   21.6642   -5.3974  -13.7699 C   0  0  0  0  0  0  0  0  0  0  0  0
   22.6570   -5.2262  -12.8251 O   0  0  0  0  0  0  0  0  0  0  0  0
   20.9558   -4.4080  -14.0644 O   0  0  0  0  0  0  0  0  0  0  0  0
  2  1  1  6
  2  7  1  0
  3  2  1  0
  4  5  1  0
  4  3  1  0
  5  9  1  0
  6  5  2  0
  7 13  1  0
  7  8  2  0
 10 11  1  0
 12 11  1  1
 12 14  1  0
 13 12  1  0
 14 15  2  0
 14 16  1  0
 16 17  1  0
 17 18  1  6
 18 19  1  0
 20 17  1  0
 20 21  1  0
 22 20  2  0
M  END
$$$$
