NPK.pdb
     RDKit          3D

 25 25  0  0  1  0  0  0  0  0999 V2000
   14.2839  -18.7806    1.5505 N   0  0  0  0  0  0  0  0  0  0  0  0
   13.8638  -18.4482    2.8566 C   0  0  0  0  0  0  0  0  0  0  0  0
   12.6184  -18.5769    3.0885 O   0  0  0  0  0  0  0  0  0  0  0  0
   14.8100  -17.9841    3.8770 C   0  0  0  0  0  0  0  0  0  0  0  0
   16.1670  -17.7807    3.1824 C   0  0  2  0  0  0  0  0  0  0  0  0
   16.5702  -19.0491    2.7038 N   0  0  0  0  0  0  0  0  0  0  0  0
   17.0364  -17.0963    4.1288 C   0  0  0  0  0  0  0  0  0  0  0  0
   17.6443  -17.8155    5.0125 O   0  0  0  0  0  0  0  0  0  0  0  0
   17.3111  -15.7067    4.2088 N   0  0  0  0  0  0  0  0  0  0  0  0
   16.8328  -14.7103    3.3005 C   0  0  0  0  0  0  0  0  0  0  0  0
   16.7517  -13.4564    4.1573 C   0  0  0  0  0  0  0  0  0  0  0  0
   18.1147  -13.5704    4.8569 C   0  0  0  0  0  0  0  0  0  0  0  0
   18.1189  -15.0305    5.2096 C   0  0  1  0  0  0  0  0  0  0  0  0
   17.6416  -15.2964    6.5844 C   0  0  0  0  0  0  0  0  0  0  0  0
   16.4064  -15.4375    6.8061 O   0  0  0  0  0  0  0  0  0  0  0  0
   18.4865  -15.4081    7.7022 N   0  0  0  0  0  0  0  0  0  0  0  0
   18.0412  -15.6896    9.0599 C   0  0  1  0  0  0  0  0  0  0  0  0
   18.7079  -16.8766    9.6414 C   0  0  0  0  0  0  0  0  0  0  0  0
   17.7241  -17.9577    9.9679 C   0  0  0  0  0  0  0  0  0  0  0  0
   18.0187  -19.2578    9.2598 C   0  0  0  0  0  0  0  0  0  0  0  0
   16.9089  -20.2442    9.6152 C   0  0  0  0  0  0  0  0  0  0  0  0
   17.1074  -21.5193    8.9594 N   0  0  0  0  0  0  0  0  0  0  0  0
   18.3422  -14.4936    9.8654 C   0  0  0  0  0  0  0  0  0  0  0  0
   19.1551  -13.5821    9.5476 O   0  0  0  0  0  0  0  0  0  0  0  0
   17.6611  -14.3581   11.0979 O   0  0  0  0  0  0  0  0  0  0  0  0
  1  2  1  0
  2  3  2  0
  4  2  1  0
  5  4  1  0
  5  6  1  1
  7  5  1  0
  7  9  1  0
  8  7  2  0
  9 13  1  0
 10  9  1  0
 10 11  1  0
 11 12  1  0
 13 12  1  0
 13 14  1  1
 14 15  2  0
 16 14  1  0
 17 16  1  0
 17 18  1  1
 19 18  1  0
 20 19  1  0
 20 21  1  0
 22 21  1  0
 23 17  1  0
 24 23  2  0
 25 23  1  0
M  END
$$$$
