NPK.pdb
     RDKit          3D

 25 25  0  0  1  0  0  0  0  0999 V2000
   24.0507  -24.8020  -14.5027 N   0  0  0  0  0  0  0  0  0  0  0  0
   25.2880  -24.6645  -15.1684 C   0  0  0  0  0  0  0  0  0  0  0  0
   25.8023  -25.7416  -15.6118 O   0  0  0  0  0  0  0  0  0  0  0  0
   25.9339  -23.3579  -15.3345 C   0  0  0  0  0  0  0  0  0  0  0  0
   25.0544  -22.3196  -14.6179 C   0  0  2  0  0  0  0  0  0  0  0  0
   24.4539  -21.5325  -15.6279 N   0  0  0  0  0  0  0  0  0  0  0  0
   25.8939  -21.6500  -13.6345 C   0  0  0  0  0  0  0  0  0  0  0  0
   27.0580  -21.2431  -14.0180 O   0  0  0  0  0  0  0  0  0  0  0  0
   25.5924  -21.3783  -12.2751 N   0  0  0  0  0  0  0  0  0  0  0  0
   26.5346  -20.9677  -11.2798 C   0  0  0  0  0  0  0  0  0  0  0  0
   25.6970  -20.1433  -10.3146 C   0  0  0  0  0  0  0  0  0  0  0  0
   24.4932  -21.0901  -10.1922 C   0  0  0  0  0  0  0  0  0  0  0  0
   24.2914  -21.4623  -11.6334 C   0  0  1  0  0  0  0  0  0  0  0  0
   23.2794  -20.6240  -12.3126 C   0  0  0  0  0  0  0  0  0  0  0  0
   23.5518  -19.4286  -12.6153 O   0  0  0  0  0  0  0  0  0  0  0  0
   21.9925  -21.0711  -12.6594 N   0  0  0  0  0  0  0  0  0  0  0  0
   20.9809  -20.2643  -13.3276 C   0  0  1  0  0  0  0  0  0  0  0  0
   21.0298  -20.3984  -14.8011 C   0  0  0  0  0  0  0  0  0  0  0  0
   20.0012  -19.5380  -15.4682 C   0  0  0  0  0  0  0  0  0  0  0  0
   19.3950  -20.1827  -16.6910 C   0  0  0  0  0  0  0  0  0  0  0  0
   18.4986  -19.1484  -17.3674 C   0  0  0  0  0  0  0  0  0  0  0  0
   17.8366  -19.7039  -18.5287 N   0  0  0  0  0  0  0  0  0  0  0  0
   19.6726  -20.7132  -12.8209 C   0  0  0  0  0  0  0  0  0  0  0  0
   18.6202  -20.0172  -12.7924 O   0  0  0  0  0  0  0  0  0  0  0  0
   19.5921  -22.0358  -12.3256 O   0  0  0  0  0  0  0  0  0  0  0  0
  1  2  1  0
  2  3  2  0
  4  2  1  0
  5  4  1  0
  5  6  1  6
  7  5  1  0
  7  9  1  0
  8  7  2  0
  9 13  1  0
 10  9  1  0
 10 11  1  0
 11 12  1  0
 13 12  1  0
 13 14  1  6
 14 15  2  0
 16 14  1  0
 17 16  1  0
 17 18  1  6
 19 18  1  0
 20 19  1  0
 20 21  1  0
 22 21  1  0
 23 17  1  0
 24 23  2  0
 25 23  1  0
M  END
$$$$
