NPK.pdb
     RDKit          3D

 25 25  0  0  1  0  0  0  0  0999 V2000
   25.6640  -24.0601  -11.4362 N   0  0  0  0  0  0  0  0  0  0  0  0
   24.5631  -23.2428  -11.7724 C   0  0  0  0  0  0  0  0  0  0  0  0
   23.4948  -23.4517  -11.1118 O   0  0  0  0  0  0  0  0  0  0  0  0
   24.6532  -22.2191  -12.8190 C   0  0  0  0  0  0  0  0  0  0  0  0
   24.9393  -20.8780  -12.1226 C   0  0  2  0  0  0  0  0  0  0  0  0
   23.8143  -20.5946  -11.3138 N   0  0  0  0  0  0  0  0  0  0  0  0
   25.2964  -19.9216  -13.1608 C   0  0  0  0  0  0  0  0  0  0  0  0
   24.3352  -19.3043  -13.7631 O   0  0  0  0  0  0  0  0  0  0  0  0
   26.5957  -19.5693  -13.6084 N   0  0  0  0  0  0  0  0  0  0  0  0
   27.8244  -19.9722  -12.9963 C   0  0  0  0  0  0  0  0  0  0  0  0
   28.8086  -19.9977  -14.1554 C   0  0  0  0  0  0  0  0  0  0  0  0
   28.4310  -18.6570  -14.8038 C   0  0  0  0  0  0  0  0  0  0  0  0
   26.9323  -18.7433  -14.7555 C   0  0  1  0  0  0  0  0  0  0  0  0
   26.3405  -19.2613  -16.0085 C   0  0  0  0  0  0  0  0  0  0  0  0
   26.2998  -20.5059  -16.2186 O   0  0  0  0  0  0  0  0  0  0  0  0
   25.8009  -18.4464  -17.0189 N   0  0  0  0  0  0  0  0  0  0  0  0
   25.1675  -18.9352  -18.2357 C   0  0  1  0  0  0  0  0  0  0  0  0
   23.9330  -18.1904  -18.5718 C   0  0  0  0  0  0  0  0  0  0  0  0
   22.7117  -18.8815  -18.0485 C   0  0  0  0  0  0  0  0  0  0  0  0
   22.4926  -18.6563  -16.5721 C   0  0  0  0  0  0  0  0  0  0  0  0
   21.2799  -19.4819  -16.1494 C   0  0  0  0  0  0  0  0  0  0  0  0
   21.0742  -19.4211  -14.7178 N   0  0  0  0  0  0  0  0  0  0  0  0
   26.1558  -18.7936  -19.3189 C   0  0  0  0  0  0  0  0  0  0  0  0
   27.0343  -17.8908  -19.3953 O   0  0  0  0  0  0  0  0  0  0  0  0
   26.1142  -19.7515  -20.3590 O   0  0  0  0  0  0  0  0  0  0  0  0
  1  2  1  0
  2  3  2  0
  4  2  1  0
  5  4  1  0
  5  6  1  6
  7  5  1  0
  7  9  1  0
  8  7  2  0
  9 13  1  0
 10  9  1  0
 10 11  1  0
 11 12  1  0
 13 12  1  0
 13 14  1  6
 14 15  2  0
 16 14  1  0
 17 16  1  0
 17 18  1  6
 19 18  1  0
 20 19  1  0
 20 21  1  0
 22 21  1  0
 23 17  1  0
 24 23  2  0
 25 23  1  0
M  END
$$$$
