NPK.pdb
     RDKit          3D

 25 25  0  0  1  0  0  0  0  0999 V2000
   29.1859  -19.4589  -15.6033 N   0  0  0  0  0  0  0  0  0  0  0  0
   27.9998  -18.6933  -15.6155 C   0  0  0  0  0  0  0  0  0  0  0  0
   28.1071  -17.5112  -16.0764 O   0  0  0  0  0  0  0  0  0  0  0  0
   26.7272  -19.2342  -15.1258 C   0  0  0  0  0  0  0  0  0  0  0  0
   26.9936  -20.6743  -14.6565 C   0  0  2  0  0  0  0  0  0  0  0  0
   27.3308  -21.4195  -15.8103 N   0  0  0  0  0  0  0  0  0  0  0  0
   25.8349  -21.0957  -13.8820 C   0  0  0  0  0  0  0  0  0  0  0  0
   24.8106  -21.5413  -14.5301 O   0  0  0  0  0  0  0  0  0  0  0  0
   25.6800  -21.0812  -12.4718 N   0  0  0  0  0  0  0  0  0  0  0  0
   26.6964  -20.7347  -11.5265 C   0  0  0  0  0  0  0  0  0  0  0  0
   25.9128  -20.1739  -10.3500 C   0  0  0  0  0  0  0  0  0  0  0  0
   24.8245  -21.2550  -10.2656 C   0  0  0  0  0  0  0  0  0  0  0  0
   24.4811  -21.4104  -11.7196 C   0  0  1  0  0  0  0  0  0  0  0  0
   23.3210  -20.5906  -12.1324 C   0  0  0  0  0  0  0  0  0  0  0  0
   23.4093  -19.3309  -12.1366 O   0  0  0  0  0  0  0  0  0  0  0  0
   22.0843  -21.1244  -12.5345 N   0  0  0  0  0  0  0  0  0  0  0  0
   20.9788  -20.3493  -13.0802 C   0  0  1  0  0  0  0  0  0  0  0  0
   20.6822  -20.6969  -14.4883 C   0  0  0  0  0  0  0  0  0  0  0  0
   19.4960  -19.9425  -15.0051 C   0  0  0  0  0  0  0  0  0  0  0  0
   19.0778  -20.3756  -16.3892 C   0  0  0  0  0  0  0  0  0  0  0  0
   17.9576  -19.4462  -16.8501 C   0  0  0  0  0  0  0  0  0  0  0  0
   17.5435  -19.7508  -18.2033 N   0  0  0  0  0  0  0  0  0  0  0  0
   19.8054  -20.6226  -12.2326 C   0  0  0  0  0  0  0  0  0  0  0  0
   18.9344  -19.7751  -11.8925 O   0  0  0  0  0  0  0  0  0  0  0  0
   19.6439  -21.9469  -11.7624 O   0  0  0  0  0  0  0  0  0  0  0  0
  1  2  1  0
  2  3  2  0
  4  2  1  0
  5  4  1  0
  5  6  1  6
  7  5  1  0
  7  9  1  0
  8  7  2  0
  9 13  1  0
 10  9  1  0
 10 11  1  0
 11 12  1  0
 13 12  1  0
 13 14  1  6
 14 15  2  0
 16 14  1  0
 17 16  1  0
 17 18  1  6
 19 18  1  0
 20 19  1  0
 20 21  1  0
 22 21  1  0
 23 17  1  0
 24 23  2  0
 25 23  1  0
M  END
$$$$
