NPK.pdb
     RDKit          3D

 25 25  0  0  1  0  0  0  0  0999 V2000
   29.0966  -18.7479  -16.0119 N   0  0  0  0  0  0  0  0  0  0  0  0
   27.8788  -18.6973  -16.7244 C   0  0  0  0  0  0  0  0  0  0  0  0
   27.6608  -17.6246  -17.3748 O   0  0  0  0  0  0  0  0  0  0  0  0
   26.9297  -19.8156  -16.7106 C   0  0  0  0  0  0  0  0  0  0  0  0
   27.5717  -20.9493  -15.8934 C   0  0  2  0  0  0  0  0  0  0  0  0
   28.1787  -21.8245  -16.8239 N   0  0  0  0  0  0  0  0  0  0  0  0
   26.5395  -21.4868  -15.0184 C   0  0  0  0  0  0  0  0  0  0  0  0
   25.5925  -22.1765  -15.5619 O   0  0  0  0  0  0  0  0  0  0  0  0
   26.4354  -21.3491  -13.6102 N   0  0  0  0  0  0  0  0  0  0  0  0
   27.3839  -20.6896  -12.7662 C   0  0  0  0  0  0  0  0  0  0  0  0
   26.5386  -20.1828  -11.6080 C   0  0  0  0  0  0  0  0  0  0  0  0
   25.7181  -21.4561  -11.3511 C   0  0  0  0  0  0  0  0  0  0  0  0
   25.3658  -21.8423  -12.7592 C   0  0  1  0  0  0  0  0  0  0  0  0
   24.0399  -21.3417  -13.1834 C   0  0  0  0  0  0  0  0  0  0  0  0
   23.8793  -20.1134  -13.4288 O   0  0  0  0  0  0  0  0  0  0  0  0
   22.9052  -22.1564  -13.3400 N   0  0  0  0  0  0  0  0  0  0  0  0
   21.6007  -21.6924  -13.7916 C   0  0  1  0  0  0  0  0  0  0  0  0
   20.7262  -22.8012  -14.2358 C   0  0  0  0  0  0  0  0  0  0  0  0
   19.3937  -22.3006  -14.7017 C   0  0  0  0  0  0  0  0  0  0  0  0
   18.4653  -23.4088  -15.1356 C   0  0  0  0  0  0  0  0  0  0  0  0
   17.1377  -22.7730  -15.5410 C   0  0  0  0  0  0  0  0  0  0  0  0
   16.1399  -23.7793  -15.8362 N   0  0  0  0  0  0  0  0  0  0  0  0
   20.9832  -20.9827  -12.6581 C   0  0  0  0  0  0  0  0  0  0  0  0
   21.1076  -21.2966  -11.4420 O   0  0  0  0  0  0  0  0  0  0  0  0
   20.1847  -19.8550  -12.9611 O   0  0  0  0  0  0  0  0  0  0  0  0
  1  2  1  0
  2  3  2  0
  4  2  1  0
  5  4  1  0
  5  6  1  6
  7  5  1  0
  7  9  1  0
  8  7  2  0
  9 13  1  0
 10  9  1  0
 10 11  1  0
 11 12  1  0
 13 12  1  0
 13 14  1  6
 14 15  2  0
 16 14  1  0
 17 16  1  0
 17 18  1  1
 19 18  1  0
 20 19  1  0
 20 21  1  0
 22 21  1  0
 23 17  1  0
 24 23  2  0
 25 23  1  0
M  END
$$$$
