NPK.pdb
     RDKit          3D

 25 25  0  0  1  0  0  0  0  0999 V2000
   14.7993  -12.9349  -17.0262 N   0  0  0  0  0  0  0  0  0  0  0  0
   15.5713  -11.8089  -16.6669 C   0  0  0  0  0  0  0  0  0  0  0  0
   16.0890  -11.1600  -17.6324 O   0  0  0  0  0  0  0  0  0  0  0  0
   15.7601  -11.4180  -15.2657 C   0  0  0  0  0  0  0  0  0  0  0  0
   17.2752  -11.3382  -15.0141 C   0  0  2  0  0  0  0  0  0  0  0  0
   17.7201  -12.6640  -14.8030 N   0  0  0  0  0  0  0  0  0  0  0  0
   17.4840  -10.3668  -13.9498 C   0  0  0  0  0  0  0  0  0  0  0  0
   17.0815  -10.6813  -12.7638 O   0  0  0  0  0  0  0  0  0  0  0  0
   18.0882   -9.0868  -14.0475 N   0  0  0  0  0  0  0  0  0  0  0  0
   18.6190   -8.5062  -15.2425 C   0  0  0  0  0  0  0  0  0  0  0  0
   18.4495   -7.0116  -15.0183 C   0  0  0  0  0  0  0  0  0  0  0  0
   18.9746   -6.9369  -13.5764 C   0  0  0  0  0  0  0  0  0  0  0  0
   18.2865   -8.1283  -12.9736 C   0  0  1  0  0  0  0  0  0  0  0  0
   17.0191   -7.7832  -12.2931 C   0  0  0  0  0  0  0  0  0  0  0  0
   15.9838   -7.5412  -12.9745 O   0  0  0  0  0  0  0  0  0  0  0  0
   16.8731   -7.7009  -10.8974 N   0  0  0  0  0  0  0  0  0  0  0  0
   15.6312   -7.3851  -10.2056 C   0  0  1  0  0  0  0  0  0  0  0  0
   15.6284   -7.8538   -8.8013 C   0  0  0  0  0  0  0  0  0  0  0  0
   14.3834   -7.4347   -8.0819 C   0  0  0  0  0  0  0  0  0  0  0  0
   13.3085   -8.4943   -8.0953 C   0  0  0  0  0  0  0  0  0  0  0  0
   12.1136   -7.9562   -7.3119 C   0  0  0  0  0  0  0  0  0  0  0  0
   11.0688   -8.9513   -7.1953 N   0  0  0  0  0  0  0  0  0  0  0  0
   15.4764   -5.9209  -10.2515 C   0  0  0  0  0  0  0  0  0  0  0  0
   14.3797   -5.2984  -10.2020 O   0  0  0  0  0  0  0  0  0  0  0  0
   16.6580   -5.1506  -10.3600 O   0  0  0  0  0  0  0  0  0  0  0  0
  1  2  1  0
  2  3  2  0
  4  2  1  0
  5  4  1  0
  5  6  1  1
  7  5  1  0
  7  9  1  0
  8  7  2  0
  9 13  1  0
 10  9  1  0
 10 11  1  0
 11 12  1  0
 13 12  1  0
 13 14  1  6
 14 15  2  0
 16 14  1  0
 17 16  1  0
 17 18  1  1
 19 18  1  0
 20 19  1  0
 20 21  1  0
 22 21  1  0
 23 17  1  0
 24 23  2  0
 25 23  1  0
M  END
$$$$
