NPK.pdb
     RDKit          3D

 25 25  0  0  1  0  0  0  0  0999 V2000
   28.6504  -18.7928  -16.9110 N   0  0  0  0  0  0  0  0  0  0  0  0
   27.9842  -18.6720  -15.6722 C   0  0  0  0  0  0  0  0  0  0  0  0
   28.5623  -17.9468  -14.7997 O   0  0  0  0  0  0  0  0  0  0  0  0
   26.7057  -19.3436  -15.4148 C   0  0  0  0  0  0  0  0  0  0  0  0
   27.0224  -20.6733  -14.7099 C   0  0  2  0  0  0  0  0  0  0  0  0
   27.4522  -21.5710  -15.7147 N   0  0  0  0  0  0  0  0  0  0  0  0
   25.8508  -21.0331  -13.9238 C   0  0  0  0  0  0  0  0  0  0  0  0
   24.7679  -21.3282  -14.5627 O   0  0  0  0  0  0  0  0  0  0  0  0
   25.7403  -21.1048  -12.5112 N   0  0  0  0  0  0  0  0  0  0  0  0
   26.8028  -20.8766  -11.5808 C   0  0  0  0  0  0  0  0  0  0  0  0
   26.0878  -20.3550  -10.3441 C   0  0  0  0  0  0  0  0  0  0  0  0
   24.9447  -21.3802  -10.2929 C   0  0  0  0  0  0  0  0  0  0  0  0
   24.5488  -21.4196  -11.7413 C   0  0  1  0  0  0  0  0  0  0  0  0
   23.4234  -20.5137  -12.0599 C   0  0  0  0  0  0  0  0  0  0  0  0
   23.6508  -19.3092  -12.3635 O   0  0  0  0  0  0  0  0  0  0  0  0
   22.0730  -20.9040  -12.0503 N   0  0  0  0  0  0  0  0  0  0  0  0
   21.0207  -20.2876  -12.8463 C   0  0  1  0  0  0  0  0  0  0  0  0
   21.2343  -20.4601  -14.3010 C   0  0  0  0  0  0  0  0  0  0  0  0
   20.0876  -19.9154  -15.0957 C   0  0  0  0  0  0  0  0  0  0  0  0
   20.2301  -20.1556  -16.5791 C   0  0  0  0  0  0  0  0  0  0  0  0
   19.1292  -19.3693  -17.2867 C   0  0  0  0  0  0  0  0  0  0  0  0
   19.1216  -19.6371  -18.7092 N   0  0  0  0  0  0  0  0  0  0  0  0
   19.7529  -20.9189  -12.4416 C   0  0  0  0  0  0  0  0  0  0  0  0
   18.6994  -20.3043  -12.1174 O   0  0  0  0  0  0  0  0  0  0  0  0
   19.7160  -22.3328  -12.4154 O   0  0  0  0  0  0  0  0  0  0  0  0
  1  2  1  0
  2  3  2  0
  4  2  1  0
  5  4  1  0
  5  6  1  6
  7  5  1  0
  7  9  1  0
  8  7  2  0
  9 13  1  0
 10  9  1  0
 10 11  1  0
 11 12  1  0
 13 12  1  0
 13 14  1  1
 14 15  2  0
 16 14  1  0
 17 16  1  0
 17 18  1  6
 19 18  1  0
 20 19  1  0
 20 21  1  0
 22 21  1  0
 23 17  1  0
 24 23  2  0
 25 23  1  0
M  END
$$$$
