NPK.pdb
     RDKit          3D

 25 25  0  0  1  0  0  0  0  0999 V2000
   18.6770   -8.9725  -17.8345 N   0  0  0  0  0  0  0  0  0  0  0  0
   17.4182   -9.0925  -17.2069 C   0  0  0  0  0  0  0  0  0  0  0  0
   16.4057   -8.8790  -17.9488 O   0  0  0  0  0  0  0  0  0  0  0  0
   17.2937   -9.4419  -15.7877 C   0  0  0  0  0  0  0  0  0  0  0  0
   18.7100   -9.7323  -15.2631 C   0  0  2  0  0  0  0  0  0  0  0  0
   18.9481  -11.1090  -15.4832 N   0  0  0  0  0  0  0  0  0  0  0  0
   18.7727   -9.2352  -13.8960 C   0  0  0  0  0  0  0  0  0  0  0  0
   17.9017   -9.6838  -13.0546 O   0  0  0  0  0  0  0  0  0  0  0  0
   19.6897   -8.2988  -13.3528 N   0  0  0  0  0  0  0  0  0  0  0  0
   20.7296   -7.6358  -14.0779 C   0  0  0  0  0  0  0  0  0  0  0  0
   20.8957   -6.3177  -13.3377 C   0  0  0  0  0  0  0  0  0  0  0  0
   20.8975   -6.8623  -11.9011 C   0  0  0  0  0  0  0  0  0  0  0  0
   19.7560   -7.8356  -11.9771 C   0  0  1  0  0  0  0  0  0  0  0  0
   18.4720   -7.2605  -11.5198 C   0  0  0  0  0  0  0  0  0  0  0  0
   17.8311   -6.4735  -12.2712 O   0  0  0  0  0  0  0  0  0  0  0  0
   17.8898   -7.5320  -10.2695 N   0  0  0  0  0  0  0  0  0  0  0  0
   16.5713   -7.0801   -9.8473 C   0  0  1  0  0  0  0  0  0  0  0  0
   15.7598   -8.1687   -9.2575 C   0  0  0  0  0  0  0  0  0  0  0  0
   14.3668   -7.7136   -8.9484 C   0  0  0  0  0  0  0  0  0  0  0  0
   13.4704   -8.8332   -8.4780 C   0  0  0  0  0  0  0  0  0  0  0  0
   12.0853   -8.2447   -8.2207 C   0  0  0  0  0  0  0  0  0  0  0  0
   11.1240   -9.2793   -7.9027 N   0  0  0  0  0  0  0  0  0  0  0  0
   16.7828   -6.0113   -8.8558 C   0  0  0  0  0  0  0  0  0  0  0  0
   17.7443   -5.9482   -8.0409 O   0  0  0  0  0  0  0  0  0  0  0  0
   15.8265   -4.9696   -8.8166 O   0  0  0  0  0  0  0  0  0  0  0  0
  1  2  1  0
  2  3  2  0
  4  2  1  0
  5  4  1  0
  5  6  1  1
  7  5  1  0
  7  9  1  0
  8  7  2  0
  9 13  1  0
 10  9  1  0
 10 11  1  0
 11 12  1  0
 13 12  1  0
 13 14  1  6
 14 15  2  0
 16 14  1  0
 17 16  1  0
 17 18  1  1
 19 18  1  0
 20 19  1  0
 20 21  1  0
 22 21  1  0
 23 17  1  0
 24 23  2  0
 25 23  1  0
M  END
$$$$
