NPK.pdb
     RDKit          3D

 25 25  0  0  1  0  0  0  0  0999 V2000
   18.3658  -13.6144  -18.4267 N   0  0  0  0  0  0  0  0  0  0  0  0
   17.9105  -12.2806  -18.5098 C   0  0  0  0  0  0  0  0  0  0  0  0
   16.9951  -12.0592  -19.3668 O   0  0  0  0  0  0  0  0  0  0  0  0
   18.4632  -11.2220  -17.6580 C   0  0  0  0  0  0  0  0  0  0  0  0
   18.9386  -11.8863  -16.3549 C   0  0  2  0  0  0  0  0  0  0  0  0
   17.7993  -12.4827  -15.7663 N   0  0  0  0  0  0  0  0  0  0  0  0
   19.6543  -10.8734  -15.5920 C   0  0  0  0  0  0  0  0  0  0  0  0
   18.9595   -9.9299  -15.0490 O   0  0  0  0  0  0  0  0  0  0  0  0
   21.0512  -10.7854  -15.3603 N   0  0  0  0  0  0  0  0  0  0  0  0
   22.0300  -11.7275  -15.8086 C   0  0  0  0  0  0  0  0  0  0  0  0
   23.2852  -10.8852  -15.9759 C   0  0  0  0  0  0  0  0  0  0  0  0
   23.2116  -10.1028  -14.6558 C   0  0  0  0  0  0  0  0  0  0  0  0
   21.7539   -9.7413  -14.6339 C   0  0  1  0  0  0  0  0  0  0  0  0
   21.4813   -8.3967  -15.1874 C   0  0  0  0  0  0  0  0  0  0  0  0
   21.3203   -8.2482  -16.4310 O   0  0  0  0  0  0  0  0  0  0  0  0
   21.3844   -7.2307  -14.4083 N   0  0  0  0  0  0  0  0  0  0  0  0
   21.0458   -5.9104  -14.9212 C   0  0  1  0  0  0  0  0  0  0  0  0
   19.6516   -5.5211  -14.6109 C   0  0  0  0  0  0  0  0  0  0  0  0
   19.3118   -4.1805  -15.1858 C   0  0  0  0  0  0  0  0  0  0  0  0
   17.9150   -3.7259  -14.8387 C   0  0  0  0  0  0  0  0  0  0  0  0
   17.6839   -2.3745  -15.5107 C   0  0  0  0  0  0  0  0  0  0  0  0
   16.3696   -1.8514  -15.2038 N   0  0  0  0  0  0  0  0  0  0  0  0
   21.9868   -4.9584  -14.3061 C   0  0  0  0  0  0  0  0  0  0  0  0
   22.4940   -5.0696  -13.1559 O   0  0  0  0  0  0  0  0  0  0  0  0
   22.3507   -3.8257  -15.0715 O   0  0  0  0  0  0  0  0  0  0  0  0
  1  2  1  0
  2  3  2  0
  4  2  1  0
  5  4  1  0
  5  6  1  1
  7  5  1  0
  7  9  1  0
  8  7  2  0
  9 13  1  0
 10  9  1  0
 10 11  1  0
 11 12  1  0
 13 12  1  0
 13 14  1  6
 14 15  2  0
 16 14  1  0
 17 16  1  0
 17 18  1  1
 19 18  1  0
 20 19  1  0
 20 21  1  0
 22 21  1  0
 23 17  1  0
 24 23  2  0
 25 23  1  0
M  END
$$$$
