NPK.pdb
     RDKit          3D

 25 25  0  0  1  0  0  0  0  0999 V2000
   20.0052  -10.6549  -19.1053 N   0  0  0  0  0  0  0  0  0  0  0  0
   20.6919   -9.8354  -18.1835 C   0  0  0  0  0  0  0  0  0  0  0  0
   21.9132  -10.1324  -17.9795 O   0  0  0  0  0  0  0  0  0  0  0  0
   20.0317   -8.7135  -17.5073 C   0  0  0  0  0  0  0  0  0  0  0  0
   20.0980   -8.9887  -15.9956 C   0  0  2  0  0  0  0  0  0  0  0  0
   19.2543  -10.0967  -15.7492 N   0  0  0  0  0  0  0  0  0  0  0  0
   19.8006   -7.7354  -15.3167 C   0  0  0  0  0  0  0  0  0  0  0  0
   18.5709   -7.3415  -15.2973 O   0  0  0  0  0  0  0  0  0  0  0  0
   20.7083   -6.8681  -14.6558 N   0  0  0  0  0  0  0  0  0  0  0  0
   22.0983   -7.1274  -14.4385 C   0  0  0  0  0  0  0  0  0  0  0  0
   22.7190   -5.7394  -14.4058 C   0  0  0  0  0  0  0  0  0  0  0  0
   21.6953   -5.0541  -13.4877 C   0  0  0  0  0  0  0  0  0  0  0  0
   20.4131   -5.5683  -14.0772 C   0  0  1  0  0  0  0  0  0  0  0  0
   19.8154   -4.6416  -15.0633 C   0  0  0  0  0  0  0  0  0  0  0  0
   20.3210   -4.5361  -16.2157 O   0  0  0  0  0  0  0  0  0  0  0  0
   18.6884   -3.8413  -14.8076 N   0  0  0  0  0  0  0  0  0  0  0  0
   18.0518   -2.9620  -15.7785 C   0  0  1  0  0  0  0  0  0  0  0  0
   16.5916   -3.1855  -15.8751 C   0  0  0  0  0  0  0  0  0  0  0  0
   15.9609   -2.2827  -16.8902 C   0  0  0  0  0  0  0  0  0  0  0  0
   14.4637   -2.4511  -16.9812 C   0  0  0  0  0  0  0  0  0  0  0  0
   13.9508   -1.4918  -18.0524 C   0  0  0  0  0  0  0  0  0  0  0  0
   12.5326   -1.6683  -18.2824 N   0  0  0  0  0  0  0  0  0  0  0  0
   18.3259   -1.5801  -15.3483 C   0  0  0  0  0  0  0  0  0  0  0  0
   18.3711   -0.5724  -16.1066 O   0  0  0  0  0  0  0  0  0  0  0  0
   18.5571   -1.3680  -13.9689 O   0  0  0  0  0  0  0  0  0  0  0  0
  1  2  1  0
  2  3  2  0
  4  2  1  0
  5  4  1  0
  5  6  1  1
  7  5  1  0
  7  9  1  0
  8  7  2  0
  9 13  1  0
 10  9  1  0
 10 11  1  0
 11 12  1  0
 13 12  1  0
 13 14  1  6
 14 15  2  0
 16 14  1  0
 17 16  1  0
 17 18  1  1
 19 18  1  0
 20 19  1  0
 20 21  1  0
 22 21  1  0
 23 17  1  0
 24 23  2  0
 25 23  1  0
M  END
$$$$
