NPK.pdb
     RDKit          3D

 25 25  0  0  1  0  0  0  0  0999 V2000
   25.2722  -14.0847  -20.4296 N   0  0  0  0  0  0  0  0  0  0  0  0
   24.3443  -13.0396  -20.6288 C   0  0  0  0  0  0  0  0  0  0  0  0
   24.2181  -12.6307  -21.8280 O   0  0  0  0  0  0  0  0  0  0  0  0
   23.5774  -12.4664  -19.5175 C   0  0  0  0  0  0  0  0  0  0  0  0
   24.0309  -13.1809  -18.2334 C   0  0  2  0  0  0  0  0  0  0  0  0
   23.3274  -14.4068  -18.1830 N   0  0  0  0  0  0  0  0  0  0  0  0
   23.8545  -12.2429  -17.1338 C   0  0  0  0  0  0  0  0  0  0  0  0
   22.6712  -12.1258  -16.6299 O   0  0  0  0  0  0  0  0  0  0  0  0
   24.8379  -11.4198  -16.5271 N   0  0  0  0  0  0  0  0  0  0  0  0
   26.2390  -11.4473  -16.8151 C   0  0  0  0  0  0  0  0  0  0  0  0
   26.6898  -10.0232  -16.5295 C   0  0  0  0  0  0  0  0  0  0  0  0
   25.9696   -9.8215  -15.1875 C   0  0  0  0  0  0  0  0  0  0  0  0
   24.6233  -10.4043  -15.5102 C   0  0  1  0  0  0  0  0  0  0  0  0
   23.6381   -9.3868  -15.9373 C   0  0  0  0  0  0  0  0  0  0  0  0
   23.7399   -8.8504  -17.0761 O   0  0  0  0  0  0  0  0  0  0  0  0
   22.5596   -8.9556  -15.1456 N   0  0  0  0  0  0  0  0  0  0  0  0
   21.5042   -8.0566  -15.5915 C   0  0  1  0  0  0  0  0  0  0  0  0
   20.1588   -8.6661  -15.4904 C   0  0  0  0  0  0  0  0  0  0  0  0
   19.0836   -7.6976  -15.8766 C   0  0  0  0  0  0  0  0  0  0  0  0
   17.6926   -8.2397  -15.6536 C   0  0  0  0  0  0  0  0  0  0  0  0
   16.7023   -7.1116  -15.9324 C   0  0  0  0  0  0  0  0  0  0  0  0
   15.3350   -7.5597  -15.7742 N   0  0  0  0  0  0  0  0  0  0  0  0
   21.5807   -6.8538  -14.7447 C   0  0  0  0  0  0  0  0  0  0  0  0
   21.9985   -6.8216  -13.5542 O   0  0  0  0  0  0  0  0  0  0  0  0
   21.1494   -5.6339  -15.3166 O   0  0  0  0  0  0  0  0  0  0  0  0
  1  2  1  0
  2  3  2  0
  4  2  1  0
  5  4  1  0
  5  6  1  1
  7  5  1  0
  7  9  1  0
  8  7  2  0
  9 13  1  0
 10  9  1  0
 10 11  1  0
 11 12  1  0
 13 12  1  0
 13 14  1  6
 14 15  2  0
 16 14  1  0
 17 16  1  0
 17 18  1  1
 19 18  1  0
 20 19  1  0
 20 21  1  0
 22 21  1  0
 23 17  1  0
 24 23  2  0
 25 23  1  0
M  END
$$$$
