NPK.pdb
     RDKit          3D

 25 25  0  0  1  0  0  0  0  0999 V2000
   28.4386  -17.4977  -18.4996 N   0  0  0  0  0  0  0  0  0  0  0  0
   27.1185  -17.2349  -18.0738 C   0  0  0  0  0  0  0  0  0  0  0  0
   26.6357  -16.1103  -18.4252 O   0  0  0  0  0  0  0  0  0  0  0  0
   26.3578  -18.2029  -17.2762 C   0  0  0  0  0  0  0  0  0  0  0  0
   27.2245  -19.4664  -17.1435 C   0  0  2  0  0  0  0  0  0  0  0  0
   27.0358  -20.2123  -18.3302 N   0  0  0  0  0  0  0  0  0  0  0  0
   26.8785  -20.0942  -15.8761 C   0  0  0  0  0  0  0  0  0  0  0  0
   25.6875  -20.5779  -15.7523 O   0  0  0  0  0  0  0  0  0  0  0  0
   27.7000  -20.2489  -14.7299 N   0  0  0  0  0  0  0  0  0  0  0  0
   29.0744  -19.8635  -14.6329 C   0  0  0  0  0  0  0  0  0  0  0  0
   29.2518  -19.5444  -13.1566 C   0  0  0  0  0  0  0  0  0  0  0  0
   28.5350  -20.7707  -12.5711 C   0  0  0  0  0  0  0  0  0  0  0  0
   27.3177  -20.8202  -13.4496 C   0  0  1  0  0  0  0  0  0  0  0  0
   26.1481  -20.1332  -12.8593 C   0  0  0  0  0  0  0  0  0  0  0  0
   26.0121  -18.8858  -13.0018 O   0  0  0  0  0  0  0  0  0  0  0  0
   25.1410  -20.7846  -12.1263 N   0  0  0  0  0  0  0  0  0  0  0  0
   23.9413  -20.1440  -11.6054 C   0  0  1  0  0  0  0  0  0  0  0  0
   22.8202  -20.1669  -12.5720 C   0  0  0  0  0  0  0  0  0  0  0  0
   22.1675  -21.5137  -12.6286 C   0  0  0  0  0  0  0  0  0  0  0  0
   20.6905  -21.4677  -12.3212 C   0  0  0  0  0  0  0  0  0  0  0  0
   20.1226  -22.8663  -12.5504 C   0  0  0  0  0  0  0  0  0  0  0  0
   18.7345  -22.9439  -12.1473 N   0  0  0  0  0  0  0  0  0  0  0  0
   23.5678  -20.8688  -10.3786 C   0  0  0  0  0  0  0  0  0  0  0  0
   24.0559  -21.9696  -10.0010 O   0  0  0  0  0  0  0  0  0  0  0  0
   22.5790  -20.2789   -9.5568 O   0  0  0  0  0  0  0  0  0  0  0  0
  1  2  1  0
  2  3  2  0
  4  2  1  0
  5  4  1  0
  5  6  1  6
  7  5  1  0
  7  9  1  0
  8  7  2  0
  9 13  1  0
 10  9  1  0
 10 11  1  0
 11 12  1  0
 13 12  1  0
 13 14  1  1
 14 15  2  0
 16 14  1  0
 17 16  1  0
 17 18  1  6
 19 18  1  0
 20 19  1  0
 20 21  1  0
 22 21  1  0
 23 17  1  0
 24 23  2  0
 25 23  1  0
M  END
$$$$
