NPK.pdb
     RDKit          3D

 25 25  0  0  1  0  0  0  0  0999 V2000
   19.3339   -8.3423  -17.7656 N   0  0  0  0  0  0  0  0  0  0  0  0
   18.0543   -7.9978  -17.2788 C   0  0  0  0  0  0  0  0  0  0  0  0
   17.3561   -7.2485  -18.0353 O   0  0  0  0  0  0  0  0  0  0  0  0
   17.5674   -8.4777  -15.9809 C   0  0  0  0  0  0  0  0  0  0  0  0
   18.7007   -9.2992  -15.3436 C   0  0  2  0  0  0  0  0  0  0  0  0
   18.5016  -10.6410  -15.7438 N   0  0  0  0  0  0  0  0  0  0  0  0
   18.6993   -9.0008  -13.9185 C   0  0  0  0  0  0  0  0  0  0  0  0
   17.7455   -9.4973  -13.2031 O   0  0  0  0  0  0  0  0  0  0  0  0
   19.6332   -8.2164  -13.1936 N   0  0  0  0  0  0  0  0  0  0  0  0
   20.7735   -7.5552  -13.7497 C   0  0  0  0  0  0  0  0  0  0  0  0
   20.9721   -6.3568  -12.8347 C   0  0  0  0  0  0  0  0  0  0  0  0
   20.8174   -7.0735  -11.4846 C   0  0  0  0  0  0  0  0  0  0  0  0
   19.6195   -7.9340  -11.7683 C   0  0  1  0  0  0  0  0  0  0  0  0
   18.3467   -7.3177  -11.3341 C   0  0  0  0  0  0  0  0  0  0  0  0
   17.8268   -6.3948  -12.0216 O   0  0  0  0  0  0  0  0  0  0  0  0
   17.6466   -7.6933  -10.1745 N   0  0  0  0  0  0  0  0  0  0  0  0
   16.3436   -7.1748   -9.7817 C   0  0  1  0  0  0  0  0  0  0  0  0
   15.5848   -8.1258   -8.9383 C   0  0  0  0  0  0  0  0  0  0  0  0
   14.2464   -7.5751   -8.5527 C   0  0  0  0  0  0  0  0  0  0  0  0
   13.1197   -8.5560   -8.7688 C   0  0  0  0  0  0  0  0  0  0  0  0
   11.8395   -7.9216   -8.2306 C   0  0  0  0  0  0  0  0  0  0  0  0
   10.7326   -8.8537   -8.2702 N   0  0  0  0  0  0  0  0  0  0  0  0
   16.5862   -5.9238   -9.0427 C   0  0  0  0  0  0  0  0  0  0  0  0
   17.6064   -5.6721   -8.3438 O   0  0  0  0  0  0  0  0  0  0  0  0
   15.5905   -4.9224   -9.1257 O   0  0  0  0  0  0  0  0  0  0  0  0
  1  2  1  0
  2  3  2  0
  4  2  1  0
  5  4  1  0
  5  6  1  1
  7  5  1  0
  7  9  1  0
  8  7  2  0
  9 13  1  0
 10  9  1  0
 10 11  1  0
 11 12  1  0
 13 12  1  0
 13 14  1  6
 14 15  2  0
 16 14  1  0
 17 16  1  0
 17 18  1  1
 19 18  1  0
 20 19  1  0
 20 21  1  0
 22 21  1  0
 23 17  1  0
 24 23  2  0
 25 23  1  0
M  END
$$$$
