NPK.pdb
     RDKit          3D

 25 25  0  0  1  0  0  0  0  0999 V2000
   28.3124  -16.3523  -17.0147 N   0  0  0  0  0  0  0  0  0  0  0  0
   27.5317  -17.3298  -17.6692 C   0  0  0  0  0  0  0  0  0  0  0  0
   27.4969  -17.2527  -18.9397 O   0  0  0  0  0  0  0  0  0  0  0  0
   26.8089  -18.3660  -16.9239 C   0  0  0  0  0  0  0  0  0  0  0  0
   27.7804  -19.5399  -16.7154 C   0  0  2  0  0  0  0  0  0  0  0  0
   27.8450  -20.2344  -17.9458 N   0  0  0  0  0  0  0  0  0  0  0  0
   27.3281  -20.2690  -15.5390 C   0  0  0  0  0  0  0  0  0  0  0  0
   26.1670  -20.8319  -15.5925 O   0  0  0  0  0  0  0  0  0  0  0  0
   28.0140  -20.4473  -14.3100 N   0  0  0  0  0  0  0  0  0  0  0  0
   29.3378  -19.9880  -14.0216 C   0  0  0  0  0  0  0  0  0  0  0  0
   29.3144  -19.7534  -12.5192 C   0  0  0  0  0  0  0  0  0  0  0  0
   28.6156  -21.0548  -12.0967 C   0  0  0  0  0  0  0  0  0  0  0  0
   27.5191  -21.1205  -13.1211 C   0  0  1  0  0  0  0  0  0  0  0  0
   26.2437  -20.5429  -12.6434 C   0  0  0  0  0  0  0  0  0  0  0  0
   26.1057  -19.2895  -12.5763 O   0  0  0  0  0  0  0  0  0  0  0  0
   25.1345  -21.3087  -12.2442 N   0  0  0  0  0  0  0  0  0  0  0  0
   23.8776  -20.7627  -11.7513 C   0  0  1  0  0  0  0  0  0  0  0  0
   22.6988  -21.4886  -12.2757 C   0  0  0  0  0  0  0  0  0  0  0  0
   21.4186  -20.9128  -11.7535 C   0  0  0  0  0  0  0  0  0  0  0  0
   20.2036  -21.7128  -12.1560 C   0  0  0  0  0  0  0  0  0  0  0  0
   18.9680  -20.9662  -11.6590 C   0  0  0  0  0  0  0  0  0  0  0  0
   17.7530  -21.6825  -11.9848 N   0  0  0  0  0  0  0  0  0  0  0  0
   23.9178  -20.8559  -10.2818 C   0  0  0  0  0  0  0  0  0  0  0  0
   24.5405  -21.7319   -9.6203 O   0  0  0  0  0  0  0  0  0  0  0  0
   23.1973  -19.8802   -9.5537 O   0  0  0  0  0  0  0  0  0  0  0  0
  1  2  1  0
  2  3  2  0
  4  2  1  0
  5  4  1  0
  5  6  1  6
  7  5  1  0
  7  9  1  0
  8  7  2  0
  9 13  1  0
 10  9  1  0
 10 11  1  0
 11 12  1  0
 13 12  1  0
 13 14  1  1
 14 15  2  0
 16 14  1  0
 17 16  1  0
 17 18  1  6
 19 18  1  0
 20 19  1  0
 20 21  1  0
 22 21  1  0
 23 17  1  0
 24 23  2  0
 25 23  1  0
M  END
$$$$
