NPK.pdb
     RDKit          3D

 25 25  0  0  1  0  0  0  0  0999 V2000
   24.0075  -21.3502  -16.2655 N   0  0  0  0  0  0  0  0  0  0  0  0
   24.1337  -21.8136  -14.9380 C   0  0  0  0  0  0  0  0  0  0  0  0
   25.2551  -22.3362  -14.6369 O   0  0  0  0  0  0  0  0  0  0  0  0
   23.0359  -21.6964  -13.9722 C   0  0  0  0  0  0  0  0  0  0  0  0
   21.8622  -21.0150  -14.6956 C   0  0  2  0  0  0  0  0  0  0  0  0
   22.0430  -19.6215  -14.5356 N   0  0  0  0  0  0  0  0  0  0  0  0
   20.6366  -21.6111  -14.1831 C   0  0  0  0  0  0  0  0  0  0  0  0
   20.3558  -21.4259  -12.9363 O   0  0  0  0  0  0  0  0  0  0  0  0
   19.6852  -22.3883  -14.8928 N   0  0  0  0  0  0  0  0  0  0  0  0
   19.7235  -22.6748  -16.2940 C   0  0  0  0  0  0  0  0  0  0  0  0
   19.0233  -24.0204  -16.4020 C   0  0  0  0  0  0  0  0  0  0  0  0
   17.8188  -23.7234  -15.4958 C   0  0  0  0  0  0  0  0  0  0  0  0
   18.5032  -23.0355  -14.3493 C   0  0  1  0  0  0  0  0  0  0  0  0
   18.8316  -23.9520  -13.2355 C   0  0  0  0  0  0  0  0  0  0  0  0
   19.8199  -24.7322  -13.3322 O   0  0  0  0  0  0  0  0  0  0  0  0
   18.1028  -24.0241  -12.0356 N   0  0  0  0  0  0  0  0  0  0  0  0
   18.4102  -24.9144  -10.9249 C   0  0  1  0  0  0  0  0  0  0  0  0
   18.0714  -24.3215   -9.6114 C   0  0  0  0  0  0  0  0  0  0  0  0
   18.3016  -25.2902   -8.4926 C   0  0  0  0  0  0  0  0  0  0  0  0
   18.0032  -24.7048   -7.1337 C   0  0  0  0  0  0  0  0  0  0  0  0
   18.2140  -25.8044   -6.0957 C   0  0  0  0  0  0  0  0  0  0  0  0
   18.1727  -25.2733   -4.7497 N   0  0  0  0  0  0  0  0  0  0  0  0
   17.6352  -26.1486  -11.1390 C   0  0  0  0  0  0  0  0  0  0  0  0
   18.0094  -27.3122  -10.8247 O   0  0  0  0  0  0  0  0  0  0  0  0
   16.3652  -26.0153  -11.7478 O   0  0  0  0  0  0  0  0  0  0  0  0
  1  2  1  0
  2  3  2  0
  4  2  1  0
  5  4  1  0
  5  6  1  1
  7  5  1  0
  7  9  1  0
  8  7  2  0
  9 13  1  0
 10  9  1  0
 10 11  1  0
 11 12  1  0
 13 12  1  0
 13 14  1  1
 14 15  2  0
 16 14  1  0
 17 16  1  0
 17 18  1  1
 19 18  1  0
 20 19  1  0
 20 21  1  0
 22 21  1  0
 23 17  1  0
 24 23  2  0
 25 23  1  0
M  END
$$$$
