NPK.pdb
     RDKit          3D

 25 25  0  0  1  0  0  0  0  0999 V2000
   28.2667  -15.9055  -16.8445 N   0  0  0  0  0  0  0  0  0  0  0  0
   27.0223  -15.8197  -16.1833 C   0  0  0  0  0  0  0  0  0  0  0  0
   26.8542  -14.7939  -15.4480 O   0  0  0  0  0  0  0  0  0  0  0  0
   25.9927  -16.8529  -16.3395 C   0  0  0  0  0  0  0  0  0  0  0  0
   26.5731  -17.9404  -17.2590 C   0  0  2  0  0  0  0  0  0  0  0  0
   26.3846  -17.4902  -18.5864 N   0  0  0  0  0  0  0  0  0  0  0  0
   25.9625  -19.2037  -16.8698 C   0  0  0  0  0  0  0  0  0  0  0  0
   24.7122  -19.3747  -17.1440 O   0  0  0  0  0  0  0  0  0  0  0  0
   26.5775  -20.3003  -16.2124 N   0  0  0  0  0  0  0  0  0  0  0  0
   27.9660  -20.4004  -15.8826 C   0  0  0  0  0  0  0  0  0  0  0  0
   27.9755  -21.2844  -14.6451 C   0  0  0  0  0  0  0  0  0  0  0  0
   27.0042  -22.3699  -15.1335 C   0  0  0  0  0  0  0  0  0  0  0  0
   25.9327  -21.5186  -15.7525 C   0  0  1  0  0  0  0  0  0  0  0  0
   24.8083  -21.2412  -14.8321 C   0  0  0  0  0  0  0  0  0  0  0  0
   25.0154  -20.6145  -13.7555 O   0  0  0  0  0  0  0  0  0  0  0  0
   23.4804  -21.6352  -15.0718 N   0  0  0  0  0  0  0  0  0  0  0  0
   22.3873  -21.5085  -14.1180 C   0  0  1  0  0  0  0  0  0  0  0  0
   21.5541  -20.3100  -14.3652 C   0  0  0  0  0  0  0  0  0  0  0  0
   20.3620  -20.2701  -13.4594 C   0  0  0  0  0  0  0  0  0  0  0  0
   19.5023  -19.0471  -13.6683 C   0  0  0  0  0  0  0  0  0  0  0  0
   18.4072  -19.0597  -12.6045 C   0  0  0  0  0  0  0  0  0  0  0  0
   17.6350  -17.8356  -12.6287 N   0  0  0  0  0  0  0  0  0  0  0  0
   21.5700  -22.7279  -14.2395 C   0  0  0  0  0  0  0  0  0  0  0  0
   21.4298  -23.4140  -15.2894 O   0  0  0  0  0  0  0  0  0  0  0  0
   20.8864  -23.1643  -13.0804 O   0  0  0  0  0  0  0  0  0  0  0  0
  1  2  1  0
  2  3  2  0
  4  2  1  0
  5  4  1  0
  5  6  1  6
  7  5  1  0
  7  9  1  0
  8  7  2  0
  9 13  1  0
 10  9  1  0
 10 11  1  0
 11 12  1  0
 13 12  1  0
 13 14  1  1
 14 15  2  0
 16 14  1  0
 17 16  1  0
 17 18  1  6
 19 18  1  0
 20 19  1  0
 20 21  1  0
 22 21  1  0
 23 17  1  0
 24 23  2  0
 25 23  1  0
M  END
$$$$
