RFE.pdb
     RDKit          3D

 32 32  0  0  1  0  0  0  0  0999 V2000
    6.8817  -14.7904   16.5306 N   0  0  0  0  0  0  0  0  0  0  0  0
    7.7834  -13.6866   16.3946 C   0  0  0  0  0  0  0  0  0  0  0  0
    8.1625  -13.3390   15.2091 N   0  0  0  0  0  0  0  0  0  0  0  0
    8.2408  -13.0017   17.5454 N   0  0  0  0  0  0  0  0  0  0  0  0
    7.9785  -13.5536   18.8445 C   0  0  0  0  0  0  0  0  0  0  0  0
    7.3629  -14.9260   18.6814 C   0  0  0  0  0  0  0  0  0  0  0  0
    6.9626  -15.4477   20.0548 C   0  0  0  0  0  0  0  0  0  0  0  0
    8.1661  -16.1174   20.6333 C   0  0  2  0  0  0  0  0  0  0  0  0
    7.9934  -17.5462   20.7954 N   0  0  0  0  0  0  0  0  0  0  0  0
    8.6185  -15.4995   21.9191 C   0  0  0  0  0  0  0  0  0  0  0  0
    9.4773  -14.5877   21.8732 O   0  0  0  0  0  0  0  0  0  0  0  0
    8.8398  -12.5637   15.0635 N   0  0  0  0  0  0  0  0  0  0  0  0
    8.1042  -15.9162   23.1760 C   0  0  1  0  0  0  0  0  0  0  0  0
    8.5636  -15.4967   24.4605 C   0  0  0  0  0  0  0  0  0  0  0  0
    7.4768  -14.9270   25.3756 C   0  0  0  0  0  0  0  0  0  0  0  0
    8.0946  -14.3442   26.5697 C   0  0  0  0  0  0  0  0  0  0  0  0
    8.4539  -15.2104   27.5932 C   0  0  0  0  0  0  0  0  0  0  0  0
    9.0233  -14.7156   28.7458 C   0  0  0  0  0  0  0  0  0  0  0  0
    9.2429  -13.3728   28.9001 C   0  0  0  0  0  0  0  0  0  0  0  0
    8.8898  -12.5191   27.8941 C   0  0  0  0  0  0  0  0  0  0  0  0
    8.3096  -13.0105   26.7174 C   0  0  0  0  0  0  0  0  0  0  0  0
    9.4554  -16.4405   25.1258 O   0  0  0  0  0  0  0  0  0  0  0  0
    8.9591  -17.5598   25.4935 N   0  0  0  0  0  0  0  0  0  0  0  0
   10.8172  -16.2367   25.4036 C   0  0  1  0  0  0  0  0  0  0  0  0
   11.7360  -17.2806   25.8675 C   0  0  0  0  0  0  0  0  0  0  0  0
   13.1082  -17.0675   25.3470 C   0  0  0  0  0  0  0  0  0  0  0  0
   13.1412  -17.1571   23.8491 C   0  0  0  0  0  0  0  0  0  0  0  0
   14.4829  -16.7242   23.3224 O   0  0  0  0  0  0  0  0  0  0  0  0
   14.6541  -16.7180   22.0894 C   0  0  0  0  0  0  0  0  0  0  0  0
   11.6381  -17.3427   27.3384 O   0  0  0  0  0  0  0  0  0  0  0  0
   12.3349  -18.3643   28.0325 O   0  0  0  0  0  0  0  0  0  0  0  0
   15.4384  -16.3609   24.2582 O   0  0  0  0  0  0  0  0  0  0  0  0
  2  3  2  0
  2  1  1  0
  4  2  1  0
  5  4  1  0
  6  5  1  0
  7  8  1  0
  7  6  1  0
  8  9  1  1
 10 11  2  0
 10  8  1  0
 12 10  1  0
 13 12  1  0
 13 21  1  0
 13 14  1  1
 15 14  1  0
 16 15  2  0
 17 16  1  0
 18 17  2  0
 18 19  1  0
 19 20  2  0
 20 15  1  0
 21 23  1  0
 22 21  2  0
 23 24  1  0
 24 25  1  1
 24 29  1  0
 26 27  1  0
 26 25  1  0
 27 28  2  0
 29 32  2  0
 29 30  1  0
 31 27  1  0
M  END
$$$$
