RFE.pdb
     RDKit          3D

 32 32  0  0  1  0  0  0  0  0999 V2000
    8.3408  -12.3195   17.4194 N   0  0  0  0  0  0  0  0  0  0  0  0
    7.7493  -13.5445   16.9727 C   0  0  0  0  0  0  0  0  0  0  0  0
    7.8983  -13.8893   15.7362 N   0  0  0  0  0  0  0  0  0  0  0  0
    7.0193  -14.3488   17.8796 N   0  0  0  0  0  0  0  0  0  0  0  0
    7.2322  -14.1907   19.2905 C   0  0  0  0  0  0  0  0  0  0  0  0
    8.7141  -14.2890   19.5790 C   0  0  0  0  0  0  0  0  0  0  0  0
    8.9302  -14.1408   21.0790 C   0  0  0  0  0  0  0  0  0  0  0  0
    8.9676  -15.5202   21.6514 C   0  0  2  0  0  0  0  0  0  0  0  0
    7.7613  -16.2753   21.3826 N   0  0  0  0  0  0  0  0  0  0  0  0
    9.2766  -15.5382   23.1156 C   0  0  0  0  0  0  0  0  0  0  0  0
   10.3877  -15.1004   23.4963 O   0  0  0  0  0  0  0  0  0  0  0  0
    7.6267  -14.8357   15.4022 N   0  0  0  0  0  0  0  0  0  0  0  0
    8.3521  -16.0336   24.0736 C   0  0  1  0  0  0  0  0  0  0  0  0
    8.5484  -16.0983   25.4858 C   0  0  0  0  0  0  0  0  0  0  0  0
    7.3400  -15.6688   26.3214 C   0  0  0  0  0  0  0  0  0  0  0  0
    7.1092  -14.2319   26.1506 C   0  0  0  0  0  0  0  0  0  0  0  0
    7.9531  -13.3621   26.8276 C   0  0  0  0  0  0  0  0  0  0  0  0
    7.7720  -12.0011   26.7167 C   0  0  0  0  0  0  0  0  0  0  0  0
    6.7652  -11.4874   25.9434 C   0  0  0  0  0  0  0  0  0  0  0  0
    5.9339  -12.3417   25.2769 C   0  0  0  0  0  0  0  0  0  0  0  0
    6.1081  -13.7279   25.3821 C   0  0  0  0  0  0  0  0  0  0  0  0
    9.1810  -17.3258   25.9566 O   0  0  0  0  0  0  0  0  0  0  0  0
    8.4689  -18.3876   25.9681 N   0  0  0  0  0  0  0  0  0  0  0  0
   10.5069  -17.4550   26.4019 C   0  0  1  0  0  0  0  0  0  0  0  0
   11.1399  -18.7250   26.7699 C   0  0  0  0  0  0  0  0  0  0  0  0
   12.4709  -18.8736   26.1330 C   0  0  0  0  0  0  0  0  0  0  0  0
   13.0989  -20.1900   26.4874 C   0  0  0  0  0  0  0  0  0  0  0  0
   14.4543  -20.3195   25.8461 O   0  0  0  0  0  0  0  0  0  0  0  0
   14.5811  -19.9494   24.6643 C   0  0  0  0  0  0  0  0  0  0  0  0
   11.1491  -18.8112   28.2429 O   0  0  0  0  0  0  0  0  0  0  0  0
   10.7082  -17.6967   29.0007 O   0  0  0  0  0  0  0  0  0  0  0  0
   15.4714  -20.8465   26.6261 O   0  0  0  0  0  0  0  0  0  0  0  0
  2  3  2  0
  2  1  1  0
  4  2  1  0
  5  4  1  0
  6  5  1  0
  7  8  1  0
  7  6  1  0
  8  9  1  1
 10 11  2  0
 10  8  1  0
 12 10  1  0
 13 12  1  0
 13 21  1  0
 13 14  1  1
 15 14  1  0
 16 15  2  0
 17 16  1  0
 18 17  2  0
 18 19  1  0
 19 20  2  0
 20 15  1  0
 21 23  1  0
 22 21  2  0
 23 24  1  0
 24 25  1  1
 24 29  1  0
 26 27  1  0
 26 25  1  0
 27 28  2  0
 29 32  2  0
 29 30  1  0
 31 27  1  0
M  END
$$$$
