RFE.pdb
     RDKit          3D

 32 32  0  0  1  0  0  0  0  0999 V2000
   10.9732  -17.8086   15.0697 N   0  0  0  0  0  0  0  0  0  0  0  0
    9.7381  -18.4917   15.3102 C   0  0  0  0  0  0  0  0  0  0  0  0
    9.0343  -18.8742   14.2961 N   0  0  0  0  0  0  0  0  0  0  0  0
    9.3116  -18.7345   16.6374 N   0  0  0  0  0  0  0  0  0  0  0  0
   10.1624  -18.3586   17.7308 C   0  0  0  0  0  0  0  0  0  0  0  0
    9.8861  -16.9168   18.0967 C   0  0  0  0  0  0  0  0  0  0  0  0
   10.6220  -16.5916   19.3895 C   0  0  0  0  0  0  0  0  0  0  0  0
    9.7871  -17.1203   20.5099 C   0  0  2  0  0  0  0  0  0  0  0  0
    8.4279  -17.4184   20.1085 N   0  0  0  0  0  0  0  0  0  0  0  0
    9.7904  -16.2302   21.7130 C   0  0  0  0  0  0  0  0  0  0  0  0
   10.8868  -15.9788   22.2661 O   0  0  0  0  0  0  0  0  0  0  0  0
    8.1064  -19.3262   14.4214 N   0  0  0  0  0  0  0  0  0  0  0  0
    8.5951  -15.6695   22.2372 C   0  0  2  0  0  0  0  0  0  0  0  0
    8.4581  -14.9731   23.4755 C   0  0  0  0  0  0  0  0  0  0  0  0
    7.3169  -13.9537   23.5150 C   0  0  0  0  0  0  0  0  0  0  0  0
    7.2944  -13.2906   24.8215 C   0  0  0  0  0  0  0  0  0  0  0  0
    6.3882  -13.7592   25.7628 C   0  0  0  0  0  0  0  0  0  0  0  0
    6.3121  -13.1626   27.0020 C   0  0  0  0  0  0  0  0  0  0  0  0
    7.1221  -12.1063   27.3237 C   0  0  0  0  0  0  0  0  0  0  0  0
    8.0141  -11.6438   26.3987 C   0  0  0  0  0  0  0  0  0  0  0  0
    8.1004  -12.2423   25.1349 C   0  0  0  0  0  0  0  0  0  0  0  0
    8.5294  -15.8203   24.6612 O   0  0  0  0  0  0  0  0  0  0  0  0
    7.5163  -16.5557   24.9205 N   0  0  0  0  0  0  0  0  0  0  0  0
    9.6118  -15.9068   25.5523 C   0  0  1  0  0  0  0  0  0  0  0  0
    9.8789  -17.0529   26.4266 C   0  0  0  0  0  0  0  0  0  0  0  0
   10.7468  -18.0541   25.7605 C   0  0  0  0  0  0  0  0  0  0  0  0
   11.0747  -19.1899   26.6853 C   0  0  0  0  0  0  0  0  0  0  0  0
   11.8668  -20.2473   25.9647 O   0  0  0  0  0  0  0  0  0  0  0  0
   12.8484  -19.8860   25.2897 C   0  0  0  0  0  0  0  0  0  0  0  0
   10.4073  -16.5307   27.7014 O   0  0  0  0  0  0  0  0  0  0  0  0
   10.4739  -15.1277   27.8962 O   0  0  0  0  0  0  0  0  0  0  0  0
   11.4409  -21.5585   26.1070 O   0  0  0  0  0  0  0  0  0  0  0  0
  2  3  2  0
  2  1  1  0
  4  2  1  0
  5  4  1  0
  6  5  1  0
  7  8  1  0
  7  6  1  0
  8  9  1  6
 10 11  2  0
 10  8  1  0
 12 10  1  0
 13 12  1  0
 13 21  1  0
 13 14  1  6
 15 14  1  0
 16 15  2  0
 17 16  1  0
 18 17  2  0
 18 19  1  0
 19 20  2  0
 20 15  1  0
 21 23  1  0
 22 21  2  0
 23 24  1  0
 24 25  1  1
 24 29  1  0
 26 27  1  0
 26 25  1  0
 27 28  2  0
 29 32  2  0
 29 30  1  0
 31 27  1  0
M  END
$$$$
