RFE.pdb
     RDKit          3D

 32 32  0  0  1  0  0  0  0  0999 V2000
    7.4933  -13.5540   13.7805 N   0  0  0  0  0  0  0  0  0  0  0  0
    8.1782  -14.7092   14.2769 C   0  0  0  0  0  0  0  0  0  0  0  0
    8.2200  -15.7691   13.5388 N   0  0  0  0  0  0  0  0  0  0  0  0
    8.7909  -14.6739   15.5519 N   0  0  0  0  0  0  0  0  0  0  0  0
    8.0085  -14.9715   16.7182 C   0  0  0  0  0  0  0  0  0  0  0  0
    7.3729  -13.6949   17.2237 C   0  0  0  0  0  0  0  0  0  0  0  0
    8.1098  -13.2463   18.4784 C   0  0  0  0  0  0  0  0  0  0  0  0
    8.3162  -14.4633   19.3199 C   0  0  2  0  0  0  0  0  0  0  0  0
    7.2400  -15.4245   19.1953 N   0  0  0  0  0  0  0  0  0  0  0  0
    8.5630  -14.1435   20.7609 C   0  0  0  0  0  0  0  0  0  0  0  0
    9.4854  -13.3437   21.0450 O   0  0  0  0  0  0  0  0  0  0  0  0
    8.7306  -16.6215   13.8451 N   0  0  0  0  0  0  0  0  0  0  0  0
    7.7865  -14.7176   21.8027 C   0  0  1  0  0  0  0  0  0  0  0  0
    7.9118  -14.4496   23.1990 C   0  0  0  0  0  0  0  0  0  0  0  0
    6.6495  -13.8911   23.8605 C   0  0  0  0  0  0  0  0  0  0  0  0
    6.9557  -13.4742   25.2315 C   0  0  0  0  0  0  0  0  0  0  0  0
    6.9084  -14.4451   26.2225 C   0  0  0  0  0  0  0  0  0  0  0  0
    7.1711  -14.1062   27.5315 C   0  0  0  0  0  0  0  0  0  0  0  0
    7.4807  -12.8171   27.8746 C   0  0  0  0  0  0  0  0  0  0  0  0
    7.5275  -11.8606   26.9008 C   0  0  0  0  0  0  0  0  0  0  0  0
    7.2619  -12.1931   25.5660 C   0  0  0  0  0  0  0  0  0  0  0  0
    8.5566  -15.5097   23.9665 O   0  0  0  0  0  0  0  0  0  0  0  0
    7.9168  -16.6079   24.1055 N   0  0  0  0  0  0  0  0  0  0  0  0
    9.8219  -15.4400   24.5723 C   0  0  1  0  0  0  0  0  0  0  0  0
   10.6527  -16.6033   24.8978 C   0  0  0  0  0  0  0  0  0  0  0  0
   12.0397  -16.4370   24.4001 C   0  0  0  0  0  0  0  0  0  0  0  0
   12.9103  -17.5837   24.8244 C   0  0  0  0  0  0  0  0  0  0  0  0
   14.3125  -17.4027   24.3085 O   0  0  0  0  0  0  0  0  0  0  0  0
   14.8431  -16.2836   24.4338 C   0  0  0  0  0  0  0  0  0  0  0  0
   10.5438  -16.8397   26.3501 O   0  0  0  0  0  0  0  0  0  0  0  0
   10.5532  -18.1728   26.8335 O   0  0  0  0  0  0  0  0  0  0  0  0
   14.9157  -18.5062   23.7261 O   0  0  0  0  0  0  0  0  0  0  0  0
  2  3  2  0
  2  1  1  0
  4  2  1  0
  5  4  1  0
  6  5  1  0
  7  8  1  0
  7  6  1  0
  8  9  1  1
 10 11  2  0
 10  8  1  0
 12 10  1  0
 13 12  1  0
 13 21  1  0
 13 14  1  1
 15 14  1  0
 16 15  2  0
 17 16  1  0
 18 17  2  0
 18 19  1  0
 19 20  2  0
 20 15  1  0
 21 23  1  0
 22 21  2  0
 23 24  1  0
 24 25  1  1
 24 29  1  0
 26 27  1  0
 26 25  1  0
 27 28  2  0
 29 32  2  0
 29 30  1  0
 31 27  1  0
M  END
$$$$
