RFE.pdb
     RDKit          3D

 32 32  0  0  1  0  0  0  0  0999 V2000
    8.6083  -13.0091   17.2822 N   0  0  0  0  0  0  0  0  0  0  0  0
    8.4546  -13.9666   16.2288 C   0  0  0  0  0  0  0  0  0  0  0  0
    7.9586  -13.5734   15.1022 N   0  0  0  0  0  0  0  0  0  0  0  0
    8.8426  -15.3118   16.4343 N   0  0  0  0  0  0  0  0  0  0  0  0
    8.3348  -16.0257   17.5715 C   0  0  0  0  0  0  0  0  0  0  0  0
    9.0267  -15.5214   18.8189 C   0  0  0  0  0  0  0  0  0  0  0  0
    9.9933  -16.5917   19.3075 C   0  0  0  0  0  0  0  0  0  0  0  0
    9.3646  -17.2331   20.5012 C   0  0  2  0  0  0  0  0  0  0  0  0
    8.0081  -17.6764   20.2546 N   0  0  0  0  0  0  0  0  0  0  0  0
    9.4155  -16.3713   21.7237 C   0  0  0  0  0  0  0  0  0  0  0  0
   10.5308  -15.9498   22.1105 O   0  0  0  0  0  0  0  0  0  0  0  0
    7.8510  -14.2274   14.3010 N   0  0  0  0  0  0  0  0  0  0  0  0
    8.2442  -16.0230   22.4480 C   0  0  1  0  0  0  0  0  0  0  0  0
    8.1887  -15.2600   23.6528 C   0  0  0  0  0  0  0  0  0  0  0  0
    6.9189  -14.4224   23.8234 C   0  0  0  0  0  0  0  0  0  0  0  0
    7.0536  -13.5583   24.9992 C   0  0  0  0  0  0  0  0  0  0  0  0
    6.3476  -13.9138   26.1403 C   0  0  0  0  0  0  0  0  0  0  0  0
    6.4240  -13.1289   27.2697 C   0  0  0  0  0  0  0  0  0  0  0  0
    7.1911  -11.9945   27.2859 C   0  0  0  0  0  0  0  0  0  0  0  0
    7.8862  -11.6432   26.1640 C   0  0  0  0  0  0  0  0  0  0  0  0
    7.8161  -12.4334   25.0092 C   0  0  0  0  0  0  0  0  0  0  0  0
    8.5751  -15.9914   24.8546 O   0  0  0  0  0  0  0  0  0  0  0  0
    7.8054  -16.9362   25.2412 N   0  0  0  0  0  0  0  0  0  0  0  0
    9.7197  -15.7562   25.6341 C   0  0  1  0  0  0  0  0  0  0  0  0
   10.2372  -16.6779   26.6499 C   0  0  0  0  0  0  0  0  0  0  0  0
   11.7052  -16.8504   26.5301 C   0  0  0  0  0  0  0  0  0  0  0  0
   12.0696  -17.5241   25.2393 C   0  0  0  0  0  0  0  0  0  0  0  0
   13.5131  -17.2690   24.8982 O   0  0  0  0  0  0  0  0  0  0  0  0
   14.3733  -17.5281   25.7599 C   0  0  0  0  0  0  0  0  0  0  0  0
    9.7792  -16.1963   27.9673 O   0  0  0  0  0  0  0  0  0  0  0  0
    9.1019  -14.9532   28.0487 O   0  0  0  0  0  0  0  0  0  0  0  0
   13.7809  -16.7595   23.6376 O   0  0  0  0  0  0  0  0  0  0  0  0
  2  3  2  0
  2  1  1  0
  4  2  1  0
  5  4  1  0
  6  5  1  0
  7  8  1  0
  7  6  1  0
  8  9  1  6
 10 11  2  0
 10  8  1  0
 12 10  1  0
 13 12  1  0
 13 21  1  0
 13 14  1  6
 15 14  1  0
 16 15  2  0
 17 16  1  0
 18 17  2  0
 18 19  1  0
 19 20  2  0
 20 15  1  0
 21 23  1  0
 22 21  2  0
 23 24  1  0
 24 25  1  1
 24 29  1  0
 26 27  1  0
 26 25  1  0
 27 28  2  0
 29 32  2  0
 29 30  1  0
 31 27  1  0
M  END
$$$$
