RFE.pdb
     RDKit          3D

 32 32  0  0  1  0  0  0  0  0999 V2000
    8.2612  -12.7641   16.4638 N   0  0  0  0  0  0  0  0  0  0  0  0
    8.8593  -13.9110   17.0777 C   0  0  0  0  0  0  0  0  0  0  0  0
    9.6049  -13.7380   18.1189 N   0  0  0  0  0  0  0  0  0  0  0  0
    8.6286  -15.2003   16.5421 N   0  0  0  0  0  0  0  0  0  0  0  0
    9.3451  -16.3238   17.0763 C   0  0  0  0  0  0  0  0  0  0  0  0
    8.7246  -16.7205   18.3979 C   0  0  0  0  0  0  0  0  0  0  0  0
    9.6358  -16.2529   19.5248 C   0  0  0  0  0  0  0  0  0  0  0  0
    9.2542  -17.0291   20.7429 C   0  0  2  0  0  0  0  0  0  0  0  0
    7.9861  -17.7141   20.6010 N   0  0  0  0  0  0  0  0  0  0  0  0
    9.2614  -16.2019   21.9901 C   0  0  0  0  0  0  0  0  0  0  0  0
   10.3274  -15.6321   22.3219 O   0  0  0  0  0  0  0  0  0  0  0  0
   10.1533  -14.5211   18.5276 N   0  0  0  0  0  0  0  0  0  0  0  0
    8.1030  -16.0484   22.7978 C   0  0  1  0  0  0  0  0  0  0  0  0
    8.0335  -15.3923   24.0633 C   0  0  0  0  0  0  0  0  0  0  0  0
    6.6920  -14.7191   24.3637 C   0  0  0  0  0  0  0  0  0  0  0  0
    6.7942  -13.9515   25.6077 C   0  0  0  0  0  0  0  0  0  0  0  0
    7.0362  -12.5887   25.5020 C   0  0  0  0  0  0  0  0  0  0  0  0
    7.1582  -11.8209   26.6391 C   0  0  0  0  0  0  0  0  0  0  0  0
    7.0437  -12.3838   27.8822 C   0  0  0  0  0  0  0  0  0  0  0  0
    6.8058  -13.7246   27.9880 C   0  0  0  0  0  0  0  0  0  0  0  0
    6.6801  -14.5158   26.8387 C   0  0  0  0  0  0  0  0  0  0  0  0
    8.5646  -16.1666   25.1801 O   0  0  0  0  0  0  0  0  0  0  0  0
    7.8792  -17.1691   25.5796 N   0  0  0  0  0  0  0  0  0  0  0  0
    9.7653  -15.9150   25.8642 C   0  0  1  0  0  0  0  0  0  0  0  0
   10.3522  -16.8072   26.8686 C   0  0  0  0  0  0  0  0  0  0  0  0
   11.7593  -17.1428   26.5418 C   0  0  0  0  0  0  0  0  0  0  0  0
   11.9084  -17.5086   25.0938 C   0  0  0  0  0  0  0  0  0  0  0  0
   13.2073  -16.9816   24.5459 O   0  0  0  0  0  0  0  0  0  0  0  0
   13.9850  -16.4087   25.3311 C   0  0  0  0  0  0  0  0  0  0  0  0
   10.1594  -16.1820   28.1910 O   0  0  0  0  0  0  0  0  0  0  0  0
   10.5847  -16.8785   29.3507 O   0  0  0  0  0  0  0  0  0  0  0  0
   13.4441  -17.1748   23.1941 O   0  0  0  0  0  0  0  0  0  0  0  0
  2  3  2  0
  2  1  1  0
  4  2  1  0
  5  4  1  0
  6  5  1  0
  7  8  1  0
  7  6  1  0
  8  9  1  6
 10 11  2  0
 10  8  1  0
 12 10  1  0
 13 12  1  0
 13 21  1  0
 13 14  1  1
 15 14  1  0
 16 15  2  0
 17 16  1  0
 18 17  2  0
 18 19  1  0
 19 20  2  0
 20 15  1  0
 21 23  1  0
 22 21  2  0
 23 24  1  0
 24 25  1  1
 24 29  1  0
 26 27  1  0
 26 25  1  0
 27 28  2  0
 29 32  2  0
 29 30  1  0
 31 27  1  0
M  END
$$$$
