RFE.pdb
     RDKit          3D

 32 32  0  0  1  0  0  0  0  0999 V2000
    5.9769  -18.2873   15.6666 N   0  0  0  0  0  0  0  0  0  0  0  0
    5.9201  -19.3140   16.6629 C   0  0  0  0  0  0  0  0  0  0  0  0
    4.8908  -20.0948   16.6895 N   0  0  0  0  0  0  0  0  0  0  0  0
    6.9779  -19.4564   17.5921 N   0  0  0  0  0  0  0  0  0  0  0  0
    7.8254  -18.3322   17.8727 C   0  0  0  0  0  0  0  0  0  0  0  0
    8.9326  -18.7710   18.8059 C   0  0  0  0  0  0  0  0  0  0  0  0
    8.7644  -18.0493   20.1361 C   0  0  0  0  0  0  0  0  0  0  0  0
    9.4758  -16.7413   20.0142 C   0  0  2  0  0  0  0  0  0  0  0  0
   10.7838  -16.8652   19.4049 N   0  0  0  0  0  0  0  0  0  0  0  0
    9.5753  -16.0058   21.3137 C   0  0  0  0  0  0  0  0  0  0  0  0
   10.6007  -16.1707   22.0156 O   0  0  0  0  0  0  0  0  0  0  0  0
    4.8743  -20.9479   17.2838 N   0  0  0  0  0  0  0  0  0  0  0  0
    8.5481  -15.1351   21.7661 C   0  0  2  0  0  0  0  0  0  0  0  0
    8.4171  -14.5891   23.0782 C   0  0  0  0  0  0  0  0  0  0  0  0
    7.2630  -13.5981   23.2481 C   0  0  0  0  0  0  0  0  0  0  0  0
    7.1854  -13.1680   24.6467 C   0  0  0  0  0  0  0  0  0  0  0  0
    8.0417  -12.1541   25.0541 C   0  0  0  0  0  0  0  0  0  0  0  0
    8.0235  -11.7214   26.3617 C   0  0  0  0  0  0  0  0  0  0  0  0
    7.1680  -12.2791   27.2741 C   0  0  0  0  0  0  0  0  0  0  0  0
    6.3250  -13.2769   26.8750 C   0  0  0  0  0  0  0  0  0  0  0  0
    6.3346  -13.7255   25.5478 C   0  0  0  0  0  0  0  0  0  0  0  0
    8.5144  -15.5670   24.1567 O   0  0  0  0  0  0  0  0  0  0  0  0
    7.5774  -16.4313   24.2534 N   0  0  0  0  0  0  0  0  0  0  0  0
    9.5459  -15.6512   25.1064 C   0  0  1  0  0  0  0  0  0  0  0  0
    9.8816  -16.8608   25.8636 C   0  0  0  0  0  0  0  0  0  0  0  0
   11.0951  -17.5207   25.3240 C   0  0  0  0  0  0  0  0  0  0  0  0
   11.4714  -18.7203   26.1440 C   0  0  0  0  0  0  0  0  0  0  0  0
   12.6925  -19.3896   25.5732 O   0  0  0  0  0  0  0  0  0  0  0  0
   13.0848  -19.0313   24.4475 C   0  0  0  0  0  0  0  0  0  0  0  0
    9.9652  -16.4887   27.2889 O   0  0  0  0  0  0  0  0  0  0  0  0
   10.0026  -17.5144   28.2674 O   0  0  0  0  0  0  0  0  0  0  0  0
   13.2962  -20.3653   26.3506 O   0  0  0  0  0  0  0  0  0  0  0  0
  2  3  2  0
  2  1  1  0
  4  2  1  0
  5  4  1  0
  6  5  1  0
  7  8  1  0
  7  6  1  0
  8  9  1  1
 10 11  2  0
 10  8  1  0
 12 10  1  0
 13 12  1  0
 13 21  1  0
 13 14  1  6
 15 14  1  0
 16 15  2  0
 17 16  1  0
 18 17  2  0
 18 19  1  0
 19 20  2  0
 20 15  1  0
 21 23  1  0
 22 21  2  0
 23 24  1  0
 24 25  1  1
 24 29  1  0
 26 27  1  0
 26 25  1  0
 27 28  2  0
 29 32  2  0
 29 30  1  0
 31 27  1  0
M  END
$$$$
