RFE.pdb
     RDKit          3D

 32 32  0  0  1  0  0  0  0  0999 V2000
    7.3533  -13.6519   20.6404 N   0  0  0  0  0  0  0  0  0  0  0  0
    7.8157  -13.2021   19.3622 C   0  0  0  0  0  0  0  0  0  0  0  0
    7.0871  -12.3655   18.6994 N   0  0  0  0  0  0  0  0  0  0  0  0
    9.0473  -13.6744   18.8498 N   0  0  0  0  0  0  0  0  0  0  0  0
    9.2136  -15.0777   18.5972 C   0  0  0  0  0  0  0  0  0  0  0  0
   10.1896  -15.6470   19.6034 C   0  0  0  0  0  0  0  0  0  0  0  0
    9.9518  -17.1465   19.7196 C   0  0  0  0  0  0  0  0  0  0  0  0
    8.9787  -17.3473   20.8351 C   0  0  2  0  0  0  0  0  0  0  0  0
    7.6825  -16.7603   20.5655 N   0  0  0  0  0  0  0  0  0  0  0  0
    9.4981  -16.8755   22.1570 C   0  0  0  0  0  0  0  0  0  0  0  0
   10.6061  -17.3088   22.5518 O   0  0  0  0  0  0  0  0  0  0  0  0
    7.4023  -11.9782   17.7874 N   0  0  0  0  0  0  0  0  0  0  0  0
    8.7745  -15.9590   22.9660 C   0  0  2  0  0  0  0  0  0  0  0  0
    9.1284  -15.5255   24.2789 C   0  0  0  0  0  0  0  0  0  0  0  0
    8.2668  -14.3877   24.8324 C   0  0  0  0  0  0  0  0  0  0  0  0
    8.7328  -14.0252   26.1735 C   0  0  0  0  0  0  0  0  0  0  0  0
    7.8574  -14.2251   27.2322 C   0  0  0  0  0  0  0  0  0  0  0  0
    8.2367  -13.8866   28.5124 C   0  0  0  0  0  0  0  0  0  0  0  0
    9.4728  -13.3519   28.7605 C   0  0  0  0  0  0  0  0  0  0  0  0
   10.3351  -13.1544   27.7200 C   0  0  0  0  0  0  0  0  0  0  0  0
    9.9606  -13.4945   26.4135 C   0  0  0  0  0  0  0  0  0  0  0  0
    9.3605  -16.6038   25.2339 O   0  0  0  0  0  0  0  0  0  0  0  0
    8.3434  -17.2723   25.6251 N   0  0  0  0  0  0  0  0  0  0  0  0
   10.6030  -16.9814   25.7693 C   0  0  1  0  0  0  0  0  0  0  0  0
   10.8189  -18.1552   26.6207 C   0  0  0  0  0  0  0  0  0  0  0  0
   11.9065  -19.0154   26.0950 C   0  0  0  0  0  0  0  0  0  0  0  0
   12.1351  -20.2048   26.9815 C   0  0  0  0  0  0  0  0  0  0  0  0
   13.2682  -21.0454   26.4576 O   0  0  0  0  0  0  0  0  0  0  0  0
   13.1183  -21.6120   25.3593 C   0  0  0  0  0  0  0  0  0  0  0  0
   11.0253  -17.6761   28.0009 O   0  0  0  0  0  0  0  0  0  0  0  0
   10.7205  -18.5406   29.0828 O   0  0  0  0  0  0  0  0  0  0  0  0
   14.4063  -21.1276   27.2442 O   0  0  0  0  0  0  0  0  0  0  0  0
  2  3  2  0
  2  1  1  0
  4  2  1  0
  5  4  1  0
  6  5  1  0
  7  8  1  0
  7  6  1  0
  8  9  1  6
 10 11  2  0
 10  8  1  0
 12 10  1  0
 13 12  1  0
 13 21  1  0
 13 14  1  6
 15 14  1  0
 16 15  2  0
 17 16  1  0
 18 17  2  0
 18 19  1  0
 19 20  2  0
 20 15  1  0
 21 23  1  0
 22 21  2  0
 23 24  1  0
 24 25  1  1
 24 29  1  0
 26 27  1  0
 26 25  1  0
 27 28  2  0
 29 32  2  0
 29 30  1  0
 31 27  1  0
M  END
$$$$
