RFE.pdb
     RDKit          3D

 32 32  0  0  1  0  0  0  0  0999 V2000
    8.0533  -13.7756   15.7925 N   0  0  0  0  0  0  0  0  0  0  0  0
    7.9143  -13.1096   17.0523 C   0  0  0  0  0  0  0  0  0  0  0  0
    8.4321  -11.9339   17.1918 N   0  0  0  0  0  0  0  0  0  0  0  0
    7.2213  -13.7406   18.1126 N   0  0  0  0  0  0  0  0  0  0  0  0
    7.3610  -15.1568   18.3015 C   0  0  0  0  0  0  0  0  0  0  0  0
    8.5925  -15.4228   19.1393 C   0  0  0  0  0  0  0  0  0  0  0  0
    8.2641  -15.1287   20.5968 C   0  0  0  0  0  0  0  0  0  0  0  0
    8.3495  -16.4262   21.3321 C   0  0  2  0  0  0  0  0  0  0  0  0
    7.1231  -17.1937   21.2663 N   0  0  0  0  0  0  0  0  0  0  0  0
    8.7862  -16.2653   22.7545 C   0  0  0  0  0  0  0  0  0  0  0  0
    9.9499  -15.8573   22.9788 O   0  0  0  0  0  0  0  0  0  0  0  0
    8.3420  -11.4055   18.0827 N   0  0  0  0  0  0  0  0  0  0  0  0
    7.9238  -16.5601   23.8442 C   0  0  1  0  0  0  0  0  0  0  0  0
    8.2024  -16.3446   25.2273 C   0  0  0  0  0  0  0  0  0  0  0  0
    7.0189  -15.8230   26.0460 C   0  0  0  0  0  0  0  0  0  0  0  0
    7.0133  -14.3578   26.0244 C   0  0  0  0  0  0  0  0  0  0  0  0
    5.9899  -13.7309   25.3268 C   0  0  0  0  0  0  0  0  0  0  0  0
    5.9444  -12.3558   25.2593 C   0  0  0  0  0  0  0  0  0  0  0  0
    6.8994  -11.5906   25.8739 C   0  0  0  0  0  0  0  0  0  0  0  0
    7.9071  -12.2058   26.5605 C   0  0  0  0  0  0  0  0  0  0  0  0
    7.9641  -13.6036   26.6359 C   0  0  0  0  0  0  0  0  0  0  0  0
    8.9332  -17.4276   25.8767 O   0  0  0  0  0  0  0  0  0  0  0  0
    8.3169  -18.5349   26.0455 N   0  0  0  0  0  0  0  0  0  0  0  0
   10.2588  -17.3709   26.3380 C   0  0  1  0  0  0  0  0  0  0  0  0
   11.0178  -18.5249   26.8292 C   0  0  0  0  0  0  0  0  0  0  0  0
   12.2964  -18.6868   26.0954 C   0  0  0  0  0  0  0  0  0  0  0  0
   13.1469  -19.7568   26.7155 C   0  0  0  0  0  0  0  0  0  0  0  0
   14.4532  -19.8874   25.9794 O   0  0  0  0  0  0  0  0  0  0  0  0
   14.9050  -18.8800   25.4045 C   0  0  0  0  0  0  0  0  0  0  0  0
   11.1607  -18.3786   28.2904 O   0  0  0  0  0  0  0  0  0  0  0  0
   11.6514  -19.4726   29.0474 O   0  0  0  0  0  0  0  0  0  0  0  0
   15.0628  -21.1319   25.9961 O   0  0  0  0  0  0  0  0  0  0  0  0
  2  3  2  0
  2  1  1  0
  4  2  1  0
  5  4  1  0
  6  5  1  0
  7  8  1  0
  7  6  1  0
  8  9  1  1
 10 11  2  0
 10  8  1  0
 12 10  1  0
 13 12  1  0
 13 21  1  0
 13 14  1  1
 15 14  1  0
 16 15  2  0
 17 16  1  0
 18 17  2  0
 18 19  1  0
 19 20  2  0
 20 15  1  0
 21 23  1  0
 22 21  2  0
 23 24  1  0
 24 25  1  1
 24 29  1  0
 26 27  1  0
 26 25  1  0
 27 28  2  0
 29 32  2  0
 29 30  1  0
 31 27  1  0
M  END
$$$$
