RFE.pdb
     RDKit          3D

 32 32  0  0  1  0  0  0  0  0999 V2000
    8.7766  -15.8899   17.2321 N   0  0  0  0  0  0  0  0  0  0  0  0
    8.6530  -14.6509   16.5253 C   0  0  0  0  0  0  0  0  0  0  0  0
    8.8863  -14.6370   15.2544 N   0  0  0  0  0  0  0  0  0  0  0  0
    8.2825  -13.4750   17.2199 N   0  0  0  0  0  0  0  0  0  0  0  0
    8.7390  -13.2787   18.5667 C   0  0  0  0  0  0  0  0  0  0  0  0
    7.5681  -13.4376   19.5117 C   0  0  0  0  0  0  0  0  0  0  0  0
    8.0730  -13.3016   20.9417 C   0  0  0  0  0  0  0  0  0  0  0  0
    8.4002  -14.6784   21.4202 C   0  0  2  0  0  0  0  0  0  0  0  0
    7.3510  -15.6369   21.1409 N   0  0  0  0  0  0  0  0  0  0  0  0
    8.7714  -14.7218   22.8693 C   0  0  0  0  0  0  0  0  0  0  0  0
    9.7664  -14.0614   23.2503 O   0  0  0  0  0  0  0  0  0  0  0  0
    8.8792  -13.7493   14.7129 N   0  0  0  0  0  0  0  0  0  0  0  0
    8.0323  -15.4842   23.8128 C   0  0  1  0  0  0  0  0  0  0  0  0
    8.3611  -15.6798   25.1879 C   0  0  0  0  0  0  0  0  0  0  0  0
    7.1935  -15.4907   26.1595 C   0  0  0  0  0  0  0  0  0  0  0  0
    6.7844  -14.0837   26.1692 C   0  0  0  0  0  0  0  0  0  0  0  0
    7.5943  -13.1852   26.8502 C   0  0  0  0  0  0  0  0  0  0  0  0
    7.2493  -11.8529   26.9061 C   0  0  0  0  0  0  0  0  0  0  0  0
    6.1116  -11.3958   26.2962 C   0  0  0  0  0  0  0  0  0  0  0  0
    5.3135  -12.2786   25.6259 C   0  0  0  0  0  0  0  0  0  0  0  0
    5.6538  -13.6361   25.5624 C   0  0  0  0  0  0  0  0  0  0  0  0
    9.1632  -16.8681   25.4586 O   0  0  0  0  0  0  0  0  0  0  0  0
    9.5300  -17.0675   26.6669 N   0  0  0  0  0  0  0  0  0  0  0  0
    9.5749  -17.8215   24.5127 C   0  0  2  0  0  0  0  0  0  0  0  0
   10.7336  -18.7050   24.6734 C   0  0  0  0  0  0  0  0  0  0  0  0
   11.7379  -18.4842   23.6048 C   0  0  0  0  0  0  0  0  0  0  0  0
   12.9717  -17.8232   24.1469 C   0  0  0  0  0  0  0  0  0  0  0  0
   13.9988  -17.6480   23.0609 O   0  0  0  0  0  0  0  0  0  0  0  0
   14.4502  -18.6695   22.5110 C   0  0  0  0  0  0  0  0  0  0  0  0
   11.2457  -18.5278   26.0458 O   0  0  0  0  0  0  0  0  0  0  0  0
   10.8980  -17.3559   26.7646 O   0  0  0  0  0  0  0  0  0  0  0  0
   14.3700  -16.3494   22.7500 O   0  0  0  0  0  0  0  0  0  0  0  0
  2  3  2  0
  2  1  1  0
  4  2  1  0
  5  4  1  0
  6  5  1  0
  7  8  1  0
  7  6  1  0
  8  9  1  1
 10 11  2  0
 10  8  1  0
 12 10  1  0
 13 12  1  0
 13 21  1  0
 13 14  1  1
 15 14  1  0
 16 15  2  0
 17 16  1  0
 18 17  2  0
 18 19  1  0
 19 20  2  0
 20 15  1  0
 21 23  1  0
 22 21  2  0
 23 24  1  0
 24 25  1  6
 24 29  1  0
 26 27  1  0
 26 25  1  0
 27 28  2  0
 29 32  2  0
 29 30  1  0
 31 27  1  0
M  END
$$$$
