RFE.pdb
     RDKit          3D

 32 32  0  0  1  0  0  0  0  0999 V2000
    7.2413  -14.5883   15.5276 N   0  0  0  0  0  0  0  0  0  0  0  0
    8.0603  -14.0436   16.5681 C   0  0  0  0  0  0  0  0  0  0  0  0
    7.9313  -12.7930   16.8670 N   0  0  0  0  0  0  0  0  0  0  0  0
    8.9872  -14.8717   17.2446 N   0  0  0  0  0  0  0  0  0  0  0  0
    8.7798  -16.2921   17.2640 C   0  0  0  0  0  0  0  0  0  0  0  0
    9.9611  -16.9530   17.9400 C   0  0  0  0  0  0  0  0  0  0  0  0
   10.3031  -16.1700   19.2004 C   0  0  0  0  0  0  0  0  0  0  0  0
    9.7167  -16.9208   20.3511 C   0  0  2  0  0  0  0  0  0  0  0  0
    8.3800  -17.4095   20.0834 N   0  0  0  0  0  0  0  0  0  0  0  0
    9.7394  -16.1433   21.6297 C   0  0  0  0  0  0  0  0  0  0  0  0
   10.8463  -15.7582   22.0742 O   0  0  0  0  0  0  0  0  0  0  0  0
    8.5044  -12.3540   17.6153 N   0  0  0  0  0  0  0  0  0  0  0  0
    8.5508  -15.8347   22.3438 C   0  0  1  0  0  0  0  0  0  0  0  0
    8.4663  -15.1444   23.5901 C   0  0  0  0  0  0  0  0  0  0  0  0
    7.2041  -14.2971   23.7695 C   0  0  0  0  0  0  0  0  0  0  0  0
    7.2415  -13.6283   25.0727 C   0  0  0  0  0  0  0  0  0  0  0  0
    7.9893  -12.4631   25.1742 C   0  0  0  0  0  0  0  0  0  0  0  0
    8.0733  -11.8016   26.3794 C   0  0  0  0  0  0  0  0  0  0  0  0
    7.4262  -12.2778   27.4884 C   0  0  0  0  0  0  0  0  0  0  0  0
    6.6902  -13.4242   27.3905 C   0  0  0  0  0  0  0  0  0  0  0  0
    6.5976  -14.1059   26.1700 C   0  0  0  0  0  0  0  0  0  0  0  0
    8.8012  -15.9529   24.7575 O   0  0  0  0  0  0  0  0  0  0  0  0
    7.9129  -16.7680   25.1829 N   0  0  0  0  0  0  0  0  0  0  0  0
   10.0144  -15.9222   25.4647 C   0  0  1  0  0  0  0  0  0  0  0  0
   10.3399  -16.7973   26.5949 C   0  0  0  0  0  0  0  0  0  0  0  0
   11.6579  -17.4523   26.4133 C   0  0  0  0  0  0  0  0  0  0  0  0
   11.7303  -18.1719   25.0980 C   0  0  0  0  0  0  0  0  0  0  0  0
   13.0640  -17.9397   24.4404 O   0  0  0  0  0  0  0  0  0  0  0  0
   13.9081  -17.2591   25.0518 C   0  0  0  0  0  0  0  0  0  0  0  0
   10.2135  -16.0001   27.8301 O   0  0  0  0  0  0  0  0  0  0  0  0
   10.3950  -16.6384   29.0833 O   0  0  0  0  0  0  0  0  0  0  0  0
   13.2559  -18.5063   23.1903 O   0  0  0  0  0  0  0  0  0  0  0  0
  2  3  2  0
  2  1  1  0
  4  2  1  0
  5  4  1  0
  6  5  1  0
  7  8  1  0
  7  6  1  0
  8  9  1  6
 10 11  2  0
 10  8  1  0
 12 10  1  0
 13 12  1  0
 13 21  1  0
 13 14  1  1
 15 14  1  0
 16 15  2  0
 17 16  1  0
 18 17  2  0
 18 19  1  0
 19 20  2  0
 20 15  1  0
 21 23  1  0
 22 21  2  0
 23 24  1  0
 24 25  1  1
 24 29  1  0
 26 27  1  0
 26 25  1  0
 27 28  2  0
 29 32  2  0
 29 30  1  0
 31 27  1  0
M  END
$$$$
