RFE.pdb
     RDKit          3D

 32 32  0  0  1  0  0  0  0  0999 V2000
    8.7263  -12.7811   15.3459 N   0  0  0  0  0  0  0  0  0  0  0  0
    8.5566  -14.0878   14.7858 C   0  0  0  0  0  0  0  0  0  0  0  0
    9.2720  -14.4206   13.7623 N   0  0  0  0  0  0  0  0  0  0  0  0
    7.6198  -14.9838   15.3532 N   0  0  0  0  0  0  0  0  0  0  0  0
    7.6354  -15.2157   16.7699 C   0  0  0  0  0  0  0  0  0  0  0  0
    8.8296  -14.5079   17.3716 C   0  0  0  0  0  0  0  0  0  0  0  0
    8.4362  -13.9621   18.7377 C   0  0  0  0  0  0  0  0  0  0  0  0
    8.9216  -14.9433   19.7542 C   0  0  2  0  0  0  0  0  0  0  0  0
    8.1701  -16.1813   19.7472 N   0  0  0  0  0  0  0  0  0  0  0  0
    8.9742  -14.3751   21.1377 C   0  0  0  0  0  0  0  0  0  0  0  0
    9.7449  -13.4114   21.3580 O   0  0  0  0  0  0  0  0  0  0  0  0
    9.1757  -15.3546   13.3159 N   0  0  0  0  0  0  0  0  0  0  0  0
    8.1812  -14.8953   22.1953 C   0  0  1  0  0  0  0  0  0  0  0  0
    8.0948  -14.3782   23.5228 C   0  0  0  0  0  0  0  0  0  0  0  0
    6.6692  -14.2161   24.0562 C   0  0  0  0  0  0  0  0  0  0  0  0
    6.7049  -13.5523   25.3620 C   0  0  0  0  0  0  0  0  0  0  0  0
    6.8337  -12.1702   25.3754 C   0  0  0  0  0  0  0  0  0  0  0  0
    6.8893  -11.4954   26.5749 C   0  0  0  0  0  0  0  0  0  0  0  0
    6.8190  -12.1705   27.7643 C   0  0  0  0  0  0  0  0  0  0  0  0
    6.6924  -13.5303   27.7530 C   0  0  0  0  0  0  0  0  0  0  0  0
    6.6351  -14.2276   26.5392 C   0  0  0  0  0  0  0  0  0  0  0  0
    9.0117  -14.9934   24.4763 O   0  0  0  0  0  0  0  0  0  0  0  0
    8.9071  -14.6449   25.7019 N   0  0  0  0  0  0  0  0  0  0  0  0
   10.0062  -15.9389   24.1758 C   0  0  1  0  0  0  0  0  0  0  0  0
   10.8064  -16.6501   25.1773 C   0  0  0  0  0  0  0  0  0  0  0  0
    9.9474  -17.3765   26.1436 C   0  0  0  0  0  0  0  0  0  0  0  0
   10.7720  -18.0761   27.1845 C   0  0  0  0  0  0  0  0  0  0  0  0
    9.8867  -18.8054   28.1588 O   0  0  0  0  0  0  0  0  0  0  0  0
    8.8526  -18.2344   28.5516 C   0  0  0  0  0  0  0  0  0  0  0  0
   11.7760  -17.4976   24.4570 O   0  0  0  0  0  0  0  0  0  0  0  0
   13.0031  -17.8276   25.0863 O   0  0  0  0  0  0  0  0  0  0  0  0
   10.2919  -20.0715   28.5508 O   0  0  0  0  0  0  0  0  0  0  0  0
  2  3  2  0
  2  1  1  0
  4  2  1  0
  5  4  1  0
  6  5  1  0
  7  8  1  0
  7  6  1  0
  8  9  1  1
 10 11  2  0
 10  8  1  0
 12 10  1  0
 13 12  1  0
 13 21  1  0
 13 14  1  6
 15 14  1  0
 16 15  2  0
 17 16  1  0
 18 17  2  0
 18 19  1  0
 19 20  2  0
 20 15  1  0
 21 23  1  0
 22 21  2  0
 23 24  1  0
 24 25  1  1
 24 29  1  0
 26 27  1  0
 26 25  1  0
 27 28  2  0
 29 32  2  0
 29 30  1  0
 31 27  1  0
M  END
$$$$
