RFE.pdb
     RDKit          3D

 32 32  0  0  1  0  0  0  0  0999 V2000
    9.1555  -13.4231   15.6366 N   0  0  0  0  0  0  0  0  0  0  0  0
    8.2995  -14.2704   14.8624 C   0  0  0  0  0  0  0  0  0  0  0  0
    7.9437  -13.8798   13.6830 N   0  0  0  0  0  0  0  0  0  0  0  0
    7.8609  -15.5066   15.3932 N   0  0  0  0  0  0  0  0  0  0  0  0
    8.3153  -15.9168   16.6917 C   0  0  0  0  0  0  0  0  0  0  0  0
    8.2268  -14.7403   17.6388 C   0  0  0  0  0  0  0  0  0  0  0  0
    9.3838  -14.8199   18.6255 C   0  0  0  0  0  0  0  0  0  0  0  0
    8.9688  -15.7631   19.7071 C   0  0  2  0  0  0  0  0  0  0  0  0
    7.6442  -16.3110   19.5002 N   0  0  0  0  0  0  0  0  0  0  0  0
    9.0770  -15.1680   21.0760 C   0  0  0  0  0  0  0  0  0  0  0  0
   10.1622  -14.6385   21.4123 O   0  0  0  0  0  0  0  0  0  0  0  0
    7.2662  -14.4259   13.1140 N   0  0  0  0  0  0  0  0  0  0  0  0
    7.9923  -15.1883   21.9931 C   0  0  1  0  0  0  0  0  0  0  0  0
    7.9863  -14.6389   23.3104 C   0  0  0  0  0  0  0  0  0  0  0  0
    6.7083  -13.8840   23.6844 C   0  0  0  0  0  0  0  0  0  0  0  0
    6.8692  -13.2675   25.0039 C   0  0  0  0  0  0  0  0  0  0  0  0
    6.5896  -14.0503   26.1157 C   0  0  0  0  0  0  0  0  0  0  0  0
    6.7079  -13.5174   27.3804 C   0  0  0  0  0  0  0  0  0  0  0  0
    7.1000  -12.2178   27.5609 C   0  0  0  0  0  0  0  0  0  0  0  0
    7.3753  -11.4461   26.4681 C   0  0  0  0  0  0  0  0  0  0  0  0
    7.2583  -11.9770   25.1769 C   0  0  0  0  0  0  0  0  0  0  0  0
    8.4571  -15.5472   24.3506 O   0  0  0  0  0  0  0  0  0  0  0  0
    7.7013  -16.5312   24.6585 N   0  0  0  0  0  0  0  0  0  0  0  0
    9.6697  -15.4442   25.0520 C   0  0  1  0  0  0  0  0  0  0  0  0
   10.4820  -16.5872   25.4796 C   0  0  0  0  0  0  0  0  0  0  0  0
   11.8796  -16.4717   24.9970 C   0  0  0  0  0  0  0  0  0  0  0  0
   12.7290  -17.5938   25.5188 C   0  0  0  0  0  0  0  0  0  0  0  0
   14.1640  -17.4078   25.1050 O   0  0  0  0  0  0  0  0  0  0  0  0
   14.4533  -16.4037   24.4284 C   0  0  0  0  0  0  0  0  0  0  0  0
   10.3444  -16.7125   26.9433 O   0  0  0  0  0  0  0  0  0  0  0  0
   10.7123  -17.9313   27.5678 O   0  0  0  0  0  0  0  0  0  0  0  0
   15.0666  -18.3777   25.5117 O   0  0  0  0  0  0  0  0  0  0  0  0
  2  3  2  0
  2  1  1  0
  4  2  1  0
  5  4  1  0
  6  5  1  0
  7  8  1  0
  7  6  1  0
  8  9  1  6
 10 11  2  0
 10  8  1  0
 12 10  1  0
 13 12  1  0
 13 21  1  0
 13 14  1  6
 15 14  1  0
 16 15  2  0
 17 16  1  0
 18 17  2  0
 18 19  1  0
 19 20  2  0
 20 15  1  0
 21 23  1  0
 22 21  2  0
 23 24  1  0
 24 25  1  1
 24 29  1  0
 26 27  1  0
 26 25  1  0
 27 28  2  0
 29 32  2  0
 29 30  1  0
 31 27  1  0
M  END
$$$$
