RFE.pdb
     RDKit          3D

 32 32  0  0  1  0  0  0  0  0999 V2000
   10.8440  -21.9119   19.4333 N   0  0  0  0  0  0  0  0  0  0  0  0
   10.4703  -21.5059   18.1121 C   0  0  0  0  0  0  0  0  0  0  0  0
   10.1264  -22.4138   17.2593 N   0  0  0  0  0  0  0  0  0  0  0  0
   10.4834  -20.1344   17.7640 N   0  0  0  0  0  0  0  0  0  0  0  0
   10.8383  -19.1590   18.7557 C   0  0  0  0  0  0  0  0  0  0  0  0
    9.6960  -19.0171   19.7377 C   0  0  0  0  0  0  0  0  0  0  0  0
   10.1299  -18.0832   20.8594 C   0  0  0  0  0  0  0  0  0  0  0  0
    9.3041  -16.8443   20.7377 C   0  0  2  0  0  0  0  0  0  0  0  0
    9.5770  -16.1014   19.5249 N   0  0  0  0  0  0  0  0  0  0  0  0
    9.4132  -15.9485   21.9316 C   0  0  0  0  0  0  0  0  0  0  0  0
   10.5545  -15.6870   22.3789 O   0  0  0  0  0  0  0  0  0  0  0  0
    9.8213  -22.1643   16.2972 N   0  0  0  0  0  0  0  0  0  0  0  0
    8.2680  -15.3936   22.5629 C   0  0  1  0  0  0  0  0  0  0  0  0
    8.2542  -14.6123   23.7573 C   0  0  0  0  0  0  0  0  0  0  0  0
    7.0242  -13.7164   23.9233 C   0  0  0  0  0  0  0  0  0  0  0  0
    7.0676  -13.0584   25.2318 C   0  0  0  0  0  0  0  0  0  0  0  0
    6.2650  -13.5786   26.2379 C   0  0  0  0  0  0  0  0  0  0  0  0
    6.2535  -12.9898   27.4831 C   0  0  0  0  0  0  0  0  0  0  0  0
    7.0268  -11.8910   27.7475 C   0  0  0  0  0  0  0  0  0  0  0  0
    7.8169  -11.3778   26.7587 C   0  0  0  0  0  0  0  0  0  0  0  0
    7.8368  -11.9679   25.4882 C   0  0  0  0  0  0  0  0  0  0  0  0
    8.6151  -15.3437   24.9670 O   0  0  0  0  0  0  0  0  0  0  0  0
    7.8348  -16.2852   25.3400 N   0  0  0  0  0  0  0  0  0  0  0  0
    9.7455  -15.1116   25.7679 C   0  0  1  0  0  0  0  0  0  0  0  0
   10.1829  -15.9848   26.8611 C   0  0  0  0  0  0  0  0  0  0  0  0
   11.4946  -16.6105   26.5655 C   0  0  0  0  0  0  0  0  0  0  0  0
   11.3453  -17.7620   25.6144 C   0  0  0  0  0  0  0  0  0  0  0  0
   12.6944  -18.2642   25.1754 O   0  0  0  0  0  0  0  0  0  0  0  0
   13.0065  -19.4341   25.4642 C   0  0  0  0  0  0  0  0  0  0  0  0
   10.1437  -15.1965   28.1077 O   0  0  0  0  0  0  0  0  0  0  0  0
   10.2026  -15.8731   29.3526 O   0  0  0  0  0  0  0  0  0  0  0  0
   13.4977  -17.3783   24.4749 O   0  0  0  0  0  0  0  0  0  0  0  0
  2  3  2  0
  2  1  1  0
  4  2  1  0
  5  4  1  0
  6  5  1  0
  7  8  1  0
  7  6  1  0
  8  9  1  6
 10 11  2  0
 10  8  1  0
 12 10  1  0
 13 12  1  0
 13 21  1  0
 13 14  1  1
 15 14  1  0
 16 15  2  0
 17 16  1  0
 18 17  2  0
 18 19  1  0
 19 20  2  0
 20 15  1  0
 21 23  1  0
 22 21  2  0
 23 24  1  0
 24 25  1  1
 24 29  1  0
 26 27  1  0
 26 25  1  0
 27 28  2  0
 29 32  2  0
 29 30  1  0
 31 27  1  0
M  END
$$$$
