RFE.pdb
     RDKit          3D

 32 32  0  0  1  0  0  0  0  0999 V2000
    6.8468  -13.4963   17.7311 N   0  0  0  0  0  0  0  0  0  0  0  0
    8.1095  -13.0824   18.2644 C   0  0  0  0  0  0  0  0  0  0  0  0
    8.4914  -11.8623   18.0758 N   0  0  0  0  0  0  0  0  0  0  0  0
    8.9103  -14.0034   18.9804 N   0  0  0  0  0  0  0  0  0  0  0  0
    8.4941  -15.3740   19.0754 C   0  0  0  0  0  0  0  0  0  0  0  0
    8.3083  -15.7323   20.5336 C   0  0  0  0  0  0  0  0  0  0  0  0
    9.6256  -15.5067   21.2633 C   0  0  0  0  0  0  0  0  0  0  0  0
    9.7746  -16.6216   22.2465 C   0  0  2  0  0  0  0  0  0  0  0  0
    8.7471  -17.6333   22.1121 N   0  0  0  0  0  0  0  0  0  0  0  0
    9.8535  -16.1460   23.6633 C   0  0  0  0  0  0  0  0  0  0  0  0
   10.6975  -15.2649   23.9507 O   0  0  0  0  0  0  0  0  0  0  0  0
    9.4493  -11.5498   18.3323 N   0  0  0  0  0  0  0  0  0  0  0  0
    9.0050  -16.6627   24.6787 C   0  0  1  0  0  0  0  0  0  0  0  0
    9.0145  -16.2964   26.0581 C   0  0  0  0  0  0  0  0  0  0  0  0
    7.6512  -15.8892   26.6227 C   0  0  0  0  0  0  0  0  0  0  0  0
    7.4292  -14.4597   26.3896 C   0  0  0  0  0  0  0  0  0  0  0  0
    6.6143  -14.1029   25.3239 C   0  0  0  0  0  0  0  0  0  0  0  0
    6.3842  -12.7731   25.0482 C   0  0  0  0  0  0  0  0  0  0  0  0
    6.9503  -11.7890   25.8140 C   0  0  0  0  0  0  0  0  0  0  0  0
    7.7525  -12.1383   26.8628 C   0  0  0  0  0  0  0  0  0  0  0  0
    7.9941  -13.4875   27.1528 C   0  0  0  0  0  0  0  0  0  0  0  0
    9.7608  -17.2036   26.9234 O   0  0  0  0  0  0  0  0  0  0  0  0
    9.9642  -16.8319   28.1295 N   0  0  0  0  0  0  0  0  0  0  0  0
   10.2814  -18.4556   26.5566 C   0  0  1  0  0  0  0  0  0  0  0  0
   11.0842  -19.3115   27.4353 C   0  0  0  0  0  0  0  0  0  0  0  0
   10.7916  -20.7479   27.2104 C   0  0  0  0  0  0  0  0  0  0  0  0
    9.3133  -21.0077   27.2107 C   0  0  0  0  0  0  0  0  0  0  0  0
    8.9654  -22.0839   28.2035 O   0  0  0  0  0  0  0  0  0  0  0  0
    9.5954  -23.1562   28.1502 C   0  0  0  0  0  0  0  0  0  0  0  0
   12.4998  -18.9360   27.2559 O   0  0  0  0  0  0  0  0  0  0  0  0
   13.4901  -19.5937   28.0289 O   0  0  0  0  0  0  0  0  0  0  0  0
    7.9592  -21.7990   29.1131 O   0  0  0  0  0  0  0  0  0  0  0  0
  2  3  2  0
  2  1  1  0
  4  2  1  0
  5  4  1  0
  6  5  1  0
  7  8  1  0
  7  6  1  0
  8  9  1  1
 10 11  2  0
 10  8  1  0
 12 10  1  0
 13 12  1  0
 13 21  1  0
 13 14  1  1
 15 14  1  0
 16 15  2  0
 17 16  1  0
 18 17  2  0
 18 19  1  0
 19 20  2  0
 20 15  1  0
 21 23  1  0
 22 21  2  0
 23 24  1  0
 24 25  1  1
 24 29  1  0
 26 27  1  0
 26 25  1  0
 27 28  2  0
 29 32  2  0
 29 30  1  0
 31 27  1  0
M  END
$$$$
