VQQ.pdb
     RDKit          3D

 26 25  0  0  1  0  0  0  0  0999 V2000
    7.7614  -14.1132   17.9645 C   0  0  0  0  0  0  0  0  0  0  0  0
    8.5439  -13.7280   19.2048 C   0  0  1  0  0  0  0  0  0  0  0  0
    7.7430  -12.6398   19.9026 C   0  0  0  0  0  0  0  0  0  0  0  0
    8.6452  -14.8822   20.1761 C   0  0  2  0  0  0  0  0  0  0  0  0
    7.3399  -15.5138   20.2355 N   0  0  0  0  0  0  0  0  0  0  0  0
    9.0907  -14.4406   21.5197 C   0  0  0  0  0  0  0  0  0  0  0  0
   10.2109  -13.9506   21.6862 O   0  0  0  0  0  0  0  0  0  0  0  0
    5.3094  -13.2131   26.0629 N   0  0  0  0  0  0  0  0  0  0  0  0
    6.5099  -12.7981   26.6935 C   0  0  0  0  0  0  0  0  0  0  0  0
    6.4891  -12.3206   27.8642 O   0  0  0  0  0  0  0  0  0  0  0  0
    7.7774  -12.9461   25.9302 C   0  0  0  0  0  0  0  0  0  0  0  0
    7.4413  -13.4771   24.5693 C   0  0  0  0  0  0  0  0  0  0  0  0
    8.5516  -14.3110   23.9787 C   0  0  2  0  0  0  0  0  0  0  0  0
    8.2143  -14.5894   22.6031 N   0  0  0  0  0  0  0  0  0  0  0  0
    8.8104  -15.5367   24.7576 C   0  0  0  0  0  0  0  0  0  0  0  0
    7.9068  -16.4138   24.7956 O   0  0  0  0  0  0  0  0  0  0  0  0
   14.6710  -19.4635   26.3118 N   0  0  0  0  0  0  0  0  0  0  0  0
   13.6535  -19.0911   25.3920 C   0  0  0  0  0  0  0  0  0  0  0  0
   13.9076  -19.0198   24.1664 O   0  0  0  0  0  0  0  0  0  0  0  0
   12.2973  -18.7939   25.9310 C   0  0  0  0  0  0  0  0  0  0  0  0
   11.7934  -17.4595   25.4386 C   0  0  0  0  0  0  0  0  0  0  0  0
   10.4360  -17.0946   25.9231 C   0  0  2  0  0  0  0  0  0  0  0  0
   10.0187  -15.7766   25.4622 N   0  0  0  0  0  0  0  0  0  0  0  0
   10.2122  -17.2511   27.3709 C   0  0  0  0  0  0  0  0  0  0  0  0
   10.2788  -18.4167   28.0892 O   0  0  0  0  0  0  0  0  0  0  0  0
    9.9254  -16.1886   28.0236 O   0  0  0  0  0  0  0  0  0  0  0  0
  2  1  1  6
  2  4  1  0
  3  2  1  0
  4  6  1  0
  4  5  1  1
  6 14  1  0
  7  6  2  0
  9  8  1  0
  9 10  2  0
 11 12  1  0
 11  9  1  0
 13 12  1  1
 13 15  1  0
 14 13  1  0
 15 23  1  0
 15 16  2  0
 17 18  1  0
 18 20  1  0
 18 19  2  0
 20 21  1  0
 22 21  1  1
 22 24  1  0
 23 22  1  0
 24 26  2  0
 24 25  1  0
M  END
$$$$
