VQQ.pdb
     RDKit          3D

 26 25  0  0  1  0  0  0  0  0999 V2000
    8.1939  -12.1139   18.9328 C   0  0  0  0  0  0  0  0  0  0  0  0
    8.0541  -12.9873   20.1644 C   0  0  1  0  0  0  0  0  0  0  0  0
    6.7565  -13.7633   20.0009 C   0  0  0  0  0  0  0  0  0  0  0  0
    9.1639  -14.0108   20.2461 C   0  0  2  0  0  0  0  0  0  0  0  0
    9.1456  -14.7689   19.0086 N   0  0  0  0  0  0  0  0  0  0  0  0
    9.0148  -14.8997   21.4236 C   0  0  0  0  0  0  0  0  0  0  0  0
    8.2973  -14.5767   22.3742 O   0  0  0  0  0  0  0  0  0  0  0  0
   10.8220  -20.6464   20.7949 N   0  0  0  0  0  0  0  0  0  0  0  0
    9.5420  -20.2090   20.3691 C   0  0  0  0  0  0  0  0  0  0  0  0
    8.8669  -20.8973   19.5510 O   0  0  0  0  0  0  0  0  0  0  0  0
    9.0338  -18.9238   20.9179 C   0  0  0  0  0  0  0  0  0  0  0  0
   10.0163  -18.4331   21.9381 C   0  0  0  0  0  0  0  0  0  0  0  0
    9.6413  -17.0872   22.5081 C   0  0  2  0  0  0  0  0  0  0  0  0
    9.7057  -16.1189   21.4396 N   0  0  0  0  0  0  0  0  0  0  0  0
   10.4783  -16.7122   23.6635 C   0  0  0  0  0  0  0  0  0  0  0  0
   11.6560  -16.3252   23.4384 O   0  0  0  0  0  0  0  0  0  0  0  0
    9.3846  -13.6016   28.9139 N   0  0  0  0  0  0  0  0  0  0  0  0
    9.0860  -13.4062   27.5381 C   0  0  0  0  0  0  0  0  0  0  0  0
    8.2272  -12.5602   27.1939 O   0  0  0  0  0  0  0  0  0  0  0  0
    9.8199  -14.2309   26.5385 C   0  0  0  0  0  0  0  0  0  0  0  0
   10.2373  -15.5574   27.1244 C   0  0  0  0  0  0  0  0  0  0  0  0
   10.8788  -16.4860   26.1567 C   0  0  2  0  0  0  0  0  0  0  0  0
   10.0268  -16.7648   25.0079 N   0  0  0  0  0  0  0  0  0  0  0  0
   11.4263  -17.7275   26.7311 C   0  0  0  0  0  0  0  0  0  0  0  0
   12.4651  -17.8311   27.6194 O   0  0  0  0  0  0  0  0  0  0  0  0
   10.8743  -18.8210   26.3610 O   0  0  0  0  0  0  0  0  0  0  0  0
  2  1  1  6
  2  4  1  0
  3  2  1  0
  4  6  1  0
  4  5  1  6
  6 14  1  0
  7  6  2  0
  9  8  1  0
  9 10  2  0
 11 12  1  0
 11  9  1  0
 13 12  1  6
 13 15  1  0
 14 13  1  0
 15 23  1  0
 15 16  2  0
 17 18  1  0
 18 20  1  0
 18 19  2  0
 20 21  1  0
 22 21  1  1
 22 24  1  0
 23 22  1  0
 24 26  2  0
 24 25  1  0
M  END
$$$$
