VQQ.pdb
     RDKit          3D

 26 25  0  0  1  0  0  0  0  0999 V2000
    8.2239  -12.6794   18.4934 C   0  0  0  0  0  0  0  0  0  0  0  0
    8.1358  -13.1626   19.9279 C   0  0  1  0  0  0  0  0  0  0  0  0
    6.6569  -13.3344   20.2377 C   0  0  0  0  0  0  0  0  0  0  0  0
    8.7744  -14.5228   20.0941 C   0  0  2  0  0  0  0  0  0  0  0  0
    8.2804  -15.3670   19.0218 N   0  0  0  0  0  0  0  0  0  0  0  0
    8.4836  -15.1150   21.4222 C   0  0  0  0  0  0  0  0  0  0  0  0
    8.8280  -14.5428   22.4598 O   0  0  0  0  0  0  0  0  0  0  0  0
    5.6613  -20.7554   21.7678 N   0  0  0  0  0  0  0  0  0  0  0  0
    5.4584  -20.2083   23.0603 C   0  0  0  0  0  0  0  0  0  0  0  0
    4.5148  -20.6228   23.7929 O   0  0  0  0  0  0  0  0  0  0  0  0
    6.3898  -19.1407   23.5120 C   0  0  0  0  0  0  0  0  0  0  0  0
    6.5672  -18.1704   22.3832 C   0  0  0  0  0  0  0  0  0  0  0  0
    7.5946  -17.1073   22.6847 C   0  0  2  0  0  0  0  0  0  0  0  0
    7.8079  -16.3413   21.4801 N   0  0  0  0  0  0  0  0  0  0  0  0
    8.8457  -17.6711   23.2263 C   0  0  0  0  0  0  0  0  0  0  0  0
    9.5987  -18.3022   22.4376 O   0  0  0  0  0  0  0  0  0  0  0  0
   13.2016  -15.6062   22.4098 N   0  0  0  0  0  0  0  0  0  0  0  0
   13.6093  -16.1123   23.6738 C   0  0  0  0  0  0  0  0  0  0  0  0
   14.7153  -16.6903   23.7939 O   0  0  0  0  0  0  0  0  0  0  0  0
   12.6880  -15.9325   24.8300 C   0  0  0  0  0  0  0  0  0  0  0  0
   11.2515  -16.1543   24.4244 C   0  0  0  0  0  0  0  0  0  0  0  0
   10.6258  -17.3709   25.0063 C   0  0  2  0  0  0  0  0  0  0  0  0
    9.2418  -17.5391   24.5826 N   0  0  0  0  0  0  0  0  0  0  0  0
   10.7611  -17.5216   26.4658 C   0  0  0  0  0  0  0  0  0  0  0  0
   11.8393  -18.0325   27.1405 O   0  0  0  0  0  0  0  0  0  0  0  0
    9.7684  -17.1360   27.1751 O   0  0  0  0  0  0  0  0  0  0  0  0
  2  1  1  6
  2  4  1  0
  3  2  1  0
  4  6  1  0
  4  5  1  6
  6 14  1  0
  7  6  2  0
  9  8  1  0
  9 10  2  0
 11 12  1  0
 11  9  1  0
 13 12  1  6
 13 15  1  0
 14 13  1  0
 15 23  1  0
 15 16  2  0
 17 18  1  0
 18 20  1  0
 18 19  2  0
 20 21  1  0
 22 21  1  1
 22 24  1  0
 23 22  1  0
 24 26  2  0
 24 25  1  0
M  END
$$$$
