VQQ.pdb
     RDKit          3D

 26 25  0  0  1  0  0  0  0  0999 V2000
    7.6008  -12.5036   19.3278 C   0  0  0  0  0  0  0  0  0  0  0  0
    7.6498  -13.6044   20.3695 C   0  0  1  0  0  0  0  0  0  0  0  0
    7.1108  -14.8591   19.7004 C   0  0  0  0  0  0  0  0  0  0  0  0
    9.0709  -13.9109   20.7847 C   0  0  2  0  0  0  0  0  0  0  0  0
    9.8066  -14.2618   19.5838 N   0  0  0  0  0  0  0  0  0  0  0  0
    9.1339  -14.9982   21.7910 C   0  0  0  0  0  0  0  0  0  0  0  0
    8.3370  -15.0367   22.7324 O   0  0  0  0  0  0  0  0  0  0  0  0
   12.5627  -19.9349   20.6185 N   0  0  0  0  0  0  0  0  0  0  0  0
   12.2398  -20.2837   21.9546 C   0  0  0  0  0  0  0  0  0  0  0  0
   12.6235  -21.3857   22.4417 O   0  0  0  0  0  0  0  0  0  0  0  0
   11.4416  -19.3120   22.7481 C   0  0  0  0  0  0  0  0  0  0  0  0
   11.1473  -18.1295   21.8751 C   0  0  0  0  0  0  0  0  0  0  0  0
   10.3183  -17.0806   22.5747 C   0  0  2  0  0  0  0  0  0  0  0  0
   10.1182  -15.9864   21.6549 N   0  0  0  0  0  0  0  0  0  0  0  0
   10.9196  -16.6460   23.8497 C   0  0  0  0  0  0  0  0  0  0  0  0
   11.6823  -15.6434   23.8312 O   0  0  0  0  0  0  0  0  0  0  0  0
    7.6662  -13.0844   25.8683 N   0  0  0  0  0  0  0  0  0  0  0  0
    8.4784  -13.4793   26.9658 C   0  0  0  0  0  0  0  0  0  0  0  0
    9.0562  -12.6141   27.6653 O   0  0  0  0  0  0  0  0  0  0  0  0
    8.6141  -14.9353   27.2480 C   0  0  0  0  0  0  0  0  0  0  0  0
    9.1053  -15.6843   26.0335 C   0  0  0  0  0  0  0  0  0  0  0  0
   10.2451  -16.6028   26.2933 C   0  0  2  0  0  0  0  0  0  0  0  0
   10.6838  -17.2961   25.0889 N   0  0  0  0  0  0  0  0  0  0  0  0
   10.0655  -17.5406   27.4155 C   0  0  0  0  0  0  0  0  0  0  0  0
   10.5016  -17.3700   28.7038 O   0  0  0  0  0  0  0  0  0  0  0  0
    9.4381  -18.6259   27.1593 O   0  0  0  0  0  0  0  0  0  0  0  0
  2  1  1  6
  2  4  1  0
  3  2  1  0
  4  6  1  0
  4  5  1  6
  6 14  1  0
  7  6  2  0
  9  8  1  0
  9 10  2  0
 11 12  1  0
 11  9  1  0
 13 12  1  6
 13 15  1  0
 14 13  1  0
 15 23  1  0
 15 16  2  0
 17 18  1  0
 18 20  1  0
 18 19  2  0
 20 21  1  0
 22 21  1  6
 22 24  1  0
 23 22  1  0
 24 26  2  0
 24 25  1  0
M  END
$$$$
