VQQ.pdb
     RDKit          3D

 26 25  0  0  1  0  0  0  0  0999 V2000
   14.5277  -17.1505   17.2550 C   0  0  0  0  0  0  0  0  0  0  0  0
   15.3144  -15.8544   17.2726 C   0  0  1  0  0  0  0  0  0  0  0  0
   16.1596  -15.8426   16.0085 C   0  0  0  0  0  0  0  0  0  0  0  0
   14.4015  -14.6517   17.1949 C   0  0  2  0  0  0  0  0  0  0  0  0
   15.2311  -13.4966   16.9050 N   0  0  0  0  0  0  0  0  0  0  0  0
   13.6287  -14.4585   18.4456 C   0  0  0  0  0  0  0  0  0  0  0  0
   14.1959  -14.4194   19.5409 O   0  0  0  0  0  0  0  0  0  0  0  0
    7.5989  -13.3025   18.0491 N   0  0  0  0  0  0  0  0  0  0  0  0
    7.6684  -13.3388   19.4651 C   0  0  0  0  0  0  0  0  0  0  0  0
    6.6504  -13.0708   20.1656 O   0  0  0  0  0  0  0  0  0  0  0  0
    8.9715  -13.7006   20.0832 C   0  0  0  0  0  0  0  0  0  0  0  0
    9.9705  -13.8939   18.9825 C   0  0  0  0  0  0  0  0  0  0  0  0
   11.3516  -14.2144   19.4987 C   0  0  2  0  0  0  0  0  0  0  0  0
   12.2366  -14.3205   18.3634 N   0  0  0  0  0  0  0  0  0  0  0  0
   11.3698  -15.4221   20.3457 C   0  0  0  0  0  0  0  0  0  0  0  0
   11.3880  -16.5443   19.7732 O   0  0  0  0  0  0  0  0  0  0  0  0
   16.5407  -16.0767   24.0317 N   0  0  0  0  0  0  0  0  0  0  0  0
   15.8623  -16.8886   23.0826 C   0  0  0  0  0  0  0  0  0  0  0  0
   16.4886  -17.3864   22.1175 O   0  0  0  0  0  0  0  0  0  0  0  0
   14.4040  -17.1210   23.2757 C   0  0  0  0  0  0  0  0  0  0  0  0
   13.5832  -16.1795   22.4288 C   0  0  0  0  0  0  0  0  0  0  0  0
   12.1128  -16.3193   22.5975 C   0  0  2  0  0  0  0  0  0  0  0  0
   11.3679  -15.3842   21.7643 N   0  0  0  0  0  0  0  0  0  0  0  0
   11.6259  -16.3024   23.9880 C   0  0  0  0  0  0  0  0  0  0  0  0
   10.6397  -15.5006   24.5014 O   0  0  0  0  0  0  0  0  0  0  0  0
   12.1825  -17.1209   24.7990 O   0  0  0  0  0  0  0  0  0  0  0  0
  2  1  1  6
  2  4  1  0
  3  2  1  0
  4  6  1  0
  4  5  1  1
  6 14  1  0
  7  6  2  0
  9  8  1  0
  9 10  2  0
 11 12  1  0
 11  9  1  0
 13 12  1  6
 13 15  1  0
 14 13  1  0
 15 23  1  0
 15 16  2  0
 17 18  1  0
 18 20  1  0
 18 19  2  0
 20 21  1  0
 22 21  1  1
 22 24  1  0
 23 22  1  0
 24 26  2  0
 24 25  1  0
M  END
$$$$
