VQQ.pdb
     RDKit          3D

 26 25  0  0  1  0  0  0  0  0999 V2000
    8.7157  -12.6348   20.2770 C   0  0  0  0  0  0  0  0  0  0  0  0
    7.8261  -13.6220   19.5466 C   0  0  1  0  0  0  0  0  0  0  0  0
    6.9141  -12.8016   18.6479 C   0  0  0  0  0  0  0  0  0  0  0  0
    8.6300  -14.5255   18.6394 C   0  0  2  0  0  0  0  0  0  0  0  0
    7.6907  -15.3798   17.9363 N   0  0  0  0  0  0  0  0  0  0  0  0
    9.6255  -15.3262   19.3924 C   0  0  0  0  0  0  0  0  0  0  0  0
    9.2701  -16.2609   20.1154 O   0  0  0  0  0  0  0  0  0  0  0  0
   15.6085  -14.0148   18.7050 N   0  0  0  0  0  0  0  0  0  0  0  0
   15.7325  -14.7438   19.9150 C   0  0  0  0  0  0  0  0  0  0  0  0
   16.8560  -14.8591   20.4837 O   0  0  0  0  0  0  0  0  0  0  0  0
   14.5020  -15.3589   20.4796 C   0  0  0  0  0  0  0  0  0  0  0  0
   13.3473  -14.9771   19.6032 C   0  0  0  0  0  0  0  0  0  0  0  0
   12.0415  -15.5744   20.0669 C   0  0  2  0  0  0  0  0  0  0  0  0
   10.9834  -15.0025   19.2690 N   0  0  0  0  0  0  0  0  0  0  0  0
   11.8214  -15.3920   21.5141 C   0  0  0  0  0  0  0  0  0  0  0  0
   11.8041  -14.2156   21.9648 O   0  0  0  0  0  0  0  0  0  0  0  0
    6.7800  -16.3672   23.4210 N   0  0  0  0  0  0  0  0  0  0  0  0
    7.2949  -16.4158   24.7449 C   0  0  0  0  0  0  0  0  0  0  0  0
    6.5178  -16.5607   25.7180 O   0  0  0  0  0  0  0  0  0  0  0  0
    8.7675  -16.2902   24.9284 C   0  0  0  0  0  0  0  0  0  0  0  0
    9.4944  -16.4036   23.6109 C   0  0  0  0  0  0  0  0  0  0  0  0
   10.9756  -16.3266   23.7138 C   0  0  2  0  0  0  0  0  0  0  0  0
   11.6293  -16.4681   22.4191 N   0  0  0  0  0  0  0  0  0  0  0  0
   11.5913  -17.2057   24.7233 C   0  0  0  0  0  0  0  0  0  0  0  0
   11.5364  -17.0546   26.0845 O   0  0  0  0  0  0  0  0  0  0  0  0
   12.2450  -18.2134   24.2821 O   0  0  0  0  0  0  0  0  0  0  0  0
  2  1  1  6
  2  4  1  0
  3  2  1  0
  4  6  1  0
  4  5  1  1
  6 14  1  0
  7  6  2  0
  9  8  1  0
  9 10  2  0
 11 12  1  0
 11  9  1  0
 13 12  1  6
 13 15  1  0
 14 13  1  0
 15 23  1  0
 15 16  2  0
 17 18  1  0
 18 20  1  0
 18 19  2  0
 20 21  1  0
 22 21  1  6
 22 24  1  0
 23 22  1  0
 24 26  2  0
 24 25  1  0
M  END
$$$$
