VQQ.pdb
     RDKit          3D

 26 25  0  0  1  0  0  0  0  0999 V2000
    6.3435  -11.0767   26.8369 C   0  0  0  0  0  0  0  0  0  0  0  0
    7.0787  -12.1417   26.0468 C   0  0  1  0  0  0  0  0  0  0  0  0
    8.0133  -12.8386   27.0232 C   0  0  0  0  0  0  0  0  0  0  0  0
    6.1306  -13.1977   25.5255 C   0  0  2  0  0  0  0  0  0  0  0  0
    5.5410  -13.8563   26.6766 N   0  0  0  0  0  0  0  0  0  0  0  0
    6.8149  -14.1713   24.6408 C   0  0  0  0  0  0  0  0  0  0  0  0
    7.1594  -15.2781   25.0639 O   0  0  0  0  0  0  0  0  0  0  0  0
    7.6862  -12.6501   18.7411 N   0  0  0  0  0  0  0  0  0  0  0  0
    8.2884  -13.9322   18.6726 C   0  0  0  0  0  0  0  0  0  0  0  0
    8.6935  -14.3938   17.5673 O   0  0  0  0  0  0  0  0  0  0  0  0
    8.4217  -14.7008   19.9386 C   0  0  0  0  0  0  0  0  0  0  0  0
    7.7993  -13.8954   21.0391 C   0  0  0  0  0  0  0  0  0  0  0  0
    7.7867  -14.6251   22.3597 C   0  0  2  0  0  0  0  0  0  0  0  0
    7.0653  -13.8122   23.3095 N   0  0  0  0  0  0  0  0  0  0  0  0
    9.1434  -14.9703   22.8250 C   0  0  0  0  0  0  0  0  0  0  0  0
    9.7427  -14.1432   23.5627 O   0  0  0  0  0  0  0  0  0  0  0  0
    9.4881  -18.1718   26.8233 N   0  0  0  0  0  0  0  0  0  0  0  0
   10.8281  -18.4104   26.4136 C   0  0  0  0  0  0  0  0  0  0  0  0
   11.7648  -18.3250   27.2425 O   0  0  0  0  0  0  0  0  0  0  0  0
   11.0722  -18.7597   24.9866 C   0  0  0  0  0  0  0  0  0  0  0  0
   10.1331  -18.0120   24.0722 C   0  0  0  0  0  0  0  0  0  0  0  0
   10.7477  -16.8577   23.3651 C   0  0  2  0  0  0  0  0  0  0  0  0
    9.8039  -16.1798   22.4859 N   0  0  0  0  0  0  0  0  0  0  0  0
   12.0184  -17.1367   22.6732 C   0  0  0  0  0  0  0  0  0  0  0  0
   13.2644  -17.1985   23.2411 O   0  0  0  0  0  0  0  0  0  0  0  0
   11.9500  -17.3416   21.4120 O   0  0  0  0  0  0  0  0  0  0  0  0
  2  1  1  1
  2  4  1  0
  3  2  1  0
  4  6  1  0
  4  5  1  1
  6 14  1  0
  7  6  2  0
  9  8  1  0
  9 10  2  0
 11 12  1  0
 11  9  1  0
 13 12  1  6
 13 15  1  0
 14 13  1  0
 15 23  1  0
 15 16  2  0
 17 18  1  0
 18 20  1  0
 18 19  2  0
 20 21  1  0
 22 21  1  6
 22 24  1  0
 23 22  1  0
 24 26  2  0
 24 25  1  0
M  END
$$$$
