VQQ.pdb
     RDKit          3D

 26 25  0  0  1  0  0  0  0  0999 V2000
    7.9857  -17.4512   14.1826 C   0  0  0  0  0  0  0  0  0  0  0  0
    8.6532  -16.8424   15.4003 C   0  0  1  0  0  0  0  0  0  0  0  0
    9.9902  -17.5490   15.5609 C   0  0  0  0  0  0  0  0  0  0  0  0
    8.9600  -15.3771   15.1890 C   0  0  2  0  0  0  0  0  0  0  0  0
    9.7492  -15.2707   13.9756 N   0  0  0  0  0  0  0  0  0  0  0  0
    9.6720  -14.7855   16.3473 C   0  0  0  0  0  0  0  0  0  0  0  0
   10.9047  -14.7943   16.4049 O   0  0  0  0  0  0  0  0  0  0  0  0
    8.2233  -13.5160   21.8568 N   0  0  0  0  0  0  0  0  0  0  0  0
    7.1440  -14.0135   21.0832 C   0  0  0  0  0  0  0  0  0  0  0  0
    6.1771  -14.6105   21.6380 O   0  0  0  0  0  0  0  0  0  0  0  0
    7.1963  -13.8064   19.6117 C   0  0  0  0  0  0  0  0  0  0  0  0
    8.3646  -12.9176   19.3085 C   0  0  0  0  0  0  0  0  0  0  0  0
    9.4736  -13.6397   18.5837 C   0  0  2  0  0  0  0  0  0  0  0  0
    8.9186  -14.2131   17.3811 N   0  0  0  0  0  0  0  0  0  0  0  0
   10.1414  -14.6435   19.4338 C   0  0  0  0  0  0  0  0  0  0  0  0
    9.7430  -15.8366   19.3623 O   0  0  0  0  0  0  0  0  0  0  0  0
   15.9220  -14.5718   21.7896 N   0  0  0  0  0  0  0  0  0  0  0  0
   15.5257  -14.6672   20.4280 C   0  0  0  0  0  0  0  0  0  0  0  0
   16.3737  -14.5338   19.5143 O   0  0  0  0  0  0  0  0  0  0  0  0
   14.0892  -14.9272   20.1336 C   0  0  0  0  0  0  0  0  0  0  0  0
   13.2820  -15.0384   21.4038 C   0  0  0  0  0  0  0  0  0  0  0  0
   11.8365  -15.3163   21.1950 C   0  0  2  0  0  0  0  0  0  0  0  0
   11.2037  -14.3352   20.3229 N   0  0  0  0  0  0  0  0  0  0  0  0
   11.0456  -15.5336   22.4190 C   0  0  0  0  0  0  0  0  0  0  0  0
   11.2289  -16.5246   23.3481 O   0  0  0  0  0  0  0  0  0  0  0  0
   10.0888  -14.7120   22.6352 O   0  0  0  0  0  0  0  0  0  0  0  0
  2  1  1  6
  2  4  1  0
  3  2  1  0
  4  6  1  0
  4  5  1  6
  6 14  1  0
  7  6  2  0
  9  8  1  0
  9 10  2  0
 11 12  1  0
 11  9  1  0
 13 12  1  1
 13 15  1  0
 14 13  1  0
 15 23  1  0
 15 16  2  0
 17 18  1  0
 18 20  1  0
 18 19  2  0
 20 21  1  0
 22 21  1  1
 22 24  1  0
 23 22  1  0
 24 26  2  0
 24 25  1  0
M  END
$$$$
