VQQ.pdb
     RDKit          3D

 26 25  0  0  1  0  0  0  0  0999 V2000
    9.9746  -13.2519   17.8141 C   0  0  0  0  0  0  0  0  0  0  0  0
    8.6776  -14.0197   17.6488 C   0  0  1  0  0  0  0  0  0  0  0  0
    9.0613  -15.4539   17.3198 C   0  0  0  0  0  0  0  0  0  0  0  0
    7.8933  -14.0662   18.9405 C   0  0  2  0  0  0  0  0  0  0  0  0
    7.3927  -12.7272   19.1916 N   0  0  0  0  0  0  0  0  0  0  0  0
    8.7165  -14.5538   20.0735 C   0  0  0  0  0  0  0  0  0  0  0  0
    9.5804  -13.8355   20.5837 O   0  0  0  0  0  0  0  0  0  0  0  0
    7.5965  -20.1766   22.3151 N   0  0  0  0  0  0  0  0  0  0  0  0
    8.7302  -19.9010   23.1212 C   0  0  0  0  0  0  0  0  0  0  0  0
    9.1736  -20.7702   23.9255 O   0  0  0  0  0  0  0  0  0  0  0  0
    9.3672  -18.5645   22.9828 C   0  0  0  0  0  0  0  0  0  0  0  0
    8.6289  -17.8053   21.9219 C   0  0  0  0  0  0  0  0  0  0  0  0
    9.2918  -16.4949   21.5750 C   0  0  2  0  0  0  0  0  0  0  0  0
    8.4962  -15.8503   20.5577 N   0  0  0  0  0  0  0  0  0  0  0  0
   10.6996  -16.6664   21.1689 C   0  0  0  0  0  0  0  0  0  0  0  0
   10.9364  -17.3362   20.1284 O   0  0  0  0  0  0  0  0  0  0  0  0
   15.3427  -13.7606   19.3241 N   0  0  0  0  0  0  0  0  0  0  0  0
   14.3492  -14.4907   18.6171 C   0  0  0  0  0  0  0  0  0  0  0  0
   14.1792  -14.2976   17.3902 O   0  0  0  0  0  0  0  0  0  0  0  0
   13.5320  -15.4771   19.3770 C   0  0  0  0  0  0  0  0  0  0  0  0
   13.9134  -15.4942   20.8369 C   0  0  0  0  0  0  0  0  0  0  0  0
   13.1822  -16.4974   21.6549 C   0  0  2  0  0  0  0  0  0  0  0  0
   11.7943  -16.1183   21.8867 N   0  0  0  0  0  0  0  0  0  0  0  0
   13.8429  -16.9025   22.9079 C   0  0  0  0  0  0  0  0  0  0  0  0
   13.3093  -16.8516   24.1695 O   0  0  0  0  0  0  0  0  0  0  0  0
   15.0386  -17.3469   22.8065 O   0  0  0  0  0  0  0  0  0  0  0  0
  2  1  1  1
  2  4  1  0
  3  2  1  0
  4  6  1  0
  4  5  1  1
  6 14  1  0
  7  6  2  0
  9  8  1  0
  9 10  2  0
 11 12  1  0
 11  9  1  0
 13 12  1  6
 13 15  1  0
 14 13  1  0
 15 23  1  0
 15 16  2  0
 17 18  1  0
 18 20  1  0
 18 19  2  0
 20 21  1  0
 22 21  1  1
 22 24  1  0
 23 22  1  0
 24 26  2  0
 24 25  1  0
M  END
$$$$
