VQQ.pdb
     RDKit          3D

 26 25  0  0  1  0  0  0  0  0999 V2000
    7.0284  -13.0002   20.1929 C   0  0  0  0  0  0  0  0  0  0  0  0
    8.2995  -13.2521   19.4056 C   0  0  1  0  0  0  0  0  0  0  0  0
    9.4429  -12.6913   20.2367 C   0  0  0  0  0  0  0  0  0  0  0  0
    8.5664  -14.7313   19.2434 C   0  0  2  0  0  0  0  0  0  0  0  0
    7.6036  -15.2424   18.2852 N   0  0  0  0  0  0  0  0  0  0  0  0
    8.4781  -15.4569   20.5336 C   0  0  0  0  0  0  0  0  0  0  0  0
    7.3958  -15.5940   21.1104 O   0  0  0  0  0  0  0  0  0  0  0  0
   12.9974  -19.1477   22.3357 N   0  0  0  0  0  0  0  0  0  0  0  0
   11.8899  -19.6408   21.6000 C   0  0  0  0  0  0  0  0  0  0  0  0
   11.9502  -20.7647   21.0236 O   0  0  0  0  0  0  0  0  0  0  0  0
   10.6708  -18.7918   21.5357 C   0  0  0  0  0  0  0  0  0  0  0  0
   10.9152  -17.5641   22.3602 C   0  0  0  0  0  0  0  0  0  0  0  0
    9.7303  -16.6301   22.3801 C   0  0  2  0  0  0  0  0  0  0  0  0
    9.6498  -15.9872   21.0903 N   0  0  0  0  0  0  0  0  0  0  0  0
    9.7946  -15.6627   23.4920 C   0  0  0  0  0  0  0  0  0  0  0  0
   10.6784  -14.7661   23.4439 O   0  0  0  0  0  0  0  0  0  0  0  0
    5.2735  -12.5709   25.8525 N   0  0  0  0  0  0  0  0  0  0  0  0
    6.3303  -12.0295   26.6338 C   0  0  0  0  0  0  0  0  0  0  0  0
    6.1718  -10.9454   27.2429 O   0  0  0  0  0  0  0  0  0  0  0  0
    7.6110  -12.7869   26.6996 C   0  0  0  0  0  0  0  0  0  0  0  0
    7.6579  -13.8740   25.6541 C   0  0  0  0  0  0  0  0  0  0  0  0
    8.9090  -14.6771   25.6535 C   0  0  2  0  0  0  0  0  0  0  0  0
    8.9165  -15.6907   24.6065 N   0  0  0  0  0  0  0  0  0  0  0  0
    9.3011  -15.2479   26.9541 C   0  0  0  0  0  0  0  0  0  0  0  0
    9.8020  -14.5644   28.0315 O   0  0  0  0  0  0  0  0  0  0  0  0
    9.1593  -16.5123   27.0900 O   0  0  0  0  0  0  0  0  0  0  0  0
  2  1  1  1
  2  4  1  0
  3  2  1  0
  4  6  1  0
  4  5  1  6
  6 14  1  0
  7  6  2  0
  9  8  1  0
  9 10  2  0
 11 12  1  0
 11  9  1  0
 13 12  1  6
 13 15  1  0
 14 13  1  0
 15 23  1  0
 15 16  2  0
 17 18  1  0
 18 20  1  0
 18 19  2  0
 20 21  1  0
 22 21  1  1
 22 24  1  0
 23 22  1  0
 24 26  2  0
 24 25  1  0
M  END
$$$$
