VQQ.pdb
     RDKit          3D

 26 25  0  0  1  0  0  0  0  0999 V2000
    7.2046  -12.8325   19.8709 C   0  0  0  0  0  0  0  0  0  0  0  0
    8.5058  -13.1558   19.1627 C   0  0  1  0  0  0  0  0  0  0  0  0
    9.6259  -12.6811   20.0752 C   0  0  0  0  0  0  0  0  0  0  0  0
    8.6878  -14.6470   18.9925 C   0  0  2  0  0  0  0  0  0  0  0  0
    7.7006  -15.0964   18.0282 N   0  0  0  0  0  0  0  0  0  0  0  0
    8.5536  -15.3738   20.2780 C   0  0  0  0  0  0  0  0  0  0  0  0
    7.4665  -15.4387   20.8583 O   0  0  0  0  0  0  0  0  0  0  0  0
   12.5929  -19.6018   21.8884 N   0  0  0  0  0  0  0  0  0  0  0  0
   12.0456  -19.4402   23.1866 C   0  0  0  0  0  0  0  0  0  0  0  0
   12.4054  -20.1961   24.1344 O   0  0  0  0  0  0  0  0  0  0  0  0
   11.0442  -18.3589   23.3840 C   0  0  0  0  0  0  0  0  0  0  0  0
   10.8622  -17.6495   22.0761 C   0  0  0  0  0  0  0  0  0  0  0  0
    9.7224  -16.6611   22.1030 C   0  0  2  0  0  0  0  0  0  0  0  0
    9.6872  -15.9889   20.8262 N   0  0  0  0  0  0  0  0  0  0  0  0
    9.8192  -15.7209   23.2356 C   0  0  0  0  0  0  0  0  0  0  0  0
   10.7308  -14.8518   23.2050 O   0  0  0  0  0  0  0  0  0  0  0  0
    5.2986  -12.7987   25.9024 N   0  0  0  0  0  0  0  0  0  0  0  0
    6.3286  -12.3556   26.7758 C   0  0  0  0  0  0  0  0  0  0  0  0
    6.1068  -11.4318   27.5938 O   0  0  0  0  0  0  0  0  0  0  0  0
    7.6585  -13.0197   26.6835 C   0  0  0  0  0  0  0  0  0  0  0  0
    7.6823  -14.0447   25.5763 C   0  0  0  0  0  0  0  0  0  0  0  0
    8.9760  -14.7615   25.4256 C   0  0  2  0  0  0  0  0  0  0  0  0
    8.9426  -15.7456   24.3514 N   0  0  0  0  0  0  0  0  0  0  0  0
    9.5339  -15.3372   26.6619 C   0  0  0  0  0  0  0  0  0  0  0  0
    9.6683  -16.6688   26.9579 O   0  0  0  0  0  0  0  0  0  0  0  0
    9.9332  -14.5071   27.5500 O   0  0  0  0  0  0  0  0  0  0  0  0
  2  1  1  1
  2  4  1  0
  3  2  1  0
  4  6  1  0
  4  5  1  6
  6 14  1  0
  7  6  2  0
  9  8  1  0
  9 10  2  0
 11 12  1  0
 11  9  1  0
 13 12  1  6
 13 15  1  0
 14 13  1  0
 15 23  1  0
 15 16  2  0
 17 18  1  0
 18 20  1  0
 18 19  2  0
 20 21  1  0
 22 21  1  1
 22 24  1  0
 23 22  1  0
 24 26  2  0
 24 25  1  0
M  END
$$$$
