VQQ.pdb
     RDKit          3D

 26 25  0  0  1  0  0  0  0  0999 V2000
    6.9446  -12.8312   18.3568 C   0  0  0  0  0  0  0  0  0  0  0  0
    8.2228  -13.6413   18.4520 C   0  0  1  0  0  0  0  0  0  0  0  0
    9.3313  -12.6626   18.8070 C   0  0  0  0  0  0  0  0  0  0  0  0
    8.1572  -14.6487   19.5775 C   0  0  2  0  0  0  0  0  0  0  0  0
    7.8268  -13.9225   20.7898 N   0  0  0  0  0  0  0  0  0  0  0  0
    9.4283  -15.3972   19.7284 C   0  0  0  0  0  0  0  0  0  0  0  0
    9.6664  -16.3879   19.0324 O   0  0  0  0  0  0  0  0  0  0  0  0
   14.9973  -13.7973   19.8704 N   0  0  0  0  0  0  0  0  0  0  0  0
   14.2775  -14.3915   18.8028 C   0  0  0  0  0  0  0  0  0  0  0  0
   14.7181  -14.3321   17.6190 O   0  0  0  0  0  0  0  0  0  0  0  0
   12.9997  -15.0782   19.1296 C   0  0  0  0  0  0  0  0  0  0  0  0
   12.7455  -14.9133   20.5976 C   0  0  0  0  0  0  0  0  0  0  0  0
   11.5414  -15.6894   21.0713 C   0  0  2  0  0  0  0  0  0  0  0  0
   10.3598  -14.9590   20.6794 N   0  0  0  0  0  0  0  0  0  0  0  0
   11.5829  -15.9640   22.5201 C   0  0  0  0  0  0  0  0  0  0  0  0
   12.3288  -15.2441   23.2362 O   0  0  0  0  0  0  0  0  0  0  0  0
    6.9123  -17.9894   25.8632 N   0  0  0  0  0  0  0  0  0  0  0  0
    7.0925  -16.7478   25.1953 C   0  0  0  0  0  0  0  0  0  0  0  0
    6.1071  -16.0078   24.9648 O   0  0  0  0  0  0  0  0  0  0  0  0
    8.4730  -16.3664   24.7869 C   0  0  0  0  0  0  0  0  0  0  0  0
    9.4623  -17.4566   25.1185 C   0  0  0  0  0  0  0  0  0  0  0  0
   10.8306  -17.2335   24.5817 C   0  0  2  0  0  0  0  0  0  0  0  0
   10.8296  -16.9918   23.1446 N   0  0  0  0  0  0  0  0  0  0  0  0
   11.8345  -18.2458   24.9537 C   0  0  0  0  0  0  0  0  0  0  0  0
   12.6197  -18.9743   24.0983 O   0  0  0  0  0  0  0  0  0  0  0  0
   11.9875  -18.4670   26.2047 O   0  0  0  0  0  0  0  0  0  0  0  0
  2  1  1  1
  2  4  1  0
  3  2  1  0
  4  6  1  0
  4  5  1  1
  6 14  1  0
  7  6  2  0
  9  8  1  0
  9 10  2  0
 11 12  1  0
 11  9  1  0
 13 12  1  1
 13 15  1  0
 14 13  1  0
 15 23  1  0
 15 16  2  0
 17 18  1  0
 18 20  1  0
 18 19  2  0
 20 21  1  0
 22 21  1  6
 22 24  1  0
 23 22  1  0
 24 26  2  0
 24 25  1  0
M  END
$$$$
