VQQ.pdb
     RDKit          3D

 26 25  0  0  1  0  0  0  0  0999 V2000
    7.8341  -12.8600   17.9577 C   0  0  0  0  0  0  0  0  0  0  0  0
    8.4769  -12.8876   19.3306 C   0  0  1  0  0  0  0  0  0  0  0  0
    7.3462  -12.7764   20.3414 C   0  0  0  0  0  0  0  0  0  0  0  0
    9.1649  -14.2080   19.5934 C   0  0  2  0  0  0  0  0  0  0  0  0
    8.2386  -15.2608   19.2193 N   0  0  0  0  0  0  0  0  0  0  0  0
    9.5889  -14.3422   21.0080 C   0  0  0  0  0  0  0  0  0  0  0  0
   10.3588  -13.5242   21.5187 O   0  0  0  0  0  0  0  0  0  0  0  0
    6.8989  -12.9236   25.1563 N   0  0  0  0  0  0  0  0  0  0  0  0
    7.2868  -14.2876   25.1539 C   0  0  0  0  0  0  0  0  0  0  0  0
    7.7116  -14.8369   26.2106 O   0  0  0  0  0  0  0  0  0  0  0  0
    7.1744  -15.0349   23.8732 C   0  0  0  0  0  0  0  0  0  0  0  0
    8.2193  -16.1097   23.8689 C   0  0  0  0  0  0  0  0  0  0  0  0
    9.4682  -15.7052   23.1249 C   0  0  2  0  0  0  0  0  0  0  0  0
    9.0985  -15.4187   21.7594 N   0  0  0  0  0  0  0  0  0  0  0  0
   10.5347  -16.7197   23.2220 C   0  0  0  0  0  0  0  0  0  0  0  0
   10.6463  -17.5507   22.2816 O   0  0  0  0  0  0  0  0  0  0  0  0
   15.3772  -16.2940   21.3257 N   0  0  0  0  0  0  0  0  0  0  0  0
   15.5486  -15.6806   22.5963 C   0  0  0  0  0  0  0  0  0  0  0  0
   16.4304  -14.8044   22.7589 O   0  0  0  0  0  0  0  0  0  0  0  0
   14.6558  -16.1113   23.7078 C   0  0  0  0  0  0  0  0  0  0  0  0
   13.6072  -17.0818   23.2222 C   0  0  0  0  0  0  0  0  0  0  0  0
   12.6787  -17.5671   24.2770 C   0  0  2  0  0  0  0  0  0  0  0  0
   11.4363  -16.8065   24.3146 N   0  0  0  0  0  0  0  0  0  0  0  0
   13.2607  -17.7086   25.6232 C   0  0  0  0  0  0  0  0  0  0  0  0
   12.8503  -17.0704   26.7648 O   0  0  0  0  0  0  0  0  0  0  0  0
   14.2520  -18.5098   25.7366 O   0  0  0  0  0  0  0  0  0  0  0  0
  2  1  1  6
  2  4  1  0
  3  2  1  0
  4  6  1  0
  4  5  1  1
  6 14  1  0
  7  6  2  0
  9  8  1  0
  9 10  2  0
 11 12  1  0
 11  9  1  0
 13 12  1  1
 13 15  1  0
 14 13  1  0
 15 23  1  0
 15 16  2  0
 17 18  1  0
 18 20  1  0
 18 19  2  0
 20 21  1  0
 22 21  1  6
 22 24  1  0
 23 22  1  0
 24 26  2  0
 24 25  1  0
M  END
$$$$
