CSE.pdb
     RDKit          3D

 22 21  0  0  1  0  0  0  0  0999 V2000
   21.3171  -13.5954  -17.2226 N   0  0  0  0  0  0  0  0  0  0  0  0
   21.2086  -12.2008  -17.5001 C   0  0  1  0  0  0  0  0  0  0  0  0
   19.7161  -11.8392  -17.4823 C   0  0  0  0  0  0  0  0  0  0  0  0
   18.8885  -12.6922  -18.8434 S   0  0  0  0  0  0  0  0  0  0  0  0
   21.8709  -11.3084  -16.5368 C   0  0  0  0  0  0  0  0  0  0  0  0
   22.3520  -11.8625  -15.5009 O   0  0  0  0  0  0  0  0  0  0  0  0
   24.7951   -8.8898  -17.0771 O   0  0  0  0  0  0  0  0  0  0  0  0
   24.2803   -9.5635  -15.9787 C   0  0  0  0  0  0  0  0  0  0  0  0
   22.8303   -9.1258  -15.7288 C   0  0  2  0  0  0  0  0  0  0  0  0
   22.0256   -9.9151  -16.6434 N   0  0  0  0  0  0  0  0  0  0  0  0
   22.7652   -7.6719  -16.0216 C   0  0  0  0  0  0  0  0  0  0  0  0
   22.6504   -7.3603  -17.2514 O   0  0  0  0  0  0  0  0  0  0  0  0
   22.8223   -6.6754  -15.0494 N   0  0  0  0  0  0  0  0  0  0  0  0
   22.0076   -5.4704  -15.1851 C   0  0  1  0  0  0  0  0  0  0  0  0
   20.5955   -5.9602  -15.3633 C   0  0  0  0  0  0  0  0  0  0  0  0
   19.5501   -4.9052  -15.4640 C   0  0  0  0  0  0  0  0  0  0  0  0
   18.1647   -5.3952  -15.5572 C   0  0  0  0  0  0  0  0  0  0  0  0
   17.6598   -6.1938  -14.6935 O   0  0  0  0  0  0  0  0  0  0  0  0
   22.2491   -4.4993  -14.1441 C   0  0  0  0  0  0  0  0  0  0  0  0
   22.6529   -4.8225  -12.9721 O   0  0  0  0  0  0  0  0  0  0  0  0
   17.3288   -5.0107  -16.5988 O   0  0  0  0  0  0  0  0  0  0  0  0
   22.0791   -3.1158  -14.3082 O   0  0  0  0  0  0  0  0  0  0  0  0
  2  5  1  0
  2  1  1  1
  2  3  1  0
  3  4  1  0
  5 10  1  0
  6  5  2  0
  8  7  1  0
  9  8  1  6
 10  9  1  0
 11 12  2  0
 11  9  1  0
 13 11  1  0
 14 15  1  1
 14 13  1  0
 15 16  1  0
 16 17  1  0
 17 18  2  0
 19 14  1  0
 20 19  2  0
 21 17  1  0
 22 19  1  0
M  END
$$$$
