CSE.pdb
     RDKit          3D

 22 21  0  0  1  0  0  0  0  0999 V2000
   17.3197  -12.1880  -14.9304 N   0  0  0  0  0  0  0  0  0  0  0  0
   18.5290  -12.0123  -15.6655 C   0  0  1  0  0  0  0  0  0  0  0  0
   18.6566  -13.1944  -16.6378 C   0  0  0  0  0  0  0  0  0  0  0  0
   18.8771  -14.7155  -15.6878 S   0  0  0  0  0  0  0  0  0  0  0  0
   18.6068  -10.7880  -16.4766 C   0  0  0  0  0  0  0  0  0  0  0  0
   19.6626  -10.6403  -17.1659 O   0  0  0  0  0  0  0  0  0  0  0  0
   16.5912   -9.1663  -19.1880 O   0  0  0  0  0  0  0  0  0  0  0  0
   16.5981   -8.2931  -18.1096 C   0  0  0  0  0  0  0  0  0  0  0  0
   17.8594   -8.5166  -17.2635 C   0  0  2  0  0  0  0  0  0  0  0  0
   17.6400   -9.7713  -16.5674 N   0  0  0  0  0  0  0  0  0  0  0  0
   17.9638   -7.3614  -16.3369 C   0  0  0  0  0  0  0  0  0  0  0  0
   17.2700   -7.4428  -15.2717 O   0  0  0  0  0  0  0  0  0  0  0  0
   18.7549   -6.2390  -16.5730 N   0  0  0  0  0  0  0  0  0  0  0  0
   18.7301   -5.1146  -15.6408 C   0  0  1  0  0  0  0  0  0  0  0  0
   20.1354   -5.0005  -15.1138 C   0  0  0  0  0  0  0  0  0  0  0  0
   20.5273   -6.0044  -14.0868 C   0  0  0  0  0  0  0  0  0  0  0  0
   21.9492   -5.9953  -13.7046 C   0  0  0  0  0  0  0  0  0  0  0  0
   22.6331   -7.0701  -13.5796 O   0  0  0  0  0  0  0  0  0  0  0  0
   18.1295   -3.9256  -16.1983 C   0  0  0  0  0  0  0  0  0  0  0  0
   17.8189   -3.8188  -17.4365 O   0  0  0  0  0  0  0  0  0  0  0  0
   22.6255   -4.8064  -13.4579 O   0  0  0  0  0  0  0  0  0  0  0  0
   17.8172   -2.7804  -15.4493 O   0  0  0  0  0  0  0  0  0  0  0  0
  2  5  1  0
  2  1  1  6
  2  3  1  0
  3  4  1  0
  5 10  1  0
  6  5  2  0
  8  7  1  0
  9  8  1  6
 10  9  1  0
 11 12  2  0
 11  9  1  0
 13 11  1  0
 14 15  1  6
 14 13  1  0
 15 16  1  0
 16 17  1  0
 17 18  2  0
 19 14  1  0
 20 19  2  0
 21 17  1  0
 22 19  1  0
M  END
$$$$
