CSE.pdb
     RDKit          3D

 22 21  0  0  1  0  0  0  0  0999 V2000
   15.6952  -12.0813  -15.3645 N   0  0  0  0  0  0  0  0  0  0  0  0
   16.9708  -11.6866  -14.8636 C   0  0  1  0  0  0  0  0  0  0  0  0
   18.0403  -12.3719  -15.7268 C   0  0  0  0  0  0  0  0  0  0  0  0
   18.1518  -14.1120  -15.2529 S   0  0  0  0  0  0  0  0  0  0  0  0
   17.2520  -10.2437  -14.9092 C   0  0  0  0  0  0  0  0  0  0  0  0
   16.8251   -9.6231  -15.9311 O   0  0  0  0  0  0  0  0  0  0  0  0
   17.5961   -8.1239  -11.6800 O   0  0  0  0  0  0  0  0  0  0  0  0
   17.2582   -7.4822  -12.8629 C   0  0  0  0  0  0  0  0  0  0  0  0
   18.0949   -8.0444  -14.0207 C   0  0  2  0  0  0  0  0  0  0  0  0
   17.9395   -9.4856  -13.9452 N   0  0  0  0  0  0  0  0  0  0  0  0
   19.4951   -7.6092  -13.7881 C   0  0  0  0  0  0  0  0  0  0  0  0
   20.0964   -8.1764  -12.8191 O   0  0  0  0  0  0  0  0  0  0  0  0
   20.1517   -6.6468  -14.5524 N   0  0  0  0  0  0  0  0  0  0  0  0
   21.5085   -6.2332  -14.2034 C   0  0  1  0  0  0  0  0  0  0  0  0
   22.3332   -6.4841  -15.4374 C   0  0  0  0  0  0  0  0  0  0  0  0
   22.4849   -7.9097  -15.8382 C   0  0  0  0  0  0  0  0  0  0  0  0
   23.2793   -8.1427  -17.0558 C   0  0  0  0  0  0  0  0  0  0  0  0
   22.7421   -8.2834  -18.2092 O   0  0  0  0  0  0  0  0  0  0  0  0
   21.5694   -4.9141  -13.6188 C   0  0  0  0  0  0  0  0  0  0  0  0
   22.6305   -4.4415  -13.0786 O   0  0  0  0  0  0  0  0  0  0  0  0
   24.6662   -8.2223  -17.0118 O   0  0  0  0  0  0  0  0  0  0  0  0
   20.4890   -4.0187  -13.5910 O   0  0  0  0  0  0  0  0  0  0  0  0
  2  5  1  0
  2  1  1  6
  2  3  1  0
  3  4  1  0
  5 10  1  0
  6  5  2  0
  8  7  1  0
  9  8  1  1
 10  9  1  0
 11 12  2  0
 11  9  1  0
 13 11  1  0
 14 15  1  6
 14 13  1  0
 15 16  1  0
 16 17  1  0
 17 18  2  0
 19 14  1  0
 20 19  2  0
 21 17  1  0
 22 19  1  0
M  END
$$$$
