CSE.pdb
     RDKit          3D

 22 21  0  0  1  0  0  0  0  0999 V2000
   18.1529  -11.7097  -16.4178 N   0  0  0  0  0  0  0  0  0  0  0  0
   18.9594  -10.5939  -16.7898 C   0  0  1  0  0  0  0  0  0  0  0  0
   18.4805  -10.1146  -18.1680 C   0  0  0  0  0  0  0  0  0  0  0  0
   19.1733  -11.1955  -19.4395 S   0  0  0  0  0  0  0  0  0  0  0  0
   18.8893   -9.4321  -15.8908 C   0  0  0  0  0  0  0  0  0  0  0  0
   17.7325   -8.9483  -15.6918 O   0  0  0  0  0  0  0  0  0  0  0  0
   22.0977   -8.0500  -13.8435 O   0  0  0  0  0  0  0  0  0  0  0  0
   20.8567   -7.7325  -13.3103 C   0  0  0  0  0  0  0  0  0  0  0  0
   19.8215   -7.6010  -14.4364 C   0  0  2  0  0  0  0  0  0  0  0  0
   19.9627   -8.8061  -15.2332 N   0  0  0  0  0  0  0  0  0  0  0  0
   20.1672   -6.3725  -15.1947 C   0  0  0  0  0  0  0  0  0  0  0  0
   20.7552   -6.5580  -16.3093 O   0  0  0  0  0  0  0  0  0  0  0  0
   19.8878   -5.0794  -14.7574 N   0  0  0  0  0  0  0  0  0  0  0  0
   20.3132   -3.9287  -15.5504 C   0  0  1  0  0  0  0  0  0  0  0  0
   19.1777   -3.6556  -16.5001 C   0  0  0  0  0  0  0  0  0  0  0  0
   19.3141   -2.4350  -17.3413 C   0  0  0  0  0  0  0  0  0  0  0  0
   18.1480   -2.1126  -18.1806 C   0  0  0  0  0  0  0  0  0  0  0  0
   17.2510   -1.2750  -17.8164 O   0  0  0  0  0  0  0  0  0  0  0  0
   20.7884   -2.8272  -14.7466 C   0  0  0  0  0  0  0  0  0  0  0  0
   20.2870   -2.5326  -13.6052 O   0  0  0  0  0  0  0  0  0  0  0  0
   17.9621   -2.7085  -19.4224 O   0  0  0  0  0  0  0  0  0  0  0  0
   21.8433   -1.9810  -15.1220 O   0  0  0  0  0  0  0  0  0  0  0  0
  2  5  1  0
  2  1  1  1
  2  3  1  0
  3  4  1  0
  5 10  1  0
  6  5  2  0
  8  7  1  0
  9  8  1  1
 10  9  1  0
 11 12  2  0
 11  9  1  0
 13 11  1  0
 14 15  1  1
 14 13  1  0
 15 16  1  0
 16 17  1  0
 17 18  2  0
 19 14  1  0
 20 19  2  0
 21 17  1  0
 22 19  1  0
M  END
$$$$
