CSE.pdb
     RDKit          3D

 22 21  0  0  1  0  0  0  0  0999 V2000
   19.0623  -12.8289  -16.9835 N   0  0  0  0  0  0  0  0  0  0  0  0
   18.9564  -11.4078  -17.0409 C   0  0  1  0  0  0  0  0  0  0  0  0
   17.4830  -11.0429  -16.8075 C   0  0  0  0  0  0  0  0  0  0  0  0
   16.5475  -11.3815  -18.3159 S   0  0  0  0  0  0  0  0  0  0  0  0
   19.7382  -10.6718  -16.0360 C   0  0  0  0  0  0  0  0  0  0  0  0
   19.5916  -11.0441  -14.8313 O   0  0  0  0  0  0  0  0  0  0  0  0
   23.1920   -8.9704  -16.7172 O   0  0  0  0  0  0  0  0  0  0  0  0
   22.8129   -9.2491  -15.4119 C   0  0  0  0  0  0  0  0  0  0  0  0
   21.3303   -8.9042  -15.2126 C   0  0  2  0  0  0  0  0  0  0  0  0
   20.6251   -9.6062  -16.2695 N   0  0  0  0  0  0  0  0  0  0  0  0
   21.2139   -7.4290  -15.3319 C   0  0  0  0  0  0  0  0  0  0  0  0
   21.3745   -6.9548  -16.5031 O   0  0  0  0  0  0  0  0  0  0  0  0
   20.9479   -6.5769  -14.2621 N   0  0  0  0  0  0  0  0  0  0  0  0
   21.0157   -5.1289  -14.4430 C   0  0  1  0  0  0  0  0  0  0  0  0
   19.6074   -4.6348  -14.2475 C   0  0  0  0  0  0  0  0  0  0  0  0
   18.6414   -4.9838  -15.3251 C   0  0  0  0  0  0  0  0  0  0  0  0
   17.2592   -4.5254  -15.1074 C   0  0  0  0  0  0  0  0  0  0  0  0
   16.9044   -3.8916  -14.0533 O   0  0  0  0  0  0  0  0  0  0  0  0
   22.0551   -4.5049  -13.6585 C   0  0  0  0  0  0  0  0  0  0  0  0
   22.3082   -3.2502  -13.7123 O   0  0  0  0  0  0  0  0  0  0  0  0
   16.2614   -4.7613  -16.0457 O   0  0  0  0  0  0  0  0  0  0  0  0
   22.8798   -5.1970  -12.7580 O   0  0  0  0  0  0  0  0  0  0  0  0
  2  5  1  0
  2  1  1  1
  2  3  1  0
  3  4  1  0
  5 10  1  0
  6  5  2  0
  8  7  1  0
  9  8  1  6
 10  9  1  0
 11 12  2  0
 11  9  1  0
 13 11  1  0
 14 15  1  1
 14 13  1  0
 15 16  1  0
 16 17  1  0
 17 18  2  0
 19 14  1  0
 20 19  2  0
 21 17  1  0
 22 19  1  0
M  END
$$$$
