CSE.pdb
     RDKit          3D

 22 21  0  0  1  0  0  0  0  0999 V2000
   18.5186  -13.7328  -16.2080 N   0  0  0  0  0  0  0  0  0  0  0  0
   17.5336  -12.7019  -16.1812 C   0  0  1  0  0  0  0  0  0  0  0  0
   17.0102  -12.5980  -14.7411 C   0  0  0  0  0  0  0  0  0  0  0  0
   15.9272  -14.0052  -14.4063 S   0  0  0  0  0  0  0  0  0  0  0  0
   18.0074  -11.3611  -16.5562 C   0  0  0  0  0  0  0  0  0  0  0  0
   19.1923  -11.0690  -16.2065 O   0  0  0  0  0  0  0  0  0  0  0  0
   17.3696   -7.3261  -19.1868 O   0  0  0  0  0  0  0  0  0  0  0  0
   16.8688   -8.5133  -18.6718 C   0  0  0  0  0  0  0  0  0  0  0  0
   17.8582   -9.1017  -17.6561 C   0  0  2  0  0  0  0  0  0  0  0  0
   17.2895  -10.3762  -17.2570 N   0  0  0  0  0  0  0  0  0  0  0  0
   17.9411   -8.1371  -16.5307 C   0  0  0  0  0  0  0  0  0  0  0  0
   17.0317   -8.2416  -15.6450 O   0  0  0  0  0  0  0  0  0  0  0  0
   18.9298   -7.1631  -16.4074 N   0  0  0  0  0  0  0  0  0  0  0  0
   18.9286   -6.2575  -15.2611 C   0  0  1  0  0  0  0  0  0  0  0  0
   20.3702   -6.1369  -14.8450 C   0  0  0  0  0  0  0  0  0  0  0  0
   20.6393   -5.2391  -13.6885 C   0  0  0  0  0  0  0  0  0  0  0  0
   22.0606   -5.0470  -13.3551 C   0  0  0  0  0  0  0  0  0  0  0  0
   22.7384   -5.9209  -12.7105 O   0  0  0  0  0  0  0  0  0  0  0  0
   18.2007   -5.0340  -15.5024 C   0  0  0  0  0  0  0  0  0  0  0  0
   17.6032   -4.3857  -14.5729 O   0  0  0  0  0  0  0  0  0  0  0  0
   22.7428   -3.8949  -13.7277 O   0  0  0  0  0  0  0  0  0  0  0  0
   18.0819   -4.4284  -16.7630 O   0  0  0  0  0  0  0  0  0  0  0  0
  2  5  1  0
  2  1  1  1
  2  3  1  0
  3  4  1  0
  5 10  1  0
  6  5  2  0
  8  7  1  0
  9  8  1  6
 10  9  1  0
 11 12  2  0
 11  9  1  0
 13 11  1  0
 14 15  1  6
 14 13  1  0
 15 16  1  0
 16 17  1  0
 17 18  2  0
 19 14  1  0
 20 19  2  0
 21 17  1  0
 22 19  1  0
M  END
$$$$
