CSE.pdb
     RDKit          3D

 22 21  0  0  1  0  0  0  0  0999 V2000
   25.4428  -20.4747   -9.3830 N   0  0  0  0  0  0  0  0  0  0  0  0
   24.8381  -20.9505  -10.5837 C   0  0  1  0  0  0  0  0  0  0  0  0
   23.3398  -20.6214  -10.5102 C   0  0  0  0  0  0  0  0  0  0  0  0
   22.6205  -21.4713   -9.0871 S   0  0  0  0  0  0  0  0  0  0  0  0
   25.3415  -20.3512  -11.8288 C   0  0  0  0  0  0  0  0  0  0  0  0
   25.3570  -19.0825  -11.8721 O   0  0  0  0  0  0  0  0  0  0  0  0
   27.4141  -22.3586  -14.7082 O   0  0  0  0  0  0  0  0  0  0  0  0
   27.5356  -20.9810  -14.5959 C   0  0  0  0  0  0  0  0  0  0  0  0
   26.1852  -20.3670  -14.2006 C   0  0  2  0  0  0  0  0  0  0  0  0
   25.8045  -21.0326  -12.9681 N   0  0  0  0  0  0  0  0  0  0  0  0
   25.2446  -20.6479  -15.3142 C   0  0  0  0  0  0  0  0  0  0  0  0
   24.5092  -21.6779  -15.1701 O   0  0  0  0  0  0  0  0  0  0  0  0
   25.1366  -19.8657  -16.4622 N   0  0  0  0  0  0  0  0  0  0  0  0
   23.8546  -19.7491  -17.1526 C   0  0  1  0  0  0  0  0  0  0  0  0
   22.8800  -19.2727  -16.1090 C   0  0  0  0  0  0  0  0  0  0  0  0
   21.4938  -19.0129  -16.5855 C   0  0  0  0  0  0  0  0  0  0  0  0
   20.5961  -18.3820  -15.6036 C   0  0  0  0  0  0  0  0  0  0  0  0
   19.7983  -19.0609  -14.8678 O   0  0  0  0  0  0  0  0  0  0  0  0
   23.9358  -18.9949  -18.3814 C   0  0  0  0  0  0  0  0  0  0  0  0
   24.7943  -18.0629  -18.5695 O   0  0  0  0  0  0  0  0  0  0  0  0
   20.5705  -17.0038  -15.4260 O   0  0  0  0  0  0  0  0  0  0  0  0
   23.1000  -19.2083  -19.4886 O   0  0  0  0  0  0  0  0  0  0  0  0
  2  5  1  0
  2  1  1  1
  2  3  1  0
  3  4  1  0
  5 10  1  0
  6  5  2  0
  8  7  1  0
  9  8  1  6
 10  9  1  0
 11 12  2  0
 11  9  1  0
 13 11  1  0
 14 15  1  1
 14 13  1  0
 15 16  1  0
 16 17  1  0
 17 18  2  0
 19 14  1  0
 20 19  2  0
 21 17  1  0
 22 19  1  0
M  END
$$$$
