CSE.pdb
     RDKit          3D

 22 21  0  0  1  0  0  0  0  0999 V2000
   13.2719  -10.4330   -8.8716 N   0  0  0  0  0  0  0  0  0  0  0  0
   13.7911   -9.2316   -9.4382 C   0  0  1  0  0  0  0  0  0  0  0  0
   13.8829   -8.1903   -8.3131 C   0  0  0  0  0  0  0  0  0  0  0  0
   12.2168   -7.6325   -7.8911 S   0  0  0  0  0  0  0  0  0  0  0  0
   15.1345   -9.3364  -10.0273 C   0  0  0  0  0  0  0  0  0  0  0  0
   16.0554   -9.7383   -9.2513 O   0  0  0  0  0  0  0  0  0  0  0  0
   17.9712  -10.0697  -13.7778 O   0  0  0  0  0  0  0  0  0  0  0  0
   16.7204   -9.9049  -13.2002 C   0  0  0  0  0  0  0  0  0  0  0  0
   16.8565   -9.1750  -11.8565 C   0  0  2  0  0  0  0  0  0  0  0  0
   15.5023   -9.0400  -11.3515 N   0  0  0  0  0  0  0  0  0  0  0  0
   17.4911   -7.8639  -12.1436 C   0  0  0  0  0  0  0  0  0  0  0  0
   16.7338   -6.9878  -12.6741 O   0  0  0  0  0  0  0  0  0  0  0  0
   18.8237   -7.5638  -11.8694 N   0  0  0  0  0  0  0  0  0  0  0  0
   19.3404   -6.2210  -12.1221 C   0  0  1  0  0  0  0  0  0  0  0  0
   18.7923   -5.3657  -11.0113 C   0  0  0  0  0  0  0  0  0  0  0  0
   19.2152   -3.9385  -11.0216 C   0  0  0  0  0  0  0  0  0  0  0  0
   18.7778   -3.1415   -9.8633 C   0  0  0  0  0  0  0  0  0  0  0  0
   18.1530   -3.6571   -8.8721 O   0  0  0  0  0  0  0  0  0  0  0  0
   20.7672   -6.1918  -12.3428 C   0  0  0  0  0  0  0  0  0  0  0  0
   21.5406   -7.1604  -12.0192 O   0  0  0  0  0  0  0  0  0  0  0  0
   19.0244   -1.7757   -9.7889 O   0  0  0  0  0  0  0  0  0  0  0  0
   21.4464   -5.1169  -12.9372 O   0  0  0  0  0  0  0  0  0  0  0  0
  2  5  1  0
  2  1  1  1
  2  3  1  0
  3  4  1  0
  5 10  1  0
  6  5  2  0
  8  7  1  0
  9  8  1  6
 10  9  1  0
 11 12  2  0
 11  9  1  0
 13 11  1  0
 14 15  1  1
 14 13  1  0
 15 16  1  0
 16 17  1  0
 17 18  2  0
 19 14  1  0
 20 19  2  0
 21 17  1  0
 22 19  1  0
M  END
$$$$
