CSE.pdb
     RDKit          3D

 22 21  0  0  1  0  0  0  0  0999 V2000
   16.5638  -10.7364  -13.6071 N   0  0  0  0  0  0  0  0  0  0  0  0
   17.1337  -10.2975  -14.8386 C   0  0  1  0  0  0  0  0  0  0  0  0
   16.2092   -9.2168  -15.4182 C   0  0  0  0  0  0  0  0  0  0  0  0
   14.7648  -10.0130  -16.1562 S   0  0  0  0  0  0  0  0  0  0  0  0
   18.4735   -9.6991  -14.7405 C   0  0  0  0  0  0  0  0  0  0  0  0
   18.6465   -8.8675  -13.7970 O   0  0  0  0  0  0  0  0  0  0  0  0
   21.5120  -10.2532  -17.5093 O   0  0  0  0  0  0  0  0  0  0  0  0
   21.8595  -10.2403  -16.1660 C   0  0  0  0  0  0  0  0  0  0  0  0
   20.8831   -9.3526  -15.3815 C   0  0  2  0  0  0  0  0  0  0  0  0
   19.5750   -9.9507  -15.5771 N   0  0  0  0  0  0  0  0  0  0  0  0
   20.9800   -7.9906  -15.9640 C   0  0  0  0  0  0  0  0  0  0  0  0
   19.9417   -7.5751  -16.5738 O   0  0  0  0  0  0  0  0  0  0  0  0
   22.1109   -7.1814  -15.8760 N   0  0  0  0  0  0  0  0  0  0  0  0
   22.1059   -5.8465  -16.4694 C   0  0  1  0  0  0  0  0  0  0  0  0
   20.9221   -5.1429  -15.8617 C   0  0  0  0  0  0  0  0  0  0  0  0
   20.7725   -3.7037  -16.2111 C   0  0  0  0  0  0  0  0  0  0  0  0
   19.6348   -3.0150  -15.5792 C   0  0  0  0  0  0  0  0  0  0  0  0
   19.7491   -2.3662  -14.4816 O   0  0  0  0  0  0  0  0  0  0  0  0
   23.3865   -5.1837  -16.3915 C   0  0  0  0  0  0  0  0  0  0  0  0
   23.6524   -4.1076  -17.0336 O   0  0  0  0  0  0  0  0  0  0  0  0
   18.3675   -3.0363  -16.1495 O   0  0  0  0  0  0  0  0  0  0  0  0
   24.4572   -5.6374  -15.6056 O   0  0  0  0  0  0  0  0  0  0  0  0
  2  5  1  0
  2  1  1  1
  2  3  1  0
  3  4  1  0
  5 10  1  0
  6  5  2  0
  8  7  1  0
  9  8  1  6
 10  9  1  0
 11 12  2  0
 11  9  1  0
 13 11  1  0
 14 15  1  1
 14 13  1  0
 15 16  1  0
 16 17  1  0
 17 18  2  0
 19 14  1  0
 20 19  2  0
 21 17  1  0
 22 19  1  0
M  END
$$$$
