CSE.pdb
     RDKit          3D

 22 21  0  0  1  0  0  0  0  0999 V2000
   26.6289  -14.1460  -18.1811 N   0  0  0  0  0  0  0  0  0  0  0  0
   25.6774  -13.7980  -17.1774 C   0  0  1  0  0  0  0  0  0  0  0  0
   26.4440  -13.5947  -15.8622 C   0  0  0  0  0  0  0  0  0  0  0  0
   27.0368  -15.1970  -15.2738 S   0  0  0  0  0  0  0  0  0  0  0  0
   24.9213  -12.5604  -17.4213 C   0  0  0  0  0  0  0  0  0  0  0  0
   25.5619  -11.6136  -17.9734 O   0  0  0  0  0  0  0  0  0  0  0  0
   20.9139  -10.5187  -18.7630 O   0  0  0  0  0  0  0  0  0  0  0  0
   21.6809  -11.6015  -18.3572 C   0  0  0  0  0  0  0  0  0  0  0  0
   22.8609  -11.1163  -17.5035 C   0  0  2  0  0  0  0  0  0  0  0  0
   23.5720  -12.3186  -17.1087 N   0  0  0  0  0  0  0  0  0  0  0  0
   22.2818  -10.3904  -16.3452 C   0  0  0  0  0  0  0  0  0  0  0  0
   21.8772  -11.1195  -15.3822 O   0  0  0  0  0  0  0  0  0  0  0  0
   22.1664   -9.0039  -16.2700 N   0  0  0  0  0  0  0  0  0  0  0  0
   21.6306   -8.3766  -15.0644 C   0  0  1  0  0  0  0  0  0  0  0  0
   22.0540   -6.9342  -15.1419 C   0  0  0  0  0  0  0  0  0  0  0  0
   21.6411   -6.0740  -13.9993 C   0  0  0  0  0  0  0  0  0  0  0  0
   21.9912   -4.6491  -14.1224 C   0  0  0  0  0  0  0  0  0  0  0  0
   23.1992   -4.2309  -14.0542 O   0  0  0  0  0  0  0  0  0  0  0  0
   20.2277   -8.6484  -14.8562 C   0  0  0  0  0  0  0  0  0  0  0  0
   19.3846   -8.7259  -15.8176 O   0  0  0  0  0  0  0  0  0  0  0  0
   21.0167   -3.6781  -14.3205 O   0  0  0  0  0  0  0  0  0  0  0  0
   19.6499   -8.8641  -13.5955 O   0  0  0  0  0  0  0  0  0  0  0  0
  2  5  1  0
  2  1  1  6
  2  3  1  0
  3  4  1  0
  5 10  1  0
  6  5  2  0
  8  7  1  0
  9  8  1  6
 10  9  1  0
 11 12  2  0
 11  9  1  0
 13 11  1  0
 14 15  1  6
 14 13  1  0
 15 16  1  0
 16 17  1  0
 17 18  2  0
 19 14  1  0
 20 19  2  0
 21 17  1  0
 22 19  1  0
M  END
$$$$
