CSE.pdb
     RDKit          3D

 22 21  0  0  1  0  0  0  0  0999 V2000
   24.8033  -22.7444  -15.5336 N   0  0  0  0  0  0  0  0  0  0  0  0
   23.3791  -22.6795  -15.5708 C   0  0  1  0  0  0  0  0  0  0  0  0
   22.8601  -24.0810  -15.9246 C   0  0  0  0  0  0  0  0  0  0  0  0
   23.3422  -24.4753  -17.6208 S   0  0  0  0  0  0  0  0  0  0  0  0
   22.7280  -22.2938  -14.3098 C   0  0  0  0  0  0  0  0  0  0  0  0
   23.3126  -22.6599  -13.2441 O   0  0  0  0  0  0  0  0  0  0  0  0
   19.6687  -19.4334  -11.9257 O   0  0  0  0  0  0  0  0  0  0  0  0
   20.1833  -19.9103  -13.1228 C   0  0  0  0  0  0  0  0  0  0  0  0
   20.9677  -21.2066  -12.8758 C   0  0  2  0  0  0  0  0  0  0  0  0
   21.5337  -21.5667  -14.1630 N   0  0  0  0  0  0  0  0  0  0  0  0
   19.9918  -22.2102  -12.3814 C   0  0  0  0  0  0  0  0  0  0  0  0
   19.3594  -22.8552  -13.2794 O   0  0  0  0  0  0  0  0  0  0  0  0
   19.7482  -22.4655  -11.0335 N   0  0  0  0  0  0  0  0  0  0  0  0
   18.8374  -23.5388  -10.6430 C   0  0  1  0  0  0  0  0  0  0  0  0
   19.2091  -23.8832   -9.2257 C   0  0  0  0  0  0  0  0  0  0  0  0
   18.4214  -24.9779   -8.5954 C   0  0  0  0  0  0  0  0  0  0  0  0
   18.7782  -25.2915   -7.2017 C   0  0  0  0  0  0  0  0  0  0  0  0
   19.6811  -24.6471   -6.5629 O   0  0  0  0  0  0  0  0  0  0  0  0
   17.4514  -23.2362  -10.9131 C   0  0  0  0  0  0  0  0  0  0  0  0
   16.9423  -22.0769  -10.7183 O   0  0  0  0  0  0  0  0  0  0  0  0
   18.1454  -26.3138   -6.5044 O   0  0  0  0  0  0  0  0  0  0  0  0
   16.5309  -24.1661  -11.4209 O   0  0  0  0  0  0  0  0  0  0  0  0
  2  5  1  0
  2  1  1  1
  2  3  1  0
  3  4  1  0
  5 10  1  0
  6  5  2  0
  8  7  1  0
  9  8  1  6
 10  9  1  0
 11 12  2  0
 11  9  1  0
 13 11  1  0
 14 15  1  1
 14 13  1  0
 15 16  1  0
 16 17  1  0
 17 18  2  0
 19 14  1  0
 20 19  2  0
 21 17  1  0
 22 19  1  0
M  END
$$$$
