CSE.pdb
     RDKit          3D

 22 21  0  0  1  0  0  0  0  0999 V2000
   15.2539  -10.0534  -10.1934 N   0  0  0  0  0  0  0  0  0  0  0  0
   15.5670   -9.3131  -11.3714 C   0  0  1  0  0  0  0  0  0  0  0  0
   15.0382   -7.8846  -11.1756 C   0  0  0  0  0  0  0  0  0  0  0  0
   13.2320   -7.9251  -11.1480 S   0  0  0  0  0  0  0  0  0  0  0  0
   16.9990   -9.1943  -11.6845 C   0  0  0  0  0  0  0  0  0  0  0  0
   17.7741   -9.0112  -10.6959 O   0  0  0  0  0  0  0  0  0  0  0  0
   19.6200  -11.4759  -13.5084 O   0  0  0  0  0  0  0  0  0  0  0  0
   19.3507  -10.2931  -14.1820 C   0  0  0  0  0  0  0  0  0  0  0  0
   19.0272   -9.1798  -13.1757 C   0  0  2  0  0  0  0  0  0  0  0  0
   17.5947   -9.2620  -12.9563 N   0  0  0  0  0  0  0  0  0  0  0  0
   19.4345   -7.8996  -13.8075 C   0  0  0  0  0  0  0  0  0  0  0  0
   18.6969   -7.4964  -14.7646 O   0  0  0  0  0  0  0  0  0  0  0  0
   20.5427   -7.1520  -13.4149 N   0  0  0  0  0  0  0  0  0  0  0  0
   20.7969   -5.8453  -14.0167 C   0  0  1  0  0  0  0  0  0  0  0  0
   19.5746   -5.0208  -13.7138 C   0  0  0  0  0  0  0  0  0  0  0  0
   19.6274   -3.5977  -14.1475 C   0  0  0  0  0  0  0  0  0  0  0  0
   18.4646   -2.7779  -13.7682 C   0  0  0  0  0  0  0  0  0  0  0  0
   18.3822   -1.5320  -14.0500 O   0  0  0  0  0  0  0  0  0  0  0  0
   22.0803   -5.2913  -13.6546 C   0  0  0  0  0  0  0  0  0  0  0  0
   22.7398   -5.6789  -12.6270 O   0  0  0  0  0  0  0  0  0  0  0  0
   17.3883   -3.3227  -13.0779 O   0  0  0  0  0  0  0  0  0  0  0  0
   22.7365   -4.2900  -14.3872 O   0  0  0  0  0  0  0  0  0  0  0  0
  2  5  1  0
  2  1  1  1
  2  3  1  0
  3  4  1  0
  5 10  1  0
  6  5  2  0
  8  7  1  0
  9  8  1  6
 10  9  1  0
 11 12  2  0
 11  9  1  0
 13 11  1  0
 14 15  1  1
 14 13  1  0
 15 16  1  0
 16 17  1  0
 17 18  2  0
 19 14  1  0
 20 19  2  0
 21 17  1  0
 22 19  1  0
M  END
$$$$
