CSE.pdb
     RDKit          3D

 22 21  0  0  1  0  0  0  0  0999 V2000
   19.8852  -13.2685  -15.7929 N   0  0  0  0  0  0  0  0  0  0  0  0
   19.6288  -12.0801  -16.5385 C   0  0  1  0  0  0  0  0  0  0  0  0
   18.1652  -12.1298  -17.0011 C   0  0  0  0  0  0  0  0  0  0  0  0
   17.9614  -13.5006  -18.1605 S   0  0  0  0  0  0  0  0  0  0  0  0
   19.7959  -10.8191  -15.8004 C   0  0  0  0  0  0  0  0  0  0  0  0
   18.9761  -10.6129  -14.8533 O   0  0  0  0  0  0  0  0  0  0  0  0
   22.7625   -8.1309  -16.6302 O   0  0  0  0  0  0  0  0  0  0  0  0
   22.3463   -8.2075  -15.3088 C   0  0  0  0  0  0  0  0  0  0  0  0
   20.8655   -8.6080  -15.2489 C   0  0  2  0  0  0  0  0  0  0  0  0
   20.7628   -9.8253  -16.0329 N   0  0  0  0  0  0  0  0  0  0  0  0
   20.0938   -7.4844  -15.8371 C   0  0  0  0  0  0  0  0  0  0  0  0
   19.4820   -7.7432  -16.9239 O   0  0  0  0  0  0  0  0  0  0  0  0
   20.0139   -6.2121  -15.2746 N   0  0  0  0  0  0  0  0  0  0  0  0
   19.1286   -5.2067  -15.8571 C   0  0  1  0  0  0  0  0  0  0  0  0
   17.7603   -5.8340  -15.8636 C   0  0  0  0  0  0  0  0  0  0  0  0
   16.6459   -4.9566  -16.3155 C   0  0  0  0  0  0  0  0  0  0  0  0
   15.2967   -5.5325  -16.1880 C   0  0  0  0  0  0  0  0  0  0  0  0
   14.2505   -4.9302  -16.6138 O   0  0  0  0  0  0  0  0  0  0  0  0
   19.2620   -3.9062  -15.2438 C   0  0  0  0  0  0  0  0  0  0  0  0
   19.5371   -3.7480  -14.0026 O   0  0  0  0  0  0  0  0  0  0  0  0
   15.0912   -6.7713  -15.5924 O   0  0  0  0  0  0  0  0  0  0  0  0
   19.1165   -2.6943  -15.9366 O   0  0  0  0  0  0  0  0  0  0  0  0
  2  5  1  0
  2  1  1  1
  2  3  1  0
  3  4  1  0
  5 10  1  0
  6  5  2  0
  8  7  1  0
  9  8  1  6
 10  9  1  0
 11 12  2  0
 11  9  1  0
 13 11  1  0
 14 15  1  1
 14 13  1  0
 15 16  1  0
 16 17  1  0
 17 18  2  0
 19 14  1  0
 20 19  2  0
 21 17  1  0
 22 19  1  0
M  END
$$$$
