AHT.pdb
     RDKit          3D

 23 23  0  0  1  0  0  0  0  0999 V2000
    9.7597  -17.8517   18.7973 C   0  0  0  0  0  0  0  0  0  0  0  0
    9.2308  -18.1238   20.1974 C   0  0  2  0  0  0  0  0  0  0  0  0
    7.8521  -18.6222   20.0994 N   0  0  0  0  0  0  0  0  0  0  0  0
    9.2119  -16.8824   21.0093 C   0  0  0  0  0  0  0  0  0  0  0  0
   10.2987  -16.2912   21.2053 O   0  0  0  0  0  0  0  0  0  0  0  0
    8.0415  -16.3489   21.5604 N   0  0  0  0  0  0  0  0  0  0  0  0
    8.0641  -15.0909   22.2947 C   0  0  1  0  0  0  0  0  0  0  0  0
    7.1531  -14.1018   21.6736 C   0  0  0  0  0  0  0  0  0  0  0  0
    7.5275  -13.7521   20.3012 C   0  0  0  0  0  0  0  0  0  0  0  0
    6.8750  -14.1285   19.1189 C   0  0  0  0  0  0  0  0  0  0  0  0
    7.5463  -13.6521   18.0564 N   0  0  0  0  0  0  0  0  0  0  0  0
    8.6150  -12.9778   18.5147 C   0  0  0  0  0  0  0  0  0  0  0  0
    8.5960  -13.0426   19.8567 N   0  0  0  0  0  0  0  0  0  0  0  0
    7.8554  -15.4221   23.7047 C   0  0  0  0  0  0  0  0  0  0  0  0
    6.6578  -15.3791   24.1614 O   0  0  0  0  0  0  0  0  0  0  0  0
    6.5148  -17.2703   24.8013 C   0  0  0  0  0  0  0  0  0  0  0  0
    7.7095  -17.6696   25.6634 C   0  0  1  0  0  0  0  0  0  0  0  0
    8.5007  -18.6047   25.0350 O   0  0  0  0  0  0  0  0  0  0  0  0
    8.4917  -16.3805   25.9416 C   0  0  2  0  0  0  0  0  0  0  0  0
    8.8321  -15.8016   24.6565 N   0  0  0  0  0  0  0  0  0  0  0  0
    9.6077  -16.6838   26.8148 C   0  0  0  0  0  0  0  0  0  0  0  0
    9.4158  -17.0698   28.1224 O   0  0  0  0  0  0  0  0  0  0  0  0
   10.7753  -16.5910   26.3655 O   0  0  0  0  0  0  0  0  0  0  0  0
  2  1  1  6
  3  2  1  0
  4  5  2  0
  4  2  1  0
  6  4  1  0
  7 14  1  0
  7  6  1  0
  7  8  1  6
  9  8  1  0
 10  9  2  0
 11 10  1  0
 12 11  1  0
 12 13  2  0
 13  9  1  0
 14 20  1  0
 15 14  2  0
 17 18  1  0
 17 19  1  0
 17 16  1  6
 19 21  1  0
 19 20  1  6
 21 23  2  0
 21 22  1  0
M  END
$$$$
