AHT.pdb
     RDKit          3D

 23 23  0  0  1  0  0  0  0  0999 V2000
   10.8577  -19.9303   18.1556 C   0  0  0  0  0  0  0  0  0  0  0  0
   10.7987  -18.4361   17.8760 C   0  0  2  0  0  0  0  0  0  0  0  0
   11.9085  -18.0721   16.9845 N   0  0  0  0  0  0  0  0  0  0  0  0
   10.9429  -17.6547   19.1286 C   0  0  0  0  0  0  0  0  0  0  0  0
   12.0934  -17.2932   19.4673 O   0  0  0  0  0  0  0  0  0  0  0  0
    9.8572  -17.3074   19.9405 N   0  0  0  0  0  0  0  0  0  0  0  0
   10.0379  -16.4617   21.1128 C   0  0  1  0  0  0  0  0  0  0  0  0
    8.8382  -15.6255   21.3493 C   0  0  0  0  0  0  0  0  0  0  0  0
    8.7531  -14.4694   20.4537 C   0  0  0  0  0  0  0  0  0  0  0  0
    9.7199  -14.0280   19.5395 C   0  0  0  0  0  0  0  0  0  0  0  0
    9.2959  -12.9053   18.9343 N   0  0  0  0  0  0  0  0  0  0  0  0
    8.0825  -12.6055   19.4290 C   0  0  0  0  0  0  0  0  0  0  0  0
    7.7660  -13.5449   20.3359 N   0  0  0  0  0  0  0  0  0  0  0  0
   10.4873  -17.3352   22.1974 C   0  0  0  0  0  0  0  0  0  0  0  0
    9.7594  -18.3487   22.4939 O   0  0  0  0  0  0  0  0  0  0  0  0
   13.8093  -18.9673   25.4527 C   0  0  0  0  0  0  0  0  0  0  0  0
   13.4758  -17.9535   24.3614 C   0  0  1  0  0  0  0  0  0  0  0  0
   14.2277  -18.1611   23.2269 O   0  0  0  0  0  0  0  0  0  0  0  0
   11.9788  -18.1100   24.0689 C   0  0  2  0  0  0  0  0  0  0  0  0
   11.6596  -17.2067   22.9804 N   0  0  0  0  0  0  0  0  0  0  0  0
   11.2340  -17.9111   25.2958 C   0  0  0  0  0  0  0  0  0  0  0  0
   10.7280  -16.6777   25.6401 O   0  0  0  0  0  0  0  0  0  0  0  0
   11.0480  -18.8880   26.0607 O   0  0  0  0  0  0  0  0  0  0  0  0
  2  1  1  1
  3  2  1  0
  4  5  2  0
  4  2  1  0
  6  4  1  0
  7 14  1  0
  7  6  1  0
  7  8  1  1
  9  8  1  0
 10  9  2  0
 11 10  1  0
 12 11  1  0
 12 13  2  0
 13  9  1  0
 14 20  1  0
 15 14  2  0
 17 18  1  0
 17 19  1  0
 17 16  1  1
 19 21  1  0
 19 20  1  6
 21 23  2  0
 21 22  1  0
M  END
$$$$
