AHT.pdb
     RDKit          3D

 23 23  0  0  1  0  0  0  0  0999 V2000
   11.3416  -17.0301   16.4958 C   0  0  0  0  0  0  0  0  0  0  0  0
   11.7034  -17.5665   17.8726 C   0  0  2  0  0  0  0  0  0  0  0  0
   10.8555  -18.7288   18.1710 N   0  0  0  0  0  0  0  0  0  0  0  0
   11.4645  -16.5447   18.9210 C   0  0  0  0  0  0  0  0  0  0  0  0
   12.1682  -15.5085   18.9037 O   0  0  0  0  0  0  0  0  0  0  0  0
   10.4947  -16.6883   19.9196 N   0  0  0  0  0  0  0  0  0  0  0  0
   10.3330  -15.6799   20.9584 C   0  0  1  0  0  0  0  0  0  0  0  0
    8.9326  -15.2001   21.0135 C   0  0  0  0  0  0  0  0  0  0  0  0
    8.5847  -14.3020   19.9097 C   0  0  0  0  0  0  0  0  0  0  0  0
    9.4307  -13.8337   18.8946 C   0  0  0  0  0  0  0  0  0  0  0  0
    8.7574  -12.9907   18.0931 N   0  0  0  0  0  0  0  0  0  0  0  0
    7.4996  -12.8984   18.5583 C   0  0  0  0  0  0  0  0  0  0  0  0
    7.4052  -13.6849   19.6436 N   0  0  0  0  0  0  0  0  0  0  0  0
   10.9138  -16.2368   22.1806 C   0  0  0  0  0  0  0  0  0  0  0  0
   10.1265  -16.4809   23.1632 O   0  0  0  0  0  0  0  0  0  0  0  0
   12.4229  -19.4209   22.6628 C   0  0  0  0  0  0  0  0  0  0  0  0
   13.4695  -18.4708   23.2389 C   0  0  1  0  0  0  0  0  0  0  0  0
   14.4619  -18.1928   22.3260 O   0  0  0  0  0  0  0  0  0  0  0  0
   12.7194  -17.1968   23.6453 C   0  0  2  0  0  0  0  0  0  0  0  0
   12.2710  -16.5569   22.4238 N   0  0  0  0  0  0  0  0  0  0  0  0
   13.5732  -16.3983   24.5016 C   0  0  0  0  0  0  0  0  0  0  0  0
   13.8951  -16.8027   25.7778 O   0  0  0  0  0  0  0  0  0  0  0  0
   14.0278  -15.3129   24.0669 O   0  0  0  0  0  0  0  0  0  0  0  0
  2  1  1  6
  3  2  1  0
  4  5  2  0
  4  2  1  0
  6  4  1  0
  7 14  1  0
  7  6  1  0
  7  8  1  1
  9  8  1  0
 10  9  2  0
 11 10  1  0
 12 11  1  0
 12 13  2  0
 13  9  1  0
 14 20  1  0
 15 14  2  0
 17 18  1  0
 17 19  1  0
 17 16  1  6
 19 21  1  0
 19 20  1  6
 21 23  2  0
 21 22  1  0
M  END
$$$$
