AHT.pdb
     RDKit          3D

 23 23  0  0  1  0  0  0  0  0999 V2000
    7.8714  -12.6312   19.7410 C   0  0  0  0  0  0  0  0  0  0  0  0
    8.4324  -13.1518   18.4263 C   0  0  2  0  0  0  0  0  0  0  0  0
    7.3887  -13.9171   17.7306 N   0  0  0  0  0  0  0  0  0  0  0  0
    9.5839  -14.0570   18.6609 C   0  0  0  0  0  0  0  0  0  0  0  0
    9.3655  -15.2899   18.6953 O   0  0  0  0  0  0  0  0  0  0  0  0
   10.8923  -13.5954   18.8438 N   0  0  0  0  0  0  0  0  0  0  0  0
   12.0005  -14.5272   19.0050 C   0  0  1  0  0  0  0  0  0  0  0  0
   13.2219  -14.0128   18.3435 C   0  0  0  0  0  0  0  0  0  0  0  0
   14.2802  -15.0182   18.2201 C   0  0  0  0  0  0  0  0  0  0  0  0
   14.1841  -16.3918   18.4833 C   0  0  0  0  0  0  0  0  0  0  0  0
   15.3807  -16.9758   18.3001 N   0  0  0  0  0  0  0  0  0  0  0  0
   16.2502  -16.0214   17.9258 C   0  0  0  0  0  0  0  0  0  0  0  0
   15.5845  -14.8552   17.8806 N   0  0  0  0  0  0  0  0  0  0  0  0
   12.0779  -14.8472   20.4308 C   0  0  0  0  0  0  0  0  0  0  0  0
   12.4570  -13.9226   21.2347 O   0  0  0  0  0  0  0  0  0  0  0  0
    9.4676  -16.1079   22.8060 C   0  0  0  0  0  0  0  0  0  0  0  0
   10.6499  -17.0644   22.9365 C   0  0  1  0  0  0  0  0  0  0  0  0
   10.4749  -18.1970   22.1736 O   0  0  0  0  0  0  0  0  0  0  0  0
   11.8902  -16.2821   22.4883 C   0  0  2  0  0  0  0  0  0  0  0  0
   11.7733  -16.0795   21.0572 N   0  0  0  0  0  0  0  0  0  0  0  0
   13.0777  -16.9830   22.9335 C   0  0  0  0  0  0  0  0  0  0  0  0
   13.4215  -17.0451   24.2653 O   0  0  0  0  0  0  0  0  0  0  0  0
   13.8081  -17.5453   22.0824 O   0  0  0  0  0  0  0  0  0  0  0  0
  2  1  1  1
  3  2  1  0
  4  5  2  0
  4  2  1  0
  6  4  1  0
  7 14  1  0
  7  6  1  0
  7  8  1  1
  9  8  1  0
 10  9  2  0
 11 10  1  0
 12 11  1  0
 12 13  2  0
 13  9  1  0
 14 20  1  0
 15 14  2  0
 17 18  1  0
 17 19  1  0
 17 16  1  6
 19 21  1  0
 19 20  1  6
 21 23  2  0
 21 22  1  0
M  END
$$$$
