AHT.pdb
     RDKit          3D

 23 23  0  0  1  0  0  0  0  0999 V2000
    8.3564  -12.5816   19.4061 C   0  0  0  0  0  0  0  0  0  0  0  0
    8.3622  -14.0964   19.2660 C   0  0  2  0  0  0  0  0  0  0  0  0
    7.5629  -14.4713   18.0915 N   0  0  0  0  0  0  0  0  0  0  0  0
    7.7573  -14.7428   20.4563 C   0  0  0  0  0  0  0  0  0  0  0  0
    6.5198  -14.9363   20.4554 O   0  0  0  0  0  0  0  0  0  0  0  0
    8.5046  -15.1420   21.5701 N   0  0  0  0  0  0  0  0  0  0  0  0
    7.8683  -15.8000   22.7033 C   0  0  1  0  0  0  0  0  0  0  0  0
    8.2224  -17.2378   22.7447 C   0  0  0  0  0  0  0  0  0  0  0  0
    7.7856  -17.9063   23.9727 C   0  0  0  0  0  0  0  0  0  0  0  0
    7.0558  -17.3486   25.0319 C   0  0  0  0  0  0  0  0  0  0  0  0
    6.8885  -18.2640   26.0018 N   0  0  0  0  0  0  0  0  0  0  0  0
    7.4883  -19.3989   25.6029 C   0  0  0  0  0  0  0  0  0  0  0  0
    8.0216  -19.1764   24.3899 N   0  0  0  0  0  0  0  0  0  0  0  0
    8.1658  -14.9881   23.8838 C   0  0  0  0  0  0  0  0  0  0  0  0
    9.3155  -14.4237   23.9510 O   0  0  0  0  0  0  0  0  0  0  0  0
    6.9538  -12.0373   27.5268 C   0  0  0  0  0  0  0  0  0  0  0  0
    6.4921  -13.0136   26.4481 C   0  0  1  0  0  0  0  0  0  0  0  0
    6.0075  -12.3558   25.3400 O   0  0  0  0  0  0  0  0  0  0  0  0
    7.7114  -13.8724   26.0920 C   0  0  2  0  0  0  0  0  0  0  0  0
    7.3217  -14.7316   24.9908 N   0  0  0  0  0  0  0  0  0  0  0  0
    8.1796  -14.5468   27.2860 C   0  0  0  0  0  0  0  0  0  0  0  0
    9.0850  -13.9568   28.1391 O   0  0  0  0  0  0  0  0  0  0  0  0
    7.7481  -15.6960   27.5453 O   0  0  0  0  0  0  0  0  0  0  0  0
  2  1  1  1
  3  2  1  0
  4  5  2  0
  4  2  1  0
  6  4  1  0
  7 14  1  0
  7  6  1  0
  7  8  1  1
  9  8  1  0
 10  9  2  0
 11 10  1  0
 12 11  1  0
 12 13  2  0
 13  9  1  0
 14 20  1  0
 15 14  2  0
 17 18  1  0
 17 19  1  0
 17 16  1  1
 19 21  1  0
 19 20  1  6
 21 23  2  0
 21 22  1  0
M  END
$$$$
