AHT.pdb
     RDKit          3D

 23 23  0  0  1  0  0  0  0  0999 V2000
    7.0724  -19.6331   18.8685 C   0  0  0  0  0  0  0  0  0  0  0  0
    6.4784  -19.4562   20.2578 C   0  0  2  0  0  0  0  0  0  0  0  0
    5.0751  -19.0405   20.1286 N   0  0  0  0  0  0  0  0  0  0  0  0
    7.1996  -18.4036   21.0143 C   0  0  0  0  0  0  0  0  0  0  0  0
    8.4164  -18.5801   21.2535 O   0  0  0  0  0  0  0  0  0  0  0  0
    6.5831  -17.2320   21.4680 N   0  0  0  0  0  0  0  0  0  0  0  0
    7.3547  -16.1834   22.1216 C   0  0  1  0  0  0  0  0  0  0  0  0
    6.8225  -14.8447   21.7765 C   0  0  0  0  0  0  0  0  0  0  0  0
    7.3650  -14.3114   20.5247 C   0  0  0  0  0  0  0  0  0  0  0  0
    8.4032  -14.8478   19.7502 C   0  0  0  0  0  0  0  0  0  0  0  0
    8.6471  -14.0477   18.6981 N   0  0  0  0  0  0  0  0  0  0  0  0
    7.7977  -13.0081   18.7674 C   0  0  0  0  0  0  0  0  0  0  0  0
    7.0356  -13.1737   19.8615 N   0  0  0  0  0  0  0  0  0  0  0  0
    7.4381  -16.5420   23.5378 C   0  0  0  0  0  0  0  0  0  0  0  0
    6.3546  -16.5375   24.2239 O   0  0  0  0  0  0  0  0  0  0  0  0
    8.6746  -19.3159   27.1056 C   0  0  0  0  0  0  0  0  0  0  0  0
    8.7027  -18.8753   25.6444 C   0  0  1  0  0  0  0  0  0  0  0  0
    7.7054  -19.4785   24.9116 O   0  0  0  0  0  0  0  0  0  0  0  0
    8.5401  -17.3507   25.6495 C   0  0  2  0  0  0  0  0  0  0  0  0
    8.5929  -16.9108   24.2688 N   0  0  0  0  0  0  0  0  0  0  0  0
    9.5296  -16.7726   26.5363 C   0  0  0  0  0  0  0  0  0  0  0  0
    9.4218  -16.8801   27.9047 O   0  0  0  0  0  0  0  0  0  0  0  0
   10.5063  -16.1597   26.0421 O   0  0  0  0  0  0  0  0  0  0  0  0
  2  1  1  6
  3  2  1  0
  4  5  2  0
  4  2  1  0
  6  4  1  0
  7 14  1  0
  7  6  1  0
  7  8  1  1
  9  8  1  0
 10  9  2  0
 11 10  1  0
 12 11  1  0
 12 13  2  0
 13  9  1  0
 14 20  1  0
 15 14  2  0
 17 18  1  0
 17 19  1  0
 17 16  1  1
 19 21  1  0
 19 20  1  6
 21 23  2  0
 21 22  1  0
M  END
$$$$
