AHT.pdb
     RDKit          3D

 23 23  0  0  1  0  0  0  0  0999 V2000
   10.6093  -17.3038   15.5782 C   0  0  0  0  0  0  0  0  0  0  0  0
   10.6414  -18.0057   16.9274 C   0  0  2  0  0  0  0  0  0  0  0  0
    9.4820  -18.9027   17.0276 N   0  0  0  0  0  0  0  0  0  0  0  0
   10.5594  -17.0262   18.0384 C   0  0  0  0  0  0  0  0  0  0  0  0
   11.4774  -16.1808   18.1463 O   0  0  0  0  0  0  0  0  0  0  0  0
    9.5089  -17.0071   18.9628 N   0  0  0  0  0  0  0  0  0  0  0  0
    9.5109  -16.0734   20.0810 C   0  0  1  0  0  0  0  0  0  0  0  0
    8.1810  -15.4410   20.2418 C   0  0  0  0  0  0  0  0  0  0  0  0
    7.8207  -14.5601   19.1282 C   0  0  0  0  0  0  0  0  0  0  0  0
    8.0204  -13.1753   19.0395 C   0  0  0  0  0  0  0  0  0  0  0  0
    7.5130  -12.7148   17.8832 N   0  0  0  0  0  0  0  0  0  0  0  0
    6.9900  -13.7601   17.2193 C   0  0  0  0  0  0  0  0  0  0  0  0
    7.1782  -14.8584   17.9702 N   0  0  0  0  0  0  0  0  0  0  0  0
   10.0706  -16.7900   21.2275 C   0  0  0  0  0  0  0  0  0  0  0  0
    9.5595  -17.9255   21.5345 O   0  0  0  0  0  0  0  0  0  0  0  0
   13.6288  -17.7305   24.4706 C   0  0  0  0  0  0  0  0  0  0  0  0
   13.0752  -16.7594   23.4311 C   0  0  1  0  0  0  0  0  0  0  0  0
   13.8233  -16.7701   22.2754 O   0  0  0  0  0  0  0  0  0  0  0  0
   11.6306  -17.1952   23.1587 C   0  0  2  0  0  0  0  0  0  0  0  0
   11.1391  -16.3835   22.0623 N   0  0  0  0  0  0  0  0  0  0  0  0
   10.8733  -17.1190   24.3918 C   0  0  0  0  0  0  0  0  0  0  0  0
    9.9912  -16.0899   24.6336 O   0  0  0  0  0  0  0  0  0  0  0  0
   11.0278  -18.0136   25.2577 O   0  0  0  0  0  0  0  0  0  0  0  0
  2  1  1  6
  3  2  1  0
  4  5  2  0
  4  2  1  0
  6  4  1  0
  7 14  1  0
  7  6  1  0
  7  8  1  1
  9  8  1  0
 10  9  2  0
 11 10  1  0
 12 11  1  0
 12 13  2  0
 13  9  1  0
 14 20  1  0
 15 14  2  0
 17 18  1  0
 17 19  1  0
 17 16  1  1
 19 21  1  0
 19 20  1  6
 21 23  2  0
 21 22  1  0
M  END
$$$$
