AHT.pdb
     RDKit          3D

 23 23  0  0  1  0  0  0  0  0999 V2000
   11.1938  -19.3259   18.1871 C   0  0  0  0  0  0  0  0  0  0  0  0
   10.7861  -17.8835   17.9271 C   0  0  2  0  0  0  0  0  0  0  0  0
   11.8319  -17.2269   17.1309 N   0  0  0  0  0  0  0  0  0  0  0  0
   10.6413  -17.1344   19.1992 C   0  0  0  0  0  0  0  0  0  0  0  0
   11.6758  -16.6637   19.7257 O   0  0  0  0  0  0  0  0  0  0  0  0
    9.4085  -16.9332   19.8302 N   0  0  0  0  0  0  0  0  0  0  0  0
    9.2898  -16.0438   20.9778 C   0  0  1  0  0  0  0  0  0  0  0  0
    8.0524  -15.2340   20.8910 C   0  0  0  0  0  0  0  0  0  0  0  0
    7.9962  -14.3894   19.6955 C   0  0  0  0  0  0  0  0  0  0  0  0
    8.5343  -13.1049   19.5348 C   0  0  0  0  0  0  0  0  0  0  0  0
    8.2359  -12.6355   18.3112 N   0  0  0  0  0  0  0  0  0  0  0  0
    7.5200  -13.5778   17.6735 C   0  0  0  0  0  0  0  0  0  0  0  0
    7.3816  -14.6220   18.5076 N   0  0  0  0  0  0  0  0  0  0  0  0
    9.4860  -16.8672   22.1713 C   0  0  0  0  0  0  0  0  0  0  0  0
    8.6046  -17.7603   22.4371 O   0  0  0  0  0  0  0  0  0  0  0  0
   12.4448  -18.9011   22.9903 C   0  0  0  0  0  0  0  0  0  0  0  0
   12.1497  -18.1526   24.2874 C   0  0  1  0  0  0  0  0  0  0  0  0
   12.9778  -17.0643   24.4468 O   0  0  0  0  0  0  0  0  0  0  0  0
   10.6797  -17.7227   24.2135 C   0  0  2  0  0  0  0  0  0  0  0  0
   10.5577  -16.8089   23.0943 N   0  0  0  0  0  0  0  0  0  0  0  0
   10.2741  -17.2016   25.5033 C   0  0  0  0  0  0  0  0  0  0  0  0
   10.1328  -18.0217   26.6002 O   0  0  0  0  0  0  0  0  0  0  0  0
   10.0466  -15.9733   25.6198 O   0  0  0  0  0  0  0  0  0  0  0  0
  2  1  1  1
  3  2  1  0
  4  5  2  0
  4  2  1  0
  6  4  1  0
  7 14  1  0
  7  6  1  0
  7  8  1  1
  9  8  1  0
 10  9  2  0
 11 10  1  0
 12 11  1  0
 12 13  2  0
 13  9  1  0
 14 20  1  0
 15 14  2  0
 17 18  1  0
 17 19  1  0
 17 16  1  6
 19 21  1  0
 19 20  1  6
 21 23  2  0
 21 22  1  0
M  END
$$$$
