AHT.pdb
     RDKit          3D

 23 23  0  0  1  0  0  0  0  0999 V2000
    7.8628  -12.4601   19.7655 C   0  0  0  0  0  0  0  0  0  0  0  0
    8.3855  -13.0763   18.4766 C   0  0  2  0  0  0  0  0  0  0  0  0
    7.2976  -13.8194   17.8261 N   0  0  0  0  0  0  0  0  0  0  0  0
    9.4893  -14.0283   18.7518 C   0  0  0  0  0  0  0  0  0  0  0  0
    9.2070  -15.2451   18.8452 O   0  0  0  0  0  0  0  0  0  0  0  0
   10.8208  -13.6277   18.9101 N   0  0  0  0  0  0  0  0  0  0  0  0
   11.8822  -14.6085   19.0931 C   0  0  1  0  0  0  0  0  0  0  0  0
   13.1435  -14.1420   18.4720 C   0  0  0  0  0  0  0  0  0  0  0  0
   14.1742  -15.1808   18.4047 C   0  0  0  0  0  0  0  0  0  0  0  0
   14.0947  -16.4916   18.8955 C   0  0  0  0  0  0  0  0  0  0  0  0
   15.2602  -17.1277   18.6868 N   0  0  0  0  0  0  0  0  0  0  0  0
   16.0932  -16.2682   18.0751 C   0  0  0  0  0  0  0  0  0  0  0  0
   15.4364  -15.1077   17.9104 N   0  0  0  0  0  0  0  0  0  0  0  0
   11.9045  -14.9447   20.5171 C   0  0  0  0  0  0  0  0  0  0  0  0
   12.3401  -14.0599   21.3370 O   0  0  0  0  0  0  0  0  0  0  0  0
    9.2015  -15.9687   22.9187 C   0  0  0  0  0  0  0  0  0  0  0  0
   10.2767  -17.0495   22.9942 C   0  0  1  0  0  0  0  0  0  0  0  0
    9.9718  -18.1275   22.1939 O   0  0  0  0  0  0  0  0  0  0  0  0
   11.5873  -16.3869   22.5535 C   0  0  2  0  0  0  0  0  0  0  0  0
   11.4889  -16.1532   21.1258 N   0  0  0  0  0  0  0  0  0  0  0  0
   12.7006  -17.2077   22.9853 C   0  0  0  0  0  0  0  0  0  0  0  0
   13.0420  -17.3180   24.3146 O   0  0  0  0  0  0  0  0  0  0  0  0
   13.3676  -17.8310   22.1248 O   0  0  0  0  0  0  0  0  0  0  0  0
  2  1  1  1
  3  2  1  0
  4  5  2  0
  4  2  1  0
  6  4  1  0
  7 14  1  0
  7  6  1  0
  7  8  1  1
  9  8  1  0
 10  9  2  0
 11 10  1  0
 12 11  1  0
 12 13  2  0
 13  9  1  0
 14 20  1  0
 15 14  2  0
 17 18  1  0
 17 19  1  0
 17 16  1  6
 19 21  1  0
 19 20  1  6
 21 23  2  0
 21 22  1  0
M  END
$$$$
