AHT.pdb
     RDKit          3D

 23 23  0  0  1  0  0  0  0  0999 V2000
   16.7143  -19.6313   18.0773 C   0  0  0  0  0  0  0  0  0  0  0  0
   15.4924  -19.4557   17.1883 C   0  0  2  0  0  0  0  0  0  0  0  0
   15.6714  -18.2547   16.3610 N   0  0  0  0  0  0  0  0  0  0  0  0
   14.2652  -19.2726   18.0012 C   0  0  0  0  0  0  0  0  0  0  0  0
   13.8199  -18.1101   18.1405 O   0  0  0  0  0  0  0  0  0  0  0  0
   13.5902  -20.3344   18.6137 N   0  0  0  0  0  0  0  0  0  0  0  0
   12.3347  -20.1172   19.3200 C   0  0  1  0  0  0  0  0  0  0  0  0
   11.4525  -21.3014   19.2028 C   0  0  0  0  0  0  0  0  0  0  0  0
   10.1382  -21.1071   19.8199 C   0  0  0  0  0  0  0  0  0  0  0  0
    9.6910  -19.9876   20.5354 C   0  0  0  0  0  0  0  0  0  0  0  0
    8.4435  -20.2035   20.9865 N   0  0  0  0  0  0  0  0  0  0  0  0
    8.0683  -21.4302   20.5847 C   0  0  0  0  0  0  0  0  0  0  0  0
    9.0865  -21.9628   19.8885 N   0  0  0  0  0  0  0  0  0  0  0  0
   12.6818  -19.6531   20.6636 C   0  0  0  0  0  0  0  0  0  0  0  0
   13.8447  -19.9454   21.1188 O   0  0  0  0  0  0  0  0  0  0  0  0
   11.5323  -16.2617   22.6865 C   0  0  0  0  0  0  0  0  0  0  0  0
   11.2868  -17.5582   23.4537 C   0  0  1  0  0  0  0  0  0  0  0  0
    9.9919  -18.0012   23.3034 O   0  0  0  0  0  0  0  0  0  0  0  0
   12.2884  -18.5814   22.9050 C   0  0  2  0  0  0  0  0  0  0  0  0
   11.8793  -18.8951   21.5497 N   0  0  0  0  0  0  0  0  0  0  0  0
   12.3663  -19.7035   23.8185 C   0  0  0  0  0  0  0  0  0  0  0  0
   12.9333  -19.5788   25.0670 O   0  0  0  0  0  0  0  0  0  0  0  0
   11.9056  -20.8140   23.4598 O   0  0  0  0  0  0  0  0  0  0  0  0
  2  1  1  1
  3  2  1  0
  4  5  2  0
  4  2  1  0
  6  4  1  0
  7 14  1  0
  7  6  1  0
  7  8  1  1
  9  8  1  0
 10  9  2  0
 11 10  1  0
 12 11  1  0
 12 13  2  0
 13  9  1  0
 14 20  1  0
 15 14  2  0
 17 18  1  0
 17 19  1  0
 17 16  1  6
 19 21  1  0
 19 20  1  6
 21 23  2  0
 21 22  1  0
M  END
$$$$
