AHT.pdb
     RDKit          3D

 23 23  0  0  1  0  0  0  0  0999 V2000
    8.6792  -18.1945   16.2573 C   0  0  0  0  0  0  0  0  0  0  0  0
    9.2917  -18.8548   17.4833 C   0  0  2  0  0  0  0  0  0  0  0  0
    8.2545  -19.6301   18.1775 N   0  0  0  0  0  0  0  0  0  0  0  0
    9.8137  -17.8387   18.4296 C   0  0  0  0  0  0  0  0  0  0  0  0
   10.7677  -17.1195   18.0533 O   0  0  0  0  0  0  0  0  0  0  0  0
    9.2897  -17.6515   19.7137 N   0  0  0  0  0  0  0  0  0  0  0  0
    9.8419  -16.6440   20.6094 C   0  0  1  0  0  0  0  0  0  0  0  0
    8.7628  -15.8337   21.2202 C   0  0  0  0  0  0  0  0  0  0  0  0
    8.1917  -14.8448   20.3027 C   0  0  0  0  0  0  0  0  0  0  0  0
    8.6725  -14.4806   19.0372 C   0  0  0  0  0  0  0  0  0  0  0  0
    7.9052  -13.5048   18.5217 N   0  0  0  0  0  0  0  0  0  0  0  0
    6.9409  -13.2255   19.4155 C   0  0  0  0  0  0  0  0  0  0  0  0
    7.1195  -14.0305   20.4764 N   0  0  0  0  0  0  0  0  0  0  0  0
   10.7667  -17.3385   21.5058 C   0  0  0  0  0  0  0  0  0  0  0  0
   10.3771  -18.4392   22.0364 O   0  0  0  0  0  0  0  0  0  0  0  0
   15.2018  -18.1147   23.5095 C   0  0  0  0  0  0  0  0  0  0  0  0
   14.3410  -17.2242   22.6175 C   0  0  1  0  0  0  0  0  0  0  0  0
   14.7285  -17.2983   21.2985 O   0  0  0  0  0  0  0  0  0  0  0  0
   12.8950  -17.7018   22.7966 C   0  0  2  0  0  0  0  0  0  0  0  0
   12.0771  -16.9449   21.8688 N   0  0  0  0  0  0  0  0  0  0  0  0
   12.5311  -17.5936   24.1950 C   0  0  0  0  0  0  0  0  0  0  0  0
   12.7129  -18.6406   25.0704 O   0  0  0  0  0  0  0  0  0  0  0  0
   12.0384  -16.5189   24.6147 O   0  0  0  0  0  0  0  0  0  0  0  0
  2  1  1  6
  3  2  1  0
  4  5  2  0
  4  2  1  0
  6  4  1  0
  7 14  1  0
  7  6  1  0
  7  8  1  1
  9  8  1  0
 10  9  2  0
 11 10  1  0
 12 11  1  0
 12 13  2  0
 13  9  1  0
 14 20  1  0
 15 14  2  0
 17 18  1  0
 17 19  1  0
 17 16  1  1
 19 21  1  0
 19 20  1  6
 21 23  2  0
 21 22  1  0
M  END
$$$$
