AHT.pdb
     RDKit          3D

 23 23  0  0  1  0  0  0  0  0999 V2000
   10.3728  -17.4118   16.5871 C   0  0  0  0  0  0  0  0  0  0  0  0
   10.4716  -18.1787   17.8971 C   0  0  2  0  0  0  0  0  0  0  0  0
    9.3577  -19.1335   17.9776 N   0  0  0  0  0  0  0  0  0  0  0  0
   10.3729  -17.2617   19.0589 C   0  0  0  0  0  0  0  0  0  0  0  0
   11.3056  -16.4467   19.2459 O   0  0  0  0  0  0  0  0  0  0  0  0
    9.2913  -17.2687   19.9469 N   0  0  0  0  0  0  0  0  0  0  0  0
    9.1960  -16.2886   21.0204 C   0  0  1  0  0  0  0  0  0  0  0  0
    7.9156  -15.5475   20.9452 C   0  0  0  0  0  0  0  0  0  0  0  0
    7.7999  -14.7124   19.7473 C   0  0  0  0  0  0  0  0  0  0  0  0
    8.2133  -13.3815   19.5944 C   0  0  0  0  0  0  0  0  0  0  0  0
    7.8937  -12.9434   18.3646 N   0  0  0  0  0  0  0  0  0  0  0  0
    7.2851  -13.9509   17.7153 C   0  0  0  0  0  0  0  0  0  0  0  0
    7.2333  -15.0036   18.5485 N   0  0  0  0  0  0  0  0  0  0  0  0
    9.5057  -16.9945   22.2642 C   0  0  0  0  0  0  0  0  0  0  0  0
    8.5557  -17.6274   22.8488 O   0  0  0  0  0  0  0  0  0  0  0  0
   13.1910  -16.8898   24.1940 C   0  0  0  0  0  0  0  0  0  0  0  0
   12.5049  -18.2483   24.0776 C   0  0  1  0  0  0  0  0  0  0  0  0
   12.8303  -19.0747   25.1296 O   0  0  0  0  0  0  0  0  0  0  0  0
   10.9976  -17.9693   24.0394 C   0  0  2  0  0  0  0  0  0  0  0  0
   10.7565  -17.0774   22.9218 N   0  0  0  0  0  0  0  0  0  0  0  0
   10.5731  -17.4862   25.3379 C   0  0  0  0  0  0  0  0  0  0  0  0
   10.4698  -18.3286   26.4221 O   0  0  0  0  0  0  0  0  0  0  0  0
   10.2934  -16.2708   25.4739 O   0  0  0  0  0  0  0  0  0  0  0  0
  2  1  1  6
  3  2  1  0
  4  5  2  0
  4  2  1  0
  6  4  1  0
  7 14  1  0
  7  6  1  0
  7  8  1  1
  9  8  1  0
 10  9  2  0
 11 10  1  0
 12 11  1  0
 12 13  2  0
 13  9  1  0
 14 20  1  0
 15 14  2  0
 17 18  1  0
 17 19  1  0
 17 16  1  1
 19 21  1  0
 19 20  1  6
 21 23  2  0
 21 22  1  0
M  END
$$$$
