AHT.pdb
     RDKit          3D

 23 23  0  0  1  0  0  0  0  0999 V2000
    8.1480  -20.2073   19.7124 C   0  0  0  0  0  0  0  0  0  0  0  0
    8.1076  -18.8404   19.0460 C   0  0  2  0  0  0  0  0  0  0  0  0
    8.7892  -18.9213   17.7468 N   0  0  0  0  0  0  0  0  0  0  0  0
    8.8108  -17.8264   19.8693 C   0  0  0  0  0  0  0  0  0  0  0  0
   10.0476  -17.6994   19.7163 O   0  0  0  0  0  0  0  0  0  0  0  0
    8.1565  -17.0131   20.8013 N   0  0  0  0  0  0  0  0  0  0  0  0
    8.8889  -16.0184   21.5734 C   0  0  1  0  0  0  0  0  0  0  0  0
    8.1010  -14.7713   21.7085 C   0  0  0  0  0  0  0  0  0  0  0  0
    7.9502  -14.0426   20.4467 C   0  0  0  0  0  0  0  0  0  0  0  0
    6.7557  -13.7211   19.7871 C   0  0  0  0  0  0  0  0  0  0  0  0
    7.0284  -13.0890   18.6327 N   0  0  0  0  0  0  0  0  0  0  0  0
    8.3646  -12.9910   18.5241 C   0  0  0  0  0  0  0  0  0  0  0  0
    8.9074  -13.5631   19.6120 N   0  0  0  0  0  0  0  0  0  0  0  0
    9.3355  -16.6814   22.7990 C   0  0  0  0  0  0  0  0  0  0  0  0
    8.4451  -17.2125   23.5539 O   0  0  0  0  0  0  0  0  0  0  0  0
   12.3550  -19.4600   25.2753 C   0  0  0  0  0  0  0  0  0  0  0  0
   12.0222  -18.6526   24.0234 C   0  0  1  0  0  0  0  0  0  0  0  0
   11.5209  -19.4518   23.0207 O   0  0  0  0  0  0  0  0  0  0  0  0
   10.9983  -17.5944   24.4511 C   0  0  2  0  0  0  0  0  0  0  0  0
   10.6629  -16.8227   23.2701 N   0  0  0  0  0  0  0  0  0  0  0  0
   11.5340  -16.8422   25.5677 C   0  0  0  0  0  0  0  0  0  0  0  0
   11.4537  -17.3132   26.8590 O   0  0  0  0  0  0  0  0  0  0  0  0
   12.0831  -15.7356   25.3492 O   0  0  0  0  0  0  0  0  0  0  0  0
  2  1  1  1
  3  2  1  0
  4  5  2  0
  4  2  1  0
  6  4  1  0
  7 14  1  0
  7  6  1  0
  7  8  1  1
  9  8  1  0
 10  9  2  0
 11 10  1  0
 12 11  1  0
 12 13  2  0
 13  9  1  0
 14 20  1  0
 15 14  2  0
 17 18  1  0
 17 19  1  0
 17 16  1  1
 19 21  1  0
 19 20  1  6
 21 23  2  0
 21 22  1  0
M  END
$$$$
