CTT.pdb
     RDKit          3D

 21 20  0  0  1  0  0  0  0  0999 V2000
    8.3586  -14.7830   18.0774 N   0  0  0  0  0  0  0  0  0  0  0  0
    8.6730  -14.1000   19.3127 C   0  0  1  0  0  0  0  0  0  0  0  0
    8.2619  -12.6401   19.2478 C   0  0  0  0  0  0  0  0  0  0  0  0
    9.6763  -11.6222   18.7430 S   0  0  0  0  0  0  0  0  0  0  0  0
    7.9006  -14.7249   20.4086 C   0  0  0  0  0  0  0  0  0  0  0  0
    6.9243  -15.4936   20.1513 O   0  0  0  0  0  0  0  0  0  0  0  0
    7.4394  -17.2851   21.6103 C   0  0  0  0  0  0  0  0  0  0  0  0
    8.0093  -16.6762   22.8532 C   0  0  1  0  0  0  0  0  0  0  0  0
    9.4129  -16.7711   22.8849 O   0  0  0  0  0  0  0  0  0  0  0  0
    7.6841  -15.1978   22.8735 C   0  0  2  0  0  0  0  0  0  0  0  0
    8.2325  -14.4799   21.7656 N   0  0  0  0  0  0  0  0  0  0  0  0
    8.2506  -14.6451   24.1509 C   0  0  0  0  0  0  0  0  0  0  0  0
    9.4657  -14.3686   24.2855 O   0  0  0  0  0  0  0  0  0  0  0  0
    6.5319  -11.6108   26.1587 C   0  0  0  0  0  0  0  0  0  0  0  0
    6.7801  -12.8431   26.9647 C   0  0  1  0  0  0  0  0  0  0  0  0
    5.6693  -13.6507   27.1064 O   0  0  0  0  0  0  0  0  0  0  0  0
    7.9023  -13.6998   26.4179 C   0  0  2  0  0  0  0  0  0  0  0  0
    7.4006  -14.4125   25.2777 N   0  0  0  0  0  0  0  0  0  0  0  0
    8.4195  -14.6524   27.4113 C   0  0  0  0  0  0  0  0  0  0  0  0
    8.3123  -15.8939   27.2763 O   0  0  0  0  0  0  0  0  0  0  0  0
    9.0506  -14.1643   28.5419 O   0  0  0  0  0  0  0  0  0  0  0  0
  2  3  1  0
  2  1  1  6
  4  3  1  0
  5 11  1  0
  5  2  1  0
  6  5  2  0
  8  7  1  6
  9  8  1  0
 10  8  1  0
 10 11  1  6
 12 10  1  0
 12 18  1  0
 13 12  2  0
 15 14  1  6
 16 15  1  0
 17 18  1  6
 17 15  1  0
 19 17  1  0
 20 19  2  0
 21 19  1  0
M  END
$$$$
