CTT.pdb
     RDKit          3D

 21 20  0  0  1  0  0  0  0  0999 V2000
    7.9728  -15.3098   18.2543 N   0  0  0  0  0  0  0  0  0  0  0  0
    8.3805  -14.4672   19.3566 C   0  0  1  0  0  0  0  0  0  0  0  0
    7.7337  -13.0970   19.2630 C   0  0  0  0  0  0  0  0  0  0  0  0
    8.5447  -12.1186   17.9681 S   0  0  0  0  0  0  0  0  0  0  0  0
    7.9197  -15.0844   20.6195 C   0  0  0  0  0  0  0  0  0  0  0  0
    6.7844  -15.6477   20.6841 O   0  0  0  0  0  0  0  0  0  0  0  0
    8.7893  -17.9646   22.2401 C   0  0  0  0  0  0  0  0  0  0  0  0
    9.1418  -16.9598   23.2919 C   0  0  1  0  0  0  0  0  0  0  0  0
   10.5083  -16.6253   23.2574 O   0  0  0  0  0  0  0  0  0  0  0  0
    8.3848  -15.6766   23.0234 C   0  0  2  0  0  0  0  0  0  0  0  0
    8.7327  -15.0605   21.7814 N   0  0  0  0  0  0  0  0  0  0  0  0
    8.7085  -14.7364   24.1502 C   0  0  0  0  0  0  0  0  0  0  0  0
    9.7143  -13.9887   24.1365 O   0  0  0  0  0  0  0  0  0  0  0  0
    6.7087  -11.8379   25.7215 C   0  0  0  0  0  0  0  0  0  0  0  0
    6.9423  -12.9535   26.6862 C   0  0  1  0  0  0  0  0  0  0  0  0
    5.8814  -13.8307   26.7929 O   0  0  0  0  0  0  0  0  0  0  0  0
    8.1795  -13.7674   26.3718 C   0  0  2  0  0  0  0  0  0  0  0  0
    7.8588  -14.6649   25.2987 N   0  0  0  0  0  0  0  0  0  0  0  0
    8.6613  -14.5317   27.5318 C   0  0  0  0  0  0  0  0  0  0  0  0
    9.0492  -13.9818   28.5892 O   0  0  0  0  0  0  0  0  0  0  0  0
    8.6896  -15.9133   27.4585 O   0  0  0  0  0  0  0  0  0  0  0  0
  2  3  1  0
  2  1  1  6
  4  3  1  0
  5 11  1  0
  5  2  1  0
  6  5  2  0
  8  7  1  6
  9  8  1  0
 10  8  1  0
 10 11  1  6
 12 10  1  0
 12 18  1  0
 13 12  2  0
 15 14  1  6
 16 15  1  0
 17 18  1  6
 17 15  1  0
 19 17  1  0
 20 19  2  0
 21 19  1  0
M  END
$$$$
