CTT.pdb
     RDKit          3D

 21 20  0  0  1  0  0  0  0  0999 V2000
    8.6432  -17.0858   15.8730 N   0  0  0  0  0  0  0  0  0  0  0  0
    7.8378  -17.0321   17.0730 C   0  0  1  0  0  0  0  0  0  0  0  0
    7.5633  -18.4262   17.6075 C   0  0  0  0  0  0  0  0  0  0  0  0
    9.1257  -19.2393   18.0427 S   0  0  0  0  0  0  0  0  0  0  0  0
    8.5913  -16.3027   18.1162 C   0  0  0  0  0  0  0  0  0  0  0  0
    9.7934  -15.9498   17.9142 O   0  0  0  0  0  0  0  0  0  0  0  0
    7.3307  -13.1659   20.0671 C   0  0  0  0  0  0  0  0  0  0  0  0
    7.7012  -14.2249   21.0579 C   0  0  1  0  0  0  0  0  0  0  0  0
    6.5769  -14.9534   21.4885 O   0  0  0  0  0  0  0  0  0  0  0  0
    8.6237  -15.2238   20.3923 C   0  0  2  0  0  0  0  0  0  0  0  0
    7.9899  -15.9830   19.3602 N   0  0  0  0  0  0  0  0  0  0  0  0
    9.1047  -16.1560   21.4683 C   0  0  0  0  0  0  0  0  0  0  0  0
    8.5480  -17.2530   21.7084 O   0  0  0  0  0  0  0  0  0  0  0  0
   12.5442  -17.0415   24.9392 C   0  0  0  0  0  0  0  0  0  0  0  0
   12.0630  -16.3310   23.7172 C   0  0  1  0  0  0  0  0  0  0  0  0
   12.8357  -16.5618   22.5965 O   0  0  0  0  0  0  0  0  0  0  0  0
   10.6288  -16.6591   23.3600 C   0  0  2  0  0  0  0  0  0  0  0  0
   10.2387  -15.8116   22.2694 N   0  0  0  0  0  0  0  0  0  0  0  0
    9.7086  -16.4690   24.4908 C   0  0  0  0  0  0  0  0  0  0  0  0
    9.0718  -15.4048   24.6720 O   0  0  0  0  0  0  0  0  0  0  0  0
    9.5349  -17.5030   25.3940 O   0  0  0  0  0  0  0  0  0  0  0  0
  2  3  1  0
  2  1  1  6
  4  3  1  0
  5 11  1  0
  5  2  1  0
  6  5  2  0
  8  7  1  6
  9  8  1  0
 10  8  1  0
 10 11  1  6
 12 10  1  0
 12 18  1  0
 13 12  2  0
 15 14  1  1
 16 15  1  0
 17 18  1  6
 17 15  1  0
 19 17  1  0
 20 19  2  0
 21 19  1  0
M  END
$$$$
