CTT.pdb
     RDKit          3D

 21 20  0  0  1  0  0  0  0  0999 V2000
    9.8069  -17.5751   15.2348 N   0  0  0  0  0  0  0  0  0  0  0  0
    8.7513  -17.4164   16.2104 C   0  0  1  0  0  0  0  0  0  0  0  0
    8.4235  -18.7397   16.8783 C   0  0  0  0  0  0  0  0  0  0  0  0
    7.3481  -19.7260   15.8002 S   0  0  0  0  0  0  0  0  0  0  0  0
    9.2196  -16.4950   17.2686 C   0  0  0  0  0  0  0  0  0  0  0  0
   10.4586  -16.3726   17.5137 O   0  0  0  0  0  0  0  0  0  0  0  0
    8.1149  -12.8616   20.4313 C   0  0  0  0  0  0  0  0  0  0  0  0
    7.6877  -13.6885   19.2591 C   0  0  1  0  0  0  0  0  0  0  0  0
    7.7137  -12.9496   18.0617 O   0  0  0  0  0  0  0  0  0  0  0  0
    8.6669  -14.8283   19.0748 C   0  0  2  0  0  0  0  0  0  0  0  0
    8.2983  -15.7310   18.0296 N   0  0  0  0  0  0  0  0  0  0  0  0
    8.7169  -15.5741   20.3784 C   0  0  0  0  0  0  0  0  0  0  0  0
    7.7596  -16.2671   20.7958 O   0  0  0  0  0  0  0  0  0  0  0  0
   11.4839  -16.8242   24.3169 C   0  0  0  0  0  0  0  0  0  0  0  0
   11.3278  -16.1562   22.9906 C   0  0  1  0  0  0  0  0  0  0  0  0
   12.1567  -16.6626   22.0093 O   0  0  0  0  0  0  0  0  0  0  0  0
    9.9102  -16.2017   22.4609 C   0  0  2  0  0  0  0  0  0  0  0  0
    9.8855  -15.5143   21.2012 N   0  0  0  0  0  0  0  0  0  0  0  0
    8.9441  -15.5857   23.3822 C   0  0  0  0  0  0  0  0  0  0  0  0
    8.7777  -14.3456   23.4564 O   0  0  0  0  0  0  0  0  0  0  0  0
    8.1858  -16.4028   24.2021 O   0  0  0  0  0  0  0  0  0  0  0  0
  2  3  1  0
  2  1  1  6
  4  3  1  0
  5 11  1  0
  5  2  1  0
  6  5  2  0
  8  7  1  1
  9  8  1  0
 10  8  1  0
 10 11  1  6
 12 10  1  0
 12 18  1  0
 13 12  2  0
 15 14  1  1
 16 15  1  0
 17 18  1  6
 17 15  1  0
 19 17  1  0
 20 19  2  0
 21 19  1  0
M  END
$$$$
