CTT.pdb
     RDKit          3D

 21 20  0  0  1  0  0  0  0  0999 V2000
   10.1192  -15.9682   15.1279 N   0  0  0  0  0  0  0  0  0  0  0  0
    9.0904  -16.1468   16.1283 C   0  0  1  0  0  0  0  0  0  0  0  0
    8.8628  -17.6195   16.4185 C   0  0  0  0  0  0  0  0  0  0  0  0
   10.4306  -18.4075   16.8793 S   0  0  0  0  0  0  0  0  0  0  0  0
    9.5409  -15.5160   17.3881 C   0  0  0  0  0  0  0  0  0  0  0  0
   10.6609  -14.9222   17.4463 O   0  0  0  0  0  0  0  0  0  0  0  0
    7.6843  -12.8956   19.4429 C   0  0  0  0  0  0  0  0  0  0  0  0
    7.9120  -14.0753   20.3356 C   0  0  1  0  0  0  0  0  0  0  0  0
    6.7917  -14.9262   20.3722 O   0  0  0  0  0  0  0  0  0  0  0  0
    9.0534  -14.9014   19.7820 C   0  0  2  0  0  0  0  0  0  0  0  0
    8.7348  -15.5606   18.5543 N   0  0  0  0  0  0  0  0  0  0  0  0
    9.3908  -15.9307   20.8235 C   0  0  0  0  0  0  0  0  0  0  0  0
    8.9278  -17.0951   20.7955 O   0  0  0  0  0  0  0  0  0  0  0  0
   12.2731  -17.1027   24.6797 C   0  0  0  0  0  0  0  0  0  0  0  0
   11.9045  -16.2273   23.5276 C   0  0  1  0  0  0  0  0  0  0  0  0
   12.8481  -16.2036   22.5200 O   0  0  0  0  0  0  0  0  0  0  0  0
   10.5749  -16.5908   22.9012 C   0  0  2  0  0  0  0  0  0  0  0  0
   10.2708  -15.6051   21.9032 N   0  0  0  0  0  0  0  0  0  0  0  0
    9.4856  -16.6526   23.8868 C   0  0  0  0  0  0  0  0  0  0  0  0
    8.7665  -15.6634   24.1616 O   0  0  0  0  0  0  0  0  0  0  0  0
    9.2402  -17.8477   24.5397 O   0  0  0  0  0  0  0  0  0  0  0  0
  2  3  1  0
  2  1  1  6
  4  3  1  0
  5 11  1  0
  5  2  1  0
  6  5  2  0
  8  7  1  6
  9  8  1  0
 10  8  1  0
 10 11  1  6
 12 10  1  0
 12 18  1  0
 13 12  2  0
 15 14  1  1
 16 15  1  0
 17 18  1  6
 17 15  1  0
 19 17  1  0
 20 19  2  0
 21 19  1  0
M  END
$$$$
