CTT.pdb
     RDKit          3D

 21 20  0  0  1  0  0  0  0  0999 V2000
    8.1986  -14.7382   17.7512 N   0  0  0  0  0  0  0  0  0  0  0  0
    8.6507  -14.2017   19.0158 C   0  0  1  0  0  0  0  0  0  0  0  0
    7.9041  -12.9268   19.3647 C   0  0  0  0  0  0  0  0  0  0  0  0
    8.4323  -11.5820   18.2674 S   0  0  0  0  0  0  0  0  0  0  0  0
    8.3574  -15.1869   20.0795 C   0  0  0  0  0  0  0  0  0  0  0  0
    7.3969  -16.0062   19.9513 O   0  0  0  0  0  0  0  0  0  0  0  0
    9.6539  -18.1475   23.5628 C   0  0  0  0  0  0  0  0  0  0  0  0
    9.8849  -17.3227   22.3354 C   0  0  1  0  0  0  0  0  0  0  0  0
    9.6212  -18.0503   21.1601 O   0  0  0  0  0  0  0  0  0  0  0  0
    8.9214  -16.1550   22.3358 C   0  0  2  0  0  0  0  0  0  0  0  0
    9.1398  -15.2376   21.2615 N   0  0  0  0  0  0  0  0  0  0  0  0
    9.1063  -15.4386   23.6438 C   0  0  0  0  0  0  0  0  0  0  0  0
   10.1646  -14.8349   23.9381 O   0  0  0  0  0  0  0  0  0  0  0  0
    6.6584  -12.8066   25.3276 C   0  0  0  0  0  0  0  0  0  0  0  0
    6.9157  -14.0147   26.1666 C   0  0  1  0  0  0  0  0  0  0  0  0
    5.9179  -14.9664   26.0961 O   0  0  0  0  0  0  0  0  0  0  0  0
    8.2261  -14.7004   25.8426 C   0  0  2  0  0  0  0  0  0  0  0  0
    8.0560  -15.4238   24.6147 N   0  0  0  0  0  0  0  0  0  0  0  0
    8.6591  -15.6197   26.9051 C   0  0  0  0  0  0  0  0  0  0  0  0
    8.6398  -16.8656   26.7696 O   0  0  0  0  0  0  0  0  0  0  0  0
    9.1066  -15.0939   28.1043 O   0  0  0  0  0  0  0  0  0  0  0  0
  2  3  1  0
  2  1  1  6
  4  3  1  0
  5 11  1  0
  5  2  1  0
  6  5  2  0
  8  7  1  1
  9  8  1  0
 10  8  1  0
 10 11  1  6
 12 10  1  0
 12 18  1  0
 13 12  2  0
 15 14  1  6
 16 15  1  0
 17 18  1  6
 17 15  1  0
 19 17  1  0
 20 19  2  0
 21 19  1  0
M  END
$$$$
