CTT.pdb
     RDKit          3D

 21 20  0  0  1  0  0  0  0  0999 V2000
    8.0679  -15.0982   18.0828 N   0  0  0  0  0  0  0  0  0  0  0  0
    8.3374  -14.3400   19.2844 C   0  0  1  0  0  0  0  0  0  0  0  0
    7.6590  -12.9828   19.2356 C   0  0  0  0  0  0  0  0  0  0  0  0
    8.8338  -11.7256   18.6605 S   0  0  0  0  0  0  0  0  0  0  0  0
    7.7745  -15.0705   20.4409 C   0  0  0  0  0  0  0  0  0  0  0  0
    6.9365  -16.0071   20.2650 O   0  0  0  0  0  0  0  0  0  0  0  0
    7.6922  -17.6148   21.6997 C   0  0  0  0  0  0  0  0  0  0  0  0
    8.2708  -16.9256   22.8957 C   0  0  1  0  0  0  0  0  0  0  0  0
    9.6752  -16.8629   22.8336 O   0  0  0  0  0  0  0  0  0  0  0  0
    7.7836  -15.4925   22.9244 C   0  0  2  0  0  0  0  0  0  0  0  0
    8.1570  -14.7419   21.7666 N   0  0  0  0  0  0  0  0  0  0  0  0
    8.3848  -14.8528   24.1441 C   0  0  0  0  0  0  0  0  0  0  0  0
    9.5523  -14.3972   24.1603 O   0  0  0  0  0  0  0  0  0  0  0  0
    6.8336  -11.8359   25.9513 C   0  0  0  0  0  0  0  0  0  0  0  0
    7.0070  -13.0042   26.8649 C   0  0  1  0  0  0  0  0  0  0  0  0
    5.8631  -13.7599   27.0284 O   0  0  0  0  0  0  0  0  0  0  0  0
    8.1166  -13.9403   26.4354 C   0  0  2  0  0  0  0  0  0  0  0  0
    7.6252  -14.7421   25.3511 N   0  0  0  0  0  0  0  0  0  0  0  0
    8.5752  -14.8100   27.5285 C   0  0  0  0  0  0  0  0  0  0  0  0
    8.4366  -16.0555   27.5042 O   0  0  0  0  0  0  0  0  0  0  0  0
    9.1847  -14.2359   28.6303 O   0  0  0  0  0  0  0  0  0  0  0  0
  2  3  1  0
  2  1  1  6
  4  3  1  0
  5 11  1  0
  5  2  1  0
  6  5  2  0
  8  7  1  6
  9  8  1  0
 10  8  1  0
 10 11  1  6
 12 10  1  0
 12 18  1  0
 13 12  2  0
 15 14  1  6
 16 15  1  0
 17 18  1  6
 17 15  1  0
 19 17  1  0
 20 19  2  0
 21 19  1  0
M  END
$$$$
