CTT.pdb
     RDKit          3D

 21 20  0  0  1  0  0  0  0  0999 V2000
    8.3954  -14.7938   17.5020 N   0  0  0  0  0  0  0  0  0  0  0  0
    8.6506  -14.0779   18.7323 C   0  0  1  0  0  0  0  0  0  0  0  0
    8.1575  -12.6450   18.6412 C   0  0  0  0  0  0  0  0  0  0  0  0
    8.4354  -11.7948   20.2196 S   0  0  0  0  0  0  0  0  0  0  0  0
    7.8982  -14.7321   19.8251 C   0  0  0  0  0  0  0  0  0  0  0  0
    6.7700  -15.2674   19.5994 O   0  0  0  0  0  0  0  0  0  0  0  0
    7.6208  -17.6985   23.3487 C   0  0  0  0  0  0  0  0  0  0  0  0
    8.2378  -17.0020   22.1764 C   0  0  1  0  0  0  0  0  0  0  0  0
    7.7551  -17.5078   20.9551 O   0  0  0  0  0  0  0  0  0  0  0  0
    7.8514  -15.5386   22.2111 C   0  0  2  0  0  0  0  0  0  0  0  0
    8.4186  -14.7755   21.1438 N   0  0  0  0  0  0  0  0  0  0  0  0
    8.3372  -14.9913   23.5236 C   0  0  0  0  0  0  0  0  0  0  0  0
    9.5477  -14.7581   23.7502 O   0  0  0  0  0  0  0  0  0  0  0  0
    6.5063  -12.0477   25.7785 C   0  0  0  0  0  0  0  0  0  0  0  0
    6.7405  -13.3695   26.4322 C   0  0  1  0  0  0  0  0  0  0  0  0
    5.6305  -14.1905   26.4454 O   0  0  0  0  0  0  0  0  0  0  0  0
    7.8800  -14.1502   25.8123 C   0  0  2  0  0  0  0  0  0  0  0  0
    7.4115  -14.7135   24.5781 N   0  0  0  0  0  0  0  0  0  0  0  0
    8.3740  -15.2204   26.6912 C   0  0  0  0  0  0  0  0  0  0  0  0
    8.1716  -16.4347   26.4561 O   0  0  0  0  0  0  0  0  0  0  0  0
    9.0914  -14.8788   27.8241 O   0  0  0  0  0  0  0  0  0  0  0  0
  2  3  1  0
  2  1  1  6
  4  3  1  0
  5 11  1  0
  5  2  1  0
  6  5  2  0
  8  7  1  1
  9  8  1  0
 10  8  1  0
 10 11  1  6
 12 10  1  0
 12 18  1  0
 13 12  2  0
 15 14  1  6
 16 15  1  0
 17 18  1  6
 17 15  1  0
 19 17  1  0
 20 19  2  0
 21 19  1  0
M  END
$$$$
