CTT.pdb
     RDKit          3D

 21 20  0  0  1  0  0  0  0  0999 V2000
    8.4134  -15.4925   15.2900 N   0  0  0  0  0  0  0  0  0  0  0  0
    9.2338  -15.2789   16.4616 C   0  0  1  0  0  0  0  0  0  0  0  0
    9.4917  -13.7995   16.6837 C   0  0  0  0  0  0  0  0  0  0  0  0
    7.9204  -12.9315   16.9466 S   0  0  0  0  0  0  0  0  0  0  0  0
    8.5050  -15.7800   17.6473 C   0  0  0  0  0  0  0  0  0  0  0  0
    7.2418  -15.8991   17.6238 O   0  0  0  0  0  0  0  0  0  0  0  0
    8.1365  -18.8541   19.0462 C   0  0  0  0  0  0  0  0  0  0  0  0
    8.7588  -18.1338   20.2012 C   0  0  1  0  0  0  0  0  0  0  0  0
   10.1476  -18.3519   20.2656 O   0  0  0  0  0  0  0  0  0  0  0  0
    8.5725  -16.6433   20.0129 C   0  0  2  0  0  0  0  0  0  0  0  0
    9.1986  -16.1368   18.8318 N   0  0  0  0  0  0  0  0  0  0  0  0
    9.1726  -15.9741   21.2172 C   0  0  0  0  0  0  0  0  0  0  0  0
   10.2955  -15.4180   21.1899 O   0  0  0  0  0  0  0  0  0  0  0  0
    7.4394  -13.2841   23.5804 C   0  0  0  0  0  0  0  0  0  0  0  0
    7.8746  -14.5281   24.2823 C   0  0  1  0  0  0  0  0  0  0  0  0
    6.8599  -15.4443   24.4756 O   0  0  0  0  0  0  0  0  0  0  0  0
    9.0105  -15.2438   23.5825 C   0  0  2  0  0  0  0  0  0  0  0  0
    8.4639  -15.9510   22.4595 N   0  0  0  0  0  0  0  0  0  0  0  0
    9.7144  -16.1841   24.4671 C   0  0  0  0  0  0  0  0  0  0  0  0
    9.6267  -17.4276   24.3376 O   0  0  0  0  0  0  0  0  0  0  0  0
   10.5063  -15.6813   25.4844 O   0  0  0  0  0  0  0  0  0  0  0  0
  2  3  1  0
  2  1  1  6
  4  3  1  0
  5 11  1  0
  5  2  1  0
  6  5  2  0
  8  7  1  6
  9  8  1  0
 10  8  1  0
 10 11  1  6
 12 10  1  0
 12 18  1  0
 13 12  2  0
 15 14  1  6
 16 15  1  0
 17 18  1  6
 17 15  1  0
 19 17  1  0
 20 19  2  0
 21 19  1  0
M  END
$$$$
