CTT.pdb
     RDKit          3D

 21 20  0  0  1  0  0  0  0  0999 V2000
    9.0087  -16.7259   15.6770 N   0  0  0  0  0  0  0  0  0  0  0  0
    8.1984  -16.8288   16.8704 C   0  0  1  0  0  0  0  0  0  0  0  0
    8.0185  -18.2785   17.2833 C   0  0  0  0  0  0  0  0  0  0  0  0
    6.6143  -19.0045   16.3930 S   0  0  0  0  0  0  0  0  0  0  0  0
    8.8975  -16.1408   17.9777 C   0  0  0  0  0  0  0  0  0  0  0  0
   10.1354  -15.8756   17.8915 O   0  0  0  0  0  0  0  0  0  0  0  0
    7.6584  -12.9425   19.8330 C   0  0  0  0  0  0  0  0  0  0  0  0
    7.8995  -14.0096   20.8545 C   0  0  1  0  0  0  0  0  0  0  0  0
    6.7070  -14.6609   21.2205 O   0  0  0  0  0  0  0  0  0  0  0  0
    8.7965  -15.0726   20.2569 C   0  0  2  0  0  0  0  0  0  0  0  0
    8.2029  -15.7639   19.1554 N   0  0  0  0  0  0  0  0  0  0  0  0
    9.0975  -16.0549   21.3535 C   0  0  0  0  0  0  0  0  0  0  0  0
    8.3766  -17.0550   21.5794 O   0  0  0  0  0  0  0  0  0  0  0  0
   12.5481  -17.6441   21.7675 C   0  0  0  0  0  0  0  0  0  0  0  0
   12.0919  -17.0935   23.0784 C   0  0  1  0  0  0  0  0  0  0  0  0
   12.6984  -15.9026   23.4252 O   0  0  0  0  0  0  0  0  0  0  0  0
   10.5944  -16.8826   23.1504 C   0  0  2  0  0  0  0  0  0  0  0  0
   10.2422  -15.8739   22.1921 N   0  0  0  0  0  0  0  0  0  0  0  0
   10.1465  -16.4736   24.4898 C   0  0  0  0  0  0  0  0  0  0  0  0
    9.7377  -15.3157   24.7409 O   0  0  0  0  0  0  0  0  0  0  0  0
   10.1753  -17.3999   25.5174 O   0  0  0  0  0  0  0  0  0  0  0  0
  2  3  1  0
  2  1  1  6
  4  3  1  0
  5 11  1  0
  5  2  1  0
  6  5  2  0
  8  7  1  6
  9  8  1  0
 10  8  1  0
 10 11  1  6
 12 10  1  0
 12 18  1  0
 13 12  2  0
 15 14  1  6
 16 15  1  0
 17 18  1  6
 17 15  1  0
 19 17  1  0
 20 19  2  0
 21 19  1  0
M  END
$$$$
