CTT.pdb
     RDKit          3D

 21 20  0  0  1  0  0  0  0  0999 V2000
    8.1899  -15.4027   18.1553 N   0  0  0  0  0  0  0  0  0  0  0  0
    8.4951  -14.4978   19.2414 C   0  0  1  0  0  0  0  0  0  0  0  0
    7.8818  -13.1303   18.9997 C   0  0  0  0  0  0  0  0  0  0  0  0
    8.2852  -12.0205   20.3770 S   0  0  0  0  0  0  0  0  0  0  0  0
    7.8982  -15.0327   20.4847 C   0  0  0  0  0  0  0  0  0  0  0  0
    6.7031  -15.4595   20.4934 O   0  0  0  0  0  0  0  0  0  0  0  0
    8.3194  -17.9362   22.1590 C   0  0  0  0  0  0  0  0  0  0  0  0
    8.7054  -16.9843   23.2477 C   0  0  1  0  0  0  0  0  0  0  0  0
   10.1017  -16.8366   23.3413 O   0  0  0  0  0  0  0  0  0  0  0  0
    8.1550  -15.6120   22.9228 C   0  0  2  0  0  0  0  0  0  0  0  0
    8.6449  -15.0804   21.6896 N   0  0  0  0  0  0  0  0  0  0  0  0
    8.5595  -14.7031   24.0490 C   0  0  0  0  0  0  0  0  0  0  0  0
    9.6118  -14.0228   24.0217 O   0  0  0  0  0  0  0  0  0  0  0  0
    6.6672  -11.7483   25.7421 C   0  0  0  0  0  0  0  0  0  0  0  0
    6.9320  -12.8811   26.6781 C   0  0  1  0  0  0  0  0  0  0  0  0
    5.8613  -13.7388   26.8338 O   0  0  0  0  0  0  0  0  0  0  0  0
    8.1329  -13.7147   26.2842 C   0  0  2  0  0  0  0  0  0  0  0  0
    7.7368  -14.5842   25.2132 N   0  0  0  0  0  0  0  0  0  0  0  0
    8.6575  -14.5115   27.4029 C   0  0  0  0  0  0  0  0  0  0  0  0
    8.6255  -15.7644   27.4132 O   0  0  0  0  0  0  0  0  0  0  0  0
    9.2097  -13.8572   28.4901 O   0  0  0  0  0  0  0  0  0  0  0  0
  2  3  1  0
  2  1  1  6
  4  3  1  0
  5 11  1  0
  5  2  1  0
  6  5  2  0
  8  7  1  6
  9  8  1  0
 10  8  1  0
 10 11  1  6
 12 10  1  0
 12 18  1  0
 13 12  2  0
 15 14  1  6
 16 15  1  0
 17 18  1  6
 17 15  1  0
 19 17  1  0
 20 19  2  0
 21 19  1  0
M  END
$$$$
