CTT.pdb
     RDKit          3D

 21 20  0  0  1  0  0  0  0  0999 V2000
   10.9916  -14.9710   17.9853 N   0  0  0  0  0  0  0  0  0  0  0  0
   11.4397  -15.1625   19.3468 C   0  0  1  0  0  0  0  0  0  0  0  0
   12.2671  -13.9806   19.8193 C   0  0  0  0  0  0  0  0  0  0  0  0
   14.0177  -14.4488   19.9085 S   0  0  0  0  0  0  0  0  0  0  0  0
   10.2542  -15.2479   20.2274 C   0  0  0  0  0  0  0  0  0  0  0  0
    9.0843  -15.2196   19.7367 O   0  0  0  0  0  0  0  0  0  0  0  0
    8.4167  -17.3371   20.9492 C   0  0  0  0  0  0  0  0  0  0  0  0
    8.8452  -17.1256   22.3676 C   0  0  1  0  0  0  0  0  0  0  0  0
    9.9256  -17.9571   22.7162 O   0  0  0  0  0  0  0  0  0  0  0  0
    9.3365  -15.7027   22.5289 C   0  0  2  0  0  0  0  0  0  0  0  0
   10.3979  -15.3630   21.6337 N   0  0  0  0  0  0  0  0  0  0  0  0
    9.8208  -15.5674   23.9450 C   0  0  0  0  0  0  0  0  0  0  0  0
   10.9875  -15.8683   24.2902 O   0  0  0  0  0  0  0  0  0  0  0  0
    8.5468  -12.4643   26.3994 C   0  0  0  0  0  0  0  0  0  0  0  0
    8.5011  -13.8476   26.9599 C   0  0  1  0  0  0  0  0  0  0  0  0
    7.2456  -14.4212   26.9295 O   0  0  0  0  0  0  0  0  0  0  0  0
    9.4573  -14.8021   26.2766 C   0  0  2  0  0  0  0  0  0  0  0  0
    8.9446  -15.0799   24.9652 N   0  0  0  0  0  0  0  0  0  0  0  0
    9.6267  -16.0590   27.0205 C   0  0  0  0  0  0  0  0  0  0  0  0
   10.1967  -16.1123   28.1355 O   0  0  0  0  0  0  0  0  0  0  0  0
    9.1394  -17.2324   26.4723 O   0  0  0  0  0  0  0  0  0  0  0  0
  2  3  1  0
  2  1  1  6
  4  3  1  0
  5 11  1  0
  5  2  1  0
  6  5  2  0
  8  7  1  6
  9  8  1  0
 10  8  1  0
 10 11  1  6
 12 10  1  0
 12 18  1  0
 13 12  2  0
 15 14  1  6
 16 15  1  0
 17 18  1  6
 17 15  1  0
 19 17  1  0
 20 19  2  0
 21 19  1  0
M  END
$$$$
