CTT.pdb
     RDKit          3D

 21 20  0  0  1  0  0  0  0  0999 V2000
    9.7932  -16.6918   16.1722 N   0  0  0  0  0  0  0  0  0  0  0  0
    8.7911  -16.7524   17.2131 C   0  0  1  0  0  0  0  0  0  0  0  0
    8.4830  -18.1904   17.5895 C   0  0  0  0  0  0  0  0  0  0  0  0
    7.8298  -19.0794   16.1491 S   0  0  0  0  0  0  0  0  0  0  0  0
    9.3239  -16.0870   18.4220 C   0  0  0  0  0  0  0  0  0  0  0  0
   10.5657  -15.8499   18.5321 O   0  0  0  0  0  0  0  0  0  0  0  0
    7.7918  -12.9211   20.3343 C   0  0  0  0  0  0  0  0  0  0  0  0
    7.8990  -14.0943   21.2576 C   0  0  1  0  0  0  0  0  0  0  0  0
    6.6796  -14.7886   21.3636 O   0  0  0  0  0  0  0  0  0  0  0  0
    8.8995  -15.0793   20.6915 C   0  0  2  0  0  0  0  0  0  0  0  0
    8.4626  -15.7008   19.4806 N   0  0  0  0  0  0  0  0  0  0  0  0
    9.1129  -16.1342   21.7402 C   0  0  0  0  0  0  0  0  0  0  0  0
    8.4136  -17.1724   21.8043 O   0  0  0  0  0  0  0  0  0  0  0  0
   11.9684  -18.1626   21.9710 C   0  0  0  0  0  0  0  0  0  0  0  0
   11.8351  -17.5521   23.3271 C   0  0  1  0  0  0  0  0  0  0  0  0
   12.7067  -16.5062   23.5567 O   0  0  0  0  0  0  0  0  0  0  0  0
   10.4361  -17.0562   23.6253 C   0  0  2  0  0  0  0  0  0  0  0  0
   10.1443  -15.9818   22.7196 N   0  0  0  0  0  0  0  0  0  0  0  0
   10.2864  -16.5917   25.0122 C   0  0  0  0  0  0  0  0  0  0  0  0
   10.3850  -17.3611   25.9967 O   0  0  0  0  0  0  0  0  0  0  0  0
   10.0262  -15.2527   25.2455 O   0  0  0  0  0  0  0  0  0  0  0  0
  2  3  1  0
  2  1  1  6
  4  3  1  0
  5 11  1  0
  5  2  1  0
  6  5  2  0
  8  7  1  6
  9  8  1  0
 10  8  1  0
 10 11  1  6
 12 10  1  0
 12 18  1  0
 13 12  2  0
 15 14  1  6
 16 15  1  0
 17 18  1  6
 17 15  1  0
 19 17  1  0
 20 19  2  0
 21 19  1  0
M  END
$$$$
