CTT.pdb
     RDKit          3D

 21 20  0  0  1  0  0  0  0  0999 V2000
    9.6502  -15.9985   12.9581 N   0  0  0  0  0  0  0  0  0  0  0  0
   10.0899  -16.6017   14.1967 C   0  0  1  0  0  0  0  0  0  0  0  0
   11.4923  -16.1455   14.5570 C   0  0  0  0  0  0  0  0  0  0  0  0
   12.6902  -16.8541   13.3932 S   0  0  0  0  0  0  0  0  0  0  0  0
    9.1911  -16.1575   15.2844 C   0  0  0  0  0  0  0  0  0  0  0  0
    8.5164  -15.0892   15.1663 O   0  0  0  0  0  0  0  0  0  0  0  0
    6.7062  -18.5321   16.9915 C   0  0  0  0  0  0  0  0  0  0  0  0
    7.4530  -17.8421   18.0898 C   0  0  1  0  0  0  0  0  0  0  0  0
    8.4725  -18.6550   18.6190 O   0  0  0  0  0  0  0  0  0  0  0  0
    8.1386  -16.6153   17.5268 C   0  0  2  0  0  0  0  0  0  0  0  0
    9.0639  -16.9122   16.4785 N   0  0  0  0  0  0  0  0  0  0  0  0
    8.8727  -15.9658   18.6658 C   0  0  0  0  0  0  0  0  0  0  0  0
   10.1147  -16.0577   18.8073 O   0  0  0  0  0  0  0  0  0  0  0  0
    8.0203  -12.2908   20.1004 C   0  0  0  0  0  0  0  0  0  0  0  0
    8.0835  -13.3530   21.1478 C   0  0  1  0  0  0  0  0  0  0  0  0
    6.8455  -13.7878   21.5776 O   0  0  0  0  0  0  0  0  0  0  0  0
    8.8726  -14.5714   20.7177 C   0  0  2  0  0  0  0  0  0  0  0  0
    8.1597  -15.2055   19.6455 N   0  0  0  0  0  0  0  0  0  0  0  0
    9.0740  -15.5289   21.8152 C   0  0  0  0  0  0  0  0  0  0  0  0
    8.5391  -16.6623   21.8294 O   0  0  0  0  0  0  0  0  0  0  0  0
    9.8854  -15.1694   22.8770 O   0  0  0  0  0  0  0  0  0  0  0  0
  2  3  1  0
  2  1  1  6
  4  3  1  0
  5 11  1  0
  5  2  1  0
  6  5  2  0
  8  7  1  6
  9  8  1  0
 10  8  1  0
 10 11  1  6
 12 10  1  0
 12 18  1  0
 13 12  2  0
 15 14  1  6
 16 15  1  0
 17 18  1  6
 17 15  1  0
 19 17  1  0
 20 19  2  0
 21 19  1  0
M  END
$$$$
