CTT.pdb
     RDKit          3D

 21 20  0  0  1  0  0  0  0  0999 V2000
    8.0858  -15.2439   19.2777 N   0  0  0  0  0  0  0  0  0  0  0  0
    8.5792  -14.3435   20.2961 C   0  0  1  0  0  0  0  0  0  0  0  0
    7.7952  -13.0435   20.3001 C   0  0  0  0  0  0  0  0  0  0  0  0
    8.0202  -12.1819   18.7194 S   0  0  0  0  0  0  0  0  0  0  0  0
    8.3873  -14.9755   21.6197 C   0  0  0  0  0  0  0  0  0  0  0  0
    7.2302  -15.0521   22.1349 O   0  0  0  0  0  0  0  0  0  0  0  0
    9.9652  -18.1709   24.9322 C   0  0  0  0  0  0  0  0  0  0  0  0
   10.1365  -17.5231   23.5939 C   0  0  1  0  0  0  0  0  0  0  0  0
    9.5910  -18.3072   22.5605 O   0  0  0  0  0  0  0  0  0  0  0  0
    9.3773  -16.2134   23.5776 C   0  0  2  0  0  0  0  0  0  0  0  0
    9.4875  -15.5078   22.3394 N   0  0  0  0  0  0  0  0  0  0  0  0
    9.9455  -15.3673   24.6819 C   0  0  0  0  0  0  0  0  0  0  0  0
   11.0699  -14.8195   24.6010 O   0  0  0  0  0  0  0  0  0  0  0  0
    8.5883  -12.2397   26.4498 C   0  0  0  0  0  0  0  0  0  0  0  0
    8.7524  -13.3738   27.4071 C   0  0  1  0  0  0  0  0  0  0  0  0
    7.5799  -14.0515   27.6761 O   0  0  0  0  0  0  0  0  0  0  0  0
    9.7775  -14.3931   26.9572 C   0  0  2  0  0  0  0  0  0  0  0  0
    9.2030  -15.1566   25.8863 N   0  0  0  0  0  0  0  0  0  0  0  0
   10.1912  -15.2936   28.0434 C   0  0  0  0  0  0  0  0  0  0  0  0
    9.9092  -16.5148   28.0526 O   0  0  0  0  0  0  0  0  0  0  0  0
   10.9211  -14.7776   29.0997 O   0  0  0  0  0  0  0  0  0  0  0  0
  2  3  1  0
  2  1  1  6
  4  3  1  0
  5 11  1  0
  5  2  1  0
  6  5  2  0
  8  7  1  1
  9  8  1  0
 10  8  1  0
 10 11  1  6
 12 10  1  0
 12 18  1  0
 13 12  2  0
 15 14  1  6
 16 15  1  0
 17 18  1  6
 17 15  1  0
 19 17  1  0
 20 19  2  0
 21 19  1  0
M  END
$$$$
