ENM.pdb
     RDKit          3D

 26 25  0  0  1  0  0  0  0  0999 V2000
   14.8968  -13.3610  -16.5462 N   0  0  0  0  0  0  0  0  0  0  0  0
   16.1430  -12.9541  -15.9783 C   0  0  1  0  0  0  0  0  0  0  0  0
   17.1485  -14.0717  -16.1309 C   0  0  0  0  0  0  0  0  0  0  0  0
   16.6953  -15.2332  -15.2902 C   0  0  0  0  0  0  0  0  0  0  0  0
   17.6453  -16.3400  -15.2007 C   0  0  0  0  0  0  0  0  0  0  0  0
   18.7053  -16.2553  -14.5320 O   0  0  0  0  0  0  0  0  0  0  0  0
   16.5955  -11.7055  -16.6203 C   0  0  0  0  0  0  0  0  0  0  0  0
   16.0147  -11.2998  -17.6495 O   0  0  0  0  0  0  0  0  0  0  0  0
   17.3945  -17.5330  -15.8651 O   0  0  0  0  0  0  0  0  0  0  0  0
   19.1829   -7.4658  -17.6369 N   0  0  0  0  0  0  0  0  0  0  0  0
   17.7484   -7.5376  -17.5350 C   0  0  0  0  0  0  0  0  0  0  0  0
   17.0570   -6.5626  -17.9143 O   0  0  0  0  0  0  0  0  0  0  0  0
   17.1426   -8.7809  -16.9768 C   0  0  0  0  0  0  0  0  0  0  0  0
   18.2038   -9.7705  -16.6261 C   0  0  2  0  0  0  0  0  0  0  0  0
   17.6840  -10.9963  -16.0489 N   0  0  0  0  0  0  0  0  0  0  0  0
   19.2206   -9.1426  -15.7468 C   0  0  0  0  0  0  0  0  0  0  0  0
   18.9934   -8.7163  -14.5841 O   0  0  0  0  0  0  0  0  0  0  0  0
   26.5910  -11.3680  -14.5781 C   0  0  0  0  0  0  0  0  0  0  0  0
   25.1612  -11.0994  -15.6595 S   0  0  0  0  0  0  0  0  0  0  0  0
   23.9950   -9.8987  -14.9064 C   0  0  0  0  0  0  0  0  0  0  0  0
   22.8107   -9.8269  -15.8135 C   0  0  0  0  0  0  0  0  0  0  0  0
   21.6787   -8.9702  -15.2891 C   0  0  2  0  0  0  0  0  0  0  0  0
   20.5469   -9.0061  -16.2376 N   0  0  0  0  0  0  0  0  0  0  0  0
   22.0528   -7.5574  -15.1181 C   0  0  0  0  0  0  0  0  0  0  0  0
   22.5153   -7.1090  -13.9036 O   0  0  0  0  0  0  0  0  0  0  0  0
   21.9540   -6.7570  -16.0656 O   0  0  0  0  0  0  0  0  0  0  0  0
  2  1  1  6
  2  7  1  0
  3  2  1  0
  4  3  1  0
  4  5  1  0
  5  9  1  0
  5  6  2  0
  7  8  2  0
 10 11  1  0
 11 12  2  0
 14 13  1  1
 13 11  1  0
 15 14  1  0
 15  7  1  0
 16 17  2  0
 16 14  1  0
 19 20  1  0
 19 18  1  0
 20 21  1  0
 22 21  1  6
 22 23  1  0
 22 24  1  0
 23 16  1  0
 24 25  1  0
 26 24  2  0
M  END
$$$$
