ENM.pdb
     RDKit          3D

 26 25  0  0  1  0  0  0  0  0999 V2000
   25.1909  -17.6119  -15.5714 N   0  0  0  0  0  0  0  0  0  0  0  0
   25.3112  -18.4646  -16.7114 C   0  0  1  0  0  0  0  0  0  0  0  0
   26.2717  -17.8435  -17.6989 C   0  0  0  0  0  0  0  0  0  0  0  0
   26.2853  -16.3567  -17.4737 C   0  0  0  0  0  0  0  0  0  0  0  0
   25.6108  -15.5690  -18.5033 C   0  0  0  0  0  0  0  0  0  0  0  0
   26.2089  -14.6816  -19.1612 O   0  0  0  0  0  0  0  0  0  0  0  0
   25.7442  -19.8076  -16.2816 C   0  0  0  0  0  0  0  0  0  0  0  0
   25.8556  -20.7171  -17.1311 O   0  0  0  0  0  0  0  0  0  0  0  0
   24.2686  -15.7864  -18.7837 O   0  0  0  0  0  0  0  0  0  0  0  0
   27.2923  -22.6903  -16.6194 N   0  0  0  0  0  0  0  0  0  0  0  0
   28.3863  -22.2317  -15.8031 C   0  0  0  0  0  0  0  0  0  0  0  0
   29.5564  -22.5735  -16.0974 O   0  0  0  0  0  0  0  0  0  0  0  0
   28.0758  -21.3623  -14.6318 C   0  0  0  0  0  0  0  0  0  0  0  0
   26.6006  -21.2705  -14.4222 C   0  0  2  0  0  0  0  0  0  0  0  0
   26.0231  -20.0310  -14.9081 N   0  0  0  0  0  0  0  0  0  0  0  0
   26.2696  -21.5032  -12.9948 C   0  0  0  0  0  0  0  0  0  0  0  0
   26.6886  -22.4761  -12.3143 O   0  0  0  0  0  0  0  0  0  0  0  0
   28.1943  -19.8773   -6.8709 C   0  0  0  0  0  0  0  0  0  0  0  0
   26.7721  -19.3400   -7.8582 S   0  0  0  0  0  0  0  0  0  0  0  0
   26.3016  -20.6319   -9.0742 C   0  0  0  0  0  0  0  0  0  0  0  0
   25.2613  -20.0273   -9.9589 C   0  0  0  0  0  0  0  0  0  0  0  0
   24.7761  -20.9432  -11.0616 C   0  0  2  0  0  0  0  0  0  0  0  0
   25.4218  -20.5719  -12.3372 N   0  0  0  0  0  0  0  0  0  0  0  0
   23.3223  -20.8703  -11.2773 C   0  0  0  0  0  0  0  0  0  0  0  0
   22.8239  -20.3138  -12.4314 O   0  0  0  0  0  0  0  0  0  0  0  0
   22.5324  -21.3082  -10.4215 O   0  0  0  0  0  0  0  0  0  0  0  0
  2  1  1  1
  2  7  1  0
  3  2  1  0
  4  3  1  0
  4  5  1  0
  5  9  1  0
  5  6  2  0
  7  8  2  0
 10 11  1  0
 11 12  2  0
 14 13  1  1
 13 11  1  0
 15 14  1  0
 15  7  1  0
 16 17  2  0
 16 14  1  0
 19 20  1  0
 19 18  1  0
 20 21  1  0
 22 21  1  1
 22 23  1  0
 22 24  1  0
 23 16  1  0
 24 25  1  0
 26 24  2  0
M  END
$$$$
