ENM.pdb
     RDKit          3D

 26 25  0  0  1  0  0  0  0  0999 V2000
   26.2019  -24.9949  -16.4544 N   0  0  0  0  0  0  0  0  0  0  0  0
   26.3801  -24.0774  -15.3739 C   0  0  1  0  0  0  0  0  0  0  0  0
   27.0921  -22.8443  -15.8798 C   0  0  0  0  0  0  0  0  0  0  0  0
   26.2664  -22.2405  -16.9820 C   0  0  0  0  0  0  0  0  0  0  0  0
   26.8479  -21.0581  -17.6139 C   0  0  0  0  0  0  0  0  0  0  0  0
   27.6916  -21.1453  -18.5405 O   0  0  0  0  0  0  0  0  0  0  0  0
   25.0707  -23.7585  -14.7741 C   0  0  0  0  0  0  0  0  0  0  0  0
   24.0253  -24.1110  -15.3607 O   0  0  0  0  0  0  0  0  0  0  0  0
   26.4752  -19.7873  -17.1974 O   0  0  0  0  0  0  0  0  0  0  0  0
   23.0806  -20.1952  -12.4764 N   0  0  0  0  0  0  0  0  0  0  0  0
   23.6783  -20.8431  -11.3378 C   0  0  0  0  0  0  0  0  0  0  0  0
   23.9104  -20.1737  -10.3031 O   0  0  0  0  0  0  0  0  0  0  0  0
   23.9983  -22.2961  -11.4410 C   0  0  0  0  0  0  0  0  0  0  0  0
   23.7950  -22.7807  -12.8383 C   0  0  2  0  0  0  0  0  0  0  0  0
   25.0342  -23.0558  -13.5415 N   0  0  0  0  0  0  0  0  0  0  0  0
   22.9403  -21.8304  -13.5918 C   0  0  0  0  0  0  0  0  0  0  0  0
   23.3550  -21.0626  -14.4994 O   0  0  0  0  0  0  0  0  0  0  0  0
   21.0841  -23.5310  -19.5179 C   0  0  0  0  0  0  0  0  0  0  0  0
   20.8031  -23.9035  -17.7662 S   0  0  0  0  0  0  0  0  0  0  0  0
   20.7884  -22.3622  -16.7697 C   0  0  0  0  0  0  0  0  0  0  0  0
   20.7082  -22.7798  -15.3381 C   0  0  0  0  0  0  0  0  0  0  0  0
   20.5643  -21.6307  -14.3638 C   0  0  2  0  0  0  0  0  0  0  0  0
   21.5558  -21.7717  -13.2780 N   0  0  0  0  0  0  0  0  0  0  0  0
   19.2374  -21.5710  -13.7304 C   0  0  0  0  0  0  0  0  0  0  0  0
   18.1477  -21.1449  -14.4522 O   0  0  0  0  0  0  0  0  0  0  0  0
   19.0883  -21.9027  -12.5406 O   0  0  0  0  0  0  0  0  0  0  0  0
  2  1  1  6
  2  7  1  0
  3  2  1  0
  4  3  1  0
  4  5  1  0
  5  9  1  0
  5  6  2  0
  7  8  2  0
 10 11  1  0
 11 12  2  0
 14 13  1  1
 13 11  1  0
 15 14  1  0
 15  7  1  0
 16 17  2  0
 16 14  1  0
 19 20  1  0
 19 18  1  0
 20 21  1  0
 22 21  1  6
 22 23  1  0
 22 24  1  0
 23 16  1  0
 24 25  1  0
 26 24  2  0
M  END
$$$$
