ENM.pdb
     RDKit          3D

 26 25  0  0  1  0  0  0  0  0999 V2000
   26.4728  -19.7352  -15.6133 N   0  0  0  0  0  0  0  0  0  0  0  0
   26.9816  -18.8183  -14.6429 C   0  0  1  0  0  0  0  0  0  0  0  0
   26.9462  -17.4193  -15.2129 C   0  0  0  0  0  0  0  0  0  0  0  0
   27.0783  -17.5145  -16.7078 C   0  0  0  0  0  0  0  0  0  0  0  0
   28.4459  -17.6687  -17.1993 C   0  0  0  0  0  0  0  0  0  0  0  0
   29.4401  -17.2897  -16.5317 O   0  0  0  0  0  0  0  0  0  0  0  0
   26.2009  -18.9326  -13.3966 C   0  0  0  0  0  0  0  0  0  0  0  0
   26.0596  -17.9280  -12.6672 O   0  0  0  0  0  0  0  0  0  0  0  0
   28.6829  -18.2480  -18.4385 O   0  0  0  0  0  0  0  0  0  0  0  0
   21.6897  -19.7536  -12.3351 N   0  0  0  0  0  0  0  0  0  0  0  0
   22.6715  -20.6231  -12.9298 C   0  0  0  0  0  0  0  0  0  0  0  0
   22.6573  -20.8064  -14.1703 O   0  0  0  0  0  0  0  0  0  0  0  0
   23.6715  -21.2737  -12.0349 C   0  0  0  0  0  0  0  0  0  0  0  0
   24.8597  -20.3902  -11.8450 C   0  0  2  0  0  0  0  0  0  0  0  0
   25.6295  -20.1869  -13.0583 N   0  0  0  0  0  0  0  0  0  0  0  0
   25.7083  -20.9017  -10.7406 C   0  0  0  0  0  0  0  0  0  0  0  0
   26.3315  -21.9953  -10.7670 O   0  0  0  0  0  0  0  0  0  0  0  0
   29.1168  -19.2921   -3.7778 C   0  0  0  0  0  0  0  0  0  0  0  0
   28.5076  -18.8136   -5.4167 S   0  0  0  0  0  0  0  0  0  0  0  0
   27.5049  -20.1621   -6.1550 C   0  0  0  0  0  0  0  0  0  0  0  0
   27.1157  -19.7054   -7.5226 C   0  0  0  0  0  0  0  0  0  0  0  0
   26.3390  -20.7299   -8.3211 C   0  0  2  0  0  0  0  0  0  0  0  0
   25.8355  -20.1134   -9.5654 N   0  0  0  0  0  0  0  0  0  0  0  0
   25.1714  -21.2618   -7.6007 C   0  0  0  0  0  0  0  0  0  0  0  0
   23.9037  -20.8643   -7.9542 O   0  0  0  0  0  0  0  0  0  0  0  0
   25.3181  -22.0719   -6.6678 O   0  0  0  0  0  0  0  0  0  0  0  0
  2  1  1  6
  2  7  1  0
  3  2  1  0
  4  3  1  0
  4  5  1  0
  5  9  1  0
  5  6  2  0
  7  8  2  0
 10 11  1  0
 11 12  2  0
 14 13  1  6
 13 11  1  0
 15 14  1  0
 15  7  1  0
 16 17  2  0
 16 14  1  0
 19 20  1  0
 19 18  1  0
 20 21  1  0
 22 21  1  1
 22 23  1  0
 22 24  1  0
 23 16  1  0
 24 25  1  0
 26 24  2  0
M  END
$$$$
