ENM.pdb
     RDKit          3D

 26 25  0  0  1  0  0  0  0  0999 V2000
   26.0215  -11.2737  -17.7738 N   0  0  0  0  0  0  0  0  0  0  0  0
   27.0105  -10.4638  -17.1356 C   0  0  1  0  0  0  0  0  0  0  0  0
   28.1383  -10.1981  -18.1055 C   0  0  0  0  0  0  0  0  0  0  0  0
   28.1827  -11.3259  -19.0992 C   0  0  0  0  0  0  0  0  0  0  0  0
   29.2532  -11.2358  -20.0898 C   0  0  0  0  0  0  0  0  0  0  0  0
   30.2981  -10.5700  -19.8824 O   0  0  0  0  0  0  0  0  0  0  0  0
   26.3900   -9.2179  -16.6470 C   0  0  0  0  0  0  0  0  0  0  0  0
   27.1017   -8.3574  -16.0864 O   0  0  0  0  0  0  0  0  0  0  0  0
   29.1388  -11.8957  -21.3058 O   0  0  0  0  0  0  0  0  0  0  0  0
   23.0641   -5.5548  -15.6248 N   0  0  0  0  0  0  0  0  0  0  0  0
   24.1999   -5.3666  -16.4897 C   0  0  0  0  0  0  0  0  0  0  0  0
   24.5678   -4.2020  -16.7741 O   0  0  0  0  0  0  0  0  0  0  0  0
   24.8949   -6.5773  -17.0142 C   0  0  0  0  0  0  0  0  0  0  0  0
   24.3130   -7.8163  -16.4187 C   0  0  2  0  0  0  0  0  0  0  0  0
   24.9949   -9.0303  -16.8274 N   0  0  0  0  0  0  0  0  0  0  0  0
   22.8581   -7.8871  -16.7012 C   0  0  0  0  0  0  0  0  0  0  0  0
   22.3458   -7.7584  -17.8441 O   0  0  0  0  0  0  0  0  0  0  0  0
   16.7614  -12.2613  -14.8565 C   0  0  0  0  0  0  0  0  0  0  0  0
   18.4467  -11.6570  -14.5721 S   0  0  0  0  0  0  0  0  0  0  0  0
   18.6868  -10.0135  -15.3532 C   0  0  0  0  0  0  0  0  0  0  0  0
   20.1403   -9.6920  -15.2339 C   0  0  0  0  0  0  0  0  0  0  0  0
   20.5420   -8.3855  -15.8836 C   0  0  2  0  0  0  0  0  0  0  0  0
   21.9694   -8.1152  -15.6164 N   0  0  0  0  0  0  0  0  0  0  0  0
   19.7829   -7.2303  -15.3792 C   0  0  0  0  0  0  0  0  0  0  0  0
   20.3585   -6.3686  -14.4757 O   0  0  0  0  0  0  0  0  0  0  0  0
   18.6174   -7.0226  -15.7619 O   0  0  0  0  0  0  0  0  0  0  0  0
  2  1  1  6
  2  7  1  0
  3  2  1  0
  4  3  1  0
  4  5  1  0
  5  9  1  0
  5  6  2  0
  7  8  2  0
 10 11  1  0
 11 12  2  0
 14 13  1  6
 13 11  1  0
 15 14  1  0
 15  7  1  0
 16 17  2  0
 16 14  1  0
 19 20  1  0
 19 18  1  0
 20 21  1  0
 22 21  1  1
 22 23  1  0
 22 24  1  0
 23 16  1  0
 24 25  1  0
 26 24  2  0
M  END
$$$$
