ENM.pdb
     RDKit          3D

 26 25  0  0  1  0  0  0  0  0999 V2000
   23.8183  -20.5385  -13.8807 N   0  0  0  0  0  0  0  0  0  0  0  0
   22.7789  -21.3692  -14.4012 C   0  0  1  0  0  0  0  0  0  0  0  0
   23.1232  -22.8179  -14.1440 C   0  0  0  0  0  0  0  0  0  0  0  0
   24.5389  -23.0541  -14.5929 C   0  0  0  0  0  0  0  0  0  0  0  0
   24.7648  -24.3205  -15.2862 C   0  0  0  0  0  0  0  0  0  0  0  0
   25.8943  -24.6440  -15.7308 O   0  0  0  0  0  0  0  0  0  0  0  0
   21.4894  -20.9865  -13.7957 C   0  0  0  0  0  0  0  0  0  0  0  0
   20.4551  -21.6140  -14.1082 O   0  0  0  0  0  0  0  0  0  0  0  0
   23.7175  -25.2123  -15.4736 O   0  0  0  0  0  0  0  0  0  0  0  0
   21.8837  -19.6526   -9.0680 N   0  0  0  0  0  0  0  0  0  0  0  0
   20.7659  -19.8931   -9.9433 C   0  0  0  0  0  0  0  0  0  0  0  0
   20.1393  -20.9758   -9.8546 O   0  0  0  0  0  0  0  0  0  0  0  0
   20.3996  -18.8334  -10.9266 C   0  0  0  0  0  0  0  0  0  0  0  0
   20.2239  -19.4187  -12.2886 C   0  0  2  0  0  0  0  0  0  0  0  0
   21.4589  -19.9103  -12.8710 N   0  0  0  0  0  0  0  0  0  0  0  0
   19.5495  -18.4453  -13.1825 C   0  0  0  0  0  0  0  0  0  0  0  0
   20.0946  -17.4132  -13.6545 O   0  0  0  0  0  0  0  0  0  0  0  0
   18.2052  -16.6207  -19.9200 C   0  0  0  0  0  0  0  0  0  0  0  0
   18.8271  -17.5042  -18.4644 S   0  0  0  0  0  0  0  0  0  0  0  0
   17.6986  -17.2745  -17.0352 C   0  0  0  0  0  0  0  0  0  0  0  0
   18.3183  -17.9928  -15.8818 C   0  0  0  0  0  0  0  0  0  0  0  0
   17.5566  -17.8520  -14.5816 C   0  0  2  0  0  0  0  0  0  0  0  0
   18.1946  -18.6812  -13.5389 N   0  0  0  0  0  0  0  0  0  0  0  0
   16.1549  -18.2883  -14.6814 C   0  0  0  0  0  0  0  0  0  0  0  0
   15.1737  -17.3845  -15.0138 O   0  0  0  0  0  0  0  0  0  0  0  0
   15.8438  -19.4736  -14.4659 O   0  0  0  0  0  0  0  0  0  0  0  0
  2  1  1  1
  2  7  1  0
  3  2  1  0
  4  3  1  0
  4  5  1  0
  5  9  1  0
  5  6  2  0
  7  8  2  0
 10 11  1  0
 11 12  2  0
 14 13  1  1
 13 11  1  0
 15 14  1  0
 15  7  1  0
 16 17  2  0
 16 14  1  0
 19 20  1  0
 19 18  1  0
 20 21  1  0
 22 21  1  6
 22 23  1  0
 22 24  1  0
 23 16  1  0
 24 25  1  0
 26 24  2  0
M  END
$$$$
