ENM.pdb
     RDKit          3D

 26 25  0  0  1  0  0  0  0  0999 V2000
   20.4624  -19.5868  -13.6593 N   0  0  0  0  0  0  0  0  0  0  0  0
   21.2952  -20.7340  -13.4821 C   0  0  1  0  0  0  0  0  0  0  0  0
   20.5030  -21.9794  -13.8057 C   0  0  0  0  0  0  0  0  0  0  0  0
   19.3584  -22.0770  -12.8352 C   0  0  0  0  0  0  0  0  0  0  0  0
   19.2674  -23.3431  -12.1113 C   0  0  0  0  0  0  0  0  0  0  0  0
   18.9972  -24.4240  -12.6915 O   0  0  0  0  0  0  0  0  0  0  0  0
   22.5004  -20.6056  -14.3229 C   0  0  0  0  0  0  0  0  0  0  0  0
   22.4229  -20.0106  -15.4188 O   0  0  0  0  0  0  0  0  0  0  0  0
   19.4811  -23.3821  -10.7401 O   0  0  0  0  0  0  0  0  0  0  0  0
   27.1560  -21.1932  -16.1944 N   0  0  0  0  0  0  0  0  0  0  0  0
   27.3517  -21.4876  -14.7985 C   0  0  0  0  0  0  0  0  0  0  0  0
   28.5149  -21.6724  -14.3679 O   0  0  0  0  0  0  0  0  0  0  0  0
   26.1501  -21.5606  -13.9181 C   0  0  0  0  0  0  0  0  0  0  0  0
   24.9173  -21.2062  -14.6817 C   0  0  2  0  0  0  0  0  0  0  0  0
   23.7206  -21.1651  -13.8619 N   0  0  0  0  0  0  0  0  0  0  0  0
   24.7523  -22.1169  -15.8413 C   0  0  0  0  0  0  0  0  0  0  0  0
   24.6413  -23.3682  -15.7561 O   0  0  0  0  0  0  0  0  0  0  0  0
   20.7306  -20.9404  -20.0264 C   0  0  0  0  0  0  0  0  0  0  0  0
   21.6547  -21.9599  -21.2066 S   0  0  0  0  0  0  0  0  0  0  0  0
   23.1393  -22.6888  -20.4106 C   0  0  0  0  0  0  0  0  0  0  0  0
   23.3477  -21.9446  -19.1327 C   0  0  0  0  0  0  0  0  0  0  0  0
   24.5273  -22.4292  -18.3178 C   0  0  2  0  0  0  0  0  0  0  0  0
   24.7156  -21.5520  -17.1444 N   0  0  0  0  0  0  0  0  0  0  0  0
   25.7926  -22.4214  -19.0690 C   0  0  0  0  0  0  0  0  0  0  0  0
   26.4435  -21.2348  -19.3104 O   0  0  0  0  0  0  0  0  0  0  0  0
   26.2839  -23.4831  -19.4928 O   0  0  0  0  0  0  0  0  0  0  0  0
  2  1  1  6
  2  7  1  0
  3  2  1  0
  4  3  1  0
  4  5  1  0
  5  9  1  0
  5  6  2  0
  7  8  2  0
 10 11  1  0
 11 12  2  0
 14 13  1  1
 13 11  1  0
 15 14  1  0
 15  7  1  0
 16 17  2  0
 16 14  1  0
 19 20  1  0
 19 18  1  0
 20 21  1  0
 22 21  1  6
 22 23  1  0
 22 24  1  0
 23 16  1  0
 24 25  1  0
 26 24  2  0
M  END
$$$$
