ENM.pdb
     RDKit          3D

 26 25  0  0  1  0  0  0  0  0999 V2000
   22.3573  -19.9265  -13.9389 N   0  0  0  0  0  0  0  0  0  0  0  0
   23.1679  -19.9878  -15.1138 C   0  0  1  0  0  0  0  0  0  0  0  0
   23.2075  -18.6240  -15.7633 C   0  0  0  0  0  0  0  0  0  0  0  0
   21.7959  -18.1230  -15.8969 C   0  0  0  0  0  0  0  0  0  0  0  0
   20.9283  -18.9371  -16.7455 C   0  0  0  0  0  0  0  0  0  0  0  0
   19.7453  -19.2089  -16.4221 O   0  0  0  0  0  0  0  0  0  0  0  0
   24.5142  -20.4768  -14.7614 C   0  0  0  0  0  0  0  0  0  0  0  0
   25.4305  -20.4143  -15.6086 O   0  0  0  0  0  0  0  0  0  0  0  0
   21.3997  -19.4390  -17.9511 O   0  0  0  0  0  0  0  0  0  0  0  0
   27.9978  -19.1728  -14.6960 N   0  0  0  0  0  0  0  0  0  0  0  0
   27.8516  -19.3348  -13.2727 C   0  0  0  0  0  0  0  0  0  0  0  0
   28.8770  -19.3853  -12.5527 O   0  0  0  0  0  0  0  0  0  0  0  0
   26.4731  -19.4368  -12.7127 C   0  0  0  0  0  0  0  0  0  0  0  0
   25.9908  -20.8489  -12.7584 C   0  0  2  0  0  0  0  0  0  0  0  0
   24.7326  -21.0081  -13.4636 N   0  0  0  0  0  0  0  0  0  0  0  0
   25.9223  -21.4123  -11.3875 C   0  0  0  0  0  0  0  0  0  0  0  0
   25.1042  -22.2956  -11.0190 O   0  0  0  0  0  0  0  0  0  0  0  0
   28.2288  -19.1072   -4.1139 C   0  0  0  0  0  0  0  0  0  0  0  0
   28.4274  -19.1238   -5.9157 S   0  0  0  0  0  0  0  0  0  0  0  0
   27.1647  -20.2024   -6.6974 C   0  0  0  0  0  0  0  0  0  0  0  0
   27.4788  -20.2393   -8.1570 C   0  0  0  0  0  0  0  0  0  0  0  0
   26.5196  -21.0746   -8.9771 C   0  0  2  0  0  0  0  0  0  0  0  0
   26.8369  -20.9312  -10.4126 N   0  0  0  0  0  0  0  0  0  0  0  0
   25.1131  -20.6778   -8.8049 C   0  0  0  0  0  0  0  0  0  0  0  0
   24.2878  -21.4051   -7.9803 O   0  0  0  0  0  0  0  0  0  0  0  0
   24.6576  -19.6857   -9.4017 O   0  0  0  0  0  0  0  0  0  0  0  0
  2  1  1  1
  2  7  1  0
  3  2  1  0
  4  3  1  0
  4  5  1  0
  5  9  1  0
  5  6  2  0
  7  8  2  0
 10 11  1  0
 11 12  2  0
 14 13  1  1
 13 11  1  0
 15 14  1  0
 15  7  1  0
 16 17  2  0
 16 14  1  0
 19 20  1  0
 19 18  1  0
 20 21  1  0
 22 21  1  1
 22 23  1  0
 22 24  1  0
 23 16  1  0
 24 25  1  0
 26 24  2  0
M  END
$$$$
