ENM.pdb
     RDKit          3D

 26 25  0  0  1  0  0  0  0  0999 V2000
   12.4169  -10.8948  -10.5145 N   0  0  0  0  0  0  0  0  0  0  0  0
   13.8060  -10.5837  -10.6363 C   0  0  1  0  0  0  0  0  0  0  0  0
   14.2665  -10.9019  -12.0399 C   0  0  0  0  0  0  0  0  0  0  0  0
   14.4573  -12.3895  -12.1488 C   0  0  0  0  0  0  0  0  0  0  0  0
   15.8143  -12.8605  -11.8797 C   0  0  0  0  0  0  0  0  0  0  0  0
   16.1244  -13.4136  -10.7954 O   0  0  0  0  0  0  0  0  0  0  0  0
   14.0293   -9.1689  -10.2835 C   0  0  0  0  0  0  0  0  0  0  0  0
   13.0513   -8.4479   -9.9920 O   0  0  0  0  0  0  0  0  0  0  0  0
   16.8111  -12.7046  -12.8334 O   0  0  0  0  0  0  0  0  0  0  0  0
   14.5251   -4.5560   -8.1752 N   0  0  0  0  0  0  0  0  0  0  0  0
   15.5882   -5.5263   -8.2161 C   0  0  0  0  0  0  0  0  0  0  0  0
   16.7651   -5.1565   -7.9905 O   0  0  0  0  0  0  0  0  0  0  0  0
   15.2389   -6.9421   -8.5285 C   0  0  0  0  0  0  0  0  0  0  0  0
   15.6676   -7.2954   -9.9141 C   0  0  2  0  0  0  0  0  0  0  0  0
   15.3553   -8.6630  -10.2856 N   0  0  0  0  0  0  0  0  0  0  0  0
   17.1095   -6.9968  -10.0971 C   0  0  0  0  0  0  0  0  0  0  0  0
   18.0478   -7.7101   -9.6544 O   0  0  0  0  0  0  0  0  0  0  0  0
   22.2069   -8.3763  -14.4207 C   0  0  0  0  0  0  0  0  0  0  0  0
   20.7672   -8.3283  -13.3203 S   0  0  0  0  0  0  0  0  0  0  0  0
   19.7028   -6.8839  -13.7076 C   0  0  0  0  0  0  0  0  0  0  0  0
   18.5874   -6.8967  -12.7146 C   0  0  0  0  0  0  0  0  0  0  0  0
   18.6944   -5.8286  -11.6477 C   0  0  2  0  0  0  0  0  0  0  0  0
   17.4712   -5.8282  -10.8196 N   0  0  0  0  0  0  0  0  0  0  0  0
   18.8420   -4.4722  -12.1989 C   0  0  0  0  0  0  0  0  0  0  0  0
   17.7463   -3.6486  -12.3054 O   0  0  0  0  0  0  0  0  0  0  0  0
   19.9539   -4.0586  -12.5737 O   0  0  0  0  0  0  0  0  0  0  0  0
  2  1  1  6
  2  7  1  0
  3  2  1  0
  4  3  1  0
  4  5  1  0
  5  9  1  0
  5  6  2  0
  7  8  2  0
 10 11  1  0
 11 12  2  0
 14 13  1  1
 13 11  1  0
 15 14  1  0
 15  7  1  0
 16 17  2  0
 16 14  1  0
 19 20  1  0
 19 18  1  0
 20 21  1  0
 22 21  1  6
 22 23  1  0
 22 24  1  0
 23 16  1  0
 24 25  1  0
 26 24  2  0
M  END
$$$$
