ENM.pdb
     RDKit          3D

 26 25  0  0  1  0  0  0  0  0999 V2000
   16.8141  -14.2309  -15.4443 N   0  0  0  0  0  0  0  0  0  0  0  0
   18.1751  -14.4885  -15.7942 C   0  0  1  0  0  0  0  0  0  0  0  0
   18.2236  -15.5881  -16.8295 C   0  0  0  0  0  0  0  0  0  0  0  0
   17.2727  -16.6748  -16.4098 C   0  0  0  0  0  0  0  0  0  0  0  0
   17.8795  -17.9918  -16.2285 C   0  0  0  0  0  0  0  0  0  0  0  0
   18.9302  -18.1545  -15.5596 O   0  0  0  0  0  0  0  0  0  0  0  0
   18.8074  -13.2444  -16.2721 C   0  0  0  0  0  0  0  0  0  0  0  0
   19.9337  -13.2966  -16.8105 O   0  0  0  0  0  0  0  0  0  0  0  0
   17.2986  -19.1148  -16.8020 O   0  0  0  0  0  0  0  0  0  0  0  0
   17.7158   -7.1833  -16.8246 N   0  0  0  0  0  0  0  0  0  0  0  0
   18.2116   -8.4481  -17.3018 C   0  0  0  0  0  0  0  0  0  0  0  0
   19.1278   -8.4642  -18.1579 O   0  0  0  0  0  0  0  0  0  0  0  0
   17.6071   -9.6954  -16.7514 C   0  0  0  0  0  0  0  0  0  0  0  0
   18.6474  -10.7525  -16.5813 C   0  0  2  0  0  0  0  0  0  0  0  0
   18.1159  -12.0163  -16.1055 N   0  0  0  0  0  0  0  0  0  0  0  0
   19.7426  -10.2594  -15.7103 C   0  0  0  0  0  0  0  0  0  0  0  0
   19.6487  -10.1041  -14.4644 O   0  0  0  0  0  0  0  0  0  0  0  0
   27.5188  -10.4098  -14.8605 C   0  0  0  0  0  0  0  0  0  0  0  0
   25.9873  -10.7965  -15.7499 S   0  0  0  0  0  0  0  0  0  0  0  0
   24.5955   -9.7814  -15.1164 C   0  0  0  0  0  0  0  0  0  0  0  0
   23.3741  -10.2238  -15.8531 C   0  0  0  0  0  0  0  0  0  0  0  0
   22.1128   -9.4831  -15.4645 C   0  0  2  0  0  0  0  0  0  0  0  0
   20.9893   -9.9359  -16.3099 N   0  0  0  0  0  0  0  0  0  0  0  0
   22.2210   -8.0256  -15.6362 C   0  0  0  0  0  0  0  0  0  0  0  0
   22.2592   -7.2030  -14.5353 O   0  0  0  0  0  0  0  0  0  0  0  0
   22.2775   -7.5245  -16.7736 O   0  0  0  0  0  0  0  0  0  0  0  0
  2  1  1  6
  2  7  1  0
  3  2  1  0
  4  3  1  0
  4  5  1  0
  5  9  1  0
  5  6  2  0
  7  8  2  0
 10 11  1  0
 11 12  2  0
 14 13  1  1
 13 11  1  0
 15 14  1  0
 15  7  1  0
 16 17  2  0
 16 14  1  0
 19 20  1  0
 19 18  1  0
 20 21  1  0
 22 21  1  6
 22 23  1  0
 22 24  1  0
 23 16  1  0
 24 25  1  0
 26 24  2  0
M  END
$$$$
