ENM.pdb
     RDKit          3D

 26 25  0  0  1  0  0  0  0  0999 V2000
   25.9230  -11.8832  -16.5358 N   0  0  0  0  0  0  0  0  0  0  0  0
   26.0654  -10.4932  -16.2376 C   0  0  1  0  0  0  0  0  0  0  0  0
   27.1755   -9.9135  -17.0831 C   0  0  0  0  0  0  0  0  0  0  0  0
   28.4506  -10.6378  -16.7503 C   0  0  0  0  0  0  0  0  0  0  0  0
   29.6410  -10.1429  -17.4386 C   0  0  0  0  0  0  0  0  0  0  0  0
   30.7352  -10.7590  -17.4030 O   0  0  0  0  0  0  0  0  0  0  0  0
   24.7793   -9.8053  -16.4579 C   0  0  0  0  0  0  0  0  0  0  0  0
   24.0556  -10.1504  -17.4162 O   0  0  0  0  0  0  0  0  0  0  0  0
   29.5899   -8.9585  -18.1609 O   0  0  0  0  0  0  0  0  0  0  0  0
   20.8728   -6.6130  -16.0738 N   0  0  0  0  0  0  0  0  0  0  0  0
   21.4780   -6.5361  -14.7695 C   0  0  0  0  0  0  0  0  0  0  0  0
   20.8649   -5.9558  -13.8421 O   0  0  0  0  0  0  0  0  0  0  0  0
   22.8208   -7.1559  -14.5778 C   0  0  0  0  0  0  0  0  0  0  0  0
   23.1952   -7.9765  -15.7673 C   0  0  2  0  0  0  0  0  0  0  0  0
   24.3979   -8.7646  -15.5715 N   0  0  0  0  0  0  0  0  0  0  0  0
   23.2973   -7.1167  -16.9723 C   0  0  0  0  0  0  0  0  0  0  0  0
   24.3488   -6.5338  -17.3461 O   0  0  0  0  0  0  0  0  0  0  0  0
   23.1501   -6.8486  -24.3971 C   0  0  0  0  0  0  0  0  0  0  0  0
   23.0651   -7.5865  -22.7436 S   0  0  0  0  0  0  0  0  0  0  0  0
   22.5924   -6.3269  -21.4949 C   0  0  0  0  0  0  0  0  0  0  0  0
   22.5590   -7.0252  -20.1752 C   0  0  0  0  0  0  0  0  0  0  0  0
   22.2186   -6.1264  -19.0062 C   0  0  2  0  0  0  0  0  0  0  0  0
   22.1360   -6.9290  -17.7689 N   0  0  0  0  0  0  0  0  0  0  0  0
   20.9267   -5.4391  -19.1610 C   0  0  0  0  0  0  0  0  0  0  0  0
   20.8366   -4.3075  -19.9366 O   0  0  0  0  0  0  0  0  0  0  0  0
   19.9074   -5.8717  -18.5936 O   0  0  0  0  0  0  0  0  0  0  0  0
  2  1  1  6
  2  7  1  0
  3  2  1  0
  4  3  1  0
  4  5  1  0
  5  9  1  0
  5  6  2  0
  7  8  2  0
 10 11  1  0
 11 12  2  0
 14 13  1  1
 13 11  1  0
 15 14  1  0
 15  7  1  0
 16 17  2  0
 16 14  1  0
 19 20  1  0
 19 18  1  0
 20 21  1  0
 22 21  1  6
 22 23  1  0
 22 24  1  0
 23 16  1  0
 24 25  1  0
 26 24  2  0
M  END
$$$$
