ENM.pdb
     RDKit          3D

 26 25  0  0  1  0  0  0  0  0999 V2000
   28.3543  -20.9941  -15.2162 N   0  0  0  0  0  0  0  0  0  0  0  0
   28.4718  -19.7104  -14.6002 C   0  0  1  0  0  0  0  0  0  0  0  0
   28.4497  -18.6415  -15.6682 C   0  0  0  0  0  0  0  0  0  0  0  0
   27.3969  -19.0048  -16.6786 C   0  0  0  0  0  0  0  0  0  0  0  0
   27.2916  -18.0944  -17.8168 C   0  0  0  0  0  0  0  0  0  0  0  0
   28.2157  -17.9713  -18.6588 O   0  0  0  0  0  0  0  0  0  0  0  0
   27.3904  -19.5342  -13.6125 C   0  0  0  0  0  0  0  0  0  0  0  0
   27.2860  -18.4475  -13.0049 O   0  0  0  0  0  0  0  0  0  0  0  0
   26.1471  -17.3298  -17.9978 O   0  0  0  0  0  0  0  0  0  0  0  0
   23.2453  -20.7626  -15.3107 N   0  0  0  0  0  0  0  0  0  0  0  0
   23.5288  -20.1971  -14.0171 C   0  0  0  0  0  0  0  0  0  0  0  0
   23.2789  -18.9859  -13.8092 O   0  0  0  0  0  0  0  0  0  0  0  0
   24.1132  -21.0859  -12.9718 C   0  0  0  0  0  0  0  0  0  0  0  0
   25.3867  -20.5112  -12.4458 C   0  0  2  0  0  0  0  0  0  0  0  0
   26.4945  -20.6097  -13.3780 N   0  0  0  0  0  0  0  0  0  0  0  0
   25.7217  -21.1202  -11.1350 C   0  0  0  0  0  0  0  0  0  0  0  0
   26.0723  -22.3186  -10.9735 O   0  0  0  0  0  0  0  0  0  0  0  0
   29.7891  -19.6433   -6.1627 C   0  0  0  0  0  0  0  0  0  0  0  0
   28.0959  -19.3092   -5.6080 S   0  0  0  0  0  0  0  0  0  0  0  0
   26.9145  -20.4739   -6.3933 C   0  0  0  0  0  0  0  0  0  0  0  0
   26.7246  -20.0067   -7.7990 C   0  0  0  0  0  0  0  0  0  0  0  0
   25.8511  -20.9115   -8.6408 C   0  0  2  0  0  0  0  0  0  0  0  0
   25.6459  -20.3066   -9.9727 N   0  0  0  0  0  0  0  0  0  0  0  0
   24.5180  -21.1347   -8.0590 C   0  0  0  0  0  0  0  0  0  0  0  0
   24.3822  -21.8853   -6.9152 O   0  0  0  0  0  0  0  0  0  0  0  0
   23.5046  -20.6501   -8.5938 O   0  0  0  0  0  0  0  0  0  0  0  0
  2  1  1  6
  2  7  1  0
  3  2  1  0
  4  3  1  0
  4  5  1  0
  5  9  1  0
  5  6  2  0
  7  8  2  0
 10 11  1  0
 11 12  2  0
 14 13  1  6
 13 11  1  0
 15 14  1  0
 15  7  1  0
 16 17  2  0
 16 14  1  0
 19 20  1  0
 19 18  1  0
 20 21  1  0
 22 21  1  1
 22 23  1  0
 22 24  1  0
 23 16  1  0
 24 25  1  0
 26 24  2  0
M  END
$$$$
