WTQ.pdb
     RDKit          3D

 31 32  0  0  1  0  0  0  0  0999 V2000
   28.4733  -21.6347  -10.3790 N   0  0  0  0  0  0  0  0  0  0  0  0
   27.2882  -20.8724  -10.0481 C   0  0  1  0  0  0  0  0  0  0  0  0
   27.7541  -19.5876   -9.4006 C   0  0  0  0  0  0  0  0  0  0  0  0
   28.6439  -19.8676   -8.2351 C   0  0  0  0  0  0  0  0  0  0  0  0
   29.9988  -20.2189   -8.2898 C   0  0  0  0  0  0  0  0  0  0  0  0
   30.4669  -20.3938   -7.0411 N   0  0  0  0  0  0  0  0  0  0  0  0
   29.4813  -20.1745   -6.1443 C   0  0  0  0  0  0  0  0  0  0  0  0
   29.4644  -20.2275   -4.7655 C   0  0  0  0  0  0  0  0  0  0  0  0
   28.3000  -19.9518   -4.0780 C   0  0  0  0  0  0  0  0  0  0  0  0
   27.1817  -19.6290   -4.8181 C   0  0  0  0  0  0  0  0  0  0  0  0
   27.1911  -19.5736   -6.2062 C   0  0  0  0  0  0  0  0  0  0  0  0
   28.3516  -19.8484   -6.8861 C   0  0  0  0  0  0  0  0  0  0  0  0
   26.4036  -20.6551  -11.1947 C   0  0  0  0  0  0  0  0  0  0  0  0
   26.7823  -19.9183  -12.1664 O   0  0  0  0  0  0  0  0  0  0  0  0
   25.3899  -22.5941  -13.9975 C   0  0  0  0  0  0  0  0  0  0  0  0
   24.1098  -22.0602  -13.4438 C   0  0  1  0  0  0  0  0  0  0  0  0
   23.5042  -23.1362  -12.7419 O   0  0  0  0  0  0  0  0  0  0  0  0
   24.2487  -20.9599  -12.4661 C   0  0  2  0  0  0  0  0  0  0  0  0
   25.1134  -21.1960  -11.3548 N   0  0  0  0  0  0  0  0  0  0  0  0
   22.9251  -20.3898  -12.0381 C   0  0  0  0  0  0  0  0  0  0  0  0
   22.8430  -19.6326  -11.0409 O   0  0  0  0  0  0  0  0  0  0  0  0
   21.3480  -17.6229  -16.4483 N   0  0  0  0  0  0  0  0  0  0  0  0
   20.7754  -17.1180  -15.2587 C   0  0  0  0  0  0  0  0  0  0  0  0
   20.8795  -15.9025  -15.0046 O   0  0  0  0  0  0  0  0  0  0  0  0
   20.0628  -18.0075  -14.3205 C   0  0  0  0  0  0  0  0  0  0  0  0
   20.8701  -18.4515  -13.1383 C   0  0  0  0  0  0  0  0  0  0  0  0
   20.5429  -19.8304  -12.6996 C   0  0  2  0  0  0  0  0  0  0  0  0
   21.7359  -20.6932  -12.7498 N   0  0  0  0  0  0  0  0  0  0  0  0
   19.4605  -20.3988  -13.5111 C   0  0  0  0  0  0  0  0  0  0  0  0
   18.2649  -20.0318  -13.2400 O   0  0  0  0  0  0  0  0  0  0  0  0
   19.5698  -21.2918  -14.5483 O   0  0  0  0  0  0  0  0  0  0  0  0
  2  1  1  6
  3  2  1  0
  3  4  1  0
  4  5  2  0
  5  6  1  0
  7  6  1  0
  8  7  2  0
  9  8  1  0
 10 11  1  0
 10  9  2  0
 11 12  2  0
 12  4  1  0
 12  7  1  0
 13  2  1  0
 13 19  1  0
 14 13  2  0
 16 15  1  1
 16 18  1  0
 17 16  1  0
 18 19  1  1
 20 18  1  0
 21 20  2  0
 23 22  1  0
 24 23  2  0
 25 23  1  0
 27 26  1  6
 26 25  1  0
 27 28  1  0
 28 20  1  0
 29 31  1  0
 29 27  1  0
 30 29  2  0
M  END
$$$$
