WTQ.pdb
     RDKit          3D

 31 32  0  0  1  0  0  0  0  0999 V2000
   26.6854  -22.6941  -11.6572 N   0  0  0  0  0  0  0  0  0  0  0  0
   25.9812  -21.4393  -11.4994 C   0  0  1  0  0  0  0  0  0  0  0  0
   27.0282  -20.3520  -11.4080 C   0  0  0  0  0  0  0  0  0  0  0  0
   27.9910  -20.6276  -10.3009 C   0  0  0  0  0  0  0  0  0  0  0  0
   29.2956  -21.1192  -10.4377 C   0  0  0  0  0  0  0  0  0  0  0  0
   29.8581  -21.2408   -9.2220 N   0  0  0  0  0  0  0  0  0  0  0  0
   28.9847  -20.8506   -8.2687 C   0  0  0  0  0  0  0  0  0  0  0  0
   29.0900  -20.7912   -6.8942 C   0  0  0  0  0  0  0  0  0  0  0  0
   28.0255  -20.3435   -6.1386 C   0  0  0  0  0  0  0  0  0  0  0  0
   26.8795  -19.9679   -6.8081 C   0  0  0  0  0  0  0  0  0  0  0  0
   26.7661  -20.0250   -8.1915 C   0  0  0  0  0  0  0  0  0  0  0  0
   27.8276  -20.4707   -8.9392 C   0  0  0  0  0  0  0  0  0  0  0  0
   24.9879  -21.1998  -12.5483 C   0  0  0  0  0  0  0  0  0  0  0  0
   25.2591  -21.4791  -13.7644 O   0  0  0  0  0  0  0  0  0  0  0  0
   21.6191  -22.7502  -12.9300 C   0  0  0  0  0  0  0  0  0  0  0  0
   21.4501  -21.2876  -13.1801 C   0  0  1  0  0  0  0  0  0  0  0  0
   20.8383  -20.7559  -12.0139 O   0  0  0  0  0  0  0  0  0  0  0  0
   22.7025  -20.5250  -13.3697 C   0  0  2  0  0  0  0  0  0  0  0  0
   23.6984  -20.6673  -12.3567 N   0  0  0  0  0  0  0  0  0  0  0  0
   22.4598  -19.0838  -13.7218 C   0  0  0  0  0  0  0  0  0  0  0  0
   22.6489  -18.1747  -12.8779 O   0  0  0  0  0  0  0  0  0  0  0  0
   26.3489  -16.6131  -14.7455 N   0  0  0  0  0  0  0  0  0  0  0  0
   25.8994  -16.1151  -15.9897 C   0  0  0  0  0  0  0  0  0  0  0  0
   26.4684  -15.1244  -16.4870 O   0  0  0  0  0  0  0  0  0  0  0  0
   24.7714  -16.7494  -16.7000 C   0  0  0  0  0  0  0  0  0  0  0  0
   24.0885  -17.8476  -15.9423 C   0  0  0  0  0  0  0  0  0  0  0  0
   22.6306  -17.6221  -15.7857 C   0  0  2  0  0  0  0  0  0  0  0  0
   22.0111  -18.7148  -15.0162 N   0  0  0  0  0  0  0  0  0  0  0  0
   21.9768  -17.4752  -17.0912 C   0  0  0  0  0  0  0  0  0  0  0  0
   21.5555  -18.5396  -17.6631 O   0  0  0  0  0  0  0  0  0  0  0  0
   21.7525  -16.3155  -17.7912 O   0  0  0  0  0  0  0  0  0  0  0  0
  2  1  1  6
  3  2  1  0
  3  4  1  0
  4  5  2  0
  5  6  1  0
  7  6  1  0
  8  7  2  0
  9  8  1  0
 10 11  1  0
 10  9  2  0
 11 12  2  0
 12  4  1  0
 12  7  1  0
 13  2  1  0
 13 19  1  0
 14 13  2  0
 16 15  1  1
 16 18  1  0
 17 16  1  0
 18 19  1  1
 20 18  1  0
 21 20  2  0
 23 22  1  0
 24 23  2  0
 25 23  1  0
 27 26  1  6
 26 25  1  0
 27 28  1  0
 28 20  1  0
 29 31  1  0
 29 27  1  0
 30 29  2  0
M  END
$$$$
