WTQ.pdb
     RDKit          3D

 31 32  0  0  1  0  0  0  0  0999 V2000
   26.1725  -18.7375   -8.8532 N   0  0  0  0  0  0  0  0  0  0  0  0
   26.9579  -19.6389   -9.6691 C   0  0  1  0  0  0  0  0  0  0  0  0
   26.8577  -21.0093   -9.0378 C   0  0  0  0  0  0  0  0  0  0  0  0
   26.7640  -20.9084   -7.5513 C   0  0  0  0  0  0  0  0  0  0  0  0
   25.6582  -21.2530   -6.7633 C   0  0  0  0  0  0  0  0  0  0  0  0
   25.9427  -21.0255   -5.4685 N   0  0  0  0  0  0  0  0  0  0  0  0
   27.1975  -20.5405   -5.3505 C   0  0  0  0  0  0  0  0  0  0  0  0
   27.9363  -20.1602   -4.2488 C   0  0  0  0  0  0  0  0  0  0  0  0
   29.2237  -19.6898   -4.4094 C   0  0  0  0  0  0  0  0  0  0  0  0
   29.7233  -19.6198   -5.6932 C   0  0  0  0  0  0  0  0  0  0  0  0
   28.9856  -20.0009   -6.8070 C   0  0  0  0  0  0  0  0  0  0  0  0
   27.7054  -20.4685   -6.6426 C   0  0  0  0  0  0  0  0  0  0  0  0
   26.5719  -19.6225  -11.0816 C   0  0  0  0  0  0  0  0  0  0  0  0
   26.6327  -18.5366  -11.7506 O   0  0  0  0  0  0  0  0  0  0  0  0
   27.8606  -19.0808  -13.4052 C   0  0  0  0  0  0  0  0  0  0  0  0
   27.1722  -20.2591  -14.0118 C   0  0  1  0  0  0  0  0  0  0  0  0
   28.1342  -21.3034  -14.0466 O   0  0  0  0  0  0  0  0  0  0  0  0
   26.0217  -20.7872  -13.2481 C   0  0  2  0  0  0  0  0  0  0  0  0
   26.1166  -20.7286  -11.8248 N   0  0  0  0  0  0  0  0  0  0  0  0
   25.5759  -22.1407  -13.7271 C   0  0  0  0  0  0  0  0  0  0  0  0
   25.9960  -23.1879  -13.1781 O   0  0  0  0  0  0  0  0  0  0  0  0
   20.8294  -19.4614  -13.3767 N   0  0  0  0  0  0  0  0  0  0  0  0
   20.3142  -20.7673  -13.2116 C   0  0  0  0  0  0  0  0  0  0  0  0
   19.1163  -20.9110  -12.8998 O   0  0  0  0  0  0  0  0  0  0  0  0
   21.1727  -21.9531  -13.4013 C   0  0  0  0  0  0  0  0  0  0  0  0
   22.6178  -21.6491  -13.6576 C   0  0  0  0  0  0  0  0  0  0  0  0
   23.2455  -22.5906  -14.6170 C   0  0  2  0  0  0  0  0  0  0  0  0
   24.6697  -22.2687  -14.8112 N   0  0  0  0  0  0  0  0  0  0  0  0
   22.5355  -22.5858  -15.9012 C   0  0  0  0  0  0  0  0  0  0  0  0
   21.8046  -23.5999  -16.1749 O   0  0  0  0  0  0  0  0  0  0  0  0
   22.5542  -21.6095  -16.8664 O   0  0  0  0  0  0  0  0  0  0  0  0
  2  1  1  1
  3  2  1  0
  3  4  1  0
  4  5  2  0
  5  6  1  0
  7  6  1  0
  8  7  2  0
  9  8  1  0
 10 11  1  0
 10  9  2  0
 11 12  2  0
 12  4  1  0
 12  7  1  0
 13  2  1  0
 13 19  1  0
 14 13  2  0
 16 15  1  1
 16 18  1  0
 17 16  1  0
 18 19  1  1
 20 18  1  0
 21 20  2  0
 23 22  1  0
 24 23  2  0
 25 23  1  0
 27 26  1  1
 26 25  1  0
 27 28  1  0
 28 20  1  0
 29 31  1  0
 29 27  1  0
 30 29  2  0
M  END
$$$$
