WTQ.pdb
     RDKit          3D

 31 32  0  0  1  0  0  0  0  0999 V2000
   27.2829  -22.0097  -10.5434 N   0  0  0  0  0  0  0  0  0  0  0  0
   26.4263  -20.9916   -9.9735 C   0  0  1  0  0  0  0  0  0  0  0  0
   27.3147  -19.8305   -9.5868 C   0  0  0  0  0  0  0  0  0  0  0  0
   28.3334  -20.2485   -8.5788 C   0  0  0  0  0  0  0  0  0  0  0  0
   29.4039  -21.1260   -8.7942 C   0  0  0  0  0  0  0  0  0  0  0  0
   30.1063  -21.2635   -7.6554 N   0  0  0  0  0  0  0  0  0  0  0  0
   29.5524  -20.5133   -6.6786 C   0  0  0  0  0  0  0  0  0  0  0  0
   29.9008  -20.3216   -5.3573 C   0  0  0  0  0  0  0  0  0  0  0  0
   29.1493  -19.4831   -4.5595 C   0  0  0  0  0  0  0  0  0  0  0  0
   28.0596  -18.8617   -5.1332 C   0  0  0  0  0  0  0  0  0  0  0  0
   27.7027  -19.0498   -6.4625 C   0  0  0  0  0  0  0  0  0  0  0  0
   28.4533  -19.8846   -7.2526 C   0  0  0  0  0  0  0  0  0  0  0  0
   25.3223  -20.6072  -10.8554 C   0  0  0  0  0  0  0  0  0  0  0  0
   25.4161  -19.5613  -11.5820 O   0  0  0  0  0  0  0  0  0  0  0  0
   24.4243  -19.3397  -13.2196 C   0  0  0  0  0  0  0  0  0  0  0  0
   23.3649  -20.3915  -13.1796 C   0  0  1  0  0  0  0  0  0  0  0  0
   23.8861  -21.5039  -13.8924 O   0  0  0  0  0  0  0  0  0  0  0  0
   23.0170  -20.8940  -11.8334 C   0  0  2  0  0  0  0  0  0  0  0  0
   24.1036  -21.2977  -10.9999 N   0  0  0  0  0  0  0  0  0  0  0  0
   21.9172  -21.9186  -11.8598 C   0  0  0  0  0  0  0  0  0  0  0  0
   22.1715  -23.1391  -11.7183 O   0  0  0  0  0  0  0  0  0  0  0  0
   19.7252  -24.1061   -7.7248 N   0  0  0  0  0  0  0  0  0  0  0  0
   18.5506  -24.3037   -8.4858 C   0  0  0  0  0  0  0  0  0  0  0  0
   17.6316  -24.9993   -8.0121 O   0  0  0  0  0  0  0  0  0  0  0  0
   18.4021  -23.7015   -9.8254 C   0  0  0  0  0  0  0  0  0  0  0  0
   19.5685  -22.8755  -10.2767 C   0  0  0  0  0  0  0  0  0  0  0  0
   19.4361  -22.4042  -11.6771 C   0  0  2  0  0  0  0  0  0  0  0  0
   20.5648  -21.5323  -12.0455 N   0  0  0  0  0  0  0  0  0  0  0  0
   18.1596  -21.7098  -11.8810 C   0  0  0  0  0  0  0  0  0  0  0  0
   18.1538  -20.4365  -11.7531 O   0  0  0  0  0  0  0  0  0  0  0  0
   16.9448  -22.2640  -12.2008 O   0  0  0  0  0  0  0  0  0  0  0  0
  2  1  1  6
  3  2  1  0
  3  4  1  0
  4  5  2  0
  5  6  1  0
  7  6  1  0
  8  7  2  0
  9  8  1  0
 10 11  1  0
 10  9  2  0
 11 12  2  0
 12  4  1  0
 12  7  1  0
 13  2  1  0
 13 19  1  0
 14 13  2  0
 16 15  1  1
 16 18  1  0
 17 16  1  0
 18 19  1  6
 20 18  1  0
 21 20  2  0
 23 22  1  0
 24 23  2  0
 25 23  1  0
 27 26  1  1
 26 25  1  0
 27 28  1  0
 28 20  1  0
 29 31  1  0
 29 27  1  0
 30 29  2  0
M  END
$$$$
