WTQ.pdb
     RDKit          3D

 31 32  0  0  1  0  0  0  0  0999 V2000
   22.7782  -18.8372  -15.5546 N   0  0  0  0  0  0  0  0  0  0  0  0
   21.4250  -19.1697  -15.1628 C   0  0  1  0  0  0  0  0  0  0  0  0
   20.7192  -19.6820  -16.3982 C   0  0  0  0  0  0  0  0  0  0  0  0
   20.7541  -18.6684  -17.4937 C   0  0  0  0  0  0  0  0  0  0  0  0
   21.5503  -18.7169  -18.6452 C   0  0  0  0  0  0  0  0  0  0  0  0
   21.3117  -17.6299  -19.4007 N   0  0  0  0  0  0  0  0  0  0  0  0
   20.3854  -16.8485  -18.8048 C   0  0  0  0  0  0  0  0  0  0  0  0
   19.8164  -15.6485  -19.1793 C   0  0  0  0  0  0  0  0  0  0  0  0
   18.8719  -15.0497  -18.3707 C   0  0  0  0  0  0  0  0  0  0  0  0
   18.5332  -15.6933  -17.1987 C   0  0  0  0  0  0  0  0  0  0  0  0
   19.1016  -16.9014  -16.8150 C   0  0  0  0  0  0  0  0  0  0  0  0
   20.0406  -17.4937  -17.6226 C   0  0  0  0  0  0  0  0  0  0  0  0
   21.3638  -20.0999  -14.0335 C   0  0  0  0  0  0  0  0  0  0  0  0
   22.2953  -20.9550  -13.8556 O   0  0  0  0  0  0  0  0  0  0  0  0
   21.5798  -19.3120  -10.4429 C   0  0  0  0  0  0  0  0  0  0  0  0
   20.4250  -20.2459  -10.5999 C   0  0  1  0  0  0  0  0  0  0  0  0
   19.2559  -19.4421  -10.5356 O   0  0  0  0  0  0  0  0  0  0  0  0
   20.3578  -20.9644  -11.8902 C   0  0  2  0  0  0  0  0  0  0  0  0
   20.3384  -20.1611  -13.0703 N   0  0  0  0  0  0  0  0  0  0  0  0
   19.2912  -22.0235  -11.9129 C   0  0  0  0  0  0  0  0  0  0  0  0
   18.4579  -22.0774  -12.8494 O   0  0  0  0  0  0  0  0  0  0  0  0
   18.6530  -26.9842   -7.7547 N   0  0  0  0  0  0  0  0  0  0  0  0
   17.6088  -27.1268   -8.6967 C   0  0  0  0  0  0  0  0  0  0  0  0
   16.8387  -28.1020   -8.6046 O   0  0  0  0  0  0  0  0  0  0  0  0
   17.4230  -26.1421   -9.7808 C   0  0  0  0  0  0  0  0  0  0  0  0
   18.4062  -25.0108   -9.7784 C   0  0  0  0  0  0  0  0  0  0  0  0
   18.1380  -24.0093  -10.8395 C   0  0  2  0  0  0  0  0  0  0  0  0
   19.1992  -22.9883  -10.8767 N   0  0  0  0  0  0  0  0  0  0  0  0
   16.8247  -23.3821  -10.6524 C   0  0  0  0  0  0  0  0  0  0  0  0
   16.7689  -22.3397   -9.9122 O   0  0  0  0  0  0  0  0  0  0  0  0
   15.6224  -23.7783  -11.1839 O   0  0  0  0  0  0  0  0  0  0  0  0
  2  1  1  6
  3  2  1  0
  3  4  1  0
  4  5  2  0
  5  6  1  0
  7  6  1  0
  8  7  2  0
  9  8  1  0
 10 11  1  0
 10  9  2  0
 11 12  2  0
 12  4  1  0
 12  7  1  0
 13  2  1  0
 13 19  1  0
 14 13  2  0
 16 15  1  6
 16 18  1  0
 17 16  1  0
 18 19  1  6
 20 18  1  0
 21 20  2  0
 23 22  1  0
 24 23  2  0
 25 23  1  0
 27 26  1  1
 26 25  1  0
 27 28  1  0
 28 20  1  0
 29 31  1  0
 29 27  1  0
 30 29  2  0
M  END
$$$$
