WTQ.pdb
     RDKit          3D

 31 32  0  0  1  0  0  0  0  0999 V2000
   28.0802  -21.8213  -10.1281 N   0  0  0  0  0  0  0  0  0  0  0  0
   26.9795  -20.9441   -9.7900 C   0  0  1  0  0  0  0  0  0  0  0  0
   27.5711  -19.7381   -9.0955 C   0  0  0  0  0  0  0  0  0  0  0  0
   28.5193  -20.1518   -8.0191 C   0  0  0  0  0  0  0  0  0  0  0  0
   29.7560  -20.7844   -8.1995 C   0  0  0  0  0  0  0  0  0  0  0  0
   30.3265  -21.0025   -7.0011 N   0  0  0  0  0  0  0  0  0  0  0  0
   29.5236  -20.5421   -6.0177 C   0  0  0  0  0  0  0  0  0  0  0  0
   29.6639  -20.5329   -4.6450 C   0  0  0  0  0  0  0  0  0  0  0  0
   28.6737  -19.9882   -3.8531 C   0  0  0  0  0  0  0  0  0  0  0  0
   27.5642  -19.4665   -4.4852 C   0  0  0  0  0  0  0  0  0  0  0  0
   27.4159  -19.4722   -5.8665 C   0  0  0  0  0  0  0  0  0  0  0  0
   28.4035  -20.0149   -6.6504 C   0  0  0  0  0  0  0  0  0  0  0  0
   26.1441  -20.5971  -10.9415 C   0  0  0  0  0  0  0  0  0  0  0  0
   26.6170  -19.8754  -11.8827 O   0  0  0  0  0  0  0  0  0  0  0  0
   26.1908  -20.9598  -13.7271 C   0  0  0  0  0  0  0  0  0  0  0  0
   24.7602  -21.3632  -13.5828 C   0  0  1  0  0  0  0  0  0  0  0  0
   24.7567  -22.7809  -13.4966 O   0  0  0  0  0  0  0  0  0  0  0  0
   24.0814  -20.8769  -12.3627 C   0  0  2  0  0  0  0  0  0  0  0  0
   24.8064  -20.9905  -11.1381 N   0  0  0  0  0  0  0  0  0  0  0  0
   22.6748  -21.3916  -12.2337 C   0  0  0  0  0  0  0  0  0  0  0  0
   22.3020  -21.9920  -11.1969 O   0  0  0  0  0  0  0  0  0  0  0  0
   20.2201  -16.3432  -13.2408 N   0  0  0  0  0  0  0  0  0  0  0  0
   19.0790  -17.0714  -12.8338 C   0  0  0  0  0  0  0  0  0  0  0  0
   18.0436  -16.4514  -12.5234 O   0  0  0  0  0  0  0  0  0  0  0  0
   19.1004  -18.5461  -12.7711 C   0  0  0  0  0  0  0  0  0  0  0  0
   20.4141  -19.1720  -13.1302 C   0  0  0  0  0  0  0  0  0  0  0  0
   20.3907  -20.6531  -13.0478 C   0  0  2  0  0  0  0  0  0  0  0  0
   21.7336  -21.2121  -13.2801 N   0  0  0  0  0  0  0  0  0  0  0  0
   19.4251  -21.2185  -13.9971 C   0  0  0  0  0  0  0  0  0  0  0  0
   19.8102  -21.3751  -15.2074 O   0  0  0  0  0  0  0  0  0  0  0  0
   18.1338  -21.6119  -13.7461 O   0  0  0  0  0  0  0  0  0  0  0  0
  2  1  1  6
  3  2  1  0
  3  4  1  0
  4  5  2  0
  5  6  1  0
  7  6  1  0
  8  7  2  0
  9  8  1  0
 10 11  1  0
 10  9  2  0
 11 12  2  0
 12  4  1  0
 12  7  1  0
 13  2  1  0
 13 19  1  0
 14 13  2  0
 16 15  1  1
 16 18  1  0
 17 16  1  0
 18 19  1  1
 20 18  1  0
 21 20  2  0
 23 22  1  0
 24 23  2  0
 25 23  1  0
 27 26  1  6
 26 25  1  0
 27 28  1  0
 28 20  1  0
 29 31  1  0
 29 27  1  0
 30 29  2  0
M  END
$$$$
