WTQ.pdb
     RDKit          3D

 31 32  0  0  1  0  0  0  0  0999 V2000
   28.2248  -21.0054   -9.0961 N   0  0  0  0  0  0  0  0  0  0  0  0
   26.7890  -21.1640   -9.1884 C   0  0  1  0  0  0  0  0  0  0  0  0
   26.1830  -20.3930   -8.0373 C   0  0  0  0  0  0  0  0  0  0  0  0
   27.2447  -19.7734   -7.1902 C   0  0  0  0  0  0  0  0  0  0  0  0
   27.8978  -18.5582   -7.4335 C   0  0  0  0  0  0  0  0  0  0  0  0
   28.7923  -18.3270   -6.4560 N   0  0  0  0  0  0  0  0  0  0  0  0
   28.7694  -19.3384   -5.5614 C   0  0  0  0  0  0  0  0  0  0  0  0
   29.4877  -19.5585   -4.4039 C   0  0  0  0  0  0  0  0  0  0  0  0
   29.2637  -20.6977   -3.6581 C   0  0  0  0  0  0  0  0  0  0  0  0
   28.3105  -21.5839   -4.1150 C   0  0  0  0  0  0  0  0  0  0  0  0
   27.5835  -21.3692   -5.2792 C   0  0  0  0  0  0  0  0  0  0  0  0
   27.8094  -20.2344   -6.0180 C   0  0  0  0  0  0  0  0  0  0  0  0
   26.2488  -20.7763  -10.4931 C   0  0  0  0  0  0  0  0  0  0  0  0
   26.7482  -19.7856  -11.1253 O   0  0  0  0  0  0  0  0  0  0  0  0
   26.3276  -22.1504  -13.8173 C   0  0  0  0  0  0  0  0  0  0  0  0
   24.8905  -21.8165  -13.5861 C   0  0  1  0  0  0  0  0  0  0  0  0
   24.2304  -23.0526  -13.3544 O   0  0  0  0  0  0  0  0  0  0  0  0
   24.6144  -20.9762  -12.4015 C   0  0  2  0  0  0  0  0  0  0  0  0
   25.1835  -21.4062  -11.1647 N   0  0  0  0  0  0  0  0  0  0  0  0
   23.1589  -20.6278  -12.2602 C   0  0  0  0  0  0  0  0  0  0  0  0
   22.4548  -21.1558  -11.3658 O   0  0  0  0  0  0  0  0  0  0  0  0
   20.1362  -16.3594  -16.0032 N   0  0  0  0  0  0  0  0  0  0  0  0
   20.7334  -17.5785  -16.3973 C   0  0  0  0  0  0  0  0  0  0  0  0
   20.9916  -17.7651  -17.6019 O   0  0  0  0  0  0  0  0  0  0  0  0
   21.0507  -18.6253  -15.4059 C   0  0  0  0  0  0  0  0  0  0  0  0
   20.7815  -18.2449  -13.9814 C   0  0  0  0  0  0  0  0  0  0  0  0
   21.1234  -19.3224  -13.0206 C   0  0  2  0  0  0  0  0  0  0  0  0
   22.5443  -19.6939  -13.1339 N   0  0  0  0  0  0  0  0  0  0  0  0
   20.2657  -20.4964  -13.2182 C   0  0  0  0  0  0  0  0  0  0  0  0
   19.1068  -20.4783  -12.6758 O   0  0  0  0  0  0  0  0  0  0  0  0
   20.5536  -21.6357  -13.9284 O   0  0  0  0  0  0  0  0  0  0  0  0
  2  1  1  6
  3  2  1  0
  3  4  1  0
  4  5  2  0
  5  6  1  0
  7  6  1  0
  8  7  2  0
  9  8  1  0
 10 11  1  0
 10  9  2  0
 11 12  2  0
 12  4  1  0
 12  7  1  0
 13  2  1  0
 13 19  1  0
 14 13  2  0
 16 15  1  1
 16 18  1  0
 17 16  1  0
 18 19  1  1
 20 18  1  0
 21 20  2  0
 23 22  1  0
 24 23  2  0
 25 23  1  0
 27 26  1  6
 26 25  1  0
 27 28  1  0
 28 20  1  0
 29 31  1  0
 29 27  1  0
 30 29  2  0
M  END
$$$$
