WTQ.pdb
     RDKit          3D

 31 32  0  0  1  0  0  0  0  0999 V2000
   28.0942  -22.4640  -10.5299 N   0  0  0  0  0  0  0  0  0  0  0  0
   27.1399  -21.4135  -10.2455 C   0  0  1  0  0  0  0  0  0  0  0  0
   27.9252  -20.2299   -9.7266 C   0  0  0  0  0  0  0  0  0  0  0  0
   28.6287  -20.5702   -8.4547 C   0  0  0  0  0  0  0  0  0  0  0  0
   29.7796  -21.3586   -8.3272 C   0  0  0  0  0  0  0  0  0  0  0  0
   30.1216  -21.4452   -7.0293 N   0  0  0  0  0  0  0  0  0  0  0  0
   29.2468  -20.7462   -6.2744 C   0  0  0  0  0  0  0  0  0  0  0  0
   29.1722  -20.5336   -4.9130 C   0  0  0  0  0  0  0  0  0  0  0  0
   28.1555  -19.7614   -4.3892 C   0  0  0  0  0  0  0  0  0  0  0  0
   27.2400  -19.2260   -5.2712 C   0  0  0  0  0  0  0  0  0  0  0  0
   27.3086  -19.4356   -6.6427 C   0  0  0  0  0  0  0  0  0  0  0  0
   28.3218  -20.2042   -7.1596 C   0  0  0  0  0  0  0  0  0  0  0  0
   26.2858  -21.0854  -11.3888 C   0  0  0  0  0  0  0  0  0  0  0  0
   26.7920  -20.9704  -12.5554 O   0  0  0  0  0  0  0  0  0  0  0  0
   25.5147  -22.1744  -13.9187 C   0  0  0  0  0  0  0  0  0  0  0  0
   24.1308  -21.7905  -13.5092 C   0  0  1  0  0  0  0  0  0  0  0  0
   23.5540  -22.9521  -12.9303 O   0  0  0  0  0  0  0  0  0  0  0  0
   24.0415  -20.7325  -12.4804 C   0  0  2  0  0  0  0  0  0  0  0  0
   24.8949  -20.8705  -11.3441 N   0  0  0  0  0  0  0  0  0  0  0  0
   22.6247  -20.4213  -12.0855 C   0  0  0  0  0  0  0  0  0  0  0  0
   22.1978  -20.7089  -10.9412 O   0  0  0  0  0  0  0  0  0  0  0  0
   18.7126  -16.5178  -15.3503 N   0  0  0  0  0  0  0  0  0  0  0  0
   19.5572  -16.1000  -14.2967 C   0  0  0  0  0  0  0  0  0  0  0  0
   19.8061  -14.8861  -14.1648 O   0  0  0  0  0  0  0  0  0  0  0  0
   20.1443  -17.0776  -13.3593 C   0  0  0  0  0  0  0  0  0  0  0  0
   19.7677  -18.5045  -13.6209 C   0  0  0  0  0  0  0  0  0  0  0  0
   20.3499  -19.4466  -12.6339 C   0  0  2  0  0  0  0  0  0  0  0  0
   21.7346  -19.7953  -12.9959 N   0  0  0  0  0  0  0  0  0  0  0  0
   19.5283  -20.6563  -12.5116 C   0  0  0  0  0  0  0  0  0  0  0  0
   18.3963  -20.5438  -11.9255 O   0  0  0  0  0  0  0  0  0  0  0  0
   19.8249  -21.9204  -12.9578 O   0  0  0  0  0  0  0  0  0  0  0  0
  2  1  1  6
  3  2  1  0
  3  4  1  0
  4  5  2  0
  5  6  1  0
  7  6  1  0
  8  7  2  0
  9  8  1  0
 10 11  1  0
 10  9  2  0
 11 12  2  0
 12  4  1  0
 12  7  1  0
 13  2  1  0
 13 19  1  0
 14 13  2  0
 16 15  1  1
 16 18  1  0
 17 16  1  0
 18 19  1  1
 20 18  1  0
 21 20  2  0
 23 22  1  0
 24 23  2  0
 25 23  1  0
 27 26  1  6
 26 25  1  0
 27 28  1  0
 28 20  1  0
 29 31  1  0
 29 27  1  0
 30 29  2  0
M  END
$$$$
