WTQ.pdb
     RDKit          3D

 31 32  0  0  1  0  0  0  0  0999 V2000
   16.7350  -17.9180    2.0341 N   0  0  0  0  0  0  0  0  0  0  0  0
   17.8281  -18.0460    2.9742 C   0  0  1  0  0  0  0  0  0  0  0  0
   19.0264  -17.3609    2.3566 C   0  0  0  0  0  0  0  0  0  0  0  0
   19.5054  -18.1024    1.1527 C   0  0  0  0  0  0  0  0  0  0  0  0
   18.7226  -18.8813    0.2909 C   0  0  0  0  0  0  0  0  0  0  0  0
   19.5001  -19.3944   -0.6794 N   0  0  0  0  0  0  0  0  0  0  0  0
   20.7779  -18.9928   -0.5071 C   0  0  0  0  0  0  0  0  0  0  0  0
   21.9267  -19.2476   -1.2277 C   0  0  0  0  0  0  0  0  0  0  0  0
   23.1288  -18.7007   -0.8272 C   0  0  0  0  0  0  0  0  0  0  0  0
   23.1258  -17.9069    0.3009 C   0  0  0  0  0  0  0  0  0  0  0  0
   21.9733  -17.6459    1.0313 C   0  0  0  0  0  0  0  0  0  0  0  0
   20.7796  -18.1918    0.6292 C   0  0  0  0  0  0  0  0  0  0  0  0
   17.5005  -17.5458    4.3109 C   0  0  0  0  0  0  0  0  0  0  0  0
   16.6198  -16.6327    4.4561 O   0  0  0  0  0  0  0  0  0  0  0  0
   16.0784  -18.7314    7.6509 C   0  0  0  0  0  0  0  0  0  0  0  0
   17.4139  -18.1105    7.8978 C   0  0  1  0  0  0  0  0  0  0  0  0
   18.3182  -19.1868    8.1003 O   0  0  0  0  0  0  0  0  0  0  0  0
   17.9646  -17.3179    6.7779 C   0  0  2  0  0  0  0  0  0  0  0  0
   18.0785  -17.9814    5.5189 N   0  0  0  0  0  0  0  0  0  0  0  0
   19.2263  -16.5878    7.1453 C   0  0  0  0  0  0  0  0  0  0  0  0
   20.3421  -16.9806    6.7267 O   0  0  0  0  0  0  0  0  0  0  0  0
   20.8655  -10.1735    9.7088 N   0  0  0  0  0  0  0  0  0  0  0  0
   21.1457  -10.9377    8.5531 C   0  0  0  0  0  0  0  0  0  0  0  0
   21.2243  -10.3623    7.4506 O   0  0  0  0  0  0  0  0  0  0  0  0
   21.3431  -12.3983    8.6367 C   0  0  0  0  0  0  0  0  0  0  0  0
   20.1488  -13.2176    8.2510 C   0  0  0  0  0  0  0  0  0  0  0  0
   20.3995  -14.6777    8.3287 C   0  0  2  0  0  0  0  0  0  0  0  0
   19.1880  -15.4370    7.9743 N   0  0  0  0  0  0  0  0  0  0  0  0
   20.8766  -15.0602    9.6626 C   0  0  0  0  0  0  0  0  0  0  0  0
   21.9729  -14.5398   10.0687 O   0  0  0  0  0  0  0  0  0  0  0  0
   20.2823  -15.9223   10.5507 O   0  0  0  0  0  0  0  0  0  0  0  0
  2  1  1  6
  3  2  1  0
  3  4  1  0
  4  5  2  0
  5  6  1  0
  7  6  1  0
  8  7  2  0
  9  8  1  0
 10 11  1  0
 10  9  2  0
 11 12  2  0
 12  4  1  0
 12  7  1  0
 13  2  1  0
 13 19  1  0
 14 13  2  0
 16 15  1  6
 16 18  1  0
 17 16  1  0
 18 19  1  6
 20 18  1  0
 21 20  2  0
 23 22  1  0
 24 23  2  0
 25 23  1  0
 27 26  1  1
 26 25  1  0
 27 28  1  0
 28 20  1  0
 29 31  1  0
 29 27  1  0
 30 29  2  0
M  END
$$$$
