WTQ.pdb
     RDKit          3D

 31 32  0  0  1  0  0  0  0  0999 V2000
   18.0774  -14.6450  -16.5195 N   0  0  0  0  0  0  0  0  0  0  0  0
   18.9559  -13.5334  -16.2233 C   0  0  1  0  0  0  0  0  0  0  0  0
   20.3725  -14.0211  -16.4287 C   0  0  0  0  0  0  0  0  0  0  0  0
   20.6085  -15.3023  -15.6997 C   0  0  0  0  0  0  0  0  0  0  0  0
   20.0476  -15.6747  -14.4713 C   0  0  0  0  0  0  0  0  0  0  0  0
   20.4925  -16.8967  -14.1279 N   0  0  0  0  0  0  0  0  0  0  0  0
   21.3323  -17.3649  -15.0762 C   0  0  0  0  0  0  0  0  0  0  0  0
   22.0331  -18.5490  -15.1802 C   0  0  0  0  0  0  0  0  0  0  0  0
   22.8372  -18.7817  -16.2773 C   0  0  0  0  0  0  0  0  0  0  0  0
   22.9046  -17.7970  -17.2408 C   0  0  0  0  0  0  0  0  0  0  0  0
   22.2021  -16.6025  -17.1431 C   0  0  0  0  0  0  0  0  0  0  0  0
   21.4032  -16.3753  -16.0501 C   0  0  0  0  0  0  0  0  0  0  0  0
   18.6410  -12.3285  -16.9936 C   0  0  0  0  0  0  0  0  0  0  0  0
   18.6520  -12.3621  -18.2700 O   0  0  0  0  0  0  0  0  0  0  0  0
   15.7214  -10.9470  -17.9810 C   0  0  0  0  0  0  0  0  0  0  0  0
   16.4317   -9.7677  -17.4023 C   0  0  1  0  0  0  0  0  0  0  0  0
   15.8834   -9.5736  -16.1065 O   0  0  0  0  0  0  0  0  0  0  0  0
   17.8883   -9.9328  -17.2103 C   0  0  2  0  0  0  0  0  0  0  0  0
   18.3101  -11.0695  -16.4565 N   0  0  0  0  0  0  0  0  0  0  0  0
   18.5624   -8.6705  -16.7496 C   0  0  0  0  0  0  0  0  0  0  0  0
   19.0805   -8.5972  -15.6092 O   0  0  0  0  0  0  0  0  0  0  0  0
   20.1779   -5.5133  -21.6817 N   0  0  0  0  0  0  0  0  0  0  0  0
   20.8916   -5.2044  -20.5014 C   0  0  0  0  0  0  0  0  0  0  0  0
   21.7179   -4.2719  -20.5195 O   0  0  0  0  0  0  0  0  0  0  0  0
   20.6720   -5.9690  -19.2578 C   0  0  0  0  0  0  0  0  0  0  0  0
   19.5870   -5.4334  -18.3732 C   0  0  0  0  0  0  0  0  0  0  0  0
   19.3248   -6.2942  -17.1938 C   0  0  2  0  0  0  0  0  0  0  0  0
   18.6297   -7.5305  -17.5916 N   0  0  0  0  0  0  0  0  0  0  0  0
   18.5524   -5.5726  -16.1760 C   0  0  0  0  0  0  0  0  0  0  0  0
   17.2903   -5.7802  -16.1361 O   0  0  0  0  0  0  0  0  0  0  0  0
   19.0220   -4.6857  -15.2390 O   0  0  0  0  0  0  0  0  0  0  0  0
  2  1  1  6
  3  2  1  0
  3  4  1  0
  4  5  2  0
  5  6  1  0
  7  6  1  0
  8  7  2  0
  9  8  1  0
 10 11  1  0
 10  9  2  0
 11 12  2  0
 12  4  1  0
 12  7  1  0
 13  2  1  0
 13 19  1  0
 14 13  2  0
 16 15  1  1
 16 18  1  0
 17 16  1  0
 18 19  1  1
 20 18  1  0
 21 20  2  0
 23 22  1  0
 24 23  2  0
 25 23  1  0
 27 26  1  6
 26 25  1  0
 27 28  1  0
 28 20  1  0
 29 31  1  0
 29 27  1  0
 30 29  2  0
M  END
$$$$
