WTQ.pdb
     RDKit          3D

 31 32  0  0  1  0  0  0  0  0999 V2000
   27.4313  -19.9812  -17.0143 N   0  0  0  0  0  0  0  0  0  0  0  0
   27.1130  -19.3835  -15.7351 C   0  0  1  0  0  0  0  0  0  0  0  0
   26.5171  -18.0226  -16.0177 C   0  0  0  0  0  0  0  0  0  0  0  0
   27.4238  -17.2101  -16.8816 C   0  0  0  0  0  0  0  0  0  0  0  0
   27.0324  -16.2812  -17.8544 C   0  0  0  0  0  0  0  0  0  0  0  0
   28.1250  -15.7475  -18.4292 N   0  0  0  0  0  0  0  0  0  0  0  0
   29.2397  -16.2793  -17.8831 C   0  0  0  0  0  0  0  0  0  0  0  0
   30.5794  -16.0592  -18.1298 C   0  0  0  0  0  0  0  0  0  0  0  0
   31.5361  -16.7494  -17.4138 C   0  0  0  0  0  0  0  0  0  0  0  0
   31.0986  -17.6480  -16.4632 C   0  0  0  0  0  0  0  0  0  0  0  0
   29.7518  -17.8750  -16.2093 C   0  0  0  0  0  0  0  0  0  0  0  0
   28.8034  -17.1860  -16.9237 C   0  0  0  0  0  0  0  0  0  0  0  0
   26.2562  -20.2287  -14.9010 C   0  0  0  0  0  0  0  0  0  0  0  0
   25.8222  -21.3426  -15.3496 O   0  0  0  0  0  0  0  0  0  0  0  0
   26.7247  -21.1623  -11.1124 C   0  0  0  0  0  0  0  0  0  0  0  0
   25.2770  -20.9269  -11.3934 C   0  0  1  0  0  0  0  0  0  0  0  0
   24.9372  -19.7190  -10.7282 O   0  0  0  0  0  0  0  0  0  0  0  0
   24.9293  -20.7232  -12.8158 C   0  0  2  0  0  0  0  0  0  0  0  0
   25.8343  -19.9357  -13.5899 N   0  0  0  0  0  0  0  0  0  0  0  0
   23.5016  -20.2949  -13.0114 C   0  0  0  0  0  0  0  0  0  0  0  0
   23.2020  -19.0804  -13.1100 O   0  0  0  0  0  0  0  0  0  0  0  0
   18.7740  -24.3046  -14.4690 N   0  0  0  0  0  0  0  0  0  0  0  0
   18.4833  -23.7007  -13.2245 C   0  0  0  0  0  0  0  0  0  0  0  0
   17.6173  -24.2136  -12.4898 O   0  0  0  0  0  0  0  0  0  0  0  0
   19.1871  -22.4781  -12.7895 C   0  0  0  0  0  0  0  0  0  0  0  0
   20.2281  -21.9779  -13.7448 C   0  0  0  0  0  0  0  0  0  0  0  0
   21.0385  -20.8674  -13.1875 C   0  0  2  0  0  0  0  0  0  0  0  0
   22.4571  -21.2519  -13.0892 N   0  0  0  0  0  0  0  0  0  0  0  0
   20.5262  -20.4463  -11.8785 C   0  0  0  0  0  0  0  0  0  0  0  0
   21.1386  -20.8747  -10.8397 O   0  0  0  0  0  0  0  0  0  0  0  0
   19.4515  -19.6316  -11.6208 O   0  0  0  0  0  0  0  0  0  0  0  0
  2  1  1  6
  3  2  1  0
  3  4  1  0
  4  5  2  0
  5  6  1  0
  7  6  1  0
  8  7  2  0
  9  8  1  0
 10 11  1  0
 10  9  2  0
 11 12  2  0
 12  4  1  0
 12  7  1  0
 13  2  1  0
 13 19  1  0
 14 13  2  0
 16 15  1  6
 16 18  1  0
 17 16  1  0
 18 19  1  1
 20 18  1  0
 21 20  2  0
 23 22  1  0
 24 23  2  0
 25 23  1  0
 27 26  1  1
 26 25  1  0
 27 28  1  0
 28 20  1  0
 29 31  1  0
 29 27  1  0
 30 29  2  0
M  END
$$$$
