WTQ.pdb
     RDKit          3D

 31 32  0  0  1  0  0  0  0  0999 V2000
   34.4202  -28.6998  -17.9225 N   0  0  0  0  0  0  0  0  0  0  0  0
   33.6034  -29.8731  -18.1494 C   0  0  1  0  0  0  0  0  0  0  0  0
   34.4850  -31.0791  -17.9144 C   0  0  0  0  0  0  0  0  0  0  0  0
   35.4051  -31.3027  -19.0686 C   0  0  0  0  0  0  0  0  0  0  0  0
   36.7079  -30.8053  -19.2009 C   0  0  0  0  0  0  0  0  0  0  0  0
   37.2258  -31.2128  -20.3735 N   0  0  0  0  0  0  0  0  0  0  0  0
   36.3240  -31.9662  -21.0389 C   0  0  0  0  0  0  0  0  0  0  0  0
   36.3815  -32.6029  -22.2617 C   0  0  0  0  0  0  0  0  0  0  0  0
   35.2964  -33.3239  -22.7168 C   0  0  0  0  0  0  0  0  0  0  0  0
   34.1790  -33.3753  -21.9096 C   0  0  0  0  0  0  0  0  0  0  0  0
   34.1137  -32.7370  -20.6775 C   0  0  0  0  0  0  0  0  0  0  0  0
   35.1956  -32.0211  -20.2286 C   0  0  0  0  0  0  0  0  0  0  0  0
   32.3782  -29.8866  -17.3476 C   0  0  0  0  0  0  0  0  0  0  0  0
   32.0721  -28.8778  -16.6270 O   0  0  0  0  0  0  0  0  0  0  0  0
   29.9952  -28.5445  -18.2023 C   0  0  0  0  0  0  0  0  0  0  0  0
   29.3426  -29.8734  -18.0068 C   0  0  1  0  0  0  0  0  0  0  0  0
   29.3445  -30.5050  -19.2789 O   0  0  0  0  0  0  0  0  0  0  0  0
   30.0424  -30.7977  -17.0894 C   0  0  2  0  0  0  0  0  0  0  0  0
   31.4501  -30.9432  -17.2777 N   0  0  0  0  0  0  0  0  0  0  0  0
   29.3513  -32.1267  -16.9618 C   0  0  0  0  0  0  0  0  0  0  0  0
   29.6816  -33.0958  -17.6872 O   0  0  0  0  0  0  0  0  0  0  0  0
   25.2423  -32.2102  -12.6545 N   0  0  0  0  0  0  0  0  0  0  0  0
   26.5848  -32.5413  -12.3610 C   0  0  0  0  0  0  0  0  0  0  0  0
   27.0693  -32.1938  -11.2668 O   0  0  0  0  0  0  0  0  0  0  0  0
   27.4133  -33.2866  -13.3292 C   0  0  0  0  0  0  0  0  0  0  0  0
   26.7445  -33.5742  -14.6393 C   0  0  0  0  0  0  0  0  0  0  0  0
   27.6981  -33.6371  -15.7740 C   0  0  2  0  0  0  0  0  0  0  0  0
   28.3088  -32.3192  -16.0189 N   0  0  0  0  0  0  0  0  0  0  0  0
   27.0410  -34.1350  -16.9878 C   0  0  0  0  0  0  0  0  0  0  0  0
   26.4100  -33.2856  -17.7076 O   0  0  0  0  0  0  0  0  0  0  0  0
   27.0185  -35.4236  -17.4613 O   0  0  0  0  0  0  0  0  0  0  0  0
  2  1  1  1
  3  2  1  0
  3  4  1  0
  4  5  2  0
  5  6  1  0
  7  6  1  0
  8  7  2  0
  9  8  1  0
 10 11  1  0
 10  9  2  0
 11 12  2  0
 12  4  1  0
 12  7  1  0
 13  2  1  0
 13 19  1  0
 14 13  2  0
 16 15  1  6
 16 18  1  0
 17 16  1  0
 18 19  1  6
 20 18  1  0
 21 20  2  0
 23 22  1  0
 24 23  2  0
 25 23  1  0
 27 26  1  1
 26 25  1  0
 27 28  1  0
 28 20  1  0
 29 31  1  0
 29 27  1  0
 30 29  2  0
M  END
$$$$
