WTQ.pdb
     RDKit          3D

 31 32  0  0  1  0  0  0  0  0999 V2000
   28.6352  -20.9049   -9.6496 N   0  0  0  0  0  0  0  0  0  0  0  0
   27.1982  -20.9901   -9.4977 C   0  0  1  0  0  0  0  0  0  0  0  0
   26.8035  -19.9812   -8.4426 C   0  0  0  0  0  0  0  0  0  0  0  0
   27.9117  -19.7671   -7.4655 C   0  0  0  0  0  0  0  0  0  0  0  0
   29.1252  -19.1137   -7.7158 C   0  0  0  0  0  0  0  0  0  0  0  0
   29.8738  -19.1159   -6.5983 N   0  0  0  0  0  0  0  0  0  0  0  0
   29.2136  -19.7453   -5.6024 C   0  0  0  0  0  0  0  0  0  0  0  0
   29.5559  -20.0007   -4.2903 C   0  0  0  0  0  0  0  0  0  0  0  0
   28.6789  -20.6767   -3.4667 C   0  0  0  0  0  0  0  0  0  0  0  0
   27.4735  -21.0750   -4.0060 C   0  0  0  0  0  0  0  0  0  0  0  0
   27.1220  -20.8215   -5.3259 C   0  0  0  0  0  0  0  0  0  0  0  0
   27.9973  -20.1485   -6.1416 C   0  0  0  0  0  0  0  0  0  0  0  0
   26.4741  -20.8219  -10.7593 C   0  0  0  0  0  0  0  0  0  0  0  0
   27.1165  -20.6879  -11.8547 O   0  0  0  0  0  0  0  0  0  0  0  0
   26.2351  -21.7862  -13.4200 C   0  0  0  0  0  0  0  0  0  0  0  0
   24.7656  -21.6098  -13.2213 C   0  0  1  0  0  0  0  0  0  0  0  0
   24.2646  -22.8806  -12.8324 O   0  0  0  0  0  0  0  0  0  0  0  0
   24.3763  -20.6701  -12.1483 C   0  0  2  0  0  0  0  0  0  0  0  0
   25.0743  -20.7890  -10.9085 N   0  0  0  0  0  0  0  0  0  0  0  0
   22.8879  -20.5946  -11.9511 C   0  0  0  0  0  0  0  0  0  0  0  0
   22.3715  -20.8664  -10.8403 O   0  0  0  0  0  0  0  0  0  0  0  0
   20.1970  -16.2357  -15.6122 N   0  0  0  0  0  0  0  0  0  0  0  0
   19.2427  -16.4581  -14.5935 C   0  0  0  0  0  0  0  0  0  0  0  0
   18.2103  -15.7609  -14.5677 O   0  0  0  0  0  0  0  0  0  0  0  0
   19.4545  -17.4977  -13.5669 C   0  0  0  0  0  0  0  0  0  0  0  0
   20.7101  -18.2990  -13.7328 C   0  0  0  0  0  0  0  0  0  0  0  0
   20.7919  -19.4465  -12.7960 C   0  0  2  0  0  0  0  0  0  0  0  0
   22.0296  -20.2146  -13.0150 N   0  0  0  0  0  0  0  0  0  0  0  0
   19.6161  -20.3152  -12.9229 C   0  0  0  0  0  0  0  0  0  0  0  0
   19.6668  -21.2533  -13.7918 O   0  0  0  0  0  0  0  0  0  0  0  0
   18.4440  -20.2498  -12.2108 O   0  0  0  0  0  0  0  0  0  0  0  0
  2  1  1  6
  3  2  1  0
  3  4  1  0
  4  5  2  0
  5  6  1  0
  7  6  1  0
  8  7  2  0
  9  8  1  0
 10 11  1  0
 10  9  2  0
 11 12  2  0
 12  4  1  0
 12  7  1  0
 13  2  1  0
 13 19  1  0
 14 13  2  0
 16 15  1  1
 16 18  1  0
 17 16  1  0
 18 19  1  1
 20 18  1  0
 21 20  2  0
 23 22  1  0
 24 23  2  0
 25 23  1  0
 27 26  1  6
 26 25  1  0
 27 28  1  0
 28 20  1  0
 29 31  1  0
 29 27  1  0
 30 29  2  0
M  END
$$$$
