WWC.pdb
     RDKit          3D

 35 38  0  0  1  0  0  0  0  0999 V2000
   25.3323  -19.8599   -8.8318 N   0  0  0  0  0  0  0  0  0  0  0  0
   26.4269  -19.9603   -9.7380 C   0  0  1  0  0  0  0  0  0  0  0  0
   27.2069  -21.2382   -9.6755 C   0  0  0  0  0  0  0  0  0  0  0  0
   28.1983  -21.2964   -8.5860 C   0  0  0  0  0  0  0  0  0  0  0  0
   27.9287  -21.0607   -7.2430 C   0  0  0  0  0  0  0  0  0  0  0  0
   29.0570  -21.2183   -6.5688 N   0  0  0  0  0  0  0  0  0  0  0  0
   30.0723  -21.5480   -7.3877 C   0  0  0  0  0  0  0  0  0  0  0  0
   31.4062  -21.8017   -7.1310 C   0  0  0  0  0  0  0  0  0  0  0  0
   32.2122  -22.1139   -8.2019 C   0  0  0  0  0  0  0  0  0  0  0  0
   31.7064  -22.1728   -9.4976 C   0  0  0  0  0  0  0  0  0  0  0  0
   30.3785  -21.9150   -9.7110 C   0  0  0  0  0  0  0  0  0  0  0  0
   29.5424  -21.6010   -8.6717 C   0  0  0  0  0  0  0  0  0  0  0  0
   25.9502  -19.8320  -11.1582 C   0  0  0  0  0  0  0  0  0  0  0  0
   24.7751  -20.1477  -11.4595 O   0  0  0  0  0  0  0  0  0  0  0  0
   26.8207  -19.3598  -12.1438 N   0  0  0  0  0  0  0  0  0  0  0  0
   26.2695  -18.9396  -13.4424 C   0  0  1  0  0  0  0  0  0  0  0  0
   27.3272  -18.0720  -14.0446 C   0  0  0  0  0  0  0  0  0  0  0  0
   26.9084  -17.4741  -15.3169 C   0  0  0  0  0  0  0  0  0  0  0  0
   26.1328  -16.3334  -15.4788 C   0  0  0  0  0  0  0  0  0  0  0  0
   25.9387  -16.1306  -16.7897 N   0  0  0  0  0  0  0  0  0  0  0  0
   26.5637  -17.1026  -17.4932 C   0  0  0  0  0  0  0  0  0  0  0  0
   26.6827  -17.3381  -18.8467 C   0  0  0  0  0  0  0  0  0  0  0  0
   27.4037  -18.4074  -19.3332 C   0  0  0  0  0  0  0  0  0  0  0  0
   28.0267  -19.2712  -18.4572 C   0  0  0  0  0  0  0  0  0  0  0  0
   27.8950  -19.0191  -17.1145 C   0  0  0  0  0  0  0  0  0  0  0  0
   27.1803  -17.9584  -16.5853 C   0  0  0  0  0  0  0  0  0  0  0  0
   25.8719  -20.1092  -14.2214 C   0  0  0  0  0  0  0  0  0  0  0  0
   26.6514  -21.0968  -14.3018 O   0  0  0  0  0  0  0  0  0  0  0  0
   24.6388  -20.1680  -14.8882 N   0  0  0  0  0  0  0  0  0  0  0  0
   24.2701  -21.2956  -15.7095 C   0  0  1  0  0  0  0  0  0  0  0  0
   23.7164  -22.4384  -14.8810 C   0  0  0  0  0  0  0  0  0  0  0  0
   22.0244  -21.9498  -14.3662 S   0  0  0  0  0  0  0  0  0  0  0  0
   23.2534  -20.9376  -16.7238 C   0  0  0  0  0  0  0  0  0  0  0  0
   22.7868  -21.8245  -17.6748 O   0  0  0  0  0  0  0  0  0  0  0  0
   22.7938  -19.7681  -16.7171 O   0  0  0  0  0  0  0  0  0  0  0  0
  2  1  1  1
  3  2  1  0
  4  5  2  0
  4  3  1  0
  6  5  1  0
  7 12  2  0
  7  6  1  0
  8  7  1  0
  9 10  1  0
  9  8  2  0
 10 11  2  0
 11 12  1  0
 12  4  1  0
 13  2  1  0
 14 13  2  0
 15 13  1  0
 16 27  1  0
 16 15  1  0
 16 17  1  6
 18 17  1  0
 19 18  2  0
 20 19  1  0
 21 20  1  0
 21 26  2  0
 22 21  1  0
 23 22  2  0
 23 24  1  0
 24 25  2  0
 25 26  1  0
 26 18  1  0
 27 29  1  0
 28 27  2  0
 29 30  1  0
 30 33  1  0
 30 31  1  1
 31 32  1  0
 33 35  2  0
 33 34  1  0
M  END
$$$$
