WWC.pdb
     RDKit          3D

 35 38  0  0  1  0  0  0  0  0999 V2000
   28.8046  -22.9403  -17.5763 N   0  0  0  0  0  0  0  0  0  0  0  0
   27.9008  -21.8768  -17.2908 C   0  0  1  0  0  0  0  0  0  0  0  0
   26.7628  -21.7156  -18.2523 C   0  0  0  0  0  0  0  0  0  0  0  0
   27.1660  -21.3331  -19.6178 C   0  0  0  0  0  0  0  0  0  0  0  0
   27.6976  -22.1965  -20.5684 C   0  0  0  0  0  0  0  0  0  0  0  0
   27.9203  -21.4987  -21.6711 N   0  0  0  0  0  0  0  0  0  0  0  0
   27.5662  -20.2104  -21.5126 C   0  0  0  0  0  0  0  0  0  0  0  0
   27.6230  -19.1352  -22.3788 C   0  0  0  0  0  0  0  0  0  0  0  0
   27.1830  -17.9177  -21.9117 C   0  0  0  0  0  0  0  0  0  0  0  0
   26.6979  -17.7705  -20.6151 C   0  0  0  0  0  0  0  0  0  0  0  0
   26.6576  -18.8604  -19.7869 C   0  0  0  0  0  0  0  0  0  0  0  0
   27.0857  -20.0901  -20.2138 C   0  0  0  0  0  0  0  0  0  0  0  0
   27.2778  -22.0626  -15.9351 C   0  0  0  0  0  0  0  0  0  0  0  0
   26.9813  -23.2112  -15.5299 O   0  0  0  0  0  0  0  0  0  0  0  0
   27.0289  -20.9511  -15.1260 N   0  0  0  0  0  0  0  0  0  0  0  0
   26.4949  -21.1594  -13.7702 C   0  0  1  0  0  0  0  0  0  0  0  0
   27.2298  -20.1787  -12.9145 C   0  0  0  0  0  0  0  0  0  0  0  0
   26.7979  -20.2192  -11.5132 C   0  0  0  0  0  0  0  0  0  0  0  0
   25.5630  -19.8223  -11.0168 C   0  0  0  0  0  0  0  0  0  0  0  0
   25.5665  -19.9797   -9.6855 N   0  0  0  0  0  0  0  0  0  0  0  0
   26.7654  -20.4685   -9.2929 C   0  0  0  0  0  0  0  0  0  0  0  0
   27.2659  -20.8156   -8.0558 C   0  0  0  0  0  0  0  0  0  0  0  0
   28.5393  -21.3217   -7.9079 C   0  0  0  0  0  0  0  0  0  0  0  0
   29.3441  -21.4909   -9.0149 C   0  0  0  0  0  0  0  0  0  0  0  0
   28.8268  -21.1386  -10.2364 C   0  0  0  0  0  0  0  0  0  0  0  0
   27.5550  -20.6267  -10.4279 C   0  0  0  0  0  0  0  0  0  0  0  0
   25.0390  -21.0445  -13.7807 C   0  0  0  0  0  0  0  0  0  0  0  0
   24.4956  -20.0846  -14.3911 O   0  0  0  0  0  0  0  0  0  0  0  0
   24.2199  -21.9775  -13.1270 N   0  0  0  0  0  0  0  0  0  0  0  0
   22.7815  -21.8643  -13.1330 C   0  0  1  0  0  0  0  0  0  0  0  0
   22.1115  -23.1836  -12.8019 C   0  0  0  0  0  0  0  0  0  0  0  0
   20.3051  -22.8651  -12.7572 S   0  0  0  0  0  0  0  0  0  0  0  0
   22.2978  -20.8552  -12.1643 C   0  0  0  0  0  0  0  0  0  0  0  0
   22.7362  -20.7899  -10.8558 O   0  0  0  0  0  0  0  0  0  0  0  0
   21.4460  -20.0177  -12.5545 O   0  0  0  0  0  0  0  0  0  0  0  0
  2  1  1  6
  3  2  1  0
  4  5  2  0
  4  3  1  0
  6  5  1  0
  7 12  2  0
  7  6  1  0
  8  7  1  0
  9 10  1  0
  9  8  2  0
 10 11  2  0
 11 12  1  0
 12  4  1  0
 13  2  1  0
 14 13  2  0
 15 13  1  0
 16 27  1  0
 16 15  1  0
 16 17  1  1
 18 17  1  0
 19 18  2  0
 20 19  1  0
 21 20  1  0
 21 26  2  0
 22 21  1  0
 23 22  2  0
 23 24  1  0
 24 25  2  0
 25 26  1  0
 26 18  1  0
 27 29  1  0
 28 27  2  0
 29 30  1  0
 30 33  1  0
 30 31  1  1
 31 32  1  0
 33 35  2  0
 33 34  1  0
M  END
$$$$
