WWC.pdb
     RDKit          3D

 35 38  0  0  1  0  0  0  0  0999 V2000
   25.1099  -18.6832  -18.4161 N   0  0  0  0  0  0  0  0  0  0  0  0
   24.5429  -18.1336  -17.2304 C   0  0  1  0  0  0  0  0  0  0  0  0
   23.1550  -17.5855  -17.3676 C   0  0  0  0  0  0  0  0  0  0  0  0
   23.0539  -16.3824  -18.2135 C   0  0  0  0  0  0  0  0  0  0  0  0
   22.7908  -16.3816  -19.5783 C   0  0  0  0  0  0  0  0  0  0  0  0
   22.7617  -15.1222  -19.9853 N   0  0  0  0  0  0  0  0  0  0  0  0
   22.9915  -14.2750  -18.9656 C   0  0  0  0  0  0  0  0  0  0  0  0
   23.0577  -12.8953  -18.9228 C   0  0  0  0  0  0  0  0  0  0  0  0
   23.3202  -12.3083  -17.7061 C   0  0  0  0  0  0  0  0  0  0  0  0
   23.5126  -13.0724  -16.5584 C   0  0  0  0  0  0  0  0  0  0  0  0
   23.4389  -14.4374  -16.6420 C   0  0  0  0  0  0  0  0  0  0  0  0
   23.1790  -15.0606  -17.8343 C   0  0  0  0  0  0  0  0  0  0  0  0
   24.4752  -19.1733  -16.1463 C   0  0  0  0  0  0  0  0  0  0  0  0
   24.1036  -20.3400  -16.4144 O   0  0  0  0  0  0  0  0  0  0  0  0
   24.8273  -18.8363  -14.8369 N   0  0  0  0  0  0  0  0  0  0  0  0
   24.7067  -19.8539  -13.7801 C   0  0  1  0  0  0  0  0  0  0  0  0
   25.7611  -19.4970  -12.7828 C   0  0  0  0  0  0  0  0  0  0  0  0
   25.7990  -20.4242  -11.6468 C   0  0  0  0  0  0  0  0  0  0  0  0
   25.8796  -21.8092  -11.7123 C   0  0  0  0  0  0  0  0  0  0  0  0
   25.8551  -22.2987  -10.4645 N   0  0  0  0  0  0  0  0  0  0  0  0
   25.7618  -21.2775   -9.5819 C   0  0  0  0  0  0  0  0  0  0  0  0
   25.7187  -21.2429   -8.2041 C   0  0  0  0  0  0  0  0  0  0  0  0
   25.6412  -20.0526   -7.5136 C   0  0  0  0  0  0  0  0  0  0  0  0
   25.6050  -18.8592   -8.2037 C   0  0  0  0  0  0  0  0  0  0  0  0
   25.6482  -18.9162   -9.5743 C   0  0  0  0  0  0  0  0  0  0  0  0
   25.7253  -20.0892  -10.3054 C   0  0  0  0  0  0  0  0  0  0  0  0
   23.3346  -19.9001  -13.2817 C   0  0  0  0  0  0  0  0  0  0  0  0
   22.6740  -18.8312  -13.1797 O   0  0  0  0  0  0  0  0  0  0  0  0
   22.7242  -21.1076  -12.9101 N   0  0  0  0  0  0  0  0  0  0  0  0
   21.4020  -21.1468  -12.3337 C   0  0  1  0  0  0  0  0  0  0  0  0
   20.3991  -21.7939  -13.2688 C   0  0  0  0  0  0  0  0  0  0  0  0
   21.1225  -23.3952  -13.7973 S   0  0  0  0  0  0  0  0  0  0  0  0
   21.3736  -21.8905  -11.0544 C   0  0  0  0  0  0  0  0  0  0  0  0
   20.2715  -21.9240  -10.2218 O   0  0  0  0  0  0  0  0  0  0  0  0
   22.4045  -22.5217  -10.7111 O   0  0  0  0  0  0  0  0  0  0  0  0
  2  1  1  6
  3  2  1  0
  4  5  2  0
  4  3  1  0
  6  5  1  0
  7 12  2  0
  7  6  1  0
  8  7  1  0
  9 10  1  0
  9  8  2  0
 10 11  2  0
 11 12  1  0
 12  4  1  0
 13  2  1  0
 14 13  2  0
 15 13  1  0
 16 27  1  0
 16 15  1  0
 16 17  1  1
 18 17  1  0
 19 18  2  0
 20 19  1  0
 21 20  1  0
 21 26  2  0
 22 21  1  0
 23 22  2  0
 23 24  1  0
 24 25  2  0
 25 26  1  0
 26 18  1  0
 27 29  1  0
 28 27  2  0
 29 30  1  0
 30 33  1  0
 30 31  1  6
 31 32  1  0
 33 35  2  0
 33 34  1  0
M  END
$$$$
