WWC.pdb
     RDKit          3D

 35 38  0  0  1  0  0  0  0  0999 V2000
   24.1750  -20.3320   -8.6900 N   0  0  0  0  0  0  0  0  0  0  0  0
   25.5080  -20.1354   -9.1524 C   0  0  1  0  0  0  0  0  0  0  0  0
   26.5540  -20.9874   -8.5003 C   0  0  0  0  0  0  0  0  0  0  0  0
   26.8019  -20.6723   -7.0817 C   0  0  0  0  0  0  0  0  0  0  0  0
   25.8650  -20.7803   -6.0607 C   0  0  0  0  0  0  0  0  0  0  0  0
   26.4550  -20.4273   -4.9294 N   0  0  0  0  0  0  0  0  0  0  0  0
   27.7404  -20.0872   -5.1354 C   0  0  0  0  0  0  0  0  0  0  0  0
   28.7219  -19.6580   -4.2625 C   0  0  0  0  0  0  0  0  0  0  0  0
   29.9624  -19.3772   -4.7880 C   0  0  0  0  0  0  0  0  0  0  0  0
   30.2230  -19.5188   -6.1481 C   0  0  0  0  0  0  0  0  0  0  0  0
   29.2236  -19.9470   -6.9809 C   0  0  0  0  0  0  0  0  0  0  0  0
   27.9749  -20.2376   -6.4972 C   0  0  0  0  0  0  0  0  0  0  0  0
   25.6023  -20.4148  -10.6267 C   0  0  0  0  0  0  0  0  0  0  0  0
   24.7624  -21.1619  -11.1815 O   0  0  0  0  0  0  0  0  0  0  0  0
   26.6296  -19.8399  -11.3790 N   0  0  0  0  0  0  0  0  0  0  0  0
   26.4102  -19.5870  -12.8124 C   0  0  1  0  0  0  0  0  0  0  0  0
   27.4192  -18.5461  -13.1764 C   0  0  0  0  0  0  0  0  0  0  0  0
   27.2609  -18.0651  -14.5531 C   0  0  0  0  0  0  0  0  0  0  0  0
   26.3820  -17.0821  -14.9894 C   0  0  0  0  0  0  0  0  0  0  0  0
   26.5112  -16.9517  -16.3174 N   0  0  0  0  0  0  0  0  0  0  0  0
   27.4485  -17.8181  -16.7660 C   0  0  0  0  0  0  0  0  0  0  0  0
   27.9575  -18.0655  -18.0234 C   0  0  0  0  0  0  0  0  0  0  0  0
   28.9443  -19.0050  -18.2313 C   0  0  0  0  0  0  0  0  0  0  0  0
   29.4447  -19.7229  -17.1654 C   0  0  0  0  0  0  0  0  0  0  0  0
   28.9238  -19.4616  -15.9228 C   0  0  0  0  0  0  0  0  0  0  0  0
   27.9330  -18.5282  -15.6715 C   0  0  0  0  0  0  0  0  0  0  0  0
   26.4761  -20.8403  -13.5594 C   0  0  0  0  0  0  0  0  0  0  0  0
   27.3740  -21.6814  -13.2842 O   0  0  0  0  0  0  0  0  0  0  0  0
   25.5631  -21.1395  -14.5820 N   0  0  0  0  0  0  0  0  0  0  0  0
   25.6608  -22.3507  -15.3598 C   0  0  1  0  0  0  0  0  0  0  0  0
   24.6672  -23.3985  -14.8974 C   0  0  0  0  0  0  0  0  0  0  0  0
   25.0014  -24.9150  -15.8748 S   0  0  0  0  0  0  0  0  0  0  0  0
   25.4254  -22.1083  -16.8008 C   0  0  0  0  0  0  0  0  0  0  0  0
   26.1608  -22.7143  -17.8012 O   0  0  0  0  0  0  0  0  0  0  0  0
   24.5106  -21.3110  -17.1273 O   0  0  0  0  0  0  0  0  0  0  0  0
  2  1  1  1
  3  2  1  0
  4  5  2  0
  4  3  1  0
  6  5  1  0
  7 12  2  0
  7  6  1  0
  8  7  1  0
  9 10  1  0
  9  8  2  0
 10 11  2  0
 11 12  1  0
 12  4  1  0
 13  2  1  0
 14 13  2  0
 15 13  1  0
 16 27  1  0
 16 15  1  0
 16 17  1  6
 18 17  1  0
 19 18  2  0
 20 19  1  0
 21 20  1  0
 21 26  2  0
 22 21  1  0
 23 22  2  0
 23 24  1  0
 24 25  2  0
 25 26  1  0
 26 18  1  0
 27 29  1  0
 28 27  2  0
 29 30  1  0
 30 33  1  0
 30 31  1  1
 31 32  1  0
 33 35  2  0
 33 34  1  0
M  END
$$$$
