WWC.pdb
     RDKit          3D

 35 38  0  0  1  0  0  0  0  0999 V2000
   26.5652  -21.2378  -12.8903 N   0  0  0  0  0  0  0  0  0  0  0  0
   25.4554  -20.8881  -12.0684 C   0  0  1  0  0  0  0  0  0  0  0  0
   24.1467  -21.5144  -12.4430 C   0  0  0  0  0  0  0  0  0  0  0  0
   23.5998  -21.0612  -13.7348 C   0  0  0  0  0  0  0  0  0  0  0  0
   23.7447  -21.7288  -14.9453 C   0  0  0  0  0  0  0  0  0  0  0  0
   23.1093  -21.0299  -15.8728 N   0  0  0  0  0  0  0  0  0  0  0  0
   22.5440  -19.9265  -15.3500 C   0  0  0  0  0  0  0  0  0  0  0  0
   21.7990  -18.9192  -15.9329 C   0  0  0  0  0  0  0  0  0  0  0  0
   21.3569  -17.9019  -15.1184 C   0  0  0  0  0  0  0  0  0  0  0  0
   21.6474  -17.8843  -13.7571 C   0  0  0  0  0  0  0  0  0  0  0  0
   22.3888  -18.9012  -13.2169 C   0  0  0  0  0  0  0  0  0  0  0  0
   22.8473  -19.9328  -13.9934 C   0  0  0  0  0  0  0  0  0  0  0  0
   25.7117  -21.2807  -10.6398 C   0  0  0  0  0  0  0  0  0  0  0  0
   26.0845  -22.4452  -10.3635 O   0  0  0  0  0  0  0  0  0  0  0  0
   25.5330  -20.3441   -9.6185 N   0  0  0  0  0  0  0  0  0  0  0  0
   25.8191  -20.7383   -8.2294 C   0  0  1  0  0  0  0  0  0  0  0  0
   26.5151  -19.5581   -7.6323 C   0  0  0  0  0  0  0  0  0  0  0  0
   27.9264  -19.8269   -7.3361 C   0  0  0  0  0  0  0  0  0  0  0  0
   28.8656  -20.3659   -8.2058 C   0  0  0  0  0  0  0  0  0  0  0  0
   30.0308  -20.4891   -7.5543 N   0  0  0  0  0  0  0  0  0  0  0  0
   29.8855  -20.0467   -6.2840 C   0  0  0  0  0  0  0  0  0  0  0  0
   30.7686  -19.9458   -5.2299 C   0  0  0  0  0  0  0  0  0  0  0  0
   30.3822  -19.4327   -4.0104 C   0  0  0  0  0  0  0  0  0  0  0  0
   29.0841  -19.0058   -3.8251 C   0  0  0  0  0  0  0  0  0  0  0  0
   28.2213  -19.1158   -4.8868 C   0  0  0  0  0  0  0  0  0  0  0  0
   28.5685  -19.6253   -6.1261 C   0  0  0  0  0  0  0  0  0  0  0  0
   24.5908  -21.1681   -7.5663 C   0  0  0  0  0  0  0  0  0  0  0  0
   23.5115  -20.5612   -7.8030 O   0  0  0  0  0  0  0  0  0  0  0  0
   24.5752  -22.2448   -6.6667 N   0  0  0  0  0  0  0  0  0  0  0  0
   23.3744  -22.6377   -5.9699 C   0  0  1  0  0  0  0  0  0  0  0  0
   23.5177  -24.0034   -5.3272 C   0  0  0  0  0  0  0  0  0  0  0  0
   24.9133  -23.8884   -4.1415 S   0  0  0  0  0  0  0  0  0  0  0  0
   23.0053  -21.6743   -4.9086 C   0  0  0  0  0  0  0  0  0  0  0  0
   21.8240  -21.7479   -4.1960 O   0  0  0  0  0  0  0  0  0  0  0  0
   23.8083  -20.7443   -4.6451 O   0  0  0  0  0  0  0  0  0  0  0  0
  2  1  1  6
  3  2  1  0
  4  5  2  0
  4  3  1  0
  6  5  1  0
  7 12  2  0
  7  6  1  0
  8  7  1  0
  9 10  1  0
  9  8  2  0
 10 11  2  0
 11 12  1  0
 12  4  1  0
 13  2  1  0
 14 13  2  0
 15 13  1  0
 16 27  1  0
 16 15  1  0
 16 17  1  1
 18 17  1  0
 19 18  2  0
 20 19  1  0
 21 20  1  0
 21 26  2  0
 22 21  1  0
 23 22  2  0
 23 24  1  0
 24 25  2  0
 25 26  1  0
 26 18  1  0
 27 29  1  0
 28 27  2  0
 29 30  1  0
 30 33  1  0
 30 31  1  1
 31 32  1  0
 33 35  2  0
 33 34  1  0
M  END
$$$$
