WWC.pdb
     RDKit          3D

 35 38  0  0  1  0  0  0  0  0999 V2000
   25.5974  -20.8300  -14.5867 N   0  0  0  0  0  0  0  0  0  0  0  0
   25.6915  -19.8309  -13.5756 C   0  0  1  0  0  0  0  0  0  0  0  0
   24.6626  -18.7433  -13.6392 C   0  0  0  0  0  0  0  0  0  0  0  0
   24.6924  -17.9456  -14.8786 C   0  0  0  0  0  0  0  0  0  0  0  0
   23.6994  -17.9374  -15.8511 C   0  0  0  0  0  0  0  0  0  0  0  0
   24.0695  -17.0941  -16.8020 N   0  0  0  0  0  0  0  0  0  0  0  0
   25.2600  -16.5339  -16.5206 C   0  0  0  0  0  0  0  0  0  0  0  0
   26.0235  -15.6156  -17.2158 C   0  0  0  0  0  0  0  0  0  0  0  0
   27.2228  -15.2337  -16.6591 C   0  0  0  0  0  0  0  0  0  0  0  0
   27.6546  -15.7512  -15.4410 C   0  0  0  0  0  0  0  0  0  0  0  0
   26.8690  -16.6595  -14.7825 C   0  0  0  0  0  0  0  0  0  0  0  0
   25.6679  -17.0651  -15.3026 C   0  0  0  0  0  0  0  0  0  0  0  0
   25.5625  -20.4473  -12.2103 C   0  0  0  0  0  0  0  0  0  0  0  0
   24.8737  -21.4822  -12.0486 O   0  0  0  0  0  0  0  0  0  0  0  0
   26.2122  -19.8638  -11.1197 N   0  0  0  0  0  0  0  0  0  0  0  0
   26.0826  -20.4881   -9.7930 C   0  0  1  0  0  0  0  0  0  0  0  0
   27.2346  -19.9542   -9.0045 C   0  0  0  0  0  0  0  0  0  0  0  0
   27.2730  -20.4809   -7.6360 C   0  0  0  0  0  0  0  0  0  0  0  0
   27.0351  -21.7932   -7.2483 C   0  0  0  0  0  0  0  0  0  0  0  0
   27.1297  -21.8686   -5.9131 N   0  0  0  0  0  0  0  0  0  0  0  0
   27.4233  -20.6464   -5.4127 C   0  0  0  0  0  0  0  0  0  0  0  0
   27.6385  -20.1974   -4.1268 C   0  0  0  0  0  0  0  0  0  0  0  0
   27.9496  -18.8806   -3.8640 C   0  0  0  0  0  0  0  0  0  0  0  0
   28.0517  -17.9786   -4.9022 C   0  0  0  0  0  0  0  0  0  0  0  0
   27.8331  -18.4461   -6.1739 C   0  0  0  0  0  0  0  0  0  0  0  0
   27.5181  -19.7587   -6.4804 C   0  0  0  0  0  0  0  0  0  0  0  0
   24.7522  -20.2344   -9.2464 C   0  0  0  0  0  0  0  0  0  0  0  0
   24.1369  -19.1830   -9.5711 O   0  0  0  0  0  0  0  0  0  0  0  0
   24.1328  -21.1323   -8.3639 N   0  0  0  0  0  0  0  0  0  0  0  0
   22.8236  -20.8782   -7.8133 C   0  0  1  0  0  0  0  0  0  0  0  0
   21.7526  -20.8739   -8.8865 C   0  0  0  0  0  0  0  0  0  0  0  0
   22.1035  -22.2955   -9.9923 S   0  0  0  0  0  0  0  0  0  0  0  0
   22.4418  -21.8837   -6.7966 C   0  0  0  0  0  0  0  0  0  0  0  0
   21.2618  -21.8266   -6.0802 O   0  0  0  0  0  0  0  0  0  0  0  0
   23.2322  -22.8354   -6.5761 O   0  0  0  0  0  0  0  0  0  0  0  0
  2  1  1  6
  3  2  1  0
  4  5  2  0
  4  3  1  0
  6  5  1  0
  7 12  2  0
  7  6  1  0
  8  7  1  0
  9 10  1  0
  9  8  2  0
 10 11  2  0
 11 12  1  0
 12  4  1  0
 13  2  1  0
 14 13  2  0
 15 13  1  0
 16 27  1  0
 16 15  1  0
 16 17  1  1
 18 17  1  0
 19 18  2  0
 20 19  1  0
 21 20  1  0
 21 26  2  0
 22 21  1  0
 23 22  2  0
 23 24  1  0
 24 25  2  0
 25 26  1  0
 26 18  1  0
 27 29  1  0
 28 27  2  0
 29 30  1  0
 30 33  1  0
 30 31  1  6
 31 32  1  0
 33 35  2  0
 33 34  1  0
M  END
$$$$
