WWC.pdb
     RDKit          3D

 35 38  0  0  1  0  0  0  0  0999 V2000
   26.6334  -22.9757  -18.8360 N   0  0  0  0  0  0  0  0  0  0  0  0
   26.2093  -21.8102  -18.1353 C   0  0  1  0  0  0  0  0  0  0  0  0
   24.8416  -21.3054  -18.4820 C   0  0  0  0  0  0  0  0  0  0  0  0
   24.7082  -20.7994  -19.8602 C   0  0  0  0  0  0  0  0  0  0  0  0
   24.1635  -21.5074  -20.9251 C   0  0  0  0  0  0  0  0  0  0  0  0
   24.1998  -20.7259  -21.9930 N   0  0  0  0  0  0  0  0  0  0  0  0
   24.7404  -19.5285  -21.7027 C   0  0  0  0  0  0  0  0  0  0  0  0
   24.9790  -18.4196  -22.4919 C   0  0  0  0  0  0  0  0  0  0  0  0
   25.5620  -17.3261  -21.8933 C   0  0  0  0  0  0  0  0  0  0  0  0
   25.9006  -17.3328  -20.5430 C   0  0  0  0  0  0  0  0  0  0  0  0
   25.6480  -18.4514  -19.7943 C   0  0  0  0  0  0  0  0  0  0  0  0
   25.0683  -19.5606  -20.3522 C   0  0  0  0  0  0  0  0  0  0  0  0
   26.1979  -22.0601  -16.6527 C   0  0  0  0  0  0  0  0  0  0  0  0
   26.1491  -23.2325  -16.2116 O   0  0  0  0  0  0  0  0  0  0  0  0
   26.2414  -20.9817  -15.7654 N   0  0  0  0  0  0  0  0  0  0  0  0
   26.2980  -21.2483  -14.3189 C   0  0  1  0  0  0  0  0  0  0  0  0
   27.4154  -20.3928  -13.8154 C   0  0  0  0  0  0  0  0  0  0  0  0
   27.3035  -18.9999  -14.2617 C   0  0  0  0  0  0  0  0  0  0  0  0
   26.5805  -17.9888  -13.6421 C   0  0  0  0  0  0  0  0  0  0  0  0
   26.6985  -16.8700  -14.3714 N   0  0  0  0  0  0  0  0  0  0  0  0
   27.4774  -17.1155  -15.4500 C   0  0  0  0  0  0  0  0  0  0  0  0
   27.9124  -16.3119  -16.4826 C   0  0  0  0  0  0  0  0  0  0  0  0
   28.7341  -16.7960  -17.4777 C   0  0  0  0  0  0  0  0  0  0  0  0
   29.1394  -18.1140  -17.4533 C   0  0  0  0  0  0  0  0  0  0  0  0
   28.6944  -18.8965  -16.4172 C   0  0  0  0  0  0  0  0  0  0  0  0
   27.8688  -18.4501  -15.3998 C   0  0  0  0  0  0  0  0  0  0  0  0
   24.9877  -21.0220  -13.7148 C   0  0  0  0  0  0  0  0  0  0  0  0
   24.8313  -21.2156  -12.4789 O   0  0  0  0  0  0  0  0  0  0  0  0
   23.8889  -20.5919  -14.4739 N   0  0  0  0  0  0  0  0  0  0  0  0
   22.6095  -20.3094  -13.8696 C   0  0  1  0  0  0  0  0  0  0  0  0
   22.1422  -18.8994  -14.1738 C   0  0  0  0  0  0  0  0  0  0  0  0
   22.0402  -18.7564  -16.0003 S   0  0  0  0  0  0  0  0  0  0  0  0
   21.5577  -21.2440  -14.3289 C   0  0  0  0  0  0  0  0  0  0  0  0
   20.3096  -21.3276  -13.7422 O   0  0  0  0  0  0  0  0  0  0  0  0
   21.8158  -21.9977  -15.3007 O   0  0  0  0  0  0  0  0  0  0  0  0
  2  1  1  6
  3  2  1  0
  4  5  2  0
  4  3  1  0
  6  5  1  0
  7 12  2  0
  7  6  1  0
  8  7  1  0
  9 10  1  0
  9  8  2  0
 10 11  2  0
 11 12  1  0
 12  4  1  0
 13  2  1  0
 14 13  2  0
 15 13  1  0
 16 27  1  0
 16 15  1  0
 16 17  1  1
 18 17  1  0
 19 18  2  0
 20 19  1  0
 21 20  1  0
 21 26  2  0
 22 21  1  0
 23 22  2  0
 23 24  1  0
 24 25  2  0
 25 26  1  0
 26 18  1  0
 27 29  1  0
 28 27  2  0
 29 30  1  0
 30 33  1  0
 30 31  1  6
 31 32  1  0
 33 35  2  0
 33 34  1  0
M  END
$$$$
