WWC.pdb
     RDKit          3D

 35 38  0  0  1  0  0  0  0  0999 V2000
   24.8333  -23.1329  -16.7171 N   0  0  0  0  0  0  0  0  0  0  0  0
   24.7374  -24.4316  -16.1395 C   0  0  1  0  0  0  0  0  0  0  0  0
   23.3694  -25.0430  -16.1392 C   0  0  0  0  0  0  0  0  0  0  0  0
   22.4022  -24.3764  -15.2485 C   0  0  0  0  0  0  0  0  0  0  0  0
   22.1842  -23.0051  -15.1843 C   0  0  0  0  0  0  0  0  0  0  0  0
   21.2374  -22.7863  -14.2854 N   0  0  0  0  0  0  0  0  0  0  0  0
   20.8063  -23.9387  -13.7410 C   0  0  0  0  0  0  0  0  0  0  0  0
   19.8495  -24.1903  -12.7762 C   0  0  0  0  0  0  0  0  0  0  0  0
   19.6355  -25.5021  -12.4192 C   0  0  0  0  0  0  0  0  0  0  0  0
   20.3542  -26.5401  -13.0058 C   0  0  0  0  0  0  0  0  0  0  0  0
   21.2941  -26.2496  -13.9586 C   0  0  0  0  0  0  0  0  0  0  0  0
   21.5369  -24.9568  -14.3425 C   0  0  0  0  0  0  0  0  0  0  0  0
   25.6270  -25.4006  -16.8678 C   0  0  0  0  0  0  0  0  0  0  0  0
   25.7744  -25.3099  -18.1093 O   0  0  0  0  0  0  0  0  0  0  0  0
   26.2900  -26.4045  -16.1575 N   0  0  0  0  0  0  0  0  0  0  0  0
   27.1333  -27.3617  -16.8921 C   0  0  1  0  0  0  0  0  0  0  0  0
   28.2369  -27.7052  -15.9445 C   0  0  0  0  0  0  0  0  0  0  0  0
   29.1909  -28.6629  -16.5142 C   0  0  0  0  0  0  0  0  0  0  0  0
   29.9168  -28.5078  -17.6881 C   0  0  0  0  0  0  0  0  0  0  0  0
   30.6502  -29.6124  -17.8866 N   0  0  0  0  0  0  0  0  0  0  0  0
   30.4287  -30.4872  -16.8787 C   0  0  0  0  0  0  0  0  0  0  0  0
   30.9394  -31.7390  -16.6075 C   0  0  0  0  0  0  0  0  0  0  0  0
   30.5674  -32.4427  -15.4822 C   0  0  0  0  0  0  0  0  0  0  0  0
   29.6635  -31.8943  -14.5968 C   0  0  0  0  0  0  0  0  0  0  0  0
   29.1670  -30.6478  -14.8860 C   0  0  0  0  0  0  0  0  0  0  0  0
   29.5135  -29.9090  -16.0041 C   0  0  0  0  0  0  0  0  0  0  0  0
   26.3238  -28.4778  -17.3736 C   0  0  0  0  0  0  0  0  0  0  0  0
   25.5583  -29.0810  -16.5737 O   0  0  0  0  0  0  0  0  0  0  0  0
   26.3721  -28.9027  -18.7099 N   0  0  0  0  0  0  0  0  0  0  0  0
   25.5438  -29.9789  -19.1974 C   0  0  1  0  0  0  0  0  0  0  0  0
   25.2239  -29.8200  -20.6709 C   0  0  0  0  0  0  0  0  0  0  0  0
   26.7670  -29.2621  -21.4921 S   0  0  0  0  0  0  0  0  0  0  0  0
   26.1825  -31.3013  -19.0127 C   0  0  0  0  0  0  0  0  0  0  0  0
   25.5039  -32.4966  -19.1527 O   0  0  0  0  0  0  0  0  0  0  0  0
   27.4025  -31.3352  -18.7136 O   0  0  0  0  0  0  0  0  0  0  0  0
  2  1  1  6
  3  2  1  0
  4  5  2  0
  4  3  1  0
  6  5  1  0
  7 12  2  0
  7  6  1  0
  8  7  1  0
  9 10  1  0
  9  8  2  0
 10 11  2  0
 11 12  1  0
 12  4  1  0
 13  2  1  0
 14 13  2  0
 15 13  1  0
 16 27  1  0
 16 15  1  0
 16 17  1  1
 18 17  1  0
 19 18  2  0
 20 19  1  0
 21 20  1  0
 21 26  2  0
 22 21  1  0
 23 22  2  0
 23 24  1  0
 24 25  2  0
 25 26  1  0
 26 18  1  0
 27 29  1  0
 28 27  2  0
 29 30  1  0
 30 33  1  0
 30 31  1  6
 31 32  1  0
 33 35  2  0
 33 34  1  0
M  END
$$$$
