WWC.pdb
     RDKit          3D

 35 38  0  0  1  0  0  0  0  0999 V2000
   27.5820  -20.7967  -13.7560 N   0  0  0  0  0  0  0  0  0  0  0  0
   26.2233  -20.4330  -13.5303 C   0  0  1  0  0  0  0  0  0  0  0  0
   25.2496  -20.8741  -14.5804 C   0  0  0  0  0  0  0  0  0  0  0  0
   24.6780  -19.7776  -15.3831 C   0  0  0  0  0  0  0  0  0  0  0  0
   25.2530  -19.2374  -16.5273 C   0  0  0  0  0  0  0  0  0  0  0  0
   24.4472  -18.2883  -16.9773 N   0  0  0  0  0  0  0  0  0  0  0  0
   23.3595  -18.1614  -16.1956 C   0  0  0  0  0  0  0  0  0  0  0  0
   22.2720  -17.3125  -16.2761 C   0  0  0  0  0  0  0  0  0  0  0  0
   21.3049  -17.4233  -15.3033 C   0  0  0  0  0  0  0  0  0  0  0  0
   21.4143  -18.3547  -14.2744 C   0  0  0  0  0  0  0  0  0  0  0  0
   22.5075  -19.1783  -14.2295 C   0  0  0  0  0  0  0  0  0  0  0  0
   23.4922  -19.1002  -15.1792 C   0  0  0  0  0  0  0  0  0  0  0  0
   25.7295  -21.0132  -12.2340 C   0  0  0  0  0  0  0  0  0  0  0  0
   25.6338  -22.2554  -12.0955 O   0  0  0  0  0  0  0  0  0  0  0  0
   25.3765  -20.1642  -11.1820 N   0  0  0  0  0  0  0  0  0  0  0  0
   24.7725  -20.7413   -9.9700 C   0  0  1  0  0  0  0  0  0  0  0  0
   25.3124  -19.9191   -8.8446 C   0  0  0  0  0  0  0  0  0  0  0  0
   26.6878  -20.2846   -8.4893 C   0  0  0  0  0  0  0  0  0  0  0  0
   27.5500  -21.0804   -9.2324 C   0  0  0  0  0  0  0  0  0  0  0  0
   28.7016  -21.2090   -8.5580 N   0  0  0  0  0  0  0  0  0  0  0  0
   28.6220  -20.5214   -7.3956 C   0  0  0  0  0  0  0  0  0  0  0  0
   29.5232  -20.3235   -6.3710 C   0  0  0  0  0  0  0  0  0  0  0  0
   29.2115  -19.5493   -5.2742 C   0  0  0  0  0  0  0  0  0  0  0  0
   27.9719  -18.9514   -5.1854 C   0  0  0  0  0  0  0  0  0  0  0  0
   27.0897  -19.1618   -6.2156 C   0  0  0  0  0  0  0  0  0  0  0  0
   27.3628  -19.9319   -7.3329 C   0  0  0  0  0  0  0  0  0  0  0  0
   23.3186  -20.7798  -10.1029 C   0  0  0  0  0  0  0  0  0  0  0  0
   22.6562  -19.7123   -9.9972 O   0  0  0  0  0  0  0  0  0  0  0  0
   22.6308  -21.9782  -10.3468 N   0  0  0  0  0  0  0  0  0  0  0  0
   21.1912  -22.0266  -10.4311 C   0  0  1  0  0  0  0  0  0  0  0  0
   20.7192  -23.1044  -11.3873 C   0  0  0  0  0  0  0  0  0  0  0  0
   21.1985  -24.7150  -10.6504 S   0  0  0  0  0  0  0  0  0  0  0  0
   20.5642  -22.2826   -9.1150 C   0  0  0  0  0  0  0  0  0  0  0  0
   19.1992  -22.2430   -8.9055 O   0  0  0  0  0  0  0  0  0  0  0  0
   21.3133  -22.5489   -8.1419 O   0  0  0  0  0  0  0  0  0  0  0  0
  2  1  1  6
  3  2  1  0
  4  5  2  0
  4  3  1  0
  6  5  1  0
  7 12  2  0
  7  6  1  0
  8  7  1  0
  9 10  1  0
  9  8  2  0
 10 11  2  0
 11 12  1  0
 12  4  1  0
 13  2  1  0
 14 13  2  0
 15 13  1  0
 16 27  1  0
 16 15  1  0
 16 17  1  1
 18 17  1  0
 19 18  2  0
 20 19  1  0
 21 20  1  0
 21 26  2  0
 22 21  1  0
 23 22  2  0
 23 24  1  0
 24 25  2  0
 25 26  1  0
 26 18  1  0
 27 29  1  0
 28 27  2  0
 29 30  1  0
 30 33  1  0
 30 31  1  6
 31 32  1  0
 33 35  2  0
 33 34  1  0
M  END
$$$$
