WWC.pdb
     RDKit          3D

 35 38  0  0  1  0  0  0  0  0999 V2000
   28.2755  -21.1007   -9.8796 N   0  0  0  0  0  0  0  0  0  0  0  0
   26.8832  -21.4005   -9.9127 C   0  0  1  0  0  0  0  0  0  0  0  0
   26.0940  -20.9543   -8.7196 C   0  0  0  0  0  0  0  0  0  0  0  0
   26.7737  -19.9541   -7.8765 C   0  0  0  0  0  0  0  0  0  0  0  0
   26.7373  -18.5791   -8.0761 C   0  0  0  0  0  0  0  0  0  0  0  0
   27.4489  -18.0105   -7.1155 N   0  0  0  0  0  0  0  0  0  0  0  0
   27.9625  -18.9310   -6.2793 C   0  0  0  0  0  0  0  0  0  0  0  0
   28.7585  -18.8013   -5.1572 C   0  0  0  0  0  0  0  0  0  0  0  0
   29.1323  -19.9543   -4.5054 C   0  0  0  0  0  0  0  0  0  0  0  0
   28.7258  -21.2069   -4.9566 C   0  0  0  0  0  0  0  0  0  0  0  0
   27.9370  -21.2937   -6.0727 C   0  0  0  0  0  0  0  0  0  0  0  0
   27.5426  -20.1697   -6.7500 C   0  0  0  0  0  0  0  0  0  0  0  0
   26.2329  -20.7583  -11.1066 C   0  0  0  0  0  0  0  0  0  0  0  0
   26.6803  -19.6803  -11.5641 O   0  0  0  0  0  0  0  0  0  0  0  0
   25.1268  -21.3656  -11.7064 N   0  0  0  0  0  0  0  0  0  0  0  0
   24.6172  -20.8258  -12.9775 C   0  0  1  0  0  0  0  0  0  0  0  0
   25.5501  -21.3537  -14.0191 C   0  0  0  0  0  0  0  0  0  0  0  0
   26.7588  -20.5345  -14.1600 C   0  0  0  0  0  0  0  0  0  0  0  0
   28.0629  -20.9328  -13.8963 C   0  0  0  0  0  0  0  0  0  0  0  0
   28.8799  -19.8920  -14.1119 N   0  0  0  0  0  0  0  0  0  0  0  0
   28.1522  -18.8231  -14.5099 C   0  0  0  0  0  0  0  0  0  0  0  0
   28.5077  -17.5393  -14.8662 C   0  0  0  0  0  0  0  0  0  0  0  0
   27.5673  -16.6135  -15.2640 C   0  0  0  0  0  0  0  0  0  0  0  0
   26.2346  -16.9651  -15.3118 C   0  0  0  0  0  0  0  0  0  0  0  0
   25.9025  -18.2475  -14.9525 C   0  0  0  0  0  0  0  0  0  0  0  0
   26.8149  -19.2063  -14.5470 C   0  0  0  0  0  0  0  0  0  0  0  0
   23.2068  -21.1689  -13.1393 C   0  0  0  0  0  0  0  0  0  0  0  0
   22.6268  -20.9165  -14.2299 O   0  0  0  0  0  0  0  0  0  0  0  0
   22.4716  -21.7760  -12.1099 N   0  0  0  0  0  0  0  0  0  0  0  0
   21.0640  -22.0623  -12.2459 C   0  0  1  0  0  0  0  0  0  0  0  0
   20.4595  -22.5466  -10.9425 C   0  0  0  0  0  0  0  0  0  0  0  0
   20.8436  -21.2768   -9.6749 S   0  0  0  0  0  0  0  0  0  0  0  0
   20.2947  -20.8782  -12.6894 C   0  0  0  0  0  0  0  0  0  0  0  0
   20.8221  -19.6017  -12.7247 O   0  0  0  0  0  0  0  0  0  0  0  0
   19.1029  -21.0454  -13.0509 O   0  0  0  0  0  0  0  0  0  0  0  0
  2  1  1  1
  3  2  1  0
  4  5  2  0
  4  3  1  0
  6  5  1  0
  7 12  2  0
  7  6  1  0
  8  7  1  0
  9 10  1  0
  9  8  2  0
 10 11  2  0
 11 12  1  0
 12  4  1  0
 13  2  1  0
 14 13  2  0
 15 13  1  0
 16 27  1  0
 16 15  1  0
 16 17  1  6
 18 17  1  0
 19 18  2  0
 20 19  1  0
 21 20  1  0
 21 26  2  0
 22 21  1  0
 23 22  2  0
 23 24  1  0
 24 25  2  0
 25 26  1  0
 26 18  1  0
 27 29  1  0
 28 27  2  0
 29 30  1  0
 30 33  1  0
 30 31  1  1
 31 32  1  0
 33 35  2  0
 33 34  1  0
M  END
$$$$
