WWC.pdb
     RDKit          3D

 35 38  0  0  1  0  0  0  0  0999 V2000
   25.7299   -5.8595  -20.4541 N   0  0  0  0  0  0  0  0  0  0  0  0
   26.2698   -7.1652  -20.6359 C   0  0  1  0  0  0  0  0  0  0  0  0
   26.1959   -7.7105  -22.0296 C   0  0  0  0  0  0  0  0  0  0  0  0
   25.0552   -8.6120  -22.2735 C   0  0  0  0  0  0  0  0  0  0  0  0
   23.7438   -8.3698  -21.8818 C   0  0  0  0  0  0  0  0  0  0  0  0
   23.0043   -9.3904  -22.2866 N   0  0  0  0  0  0  0  0  0  0  0  0
   23.7493  -10.3073  -22.9305 C   0  0  0  0  0  0  0  0  0  0  0  0
   23.4099  -11.5144  -23.5113 C   0  0  0  0  0  0  0  0  0  0  0  0
   24.4180  -12.2430  -24.1001 C   0  0  0  0  0  0  0  0  0  0  0  0
   25.7325  -11.7846  -24.1124 C   0  0  0  0  0  0  0  0  0  0  0  0
   26.0286  -10.5829  -23.5261 C   0  0  0  0  0  0  0  0  0  0  0  0
   25.0537   -9.8268  -22.9298 C   0  0  0  0  0  0  0  0  0  0  0  0
   27.7237   -7.1934  -20.2537 C   0  0  0  0  0  0  0  0  0  0  0  0
   28.5345   -6.4094  -20.8010 O   0  0  0  0  0  0  0  0  0  0  0  0
   28.1710   -8.0967  -19.2863 N   0  0  0  0  0  0  0  0  0  0  0  0
   29.6107   -8.1704  -18.9887 C   0  0  1  0  0  0  0  0  0  0  0  0
   29.6855   -8.3953  -17.5129 C   0  0  0  0  0  0  0  0  0  0  0  0
   31.0661   -8.4412  -17.0194 C   0  0  0  0  0  0  0  0  0  0  0  0
   31.8256   -7.3621  -16.5862 C   0  0  0  0  0  0  0  0  0  0  0  0
   33.0447   -7.8056  -16.2476 N   0  0  0  0  0  0  0  0  0  0  0  0
   33.1082   -9.1426  -16.4442 C   0  0  0  0  0  0  0  0  0  0  0  0
   34.1133  -10.0640  -16.2386 C   0  0  0  0  0  0  0  0  0  0  0  0
   33.9292  -11.4045  -16.5010 C   0  0  0  0  0  0  0  0  0  0  0  0
   32.7156  -11.8500  -16.9812 C   0  0  0  0  0  0  0  0  0  0  0  0
   31.7292  -10.9164  -17.1793 C   0  0  0  0  0  0  0  0  0  0  0  0
   31.8733   -9.5626  -16.9295 C   0  0  0  0  0  0  0  0  0  0  0  0
   30.2463   -9.1812  -19.8296 C   0  0  0  0  0  0  0  0  0  0  0  0
   29.6558  -10.2749  -20.0408 O   0  0  0  0  0  0  0  0  0  0  0  0
   31.5041   -8.9706  -20.4146 N   0  0  0  0  0  0  0  0  0  0  0  0
   32.1698   -9.9971  -21.1795 C   0  0  1  0  0  0  0  0  0  0  0  0
   32.0812   -9.7351  -22.6703 C   0  0  0  0  0  0  0  0  0  0  0  0
   32.9997  -11.0879  -23.5027 S   0  0  0  0  0  0  0  0  0  0  0  0
   33.6019  -10.1159  -20.8251 C   0  0  0  0  0  0  0  0  0  0  0  0
   34.3034  -11.3042  -20.8939 O   0  0  0  0  0  0  0  0  0  0  0  0
   34.2069   -9.0831  -20.4427 O   0  0  0  0  0  0  0  0  0  0  0  0
  2  1  1  6
  3  2  1  0
  4  5  2  0
  4  3  1  0
  6  5  1  0
  7 12  2  0
  7  6  1  0
  8  7  1  0
  9 10  1  0
  9  8  2  0
 10 11  2  0
 11 12  1  0
 12  4  1  0
 13  2  1  0
 14 13  2  0
 15 13  1  0
 16 27  1  0
 16 15  1  0
 16 17  1  1
 18 17  1  0
 19 18  2  0
 20 19  1  0
 21 20  1  0
 21 26  2  0
 22 21  1  0
 23 22  2  0
 23 24  1  0
 24 25  2  0
 25 26  1  0
 26 18  1  0
 27 29  1  0
 28 27  2  0
 29 30  1  0
 30 33  1  0
 30 31  1  6
 31 32  1  0
 33 35  2  0
 33 34  1  0
M  END
$$$$
