WWC.pdb
     RDKit          3D

 35 38  0  0  1  0  0  0  0  0999 V2000
   24.1539  -19.2534  -11.1895 N   0  0  0  0  0  0  0  0  0  0  0  0
   24.7372  -20.5529  -11.2098 C   0  0  1  0  0  0  0  0  0  0  0  0
   25.8764  -20.7388  -12.1654 C   0  0  0  0  0  0  0  0  0  0  0  0
   25.6236  -20.2274  -13.5247 C   0  0  0  0  0  0  0  0  0  0  0  0
   26.5699  -19.6203  -14.3419 C   0  0  0  0  0  0  0  0  0  0  0  0
   25.9795  -19.3101  -15.4855 N   0  0  0  0  0  0  0  0  0  0  0  0
   24.6850  -19.6768  -15.4809 C   0  0  0  0  0  0  0  0  0  0  0  0
   23.6976  -19.5512  -16.4396 C   0  0  0  0  0  0  0  0  0  0  0  0
   22.4447  -20.0282  -16.1289 C   0  0  0  0  0  0  0  0  0  0  0  0
   22.1776  -20.6162  -14.8956 C   0  0  0  0  0  0  0  0  0  0  0  0
   23.1831  -20.7222  -13.9719 C   0  0  0  0  0  0  0  0  0  0  0  0
   24.4445  -20.2603  -14.2424 C   0  0  0  0  0  0  0  0  0  0  0  0
   25.2697  -20.9142   -9.8510 C   0  0  0  0  0  0  0  0  0  0  0  0
   26.2978  -21.6236   -9.7452 O   0  0  0  0  0  0  0  0  0  0  0  0
   24.6156  -20.4577   -8.7039 N   0  0  0  0  0  0  0  0  0  0  0  0
   24.8523  -21.1461   -7.4245 C   0  0  1  0  0  0  0  0  0  0  0  0
   25.1958  -20.0562   -6.4612 C   0  0  0  0  0  0  0  0  0  0  0  0
   26.5590  -19.5479   -6.6483 C   0  0  0  0  0  0  0  0  0  0  0  0
   27.0148  -18.7746   -7.7082 C   0  0  0  0  0  0  0  0  0  0  0  0
   28.3239  -18.5421   -7.5361 N   0  0  0  0  0  0  0  0  0  0  0  0
   28.7410  -19.1382   -6.3955 C   0  0  0  0  0  0  0  0  0  0  0  0
   29.9688  -19.1876   -5.7698 C   0  0  0  0  0  0  0  0  0  0  0  0
   30.1457  -19.8568   -4.5779 C   0  0  0  0  0  0  0  0  0  0  0  0
   29.0781  -20.4973   -3.9847 C   0  0  0  0  0  0  0  0  0  0  0  0
   27.8653  -20.4363   -4.6245 C   0  0  0  0  0  0  0  0  0  0  0  0
   27.6457  -19.7765   -5.8213 C   0  0  0  0  0  0  0  0  0  0  0  0
   23.7001  -21.9746   -7.0794 C   0  0  0  0  0  0  0  0  0  0  0  0
   22.5396  -21.5781   -7.3716 O   0  0  0  0  0  0  0  0  0  0  0  0
   23.8465  -23.2084   -6.4273 N   0  0  0  0  0  0  0  0  0  0  0  0
   22.7147  -24.0541   -6.1346 C   0  0  1  0  0  0  0  0  0  0  0  0
   23.1461  -25.4365   -5.6853 C   0  0  0  0  0  0  0  0  0  0  0  0
   24.1699  -26.1384   -7.0366 S   0  0  0  0  0  0  0  0  0  0  0  0
   21.8512  -23.4832   -5.0767 C   0  0  0  0  0  0  0  0  0  0  0  0
   20.5291  -23.8440   -4.9010 O   0  0  0  0  0  0  0  0  0  0  0  0
   22.3480  -22.6280   -4.3016 O   0  0  0  0  0  0  0  0  0  0  0  0
  2  1  1  1
  3  2  1  0
  4  5  2  0
  4  3  1  0
  6  5  1  0
  7 12  2  0
  7  6  1  0
  8  7  1  0
  9 10  1  0
  9  8  2  0
 10 11  2  0
 11 12  1  0
 12  4  1  0
 13  2  1  0
 14 13  2  0
 15 13  1  0
 16 27  1  0
 16 15  1  0
 16 17  1  1
 18 17  1  0
 19 18  2  0
 20 19  1  0
 21 20  1  0
 21 26  2  0
 22 21  1  0
 23 22  2  0
 23 24  1  0
 24 25  2  0
 25 26  1  0
 26 18  1  0
 27 29  1  0
 28 27  2  0
 29 30  1  0
 30 33  1  0
 30 31  1  1
 31 32  1  0
 33 35  2  0
 33 34  1  0
M  END
$$$$
