WWC.pdb
     RDKit          3D

 35 38  0  0  1  0  0  0  0  0999 V2000
   26.0138  -20.8302  -12.2058 N   0  0  0  0  0  0  0  0  0  0  0  0
   24.8045  -20.4340  -11.5656 C   0  0  1  0  0  0  0  0  0  0  0  0
   23.5475  -20.6760  -12.3446 C   0  0  0  0  0  0  0  0  0  0  0  0
   23.4665  -19.9387  -13.6186 C   0  0  0  0  0  0  0  0  0  0  0  0
   24.3277  -20.1041  -14.6970 C   0  0  0  0  0  0  0  0  0  0  0  0
   23.9339  -19.2857  -15.6601 N   0  0  0  0  0  0  0  0  0  0  0  0
   22.8524  -18.5779  -15.2865 C   0  0  0  0  0  0  0  0  0  0  0  0
   22.1142  -17.6190  -15.9538 C   0  0  0  0  0  0  0  0  0  0  0  0
   21.0450  -17.0628  -15.2896 C   0  0  0  0  0  0  0  0  0  0  0  0
   20.7158  -17.4490  -13.9932 C   0  0  0  0  0  0  0  0  0  0  0  0
   21.4720  -18.4028  -13.3657 C   0  0  0  0  0  0  0  0  0  0  0  0
   22.5443  -18.9815  -13.9925 C   0  0  0  0  0  0  0  0  0  0  0  0
   24.6337  -21.1630  -10.2617 C   0  0  0  0  0  0  0  0  0  0  0  0
   24.6336  -22.4163  -10.2358 O   0  0  0  0  0  0  0  0  0  0  0  0
   24.4745  -20.4403   -9.0767 N   0  0  0  0  0  0  0  0  0  0  0  0
   24.2033  -21.1685   -7.8265 C   0  0  1  0  0  0  0  0  0  0  0  0
   24.8414  -20.3429   -6.7564 C   0  0  0  0  0  0  0  0  0  0  0  0
   26.2720  -20.1217   -6.9934 C   0  0  0  0  0  0  0  0  0  0  0  0
   26.9066  -20.0656   -8.2276 C   0  0  0  0  0  0  0  0  0  0  0  0
   28.2193  -19.8830   -8.0257 N   0  0  0  0  0  0  0  0  0  0  0  0
   28.4657  -19.8167   -6.6970 C   0  0  0  0  0  0  0  0  0  0  0  0
   29.6260  -19.6257   -5.9768 C   0  0  0  0  0  0  0  0  0  0  0  0
   29.6211  -19.5748   -4.5995 C   0  0  0  0  0  0  0  0  0  0  0  0
   28.4346  -19.7166   -3.9111 C   0  0  0  0  0  0  0  0  0  0  0  0
   27.2918  -19.9064   -4.6471 C   0  0  0  0  0  0  0  0  0  0  0  0
   27.2534  -19.9644   -6.0295 C   0  0  0  0  0  0  0  0  0  0  0  0
   22.7698  -21.4111   -7.6875 C   0  0  0  0  0  0  0  0  0  0  0  0
   21.9528  -20.5006   -7.9924 O   0  0  0  0  0  0  0  0  0  0  0  0
   22.2699  -22.6365   -7.2214 N   0  0  0  0  0  0  0  0  0  0  0  0
   20.8601  -22.8495   -7.0006 C   0  0  1  0  0  0  0  0  0  0  0  0
   20.4762  -24.3056   -7.1779 C   0  0  0  0  0  0  0  0  0  0  0  0
   20.8138  -24.7342   -8.9297 S   0  0  0  0  0  0  0  0  0  0  0  0
   20.4389  -22.4320   -5.6445 C   0  0  0  0  0  0  0  0  0  0  0  0
   19.1196  -22.4069   -5.2351 O   0  0  0  0  0  0  0  0  0  0  0  0
   21.3277  -22.0836   -4.8275 O   0  0  0  0  0  0  0  0  0  0  0  0
  2  1  1  6
  3  2  1  0
  4  5  2  0
  4  3  1  0
  6  5  1  0
  7 12  2  0
  7  6  1  0
  8  7  1  0
  9 10  1  0
  9  8  2  0
 10 11  2  0
 11 12  1  0
 12  4  1  0
 13  2  1  0
 14 13  2  0
 15 13  1  0
 16 27  1  0
 16 15  1  0
 16 17  1  1
 18 17  1  0
 19 18  2  0
 20 19  1  0
 21 20  1  0
 21 26  2  0
 22 21  1  0
 23 22  2  0
 23 24  1  0
 24 25  2  0
 25 26  1  0
 26 18  1  0
 27 29  1  0
 28 27  2  0
 29 30  1  0
 30 33  1  0
 30 31  1  1
 31 32  1  0
 33 35  2  0
 33 34  1  0
M  END
$$$$
