WWC.pdb
     RDKit          3D

 35 38  0  0  1  0  0  0  0  0999 V2000
   24.8428  -21.0298   -9.8860 N   0  0  0  0  0  0  0  0  0  0  0  0
   26.0672  -20.5467  -10.4308 C   0  0  1  0  0  0  0  0  0  0  0  0
   27.3110  -20.9725   -9.7118 C   0  0  0  0  0  0  0  0  0  0  0  0
   27.4760  -20.3795   -8.3722 C   0  0  0  0  0  0  0  0  0  0  0  0
   26.6574  -19.3998   -7.8226 C   0  0  0  0  0  0  0  0  0  0  0  0
   27.1061  -19.1312   -6.6065 N   0  0  0  0  0  0  0  0  0  0  0  0
   28.1842  -19.8791   -6.3085 C   0  0  0  0  0  0  0  0  0  0  0  0
   28.9717  -19.9334   -5.1743 C   0  0  0  0  0  0  0  0  0  0  0  0
   30.0284  -20.8151   -5.1750 C   0  0  0  0  0  0  0  0  0  0  0  0
   30.2975  -21.6240   -6.2756 C   0  0  0  0  0  0  0  0  0  0  0  0
   29.4934  -21.5407   -7.3810 C   0  0  0  0  0  0  0  0  0  0  0  0
   28.4310  -20.6763   -7.4201 C   0  0  0  0  0  0  0  0  0  0  0  0
   26.2301  -21.0059  -11.8532 C   0  0  0  0  0  0  0  0  0  0  0  0
   25.9329  -22.1807  -12.1740 O   0  0  0  0  0  0  0  0  0  0  0  0
   26.7146  -20.1199  -12.8188 N   0  0  0  0  0  0  0  0  0  0  0  0
   26.5342  -20.4463  -14.2427 C   0  0  1  0  0  0  0  0  0  0  0  0
   25.5823  -19.4139  -14.7545 C   0  0  0  0  0  0  0  0  0  0  0  0
   24.2074  -19.6383  -14.2950 C   0  0  0  0  0  0  0  0  0  0  0  0
   23.5083  -18.8707  -13.3725 C   0  0  0  0  0  0  0  0  0  0  0  0
   22.2973  -19.4167  -13.1918 N   0  0  0  0  0  0  0  0  0  0  0  0
   22.1797  -20.5186  -13.9680 C   0  0  0  0  0  0  0  0  0  0  0  0
   21.1476  -21.4126  -14.1600 C   0  0  0  0  0  0  0  0  0  0  0  0
   21.2608  -22.4689  -15.0381 C   0  0  0  0  0  0  0  0  0  0  0  0
   22.4287  -22.6489  -15.7491 C   0  0  0  0  0  0  0  0  0  0  0  0
   23.4435  -21.7482  -15.5426 C   0  0  0  0  0  0  0  0  0  0  0  0
   23.3708  -20.6757  -14.6706 C   0  0  0  0  0  0  0  0  0  0  0  0
   27.8314  -20.5168  -14.9101 C   0  0  0  0  0  0  0  0  0  0  0  0
   28.6018  -19.5193  -14.8783 O   0  0  0  0  0  0  0  0  0  0  0  0
   28.2500  -21.6702  -15.5907 N   0  0  0  0  0  0  0  0  0  0  0  0
   29.5275  -21.7393  -16.2578 C   0  0  1  0  0  0  0  0  0  0  0  0
   30.1071  -23.1399  -16.2204 C   0  0  0  0  0  0  0  0  0  0  0  0
   30.3795  -23.5547  -14.4539 S   0  0  0  0  0  0  0  0  0  0  0  0
   29.4392  -21.3236  -17.6756 C   0  0  0  0  0  0  0  0  0  0  0  0
   30.5301  -21.2825  -18.5225 O   0  0  0  0  0  0  0  0  0  0  0  0
   28.3149  -20.9921  -18.1285 O   0  0  0  0  0  0  0  0  0  0  0  0
  2  1  1  1
  3  2  1  0
  4  5  2  0
  4  3  1  0
  6  5  1  0
  7 12  2  0
  7  6  1  0
  8  7  1  0
  9 10  1  0
  9  8  2  0
 10 11  2  0
 11 12  1  0
 12  4  1  0
 13  2  1  0
 14 13  2  0
 15 13  1  0
 16 27  1  0
 16 15  1  0
 16 17  1  6
 18 17  1  0
 19 18  2  0
 20 19  1  0
 21 20  1  0
 21 26  2  0
 22 21  1  0
 23 22  2  0
 23 24  1  0
 24 25  2  0
 25 26  1  0
 26 18  1  0
 27 29  1  0
 28 27  2  0
 29 30  1  0
 30 33  1  0
 30 31  1  6
 31 32  1  0
 33 35  2  0
 33 34  1  0
M  END
$$$$
