AIR.pdb
     RDKit          3D

 25 24  0  0  1  0  0  0  0  0999 V2000
   17.9263  -26.6144   -6.7735 C   0  0  0  0  0  0  0  0  0  0  0  0
   18.5460  -25.4029   -6.0883 C   0  0  2  0  0  0  0  0  0  0  0  0
   17.8372  -25.0967   -4.8831 N   0  0  0  0  0  0  0  0  0  0  0  0
   18.4819  -24.2715   -7.0497 C   0  0  0  0  0  0  0  0  0  0  0  0
   17.4488  -23.5667   -7.1485 O   0  0  0  0  0  0  0  0  0  0  0  0
   22.8387  -20.8971   -7.8594 C   0  0  0  0  0  0  0  0  0  0  0  0
   21.4708  -21.5128   -7.6776 C   0  0  0  0  0  0  0  0  0  0  0  0
   20.8580  -22.0613   -8.9094 C   0  0  2  0  0  0  0  0  0  0  0  0
   20.7063  -20.9541   -9.9390 C   0  0  0  0  0  0  0  0  0  0  0  0
   19.5644  -22.7774   -8.7898 C   0  0  2  0  0  0  0  0  0  0  0  0
   19.5819  -23.9238   -7.9087 N   0  0  0  0  0  0  0  0  0  0  0  0
   18.9668  -23.1868  -10.0665 C   0  0  0  0  0  0  0  0  0  0  0  0
   19.4400  -24.1161  -10.7497 O   0  0  0  0  0  0  0  0  0  0  0  0
   14.3741  -26.9510  -13.3384 N   0  0  0  0  0  0  0  0  0  0  0  0
   13.3069  -26.1737  -13.9000 C   0  0  0  0  0  0  0  0  0  0  0  0
   12.6978  -26.5850  -14.9613 N   0  0  0  0  0  0  0  0  0  0  0  0
   12.9254  -24.9562  -13.2866 N   0  0  0  0  0  0  0  0  0  0  0  0
   13.6542  -24.4548  -12.1461 C   0  0  0  0  0  0  0  0  0  0  0  0
   15.0439  -24.0037  -12.6121 C   0  0  0  0  0  0  0  0  0  0  0  0
   15.8476  -23.4772  -11.4582 C   0  0  0  0  0  0  0  0  0  0  0  0
   17.2338  -23.0179  -11.8118 C   0  0  2  0  0  0  0  0  0  0  0  0
   17.8247  -22.5267  -10.5559 N   0  0  0  0  0  0  0  0  0  0  0  0
   17.1341  -21.8457  -12.7037 C   0  0  0  0  0  0  0  0  0  0  0  0
   17.0093  -20.6998  -12.2258 O   0  0  0  0  0  0  0  0  0  0  0  0
   17.1738  -21.9702  -14.0795 O   0  0  0  0  0  0  0  0  0  0  0  0
  2  1  1  6
  2  3  1  0
  4  2  1  0
  4 11  1  0
  5  4  2  0
  7  6  1  0
  8  9  1  6
  8  7  1  0
 10 11  1  1
 10  8  1  0
 12 10  1  0
 13 12  2  0
 15 14  1  0
 16 15  2  0
 17 15  1  0
 18 17  1  0
 19 20  1  0
 19 18  1  0
 21 20  1  1
 21 22  1  0
 21 23  1  0
 22 12  1  0
 23 25  1  0
 24 23  2  0
M  END
$$$$
