AIR.pdb
     RDKit          3D

 25 24  0  0  1  0  0  0  0  0999 V2000
   27.2408  -19.3379  -16.7184 C   0  0  0  0  0  0  0  0  0  0  0  0
   28.1968  -20.1576  -15.8610 C   0  0  2  0  0  0  0  0  0  0  0  0
   28.8280  -21.1712  -16.6503 N   0  0  0  0  0  0  0  0  0  0  0  0
   27.3987  -20.7561  -14.7593 C   0  0  0  0  0  0  0  0  0  0  0  0
   26.6762  -21.7620  -14.9589 O   0  0  0  0  0  0  0  0  0  0  0  0
   29.3223  -20.7585   -9.5446 C   0  0  0  0  0  0  0  0  0  0  0  0
   28.6193  -21.2207  -10.7999 C   0  0  0  0  0  0  0  0  0  0  0  0
   27.2579  -20.6720  -10.9978 C   0  0  2  0  0  0  0  0  0  0  0  0
   26.3133  -21.2708   -9.9691 C   0  0  0  0  0  0  0  0  0  0  0  0
   26.6391  -20.7995  -12.3400 C   0  0  2  0  0  0  0  0  0  0  0  0
   27.4079  -20.2262  -13.4222 N   0  0  0  0  0  0  0  0  0  0  0  0
   25.2638  -20.2954  -12.4344 C   0  0  0  0  0  0  0  0  0  0  0  0
   24.9885  -19.0911  -12.2668 O   0  0  0  0  0  0  0  0  0  0  0  0
   18.6066  -21.2415  -17.1403 N   0  0  0  0  0  0  0  0  0  0  0  0
   18.4876  -19.9453  -16.5366 C   0  0  0  0  0  0  0  0  0  0  0  0
   17.3584  -19.3202  -16.5668 N   0  0  0  0  0  0  0  0  0  0  0  0
   19.6113  -19.3559  -15.9091 N   0  0  0  0  0  0  0  0  0  0  0  0
   20.8773  -20.0487  -15.8811 C   0  0  0  0  0  0  0  0  0  0  0  0
   20.9602  -20.8661  -14.5862 C   0  0  0  0  0  0  0  0  0  0  0  0
   22.3883  -21.1814  -14.2459 C   0  0  0  0  0  0  0  0  0  0  0  0
   22.8716  -20.5981  -12.9484 C   0  0  2  0  0  0  0  0  0  0  0  0
   24.2061  -21.1776  -12.7221 N   0  0  0  0  0  0  0  0  0  0  0  0
   22.0168  -21.0983  -11.8537 C   0  0  0  0  0  0  0  0  0  0  0  0
   22.3362  -22.1283  -11.2258 O   0  0  0  0  0  0  0  0  0  0  0  0
   20.8488  -20.4562  -11.4883 O   0  0  0  0  0  0  0  0  0  0  0  0
  2  1  1  6
  2  3  1  0
  4  2  1  0
  4 11  1  0
  5  4  2  0
  7  6  1  0
  8  9  1  1
  8  7  1  0
 10 11  1  6
 10  8  1  0
 12 10  1  0
 13 12  2  0
 15 14  1  0
 16 15  2  0
 17 15  1  0
 18 17  1  0
 19 20  1  0
 19 18  1  0
 21 20  1  6
 21 22  1  0
 21 23  1  0
 22 12  1  0
 23 25  1  0
 24 23  2  0
M  END
$$$$
