AIR.pdb
     RDKit          3D

 25 24  0  0  1  0  0  0  0  0999 V2000
   25.0597  -23.0352  -14.3755 C   0  0  0  0  0  0  0  0  0  0  0  0
   24.0861  -22.7598  -15.5146 C   0  0  2  0  0  0  0  0  0  0  0  0
   24.5834  -21.7100  -16.3508 N   0  0  0  0  0  0  0  0  0  0  0  0
   22.7847  -22.3859  -14.9020 C   0  0  0  0  0  0  0  0  0  0  0  0
   22.6333  -21.2766  -14.3361 O   0  0  0  0  0  0  0  0  0  0  0  0
   19.7835  -21.7625  -17.7566 C   0  0  0  0  0  0  0  0  0  0  0  0
   19.5097  -21.4300  -16.3082 C   0  0  0  0  0  0  0  0  0  0  0  0
   19.3147  -22.5988  -15.4196 C   0  0  2  0  0  0  0  0  0  0  0  0
   17.9647  -22.4943  -14.7299 C   0  0  0  0  0  0  0  0  0  0  0  0
   20.3496  -22.8806  -14.3948 C   0  0  2  0  0  0  0  0  0  0  0  0
   21.6418  -23.2589  -14.9219 N   0  0  0  0  0  0  0  0  0  0  0  0
   19.9592  -23.8670  -13.3803 C   0  0  0  0  0  0  0  0  0  0  0  0
   20.0156  -25.0937  -13.5954 O   0  0  0  0  0  0  0  0  0  0  0  0
   16.6130  -25.7970   -6.2945 N   0  0  0  0  0  0  0  0  0  0  0  0
   17.9583  -25.7272   -5.8004 C   0  0  0  0  0  0  0  0  0  0  0  0
   18.3394  -26.5154   -4.8518 N   0  0  0  0  0  0  0  0  0  0  0  0
   18.8640  -24.7921   -6.3565 N   0  0  0  0  0  0  0  0  0  0  0  0
   18.4328  -23.8899   -7.3975 C   0  0  0  0  0  0  0  0  0  0  0  0
   18.4155  -24.6504   -8.7291 C   0  0  0  0  0  0  0  0  0  0  0  0
   18.9500  -23.7924   -9.8393 C   0  0  0  0  0  0  0  0  0  0  0  0
   19.0266  -24.4687  -11.1788 C   0  0  2  0  0  0  0  0  0  0  0  0
   19.5045  -23.4411  -12.1188 N   0  0  0  0  0  0  0  0  0  0  0  0
   17.6603  -24.8188  -11.6144 C   0  0  0  0  0  0  0  0  0  0  0  0
   17.3317  -26.0141  -11.7573 O   0  0  0  0  0  0  0  0  0  0  0  0
   16.7080  -23.8522  -11.8770 O   0  0  0  0  0  0  0  0  0  0  0  0
  2  1  1  1
  2  3  1  0
  4  2  1  0
  4 11  1  0
  5  4  2  0
  7  6  1  0
  8  9  1  1
  8  7  1  0
 10 11  1  6
 10  8  1  0
 12 10  1  0
 13 12  2  0
 15 14  1  0
 16 15  2  0
 17 15  1  0
 18 17  1  0
 19 20  1  0
 19 18  1  0
 21 20  1  1
 21 22  1  0
 21 23  1  0
 22 12  1  0
 23 25  1  0
 24 23  2  0
M  END
$$$$
