AIR.pdb
     RDKit          3D

 25 24  0  0  1  0  0  0  0  0999 V2000
   26.8380  -22.3446  -12.0102 C   0  0  0  0  0  0  0  0  0  0  0  0
   27.6139  -21.0379  -12.1174 C   0  0  2  0  0  0  0  0  0  0  0  0
   27.9743  -20.5654  -10.8153 N   0  0  0  0  0  0  0  0  0  0  0  0
   26.7396  -20.0618  -12.8184 C   0  0  0  0  0  0  0  0  0  0  0  0
   25.9715  -19.3062  -12.1758 O   0  0  0  0  0  0  0  0  0  0  0  0
   28.6499  -16.9191  -16.8369 C   0  0  0  0  0  0  0  0  0  0  0  0
   27.8592  -17.4511  -15.6642 C   0  0  0  0  0  0  0  0  0  0  0  0
   26.6367  -18.2077  -16.0200 C   0  0  2  0  0  0  0  0  0  0  0  0
   25.6486  -17.2828  -16.7109 C   0  0  0  0  0  0  0  0  0  0  0  0
   25.9267  -18.9394  -14.9424 C   0  0  2  0  0  0  0  0  0  0  0  0
   26.7231  -19.9282  -14.2504 N   0  0  0  0  0  0  0  0  0  0  0  0
   24.6657  -19.5687  -15.3529 C   0  0  0  0  0  0  0  0  0  0  0  0
   24.6349  -20.6790  -15.9190 O   0  0  0  0  0  0  0  0  0  0  0  0
   17.7709  -22.5536  -14.3822 N   0  0  0  0  0  0  0  0  0  0  0  0
   18.6660  -23.4950  -13.7729 C   0  0  0  0  0  0  0  0  0  0  0  0
   18.4255  -24.7607  -13.8546 N   0  0  0  0  0  0  0  0  0  0  0  0
   19.8117  -23.0309  -13.0829 N   0  0  0  0  0  0  0  0  0  0  0  0
   20.0428  -21.6151  -12.9235 C   0  0  0  0  0  0  0  0  0  0  0  0
   20.4406  -21.0273  -14.2830 C   0  0  0  0  0  0  0  0  0  0  0  0
   21.7650  -20.3255  -14.1927 C   0  0  0  0  0  0  0  0  0  0  0  0
   22.2034  -19.6398  -15.4557 C   0  0  2  0  0  0  0  0  0  0  0  0
   23.4408  -18.9201  -15.1111 N   0  0  0  0  0  0  0  0  0  0  0  0
   21.2108  -18.6043  -15.8047 C   0  0  0  0  0  0  0  0  0  0  0  0
   21.3752  -17.4242  -15.4341 O   0  0  0  0  0  0  0  0  0  0  0  0
   20.0796  -18.8972  -16.5426 O   0  0  0  0  0  0  0  0  0  0  0  0
  2  1  1  1
  2  3  1  0
  4  2  1  0
  4 11  1  0
  5  4  2  0
  7  6  1  0
  8  9  1  1
  8  7  1  0
 10 11  1  6
 10  8  1  0
 12 10  1  0
 13 12  2  0
 15 14  1  0
 16 15  2  0
 17 15  1  0
 18 17  1  0
 19 20  1  0
 19 18  1  0
 21 20  1  1
 21 22  1  0
 21 23  1  0
 22 12  1  0
 23 25  1  0
 24 23  2  0
M  END
$$$$
