AIR.pdb
     RDKit          3D

 25 24  0  0  1  0  0  0  0  0999 V2000
   18.8695  -30.0019   -2.6783 C   0  0  0  0  0  0  0  0  0  0  0  0
   18.0774  -29.6715   -1.4194 C   0  0  2  0  0  0  0  0  0  0  0  0
   17.5989  -30.8718   -0.8038 N   0  0  0  0  0  0  0  0  0  0  0  0
   16.9506  -28.7916   -1.8253 C   0  0  0  0  0  0  0  0  0  0  0  0
   15.9188  -29.2684   -2.3561 O   0  0  0  0  0  0  0  0  0  0  0  0
   13.5515  -24.4935    0.5839 C   0  0  0  0  0  0  0  0  0  0  0  0
   14.0182  -25.1226   -0.7084 C   0  0  0  0  0  0  0  0  0  0  0  0
   15.2057  -25.9997   -0.5891 C   0  0  2  0  0  0  0  0  0  0  0  0
   16.2797  -25.2948    0.2224 C   0  0  0  0  0  0  0  0  0  0  0  0
   15.8194  -26.5218   -1.8347 C   0  0  2  0  0  0  0  0  0  0  0  0
   16.9764  -27.3660   -1.6364 N   0  0  0  0  0  0  0  0  0  0  0  0
   16.1614  -25.4975   -2.8289 C   0  0  0  0  0  0  0  0  0  0  0  0
   17.2144  -24.8339   -2.7585 O   0  0  0  0  0  0  0  0  0  0  0  0
   18.8056  -26.0180  -10.4887 N   0  0  0  0  0  0  0  0  0  0  0  0
   18.5197  -24.6127  -10.4426 C   0  0  0  0  0  0  0  0  0  0  0  0
   18.9223  -23.8403  -11.3955 N   0  0  0  0  0  0  0  0  0  0  0  0
   17.7958  -24.0778   -9.3500 N   0  0  0  0  0  0  0  0  0  0  0  0
   17.2207  -24.9540   -8.3576 C   0  0  0  0  0  0  0  0  0  0  0  0
   16.6474  -24.0983   -7.2214 C   0  0  0  0  0  0  0  0  0  0  0  0
   16.1995  -24.9624   -6.0779 C   0  0  0  0  0  0  0  0  0  0  0  0
   15.6936  -24.2108   -4.8793 C   0  0  2  0  0  0  0  0  0  0  0  0
   15.2915  -25.2379   -3.9039 N   0  0  0  0  0  0  0  0  0  0  0  0
   14.4580  -23.4946   -5.2529 C   0  0  0  0  0  0  0  0  0  0  0  0
   13.3530  -24.0711   -5.1915 O   0  0  0  0  0  0  0  0  0  0  0  0
   14.4769  -22.1799   -5.6785 O   0  0  0  0  0  0  0  0  0  0  0  0
  2  1  1  6
  2  3  1  0
  4  2  1  0
  4 11  1  0
  5  4  2  0
  7  6  1  0
  8  9  1  6
  8  7  1  0
 10 11  1  1
 10  8  1  0
 12 10  1  0
 13 12  2  0
 15 14  1  0
 16 15  2  0
 17 15  1  0
 18 17  1  0
 19 20  1  0
 19 18  1  0
 21 20  1  6
 21 22  1  0
 21 23  1  0
 22 12  1  0
 23 25  1  0
 24 23  2  0
M  END
$$$$
