AIR.pdb
     RDKit          3D

 25 24  0  0  1  0  0  0  0  0999 V2000
   27.9887  -19.1669  -15.4151 C   0  0  0  0  0  0  0  0  0  0  0  0
   28.2980  -20.3916  -14.5633 C   0  0  2  0  0  0  0  0  0  0  0  0
   28.7525  -21.4692  -15.3884 N   0  0  0  0  0  0  0  0  0  0  0  0
   27.0490  -20.7566  -13.8454 C   0  0  0  0  0  0  0  0  0  0  0  0
   26.2512  -21.5973  -14.3255 O   0  0  0  0  0  0  0  0  0  0  0  0
   26.8625  -19.6833   -8.3231 C   0  0  0  0  0  0  0  0  0  0  0  0
   26.6691  -20.5351   -9.5562 C   0  0  0  0  0  0  0  0  0  0  0  0
   25.5153  -20.1606  -10.4059 C   0  0  2  0  0  0  0  0  0  0  0  0
   24.2286  -20.6470   -9.7604 C   0  0  0  0  0  0  0  0  0  0  0  0
   25.5233  -20.5875  -11.8266 C   0  0  2  0  0  0  0  0  0  0  0  0
   26.6877  -20.1774  -12.5794 N   0  0  0  0  0  0  0  0  0  0  0  0
   24.3263  -20.2124  -12.5890 C   0  0  0  0  0  0  0  0  0  0  0  0
   24.0473  -19.0232  -12.8381 O   0  0  0  0  0  0  0  0  0  0  0  0
   24.0541  -25.9253  -15.9622 N   0  0  0  0  0  0  0  0  0  0  0  0
   22.6538  -25.6862  -16.1638 C   0  0  0  0  0  0  0  0  0  0  0  0
   21.8076  -26.6514  -16.0261 N   0  0  0  0  0  0  0  0  0  0  0  0
   22.2049  -24.3900  -16.5139 N   0  0  0  0  0  0  0  0  0  0  0  0
   23.1323  -23.2849  -16.5589 C   0  0  0  0  0  0  0  0  0  0  0  0
   23.1906  -22.6370  -15.1701 C   0  0  0  0  0  0  0  0  0  0  0  0
   22.2290  -21.4875  -15.0780 C   0  0  0  0  0  0  0  0  0  0  0  0
   22.2284  -20.7692  -13.7583 C   0  0  2  0  0  0  0  0  0  0  0  0
   23.4514  -21.2064  -13.0646 N   0  0  0  0  0  0  0  0  0  0  0  0
   21.0984  -21.2639  -12.9474 C   0  0  0  0  0  0  0  0  0  0  0  0
   21.2893  -22.1129  -12.0531 O   0  0  0  0  0  0  0  0  0  0  0  0
   19.8067  -20.8137  -13.1444 O   0  0  0  0  0  0  0  0  0  0  0  0
  2  1  1  6
  2  3  1  0
  4  2  1  0
  4 11  1  0
  5  4  2  0
  7  6  1  0
  8  9  1  1
  8  7  1  0
 10 11  1  6
 10  8  1  0
 12 10  1  0
 13 12  2  0
 15 14  1  0
 16 15  2  0
 17 15  1  0
 18 17  1  0
 19 20  1  0
 19 18  1  0
 21 20  1  6
 21 22  1  0
 21 23  1  0
 22 12  1  0
 23 25  1  0
 24 23  2  0
M  END
$$$$
