AIR.pdb
     RDKit          3D

 25 24  0  0  1  0  0  0  0  0999 V2000
   14.6862   -0.9002  -10.9840 C   0  0  0  0  0  0  0  0  0  0  0  0
   14.3500   -1.1583   -9.5206 C   0  0  2  0  0  0  0  0  0  0  0  0
   14.8403   -0.0913   -8.7023 N   0  0  0  0  0  0  0  0  0  0  0  0
   14.9767   -2.4526   -9.1455 C   0  0  0  0  0  0  0  0  0  0  0  0
   16.1776   -2.5078   -8.7868 O   0  0  0  0  0  0  0  0  0  0  0  0
   15.9819   -6.8855   -6.6650 C   0  0  0  0  0  0  0  0  0  0  0  0
   14.5107   -6.8427   -7.0073 C   0  0  0  0  0  0  0  0  0  0  0  0
   14.0301   -5.5560   -7.5614 C   0  0  2  0  0  0  0  0  0  0  0  0
   12.5827   -5.7001   -8.0012 C   0  0  0  0  0  0  0  0  0  0  0  0
   14.8017   -4.9369   -8.6669 C   0  0  2  0  0  0  0  0  0  0  0  0
   14.2555   -3.6967   -9.1711 N   0  0  0  0  0  0  0  0  0  0  0  0
   15.0621   -5.8232   -9.8076 C   0  0  0  0  0  0  0  0  0  0  0  0
   14.1458   -6.2409  -10.5425 O   0  0  0  0  0  0  0  0  0  0  0  0
   15.1473   -4.3877  -15.5093 N   0  0  0  0  0  0  0  0  0  0  0  0
   15.8257   -5.2732  -16.4118 C   0  0  0  0  0  0  0  0  0  0  0  0
   15.3220   -5.5201  -17.5745 N   0  0  0  0  0  0  0  0  0  0  0  0
   17.0471   -5.8737  -16.0227 N   0  0  0  0  0  0  0  0  0  0  0  0
   17.5770   -5.6558  -14.6978 C   0  0  0  0  0  0  0  0  0  0  0  0
   16.7837   -6.5146  -13.7053 C   0  0  0  0  0  0  0  0  0  0  0  0
   17.2648   -6.2873  -12.3012 C   0  0  0  0  0  0  0  0  0  0  0  0
   16.5782   -7.1201  -11.2560 C   0  0  2  0  0  0  0  0  0  0  0  0
   16.3771   -6.2276  -10.1023 N   0  0  0  0  0  0  0  0  0  0  0  0
   17.5064   -8.1743  -10.8016 C   0  0  0  0  0  0  0  0  0  0  0  0
   18.1245   -8.0477   -9.7250 O   0  0  0  0  0  0  0  0  0  0  0  0
   17.7235   -9.3228  -11.5390 O   0  0  0  0  0  0  0  0  0  0  0  0
  2  1  1  6
  2  3  1  0
  4  2  1  0
  4 11  1  0
  5  4  2  0
  7  6  1  0
  8  9  1  6
  8  7  1  0
 10 11  1  6
 10  8  1  0
 12 10  1  0
 13 12  2  0
 15 14  1  0
 16 15  2  0
 17 15  1  0
 18 17  1  0
 19 20  1  0
 19 18  1  0
 21 20  1  6
 21 22  1  0
 21 23  1  0
 22 12  1  0
 23 25  1  0
 24 23  2  0
M  END
$$$$
