AIR.pdb
     RDKit          3D

 25 24  0  0  1  0  0  0  0  0999 V2000
   21.5365  -12.0520  -16.1621 C   0  0  0  0  0  0  0  0  0  0  0  0
   23.0008  -12.1903  -16.5595 C   0  0  2  0  0  0  0  0  0  0  0  0
   23.2680  -11.4331  -17.7444 N   0  0  0  0  0  0  0  0  0  0  0  0
   23.2643  -13.6366  -16.7771 C   0  0  0  0  0  0  0  0  0  0  0  0
   22.8558  -14.2182  -17.8109 O   0  0  0  0  0  0  0  0  0  0  0  0
   28.1780  -16.0916  -16.4148 C   0  0  0  0  0  0  0  0  0  0  0  0
   26.7771  -15.5740  -16.6456 C   0  0  0  0  0  0  0  0  0  0  0  0
   25.7295  -16.1942  -15.8021 C   0  0  2  0  0  0  0  0  0  0  0  0
   25.8603  -17.7071  -15.8582 C   0  0  0  0  0  0  0  0  0  0  0  0
   24.3148  -15.8311  -16.0613 C   0  0  2  0  0  0  0  0  0  0  0  0
   23.9907  -14.4408  -15.8315 N   0  0  0  0  0  0  0  0  0  0  0  0
   23.3278  -16.6570  -15.3554 C   0  0  0  0  0  0  0  0  0  0  0  0
   23.2042  -16.6237  -14.1153 O   0  0  0  0  0  0  0  0  0  0  0  0
   17.0848  -16.5797  -19.7032 N   0  0  0  0  0  0  0  0  0  0  0  0
   17.1768  -15.5629  -18.6951 C   0  0  0  0  0  0  0  0  0  0  0  0
   16.6810  -14.3910  -18.9130 N   0  0  0  0  0  0  0  0  0  0  0  0
   17.8122  -15.8495  -17.4630 N   0  0  0  0  0  0  0  0  0  0  0  0
   18.3417  -17.1673  -17.2051 C   0  0  0  0  0  0  0  0  0  0  0  0
   19.5931  -17.0300  -16.3293 C   0  0  0  0  0  0  0  0  0  0  0  0
   20.2659  -18.3603  -16.1496 C   0  0  0  0  0  0  0  0  0  0  0  0
   21.5156  -18.3282  -15.3161 C   0  0  2  0  0  0  0  0  0  0  0  0
   22.4831  -17.5203  -16.0771 N   0  0  0  0  0  0  0  0  0  0  0  0
   22.0804  -19.6906  -15.2518 C   0  0  0  0  0  0  0  0  0  0  0  0
   21.6930  -20.4921  -14.3774 O   0  0  0  0  0  0  0  0  0  0  0  0
   23.0443  -20.1237  -16.1424 O   0  0  0  0  0  0  0  0  0  0  0  0
  2  1  1  6
  2  3  1  0
  4  2  1  0
  4 11  1  0
  5  4  2  0
  7  6  1  0
  8  9  1  6
  8  7  1  0
 10 11  1  1
 10  8  1  0
 12 10  1  0
 13 12  2  0
 15 14  1  0
 16 15  2  0
 17 15  1  0
 18 17  1  0
 19 20  1  0
 19 18  1  0
 21 20  1  6
 21 22  1  0
 21 23  1  0
 22 12  1  0
 23 25  1  0
 24 23  2  0
M  END
$$$$
