AIR.pdb
     RDKit          3D

 25 24  0  0  1  0  0  0  0  0999 V2000
   28.0878  -18.9393  -14.7373 C   0  0  0  0  0  0  0  0  0  0  0  0
   28.5812  -20.1488  -13.9531 C   0  0  2  0  0  0  0  0  0  0  0  0
   29.1741  -21.1061  -14.8367 N   0  0  0  0  0  0  0  0  0  0  0  0
   27.4075  -20.7259  -13.2475 C   0  0  0  0  0  0  0  0  0  0  0  0
   26.7691  -21.6881  -13.7378 O   0  0  0  0  0  0  0  0  0  0  0  0
   27.0161  -19.9100   -7.7191 C   0  0  0  0  0  0  0  0  0  0  0  0
   26.8980  -20.7497   -8.9698 C   0  0  0  0  0  0  0  0  0  0  0  0
   25.7394  -20.4307   -9.8356 C   0  0  2  0  0  0  0  0  0  0  0  0
   24.4805  -21.0469   -9.2488 C   0  0  0  0  0  0  0  0  0  0  0  0
   25.8179  -20.7912  -11.2725 C   0  0  2  0  0  0  0  0  0  0  0  0
   26.9426  -20.2239  -11.9824 N   0  0  0  0  0  0  0  0  0  0  0  0
   24.5998  -20.5157  -12.0438 C   0  0  0  0  0  0  0  0  0  0  0  0
   24.2498  -19.3549  -12.3339 O   0  0  0  0  0  0  0  0  0  0  0  0
   20.6822  -26.4509  -15.6321 N   0  0  0  0  0  0  0  0  0  0  0  0
   19.5746  -25.5413  -15.7003 C   0  0  0  0  0  0  0  0  0  0  0  0
   18.3699  -25.9782  -15.5440 N   0  0  0  0  0  0  0  0  0  0  0  0
   19.8079  -24.1657  -15.9392 N   0  0  0  0  0  0  0  0  0  0  0  0
   21.1566  -23.6554  -16.0033 C   0  0  0  0  0  0  0  0  0  0  0  0
   21.2473  -22.3988  -15.1289 C   0  0  0  0  0  0  0  0  0  0  0  0
   22.4448  -22.4641  -14.2253 C   0  0  0  0  0  0  0  0  0  0  0  0
   22.6503  -21.2523  -13.3612 C   0  0  2  0  0  0  0  0  0  0  0  0
   23.7856  -21.5765  -12.4814 N   0  0  0  0  0  0  0  0  0  0  0  0
   21.4789  -21.0937  -12.4769 C   0  0  0  0  0  0  0  0  0  0  0  0
   21.4168  -21.7153  -11.3967 O   0  0  0  0  0  0  0  0  0  0  0  0
   20.4232  -20.2648  -12.8059 O   0  0  0  0  0  0  0  0  0  0  0  0
  2  1  1  6
  2  3  1  0
  4  2  1  0
  4 11  1  0
  5  4  2  0
  7  6  1  0
  8  9  1  1
  8  7  1  0
 10 11  1  6
 10  8  1  0
 12 10  1  0
 13 12  2  0
 15 14  1  0
 16 15  2  0
 17 15  1  0
 18 17  1  0
 19 20  1  0
 19 18  1  0
 21 20  1  6
 21 22  1  0
 21 23  1  0
 22 12  1  0
 23 25  1  0
 24 23  2  0
M  END
$$$$
