AIR.pdb
     RDKit          3D

 25 24  0  0  1  0  0  0  0  0999 V2000
   20.1773  -21.3616  -14.3472 C   0  0  0  0  0  0  0  0  0  0  0  0
   20.4865  -20.9478  -12.9139 C   0  0  2  0  0  0  0  0  0  0  0  0
   19.5800  -19.9267  -12.4847 N   0  0  0  0  0  0  0  0  0  0  0  0
   21.8910  -20.4628  -12.8879 C   0  0  0  0  0  0  0  0  0  0  0  0
   22.1745  -19.2890  -13.2279 O   0  0  0  0  0  0  0  0  0  0  0  0
   24.9600  -21.0708   -8.4998 C   0  0  0  0  0  0  0  0  0  0  0  0
   24.3649  -20.5685   -9.7948 C   0  0  0  0  0  0  0  0  0  0  0  0
   24.9782  -21.1191  -11.0253 C   0  0  2  0  0  0  0  0  0  0  0  0
   26.4410  -20.7128  -11.0907 C   0  0  0  0  0  0  0  0  0  0  0  0
   24.3406  -20.8049  -12.3274 C   0  0  2  0  0  0  0  0  0  0  0  0
   22.9891  -21.2964  -12.4782 N   0  0  0  0  0  0  0  0  0  0  0  0
   25.1138  -21.2138  -13.5062 C   0  0  0  0  0  0  0  0  0  0  0  0
   25.2811  -22.4129  -13.8033 O   0  0  0  0  0  0  0  0  0  0  0  0
   27.5330  -19.5726  -20.8300 N   0  0  0  0  0  0  0  0  0  0  0  0
   26.6120  -18.5870  -20.3412 C   0  0  0  0  0  0  0  0  0  0  0  0
   25.6206  -18.2089  -21.0765 N   0  0  0  0  0  0  0  0  0  0  0  0
   26.7947  -18.0319  -19.0517 N   0  0  0  0  0  0  0  0  0  0  0  0
   27.9336  -18.4105  -18.2499 C   0  0  0  0  0  0  0  0  0  0  0  0
   27.6135  -19.7292  -17.5355 C   0  0  0  0  0  0  0  0  0  0  0  0
   26.8115  -19.4796  -16.2908 C   0  0  0  0  0  0  0  0  0  0  0  0
   26.4793  -20.7108  -15.4964 C   0  0  2  0  0  0  0  0  0  0  0  0
   25.6934  -20.2423  -14.3427 N   0  0  0  0  0  0  0  0  0  0  0  0
   27.7275  -21.2708  -14.9416 C   0  0  0  0  0  0  0  0  0  0  0  0
   28.2498  -20.7627  -13.9286 O   0  0  0  0  0  0  0  0  0  0  0  0
   28.3556  -22.3609  -15.5134 O   0  0  0  0  0  0  0  0  0  0  0  0
  2  1  1  6
  2  3  1  0
  4  2  1  0
  4 11  1  0
  5  4  2  0
  7  6  1  0
  8  9  1  6
  8  7  1  0
 10 11  1  1
 10  8  1  0
 12 10  1  0
 13 12  2  0
 15 14  1  0
 16 15  2  0
 17 15  1  0
 18 17  1  0
 19 20  1  0
 19 18  1  0
 21 20  1  6
 21 22  1  0
 21 23  1  0
 22 12  1  0
 23 25  1  0
 24 23  2  0
M  END
$$$$
