AIR.pdb
     RDKit          3D

 25 24  0  0  1  0  0  0  0  0999 V2000
   27.3459  -18.8156  -15.1375 C   0  0  0  0  0  0  0  0  0  0  0  0
   28.0165  -19.9444  -14.3646 C   0  0  2  0  0  0  0  0  0  0  0  0
   28.6688  -20.8450  -15.2658 N   0  0  0  0  0  0  0  0  0  0  0  0
   26.9562  -20.6382  -13.5880 C   0  0  0  0  0  0  0  0  0  0  0  0
   26.4256  -21.6904  -14.0181 O   0  0  0  0  0  0  0  0  0  0  0  0
   27.1094  -20.2238   -8.0494 C   0  0  0  0  0  0  0  0  0  0  0  0
   26.8999  -20.9188   -9.3748 C   0  0  0  0  0  0  0  0  0  0  0  0
   25.6192  -20.6110  -10.0520 C   0  0  2  0  0  0  0  0  0  0  0  0
   24.4854  -21.3434   -9.3541 C   0  0  0  0  0  0  0  0  0  0  0  0
   25.5192  -20.8631  -11.5105 C   0  0  2  0  0  0  0  0  0  0  0  0
   26.4843  -20.1522  -12.3192 N   0  0  0  0  0  0  0  0  0  0  0  0
   24.1860  -20.6422  -12.0835 C   0  0  0  0  0  0  0  0  0  0  0  0
   23.6688  -19.5091  -12.1360 O   0  0  0  0  0  0  0  0  0  0  0  0
   17.6421  -24.3083  -15.1180 N   0  0  0  0  0  0  0  0  0  0  0  0
   17.4448  -22.9258  -15.4475 C   0  0  0  0  0  0  0  0  0  0  0  0
   16.2498  -22.4418  -15.5127 N   0  0  0  0  0  0  0  0  0  0  0  0
   18.5638  -22.0965  -15.7003 N   0  0  0  0  0  0  0  0  0  0  0  0
   19.9018  -22.6306  -15.6116 C   0  0  0  0  0  0  0  0  0  0  0  0
   20.2477  -22.8432  -14.1327 C   0  0  0  0  0  0  0  0  0  0  0  0
   21.7245  -22.6956  -13.9047 C   0  0  0  0  0  0  0  0  0  0  0  0
   22.1297  -21.4406  -13.1848 C   0  0  2  0  0  0  0  0  0  0  0  0
   23.4491  -21.7255  -12.5964 N   0  0  0  0  0  0  0  0  0  0  0  0
   21.2121  -21.2259  -12.0485 C   0  0  0  0  0  0  0  0  0  0  0  0
   21.3496  -21.8814  -10.9956 O   0  0  0  0  0  0  0  0  0  0  0  0
   20.1821  -20.3063  -12.1061 O   0  0  0  0  0  0  0  0  0  0  0  0
  2  1  1  6
  2  3  1  0
  4  2  1  0
  4 11  1  0
  5  4  2  0
  7  6  1  0
  8  9  1  1
  8  7  1  0
 10 11  1  6
 10  8  1  0
 12 10  1  0
 13 12  2  0
 15 14  1  0
 16 15  2  0
 17 15  1  0
 18 17  1  0
 19 20  1  0
 19 18  1  0
 21 20  1  1
 21 22  1  0
 21 23  1  0
 22 12  1  0
 23 25  1  0
 24 23  2  0
M  END
$$$$
