AIR.pdb
     RDKit          3D

 25 24  0  0  1  0  0  0  0  0999 V2000
   21.7605  -22.9704   -8.5332 C   0  0  0  0  0  0  0  0  0  0  0  0
   22.0932  -21.8403   -7.5670 C   0  0  2  0  0  0  0  0  0  0  0  0
   20.9234  -21.0644   -7.2876 N   0  0  0  0  0  0  0  0  0  0  0  0
   23.1471  -21.0096   -8.2057 C   0  0  0  0  0  0  0  0  0  0  0  0
   22.8460  -20.0567   -8.9641 O   0  0  0  0  0  0  0  0  0  0  0  0
   28.1163  -19.7241   -5.7375 C   0  0  0  0  0  0  0  0  0  0  0  0
   26.8000  -19.7469   -6.4793 C   0  0  0  0  0  0  0  0  0  0  0  0
   26.8480  -20.3555   -7.8288 C   0  0  2  0  0  0  0  0  0  0  0  0
   27.8890  -19.6400   -8.6732 C   0  0  0  0  0  0  0  0  0  0  0  0
   25.5863  -20.4411   -8.6043 C   0  0  2  0  0  0  0  0  0  0  0  0
   24.5503  -21.2453   -7.9955 N   0  0  0  0  0  0  0  0  0  0  0  0
   25.7479  -20.8754   -9.9971 C   0  0  0  0  0  0  0  0  0  0  0  0
   25.8752  -22.0770  -10.3040 O   0  0  0  0  0  0  0  0  0  0  0  0
   27.8716  -18.9512  -16.9282 N   0  0  0  0  0  0  0  0  0  0  0  0
   26.6210  -19.0164  -17.6285 C   0  0  0  0  0  0  0  0  0  0  0  0
   26.5813  -19.4648  -18.8385 N   0  0  0  0  0  0  0  0  0  0  0  0
   25.4333  -18.5877  -16.9885 N   0  0  0  0  0  0  0  0  0  0  0  0
   25.4433  -18.2469  -15.5860 C   0  0  0  0  0  0  0  0  0  0  0  0
   25.7100  -19.5202  -14.7740 C   0  0  0  0  0  0  0  0  0  0  0  0
   25.5853  -19.2492  -13.3023 C   0  0  0  0  0  0  0  0  0  0  0  0
   25.8955  -20.4221  -12.4160 C   0  0  2  0  0  0  0  0  0  0  0  0
   25.7624  -19.9266  -11.0359 N   0  0  0  0  0  0  0  0  0  0  0  0
   27.3164  -20.7847  -12.5858 C   0  0  0  0  0  0  0  0  0  0  0  0
   28.2047  -20.1504  -11.9810 O   0  0  0  0  0  0  0  0  0  0  0  0
   27.7113  -21.8229  -13.4080 O   0  0  0  0  0  0  0  0  0  0  0  0
  2  1  1  6
  2  3  1  0
  4  2  1  0
  4 11  1  0
  5  4  2  0
  7  6  1  0
  8  9  1  6
  8  7  1  0
 10 11  1  1
 10  8  1  0
 12 10  1  0
 13 12  2  0
 15 14  1  0
 16 15  2  0
 17 15  1  0
 18 17  1  0
 19 20  1  0
 19 18  1  0
 21 20  1  6
 21 22  1  0
 21 23  1  0
 22 12  1  0
 23 25  1  0
 24 23  2  0
M  END
$$$$
