PRP.pdb
     RDKit          3D

 26 27  0  0  1  0  0  0  0  0999 V2000
    8.6823  -15.0091   19.6541 N   0  0  0  0  0  0  0  0  0  0  0  0
    8.6010  -14.7720   18.2402 C   0  0  0  0  0  0  0  0  0  0  0  0
    7.9690  -13.4161   18.0362 C   0  0  0  0  0  0  0  0  0  0  0  0
    7.3101  -13.1766   19.4010 C   0  0  0  0  0  0  0  0  0  0  0  0
    8.2998  -13.7851   20.3268 C   0  0  1  0  0  0  0  0  0  0  0  0
    7.8305  -14.0352   21.6938 C   0  0  0  0  0  0  0  0  0  0  0  0
    7.4418  -13.0574   22.4189 O   0  0  0  0  0  0  0  0  0  0  0  0
    9.1029  -20.6949   27.0320 N   0  0  0  0  0  0  0  0  0  0  0  0
    7.7792  -20.3760   26.6320 C   0  0  0  0  0  0  0  0  0  0  0  0
    6.7717  -20.8985   27.2723 N   0  0  0  0  0  0  0  0  0  0  0  0
    7.4751  -19.5060   25.5561 N   0  0  0  0  0  0  0  0  0  0  0  0
    6.2612  -18.7255   25.4956 C   0  0  0  0  0  0  0  0  0  0  0  0
    6.5174  -17.2538   25.2905 C   0  0  0  0  0  0  0  0  0  0  0  0
    7.0318  -17.0282   23.8941 C   0  0  0  0  0  0  0  0  0  0  0  0
    7.3155  -15.5587   23.6283 C   0  0  2  0  0  0  0  0  0  0  0  0
    7.7658  -15.3123   22.3057 N   0  0  0  0  0  0  0  0  0  0  0  0
    8.1618  -15.0669   24.7317 C   0  0  0  0  0  0  0  0  0  0  0  0
    9.3850  -15.4871   24.6461 O   0  0  0  0  0  0  0  0  0  0  0  0
    5.7936  -20.7419   27.0101 N   0  0  0  0  0  0  0  0  0  0  0  0
    7.8496  -14.2546   25.8046 C   0  0  0  0  0  0  0  0  0  0  0  0
    6.5975  -13.6904   26.2123 C   0  0  0  0  0  0  0  0  0  0  0  0
    7.0575  -12.2714   26.6046 C   0  0  0  0  0  0  0  0  0  0  0  0
    8.2472  -12.5816   27.4561 C   0  0  2  0  0  0  0  0  0  0  0  0
    8.8324  -13.7895   26.8034 C   0  0  0  0  0  0  0  0  0  0  0  0
    9.1218  -14.8813   27.7672 O   0  0  0  0  0  0  0  0  0  0  0  0
    8.3872  -16.0351   27.6950 O   0  0  0  0  0  0  0  0  0  0  0  0
  1  2  1  0
  3  2  1  0
  4  5  1  0
  4  3  1  0
  5  1  1  0
  5  6  1  1
  6  7  2  0
  8  9  1  0
  9 11  1  0
 10  9  2  0
 11 12  1  0
 12 13  1  0
 15 14  1  1
 14 13  1  0
 15 16  1  0
 16  6  1  0
 17 15  1  0
 18 17  2  0
 19 20  1  0
 19 17  1  0
 21 20  1  0
 22 23  1  0
 22 21  1  0
 23 19  1  0
 24 25  1  0
 23 24  1  1
 26 24  2  0
M  END
$$$$
