PRP.pdb
     RDKit          3D

 26 27  0  0  1  0  0  0  0  0999 V2000
    8.6217  -15.0942   19.5560 N   0  0  0  0  0  0  0  0  0  0  0  0
    8.5936  -14.8277   18.1453 C   0  0  0  0  0  0  0  0  0  0  0  0
    8.1722  -13.3902   17.9565 C   0  0  0  0  0  0  0  0  0  0  0  0
    7.5397  -13.0748   19.3184 C   0  0  0  0  0  0  0  0  0  0  0  0
    8.4170  -13.8366   20.2441 C   0  0  1  0  0  0  0  0  0  0  0  0
    7.8993  -14.0335   21.6023 C   0  0  0  0  0  0  0  0  0  0  0  0
    7.7040  -13.0221   22.3585 O   0  0  0  0  0  0  0  0  0  0  0  0
    9.0424  -19.5411   25.2159 N   0  0  0  0  0  0  0  0  0  0  0  0
    8.4015  -19.4102   26.4753 C   0  0  0  0  0  0  0  0  0  0  0  0
    9.0623  -19.6874   27.5637 N   0  0  0  0  0  0  0  0  0  0  0  0
    7.0580  -18.9878   26.6294 N   0  0  0  0  0  0  0  0  0  0  0  0
    6.2191  -18.6139   25.5145 C   0  0  0  0  0  0  0  0  0  0  0  0
    6.2946  -17.1436   25.1884 C   0  0  0  0  0  0  0  0  0  0  0  0
    6.9845  -16.9627   23.8631 C   0  0  0  0  0  0  0  0  0  0  0  0
    7.1455  -15.4936   23.5072 C   0  0  2  0  0  0  0  0  0  0  0  0
    7.5830  -15.2922   22.1728 N   0  0  0  0  0  0  0  0  0  0  0  0
    7.9395  -14.8651   24.5797 C   0  0  0  0  0  0  0  0  0  0  0  0
    9.2059  -15.1211   24.4765 O   0  0  0  0  0  0  0  0  0  0  0  0
    8.6464  -19.6576   28.4997 N   0  0  0  0  0  0  0  0  0  0  0  0
    7.5422  -14.0739   25.6400 C   0  0  0  0  0  0  0  0  0  0  0  0
    6.2327  -13.6909   26.0769 C   0  0  0  0  0  0  0  0  0  0  0  0
    6.4851  -12.2068   26.4124 C   0  0  0  0  0  0  0  0  0  0  0  0
    7.7344  -12.3064   27.2286 C   0  0  2  0  0  0  0  0  0  0  0  0
    8.4744  -13.4337   26.5891 C   0  0  0  0  0  0  0  0  0  0  0  0
    8.9560  -14.4371   27.5719 O   0  0  0  0  0  0  0  0  0  0  0  0
    9.9422  -14.0764   28.4515 O   0  0  0  0  0  0  0  0  0  0  0  0
  1  2  1  0
  3  2  1  0
  4  5  1  0
  4  3  1  0
  5  1  1  0
  5  6  1  1
  6  7  2  0
  8  9  1  0
  9 11  1  0
 10  9  2  0
 11 12  1  0
 12 13  1  0
 15 14  1  1
 14 13  1  0
 15 16  1  0
 16  6  1  0
 17 15  1  0
 18 17  2  0
 19 20  1  0
 19 17  1  0
 21 20  1  0
 22 23  1  0
 22 21  1  0
 23 19  1  0
 24 25  1  0
 23 24  1  1
 26 24  2  0
M  END
$$$$
