PRP.pdb
     RDKit          3D

 26 27  0  0  1  0  0  0  0  0999 V2000
    8.2416  -21.0429   19.1499 N   0  0  0  0  0  0  0  0  0  0  0  0
    7.5788  -22.3166   19.1447 C   0  0  0  0  0  0  0  0  0  0  0  0
    6.3028  -22.1750   19.9392 C   0  0  0  0  0  0  0  0  0  0  0  0
    6.5789  -20.8936   20.7367 C   0  0  0  0  0  0  0  0  0  0  0  0
    7.3414  -20.0824   19.7532 C   0  0  1  0  0  0  0  0  0  0  0  0
    8.0597  -18.9244   20.2959 C   0  0  0  0  0  0  0  0  0  0  0  0
    9.2998  -18.7671   20.0310 O   0  0  0  0  0  0  0  0  0  0  0  0
    9.5862  -12.7989   18.4688 N   0  0  0  0  0  0  0  0  0  0  0  0
    8.8131  -12.4764   19.6143 C   0  0  0  0  0  0  0  0  0  0  0  0
    8.8103  -11.2531   20.0633 N   0  0  0  0  0  0  0  0  0  0  0  0
    8.0255  -13.4208   20.3180 N   0  0  0  0  0  0  0  0  0  0  0  0
    7.2895  -14.4755   19.6607 C   0  0  0  0  0  0  0  0  0  0  0  0
    6.5014  -15.3299   20.6212 C   0  0  0  0  0  0  0  0  0  0  0  0
    7.3303  -15.5915   21.8499 C   0  0  0  0  0  0  0  0  0  0  0  0
    8.1845  -16.8398   21.6986 C   0  0  2  0  0  0  0  0  0  0  0  0
    7.4797  -17.9255   21.1180 N   0  0  0  0  0  0  0  0  0  0  0  0
    8.8459  -17.0806   22.9948 C   0  0  0  0  0  0  0  0  0  0  0  0
    8.1295  -17.8107   23.7909 O   0  0  0  0  0  0  0  0  0  0  0  0
    8.3171  -10.9651   20.9140 N   0  0  0  0  0  0  0  0  0  0  0  0
   10.0726  -16.6543   23.4656 C   0  0  0  0  0  0  0  0  0  0  0  0
   11.0047  -15.7141   22.9184 C   0  0  0  0  0  0  0  0  0  0  0  0
   12.3274  -16.4611   23.1852 C   0  0  0  0  0  0  0  0  0  0  0  0
   12.1506  -16.8534   24.6176 C   0  0  2  0  0  0  0  0  0  0  0  0
   10.6876  -17.1301   24.7207 C   0  0  0  0  0  0  0  0  0  0  0  0
   10.0534  -16.4504   25.8783 O   0  0  0  0  0  0  0  0  0  0  0  0
   10.2967  -16.9305   27.1379 O   0  0  0  0  0  0  0  0  0  0  0  0
  1  2  1  0
  3  2  1  0
  4  5  1  0
  4  3  1  0
  5  1  1  0
  5  6  1  1
  6  7  2  0
  8  9  1  0
  9 11  1  0
 10  9  2  0
 11 12  1  0
 12 13  1  0
 15 14  1  1
 14 13  1  0
 15 16  1  0
 16  6  1  0
 17 15  1  0
 18 17  2  0
 19 20  1  0
 19 17  1  0
 21 20  1  0
 22 23  1  0
 22 21  1  0
 23 19  1  0
 24 25  1  0
 23 24  1  1
 26 24  2  0
M  END
$$$$
