PRP.pdb
     RDKit          3D

 26 27  0  0  1  0  0  0  0  0999 V2000
    8.8477  -14.9411   19.6857 N   0  0  0  0  0  0  0  0  0  0  0  0
    8.8677  -14.7715   18.2600 C   0  0  0  0  0  0  0  0  0  0  0  0
    8.2255  -13.4418   17.9453 C   0  0  0  0  0  0  0  0  0  0  0  0
    7.4616  -13.1553   19.2448 C   0  0  0  0  0  0  0  0  0  0  0  0
    8.3913  -13.6968   20.2691 C   0  0  1  0  0  0  0  0  0  0  0  0
    7.8262  -13.8945   21.6081 C   0  0  0  0  0  0  0  0  0  0  0  0
    7.3848  -12.8905   22.2639 O   0  0  0  0  0  0  0  0  0  0  0  0
    7.9980  -20.8700   26.7378 N   0  0  0  0  0  0  0  0  0  0  0  0
    6.9331  -20.6922   25.8166 C   0  0  0  0  0  0  0  0  0  0  0  0
    6.3702  -21.7363   25.2770 N   0  0  0  0  0  0  0  0  0  0  0  0
    6.4308  -19.4232   25.4368 N   0  0  0  0  0  0  0  0  0  0  0  0
    6.9542  -18.1824   25.9592 C   0  0  0  0  0  0  0  0  0  0  0  0
    6.3741  -16.9671   25.2809 C   0  0  0  0  0  0  0  0  0  0  0  0
    7.0112  -16.8011   23.9274 C   0  0  0  0  0  0  0  0  0  0  0  0
    7.2202  -15.3365   23.5784 C   0  0  2  0  0  0  0  0  0  0  0  0
    7.7205  -15.1466   22.2645 N   0  0  0  0  0  0  0  0  0  0  0  0
    7.9797  -14.7242   24.6846 C   0  0  0  0  0  0  0  0  0  0  0  0
    9.2329  -15.0549   24.6708 O   0  0  0  0  0  0  0  0  0  0  0  0
    5.5669  -21.6803   24.6434 N   0  0  0  0  0  0  0  0  0  0  0  0
    7.5627  -13.8817   25.6969 C   0  0  0  0  0  0  0  0  0  0  0  0
    6.2642  -13.3550   25.9947 C   0  0  0  0  0  0  0  0  0  0  0  0
    6.6393  -11.9024   26.3528 C   0  0  0  0  0  0  0  0  0  0  0  0
    7.7795  -12.1254   27.2946 C   0  0  2  0  0  0  0  0  0  0  0  0
    8.4556  -13.3334   26.7371 C   0  0  0  0  0  0  0  0  0  0  0  0
    8.7218  -14.3704   27.7659 O   0  0  0  0  0  0  0  0  0  0  0  0
    9.7140  -14.1477   28.6837 O   0  0  0  0  0  0  0  0  0  0  0  0
  1  2  1  0
  3  2  1  0
  4  5  1  0
  4  3  1  0
  5  1  1  0
  5  6  1  1
  6  7  2  0
  8  9  1  0
  9 11  1  0
 10  9  2  0
 11 12  1  0
 12 13  1  0
 15 14  1  1
 14 13  1  0
 15 16  1  0
 16  6  1  0
 17 15  1  0
 18 17  2  0
 19 20  1  0
 19 17  1  0
 21 20  1  0
 22 23  1  0
 22 21  1  0
 23 19  1  0
 24 25  1  0
 23 24  1  1
 26 24  2  0
M  END
$$$$
