PRP.pdb
     RDKit          3D

 26 27  0  0  1  0  0  0  0  0999 V2000
    8.8394  -14.7373   19.4441 N   0  0  0  0  0  0  0  0  0  0  0  0
    8.7407  -14.4640   18.0379 C   0  0  0  0  0  0  0  0  0  0  0  0
    7.8981  -13.2227   17.8681 C   0  0  0  0  0  0  0  0  0  0  0  0
    7.1894  -13.1451   19.2268 C   0  0  0  0  0  0  0  0  0  0  0  0
    8.2521  -13.6181   20.1508 C   0  0  1  0  0  0  0  0  0  0  0  0
    7.8106  -13.9924   21.4986 C   0  0  0  0  0  0  0  0  0  0  0  0
    7.2146  -13.1319   22.2316 O   0  0  0  0  0  0  0  0  0  0  0  0
    8.1784  -21.6363   26.8492 N   0  0  0  0  0  0  0  0  0  0  0  0
    7.0319  -20.8014   26.9008 C   0  0  0  0  0  0  0  0  0  0  0  0
    5.8963  -21.2950   27.3068 N   0  0  0  0  0  0  0  0  0  0  0  0
    7.0425  -19.4340   26.5307 N   0  0  0  0  0  0  0  0  0  0  0  0
    7.1207  -18.9921   25.1577 C   0  0  0  0  0  0  0  0  0  0  0  0
    7.1844  -17.4914   25.0253 C   0  0  0  0  0  0  0  0  0  0  0  0
    7.6463  -17.1335   23.6383 C   0  0  0  0  0  0  0  0  0  0  0  0
    7.5716  -15.6360   23.3880 C   0  0  2  0  0  0  0  0  0  0  0  0
    7.9911  -15.2714   22.0828 N   0  0  0  0  0  0  0  0  0  0  0  0
    8.2360  -14.9663   24.5220 C   0  0  0  0  0  0  0  0  0  0  0  0
    9.5255  -15.0925   24.4883 O   0  0  0  0  0  0  0  0  0  0  0  0
    5.0419  -20.7381   27.4060 N   0  0  0  0  0  0  0  0  0  0  0  0
    7.7013  -14.2520   25.5766 C   0  0  0  0  0  0  0  0  0  0  0  0
    6.3392  -13.9500   25.9015 C   0  0  0  0  0  0  0  0  0  0  0  0
    6.4867  -12.4770   26.3344 C   0  0  0  0  0  0  0  0  0  0  0  0
    7.6554  -12.5676   27.2633 C   0  0  2  0  0  0  0  0  0  0  0  0
    8.5066  -13.6254   26.6438 C   0  0  0  0  0  0  0  0  0  0  0  0
    8.9392  -14.6596   27.6174 O   0  0  0  0  0  0  0  0  0  0  0  0
    9.9597  -14.3639   28.4819 O   0  0  0  0  0  0  0  0  0  0  0  0
  1  2  1  0
  3  2  1  0
  4  5  1  0
  4  3  1  0
  5  1  1  0
  5  6  1  1
  6  7  2  0
  8  9  1  0
  9 11  1  0
 10  9  2  0
 11 12  1  0
 12 13  1  0
 15 14  1  1
 14 13  1  0
 15 16  1  0
 16  6  1  0
 17 15  1  0
 18 17  2  0
 19 20  1  0
 19 17  1  0
 21 20  1  0
 22 23  1  0
 22 21  1  0
 23 19  1  0
 24 25  1  0
 23 24  1  1
 26 24  2  0
M  END
$$$$
