PRP.pdb
     RDKit          3D

 26 27  0  0  1  0  0  0  0  0999 V2000
    8.5814  -14.7953   19.5205 N   0  0  0  0  0  0  0  0  0  0  0  0
    8.4275  -14.4614   18.1325 C   0  0  0  0  0  0  0  0  0  0  0  0
    7.9226  -13.0407   18.0538 C   0  0  0  0  0  0  0  0  0  0  0  0
    7.3864  -12.8268   19.4755 C   0  0  0  0  0  0  0  0  0  0  0  0
    8.3711  -13.5858   20.2886 C   0  0  1  0  0  0  0  0  0  0  0  0
    7.9740  -13.8766   21.6704 C   0  0  0  0  0  0  0  0  0  0  0  0
    7.8156  -12.9170   22.4992 O   0  0  0  0  0  0  0  0  0  0  0  0
    9.5380  -18.9671   27.3682 N   0  0  0  0  0  0  0  0  0  0  0  0
    8.1710  -19.2025   27.0682 C   0  0  0  0  0  0  0  0  0  0  0  0
    7.3132  -19.3301   28.0407 N   0  0  0  0  0  0  0  0  0  0  0  0
    7.6669  -19.3102   25.7486 N   0  0  0  0  0  0  0  0  0  0  0  0
    6.4244  -18.7040   25.3301 C   0  0  0  0  0  0  0  0  0  0  0  0
    6.5374  -17.2150   25.1207 C   0  0  0  0  0  0  0  0  0  0  0  0
    7.1758  -16.9475   23.7842 C   0  0  0  0  0  0  0  0  0  0  0  0
    7.3027  -15.4581   23.5079 C   0  0  2  0  0  0  0  0  0  0  0  0
    7.7401  -15.1754   22.1883 N   0  0  0  0  0  0  0  0  0  0  0  0
    8.0773  -14.8690   24.6163 C   0  0  0  0  0  0  0  0  0  0  0  0
    9.3402  -15.1522   24.5464 O   0  0  0  0  0  0  0  0  0  0  0  0
    6.3008  -19.3934   27.8959 N   0  0  0  0  0  0  0  0  0  0  0  0
    7.6655  -14.0893   25.6797 C   0  0  0  0  0  0  0  0  0  0  0  0
    6.3538  -13.6696   26.0739 C   0  0  0  0  0  0  0  0  0  0  0  0
    6.6446  -12.2040   26.4565 C   0  0  0  0  0  0  0  0  0  0  0  0
    7.8555  -12.3684   27.3188 C   0  0  2  0  0  0  0  0  0  0  0  0
    8.5806  -13.5062   26.6809 C   0  0  0  0  0  0  0  0  0  0  0  0
    8.9862  -14.5495   27.6564 O   0  0  0  0  0  0  0  0  0  0  0  0
    9.9799  -14.2610   28.5538 O   0  0  0  0  0  0  0  0  0  0  0  0
  1  2  1  0
  3  2  1  0
  4  5  1  0
  4  3  1  0
  5  1  1  0
  5  6  1  1
  6  7  2  0
  8  9  1  0
  9 11  1  0
 10  9  2  0
 11 12  1  0
 12 13  1  0
 15 14  1  1
 14 13  1  0
 15 16  1  0
 16  6  1  0
 17 15  1  0
 18 17  2  0
 19 20  1  0
 19 17  1  0
 21 20  1  0
 22 23  1  0
 22 21  1  0
 23 19  1  0
 24 25  1  0
 23 24  1  1
 26 24  2  0
M  END
$$$$
