PRP.pdb
     RDKit          3D

 26 27  0  0  1  0  0  0  0  0999 V2000
    8.7825  -15.1843   19.9212 N   0  0  0  0  0  0  0  0  0  0  0  0
    8.7392  -15.1067   18.4881 C   0  0  0  0  0  0  0  0  0  0  0  0
    8.0106  -13.8373   18.1174 C   0  0  0  0  0  0  0  0  0  0  0  0
    7.2809  -13.5093   19.4267 C   0  0  0  0  0  0  0  0  0  0  0  0
    8.2779  -13.9316   20.4438 C   0  0  1  0  0  0  0  0  0  0  0  0
    7.7756  -14.0727   21.8147 C   0  0  0  0  0  0  0  0  0  0  0  0
    7.1553  -13.1006   22.3652 O   0  0  0  0  0  0  0  0  0  0  0  0
    7.7554  -20.5704   21.9182 N   0  0  0  0  0  0  0  0  0  0  0  0
    6.3488  -20.6095   22.1028 C   0  0  0  0  0  0  0  0  0  0  0  0
    5.6140  -21.3134   21.2889 N   0  0  0  0  0  0  0  0  0  0  0  0
    5.6761  -19.9164   23.1393 N   0  0  0  0  0  0  0  0  0  0  0  0
    6.3496  -19.0239   24.0536 C   0  0  0  0  0  0  0  0  0  0  0  0
    6.4042  -17.6019   23.5549 C   0  0  0  0  0  0  0  0  0  0  0  0
    7.3650  -16.8134   24.4038 C   0  0  0  0  0  0  0  0  0  0  0  0
    7.4618  -15.3660   23.9495 C   0  0  2  0  0  0  0  0  0  0  0  0
    7.9209  -15.2348   22.6136 N   0  0  0  0  0  0  0  0  0  0  0  0
    8.1975  -14.6256   24.9916 C   0  0  0  0  0  0  0  0  0  0  0  0
    9.4829  -14.7396   24.8695 O   0  0  0  0  0  0  0  0  0  0  0  0
    4.6030  -21.4351   21.4030 N   0  0  0  0  0  0  0  0  0  0  0  0
    7.7311  -13.8582   26.0413 C   0  0  0  0  0  0  0  0  0  0  0  0
    6.3956  -13.6289   26.5061 C   0  0  0  0  0  0  0  0  0  0  0  0
    6.4675  -12.1153   26.7935 C   0  0  0  0  0  0  0  0  0  0  0  0
    7.7400  -12.0326   27.5749 C   0  0  2  0  0  0  0  0  0  0  0  0
    8.5995  -13.0775   26.9448 C   0  0  0  0  0  0  0  0  0  0  0  0
    9.2289  -13.9820   27.9399 O   0  0  0  0  0  0  0  0  0  0  0  0
   10.2427  -13.4962   28.7226 O   0  0  0  0  0  0  0  0  0  0  0  0
  1  2  1  0
  3  2  1  0
  4  5  1  0
  4  3  1  0
  5  1  1  0
  5  6  1  1
  6  7  2  0
  8  9  1  0
  9 11  1  0
 10  9  2  0
 11 12  1  0
 12 13  1  0
 15 14  1  1
 14 13  1  0
 15 16  1  0
 16  6  1  0
 17 15  1  0
 18 17  2  0
 19 20  1  0
 19 17  1  0
 21 20  1  0
 22 23  1  0
 22 21  1  0
 23 19  1  0
 24 25  1  0
 23 24  1  1
 26 24  2  0
M  END
$$$$
