PRP.pdb
     RDKit          3D

 26 27  0  0  1  0  0  0  0  0999 V2000
    8.8239  -14.7145   19.5206 N   0  0  0  0  0  0  0  0  0  0  0  0
    8.7729  -14.4068   18.1190 C   0  0  0  0  0  0  0  0  0  0  0  0
    8.1351  -13.0466   17.9691 C   0  0  0  0  0  0  0  0  0  0  0  0
    7.4435  -12.8808   19.3287 C   0  0  0  0  0  0  0  0  0  0  0  0
    8.4167  -13.5287   20.2452 C   0  0  1  0  0  0  0  0  0  0  0  0
    7.9185  -13.8507   21.5867 C   0  0  0  0  0  0  0  0  0  0  0  0
    7.5189  -12.9120   22.3562 O   0  0  0  0  0  0  0  0  0  0  0  0
    5.6728  -20.4805   27.4278 N   0  0  0  0  0  0  0  0  0  0  0  0
    6.8936  -19.7906   27.6465 C   0  0  0  0  0  0  0  0  0  0  0  0
    7.4352  -19.8046   28.8316 N   0  0  0  0  0  0  0  0  0  0  0  0
    7.5775  -19.0708   26.6360 N   0  0  0  0  0  0  0  0  0  0  0  0
    6.9821  -18.7506   25.3596 C   0  0  0  0  0  0  0  0  0  0  0  0
    6.8890  -17.2665   25.1094 C   0  0  0  0  0  0  0  0  0  0  0  0
    7.3730  -16.9653   23.7165 C   0  0  0  0  0  0  0  0  0  0  0  0
    7.4052  -15.4707   23.4416 C   0  0  2  0  0  0  0  0  0  0  0  0
    7.8362  -15.1590   22.1264 N   0  0  0  0  0  0  0  0  0  0  0  0
    8.1288  -14.8331   24.5576 C   0  0  0  0  0  0  0  0  0  0  0  0
    9.4058  -15.0503   24.5114 O   0  0  0  0  0  0  0  0  0  0  0  0
    8.3172  -19.3331   29.0548 N   0  0  0  0  0  0  0  0  0  0  0  0
    7.6586  -14.0678   25.6071 C   0  0  0  0  0  0  0  0  0  0  0  0
    6.3183  -13.7506   26.0014 C   0  0  0  0  0  0  0  0  0  0  0  0
    6.4874  -12.2580   26.3510 C   0  0  0  0  0  0  0  0  0  0  0  0
    7.7122  -12.3020   27.2083 C   0  0  2  0  0  0  0  0  0  0  0  0
    8.5267  -13.3888   26.5896 C   0  0  0  0  0  0  0  0  0  0  0  0
    9.0231  -14.3733   27.5840 O   0  0  0  0  0  0  0  0  0  0  0  0
    9.9970  -13.9849   28.4654 O   0  0  0  0  0  0  0  0  0  0  0  0
  1  2  1  0
  3  2  1  0
  4  5  1  0
  4  3  1  0
  5  1  1  0
  5  6  1  1
  6  7  2  0
  8  9  1  0
  9 11  1  0
 10  9  2  0
 11 12  1  0
 12 13  1  0
 15 14  1  1
 14 13  1  0
 15 16  1  0
 16  6  1  0
 17 15  1  0
 18 17  2  0
 19 20  1  0
 19 17  1  0
 21 20  1  0
 22 23  1  0
 22 21  1  0
 23 19  1  0
 24 25  1  0
 23 24  1  1
 26 24  2  0
M  END
$$$$
