PRP.pdb
     RDKit          3D

 26 27  0  0  1  0  0  0  0  0999 V2000
   10.5956  -19.5818   25.8771 N   0  0  0  0  0  0  0  0  0  0  0  0
   11.2294  -20.8550   25.6796 C   0  0  0  0  0  0  0  0  0  0  0  0
   12.5922  -20.6030   25.0804 C   0  0  0  0  0  0  0  0  0  0  0  0
   12.4351  -19.1705   24.5536 C   0  0  0  0  0  0  0  0  0  0  0  0
   11.5780  -18.5549   25.5991 C   0  0  1  0  0  0  0  0  0  0  0  0
   10.9498  -17.2779   25.2439 C   0  0  0  0  0  0  0  0  0  0  0  0
   11.5694  -16.1831   25.4687 O   0  0  0  0  0  0  0  0  0  0  0  0
    8.3630  -13.8483   18.0757 N   0  0  0  0  0  0  0  0  0  0  0  0
    8.3828  -12.8871   19.1196 C   0  0  0  0  0  0  0  0  0  0  0  0
    8.6016  -11.6345   18.8346 N   0  0  0  0  0  0  0  0  0  0  0  0
    8.1753  -13.2088   20.4836 N   0  0  0  0  0  0  0  0  0  0  0  0
    7.9340  -14.5560   20.9452 C   0  0  0  0  0  0  0  0  0  0  0  0
    7.8744  -14.6612   22.4483 C   0  0  0  0  0  0  0  0  0  0  0  0
    8.4310  -15.9924   22.8764 C   0  0  0  0  0  0  0  0  0  0  0  0
    9.0845  -15.9160   24.2467 C   0  0  2  0  0  0  0  0  0  0  0  0
    9.6695  -17.1438   24.6501 N   0  0  0  0  0  0  0  0  0  0  0  0
    8.1098  -15.2988   25.1657 C   0  0  0  0  0  0  0  0  0  0  0  0
    7.3551  -16.1745   25.7519 O   0  0  0  0  0  0  0  0  0  0  0  0
    8.6418  -10.8935   19.5411 N   0  0  0  0  0  0  0  0  0  0  0  0
    7.8923  -13.9710   25.4786 C   0  0  0  0  0  0  0  0  0  0  0  0
    8.3789  -12.7757   24.8567 C   0  0  0  0  0  0  0  0  0  0  0  0
    8.7137  -11.9390   26.1083 C   0  0  0  0  0  0  0  0  0  0  0  0
    7.4647  -12.1145   26.9121 C   0  0  2  0  0  0  0  0  0  0  0  0
    7.0478  -13.5130   26.5997 C   0  0  0  0  0  0  0  0  0  0  0  0
    5.6154  -13.6160   26.2224 O   0  0  0  0  0  0  0  0  0  0  0  0
    4.6676  -13.5346   27.2079 O   0  0  0  0  0  0  0  0  0  0  0  0
  1  2  1  0
  3  2  1  0
  4  5  1  0
  4  3  1  0
  5  1  1  0
  5  6  1  6
  6  7  2  0
  8  9  1  0
  9 11  1  0
 10  9  2  0
 11 12  1  0
 12 13  1  0
 15 14  1  6
 14 13  1  0
 15 16  1  0
 16  6  1  0
 17 15  1  0
 18 17  2  0
 19 20  1  0
 19 17  1  0
 21 20  1  0
 22 23  1  0
 22 21  1  0
 23 19  1  0
 24 25  1  0
 23 24  1  1
 26 24  2  0
M  END
$$$$
