PRP.pdb
     RDKit          3D

 26 27  0  0  1  0  0  0  0  0999 V2000
    8.6386  -15.1397   19.5665 N   0  0  0  0  0  0  0  0  0  0  0  0
    8.7213  -15.0095   18.1390 C   0  0  0  0  0  0  0  0  0  0  0  0
    8.4499  -13.5654   17.7918 C   0  0  0  0  0  0  0  0  0  0  0  0
    7.7686  -13.0651   19.0724 C   0  0  0  0  0  0  0  0  0  0  0  0
    8.5122  -13.8083   20.1219 C   0  0  1  0  0  0  0  0  0  0  0  0
    7.8969  -13.8264   21.4533 C   0  0  0  0  0  0  0  0  0  0  0  0
    7.7420  -12.7319   22.0944 O   0  0  0  0  0  0  0  0  0  0  0  0
    9.4271  -18.6333   25.7312 N   0  0  0  0  0  0  0  0  0  0  0  0
    8.3967  -19.3846   26.3541 C   0  0  0  0  0  0  0  0  0  0  0  0
    8.6896  -20.5079   26.9461 N   0  0  0  0  0  0  0  0  0  0  0  0
    7.0383  -18.9828   26.3743 N   0  0  0  0  0  0  0  0  0  0  0  0
    6.3959  -18.3276   25.2588 C   0  0  0  0  0  0  0  0  0  0  0  0
    6.9828  -16.9723   24.9549 C   0  0  0  0  0  0  0  0  0  0  0  0
    6.2730  -16.3774   23.7685 C   0  0  0  0  0  0  0  0  0  0  0  0
    6.8354  -15.0139   23.4005 C   0  0  2  0  0  0  0  0  0  0  0  0
    7.4402  -14.9927   22.1174 N   0  0  0  0  0  0  0  0  0  0  0  0
    7.6518  -14.5523   24.5389 C   0  0  0  0  0  0  0  0  0  0  0  0
    8.8540  -15.0363   24.5178 O   0  0  0  0  0  0  0  0  0  0  0  0
    7.9873  -21.1241   27.3669 N   0  0  0  0  0  0  0  0  0  0  0  0
    7.3308  -13.7111   25.5866 C   0  0  0  0  0  0  0  0  0  0  0  0
    6.0738  -13.1433   25.9737 C   0  0  0  0  0  0  0  0  0  0  0  0
    6.5235  -11.7106   26.3259 C   0  0  0  0  0  0  0  0  0  0  0  0
    7.7123  -11.9882   27.1898 C   0  0  2  0  0  0  0  0  0  0  0  0
    8.3073  -13.2108   26.5746 C   0  0  0  0  0  0  0  0  0  0  0  0
    8.6004  -14.2721   27.5707 O   0  0  0  0  0  0  0  0  0  0  0  0
    9.6384  -14.0859   28.4449 O   0  0  0  0  0  0  0  0  0  0  0  0
  1  2  1  0
  3  2  1  0
  4  5  1  0
  4  3  1  0
  5  1  1  0
  5  6  1  1
  6  7  2  0
  8  9  1  0
  9 11  1  0
 10  9  2  0
 11 12  1  0
 12 13  1  0
 15 14  1  1
 14 13  1  0
 15 16  1  0
 16  6  1  0
 17 15  1  0
 18 17  2  0
 19 20  1  0
 19 17  1  0
 21 20  1  0
 22 23  1  0
 22 21  1  0
 23 19  1  0
 24 25  1  0
 23 24  1  1
 26 24  2  0
M  END
$$$$
