PRP.pdb
     RDKit          3D

 26 27  0  0  1  0  0  0  0  0999 V2000
    8.4777  -14.7795   19.4823 N   0  0  0  0  0  0  0  0  0  0  0  0
    8.3586  -14.4171   18.0980 C   0  0  0  0  0  0  0  0  0  0  0  0
    8.0029  -12.9511   18.0347 C   0  0  0  0  0  0  0  0  0  0  0  0
    7.4921  -12.6980   19.4593 C   0  0  0  0  0  0  0  0  0  0  0  0
    8.3935  -13.5629   20.2631 C   0  0  1  0  0  0  0  0  0  0  0  0
    7.9690  -13.8256   21.6423 C   0  0  0  0  0  0  0  0  0  0  0  0
    7.8879  -12.8597   22.4750 O   0  0  0  0  0  0  0  0  0  0  0  0
    8.0630  -19.4245   28.4571 N   0  0  0  0  0  0  0  0  0  0  0  0
    7.0086  -19.8589   27.6123 C   0  0  0  0  0  0  0  0  0  0  0  0
    6.2417  -20.8400   27.9958 N   0  0  0  0  0  0  0  0  0  0  0  0
    6.7295  -19.2812   26.3492 N   0  0  0  0  0  0  0  0  0  0  0  0
    7.5479  -18.2470   25.7600 C   0  0  0  0  0  0  0  0  0  0  0  0
    6.7417  -17.0842   25.2388 C   0  0  0  0  0  0  0  0  0  0  0  0
    7.0931  -16.8423   23.7954 C   0  0  0  0  0  0  0  0  0  0  0  0
    7.1963  -15.3587   23.4812 C   0  0  2  0  0  0  0  0  0  0  0  0
    7.6265  -15.1027   22.1537 N   0  0  0  0  0  0  0  0  0  0  0  0
    7.9640  -14.7298   24.5723 C   0  0  0  0  0  0  0  0  0  0  0  0
    9.2288  -15.0074   24.5151 O   0  0  0  0  0  0  0  0  0  0  0  0
    5.4728  -21.2104   27.4287 N   0  0  0  0  0  0  0  0  0  0  0  0
    7.5444  -13.9190   25.6091 C   0  0  0  0  0  0  0  0  0  0  0  0
    6.2313  -13.4759   25.9721 C   0  0  0  0  0  0  0  0  0  0  0  0
    6.5318  -12.0042   26.3220 C   0  0  0  0  0  0  0  0  0  0  0  0
    7.7276  -12.1589   27.2068 C   0  0  2  0  0  0  0  0  0  0  0  0
    8.4502  -13.3200   26.6093 C   0  0  0  0  0  0  0  0  0  0  0  0
    8.8297  -14.3422   27.6171 O   0  0  0  0  0  0  0  0  0  0  0  0
    9.8371  -14.0545   28.4995 O   0  0  0  0  0  0  0  0  0  0  0  0
  1  2  1  0
  3  2  1  0
  4  5  1  0
  4  3  1  0
  5  1  1  0
  5  6  1  1
  6  7  2  0
  8  9  1  0
  9 11  1  0
 10  9  2  0
 11 12  1  0
 12 13  1  0
 15 14  1  1
 14 13  1  0
 15 16  1  0
 16  6  1  0
 17 15  1  0
 18 17  2  0
 19 20  1  0
 19 17  1  0
 21 20  1  0
 22 23  1  0
 22 21  1  0
 23 19  1  0
 24 25  1  0
 23 24  1  1
 26 24  2  0
M  END
$$$$
