PRP.pdb
     RDKit          3D

 26 27  0  0  1  0  0  0  0  0999 V2000
    7.8900  -14.9924   18.6454 N   0  0  0  0  0  0  0  0  0  0  0  0
    8.0873  -14.1790   17.4787 C   0  0  0  0  0  0  0  0  0  0  0  0
    8.4806  -12.7969   17.9420 C   0  0  0  0  0  0  0  0  0  0  0  0
    8.0221  -12.8224   19.4061 C   0  0  0  0  0  0  0  0  0  0  0  0
    8.3234  -14.2244   19.7940 C   0  0  1  0  0  0  0  0  0  0  0  0
    7.6989  -14.6952   21.0349 C   0  0  0  0  0  0  0  0  0  0  0  0
    6.4630  -15.0197   21.0384 O   0  0  0  0  0  0  0  0  0  0  0  0
    8.7973  -19.7886   27.4097 N   0  0  0  0  0  0  0  0  0  0  0  0
    7.3829  -19.6752   27.4374 C   0  0  0  0  0  0  0  0  0  0  0  0
    6.7237  -20.1177   28.4707 N   0  0  0  0  0  0  0  0  0  0  0  0
    6.6235  -19.0985   26.3897 N   0  0  0  0  0  0  0  0  0  0  0  0
    7.2135  -18.6306   25.1571 C   0  0  0  0  0  0  0  0  0  0  0  0
    7.1424  -17.1324   25.0022 C   0  0  0  0  0  0  0  0  0  0  0  0
    7.7558  -16.7385   23.6854 C   0  0  0  0  0  0  0  0  0  0  0  0
    7.7564  -15.2308   23.4922 C   0  0  2  0  0  0  0  0  0  0  0  0
    8.3686  -14.8288   22.2772 N   0  0  0  0  0  0  0  0  0  0  0  0
    8.2675  -14.6274   24.7373 C   0  0  0  0  0  0  0  0  0  0  0  0
    9.5428  -14.8027   24.8882 O   0  0  0  0  0  0  0  0  0  0  0  0
    5.7117  -20.0047   28.5854 N   0  0  0  0  0  0  0  0  0  0  0  0
    7.6068  -13.9298   25.7298 C   0  0  0  0  0  0  0  0  0  0  0  0
    6.2058  -13.7318   25.9544 C   0  0  0  0  0  0  0  0  0  0  0  0
    6.2049  -12.2399   26.3458 C   0  0  0  0  0  0  0  0  0  0  0  0
    7.3112  -12.2075   27.3518 C   0  0  2  0  0  0  0  0  0  0  0  0
    8.2847  -13.2089   26.8255 C   0  0  0  0  0  0  0  0  0  0  0  0
    8.7317  -14.1758   27.8599 O   0  0  0  0  0  0  0  0  0  0  0  0
    8.3111  -15.4763   27.7710 O   0  0  0  0  0  0  0  0  0  0  0  0
  1  2  1  0
  3  2  1  0
  4  5  1  0
  4  3  1  0
  5  1  1  0
  5  6  1  1
  6  7  2  0
  8  9  1  0
  9 11  1  0
 10  9  2  0
 11 12  1  0
 12 13  1  0
 15 14  1  1
 14 13  1  0
 15 16  1  0
 16  6  1  0
 17 15  1  0
 18 17  2  0
 19 20  1  0
 19 17  1  0
 21 20  1  0
 22 23  1  0
 22 21  1  0
 23 19  1  0
 24 25  1  0
 23 24  1  1
 26 24  2  0
M  END
$$$$
