PRP.pdb
     RDKit          3D

 26 27  0  0  1  0  0  0  0  0999 V2000
    7.2086  -20.2506   22.8332 N   0  0  0  0  0  0  0  0  0  0  0  0
    6.7893  -21.3729   23.6247 C   0  0  0  0  0  0  0  0  0  0  0  0
    5.8747  -20.8557   24.7090 C   0  0  0  0  0  0  0  0  0  0  0  0
    6.2189  -19.3604   24.7128 C   0  0  0  0  0  0  0  0  0  0  0  0
    6.4478  -19.0980   23.2686 C   0  0  1  0  0  0  0  0  0  0  0  0
    7.1275  -17.8391   22.9451 C   0  0  0  0  0  0  0  0  0  0  0  0
    6.4855  -16.7364   23.0153 O   0  0  0  0  0  0  0  0  0  0  0  0
   15.4493  -14.2365   21.2207 N   0  0  0  0  0  0  0  0  0  0  0  0
   14.4796  -14.3300   20.1887 C   0  0  0  0  0  0  0  0  0  0  0  0
   14.6886  -13.7232   19.0546 N   0  0  0  0  0  0  0  0  0  0  0  0
   13.2706  -15.0577   20.3147 N   0  0  0  0  0  0  0  0  0  0  0  0
   12.7488  -15.5002   21.5868 C   0  0  0  0  0  0  0  0  0  0  0  0
   11.2569  -15.3171   21.7067 C   0  0  0  0  0  0  0  0  0  0  0  0
   10.6229  -16.6298   22.0810 C   0  0  0  0  0  0  0  0  0  0  0  0
    9.1055  -16.5409   22.0901 C   0  0  2  0  0  0  0  0  0  0  0  0
    8.4840  -17.7314   22.5476 N   0  0  0  0  0  0  0  0  0  0  0  0
    8.6867  -16.0241   20.7736 C   0  0  0  0  0  0  0  0  0  0  0  0
    8.2203  -16.9534   19.9997 O   0  0  0  0  0  0  0  0  0  0  0  0
   14.0868  -13.8384   18.2334 N   0  0  0  0  0  0  0  0  0  0  0  0
    8.7204  -14.7402   20.2650 C   0  0  0  0  0  0  0  0  0  0  0  0
    9.3017  -13.5432   20.7955 C   0  0  0  0  0  0  0  0  0  0  0  0
    8.1856  -12.5322   20.4622 C   0  0  0  0  0  0  0  0  0  0  0  0
    7.9152  -12.8667   19.0298 C   0  0  2  0  0  0  0  0  0  0  0  0
    8.1160  -14.3446   18.9773 C   0  0  0  0  0  0  0  0  0  0  0  0
    8.9977  -14.7664   17.8596 O   0  0  0  0  0  0  0  0  0  0  0  0
    8.5335  -14.6524   16.5759 O   0  0  0  0  0  0  0  0  0  0  0  0
  1  2  1  0
  3  2  1  0
  4  5  1  0
  4  3  1  0
  5  1  1  0
  5  6  1  1
  6  7  2  0
  8  9  1  0
  9 11  1  0
 10  9  2  0
 11 12  1  0
 12 13  1  0
 15 14  1  6
 14 13  1  0
 15 16  1  0
 16  6  1  0
 17 15  1  0
 18 17  2  0
 19 20  1  0
 19 17  1  0
 21 20  1  0
 22 23  1  0
 22 21  1  0
 23 19  1  0
 24 25  1  0
 23 24  1  6
 26 24  2  0
M  END
$$$$
