QGM.pdb
     RDKit          3D

 22 21  0  0  1  0  0  0  0  0999 V2000
   10.8306  -12.5130   19.3563 N   0  0  0  0  0  0  0  0  0  0  0  0
    9.7202  -13.0528   18.6379 C   0  0  0  0  0  0  0  0  0  0  0  0
    9.9571  -13.8429   17.6912 O   0  0  0  0  0  0  0  0  0  0  0  0
    8.3392  -12.7149   18.9757 C   0  0  0  0  0  0  0  0  0  0  0  0
    7.9684  -13.2893   20.3117 C   0  0  0  0  0  0  0  0  0  0  0  0
    8.1854  -14.7787   20.2836 C   0  0  2  0  0  0  0  0  0  0  0  0
    7.1866  -15.3288   19.3768 N   0  0  0  0  0  0  0  0  0  0  0  0
    7.9576  -15.2867   21.6774 C   0  0  0  0  0  0  0  0  0  0  0  0
    6.8500  -15.1073   22.2390 O   0  0  0  0  0  0  0  0  0  0  0  0
    8.9704  -15.9680   22.3774 N   0  0  0  0  0  0  0  0  0  0  0  0
    8.7140  -16.4647   23.7151 C   0  0  0  0  0  0  0  0  0  0  0  0
    9.5824  -15.7281   24.6577 C   0  0  0  0  0  0  0  0  0  0  0  0
   10.6156  -15.0879   24.3067 O   0  0  0  0  0  0  0  0  0  0  0  0
    5.7194  -11.8140   26.8927 C   0  0  0  0  0  0  0  0  0  0  0  0
    7.3713  -12.1274   27.5429 S   0  0  0  0  0  0  0  0  0  0  0  0
    8.0668  -13.6833   26.9155 C   0  0  0  0  0  0  0  0  0  0  0  0
    9.4323  -13.8957   27.5341 C   0  0  0  0  0  0  0  0  0  0  0  0
   10.0519  -15.1887   27.0795 C   0  0  2  0  0  0  0  0  0  0  0  0
    9.2332  -15.7432   26.0333 N   0  0  0  0  0  0  0  0  0  0  0  0
   10.1513  -16.1866   28.1526 C   0  0  0  0  0  0  0  0  0  0  0  0
    9.4213  -17.2067   28.1090 O   0  0  0  0  0  0  0  0  0  0  0  0
   11.0185  -16.0622   29.2256 O   0  0  0  0  0  0  0  0  0  0  0  0
  1  2  1  0
  2  3  2  0
  4  2  1  0
  4  5  1  0
  6  5  1  0
  6  8  1  0
  6  7  1  6
  8  9  2  0
 10  8  1  0
 10 11  1  0
 11 12  1  0
 12 19  1  0
 13 12  2  0
 15 14  1  0
 15 16  1  0
 17 16  1  0
 18 20  1  0
 18 17  1  1
 19 18  1  0
 20 22  1  0
 21 20  2  0
M  END
$$$$
