QGM.pdb
     RDKit          3D

 22 21  0  0  1  0  0  0  0  0999 V2000
    7.8869  -19.3446   16.4043 N   0  0  0  0  0  0  0  0  0  0  0  0
    6.8648  -18.4384   16.8223 C   0  0  0  0  0  0  0  0  0  0  0  0
    6.0162  -18.0726   15.9722 O   0  0  0  0  0  0  0  0  0  0  0  0
    6.7841  -17.9387   18.1932 C   0  0  0  0  0  0  0  0  0  0  0  0
    7.8581  -18.5541   19.0418 C   0  0  0  0  0  0  0  0  0  0  0  0
    7.7470  -18.0147   20.4427 C   0  0  2  0  0  0  0  0  0  0  0  0
    6.9546  -16.7950   20.3586 N   0  0  0  0  0  0  0  0  0  0  0  0
    9.1385  -17.6992   20.9085 C   0  0  0  0  0  0  0  0  0  0  0  0
    9.9966  -18.6112   20.9889 O   0  0  0  0  0  0  0  0  0  0  0  0
    9.5072  -16.3880   21.2614 N   0  0  0  0  0  0  0  0  0  0  0  0
   10.8485  -16.1206   21.7424 C   0  0  0  0  0  0  0  0  0  0  0  0
   10.7666  -15.7778   23.1781 C   0  0  0  0  0  0  0  0  0  0  0  0
   11.7781  -15.5711   23.9093 O   0  0  0  0  0  0  0  0  0  0  0  0
    6.7833  -11.0466   27.0424 C   0  0  0  0  0  0  0  0  0  0  0  0
    6.3309  -12.6812   26.4316 S   0  0  0  0  0  0  0  0  0  0  0  0
    7.7183  -13.8499   26.5201 C   0  0  0  0  0  0  0  0  0  0  0  0
    8.0667  -14.3056   25.1190 C   0  0  0  0  0  0  0  0  0  0  0  0
    9.2394  -15.2476   25.1179 C   0  0  2  0  0  0  0  0  0  0  0  0
    9.4783  -15.6763   23.7646 N   0  0  0  0  0  0  0  0  0  0  0  0
    9.0153  -16.4448   25.9386 C   0  0  0  0  0  0  0  0  0  0  0  0
    8.7399  -17.5312   25.3735 O   0  0  0  0  0  0  0  0  0  0  0  0
    9.0921  -16.4412   27.3217 O   0  0  0  0  0  0  0  0  0  0  0  0
  1  2  1  0
  2  3  2  0
  4  2  1  0
  4  5  1  0
  6  5  1  0
  6  8  1  0
  6  7  1  6
  8  9  2  0
 10  8  1  0
 10 11  1  0
 11 12  1  0
 12 19  1  0
 13 12  2  0
 15 14  1  0
 15 16  1  0
 17 16  1  0
 18 20  1  0
 18 17  1  6
 19 18  1  0
 20 22  1  0
 21 20  2  0
M  END
$$$$
