QGM.pdb
     RDKit          3D

 22 21  0  0  1  0  0  0  0  0999 V2000
    7.6776  -15.3350   16.2103 N   0  0  0  0  0  0  0  0  0  0  0  0
    7.9797  -13.9831   15.8618 C   0  0  0  0  0  0  0  0  0  0  0  0
    8.2114  -13.7218   14.6557 O   0  0  0  0  0  0  0  0  0  0  0  0
    8.0215  -12.9156   16.8589 C   0  0  0  0  0  0  0  0  0  0  0  0
    7.6411  -13.4434   18.2112 C   0  0  0  0  0  0  0  0  0  0  0  0
    8.8817  -13.5785   19.0529 C   0  0  2  0  0  0  0  0  0  0  0  0
    9.8420  -14.3367   18.2620 N   0  0  0  0  0  0  0  0  0  0  0  0
    8.5009  -14.3471   20.2846 C   0  0  0  0  0  0  0  0  0  0  0  0
    7.7287  -13.8359   21.1312 O   0  0  0  0  0  0  0  0  0  0  0  0
    8.9961  -15.6440   20.5144 N   0  0  0  0  0  0  0  0  0  0  0  0
    8.5679  -16.3826   21.6861 C   0  0  0  0  0  0  0  0  0  0  0  0
    9.1975  -15.7710   22.8755 C   0  0  0  0  0  0  0  0  0  0  0  0
   10.4047  -15.3946   22.9156 O   0  0  0  0  0  0  0  0  0  0  0  0
    5.3928  -12.1841   27.1892 C   0  0  0  0  0  0  0  0  0  0  0  0
    7.0941  -11.6330   26.9619 S   0  0  0  0  0  0  0  0  0  0  0  0
    8.2398  -13.0267   26.7530 C   0  0  0  0  0  0  0  0  0  0  0  0
    7.8902  -13.7628   25.4770 C   0  0  0  0  0  0  0  0  0  0  0  0
    8.8342  -14.9053   25.2197 C   0  0  2  0  0  0  0  0  0  0  0  0
    8.3984  -15.5985   24.0357 N   0  0  0  0  0  0  0  0  0  0  0  0
    8.8761  -15.8752   26.3218 C   0  0  0  0  0  0  0  0  0  0  0  0
    8.2340  -16.9485   26.2170 O   0  0  0  0  0  0  0  0  0  0  0  0
    9.5953  -15.6677   27.4873 O   0  0  0  0  0  0  0  0  0  0  0  0
  1  2  1  0
  2  3  2  0
  4  2  1  0
  4  5  1  0
  6  5  1  0
  6  8  1  0
  6  7  1  6
  8  9  2  0
 10  8  1  0
 10 11  1  0
 11 12  1  0
 12 19  1  0
 13 12  2  0
 15 14  1  0
 15 16  1  0
 17 16  1  0
 18 20  1  0
 18 17  1  1
 19 18  1  0
 20 22  1  0
 21 20  2  0
M  END
$$$$
