QGM.pdb
     RDKit          3D

 22 21  0  0  1  0  0  0  0  0999 V2000
    9.9112  -13.7453   17.3937 N   0  0  0  0  0  0  0  0  0  0  0  0
    8.6774  -13.4596   16.7330 C   0  0  0  0  0  0  0  0  0  0  0  0
    8.7060  -13.2438   15.4964 O   0  0  0  0  0  0  0  0  0  0  0  0
    7.4049  -13.4165   17.4502 C   0  0  0  0  0  0  0  0  0  0  0  0
    7.5799  -13.8950   18.8618 C   0  0  0  0  0  0  0  0  0  0  0  0
    7.9756  -15.3473   18.8430 C   0  0  2  0  0  0  0  0  0  0  0  0
    7.0379  -16.0238   17.9567 N   0  0  0  0  0  0  0  0  0  0  0  0
    7.8316  -15.8647   20.2446 C   0  0  0  0  0  0  0  0  0  0  0  0
    6.8422  -15.5299   20.9400 O   0  0  0  0  0  0  0  0  0  0  0  0
    8.7925  -16.7274   20.8034 N   0  0  0  0  0  0  0  0  0  0  0  0
    8.5866  -17.2737   22.1304 C   0  0  0  0  0  0  0  0  0  0  0  0
    9.0099  -16.2603   23.1199 C   0  0  0  0  0  0  0  0  0  0  0  0
   10.1938  -15.8247   23.2162 O   0  0  0  0  0  0  0  0  0  0  0  0
    6.5009  -10.6733   27.9125 C   0  0  0  0  0  0  0  0  0  0  0  0
    6.1952  -11.8543   26.5853 S   0  0  0  0  0  0  0  0  0  0  0  0
    7.2012  -13.3558   26.7639 C   0  0  0  0  0  0  0  0  0  0  0  0
    7.0094  -14.2242   25.5385 C   0  0  0  0  0  0  0  0  0  0  0  0
    8.3094  -14.8199   25.0721 C   0  0  2  0  0  0  0  0  0  0  0  0
    8.0291  -15.7503   24.0100 N   0  0  0  0  0  0  0  0  0  0  0  0
    9.0221  -15.5450   26.1320 C   0  0  0  0  0  0  0  0  0  0  0  0
    8.8041  -16.7712   26.2875 O   0  0  0  0  0  0  0  0  0  0  0  0
    9.9345  -14.9415   26.9818 O   0  0  0  0  0  0  0  0  0  0  0  0
  1  2  1  0
  2  3  2  0
  4  2  1  0
  4  5  1  0
  6  5  1  0
  6  8  1  0
  6  7  1  6
  8  9  2  0
 10  8  1  0
 10 11  1  0
 11 12  1  0
 12 19  1  0
 13 12  2  0
 15 14  1  0
 15 16  1  0
 17 16  1  0
 18 20  1  0
 18 17  1  1
 19 18  1  0
 20 22  1  0
 21 20  2  0
M  END
$$$$
