QGM.pdb
     RDKit          3D

 22 21  0  0  1  0  0  0  0  0999 V2000
    4.3979  -28.2179   31.5751 N   0  0  0  0  0  0  0  0  0  0  0  0
    3.2453  -27.4752   31.1745 C   0  0  0  0  0  0  0  0  0  0  0  0
    3.3837  -26.2485   30.9449 O   0  0  0  0  0  0  0  0  0  0  0  0
    1.9327  -28.1001   31.0257 C   0  0  0  0  0  0  0  0  0  0  0  0
    0.8553  -27.0564   30.9777 C   0  0  0  0  0  0  0  0  0  0  0  0
   -0.4397  -27.7054   30.5682 C   0  0  2  0  0  0  0  0  0  0  0  0
   -0.2584  -28.1718   29.2000 N   0  0  0  0  0  0  0  0  0  0  0  0
   -1.5024  -26.6467   30.6198 C   0  0  0  0  0  0  0  0  0  0  0  0
   -1.9052  -26.2134   31.7264 O   0  0  0  0  0  0  0  0  0  0  0  0
   -2.0642  -26.1225   29.4410 N   0  0  0  0  0  0  0  0  0  0  0  0
   -3.1336  -25.1471   29.5234 C   0  0  0  0  0  0  0  0  0  0  0  0
   -4.3439  -25.7330   28.9093 C   0  0  0  0  0  0  0  0  0  0  0  0
   -4.3624  -26.2621   27.7602 O   0  0  0  0  0  0  0  0  0  0  0  0
   -8.8906  -31.3050   28.2575 C   0  0  0  0  0  0  0  0  0  0  0  0
   -7.4153  -30.3160   28.5659 S   0  0  0  0  0  0  0  0  0  0  0  0
   -7.8121  -28.5630   28.8267 C   0  0  0  0  0  0  0  0  0  0  0  0
   -6.5340  -27.8098   29.1291 C   0  0  0  0  0  0  0  0  0  0  0  0
   -6.7756  -26.3292   29.2382 C   0  0  2  0  0  0  0  0  0  0  0  0
   -5.5511  -25.6973   29.6548 N   0  0  0  0  0  0  0  0  0  0  0  0
   -7.8163  -25.9875   30.2166 C   0  0  0  0  0  0  0  0  0  0  0  0
   -9.0200  -26.1927   29.9262 O   0  0  0  0  0  0  0  0  0  0  0  0
   -7.5388  -25.4433   31.4598 O   0  0  0  0  0  0  0  0  0  0  0  0
  1  2  1  0
  2  3  2  0
  4  2  1  0
  4  5  1  0
  6  5  1  0
  6  8  1  0
  6  7  1  6
  8  9  2  0
 10  8  1  0
 10 11  1  0
 11 12  1  0
 12 19  1  0
 13 12  2  0
 15 14  1  0
 15 16  1  0
 17 16  1  0
 18 20  1  0
 18 17  1  1
 19 18  1  0
 20 22  1  0
 21 20  2  0
M  END
$$$$
