QGM.pdb
     RDKit          3D

 22 21  0  0  1  0  0  0  0  0999 V2000
    7.6136  -16.4132   15.4906 N   0  0  0  0  0  0  0  0  0  0  0  0
    8.1203  -15.0825   15.6047 C   0  0  0  0  0  0  0  0  0  0  0  0
    8.0353  -14.3304   14.6029 O   0  0  0  0  0  0  0  0  0  0  0  0
    8.7220  -14.5847   16.8398 C   0  0  0  0  0  0  0  0  0  0  0  0
    7.7851  -13.6444   17.5399 C   0  0  0  0  0  0  0  0  0  0  0  0
    8.4380  -13.1497   18.8029 C   0  0  2  0  0  0  0  0  0  0  0  0
    9.8455  -12.9403   18.4906 N   0  0  0  0  0  0  0  0  0  0  0  0
    8.2895  -14.2317   19.8324 C   0  0  0  0  0  0  0  0  0  0  0  0
    7.1793  -14.4275   20.3833 O   0  0  0  0  0  0  0  0  0  0  0  0
    9.3804  -15.0416   20.1984 N   0  0  0  0  0  0  0  0  0  0  0  0
    9.2144  -16.0569   21.2199 C   0  0  0  0  0  0  0  0  0  0  0  0
    9.5310  -15.4519   22.5309 C   0  0  0  0  0  0  0  0  0  0  0  0
   10.5920  -14.8048   22.7677 O   0  0  0  0  0  0  0  0  0  0  0  0
    5.8482  -11.2610   27.8400 C   0  0  0  0  0  0  0  0  0  0  0  0
    5.9150  -12.2611   26.3417 S   0  0  0  0  0  0  0  0  0  0  0  0
    7.4143  -13.2836   26.2711 C   0  0  0  0  0  0  0  0  0  0  0  0
    7.4483  -14.0147   24.9456 C   0  0  0  0  0  0  0  0  0  0  0  0
    8.6541  -14.9070   24.8354 C   0  0  2  0  0  0  0  0  0  0  0  0
    8.5884  -15.6088   23.5803 N   0  0  0  0  0  0  0  0  0  0  0  0
    8.7290  -15.9066   25.9089 C   0  0  0  0  0  0  0  0  0  0  0  0
    8.9089  -15.5231   27.0905 O   0  0  0  0  0  0  0  0  0  0  0  0
    8.6107  -17.2686   25.6862 O   0  0  0  0  0  0  0  0  0  0  0  0
  1  2  1  0
  2  3  2  0
  4  2  1  0
  4  5  1  0
  6  5  1  0
  6  8  1  0
  6  7  1  6
  8  9  2  0
 10  8  1  0
 10 11  1  0
 11 12  1  0
 12 19  1  0
 13 12  2  0
 15 14  1  0
 15 16  1  0
 17 16  1  0
 18 20  1  0
 18 17  1  1
 19 18  1  0
 20 22  1  0
 21 20  2  0
M  END
$$$$
