QGM.pdb
     RDKit          3D

 22 21  0  0  1  0  0  0  0  0999 V2000
   10.6316  -20.7745   15.4368 N   0  0  0  0  0  0  0  0  0  0  0  0
    9.8427  -19.7076   15.9659 C   0  0  0  0  0  0  0  0  0  0  0  0
    9.3855  -18.8571   15.1633 O   0  0  0  0  0  0  0  0  0  0  0  0
    9.5581  -19.5876   17.3942 C   0  0  0  0  0  0  0  0  0  0  0  0
    9.3073  -18.1544   17.7623 C   0  0  0  0  0  0  0  0  0  0  0  0
    9.9974  -17.8538   19.0659 C   0  0  2  0  0  0  0  0  0  0  0  0
   10.3705  -19.1369   19.6462 N   0  0  0  0  0  0  0  0  0  0  0  0
    9.0008  -17.1560   19.9449 C   0  0  0  0  0  0  0  0  0  0  0  0
    8.6092  -15.9993   19.6566 O   0  0  0  0  0  0  0  0  0  0  0  0
    8.4892  -17.7771   21.0993 N   0  0  0  0  0  0  0  0  0  0  0  0
    7.4696  -17.1105   21.8854 C   0  0  0  0  0  0  0  0  0  0  0  0
    8.1413  -16.2621   22.8925 C   0  0  0  0  0  0  0  0  0  0  0  0
    9.3730  -16.3434   23.1700 O   0  0  0  0  0  0  0  0  0  0  0  0
    6.9705  -10.3077   27.7689 C   0  0  0  0  0  0  0  0  0  0  0  0
    6.1976  -11.4550   26.6131 S   0  0  0  0  0  0  0  0  0  0  0  0
    7.0604  -13.0522   26.5587 C   0  0  0  0  0  0  0  0  0  0  0  0
    6.6680  -13.7795   25.2900 C   0  0  0  0  0  0  0  0  0  0  0  0
    7.8349  -14.5132   24.6880 C   0  0  2  0  0  0  0  0  0  0  0  0
    7.3558  -15.3039   23.5846 N   0  0  0  0  0  0  0  0  0  0  0  0
    8.4973  -15.4167   25.6378 C   0  0  0  0  0  0  0  0  0  0  0  0
    7.9761  -16.5310   25.8873 O   0  0  0  0  0  0  0  0  0  0  0  0
    9.6822  -15.1025   26.2826 O   0  0  0  0  0  0  0  0  0  0  0  0
  1  2  1  0
  2  3  2  0
  4  2  1  0
  4  5  1  0
  6  5  1  0
  6  8  1  0
  6  7  1  1
  8  9  2  0
 10  8  1  0
 10 11  1  0
 11 12  1  0
 12 19  1  0
 13 12  2  0
 15 14  1  0
 15 16  1  0
 17 16  1  0
 18 20  1  0
 18 17  1  1
 19 18  1  0
 20 22  1  0
 21 20  2  0
M  END
$$$$
