QGM.pdb
     RDKit          3D

 22 21  0  0  1  0  0  0  0  0999 V2000
    2.2981  -19.7650   19.2223 N   0  0  0  0  0  0  0  0  0  0  0  0
    1.8050  -19.6955   20.5612 C   0  0  0  0  0  0  0  0  0  0  0  0
    1.0186  -20.5947   20.9483 O   0  0  0  0  0  0  0  0  0  0  0  0
    2.1904  -18.6225   21.4753 C   0  0  0  0  0  0  0  0  0  0  0  0
    3.4205  -17.9225   20.9763 C   0  0  0  0  0  0  0  0  0  0  0  0
    4.6371  -18.6888   21.4220 C   0  0  2  0  0  0  0  0  0  0  0  0
    4.5985  -18.7228   22.8779 N   0  0  0  0  0  0  0  0  0  0  0  0
    5.8400  -17.9243   20.9517 C   0  0  0  0  0  0  0  0  0  0  0  0
    6.1249  -17.8894   19.7302 O   0  0  0  0  0  0  0  0  0  0  0  0
    6.6658  -17.2373   21.8606 N   0  0  0  0  0  0  0  0  0  0  0  0
    7.8273  -16.5167   21.3773 C   0  0  0  0  0  0  0  0  0  0  0  0
    8.4865  -15.8714   22.5325 C   0  0  0  0  0  0  0  0  0  0  0  0
    9.5092  -15.1331   22.4349 O   0  0  0  0  0  0  0  0  0  0  0  0
    6.5962  -10.6082   26.4416 C   0  0  0  0  0  0  0  0  0  0  0  0
    6.3991  -12.3963   26.5574 S   0  0  0  0  0  0  0  0  0  0  0  0
    7.7124  -13.2855   25.6725 C   0  0  0  0  0  0  0  0  0  0  0  0
    7.4341  -14.7720   25.7449 C   0  0  0  0  0  0  0  0  0  0  0  0
    8.4962  -15.5699   25.0396 C   0  0  2  0  0  0  0  0  0  0  0  0
    7.9374  -16.0961   23.8218 N   0  0  0  0  0  0  0  0  0  0  0  0
    8.9893  -16.7009   25.8365 C   0  0  0  0  0  0  0  0  0  0  0  0
    8.4504  -17.8263   25.7002 O   0  0  0  0  0  0  0  0  0  0  0  0
   10.0309  -16.5925   26.7431 O   0  0  0  0  0  0  0  0  0  0  0  0
  1  2  1  0
  2  3  2  0
  4  2  1  0
  4  5  1  0
  6  5  1  0
  6  8  1  0
  6  7  1  1
  8  9  2  0
 10  8  1  0
 10 11  1  0
 11 12  1  0
 12 19  1  0
 13 12  2  0
 15 14  1  0
 15 16  1  0
 17 16  1  0
 18 20  1  0
 18 17  1  1
 19 18  1  0
 20 22  1  0
 21 20  2  0
M  END
$$$$
