QGM.pdb
     RDKit          3D

 22 21  0  0  1  0  0  0  0  0999 V2000
    8.6624  -12.6887   19.5060 N   0  0  0  0  0  0  0  0  0  0  0  0
    9.9427  -13.2169   19.1563 C   0  0  0  0  0  0  0  0  0  0  0  0
   10.9562  -12.7230   19.7089 O   0  0  0  0  0  0  0  0  0  0  0  0
   10.0967  -14.3018   18.1894 C   0  0  0  0  0  0  0  0  0  0  0  0
   10.4771  -15.5762   18.8846 C   0  0  0  0  0  0  0  0  0  0  0  0
    9.3098  -16.5258   18.8436 C   0  0  2  0  0  0  0  0  0  0  0  0
    8.2941  -15.9025   18.0056 N   0  0  0  0  0  0  0  0  0  0  0  0
    8.8059  -16.6707   20.2500 C   0  0  0  0  0  0  0  0  0  0  0  0
    9.5430  -17.1710   21.1337 O   0  0  0  0  0  0  0  0  0  0  0  0
    7.5099  -16.2530   20.6045 N   0  0  0  0  0  0  0  0  0  0  0  0
    7.0414  -16.4311   21.9649 C   0  0  0  0  0  0  0  0  0  0  0  0
    7.7746  -15.4876   22.8351 C   0  0  0  0  0  0  0  0  0  0  0  0
    8.1153  -14.3228   22.4778 O   0  0  0  0  0  0  0  0  0  0  0  0
    6.1577  -11.1054   25.7552 C   0  0  0  0  0  0  0  0  0  0  0  0
    6.7886  -12.0342   27.1655 S   0  0  0  0  0  0  0  0  0  0  0  0
    8.1220  -13.1722   26.6907 C   0  0  0  0  0  0  0  0  0  0  0  0
    7.6376  -14.0505   25.5565 C   0  0  0  0  0  0  0  0  0  0  0  0
    8.6772  -15.0604   25.1545 C   0  0  2  0  0  0  0  0  0  0  0  0
    8.1133  -15.9174   24.1446 N   0  0  0  0  0  0  0  0  0  0  0  0
    9.1179  -15.9067   26.2711 C   0  0  0  0  0  0  0  0  0  0  0  0
   10.1088  -15.5508   26.9543 O   0  0  0  0  0  0  0  0  0  0  0  0
    8.4916  -17.0930   26.6164 O   0  0  0  0  0  0  0  0  0  0  0  0
  1  2  1  0
  2  3  2  0
  4  2  1  0
  4  5  1  0
  6  5  1  0
  6  8  1  0
  6  7  1  6
  8  9  2  0
 10  8  1  0
 10 11  1  0
 11 12  1  0
 12 19  1  0
 13 12  2  0
 15 14  1  0
 15 16  1  0
 17 16  1  0
 18 20  1  0
 18 17  1  1
 19 18  1  0
 20 22  1  0
 21 20  2  0
M  END
$$$$
