QGM.pdb
     RDKit          3D

 22 21  0  0  1  0  0  0  0  0999 V2000
    2.3195  -21.4799   20.4546 N   0  0  0  0  0  0  0  0  0  0  0  0
    2.1362  -20.0730   20.2887 C   0  0  0  0  0  0  0  0  0  0  0  0
    2.1603  -19.6079   19.1226 O   0  0  0  0  0  0  0  0  0  0  0  0
    1.9220  -19.1791   21.4247 C   0  0  0  0  0  0  0  0  0  0  0  0
    3.1258  -19.1690   22.3207 C   0  0  0  0  0  0  0  0  0  0  0  0
    3.8327  -17.8474   22.1794 C   0  0  2  0  0  0  0  0  0  0  0  0
    3.6605  -17.4282   20.7948 N   0  0  0  0  0  0  0  0  0  0  0  0
    5.2849  -18.0872   22.4729 C   0  0  0  0  0  0  0  0  0  0  0  0
    5.6374  -18.5072   23.6016 O   0  0  0  0  0  0  0  0  0  0  0  0
    6.2724  -17.8490   21.4992 N   0  0  0  0  0  0  0  0  0  0  0  0
    7.6715  -18.0366   21.8298 C   0  0  0  0  0  0  0  0  0  0  0  0
    8.1765  -16.7865   22.4359 C   0  0  0  0  0  0  0  0  0  0  0  0
    8.9585  -15.9861   21.8457 O   0  0  0  0  0  0  0  0  0  0  0  0
    6.5152  -11.0488   27.4371 C   0  0  0  0  0  0  0  0  0  0  0  0
    6.0839  -12.4202   26.3495 S   0  0  0  0  0  0  0  0  0  0  0  0
    7.5334  -13.4208   25.9067 C   0  0  0  0  0  0  0  0  0  0  0  0
    7.1094  -14.4915   24.9237 C   0  0  0  0  0  0  0  0  0  0  0  0
    8.2670  -15.3627   24.5194 C   0  0  2  0  0  0  0  0  0  0  0  0
    7.7578  -16.4710   23.7547 N   0  0  0  0  0  0  0  0  0  0  0  0
    9.0051  -15.9063   25.6670 C   0  0  0  0  0  0  0  0  0  0  0  0
    9.7368  -15.1416   26.3416 O   0  0  0  0  0  0  0  0  0  0  0  0
    8.9373  -17.2354   26.0512 O   0  0  0  0  0  0  0  0  0  0  0  0
  1  2  1  0
  2  3  2  0
  4  2  1  0
  4  5  1  0
  6  5  1  0
  6  8  1  0
  6  7  1  6
  8  9  2  0
 10  8  1  0
 10 11  1  0
 11 12  1  0
 12 19  1  0
 13 12  2  0
 15 14  1  0
 15 16  1  0
 17 16  1  0
 18 20  1  0
 18 17  1  1
 19 18  1  0
 20 22  1  0
 21 20  2  0
M  END
$$$$
