QGM.pdb
     RDKit          3D

 22 21  0  0  1  0  0  0  0  0999 V2000
    8.7214  -12.6160   17.6679 N   0  0  0  0  0  0  0  0  0  0  0  0
    7.7971  -13.6358   17.2854 C   0  0  0  0  0  0  0  0  0  0  0  0
    6.7923  -13.2995   16.6117 O   0  0  0  0  0  0  0  0  0  0  0  0
    7.9926  -15.0370   17.6515 C   0  0  0  0  0  0  0  0  0  0  0  0
    9.2693  -15.2066   18.4217 C   0  0  0  0  0  0  0  0  0  0  0  0
    9.3726  -16.6322   18.8941 C   0  0  2  0  0  0  0  0  0  0  0  0
    8.8045  -17.4630   17.8408 N   0  0  0  0  0  0  0  0  0  0  0  0
    8.5515  -16.7457   20.1453 C   0  0  0  0  0  0  0  0  0  0  0  0
    7.3548  -17.1177   20.0806 O   0  0  0  0  0  0  0  0  0  0  0  0
    9.0998  -16.4409   21.4048 N   0  0  0  0  0  0  0  0  0  0  0  0
    8.3461  -16.7306   22.6089 C   0  0  0  0  0  0  0  0  0  0  0  0
    9.1072  -16.2170   23.7674 C   0  0  0  0  0  0  0  0  0  0  0  0
   10.3617  -16.3280   23.8883 O   0  0  0  0  0  0  0  0  0  0  0  0
    6.7064  -10.8295   26.3538 C   0  0  0  0  0  0  0  0  0  0  0  0
    5.8633  -12.4222   26.4012 S   0  0  0  0  0  0  0  0  0  0  0  0
    6.8727  -13.7494   25.6813 C   0  0  0  0  0  0  0  0  0  0  0  0
    8.1366  -13.9045   26.5004 C   0  0  0  0  0  0  0  0  0  0  0  0
    8.9875  -15.0382   25.9973 C   0  0  2  0  0  0  0  0  0  0  0  0
    8.3855  -15.5633   24.7998 N   0  0  0  0  0  0  0  0  0  0  0  0
    9.1078  -16.1385   26.9628 C   0  0  0  0  0  0  0  0  0  0  0  0
    9.7516  -15.9534   28.0242 O   0  0  0  0  0  0  0  0  0  0  0  0
    8.5419  -17.3871   26.7637 O   0  0  0  0  0  0  0  0  0  0  0  0
  1  2  1  0
  2  3  2  0
  4  2  1  0
  4  5  1  0
  6  5  1  0
  6  8  1  0
  6  7  1  6
  8  9  2  0
 10  8  1  0
 10 11  1  0
 11 12  1  0
 12 19  1  0
 13 12  2  0
 15 14  1  0
 15 16  1  0
 17 16  1  0
 18 20  1  0
 18 17  1  1
 19 18  1  0
 20 22  1  0
 21 20  2  0
M  END
$$$$
