QGM.pdb
     RDKit          3D

 22 21  0  0  1  0  0  0  0  0999 V2000
    7.8527  -18.2381   14.0378 N   0  0  0  0  0  0  0  0  0  0  0  0
    8.5841  -17.6097   15.0916 C   0  0  0  0  0  0  0  0  0  0  0  0
    8.8406  -16.3852   14.9838 O   0  0  0  0  0  0  0  0  0  0  0  0
    9.0301  -18.3456   16.2727 C   0  0  0  0  0  0  0  0  0  0  0  0
    8.1091  -18.0914   17.4300 C   0  0  0  0  0  0  0  0  0  0  0  0
    8.5965  -18.8657   18.6253 C   0  0  2  0  0  0  0  0  0  0  0  0
    8.2510  -20.2610   18.3879 N   0  0  0  0  0  0  0  0  0  0  0  0
    7.8580  -18.3441   19.8233 C   0  0  0  0  0  0  0  0  0  0  0  0
    6.6195  -18.5192   19.9240 O   0  0  0  0  0  0  0  0  0  0  0  0
    8.5310  -17.6548   20.8489 N   0  0  0  0  0  0  0  0  0  0  0  0
    7.8172  -17.2764   22.0527 C   0  0  0  0  0  0  0  0  0  0  0  0
    8.7549  -16.5583   22.9416 C   0  0  0  0  0  0  0  0  0  0  0  0
   10.0006  -16.4824   22.7338 O   0  0  0  0  0  0  0  0  0  0  0  0
    5.8601  -10.9198   26.1062 C   0  0  0  0  0  0  0  0  0  0  0  0
    6.4775  -12.5092   26.6911 S   0  0  0  0  0  0  0  0  0  0  0  0
    7.6121  -13.2797   25.5004 C   0  0  0  0  0  0  0  0  0  0  0  0
    8.1095  -14.5900   26.0730 C   0  0  0  0  0  0  0  0  0  0  0  0
    9.0252  -15.3016   25.1151 C   0  0  2  0  0  0  0  0  0  0  0  0
    8.2230  -15.9198   24.0921 N   0  0  0  0  0  0  0  0  0  0  0  0
    9.8255  -16.3518   25.7583 C   0  0  0  0  0  0  0  0  0  0  0  0
   10.8810  -16.0350   26.3592 O   0  0  0  0  0  0  0  0  0  0  0  0
    9.4749  -17.6917   25.7380 O   0  0  0  0  0  0  0  0  0  0  0  0
  1  2  1  0
  2  3  2  0
  4  2  1  0
  4  5  1  0
  6  5  1  0
  6  8  1  0
  6  7  1  6
  8  9  2  0
 10  8  1  0
 10 11  1  0
 11 12  1  0
 12 19  1  0
 13 12  2  0
 15 14  1  0
 15 16  1  0
 17 16  1  0
 18 20  1  0
 18 17  1  1
 19 18  1  0
 20 22  1  0
 21 20  2  0
M  END
$$$$
