QGM.pdb
     RDKit          3D

 22 21  0  0  1  0  0  0  0  0999 V2000
   12.7905  -21.3549   22.5745 N   0  0  0  0  0  0  0  0  0  0  0  0
   12.2836  -21.6266   21.2669 C   0  0  0  0  0  0  0  0  0  0  0  0
   13.1063  -21.9108   20.3620 O   0  0  0  0  0  0  0  0  0  0  0  0
   10.8545  -21.5848   20.9647 C   0  0  0  0  0  0  0  0  0  0  0  0
   10.2331  -20.3410   21.5294 C   0  0  0  0  0  0  0  0  0  0  0  0
    9.6021  -19.5554   20.4111 C   0  0  2  0  0  0  0  0  0  0  0  0
   10.4272  -19.7738   19.2305 N   0  0  0  0  0  0  0  0  0  0  0  0
    9.6377  -18.1089   20.8097 C   0  0  0  0  0  0  0  0  0  0  0  0
   10.7333  -17.5002   20.8708 O   0  0  0  0  0  0  0  0  0  0  0  0
    8.4560  -17.4110   21.1203 N   0  0  0  0  0  0  0  0  0  0  0  0
    8.4945  -15.9736   21.3052 C   0  0  0  0  0  0  0  0  0  0  0  0
    8.4588  -15.6914   22.7558 C   0  0  0  0  0  0  0  0  0  0  0  0
    8.3095  -16.5830   23.6409 O   0  0  0  0  0  0  0  0  0  0  0  0
    5.5622  -10.7226   27.8753 C   0  0  0  0  0  0  0  0  0  0  0  0
    5.7439  -11.4194   26.2227 S   0  0  0  0  0  0  0  0  0  0  0  0
    7.0821  -12.6448   26.1431 C   0  0  0  0  0  0  0  0  0  0  0  0
    7.3287  -13.0093   24.6944 C   0  0  0  0  0  0  0  0  0  0  0  0
    8.5233  -13.9110   24.5453 C   0  0  2  0  0  0  0  0  0  0  0  0
    8.6000  -14.3426   23.1742 N   0  0  0  0  0  0  0  0  0  0  0  0
    8.4486  -15.1083   25.3927 C   0  0  0  0  0  0  0  0  0  0  0  0
    9.1407  -15.1618   26.4385 O   0  0  0  0  0  0  0  0  0  0  0  0
    7.6452  -16.1973   25.0972 O   0  0  0  0  0  0  0  0  0  0  0  0
  1  2  1  0
  2  3  2  0
  4  2  1  0
  4  5  1  0
  6  5  1  0
  6  8  1  0
  6  7  1  6
  8  9  2  0
 10  8  1  0
 10 11  1  0
 11 12  1  0
 12 19  1  0
 13 12  2  0
 15 14  1  0
 15 16  1  0
 17 16  1  0
 18 20  1  0
 18 17  1  6
 19 18  1  0
 20 22  1  0
 21 20  2  0
M  END
$$$$
