KPD.pdb
     RDKit          3D

 25 25  0  0  1  0  0  0  0  0999 V2000
    8.6275  -14.2388   21.0763 N   0  0  0  0  0  0  0  0  0  0  0  0
    7.6833  -14.1475   22.1429 C   0  0  1  0  0  0  0  0  0  0  0  0
    6.5890  -15.1788   22.1301 C   0  0  0  0  0  0  0  0  0  0  0  0
    6.8058  -16.3514   21.2582 C   0  0  0  0  0  0  0  0  0  0  0  0
    6.6760  -17.7016   21.8316 C   0  0  0  0  0  0  0  0  0  0  0  0
    7.0047  -18.8551   20.9484 C   0  0  0  0  0  0  0  0  0  0  0  0
    6.8038  -20.1129   21.6791 N   0  0  0  0  0  0  0  0  0  0  0  0
    8.3068  -14.0872   23.4872 C   0  0  0  0  0  0  0  0  0  0  0  0
    9.5229  -14.5005   23.5492 O   0  0  0  0  0  0  0  0  0  0  0  0
    7.7172  -13.6344   24.6740 N   0  0  0  0  0  0  0  0  0  0  0  0
    6.3744  -13.1653   24.8549 C   0  0  0  0  0  0  0  0  0  0  0  0
    6.4589  -12.2015   26.0296 C   0  0  0  0  0  0  0  0  0  0  0  0
    7.8891  -12.2491   26.5103 C   0  0  0  0  0  0  0  0  0  0  0  0
    8.3759  -13.5516   25.9560 C   0  0  1  0  0  0  0  0  0  0  0  0
    8.0441  -14.6417   26.8657 C   0  0  0  0  0  0  0  0  0  0  0  0
    6.9747  -15.2703   26.7492 O   0  0  0  0  0  0  0  0  0  0  0  0
    8.9401  -14.9996   27.9001 N   0  0  0  0  0  0  0  0  0  0  0  0
    9.6819  -16.2446   27.9276 C   0  0  1  0  0  0  0  0  0  0  0  0
   10.4927  -16.4771   26.6731 C   0  0  0  0  0  0  0  0  0  0  0  0
   11.2848  -17.7048   26.7030 C   0  0  0  0  0  0  0  0  0  0  0  0
   11.2432  -18.4479   27.7056 O   0  0  0  0  0  0  0  0  0  0  0  0
   10.5931  -16.3086   29.0955 C   0  0  0  0  0  0  0  0  0  0  0  0
   11.3778  -15.3512   29.3061 O   0  0  0  0  0  0  0  0  0  0  0  0
   12.0814  -18.0507   25.6306 O   0  0  0  0  0  0  0  0  0  0  0  0
   10.6267  -17.3741   29.9720 O   0  0  0  0  0  0  0  0  0  0  0  0
  2  1  1  6
  2  3  1  0
  3  4  1  0
  4  5  1  0
  6  5  1  0
  6  7  1  0
  8  2  1  0
  9  8  2  0
 10  8  1  0
 10 14  1  0
 11 12  1  0
 11 10  1  0
 12 13  1  0
 13 14  1  0
 14 15  1  1
 15 16  2  0
 17 15  1  0
 18 17  1  0
 18 22  1  0
 18 19  1  6
 20 19  1  0
 21 20  2  0
 22 23  2  0
 22 25  1  0
 24 20  1  0
M  END
$$$$
