KPD.pdb
     RDKit          3D

 25 25  0  0  1  0  0  0  0  0999 V2000
    8.2465  -17.7879   17.0212 N   0  0  0  0  0  0  0  0  0  0  0  0
    7.5456  -17.0255   18.0036 C   0  0  1  0  0  0  0  0  0  0  0  0
    6.4534  -17.7570   18.7339 C   0  0  0  0  0  0  0  0  0  0  0  0
    6.3818  -19.2156   18.5122 C   0  0  0  0  0  0  0  0  0  0  0  0
    6.8154  -20.1237   19.5874 C   0  0  0  0  0  0  0  0  0  0  0  0
    6.6859  -21.5871   19.3418 C   0  0  0  0  0  0  0  0  0  0  0  0
    7.1225  -22.3306   20.5303 N   0  0  0  0  0  0  0  0  0  0  0  0
    8.4351  -16.3430   18.9745 C   0  0  0  0  0  0  0  0  0  0  0  0
    9.6576  -16.7416   18.9759 O   0  0  0  0  0  0  0  0  0  0  0  0
    8.0859  -15.3273   19.8732 N   0  0  0  0  0  0  0  0  0  0  0  0
    6.7815  -14.7771   20.1006 C   0  0  0  0  0  0  0  0  0  0  0  0
    7.0418  -13.3551   20.5763 C   0  0  0  0  0  0  0  0  0  0  0  0
    8.5416  -13.2106   20.6684 C   0  0  0  0  0  0  0  0  0  0  0  0
    9.0017  -14.6330   20.7469 C   0  0  1  0  0  0  0  0  0  0  0  0
    8.9712  -15.0968   22.1288 C   0  0  0  0  0  0  0  0  0  0  0  0
    7.9084  -15.4836   22.6515 O   0  0  0  0  0  0  0  0  0  0  0  0
   10.1581  -15.1114   22.8982 N   0  0  0  0  0  0  0  0  0  0  0  0
   10.6791  -16.2956   23.5520 C   0  0  1  0  0  0  0  0  0  0  0  0
   10.9168  -17.4421   22.5959 C   0  0  0  0  0  0  0  0  0  0  0  0
   11.5184  -18.6169   23.2232 C   0  0  0  0  0  0  0  0  0  0  0  0
   11.4630  -18.7574   24.4627 O   0  0  0  0  0  0  0  0  0  0  0  0
   11.9458  -16.0087   24.2671 C   0  0  0  0  0  0  0  0  0  0  0  0
   12.9214  -15.5593   23.6167 O   0  0  0  0  0  0  0  0  0  0  0  0
   12.1499  -19.5744   22.4561 O   0  0  0  0  0  0  0  0  0  0  0  0
   12.1130  -16.2115   25.6219 O   0  0  0  0  0  0  0  0  0  0  0  0
  2  1  1  1
  2  3  1  0
  3  4  1  0
  4  5  1  0
  6  5  1  0
  6  7  1  0
  8  2  1  0
  9  8  2  0
 10  8  1  0
 10 14  1  0
 11 12  1  0
 11 10  1  0
 12 13  1  0
 13 14  1  0
 14 15  1  1
 15 16  2  0
 17 15  1  0
 18 17  1  0
 18 22  1  0
 18 19  1  6
 20 19  1  0
 21 20  2  0
 22 23  2  0
 22 25  1  0
 24 20  1  0
M  END
$$$$
