KPD.pdb
     RDKit          3D

 25 25  0  0  1  0  0  0  0  0999 V2000
    6.0976  -15.1347   22.8315 N   0  0  0  0  0  0  0  0  0  0  0  0
    6.9149  -16.0598   22.1148 C   0  0  1  0  0  0  0  0  0  0  0  0
    7.2248  -15.6841   20.6921 C   0  0  0  0  0  0  0  0  0  0  0  0
    7.8430  -14.3585   20.4857 C   0  0  0  0  0  0  0  0  0  0  0  0
    8.1858  -13.9354   19.1174 C   0  0  0  0  0  0  0  0  0  0  0  0
    8.8248  -12.6000   18.9533 C   0  0  0  0  0  0  0  0  0  0  0  0
    9.0633  -12.3354   17.5288 N   0  0  0  0  0  0  0  0  0  0  0  0
    8.1641  -16.4263   22.8254 C   0  0  0  0  0  0  0  0  0  0  0  0
    8.5582  -15.5859   23.7153 O   0  0  0  0  0  0  0  0  0  0  0  0
    8.9436  -17.5732   22.6300 N   0  0  0  0  0  0  0  0  0  0  0  0
    8.7668  -18.5856   21.6301 C   0  0  0  0  0  0  0  0  0  0  0  0
    9.3538  -19.8452   22.2505 C   0  0  0  0  0  0  0  0  0  0  0  0
    9.9214  -19.4305   23.5864 C   0  0  0  0  0  0  0  0  0  0  0  0
   10.0879  -17.9516   23.4248 C   0  0  1  0  0  0  0  0  0  0  0  0
   11.3705  -17.6544   22.7983 C   0  0  0  0  0  0  0  0  0  0  0  0
   11.5052  -17.7015   21.5606 O   0  0  0  0  0  0  0  0  0  0  0  0
   12.4859  -17.3078   23.5963 N   0  0  0  0  0  0  0  0  0  0  0  0
   13.7486  -16.8436   23.0566 C   0  0  1  0  0  0  0  0  0  0  0  0
   14.4248  -15.8164   23.9357 C   0  0  0  0  0  0  0  0  0  0  0  0
   15.7459  -15.4121   23.4596 C   0  0  0  0  0  0  0  0  0  0  0  0
   15.8471  -14.5440   22.5677 O   0  0  0  0  0  0  0  0  0  0  0  0
   14.6907  -17.9669   22.8351 C   0  0  0  0  0  0  0  0  0  0  0  0
   15.7473  -17.7546   22.1906 O   0  0  0  0  0  0  0  0  0  0  0  0
   16.8858  -15.9834   23.9873 O   0  0  0  0  0  0  0  0  0  0  0  0
   14.4670  -19.2459   23.3026 O   0  0  0  0  0  0  0  0  0  0  0  0
  2  1  1  1
  2  3  1  0
  3  4  1  0
  4  5  1  0
  6  5  1  0
  6  7  1  0
  8  2  1  0
  9  8  2  0
 10  8  1  0
 10 14  1  0
 11 12  1  0
 11 10  1  0
 12 13  1  0
 13 14  1  0
 14 15  1  6
 15 16  2  0
 17 15  1  0
 18 17  1  0
 18 22  1  0
 18 19  1  1
 20 19  1  0
 21 20  2  0
 22 23  2  0
 22 25  1  0
 24 20  1  0
M  END
$$$$
