KPD.pdb
     RDKit          3D

 25 25  0  0  1  0  0  0  0  0999 V2000
    6.9207  -18.7354   18.5977 N   0  0  0  0  0  0  0  0  0  0  0  0
    6.5170  -17.5890   19.3462 C   0  0  1  0  0  0  0  0  0  0  0  0
    5.5231  -17.8488   20.4444 C   0  0  0  0  0  0  0  0  0  0  0  0
    5.4370  -19.2402   20.9326 C   0  0  0  0  0  0  0  0  0  0  0  0
    5.5266  -19.4962   22.3801 C   0  0  0  0  0  0  0  0  0  0  0  0
    5.5320  -20.9176   22.8252 C   0  0  0  0  0  0  0  0  0  0  0  0
    5.4665  -20.9792   24.2909 N   0  0  0  0  0  0  0  0  0  0  0  0
    7.6511  -16.7886   19.8685 C   0  0  0  0  0  0  0  0  0  0  0  0
    8.7933  -17.3791   19.8570 O   0  0  0  0  0  0  0  0  0  0  0  0
    7.6058  -15.4793   20.3635 N   0  0  0  0  0  0  0  0  0  0  0  0
    6.4388  -14.7005   20.6590 C   0  0  0  0  0  0  0  0  0  0  0  0
    6.8844  -13.2566   20.4785 C   0  0  0  0  0  0  0  0  0  0  0  0
    8.3584  -13.3088   20.1568 C   0  0  0  0  0  0  0  0  0  0  0  0
    8.7553  -14.6596   20.6653 C   0  0  1  0  0  0  0  0  0  0  0  0
    9.0777  -14.5885   22.0855 C   0  0  0  0  0  0  0  0  0  0  0  0
    8.2000  -14.3237   22.9292 O   0  0  0  0  0  0  0  0  0  0  0  0
   10.4023  -14.8203   22.5243 N   0  0  0  0  0  0  0  0  0  0  0  0
   10.7407  -15.6693   23.6494 C   0  0  1  0  0  0  0  0  0  0  0  0
   10.1268  -17.0475   23.5551 C   0  0  0  0  0  0  0  0  0  0  0  0
   10.5942  -17.9720   24.5858 C   0  0  0  0  0  0  0  0  0  0  0  0
   10.6738  -17.5922   25.7727 O   0  0  0  0  0  0  0  0  0  0  0  0
   12.2086  -15.8170   23.7966 C   0  0  0  0  0  0  0  0  0  0  0  0
   12.9341  -15.7144   22.7768 O   0  0  0  0  0  0  0  0  0  0  0  0
   10.9505  -19.2643   24.2582 O   0  0  0  0  0  0  0  0  0  0  0  0
   12.8271  -16.0643   25.0052 O   0  0  0  0  0  0  0  0  0  0  0  0
  2  1  1  1
  2  3  1  0
  3  4  1  0
  4  5  1  0
  6  5  1  0
  6  7  1  0
  8  2  1  0
  9  8  2  0
 10  8  1  0
 10 14  1  0
 11 12  1  0
 11 10  1  0
 12 13  1  0
 13 14  1  0
 14 15  1  1
 15 16  2  0
 17 15  1  0
 18 17  1  0
 18 22  1  0
 18 19  1  6
 20 19  1  0
 21 20  2  0
 22 23  2  0
 22 25  1  0
 24 20  1  0
M  END
$$$$
