KPD.pdb
     RDKit          3D

 25 25  0  0  1  0  0  0  0  0999 V2000
    9.1098  -15.2783   14.6433 N   0  0  0  0  0  0  0  0  0  0  0  0
    8.5040  -15.2388   15.9353 C   0  0  1  0  0  0  0  0  0  0  0  0
    7.9004  -16.5325   16.4079 C   0  0  0  0  0  0  0  0  0  0  0  0
    8.7126  -17.7483   16.1977 C   0  0  0  0  0  0  0  0  0  0  0  0
    8.1631  -19.0533   16.6025 C   0  0  0  0  0  0  0  0  0  0  0  0
    8.9695  -20.2644   16.2841 C   0  0  0  0  0  0  0  0  0  0  0  0
    8.3075  -21.4581   16.8254 N   0  0  0  0  0  0  0  0  0  0  0  0
    9.3827  -14.6752   16.9886 C   0  0  0  0  0  0  0  0  0  0  0  0
   10.6294  -14.5985   16.6829 O   0  0  0  0  0  0  0  0  0  0  0  0
    9.0004  -14.2260   18.2588 N   0  0  0  0  0  0  0  0  0  0  0  0
    7.6759  -14.1899   18.8068 C   0  0  0  0  0  0  0  0  0  0  0  0
    7.7085  -13.0514   19.8161 C   0  0  0  0  0  0  0  0  0  0  0  0
    9.1309  -12.5460   19.8339 C   0  0  0  0  0  0  0  0  0  0  0  0
    9.8940  -13.7007   19.2636 C   0  0  1  0  0  0  0  0  0  0  0  0
   10.2292  -14.6523   20.3163 C   0  0  0  0  0  0  0  0  0  0  0  0
    9.3811  -15.4578   20.7455 O   0  0  0  0  0  0  0  0  0  0  0  0
   11.5318  -14.6703   20.8673 N   0  0  0  0  0  0  0  0  0  0  0  0
   12.0005  -15.6829   21.7926 C   0  0  1  0  0  0  0  0  0  0  0  0
   13.4918  -15.6198   22.0318 C   0  0  0  0  0  0  0  0  0  0  0  0
   14.2865  -15.6500   20.8058 C   0  0  0  0  0  0  0  0  0  0  0  0
   13.9618  -16.4133   19.8724 O   0  0  0  0  0  0  0  0  0  0  0  0
   11.3095  -15.5852   23.1008 C   0  0  0  0  0  0  0  0  0  0  0  0
   11.4656  -16.5064   23.9398 O   0  0  0  0  0  0  0  0  0  0  0  0
   15.3964  -14.8413   20.6703 O   0  0  0  0  0  0  0  0  0  0  0  0
   10.4954  -14.5270   23.4498 O   0  0  0  0  0  0  0  0  0  0  0  0
  2  1  1  6
  2  3  1  0
  3  4  1  0
  4  5  1  0
  6  5  1  0
  6  7  1  0
  8  2  1  0
  9  8  2  0
 10  8  1  0
 10 14  1  0
 11 12  1  0
 11 10  1  0
 12 13  1  0
 13 14  1  0
 14 15  1  1
 15 16  2  0
 17 15  1  0
 18 17  1  0
 18 22  1  0
 18 19  1  1
 20 19  1  0
 21 20  2  0
 22 23  2  0
 22 25  1  0
 24 20  1  0
M  END
$$$$
