KPD.pdb
     RDKit          3D

 25 25  0  0  1  0  0  0  0  0999 V2000
   11.7370  -15.7726   16.4031 N   0  0  0  0  0  0  0  0  0  0  0  0
   10.3980  -15.5351   16.8370 C   0  0  1  0  0  0  0  0  0  0  0  0
    9.4107  -16.6238   16.5188 C   0  0  0  0  0  0  0  0  0  0  0  0
    9.5660  -17.8869   17.2686 C   0  0  0  0  0  0  0  0  0  0  0  0
    8.5913  -18.9698   17.0535 C   0  0  0  0  0  0  0  0  0  0  0  0
    8.8347  -20.2600   17.7569 C   0  0  0  0  0  0  0  0  0  0  0  0
    7.7984  -21.2314   17.3850 N   0  0  0  0  0  0  0  0  0  0  0  0
   10.2931  -15.1586   18.2677 C   0  0  0  0  0  0  0  0  0  0  0  0
   11.3175  -15.4470   18.9896 O   0  0  0  0  0  0  0  0  0  0  0  0
    9.2123  -14.5325   18.9010 N   0  0  0  0  0  0  0  0  0  0  0  0
    7.9232  -14.2462   18.3423 C   0  0  0  0  0  0  0  0  0  0  0  0
    7.4320  -13.0292   19.1129 C   0  0  0  0  0  0  0  0  0  0  0  0
    8.4834  -12.7403   20.1569 C   0  0  0  0  0  0  0  0  0  0  0  0
    9.2073  -14.0465   20.2604 C   0  0  1  0  0  0  0  0  0  0  0  0
    8.5268  -14.9263   21.2031 C   0  0  0  0  0  0  0  0  0  0  0  0
    7.5295  -15.5879   20.8566 O   0  0  0  0  0  0  0  0  0  0  0  0
    8.9949  -15.0382   22.5333 N   0  0  0  0  0  0  0  0  0  0  0  0
    9.9378  -16.0477   22.9726 C   0  0  1  0  0  0  0  0  0  0  0  0
   11.2195  -16.0476   22.1711 C   0  0  0  0  0  0  0  0  0  0  0  0
   12.1862  -17.0534   22.6062 C   0  0  0  0  0  0  0  0  0  0  0  0
   12.5879  -17.0599   23.7885 O   0  0  0  0  0  0  0  0  0  0  0  0
   10.2793  -15.8851   24.4063 C   0  0  0  0  0  0  0  0  0  0  0  0
   10.4092  -14.7260   24.8714 O   0  0  0  0  0  0  0  0  0  0  0  0
   12.6613  -17.9981   21.7196 O   0  0  0  0  0  0  0  0  0  0  0  0
   10.4648  -16.9488   25.2656 O   0  0  0  0  0  0  0  0  0  0  0  0
  2  1  1  1
  2  3  1  0
  3  4  1  0
  4  5  1  0
  6  5  1  0
  6  7  1  0
  8  2  1  0
  9  8  2  0
 10  8  1  0
 10 14  1  0
 11 12  1  0
 11 10  1  0
 12 13  1  0
 13 14  1  0
 14 15  1  1
 15 16  2  0
 17 15  1  0
 18 17  1  0
 18 22  1  0
 18 19  1  6
 20 19  1  0
 21 20  2  0
 22 23  2  0
 22 25  1  0
 24 20  1  0
M  END
$$$$
