KPD.pdb
     RDKit          3D

 25 25  0  0  1  0  0  0  0  0999 V2000
    9.6701  -17.0682   16.6127 N   0  0  0  0  0  0  0  0  0  0  0  0
    8.6177  -16.4610   17.3620 C   0  0  1  0  0  0  0  0  0  0  0  0
    7.3647  -17.2807   17.5013 C   0  0  0  0  0  0  0  0  0  0  0  0
    7.5445  -18.6814   17.9343 C   0  0  0  0  0  0  0  0  0  0  0  0
    6.3532  -19.5118   18.1797 C   0  0  0  0  0  0  0  0  0  0  0  0
    6.5760  -20.9407   18.5360 C   0  0  0  0  0  0  0  0  0  0  0  0
    5.2853  -21.6026   18.7643 N   0  0  0  0  0  0  0  0  0  0  0  0
    9.0449  -15.9590   18.6905 C   0  0  0  0  0  0  0  0  0  0  0  0
   10.1572  -16.4341   19.1271 O   0  0  0  0  0  0  0  0  0  0  0  0
    8.3731  -15.0371   19.5030 N   0  0  0  0  0  0  0  0  0  0  0  0
    7.0813  -14.4572   19.2769 C   0  0  0  0  0  0  0  0  0  0  0  0
    7.1345  -13.1119   19.9864 C   0  0  0  0  0  0  0  0  0  0  0  0
    8.4814  -13.0476   20.6650 C   0  0  0  0  0  0  0  0  0  0  0  0
    8.8779  -14.4891   20.7395 C   0  0  1  0  0  0  0  0  0  0  0  0
    8.3156  -15.1051   21.9354 C   0  0  0  0  0  0  0  0  0  0  0  0
    7.1987  -15.6565   21.9074 O   0  0  0  0  0  0  0  0  0  0  0  0
    9.0380  -15.0820   23.1514 N   0  0  0  0  0  0  0  0  0  0  0  0
    9.7898  -16.2110   23.6627 C   0  0  1  0  0  0  0  0  0  0  0  0
   10.7896  -16.7544   22.6675 C   0  0  0  0  0  0  0  0  0  0  0  0
   11.6238  -17.8302   23.1987 C   0  0  0  0  0  0  0  0  0  0  0  0
   12.7050  -17.5593   23.7615 O   0  0  0  0  0  0  0  0  0  0  0  0
   10.5099  -15.8637   24.9114 C   0  0  0  0  0  0  0  0  0  0  0  0
   11.1143  -16.7703   25.5355 O   0  0  0  0  0  0  0  0  0  0  0  0
   11.2269  -19.1468   23.0824 O   0  0  0  0  0  0  0  0  0  0  0  0
   10.5517  -14.5858   25.4307 O   0  0  0  0  0  0  0  0  0  0  0  0
  2  1  1  1
  2  3  1  0
  3  4  1  0
  4  5  1  0
  6  5  1  0
  6  7  1  0
  8  2  1  0
  9  8  2  0
 10  8  1  0
 10 14  1  0
 11 12  1  0
 11 10  1  0
 12 13  1  0
 13 14  1  0
 14 15  1  1
 15 16  2  0
 17 15  1  0
 18 17  1  0
 18 22  1  0
 18 19  1  6
 20 19  1  0
 21 20  2  0
 22 23  2  0
 22 25  1  0
 24 20  1  0
M  END
$$$$
