KPD.pdb
     RDKit          3D

 25 25  0  0  1  0  0  0  0  0999 V2000
    6.4724  -18.3600   27.0909 N   0  0  0  0  0  0  0  0  0  0  0  0
    7.1828  -17.1258   27.1890 C   0  0  1  0  0  0  0  0  0  0  0  0
    8.6637  -17.2468   27.4202 C   0  0  0  0  0  0  0  0  0  0  0  0
    9.0960  -18.3136   28.3459 C   0  0  0  0  0  0  0  0  0  0  0  0
   10.5319  -18.4726   28.6320 C   0  0  0  0  0  0  0  0  0  0  0  0
   10.9383  -19.6335   29.4722 C   0  0  0  0  0  0  0  0  0  0  0  0
   12.3997  -19.6563   29.6139 N   0  0  0  0  0  0  0  0  0  0  0  0
    6.9201  -16.1959   26.0639 C   0  0  0  0  0  0  0  0  0  0  0  0
    6.3667  -16.7244   25.0304 O   0  0  0  0  0  0  0  0  0  0  0  0
    7.2077  -14.8262   26.0132 N   0  0  0  0  0  0  0  0  0  0  0  0
    7.8770  -14.0401   27.0081 C   0  0  0  0  0  0  0  0  0  0  0  0
    7.3314  -12.6324   26.8168 C   0  0  0  0  0  0  0  0  0  0  0  0
    6.4089  -12.6977   25.6236 C   0  0  0  0  0  0  0  0  0  0  0  0
    6.8667  -13.9403   24.9255 C   0  0  1  0  0  0  0  0  0  0  0  0
    7.9808  -13.6366   24.0353 C   0  0  0  0  0  0  0  0  0  0  0  0
    8.7515  -12.6872   24.2744 O   0  0  0  0  0  0  0  0  0  0  0  0
    8.1997  -14.4226   22.8798 N   0  0  0  0  0  0  0  0  0  0  0  0
    9.5110  -14.8500   22.4336 C   0  0  1  0  0  0  0  0  0  0  0  0
   10.3278  -15.4932   23.5309 C   0  0  0  0  0  0  0  0  0  0  0  0
   11.6302  -15.9837   23.0851 C   0  0  0  0  0  0  0  0  0  0  0  0
   11.7668  -17.1824   22.7632 O   0  0  0  0  0  0  0  0  0  0  0  0
    9.4160  -15.7999   21.2991 C   0  0  0  0  0  0  0  0  0  0  0  0
    8.3715  -16.4842   21.1665 O   0  0  0  0  0  0  0  0  0  0  0  0
   12.7138  -15.1319   23.0173 O   0  0  0  0  0  0  0  0  0  0  0  0
   10.4233  -15.9754   20.3723 O   0  0  0  0  0  0  0  0  0  0  0  0
  2  1  1  6
  2  3  1  0
  3  4  1  0
  4  5  1  0
  6  5  1  0
  6  7  1  0
  8  2  1  0
  9  8  2  0
 10  8  1  0
 10 14  1  0
 11 12  1  0
 11 10  1  0
 12 13  1  0
 13 14  1  0
 14 15  1  6
 15 16  2  0
 17 15  1  0
 18 17  1  0
 18 22  1  0
 18 19  1  1
 20 19  1  0
 21 20  2  0
 22 23  2  0
 22 25  1  0
 24 20  1  0
M  END
$$$$
