KPD.pdb
     RDKit          3D

 25 25  0  0  1  0  0  0  0  0999 V2000
    8.2938  -12.7192   19.4500 N   0  0  0  0  0  0  0  0  0  0  0  0
    7.4930  -13.3389   20.4562 C   0  0  1  0  0  0  0  0  0  0  0  0
    6.7386  -14.5646   20.0204 C   0  0  0  0  0  0  0  0  0  0  0  0
    7.5504  -15.7651   19.7350 C   0  0  0  0  0  0  0  0  0  0  0  0
    6.8846  -16.9698   19.2114 C   0  0  0  0  0  0  0  0  0  0  0  0
    7.7236  -18.1845   19.0130 C   0  0  0  0  0  0  0  0  0  0  0  0
    6.8853  -19.2961   18.5463 N   0  0  0  0  0  0  0  0  0  0  0  0
    8.2269  -13.6167   21.7147 C   0  0  0  0  0  0  0  0  0  0  0  0
    9.5064  -13.6808   21.6034 O   0  0  0  0  0  0  0  0  0  0  0  0
    7.6788  -13.8125   22.9884 N   0  0  0  0  0  0  0  0  0  0  0  0
    6.2903  -13.9109   23.3326 C   0  0  0  0  0  0  0  0  0  0  0  0
    6.2162  -13.4263   24.7733 C   0  0  0  0  0  0  0  0  0  0  0  0
    7.6382  -13.1483   25.1970 C   0  0  0  0  0  0  0  0  0  0  0  0
    8.4337  -13.9467   24.2117 C   0  0  1  0  0  0  0  0  0  0  0  0
    8.5748  -15.3220   24.6746 C   0  0  0  0  0  0  0  0  0  0  0  0
    7.6707  -16.1580   24.4845 O   0  0  0  0  0  0  0  0  0  0  0  0
    9.7495  -15.7252   25.3517 N   0  0  0  0  0  0  0  0  0  0  0  0
   10.2796  -17.0737   25.3107 C   0  0  1  0  0  0  0  0  0  0  0  0
   11.6971  -17.1356   24.7889 C   0  0  0  0  0  0  0  0  0  0  0  0
   12.2691  -18.4803   24.7965 C   0  0  0  0  0  0  0  0  0  0  0  0
   13.1455  -18.7790   25.6343 O   0  0  0  0  0  0  0  0  0  0  0  0
   10.2420  -17.7134   26.6478 C   0  0  0  0  0  0  0  0  0  0  0  0
   10.1721  -16.9840   27.6676 O   0  0  0  0  0  0  0  0  0  0  0  0
   11.8492  -19.4253   23.8829 O   0  0  0  0  0  0  0  0  0  0  0  0
   10.2808  -19.0801   26.8344 O   0  0  0  0  0  0  0  0  0  0  0  0
  2  1  1  6
  2  3  1  0
  3  4  1  0
  4  5  1  0
  6  5  1  0
  6  7  1  0
  8  2  1  0
  9  8  2  0
 10  8  1  0
 10 14  1  0
 11 12  1  0
 11 10  1  0
 12 13  1  0
 13 14  1  0
 14 15  1  1
 15 16  2  0
 17 15  1  0
 18 17  1  0
 18 22  1  0
 18 19  1  1
 20 19  1  0
 21 20  2  0
 22 23  2  0
 22 25  1  0
 24 20  1  0
M  END
$$$$
