KPD.pdb
     RDKit          3D

 25 25  0  0  1  0  0  0  0  0999 V2000
    8.8240  -16.6507   15.8313 N   0  0  0  0  0  0  0  0  0  0  0  0
    8.0401  -16.2805   16.9654 C   0  0  1  0  0  0  0  0  0  0  0  0
    7.0800  -17.3271   17.4593 C   0  0  0  0  0  0  0  0  0  0  0  0
    6.5243  -18.2386   16.4384 C   0  0  0  0  0  0  0  0  0  0  0  0
    5.5721  -19.2821   16.8547 C   0  0  0  0  0  0  0  0  0  0  0  0
    5.0718  -20.2114   15.8038 C   0  0  0  0  0  0  0  0  0  0  0  0
    4.2369  -21.2519   16.4176 N   0  0  0  0  0  0  0  0  0  0  0  0
    8.8409  -15.7533   18.0969 C   0  0  0  0  0  0  0  0  0  0  0  0
   10.1011  -16.0036   18.0435 O   0  0  0  0  0  0  0  0  0  0  0  0
    8.3733  -15.0239   19.1972 N   0  0  0  0  0  0  0  0  0  0  0  0
    7.0143  -14.6821   19.5008 C   0  0  0  0  0  0  0  0  0  0  0  0
    7.1127  -13.3962   20.3088 C   0  0  0  0  0  0  0  0  0  0  0  0
    8.5867  -13.1235   20.4869 C   0  0  0  0  0  0  0  0  0  0  0  0
    9.1985  -14.4678   20.2431 C   0  0  1  0  0  0  0  0  0  0  0  0
    9.2042  -15.2495   21.4740 C   0  0  0  0  0  0  0  0  0  0  0  0
    8.1815  -15.8494   21.8566 O   0  0  0  0  0  0  0  0  0  0  0  0
   10.3809  -15.3346   22.2544 N   0  0  0  0  0  0  0  0  0  0  0  0
   10.5551  -16.2689   23.3489 C   0  0  1  0  0  0  0  0  0  0  0  0
   12.0050  -16.4779   23.7221 C   0  0  0  0  0  0  0  0  0  0  0  0
   12.8498  -16.8803   22.5997 C   0  0  0  0  0  0  0  0  0  0  0  0
   13.5506  -16.0300   22.0122 O   0  0  0  0  0  0  0  0  0  0  0  0
    9.8159  -15.8332   24.5581 C   0  0  0  0  0  0  0  0  0  0  0  0
    9.3321  -14.6748   24.5890 O   0  0  0  0  0  0  0  0  0  0  0  0
   12.8794  -18.1949   22.1812 O   0  0  0  0  0  0  0  0  0  0  0  0
    9.6296  -16.6390   25.6628 O   0  0  0  0  0  0  0  0  0  0  0  0
  2  1  1  6
  2  3  1  0
  3  4  1  0
  4  5  1  0
  6  5  1  0
  6  7  1  0
  8  2  1  0
  9  8  2  0
 10  8  1  0
 10 14  1  0
 11 12  1  0
 11 10  1  0
 12 13  1  0
 13 14  1  0
 14 15  1  1
 15 16  2  0
 17 15  1  0
 18 17  1  0
 18 22  1  0
 18 19  1  1
 20 19  1  0
 21 20  2  0
 22 23  2  0
 22 25  1  0
 24 20  1  0
M  END
$$$$
