KPD.pdb
     RDKit          3D

 25 25  0  0  1  0  0  0  0  0999 V2000
    8.6053  -14.7619   21.4586 N   0  0  0  0  0  0  0  0  0  0  0  0
    7.8832  -14.7266   22.6894 C   0  0  1  0  0  0  0  0  0  0  0  0
    6.8339  -15.7907   22.8562 C   0  0  0  0  0  0  0  0  0  0  0  0
    7.3262  -17.1714   23.0391 C   0  0  0  0  0  0  0  0  0  0  0  0
    6.3505  -18.2595   23.2205 C   0  0  0  0  0  0  0  0  0  0  0  0
    5.2785  -18.3960   22.1954 C   0  0  0  0  0  0  0  0  0  0  0  0
    4.3607  -19.4766   22.5778 N   0  0  0  0  0  0  0  0  0  0  0  0
    8.7532  -14.6806   23.8897 C   0  0  0  0  0  0  0  0  0  0  0  0
    9.9960  -14.9352   23.6790 O   0  0  0  0  0  0  0  0  0  0  0  0
    8.3666  -14.3933   25.2046 N   0  0  0  0  0  0  0  0  0  0  0  0
    7.0357  -14.1798   25.6935 C   0  0  0  0  0  0  0  0  0  0  0  0
    7.2110  -13.2696   26.9005 C   0  0  0  0  0  0  0  0  0  0  0  0
    8.6989  -13.0826   27.0733 C   0  0  0  0  0  0  0  0  0  0  0  0
    9.2630  -14.2515   26.3274 C   0  0  1  0  0  0  0  0  0  0  0  0
    9.3193  -15.4226   27.1941 C   0  0  0  0  0  0  0  0  0  0  0  0
    8.2785  -15.9291   27.6551 O   0  0  0  0  0  0  0  0  0  0  0  0
   10.5673  -16.0006   27.5249 N   0  0  0  0  0  0  0  0  0  0  0  0
   10.7119  -17.2005   28.3252 C   0  0  1  0  0  0  0  0  0  0  0  0
   12.0691  -17.8495   28.1769 C   0  0  0  0  0  0  0  0  0  0  0  0
   12.5460  -17.9083   26.7968 C   0  0  0  0  0  0  0  0  0  0  0  0
   13.7213  -17.5816   26.5301 O   0  0  0  0  0  0  0  0  0  0  0  0
   10.4759  -16.9264   29.7631 C   0  0  0  0  0  0  0  0  0  0  0  0
   10.4346  -17.8910   30.5659 O   0  0  0  0  0  0  0  0  0  0  0  0
   11.7065  -18.3217   25.7826 O   0  0  0  0  0  0  0  0  0  0  0  0
   10.2965  -15.6563   30.2721 O   0  0  0  0  0  0  0  0  0  0  0  0
  2  1  1  6
  2  3  1  0
  3  4  1  0
  4  5  1  0
  6  5  1  0
  6  7  1  0
  8  2  1  0
  9  8  2  0
 10  8  1  0
 10 14  1  0
 11 12  1  0
 11 10  1  0
 12 13  1  0
 13 14  1  0
 14 15  1  1
 15 16  2  0
 17 15  1  0
 18 17  1  0
 18 22  1  0
 18 19  1  1
 20 19  1  0
 21 20  2  0
 22 23  2  0
 22 25  1  0
 24 20  1  0
M  END
$$$$
