KPD.pdb
     RDKit          3D

 25 25  0  0  1  0  0  0  0  0999 V2000
    8.6194  -17.4265   17.3361 N   0  0  0  0  0  0  0  0  0  0  0  0
    7.8011  -16.7665   18.3016 C   0  0  1  0  0  0  0  0  0  0  0  0
    6.6458  -17.5707   18.8305 C   0  0  0  0  0  0  0  0  0  0  0  0
    6.7415  -19.0361   18.6705 C   0  0  0  0  0  0  0  0  0  0  0  0
    6.9871  -19.8700   19.8592 C   0  0  0  0  0  0  0  0  0  0  0  0
    7.0941  -21.3413   19.6533 C   0  0  0  0  0  0  0  0  0  0  0  0
    7.3914  -22.0011   20.9310 N   0  0  0  0  0  0  0  0  0  0  0  0
    8.5654  -16.1770   19.4276 C   0  0  0  0  0  0  0  0  0  0  0  0
    9.8085  -16.5023   19.4794 O   0  0  0  0  0  0  0  0  0  0  0  0
    8.0807  -15.3180   20.4217 N   0  0  0  0  0  0  0  0  0  0  0  0
    6.7384  -14.8389   20.5791 C   0  0  0  0  0  0  0  0  0  0  0  0
    6.8887  -13.5001   21.2870 C   0  0  0  0  0  0  0  0  0  0  0  0
    8.3627  -13.3367   21.5686 C   0  0  0  0  0  0  0  0  0  0  0  0
    8.8680  -14.7434   21.4867 C   0  0  1  0  0  0  0  0  0  0  0  0
    8.7064  -15.4123   22.7721 C   0  0  0  0  0  0  0  0  0  0  0  0
    7.6290  -15.9570   23.0800 O   0  0  0  0  0  0  0  0  0  0  0  0
    9.7803  -15.4492   23.6921 N   0  0  0  0  0  0  0  0  0  0  0  0
   10.4591  -16.6670   24.0887 C   0  0  1  0  0  0  0  0  0  0  0  0
   10.9644  -17.4714   22.9127 C   0  0  0  0  0  0  0  0  0  0  0  0
   11.6680  -18.6941   23.2944 C   0  0  0  0  0  0  0  0  0  0  0  0
   11.8181  -18.9745   24.5019 O   0  0  0  0  0  0  0  0  0  0  0  0
   11.6014  -16.3835   24.9905 C   0  0  0  0  0  0  0  0  0  0  0  0
   12.5832  -15.7414   24.5427 O   0  0  0  0  0  0  0  0  0  0  0  0
   12.1704  -19.5433   22.3298 O   0  0  0  0  0  0  0  0  0  0  0  0
   11.6450  -16.7917   26.3081 O   0  0  0  0  0  0  0  0  0  0  0  0
  2  1  1  1
  2  3  1  0
  3  4  1  0
  4  5  1  0
  6  5  1  0
  6  7  1  0
  8  2  1  0
  9  8  2  0
 10  8  1  0
 10 14  1  0
 11 12  1  0
 11 10  1  0
 12 13  1  0
 13 14  1  0
 14 15  1  1
 15 16  2  0
 17 15  1  0
 18 17  1  0
 18 22  1  0
 18 19  1  6
 20 19  1  0
 21 20  2  0
 22 23  2  0
 22 25  1  0
 24 20  1  0
M  END
$$$$
