KPD.pdb
     RDKit          3D

 25 25  0  0  1  0  0  0  0  0999 V2000
    8.9065  -14.9556   21.2948 N   0  0  0  0  0  0  0  0  0  0  0  0
    7.9189  -14.7765   22.3098 C   0  0  1  0  0  0  0  0  0  0  0  0
    6.7773  -15.7549   22.2833 C   0  0  0  0  0  0  0  0  0  0  0  0
    7.1055  -17.1523   22.6320 C   0  0  0  0  0  0  0  0  0  0  0  0
    6.0296  -18.1579   22.6407 C   0  0  0  0  0  0  0  0  0  0  0  0
    6.4052  -19.5597   22.9757 C   0  0  0  0  0  0  0  0  0  0  0  0
    5.2124  -20.4154   22.9397 N   0  0  0  0  0  0  0  0  0  0  0  0
    8.4810  -14.6910   23.6797 C   0  0  0  0  0  0  0  0  0  0  0  0
    9.6700  -15.1609   23.8174 O   0  0  0  0  0  0  0  0  0  0  0  0
    7.8604  -14.1603   24.8174 N   0  0  0  0  0  0  0  0  0  0  0  0
    6.5333  -13.6264   24.9157 C   0  0  0  0  0  0  0  0  0  0  0  0
    6.6090  -12.6153   26.0506 C   0  0  0  0  0  0  0  0  0  0  0  0
    8.0129  -12.7026   26.5985 C   0  0  0  0  0  0  0  0  0  0  0  0
    8.4648  -14.0484   26.1237 C   0  0  1  0  0  0  0  0  0  0  0  0
    8.0444  -15.0813   27.0631 C   0  0  0  0  0  0  0  0  0  0  0  0
    6.9569  -15.6724   26.9208 O   0  0  0  0  0  0  0  0  0  0  0  0
    8.8735  -15.4253   28.1563 N   0  0  0  0  0  0  0  0  0  0  0  0
    9.6052  -16.6730   28.2503 C   0  0  1  0  0  0  0  0  0  0  0  0
   10.4921  -16.9294   27.0533 C   0  0  0  0  0  0  0  0  0  0  0  0
   11.3079  -18.1359   27.1726 C   0  0  0  0  0  0  0  0  0  0  0  0
   11.2360  -18.8363   28.2038 O   0  0  0  0  0  0  0  0  0  0  0  0
   10.4407  -16.7222   29.4743 C   0  0  0  0  0  0  0  0  0  0  0  0
   10.9857  -15.6661   29.8797 O   0  0  0  0  0  0  0  0  0  0  0  0
   12.1603  -18.5087   26.1534 O   0  0  0  0  0  0  0  0  0  0  0  0
   10.6548  -17.8770   30.1988 O   0  0  0  0  0  0  0  0  0  0  0  0
  2  1  1  6
  2  3  1  0
  3  4  1  0
  4  5  1  0
  6  5  1  0
  6  7  1  0
  8  2  1  0
  9  8  2  0
 10  8  1  0
 10 14  1  0
 11 12  1  0
 11 10  1  0
 12 13  1  0
 13 14  1  0
 14 15  1  1
 15 16  2  0
 17 15  1  0
 18 17  1  0
 18 22  1  0
 18 19  1  6
 20 19  1  0
 21 20  2  0
 22 23  2  0
 22 25  1  0
 24 20  1  0
M  END
$$$$
