KPD.pdb
     RDKit          3D

 25 25  0  0  1  0  0  0  0  0999 V2000
    8.6923  -14.8326   20.4718 N   0  0  0  0  0  0  0  0  0  0  0  0
    7.7428  -14.5843   21.5083 C   0  0  1  0  0  0  0  0  0  0  0  0
    6.4725  -15.3851   21.4291 C   0  0  0  0  0  0  0  0  0  0  0  0
    6.6221  -16.8541   21.4690 C   0  0  0  0  0  0  0  0  0  0  0  0
    5.4300  -17.6988   21.2841 C   0  0  0  0  0  0  0  0  0  0  0  0
    5.6245  -19.1751   21.3192 C   0  0  0  0  0  0  0  0  0  0  0  0
    4.3359  -19.8506   21.1209 N   0  0  0  0  0  0  0  0  0  0  0  0
    8.3141  -14.6744   22.8740 C   0  0  0  0  0  0  0  0  0  0  0  0
    9.4816  -15.2084   22.9484 O   0  0  0  0  0  0  0  0  0  0  0  0
    7.7229  -14.2451   24.0687 N   0  0  0  0  0  0  0  0  0  0  0  0
    6.4378  -13.6306   24.2320 C   0  0  0  0  0  0  0  0  0  0  0  0
    6.5762  -12.7772   25.4844 C   0  0  0  0  0  0  0  0  0  0  0  0
    7.9644  -13.0360   26.0181 C   0  0  0  0  0  0  0  0  0  0  0  0
    8.3208  -14.3419   25.3792 C   0  0  1  0  0  0  0  0  0  0  0  0
    7.8163  -15.4497   26.1817 C   0  0  0  0  0  0  0  0  0  0  0  0
    6.6546  -15.8738   26.0300 O   0  0  0  0  0  0  0  0  0  0  0  0
    8.6471  -16.0594   27.1507 N   0  0  0  0  0  0  0  0  0  0  0  0
    9.1522  -17.4136   27.0407 C   0  0  1  0  0  0  0  0  0  0  0  0
    9.8614  -17.6751   25.7315 C   0  0  0  0  0  0  0  0  0  0  0  0
   10.3941  -19.0305   25.6109 C   0  0  0  0  0  0  0  0  0  0  0  0
   10.2343  -19.8471   26.5420 O   0  0  0  0  0  0  0  0  0  0  0  0
   10.0789  -17.7399   28.1512 C   0  0  0  0  0  0  0  0  0  0  0  0
   11.1594  -17.1071   28.2456 O   0  0  0  0  0  0  0  0  0  0  0  0
   11.0750  -19.4170   24.4746 O   0  0  0  0  0  0  0  0  0  0  0  0
    9.8164  -18.7113   29.0955 O   0  0  0  0  0  0  0  0  0  0  0  0
  2  1  1  6
  2  3  1  0
  3  4  1  0
  4  5  1  0
  6  5  1  0
  6  7  1  0
  8  2  1  0
  9  8  2  0
 10  8  1  0
 10 14  1  0
 11 12  1  0
 11 10  1  0
 12 13  1  0
 13 14  1  0
 14 15  1  1
 15 16  2  0
 17 15  1  0
 18 17  1  0
 18 22  1  0
 18 19  1  6
 20 19  1  0
 21 20  2  0
 22 23  2  0
 22 25  1  0
 24 20  1  0
M  END
$$$$
