MCY.pdb
     RDKit          3D

 27 27  0  0  1  0  0  0  0  0999 V2000
    8.1425  -12.2056   19.9857 C   0  0  0  0  0  0  0  0  0  0  0  0
    8.4346  -12.6052   18.2338 S   0  0  0  0  0  0  0  0  0  0  0  0
    8.2191  -14.3775   17.9531 C   0  0  0  0  0  0  0  0  0  0  0  0
    9.0568  -15.1914   18.9283 C   0  0  0  0  0  0  0  0  0  0  0  0
    8.8102  -16.6776   18.7383 C   0  0  2  0  0  0  0  0  0  0  0  0
    7.5845  -16.9072   18.0139 N   0  0  0  0  0  0  0  0  0  0  0  0
    8.7705  -17.3106   20.0905 C   0  0  0  0  0  0  0  0  0  0  0  0
    7.9537  -18.2601   20.2672 O   0  0  0  0  0  0  0  0  0  0  0  0
    9.6307  -16.8254   21.0831 N   0  0  0  0  0  0  0  0  0  0  0  0
    9.9703  -17.6366   22.2166 C   0  0  1  0  0  0  0  0  0  0  0  0
   10.8238  -18.8419   21.7983 C   0  0  0  0  0  0  0  0  0  0  0  0
   11.2928  -19.8357   23.2143 S   0  0  0  0  0  0  0  0  0  0  0  0
   10.8269  -16.8782   23.1913 C   0  0  0  0  0  0  0  0  0  0  0  0
   11.7607  -16.1644   22.7511 O   0  0  0  0  0  0  0  0  0  0  0  0
    5.8445  -11.4607   27.3055 O   0  0  0  0  0  0  0  0  0  0  0  0
    6.5551  -12.4421   26.6545 C   0  0  0  0  0  0  0  0  0  0  0  0
    5.8832  -13.6071   26.3364 C   0  0  0  0  0  0  0  0  0  0  0  0
    6.5606  -14.6151   25.6835 C   0  0  0  0  0  0  0  0  0  0  0  0
    7.9037  -14.4898   25.3363 C   0  0  0  0  0  0  0  0  0  0  0  0
    8.5817  -15.5970   24.6619 C   0  0  0  0  0  0  0  0  0  0  0  0
    9.8929  -15.9232   25.3340 C   0  0  2  0  0  0  0  0  0  0  0  0
   10.6094  -16.9473   24.5823 N   0  0  0  0  0  0  0  0  0  0  0  0
    9.7310  -16.3775   26.7230 C   0  0  0  0  0  0  0  0  0  0  0  0
    9.1427  -17.5802   27.0602 O   0  0  0  0  0  0  0  0  0  0  0  0
    8.5801  -13.3339   25.6490 C   0  0  0  0  0  0  0  0  0  0  0  0
    7.8801  -12.3387   26.3031 C   0  0  0  0  0  0  0  0  0  0  0  0
   10.1392  -15.6501   27.6599 O   0  0  0  0  0  0  0  0  0  0  0  0
  2  1  1  0
  3  2  1  0
  4  5  1  0
  4  3  1  0
  5  6  1  1
  7  8  2  0
  7  5  1  0
  9  7  1  0
 10  9  1  0
 10 11  1  6
 12 11  1  0
 13 14  2  0
 13 10  1  0
 16 15  1  0
 17 16  2  0
 18 17  1  0
 19 25  1  0
 19 18  2  0
 20 19  1  0
 21 22  1  0
 21 20  1  6
 22 13  1  0
 23 21  1  0
 24 23  1  0
 25 26  2  0
 26 16  1  0
 27 23  2  0
M  END
$$$$
