MCY.pdb
     RDKit          3D

 27 27  0  0  1  0  0  0  0  0999 V2000
    8.0455  -11.5674   18.3872 C   0  0  0  0  0  0  0  0  0  0  0  0
    6.9125  -12.9424   18.7611 S   0  0  0  0  0  0  0  0  0  0  0  0
    7.8398  -14.3651   19.3793 C   0  0  0  0  0  0  0  0  0  0  0  0
    8.6515  -13.9953   20.6120 C   0  0  0  0  0  0  0  0  0  0  0  0
    9.4012  -15.2037   21.1444 C   0  0  2  0  0  0  0  0  0  0  0  0
    9.4972  -16.2333   20.1392 N   0  0  0  0  0  0  0  0  0  0  0  0
    8.6785  -15.6918   22.3569 C   0  0  0  0  0  0  0  0  0  0  0  0
    8.3911  -14.8409   23.2475 O   0  0  0  0  0  0  0  0  0  0  0  0
    8.3597  -17.0524   22.4446 N   0  0  0  0  0  0  0  0  0  0  0  0
    7.7981  -17.5956   23.6479 C   0  0  1  0  0  0  0  0  0  0  0  0
    7.5642  -19.1069   23.5161 C   0  0  0  0  0  0  0  0  0  0  0  0
    6.0477  -19.4602   22.6286 S   0  0  0  0  0  0  0  0  0  0  0  0
    8.7475  -17.4525   24.8042 C   0  0  0  0  0  0  0  0  0  0  0  0
    9.9815  -17.5345   24.5900 O   0  0  0  0  0  0  0  0  0  0  0  0
    6.4680  -11.4448   25.8161 O   0  0  0  0  0  0  0  0  0  0  0  0
    7.0205  -12.5581   26.4052 C   0  0  0  0  0  0  0  0  0  0  0  0
    6.1653  -13.5929   26.7334 C   0  0  0  0  0  0  0  0  0  0  0  0
    6.6805  -14.7265   27.3257 C   0  0  0  0  0  0  0  0  0  0  0  0
    8.0397  -14.8558   27.6016 C   0  0  0  0  0  0  0  0  0  0  0  0
    8.5327  -16.0713   28.2497 C   0  0  0  0  0  0  0  0  0  0  0  0
    9.1807  -16.9973   27.2497 C   0  0  2  0  0  0  0  0  0  0  0  0
    8.2897  -17.2291   26.1186 N   0  0  0  0  0  0  0  0  0  0  0  0
    9.5631  -18.2937   27.8285 C   0  0  0  0  0  0  0  0  0  0  0  0
    8.9957  -19.4908   27.4397 O   0  0  0  0  0  0  0  0  0  0  0  0
    8.8979  -13.8310   27.2784 C   0  0  0  0  0  0  0  0  0  0  0  0
    8.3582  -12.7058   26.6860 C   0  0  0  0  0  0  0  0  0  0  0  0
   10.4438  -18.3336   28.7209 O   0  0  0  0  0  0  0  0  0  0  0  0
  2  1  1  0
  3  2  1  0
  4  5  1  0
  4  3  1  0
  5  6  1  6
  7  8  2  0
  7  5  1  0
  9  7  1  0
 10  9  1  0
 10 11  1  6
 12 11  1  0
 13 14  2  0
 13 10  1  0
 16 15  1  0
 17 16  2  0
 18 17  1  0
 19 25  1  0
 19 18  2  0
 20 19  1  0
 21 22  1  0
 21 20  1  1
 22 13  1  0
 23 21  1  0
 24 23  1  0
 25 26  2  0
 26 16  1  0
 27 23  2  0
M  END
$$$$
