MCY.pdb
     RDKit          3D

 27 27  0  0  1  0  0  0  0  0999 V2000
    8.2248  -12.0332   19.1777 C   0  0  0  0  0  0  0  0  0  0  0  0
    7.7369  -13.6458   18.4883 S   0  0  0  0  0  0  0  0  0  0  0  0
    7.4686  -14.8386   19.8193 C   0  0  0  0  0  0  0  0  0  0  0  0
    8.2782  -14.4715   21.0542 C   0  0  0  0  0  0  0  0  0  0  0  0
    7.9346  -15.3888   22.2144 C   0  0  2  0  0  0  0  0  0  0  0  0
    6.5112  -15.6056   22.2947 N   0  0  0  0  0  0  0  0  0  0  0  0
    8.4615  -14.7622   23.4636 C   0  0  0  0  0  0  0  0  0  0  0  0
    9.7118  -14.5905   23.5484 O   0  0  0  0  0  0  0  0  0  0  0  0
    7.5536  -14.4008   24.4665 N   0  0  0  0  0  0  0  0  0  0  0  0
    8.0190  -13.9031   25.7291 C   0  0  1  0  0  0  0  0  0  0  0  0
    7.1250  -12.7638   26.2380 C   0  0  0  0  0  0  0  0  0  0  0  0
    5.4404  -13.3186   26.4966 S   0  0  0  0  0  0  0  0  0  0  0  0
    7.9383  -14.9606   26.7939 C   0  0  0  0  0  0  0  0  0  0  0  0
    7.0268  -15.8210   26.7269 O   0  0  0  0  0  0  0  0  0  0  0  0
    6.3334  -21.4011   26.5983 O   0  0  0  0  0  0  0  0  0  0  0  0
    7.1864  -20.3250   26.6768 C   0  0  0  0  0  0  0  0  0  0  0  0
    8.1113  -20.3218   27.7037 C   0  0  0  0  0  0  0  0  0  0  0  0
    8.9845  -19.2606   27.8167 C   0  0  0  0  0  0  0  0  0  0  0  0
    8.9587  -18.1923   26.9232 C   0  0  0  0  0  0  0  0  0  0  0  0
    9.8938  -17.0810   27.0990 C   0  0  0  0  0  0  0  0  0  0  0  0
    9.5190  -16.2373   28.2928 C   0  0  2  0  0  0  0  0  0  0  0  0
    8.8566  -15.0114   27.8621 N   0  0  0  0  0  0  0  0  0  0  0  0
   10.6722  -15.8853   29.1343 C   0  0  0  0  0  0  0  0  0  0  0  0
   11.2416  -14.6276   29.1469 O   0  0  0  0  0  0  0  0  0  0  0  0
    8.0416  -18.1872   25.8984 C   0  0  0  0  0  0  0  0  0  0  0  0
    7.1776  -19.2611   25.8061 C   0  0  0  0  0  0  0  0  0  0  0  0
   11.1775  -16.7569   29.8818 O   0  0  0  0  0  0  0  0  0  0  0  0
  2  1  1  0
  3  2  1  0
  4  5  1  0
  4  3  1  0
  5  6  1  1
  7  8  2  0
  7  5  1  0
  9  7  1  0
 10  9  1  0
 10 11  1  1
 12 11  1  0
 13 14  2  0
 13 10  1  0
 16 15  1  0
 17 16  2  0
 18 17  1  0
 19 25  1  0
 19 18  2  0
 20 19  1  0
 21 22  1  0
 21 20  1  6
 22 13  1  0
 23 21  1  0
 24 23  1  0
 25 26  2  0
 26 16  1  0
 27 23  2  0
M  END
$$$$
