MCY.pdb
     RDKit          3D

 27 27  0  0  1  0  0  0  0  0999 V2000
    9.1079  -11.9271   19.7760 C   0  0  0  0  0  0  0  0  0  0  0  0
    7.3234  -12.1863   19.5257 S   0  0  0  0  0  0  0  0  0  0  0  0
    7.0296  -13.7829   18.7316 C   0  0  0  0  0  0  0  0  0  0  0  0
    7.2897  -14.9300   19.6970 C   0  0  0  0  0  0  0  0  0  0  0  0
    8.7714  -15.0448   20.0086 C   0  0  2  0  0  0  0  0  0  0  0  0
    9.5232  -15.3681   18.8213 N   0  0  0  0  0  0  0  0  0  0  0  0
    8.9371  -16.0923   21.0604 C   0  0  0  0  0  0  0  0  0  0  0  0
    8.2402  -15.9813   22.1101 O   0  0  0  0  0  0  0  0  0  0  0  0
    9.8462  -17.1326   20.8327 N   0  0  0  0  0  0  0  0  0  0  0  0
   10.2205  -18.0218   21.8946 C   0  0  1  0  0  0  0  0  0  0  0  0
   10.9974  -19.2309   21.3556 C   0  0  0  0  0  0  0  0  0  0  0  0
   12.7428  -18.8632   21.1806 S   0  0  0  0  0  0  0  0  0  0  0  0
   11.1645  -17.3549   22.8552 C   0  0  0  0  0  0  0  0  0  0  0  0
   11.6818  -16.2572   22.5344 O   0  0  0  0  0  0  0  0  0  0  0  0
   10.2656  -13.5174   30.3414 O   0  0  0  0  0  0  0  0  0  0  0  0
   10.2553  -14.1953   29.1446 C   0  0  0  0  0  0  0  0  0  0  0  0
    9.9049  -15.5318   29.1752 C   0  0  0  0  0  0  0  0  0  0  0  0
    9.8826  -16.2465   27.9962 C   0  0  0  0  0  0  0  0  0  0  0  0
   10.2038  -15.6568   26.7759 C   0  0  0  0  0  0  0  0  0  0  0  0
   10.1841  -16.4644   25.5561 C   0  0  0  0  0  0  0  0  0  0  0  0
   11.5001  -17.1739   25.3513 C   0  0  2  0  0  0  0  0  0  0  0  0
   11.4830  -17.9281   24.1030 N   0  0  0  0  0  0  0  0  0  0  0  0
   11.8411  -18.0850   26.4538 C   0  0  0  0  0  0  0  0  0  0  0  0
   11.2582  -19.3261   26.6152 O   0  0  0  0  0  0  0  0  0  0  0  0
   10.5537  -14.3274   26.7362 C   0  0  0  0  0  0  0  0  0  0  0  0
   10.5688  -13.6327   27.9300 C   0  0  0  0  0  0  0  0  0  0  0  0
   12.6993  -17.7343   27.2989 O   0  0  0  0  0  0  0  0  0  0  0  0
  2  1  1  0
  3  2  1  0
  4  5  1  0
  4  3  1  0
  5  6  1  6
  7  8  2  0
  7  5  1  0
  9  7  1  0
 10  9  1  0
 10 11  1  6
 12 11  1  0
 13 14  2  0
 13 10  1  0
 16 15  1  0
 17 16  2  0
 18 17  1  0
 19 25  1  0
 19 18  2  0
 20 19  1  0
 21 22  1  0
 21 20  1  1
 22 13  1  0
 23 21  1  0
 24 23  1  0
 25 26  2  0
 26 16  1  0
 27 23  2  0
M  END
$$$$
