MCY.pdb
     RDKit          3D

 27 27  0  0  1  0  0  0  0  0999 V2000
    7.2151  -20.6051   16.2249 C   0  0  0  0  0  0  0  0  0  0  0  0
    7.8726  -20.0217   17.8190 S   0  0  0  0  0  0  0  0  0  0  0  0
    8.1456  -18.2359   17.7660 C   0  0  0  0  0  0  0  0  0  0  0  0
    8.7452  -17.7353   19.0718 C   0  0  0  0  0  0  0  0  0  0  0  0
    8.9520  -16.2316   19.0266 C   0  0  2  0  0  0  0  0  0  0  0  0
    9.9563  -15.8795   18.0535 N   0  0  0  0  0  0  0  0  0  0  0  0
    9.3403  -15.7826   20.3972 C   0  0  0  0  0  0  0  0  0  0  0  0
   10.5387  -15.9704   20.7556 O   0  0  0  0  0  0  0  0  0  0  0  0
    8.3677  -15.1829   21.2066 N   0  0  0  0  0  0  0  0  0  0  0  0
    8.6679  -14.8172   22.5610 C   0  0  1  0  0  0  0  0  0  0  0  0
    7.4414  -14.2081   23.2543 C   0  0  0  0  0  0  0  0  0  0  0  0
    7.7448  -13.9319   24.9990 S   0  0  0  0  0  0  0  0  0  0  0  0
    9.0164  -16.0243   23.3858 C   0  0  0  0  0  0  0  0  0  0  0  0
    8.2527  -17.0200   23.3572 O   0  0  0  0  0  0  0  0  0  0  0  0
   16.3405  -15.5115   23.1078 O   0  0  0  0  0  0  0  0  0  0  0  0
   15.1351  -16.1306   23.3435 C   0  0  0  0  0  0  0  0  0  0  0  0
   14.9760  -16.7677   24.5596 C   0  0  0  0  0  0  0  0  0  0  0  0
   13.7819  -17.4002   24.8342 C   0  0  0  0  0  0  0  0  0  0  0  0
   12.7325  -17.4138   23.9184 C   0  0  0  0  0  0  0  0  0  0  0  0
   11.4930  -18.1165   24.2507 C   0  0  0  0  0  0  0  0  0  0  0  0
   10.5429  -17.2185   25.0043 C   0  0  2  0  0  0  0  0  0  0  0  0
   10.1747  -16.0672   24.1880 N   0  0  0  0  0  0  0  0  0  0  0  0
   11.0926  -16.7405   26.2815 C   0  0  0  0  0  0  0  0  0  0  0  0
   11.5661  -17.5875   27.2637 O   0  0  0  0  0  0  0  0  0  0  0  0
   12.8822  -16.7824   22.7059 C   0  0  0  0  0  0  0  0  0  0  0  0
   14.0872  -16.1559   22.4540 C   0  0  0  0  0  0  0  0  0  0  0  0
   11.1402  -15.5077   26.5082 O   0  0  0  0  0  0  0  0  0  0  0  0
  2  1  1  0
  3  2  1  0
  4  5  1  0
  4  3  1  0
  5  6  1  6
  7  8  2  0
  7  5  1  0
  9  7  1  0
 10  9  1  0
 10 11  1  1
 12 11  1  0
 13 14  2  0
 13 10  1  0
 16 15  1  0
 17 16  2  0
 18 17  1  0
 19 25  1  0
 19 18  2  0
 20 19  1  0
 21 22  1  0
 21 20  1  6
 22 13  1  0
 23 21  1  0
 24 23  1  0
 25 26  2  0
 26 16  1  0
 27 23  2  0
M  END
$$$$
