MCY.pdb
     RDKit          3D

 27 27  0  0  1  0  0  0  0  0999 V2000
    7.4365  -11.3793   26.1106 C   0  0  0  0  0  0  0  0  0  0  0  0
    5.9673  -12.0371   26.9608 S   0  0  0  0  0  0  0  0  0  0  0  0
    5.5229  -13.6515   26.2808 C   0  0  0  0  0  0  0  0  0  0  0  0
    6.6457  -14.2100   25.4191 C   0  0  0  0  0  0  0  0  0  0  0  0
    6.2189  -15.5067   24.7543 C   0  0  2  0  0  0  0  0  0  0  0  0
    5.8631  -16.4973   25.7400 N   0  0  0  0  0  0  0  0  0  0  0  0
    7.3487  -15.9735   23.8961 C   0  0  0  0  0  0  0  0  0  0  0  0
    8.0824  -16.8989   24.3489 O   0  0  0  0  0  0  0  0  0  0  0  0
    7.5358  -15.3686   22.6472 N   0  0  0  0  0  0  0  0  0  0  0  0
    8.6778  -15.6930   21.8416 C   0  0  1  0  0  0  0  0  0  0  0  0
    8.6382  -14.9478   20.5002 C   0  0  0  0  0  0  0  0  0  0  0  0
   10.1232  -15.2449   19.5416 S   0  0  0  0  0  0  0  0  0  0  0  0
    9.9521  -15.2391   22.4965 C   0  0  0  0  0  0  0  0  0  0  0  0
   10.2067  -14.0110   22.5428 O   0  0  0  0  0  0  0  0  0  0  0  0
   11.8416  -15.6659   30.7173 O   0  0  0  0  0  0  0  0  0  0  0  0
   11.4192  -15.6727   29.4083 C   0  0  0  0  0  0  0  0  0  0  0  0
   11.1914  -16.9030   28.8213 C   0  0  0  0  0  0  0  0  0  0  0  0
   10.7670  -16.9524   27.5103 C   0  0  0  0  0  0  0  0  0  0  0  0
   10.5620  -15.7952   26.7626 C   0  0  0  0  0  0  0  0  0  0  0  0
   10.1304  -15.9028   25.3688 C   0  0  0  0  0  0  0  0  0  0  0  0
   11.3094  -16.0938   24.4466 C   0  0  2  0  0  0  0  0  0  0  0  0
   10.8657  -16.1538   23.0585 N   0  0  0  0  0  0  0  0  0  0  0  0
   12.0885  -17.3033   24.7504 C   0  0  0  0  0  0  0  0  0  0  0  0
   11.8147  -18.5370   24.1944 O   0  0  0  0  0  0  0  0  0  0  0  0
   10.7862  -14.5667   27.3387 C   0  0  0  0  0  0  0  0  0  0  0  0
   11.2109  -14.5431   28.6530 C   0  0  0  0  0  0  0  0  0  0  0  0
   13.0505  -17.2304   25.5521 O   0  0  0  0  0  0  0  0  0  0  0  0
  2  1  1  0
  3  2  1  0
  4  5  1  0
  4  3  1  0
  5  6  1  1
  7  8  2  0
  7  5  1  0
  9  7  1  0
 10  9  1  0
 10 11  1  6
 12 11  1  0
 13 14  2  0
 13 10  1  0
 16 15  1  0
 17 16  2  0
 18 17  1  0
 19 25  1  0
 19 18  2  0
 20 19  1  0
 21 22  1  0
 21 20  1  1
 22 13  1  0
 23 21  1  0
 24 23  1  0
 25 26  2  0
 26 16  1  0
 27 23  2  0
M  END
$$$$
