MCY.pdb
     RDKit          3D

 27 27  0  0  1  0  0  0  0  0999 V2000
    6.4863  -11.8881   19.2465 C   0  0  0  0  0  0  0  0  0  0  0  0
    7.6816  -12.9425   18.3671 S   0  0  0  0  0  0  0  0  0  0  0  0
    8.0369  -14.4261   19.3361 C   0  0  0  0  0  0  0  0  0  0  0  0
    9.1119  -15.2711   18.6684 C   0  0  0  0  0  0  0  0  0  0  0  0
    9.3697  -16.5389   19.4632 C   0  0  2  0  0  0  0  0  0  0  0  0
    8.2823  -17.4733   19.3084 N   0  0  0  0  0  0  0  0  0  0  0  0
    9.5556  -16.1514   20.8936 C   0  0  0  0  0  0  0  0  0  0  0  0
   10.4451  -15.2910   21.1548 O   0  0  0  0  0  0  0  0  0  0  0  0
    8.7439  -16.7545   21.8621 N   0  0  0  0  0  0  0  0  0  0  0  0
    8.9090  -16.4412   23.2525 C   0  0  1  0  0  0  0  0  0  0  0  0
    7.9511  -17.2662   24.1229 C   0  0  0  0  0  0  0  0  0  0  0  0
    6.3132  -17.3469   23.3994 S   0  0  0  0  0  0  0  0  0  0  0  0
   10.2833  -16.8125   23.7342 C   0  0  0  0  0  0  0  0  0  0  0  0
   10.9121  -17.7188   23.1354 O   0  0  0  0  0  0  0  0  0  0  0  0
    9.2635  -15.0551   30.6746 O   0  0  0  0  0  0  0  0  0  0  0  0
   10.1354  -15.1690   29.6170 C   0  0  0  0  0  0  0  0  0  0  0  0
    9.9316  -14.3354   28.5337 C   0  0  0  0  0  0  0  0  0  0  0  0
   10.7843  -14.4189   27.4534 C   0  0  0  0  0  0  0  0  0  0  0  0
   11.8452  -15.3211   27.4254 C   0  0  0  0  0  0  0  0  0  0  0  0
   12.7090  -15.3838   26.2463 C   0  0  0  0  0  0  0  0  0  0  0  0
   12.2425  -16.4497   25.2852 C   0  0  2  0  0  0  0  0  0  0  0  0
   10.8826  -16.1715   24.8374 N   0  0  0  0  0  0  0  0  0  0  0  0
   12.2877  -17.8027   25.8591 C   0  0  0  0  0  0  0  0  0  0  0  0
   11.1574  -18.5561   26.1059 O   0  0  0  0  0  0  0  0  0  0  0  0
   12.0553  -16.1545   28.4989 C   0  0  0  0  0  0  0  0  0  0  0  0
   11.1880  -16.0522   29.5692 C   0  0  0  0  0  0  0  0  0  0  0  0
   13.3973  -18.3125   26.1463 O   0  0  0  0  0  0  0  0  0  0  0  0
  2  1  1  0
  3  2  1  0
  4  5  1  0
  4  3  1  0
  5  6  1  1
  7  8  2  0
  7  5  1  0
  9  7  1  0
 10  9  1  0
 10 11  1  1
 12 11  1  0
 13 14  2  0
 13 10  1  0
 16 15  1  0
 17 16  2  0
 18 17  1  0
 19 25  1  0
 19 18  2  0
 20 19  1  0
 21 22  1  0
 21 20  1  1
 22 13  1  0
 23 21  1  0
 24 23  1  0
 25 26  2  0
 26 16  1  0
 27 23  2  0
M  END
$$$$
