MCY.pdb
     RDKit          3D

 27 27  0  0  1  0  0  0  0  0999 V2000
    4.9952  -11.3369   26.8465 C   0  0  0  0  0  0  0  0  0  0  0  0
    6.4430  -12.1374   26.0868 S   0  0  0  0  0  0  0  0  0  0  0  0
    5.9940  -13.7700   25.4550 C   0  0  0  0  0  0  0  0  0  0  0  0
    7.2015  -14.4755   24.8553 C   0  0  0  0  0  0  0  0  0  0  0  0
    6.7906  -15.7840   24.2036 C   0  0  2  0  0  0  0  0  0  0  0  0
    6.2422  -16.6942   25.1784 N   0  0  0  0  0  0  0  0  0  0  0  0
    7.9965  -16.3609   23.5374 C   0  0  0  0  0  0  0  0  0  0  0  0
    8.6211  -17.2745   24.1499 O   0  0  0  0  0  0  0  0  0  0  0  0
    8.3698  -15.8658   22.2820 N   0  0  0  0  0  0  0  0  0  0  0  0
    9.5129  -16.3973   21.5970 C   0  0  1  0  0  0  0  0  0  0  0  0
    9.5598  -15.9132   20.1411 C   0  0  0  0  0  0  0  0  0  0  0  0
    8.1143  -16.4477   19.2261 S   0  0  0  0  0  0  0  0  0  0  0  0
   10.7929  -15.9013   22.2089 C   0  0  0  0  0  0  0  0  0  0  0  0
   11.1446  -14.7144   22.0019 O   0  0  0  0  0  0  0  0  0  0  0  0
   11.3226  -15.0209   30.5656 O   0  0  0  0  0  0  0  0  0  0  0  0
   11.1376  -15.4053   29.2580 C   0  0  0  0  0  0  0  0  0  0  0  0
   10.9991  -14.4039   28.3156 C   0  0  0  0  0  0  0  0  0  0  0  0
   10.8120  -14.7482   26.9936 C   0  0  0  0  0  0  0  0  0  0  0  0
   10.7591  -16.0783   26.5834 C   0  0  0  0  0  0  0  0  0  0  0  0
   10.5385  -16.3903   25.1711 C   0  0  0  0  0  0  0  0  0  0  0  0
   11.8463  -16.4948   24.4256 C   0  0  2  0  0  0  0  0  0  0  0  0
   11.6059  -16.7317   23.0067 N   0  0  0  0  0  0  0  0  0  0  0  0
   12.7220  -17.5560   24.9442 C   0  0  0  0  0  0  0  0  0  0  0  0
   12.4718  -18.9006   24.7555 O   0  0  0  0  0  0  0  0  0  0  0  0
   10.8959  -17.0812   27.5144 C   0  0  0  0  0  0  0  0  0  0  0  0
   11.0823  -16.7113   28.8322 C   0  0  0  0  0  0  0  0  0  0  0  0
   13.7492  -17.2439   25.5930 O   0  0  0  0  0  0  0  0  0  0  0  0
  2  1  1  0
  3  2  1  0
  4  5  1  0
  4  3  1  0
  5  6  1  1
  7  8  2  0
  7  5  1  0
  9  7  1  0
 10  9  1  0
 10 11  1  6
 12 11  1  0
 13 14  2  0
 13 10  1  0
 16 15  1  0
 17 16  2  0
 18 17  1  0
 19 25  1  0
 19 18  2  0
 20 19  1  0
 21 22  1  0
 21 20  1  1
 22 13  1  0
 23 21  1  0
 24 23  1  0
 25 26  2  0
 26 16  1  0
 27 23  2  0
M  END
$$$$
