MCY.pdb
     RDKit          3D

 27 27  0  0  1  0  0  0  0  0999 V2000
    7.9286  -11.8288   26.5592 C   0  0  0  0  0  0  0  0  0  0  0  0
    6.5481  -12.0418   25.3918 S   0  0  0  0  0  0  0  0  0  0  0  0
    6.0960  -13.7874   25.2711 C   0  0  0  0  0  0  0  0  0  0  0  0
    7.3216  -14.6537   25.0208 C   0  0  0  0  0  0  0  0  0  0  0  0
    7.0386  -15.6871   23.9447 C   0  0  2  0  0  0  0  0  0  0  0  0
    5.9605  -16.5595   24.3401 N   0  0  0  0  0  0  0  0  0  0  0  0
    8.2984  -16.4525   23.7040 C   0  0  0  0  0  0  0  0  0  0  0  0
    8.5136  -17.4661   24.4293 O   0  0  0  0  0  0  0  0  0  0  0  0
    9.1676  -16.0130   22.6979 N   0  0  0  0  0  0  0  0  0  0  0  0
   10.3952  -16.7084   22.4374 C   0  0  1  0  0  0  0  0  0  0  0  0
   11.0503  -16.2079   21.1426 C   0  0  0  0  0  0  0  0  0  0  0  0
   10.0878  -16.6661   19.7018 S   0  0  0  0  0  0  0  0  0  0  0  0
   11.4112  -16.4394   23.5117 C   0  0  0  0  0  0  0  0  0  0  0  0
   11.4222  -15.3148   24.0689 O   0  0  0  0  0  0  0  0  0  0  0  0
   10.4671  -14.2445   30.0854 O   0  0  0  0  0  0  0  0  0  0  0  0
   10.6731  -15.1728   29.0917 C   0  0  0  0  0  0  0  0  0  0  0  0
    9.7599  -15.2058   28.0548 C   0  0  0  0  0  0  0  0  0  0  0  0
    9.9314  -16.1223   27.0390 C   0  0  0  0  0  0  0  0  0  0  0  0
   11.0004  -17.0152   27.0305 C   0  0  0  0  0  0  0  0  0  0  0  0
   11.1258  -17.9816   25.9393 C   0  0  0  0  0  0  0  0  0  0  0  0
   12.4809  -17.8880   25.2818 C   0  0  2  0  0  0  0  0  0  0  0  0
   12.3489  -17.4142   23.9087 N   0  0  0  0  0  0  0  0  0  0  0  0
   13.2084  -19.1657   25.2770 C   0  0  0  0  0  0  0  0  0  0  0  0
   13.0617  -20.1143   24.2845 O   0  0  0  0  0  0  0  0  0  0  0  0
   11.9138  -16.9894   28.0584 C   0  0  0  0  0  0  0  0  0  0  0  0
   11.7207  -16.0626   29.0643 C   0  0  0  0  0  0  0  0  0  0  0  0
   14.0035  -19.4247   26.2121 O   0  0  0  0  0  0  0  0  0  0  0  0
  2  1  1  0
  3  2  1  0
  4  5  1  0
  4  3  1  0
  5  6  1  1
  7  8  2  0
  7  5  1  0
  9  7  1  0
 10  9  1  0
 10 11  1  6
 12 11  1  0
 13 14  2  0
 13 10  1  0
 16 15  1  0
 17 16  2  0
 18 17  1  0
 19 25  1  0
 19 18  2  0
 20 19  1  0
 21 22  1  0
 21 20  1  6
 22 13  1  0
 23 21  1  0
 24 23  1  0
 25 26  2  0
 26 16  1  0
 27 23  2  0
M  END
$$$$
