MCY.pdb
     RDKit          3D

 27 27  0  0  1  0  0  0  0  0999 V2000
    6.0566  -20.4514   23.0768 C   0  0  0  0  0  0  0  0  0  0  0  0
    7.1173  -21.0581   21.7275 S   0  0  0  0  0  0  0  0  0  0  0  0
    7.7582  -19.6696   20.7644 C   0  0  0  0  0  0  0  0  0  0  0  0
    6.6579  -18.6656   20.4535 C   0  0  0  0  0  0  0  0  0  0  0  0
    7.2023  -17.5078   19.6356 C   0  0  2  0  0  0  0  0  0  0  0  0
    7.9693  -17.9873   18.5124 N   0  0  0  0  0  0  0  0  0  0  0  0
    8.0342  -16.6601   20.5412 C   0  0  0  0  0  0  0  0  0  0  0  0
    9.2891  -16.8105   20.4924 O   0  0  0  0  0  0  0  0  0  0  0  0
    7.3887  -15.7518   21.3892 N   0  0  0  0  0  0  0  0  0  0  0  0
    8.1437  -14.9305   22.2912 C   0  0  1  0  0  0  0  0  0  0  0  0
    7.2173  -14.1064   23.1961 C   0  0  0  0  0  0  0  0  0  0  0  0
    8.1479  -12.9831   24.2374 S   0  0  0  0  0  0  0  0  0  0  0  0
    8.9593  -15.7677   23.2360 C   0  0  0  0  0  0  0  0  0  0  0  0
    8.4224  -16.7603   23.7854 O   0  0  0  0  0  0  0  0  0  0  0  0
   10.2230  -13.5415   30.1153 O   0  0  0  0  0  0  0  0  0  0  0  0
   10.1930  -14.3129   28.9770 C   0  0  0  0  0  0  0  0  0  0  0  0
   10.9439  -15.4732   28.9766 C   0  0  0  0  0  0  0  0  0  0  0  0
   10.9403  -16.2740   27.8542 C   0  0  0  0  0  0  0  0  0  0  0  0
   10.1999  -15.9444   26.7213 C   0  0  0  0  0  0  0  0  0  0  0  0
   10.2461  -16.8181   25.5487 C   0  0  0  0  0  0  0  0  0  0  0  0
   11.1161  -16.2299   24.4650 C   0  0  2  0  0  0  0  0  0  0  0  0
   10.3072  -15.4684   23.5200 N   0  0  0  0  0  0  0  0  0  0  0  0
   11.8820  -17.2449   23.7268 C   0  0  0  0  0  0  0  0  0  0  0  0
   12.7964  -18.0862   24.3287 O   0  0  0  0  0  0  0  0  0  0  0  0
    9.4499  -14.7916   26.7130 C   0  0  0  0  0  0  0  0  0  0  0  0
    9.4696  -14.0059   27.8490 C   0  0  0  0  0  0  0  0  0  0  0  0
   11.7112  -17.3657   22.4899 O   0  0  0  0  0  0  0  0  0  0  0  0
  2  1  1  0
  3  2  1  0
  4  5  1  0
  4  3  1  0
  5  6  1  6
  7  8  2  0
  7  5  1  0
  9  7  1  0
 10  9  1  0
 10 11  1  1
 12 11  1  0
 13 14  2  0
 13 10  1  0
 16 15  1  0
 17 16  2  0
 18 17  1  0
 19 25  1  0
 19 18  2  0
 20 19  1  0
 21 22  1  0
 21 20  1  1
 22 13  1  0
 23 21  1  0
 24 23  1  0
 25 26  2  0
 26 16  1  0
 27 23  2  0
M  END
$$$$
