MCY.pdb
     RDKit          3D

 27 27  0  0  1  0  0  0  0  0999 V2000
   10.2866  -21.6931   16.9977 C   0  0  0  0  0  0  0  0  0  0  0  0
    8.7878  -20.6612   17.0493 S   0  0  0  0  0  0  0  0  0  0  0  0
    9.1968  -18.9457   16.6543 C   0  0  0  0  0  0  0  0  0  0  0  0
    7.9399  -18.0954   16.5434 C   0  0  0  0  0  0  0  0  0  0  0  0
    8.2903  -16.6627   16.1822 C   0  0  2  0  0  0  0  0  0  0  0  0
    9.1174  -16.6174   15.0018 N   0  0  0  0  0  0  0  0  0  0  0  0
    8.9827  -16.0520   17.3563 C   0  0  0  0  0  0  0  0  0  0  0  0
   10.2302  -16.2337   17.4581 O   0  0  0  0  0  0  0  0  0  0  0  0
    8.2228  -15.3172   18.2746 N   0  0  0  0  0  0  0  0  0  0  0  0
    8.8265  -14.7837   19.4618 C   0  0  1  0  0  0  0  0  0  0  0  0
    7.8092  -13.9852   20.2886 C   0  0  0  0  0  0  0  0  0  0  0  0
    7.3322  -12.4713   19.4561 S   0  0  0  0  0  0  0  0  0  0  0  0
    9.2893  -15.8820   20.3774 C   0  0  0  0  0  0  0  0  0  0  0  0
    8.5925  -16.9209   20.4797 O   0  0  0  0  0  0  0  0  0  0  0  0
   14.3646  -21.0596   25.2701 O   0  0  0  0  0  0  0  0  0  0  0  0
   13.8896  -20.0045   24.5265 C   0  0  0  0  0  0  0  0  0  0  0  0
   13.7212  -20.2089   23.1701 C   0  0  0  0  0  0  0  0  0  0  0  0
   13.2471  -19.1757   22.3898 C   0  0  0  0  0  0  0  0  0  0  0  0
   12.9334  -17.9319   22.9328 C   0  0  0  0  0  0  0  0  0  0  0  0
   12.4526  -16.8623   22.0581 C   0  0  0  0  0  0  0  0  0  0  0  0
   10.9447  -16.8053   22.0456 C   0  0  2  0  0  0  0  0  0  0  0  0
   10.4817  -15.7760   21.1217 N   0  0  0  0  0  0  0  0  0  0  0  0
   10.3668  -16.5487   23.3731 C   0  0  0  0  0  0  0  0  0  0  0  0
    9.7899  -15.3449   23.7253 O   0  0  0  0  0  0  0  0  0  0  0  0
   13.0980  -17.7197   24.2816 C   0  0  0  0  0  0  0  0  0  0  0  0
   13.5743  -18.7698   25.0423 C   0  0  0  0  0  0  0  0  0  0  0  0
   10.3917  -17.4544   24.2406 O   0  0  0  0  0  0  0  0  0  0  0  0
  2  1  1  0
  3  2  1  0
  4  5  1  0
  4  3  1  0
  5  6  1  6
  7  8  2  0
  7  5  1  0
  9  7  1  0
 10  9  1  0
 10 11  1  1
 12 11  1  0
 13 14  2  0
 13 10  1  0
 16 15  1  0
 17 16  2  0
 18 17  1  0
 19 25  1  0
 19 18  2  0
 20 19  1  0
 21 22  1  0
 21 20  1  1
 22 13  1  0
 23 21  1  0
 24 23  1  0
 25 26  2  0
 26 16  1  0
 27 23  2  0
M  END
$$$$
