MCY.pdb
     RDKit          3D

 27 27  0  0  1  0  0  0  0  0999 V2000
    7.6696  -12.4070   21.4200 C   0  0  0  0  0  0  0  0  0  0  0  0
    8.4040  -11.9322   19.8234 S   0  0  0  0  0  0  0  0  0  0  0  0
    8.1475  -13.2413   18.6042 C   0  0  0  0  0  0  0  0  0  0  0  0
    7.5434  -14.4796   19.2501 C   0  0  0  0  0  0  0  0  0  0  0  0
    8.5291  -15.6343   19.2244 C   0  0  2  0  0  0  0  0  0  0  0  0
    8.3801  -16.4111   18.0185 N   0  0  0  0  0  0  0  0  0  0  0  0
    8.2897  -16.4664   20.4414 C   0  0  0  0  0  0  0  0  0  0  0  0
    7.1386  -16.9696   20.5877 O   0  0  0  0  0  0  0  0  0  0  0  0
    9.3412  -16.6445   21.3488 N   0  0  0  0  0  0  0  0  0  0  0  0
    9.1825  -17.4942   22.4939 C   0  0  1  0  0  0  0  0  0  0  0  0
    9.9775  -18.7970   22.3305 C   0  0  0  0  0  0  0  0  0  0  0  0
   11.6278  -18.4835   21.7056 S   0  0  0  0  0  0  0  0  0  0  0  0
    9.7464  -16.8517   23.7301 C   0  0  0  0  0  0  0  0  0  0  0  0
   10.7254  -16.0745   23.6176 O   0  0  0  0  0  0  0  0  0  0  0  0
    6.3353  -11.2789   25.7144 O   0  0  0  0  0  0  0  0  0  0  0  0
    6.8545  -12.4993   26.0788 C   0  0  0  0  0  0  0  0  0  0  0  0
    8.2120  -12.5621   26.3302 C   0  0  0  0  0  0  0  0  0  0  0  0
    8.7709  -13.7677   26.6983 C   0  0  0  0  0  0  0  0  0  0  0  0
    8.0033  -14.9233   26.8232 C   0  0  0  0  0  0  0  0  0  0  0  0
    8.6485  -16.1820   27.1972 C   0  0  0  0  0  0  0  0  0  0  0  0
    9.7567  -16.5331   26.2349 C   0  0  2  0  0  0  0  0  0  0  0  0
    9.2059  -17.0984   25.0085 N   0  0  0  0  0  0  0  0  0  0  0  0
   10.7318  -17.4779   26.7991 C   0  0  0  0  0  0  0  0  0  0  0  0
   11.7000  -17.1086   27.7116 O   0  0  0  0  0  0  0  0  0  0  0  0
    6.6517  -14.8699   26.5749 C   0  0  0  0  0  0  0  0  0  0  0  0
    6.1151  -13.6512   26.2078 C   0  0  0  0  0  0  0  0  0  0  0  0
   10.6991  -18.6808   26.4449 O   0  0  0  0  0  0  0  0  0  0  0  0
  2  1  1  0
  3  2  1  0
  4  5  1  0
  4  3  1  0
  5  6  1  6
  7  8  2  0
  7  5  1  0
  9  7  1  0
 10  9  1  0
 10 11  1  6
 12 11  1  0
 13 14  2  0
 13 10  1  0
 16 15  1  0
 17 16  2  0
 18 17  1  0
 19 25  1  0
 19 18  2  0
 20 19  1  0
 21 22  1  0
 21 20  1  1
 22 13  1  0
 23 21  1  0
 24 23  1  0
 25 26  2  0
 26 16  1  0
 27 23  2  0
M  END
$$$$
