MCY.pdb
     RDKit          3D

 27 27  0  0  1  0  0  0  0  0999 V2000
    8.0446  -11.7924   19.9738 C   0  0  0  0  0  0  0  0  0  0  0  0
    7.7899  -12.9406   18.5843 S   0  0  0  0  0  0  0  0  0  0  0  0
    8.0423  -14.6454   19.1286 C   0  0  0  0  0  0  0  0  0  0  0  0
    8.7404  -14.6904   20.4799 C   0  0  0  0  0  0  0  0  0  0  0  0
    8.9774  -16.1258   20.9148 C   0  0  2  0  0  0  0  0  0  0  0  0
    8.3285  -17.0491   20.0171 N   0  0  0  0  0  0  0  0  0  0  0  0
    8.4645  -16.2709   22.3101 C   0  0  0  0  0  0  0  0  0  0  0  0
    8.6208  -15.2912   23.0947 O   0  0  0  0  0  0  0  0  0  0  0  0
    7.8433  -17.4719   22.6741 N   0  0  0  0  0  0  0  0  0  0  0  0
    7.3722  -17.6743   24.0141 C   0  0  1  0  0  0  0  0  0  0  0  0
    6.9380  -19.1301   24.2337 C   0  0  0  0  0  0  0  0  0  0  0  0
    5.4733  -19.5279   23.2804 S   0  0  0  0  0  0  0  0  0  0  0  0
    8.4681  -17.4441   25.0165 C   0  0  0  0  0  0  0  0  0  0  0  0
    9.6484  -17.7329   24.7024 O   0  0  0  0  0  0  0  0  0  0  0  0
    6.1495  -11.3340   25.2548 O   0  0  0  0  0  0  0  0  0  0  0  0
    6.8319  -12.3184   25.9307 C   0  0  0  0  0  0  0  0  0  0  0  0
    6.1044  -13.1188   26.7910 C   0  0  0  0  0  0  0  0  0  0  0  0
    6.7522  -14.1173   27.4873 C   0  0  0  0  0  0  0  0  0  0  0  0
    8.1199  -14.3401   27.3462 C   0  0  0  0  0  0  0  0  0  0  0  0
    8.7629  -15.4000   28.1232 C   0  0  0  0  0  0  0  0  0  0  0  0
    9.2531  -16.5111   27.2276 C   0  0  2  0  0  0  0  0  0  0  0  0
    8.2057  -16.9138   26.2960 N   0  0  0  0  0  0  0  0  0  0  0  0
    9.7079  -17.6940   27.9733 C   0  0  0  0  0  0  0  0  0  0  0  0
   10.8733  -17.7177   28.7133 O   0  0  0  0  0  0  0  0  0  0  0  0
    8.8516  -13.5484   26.4924 C   0  0  0  0  0  0  0  0  0  0  0  0
    8.1805  -12.5549   25.8061 C   0  0  0  0  0  0  0  0  0  0  0  0
    9.0181  -18.7413   27.9461 O   0  0  0  0  0  0  0  0  0  0  0  0
  2  1  1  0
  3  2  1  0
  4  5  1  0
  4  3  1  0
  5  6  1  6
  7  8  2  0
  7  5  1  0
  9  7  1  0
 10  9  1  0
 10 11  1  6
 12 11  1  0
 13 14  2  0
 13 10  1  0
 16 15  1  0
 17 16  2  0
 18 17  1  0
 19 25  1  0
 19 18  2  0
 20 19  1  0
 21 22  1  0
 21 20  1  1
 22 13  1  0
 23 21  1  0
 24 23  1  0
 25 26  2  0
 26 16  1  0
 27 23  2  0
M  END
$$$$
