MCY.pdb
     RDKit          3D

 27 27  0  0  1  0  0  0  0  0999 V2000
    8.8621  -11.8661   19.9812 C   0  0  0  0  0  0  0  0  0  0  0  0
    7.4009  -12.3771   19.0231 S   0  0  0  0  0  0  0  0  0  0  0  0
    7.4943  -14.1395   18.6342 C   0  0  0  0  0  0  0  0  0  0  0  0
    8.8575  -14.5023   18.0639 C   0  0  0  0  0  0  0  0  0  0  0  0
    8.9371  -15.9892   17.7661 C   0  0  2  0  0  0  0  0  0  0  0  0
    7.8864  -16.3900   16.8634 N   0  0  0  0  0  0  0  0  0  0  0  0
    8.8477  -16.7206   19.0653 C   0  0  0  0  0  0  0  0  0  0  0  0
    7.6986  -17.0729   19.4592 O   0  0  0  0  0  0  0  0  0  0  0  0
   10.0285  -16.9759   19.7732 N   0  0  0  0  0  0  0  0  0  0  0  0
   10.0053  -17.7580   20.9758 C   0  0  1  0  0  0  0  0  0  0  0  0
   11.0714  -18.8617   20.9386 C   0  0  0  0  0  0  0  0  0  0  0  0
   12.6836  -18.2013   20.5177 S   0  0  0  0  0  0  0  0  0  0  0  0
   10.3576  -16.9229   22.1746 C   0  0  0  0  0  0  0  0  0  0  0  0
   11.0877  -15.9141   22.0182 O   0  0  0  0  0  0  0  0  0  0  0  0
   10.6303  -14.0064   30.4767 O   0  0  0  0  0  0  0  0  0  0  0  0
   10.3050  -14.6929   29.3301 C   0  0  0  0  0  0  0  0  0  0  0  0
    9.6404  -13.9950   28.3395 C   0  0  0  0  0  0  0  0  0  0  0  0
    9.2966  -14.6478   27.1746 C   0  0  0  0  0  0  0  0  0  0  0  0
    9.6016  -15.9915   26.9703 C   0  0  0  0  0  0  0  0  0  0  0  0
    9.1968  -16.6426   25.7243 C   0  0  0  0  0  0  0  0  0  0  0  0
   10.2549  -16.4873   24.6597 C   0  0  2  0  0  0  0  0  0  0  0  0
    9.8908  -17.2420   23.4659 N   0  0  0  0  0  0  0  0  0  0  0  0
   11.5886  -16.9162   25.1060 C   0  0  0  0  0  0  0  0  0  0  0  0
   11.9696  -18.2411   25.1814 O   0  0  0  0  0  0  0  0  0  0  0  0
   10.2626  -16.6936   27.9508 C   0  0  0  0  0  0  0  0  0  0  0  0
   10.5963  -16.0181   29.1086 C   0  0  0  0  0  0  0  0  0  0  0  0
   12.4335  -16.0512   25.4401 O   0  0  0  0  0  0  0  0  0  0  0  0
  2  1  1  0
  3  2  1  0
  4  5  1  0
  4  3  1  0
  5  6  1  6
  7  8  2  0
  7  5  1  0
  9  7  1  0
 10  9  1  0
 10 11  1  6
 12 11  1  0
 13 14  2  0
 13 10  1  0
 16 15  1  0
 17 16  2  0
 18 17  1  0
 19 25  1  0
 19 18  2  0
 20 19  1  0
 21 22  1  0
 21 20  1  1
 22 13  1  0
 23 21  1  0
 24 23  1  0
 25 26  2  0
 26 16  1  0
 27 23  2  0
M  END
$$$$
