AVA.pdb
     RDKit          3D

 18 17  0  0  1  0  0  0  0  0999 V2000
    6.4796  -16.7800   21.9966 C   0  0  0  0  0  0  0  0  0  0  0  0
    6.8858  -15.3444   21.9675 C   0  0  2  0  0  0  0  0  0  0  0  0
    7.5956  -15.1056   20.7253 N   0  0  0  0  0  0  0  0  0  0  0  0
    7.6856  -14.8844   23.0832 C   0  0  0  0  0  0  0  0  0  0  0  0
    8.9481  -14.9065   23.0052 O   0  0  0  0  0  0  0  0  0  0  0  0
    6.3994  -11.8721   25.6311 C   0  0  0  0  0  0  0  0  0  0  0  0
    6.9319  -13.0813   26.3451 C   0  0  2  0  0  0  0  0  0  0  0  0
    7.8065  -12.5983   27.4838 C   0  0  0  0  0  0  0  0  0  0  0  0
    7.8070  -13.8929   25.4115 C   0  0  2  0  0  0  0  0  0  0  0  0
    7.0767  -14.4022   24.2801 N   0  0  0  0  0  0  0  0  0  0  0  0
    8.4061  -15.0196   26.2132 C   0  0  0  0  0  0  0  0  0  0  0  0
    7.6755  -15.9145   26.7041 O   0  0  0  0  0  0  0  0  0  0  0  0
   11.7733  -16.4971   26.5946 C   0  0  0  0  0  0  0  0  0  0  0  0
   10.3794  -16.2442   27.0933 C   0  0  2  0  0  0  0  0  0  0  0  0
    9.8121  -15.0851   26.4257 N   0  0  0  0  0  0  0  0  0  0  0  0
   10.4016  -15.9826   28.5625 C   0  0  0  0  0  0  0  0  0  0  0  0
   10.6120  -17.0195   29.4603 O   0  0  0  0  0  0  0  0  0  0  0  0
   10.2325  -14.8323   29.0179 O   0  0  0  0  0  0  0  0  0  0  0  0
  2  1  1  1
  3  2  1  0
  4 10  1  0
  4  2  1  0
  5  4  2  0
  7  6  1  6
  7  9  1  0
  8  7  1  0
  9 11  1  0
  9 10  1  6
 11 15  1  0
 12 11  2  0
 14 16  1  0
 14 13  1  6
 15 14  1  0
 16 17  1  0
 18 16  2  0
M  END
$$$$
