AVA.pdb
     RDKit          3D

 18 17  0  0  1  0  0  0  0  0999 V2000
    6.7353  -18.7293   17.7418 C   0  0  0  0  0  0  0  0  0  0  0  0
    7.3484  -17.4232   17.3616 C   0  0  2  0  0  0  0  0  0  0  0  0
    8.1705  -17.6402   16.1864 N   0  0  0  0  0  0  0  0  0  0  0  0
    8.1272  -16.7610   18.3868 C   0  0  0  0  0  0  0  0  0  0  0  0
    9.3474  -17.0573   18.5415 O   0  0  0  0  0  0  0  0  0  0  0  0
    7.2242  -12.8756   19.6505 C   0  0  0  0  0  0  0  0  0  0  0  0
    7.4869  -13.8505   20.7622 C   0  0  2  0  0  0  0  0  0  0  0  0
    8.3513  -13.1544   21.7932 C   0  0  0  0  0  0  0  0  0  0  0  0
    8.2695  -15.0377   20.2386 C   0  0  2  0  0  0  0  0  0  0  0  0
    7.5446  -15.7723   19.2348 N   0  0  0  0  0  0  0  0  0  0  0  0
    8.5989  -15.9206   21.4146 C   0  0  0  0  0  0  0  0  0  0  0  0
    7.6867  -16.3878   22.1393 O   0  0  0  0  0  0  0  0  0  0  0  0
   11.1608  -18.2292   22.3867 C   0  0  0  0  0  0  0  0  0  0  0  0
   10.2423  -17.1277   22.8325 C   0  0  2  0  0  0  0  0  0  0  0  0
    9.9523  -16.2380   21.7211 N   0  0  0  0  0  0  0  0  0  0  0  0
   10.8856  -16.3345   23.9207 C   0  0  0  0  0  0  0  0  0  0  0  0
   11.2808  -15.0230   23.6983 O   0  0  0  0  0  0  0  0  0  0  0  0
   11.0833  -16.8272   25.0509 O   0  0  0  0  0  0  0  0  0  0  0  0
  2  1  1  1
  3  2  1  0
  4 10  1  0
  4  2  1  0
  5  4  2  0
  7  6  1  6
  7  9  1  0
  8  7  1  0
  9 11  1  0
  9 10  1  6
 11 15  1  0
 12 11  2  0
 14 16  1  0
 14 13  1  6
 15 14  1  0
 16 17  1  0
 18 16  2  0
M  END
$$$$
