AVA.pdb
     RDKit          3D

 18 17  0  0  1  0  0  0  0  0999 V2000
    4.8617  -18.7701   21.5844 C   0  0  0  0  0  0  0  0  0  0  0  0
    5.2528  -17.9562   20.3964 C   0  0  2  0  0  0  0  0  0  0  0  0
    5.2735  -18.8329   19.2410 N   0  0  0  0  0  0  0  0  0  0  0  0
    6.5114  -17.2474   20.4943 C   0  0  0  0  0  0  0  0  0  0  0  0
    7.5923  -17.8399   20.2097 O   0  0  0  0  0  0  0  0  0  0  0  0
    6.8359  -13.1673   19.7456 C   0  0  0  0  0  0  0  0  0  0  0  0
    7.4877  -13.6118   21.0235 C   0  0  2  0  0  0  0  0  0  0  0  0
    8.8210  -12.9013   21.1341 C   0  0  0  0  0  0  0  0  0  0  0  0
    7.7676  -15.1002   20.9740 C   0  0  2  0  0  0  0  0  0  0  0  0
    6.5610  -15.8828   20.9084 N   0  0  0  0  0  0  0  0  0  0  0  0
    8.5691  -15.4539   22.2002 C   0  0  0  0  0  0  0  0  0  0  0  0
    8.0598  -15.3684   23.3442 O   0  0  0  0  0  0  0  0  0  0  0  0
   10.5182  -17.6439   23.6389 C   0  0  0  0  0  0  0  0  0  0  0  0
   10.6807  -16.1954   23.2770 C   0  0  2  0  0  0  0  0  0  0  0  0
    9.9183  -15.8910   22.0782 N   0  0  0  0  0  0  0  0  0  0  0  0
   12.1183  -15.8919   23.0156 C   0  0  0  0  0  0  0  0  0  0  0  0
   13.0198  -15.7895   24.0656 O   0  0  0  0  0  0  0  0  0  0  0  0
   12.5436  -15.7236   21.8536 O   0  0  0  0  0  0  0  0  0  0  0  0
  2  1  1  1
  3  2  1  0
  4 10  1  0
  4  2  1  0
  5  4  2  0
  7  6  1  6
  7  9  1  0
  8  7  1  0
  9 11  1  0
  9 10  1  1
 11 15  1  0
 12 11  2  0
 14 16  1  0
 14 13  1  6
 15 14  1  0
 16 17  1  0
 18 16  2  0
M  END
$$$$
