AVA.pdb
     RDKit          3D

 18 17  0  0  1  0  0  0  0  0999 V2000
    8.3059  -18.9766   17.8756 C   0  0  0  0  0  0  0  0  0  0  0  0
    8.5643  -17.5850   17.4031 C   0  0  2  0  0  0  0  0  0  0  0  0
    9.4473  -17.6594   16.2546 N   0  0  0  0  0  0  0  0  0  0  0  0
    9.1123  -16.6698   18.3819 C   0  0  0  0  0  0  0  0  0  0  0  0
   10.3658  -16.5758   18.5247 O   0  0  0  0  0  0  0  0  0  0  0  0
    7.5535  -12.9462   19.5920 C   0  0  0  0  0  0  0  0  0  0  0  0
    7.7003  -13.9813   20.6701 C   0  0  2  0  0  0  0  0  0  0  0  0
    8.2204  -13.2858   21.9113 C   0  0  0  0  0  0  0  0  0  0  0  0
    8.7304  -15.0148   20.2618 C   0  0  2  0  0  0  0  0  0  0  0  0
    8.2629  -15.8636   19.1971 N   0  0  0  0  0  0  0  0  0  0  0  0
    9.0696  -15.8276   21.4847 C   0  0  0  0  0  0  0  0  0  0  0  0
    8.2175  -16.5896   22.0031 O   0  0  0  0  0  0  0  0  0  0  0  0
   12.1742  -16.8675   23.2223 C   0  0  0  0  0  0  0  0  0  0  0  0
   10.6963  -16.6015   23.1944 C   0  0  2  0  0  0  0  0  0  0  0  0
   10.3641  -15.7425   22.0706 N   0  0  0  0  0  0  0  0  0  0  0  0
   10.2756  -15.9202   24.4537 C   0  0  0  0  0  0  0  0  0  0  0  0
   10.3113  -16.5944   25.6661 O   0  0  0  0  0  0  0  0  0  0  0  0
    9.8834  -14.7347   24.4487 O   0  0  0  0  0  0  0  0  0  0  0  0
  2  1  1  1
  3  2  1  0
  4 10  1  0
  4  2  1  0
  5  4  2  0
  7  6  1  6
  7  9  1  0
  8  7  1  0
  9 11  1  0
  9 10  1  6
 11 15  1  0
 12 11  2  0
 14 16  1  0
 14 13  1  1
 15 14  1  0
 16 17  1  0
 18 16  2  0
M  END
$$$$
