AVA.pdb
     RDKit          3D

 18 17  0  0  1  0  0  0  0  0999 V2000
    6.2214  -16.1826   21.4176 C   0  0  0  0  0  0  0  0  0  0  0  0
    6.7569  -14.7983   21.5711 C   0  0  2  0  0  0  0  0  0  0  0  0
    7.5000  -14.4705   20.3693 N   0  0  0  0  0  0  0  0  0  0  0  0
    7.5821  -14.5585   22.7362 C   0  0  0  0  0  0  0  0  0  0  0  0
    8.8395  -14.6687   22.6516 O   0  0  0  0  0  0  0  0  0  0  0  0
    6.5028  -11.8579   25.6942 C   0  0  0  0  0  0  0  0  0  0  0  0
    6.9483  -13.1890   26.2281 C   0  0  2  0  0  0  0  0  0  0  0  0
    7.8557  -12.9317   27.4136 C   0  0  0  0  0  0  0  0  0  0  0  0
    7.7630  -13.9225   25.1819 C   0  0  2  0  0  0  0  0  0  0  0  0
    7.0041  -14.1971   23.9897 N   0  0  0  0  0  0  0  0  0  0  0  0
    8.2607  -15.2008   25.8060 C   0  0  0  0  0  0  0  0  0  0  0  0
    7.4529  -16.0715   26.2118 O   0  0  0  0  0  0  0  0  0  0  0  0
   11.4604  -17.0558   25.8791 C   0  0  0  0  0  0  0  0  0  0  0  0
   10.1148  -16.7200   26.4558 C   0  0  2  0  0  0  0  0  0  0  0  0
    9.6572  -15.4393   25.9445 N   0  0  0  0  0  0  0  0  0  0  0  0
   10.2030  -16.6337   27.9430 C   0  0  0  0  0  0  0  0  0  0  0  0
   10.4421  -17.7703   28.7024 O   0  0  0  0  0  0  0  0  0  0  0  0
   10.0649  -15.5444   28.5377 O   0  0  0  0  0  0  0  0  0  0  0  0
  2  1  1  6
  3  2  1  0
  4 10  1  0
  4  2  1  0
  5  4  2  0
  7  6  1  6
  7  9  1  0
  8  7  1  0
  9 11  1  0
  9 10  1  6
 11 15  1  0
 12 11  2  0
 14 16  1  0
 14 13  1  6
 15 14  1  0
 16 17  1  0
 18 16  2  0
M  END
$$$$
