AVA.pdb
     RDKit          3D

 18 17  0  0  1  0  0  0  0  0999 V2000
    6.7916  -18.6696   17.7718 C   0  0  0  0  0  0  0  0  0  0  0  0
    7.3965  -17.3855   17.3115 C   0  0  2  0  0  0  0  0  0  0  0  0
    8.2368  -17.6728   16.1646 N   0  0  0  0  0  0  0  0  0  0  0  0
    8.1543  -16.6464   18.2992 C   0  0  0  0  0  0  0  0  0  0  0  0
    9.3881  -16.8804   18.4517 O   0  0  0  0  0  0  0  0  0  0  0  0
    7.3378  -12.7107   19.4810 C   0  0  0  0  0  0  0  0  0  0  0  0
    7.4320  -13.7030   20.6044 C   0  0  2  0  0  0  0  0  0  0  0  0
    8.2113  -13.0547   21.7301 C   0  0  0  0  0  0  0  0  0  0  0  0
    8.2099  -14.9237   20.1560 C   0  0  2  0  0  0  0  0  0  0  0  0
    7.5353  -15.6505   19.1124 N   0  0  0  0  0  0  0  0  0  0  0  0
    8.4230  -15.7974   21.3653 C   0  0  0  0  0  0  0  0  0  0  0  0
    7.4451  -16.2881   21.9805 O   0  0  0  0  0  0  0  0  0  0  0  0
   10.3437  -18.2844   22.6288 C   0  0  0  0  0  0  0  0  0  0  0  0
    9.9181  -16.8970   23.0157 C   0  0  2  0  0  0  0  0  0  0  0  0
    9.7393  -16.0794   21.8280 N   0  0  0  0  0  0  0  0  0  0  0  0
   10.9602  -16.2638   23.8760 C   0  0  0  0  0  0  0  0  0  0  0  0
   11.1047  -16.6426   25.2031 O   0  0  0  0  0  0  0  0  0  0  0  0
   11.7232  -15.3833   23.4268 O   0  0  0  0  0  0  0  0  0  0  0  0
  2  1  1  1
  3  2  1  0
  4 10  1  0
  4  2  1  0
  5  4  2  0
  7  6  1  6
  7  9  1  0
  8  7  1  0
  9 11  1  0
  9 10  1  6
 11 15  1  0
 12 11  2  0
 14 16  1  0
 14 13  1  6
 15 14  1  0
 16 17  1  0
 18 16  2  0
M  END
$$$$
