AVA.pdb
     RDKit          3D

 18 17  0  0  1  0  0  0  0  0999 V2000
    6.2816  -16.9884   22.2345 C   0  0  0  0  0  0  0  0  0  0  0  0
    6.4877  -15.5133   22.1436 C   0  0  2  0  0  0  0  0  0  0  0  0
    6.9802  -15.2118   20.8129 N   0  0  0  0  0  0  0  0  0  0  0  0
    7.3676  -14.9293   23.1339 C   0  0  0  0  0  0  0  0  0  0  0  0
    8.6105  -14.8579   22.9091 O   0  0  0  0  0  0  0  0  0  0  0  0
    6.1988  -11.9067   25.6404 C   0  0  0  0  0  0  0  0  0  0  0  0
    6.8829  -13.0196   26.3812 C   0  0  2  0  0  0  0  0  0  0  0  0
    7.8636  -12.3948   27.3521 C   0  0  0  0  0  0  0  0  0  0  0  0
    7.6795  -13.8741   25.4160 C   0  0  2  0  0  0  0  0  0  0  0  0
    6.8602  -14.4276   24.3696 N   0  0  0  0  0  0  0  0  0  0  0  0
    8.3397  -14.9684   26.2146 C   0  0  0  0  0  0  0  0  0  0  0  0
    7.6504  -15.8452   26.7903 O   0  0  0  0  0  0  0  0  0  0  0  0
   11.7633  -16.3775   26.4380 C   0  0  0  0  0  0  0  0  0  0  0  0
   10.3778  -16.1652   26.9775 C   0  0  2  0  0  0  0  0  0  0  0  0
    9.7576  -15.0233   26.3274 N   0  0  0  0  0  0  0  0  0  0  0  0
   10.4354  -15.9027   28.4455 C   0  0  0  0  0  0  0  0  0  0  0  0
   10.7615  -16.9196   29.3315 O   0  0  0  0  0  0  0  0  0  0  0  0
   10.1933  -14.7694   28.9105 O   0  0  0  0  0  0  0  0  0  0  0  0
  2  1  1  1
  3  2  1  0
  4 10  1  0
  4  2  1  0
  5  4  2  0
  7  6  1  6
  7  9  1  0
  8  7  1  0
  9 11  1  0
  9 10  1  6
 11 15  1  0
 12 11  2  0
 14 16  1  0
 14 13  1  6
 15 14  1  0
 16 17  1  0
 18 16  2  0
M  END
$$$$
