AVA.pdb
     RDKit          3D

 18 17  0  0  1  0  0  0  0  0999 V2000
    7.0856  -18.1011   17.1977 C   0  0  0  0  0  0  0  0  0  0  0  0
    7.7144  -16.8083   16.7977 C   0  0  2  0  0  0  0  0  0  0  0  0
    8.4279  -17.0242   15.5534 N   0  0  0  0  0  0  0  0  0  0  0  0
    8.5996  -16.2013   17.7693 C   0  0  0  0  0  0  0  0  0  0  0  0
    9.8354  -16.4714   17.7514 O   0  0  0  0  0  0  0  0  0  0  0  0
    6.9068  -13.8316   20.9216 C   0  0  0  0  0  0  0  0  0  0  0  0
    8.2544  -13.4565   20.3749 C   0  0  2  0  0  0  0  0  0  0  0  0
    8.0391  -12.4469   19.2663 C   0  0  0  0  0  0  0  0  0  0  0  0
    8.9230  -14.6703   19.7619 C   0  0  2  0  0  0  0  0  0  0  0  0
    8.1053  -15.2968   18.7560 N   0  0  0  0  0  0  0  0  0  0  0  0
    9.2298  -15.6341   20.8791 C   0  0  0  0  0  0  0  0  0  0  0  0
    8.3920  -16.5034   21.2223 O   0  0  0  0  0  0  0  0  0  0  0  0
   10.7987  -17.9504   21.8926 C   0  0  0  0  0  0  0  0  0  0  0  0
   10.8063  -16.5952   22.5401 C   0  0  2  0  0  0  0  0  0  0  0  0
   10.4770  -15.5722   21.5624 N   0  0  0  0  0  0  0  0  0  0  0  0
   12.1595  -16.3022   23.0970 C   0  0  0  0  0  0  0  0  0  0  0  0
   12.9070  -15.2389   22.6111 O   0  0  0  0  0  0  0  0  0  0  0  0
   12.6501  -17.0015   24.0079 O   0  0  0  0  0  0  0  0  0  0  0  0
  2  1  1  1
  3  2  1  0
  4 10  1  0
  4  2  1  0
  5  4  2  0
  7  6  1  6
  7  9  1  0
  8  7  1  0
  9 11  1  0
  9 10  1  6
 11 15  1  0
 12 11  2  0
 14 16  1  0
 14 13  1  6
 15 14  1  0
 16 17  1  0
 18 16  2  0
M  END
$$$$
