AVA.pdb
     RDKit          3D

 18 17  0  0  1  0  0  0  0  0999 V2000
    6.3700  -15.7792   21.2504 C   0  0  0  0  0  0  0  0  0  0  0  0
    7.0068  -14.4515   21.4919 C   0  0  2  0  0  0  0  0  0  0  0  0
    7.9104  -14.1819   20.3897 N   0  0  0  0  0  0  0  0  0  0  0  0
    7.7100  -14.2997   22.7482 C   0  0  0  0  0  0  0  0  0  0  0  0
    8.9583  -14.4987   22.8000 O   0  0  0  0  0  0  0  0  0  0  0  0
    6.5173  -11.6434   25.7182 C   0  0  0  0  0  0  0  0  0  0  0  0
    6.7787  -13.0360   26.2160 C   0  0  2  0  0  0  0  0  0  0  0  0
    7.5531  -12.9257   27.5133 C   0  0  0  0  0  0  0  0  0  0  0  0
    7.6492  -13.7863   25.2284 C   0  0  2  0  0  0  0  0  0  0  0  0
    7.0208  -13.9272   23.9408 N   0  0  0  0  0  0  0  0  0  0  0  0
    7.9557  -15.1358   25.8251 C   0  0  0  0  0  0  0  0  0  0  0  0
    7.0352  -15.9570   26.0568 O   0  0  0  0  0  0  0  0  0  0  0  0
   10.6478  -17.4944   25.8856 C   0  0  0  0  0  0  0  0  0  0  0  0
    9.5702  -16.8168   26.6828 C   0  0  2  0  0  0  0  0  0  0  0  0
    9.2967  -15.4992   26.1351 N   0  0  0  0  0  0  0  0  0  0  0  0
   10.0057  -16.6605   28.1016 C   0  0  0  0  0  0  0  0  0  0  0  0
   10.1474  -17.7705   28.9222 O   0  0  0  0  0  0  0  0  0  0  0  0
   10.2518  -15.5349   28.5831 O   0  0  0  0  0  0  0  0  0  0  0  0
  2  1  1  6
  3  2  1  0
  4 10  1  0
  4  2  1  0
  5  4  2  0
  7  6  1  6
  7  9  1  0
  8  7  1  0
  9 11  1  0
  9 10  1  6
 11 15  1  0
 12 11  2  0
 14 16  1  0
 14 13  1  6
 15 14  1  0
 16 17  1  0
 18 16  2  0
M  END
$$$$
