MPC.pdb
     RDKit          3D

 22 22  0  0  1  0  0  0  0  0999 V2000
    7.9134  -11.9321   27.4907 C   0  0  0  0  0  0  0  0  0  0  0  0
    6.1511  -11.9483   27.1398 S   0  0  0  0  0  0  0  0  0  0  0  0
    5.7232  -13.5223   26.3709 C   0  0  0  0  0  0  0  0  0  0  0  0
    6.9085  -14.1270   25.6325 C   0  0  0  0  0  0  0  0  0  0  0  0
    6.4366  -15.4620   25.0236 C   0  0  2  0  0  0  0  0  0  0  0  0
    6.0651  -16.3594   26.0718 N   0  0  0  0  0  0  0  0  0  0  0  0
    7.3730  -15.9584   24.0289 C   0  0  0  0  0  0  0  0  0  0  0  0
    8.1834  -16.8854   24.3916 O   0  0  0  0  0  0  0  0  0  0  0  0
    7.5025  -15.5299   22.6662 N   0  0  0  0  0  0  0  0  0  0  0  0
    6.6493  -14.6475   21.9219 C   0  0  0  0  0  0  0  0  0  0  0  0
    7.6523  -13.8774   21.0486 C   0  0  0  0  0  0  0  0  0  0  0  0
    8.4078  -15.1011   20.4951 C   0  0  0  0  0  0  0  0  0  0  0  0
    8.5670  -15.9510   21.7513 C   0  0  1  0  0  0  0  0  0  0  0  0
    9.9085  -15.7675   22.2951 C   0  0  0  0  0  0  0  0  0  0  0  0
   10.2935  -14.6647   22.7227 O   0  0  0  0  0  0  0  0  0  0  0  0
   10.7904  -16.8717   22.3362 N   0  0  0  0  0  0  0  0  0  0  0  0
   12.0629  -16.8279   23.0069 C   0  0  1  0  0  0  0  0  0  0  0  0
   11.9761  -17.7139   24.2546 C   0  0  0  0  0  0  0  0  0  0  0  0
   10.9100  -16.8706   25.4533 S   0  0  0  0  0  0  0  0  0  0  0  0
   13.1113  -17.3067   22.0924 C   0  0  0  0  0  0  0  0  0  0  0  0
   12.8141  -17.8023   20.9822 O   0  0  0  0  0  0  0  0  0  0  0  0
   14.4367  -17.2031   22.4742 O   0  0  0  0  0  0  0  0  0  0  0  0
  1  2  1  0
  2  3  1  0
  3  4  1  0
  5  7  1  0
  5  4  1  0
  5  6  1  1
  7  8  2  0
  9 13  1  0
  9  7  1  0
 10  9  1  0
 11 10  1  0
 11 12  1  0
 12 13  1  0
 13 14  1  1
 14 16  1  0
 14 15  2  0
 16 17  1  0
 17 20  1  0
 17 18  1  1
 19 18  1  0
 20 21  2  0
 20 22  1  0
M  END
$$$$
