MPC.pdb
     RDKit          3D

 22 22  0  0  1  0  0  0  0  0999 V2000
    8.2414  -12.2390   27.8725 C   0  0  0  0  0  0  0  0  0  0  0  0
    6.8795  -12.7793   26.8322 S   0  0  0  0  0  0  0  0  0  0  0  0
    7.1290  -14.5113   26.3964 C   0  0  0  0  0  0  0  0  0  0  0  0
    6.0148  -15.0305   25.4993 C   0  0  0  0  0  0  0  0  0  0  0  0
    6.4002  -16.4599   25.0704 C   0  0  2  0  0  0  0  0  0  0  0  0
    6.5206  -17.2891   26.2280 N   0  0  0  0  0  0  0  0  0  0  0  0
    7.5163  -16.4579   24.1393 C   0  0  0  0  0  0  0  0  0  0  0  0
    8.5319  -17.1857   24.4335 O   0  0  0  0  0  0  0  0  0  0  0  0
    7.6213  -15.7279   22.9090 N   0  0  0  0  0  0  0  0  0  0  0  0
    6.6262  -14.9219   22.2605 C   0  0  0  0  0  0  0  0  0  0  0  0
    7.4630  -13.7756   21.6709 C   0  0  0  0  0  0  0  0  0  0  0  0
    8.5270  -14.6483   20.9774 C   0  0  0  0  0  0  0  0  0  0  0  0
    8.8109  -15.6905   22.0540 C   0  0  1  0  0  0  0  0  0  0  0  0
   10.0307  -15.3304   22.7690 C   0  0  0  0  0  0  0  0  0  0  0  0
   10.0102  -14.5637   23.7484 O   0  0  0  0  0  0  0  0  0  0  0  0
   11.2649  -15.8673   22.3363 N   0  0  0  0  0  0  0  0  0  0  0  0
   12.3638  -16.1145   23.2320 C   0  0  1  0  0  0  0  0  0  0  0  0
   11.9287  -17.1859   24.2380 C   0  0  0  0  0  0  0  0  0  0  0  0
   13.3532  -17.5567   25.2953 S   0  0  0  0  0  0  0  0  0  0  0  0
   13.5315  -16.5624   22.4570 C   0  0  0  0  0  0  0  0  0  0  0  0
   13.4151  -17.4463   21.5785 O   0  0  0  0  0  0  0  0  0  0  0  0
   14.7665  -15.9936   22.7106 O   0  0  0  0  0  0  0  0  0  0  0  0
  1  2  1  0
  2  3  1  0
  3  4  1  0
  5  7  1  0
  5  4  1  0
  5  6  1  1
  7  8  2  0
  9 13  1  0
  9  7  1  0
 10  9  1  0
 11 10  1  0
 11 12  1  0
 12 13  1  0
 13 14  1  1
 14 16  1  0
 14 15  2  0
 16 17  1  0
 17 20  1  0
 17 18  1  1
 19 18  1  0
 20 21  2  0
 20 22  1  0
M  END
$$$$
