MPC.pdb
     RDKit          3D

 22 22  0  0  1  0  0  0  0  0999 V2000
    8.1149  -11.9481   27.5743 C   0  0  0  0  0  0  0  0  0  0  0  0
    6.3771  -12.0150   27.1219 S   0  0  0  0  0  0  0  0  0  0  0  0
    5.9895  -13.6761   26.5367 C   0  0  0  0  0  0  0  0  0  0  0  0
    7.1388  -14.2719   25.7368 C   0  0  0  0  0  0  0  0  0  0  0  0
    6.6370  -15.5973   25.1309 C   0  0  2  0  0  0  0  0  0  0  0  0
    6.3260  -16.5145   26.1817 N   0  0  0  0  0  0  0  0  0  0  0  0
    7.5180  -16.0729   24.0771 C   0  0  0  0  0  0  0  0  0  0  0  0
    8.3341  -17.0187   24.3720 O   0  0  0  0  0  0  0  0  0  0  0  0
    7.5862  -15.6045   22.7231 N   0  0  0  0  0  0  0  0  0  0  0  0
    6.6579  -14.7653   22.0200 C   0  0  0  0  0  0  0  0  0  0  0  0
    7.5855  -13.9079   21.1447 C   0  0  0  0  0  0  0  0  0  0  0  0
    8.4093  -15.0636   20.5444 C   0  0  0  0  0  0  0  0  0  0  0  0
    8.6553  -15.9300   21.7751 C   0  0  1  0  0  0  0  0  0  0  0  0
    9.9934  -15.6679   22.2941 C   0  0  0  0  0  0  0  0  0  0  0  0
   10.1888  -14.8490   23.2099 O   0  0  0  0  0  0  0  0  0  0  0  0
   11.0934  -16.3628   21.7412 N   0  0  0  0  0  0  0  0  0  0  0  0
   12.2978  -16.6309   22.4818 C   0  0  1  0  0  0  0  0  0  0  0  0
   11.9414  -17.5461   23.6586 C   0  0  0  0  0  0  0  0  0  0  0  0
   13.4819  -17.9571   24.5201 S   0  0  0  0  0  0  0  0  0  0  0  0
   13.2816  -17.2715   21.5951 C   0  0  0  0  0  0  0  0  0  0  0  0
   12.9116  -18.0369   20.6765 O   0  0  0  0  0  0  0  0  0  0  0  0
   14.6276  -17.0181   21.7878 O   0  0  0  0  0  0  0  0  0  0  0  0
  1  2  1  0
  2  3  1  0
  3  4  1  0
  5  7  1  0
  5  4  1  0
  5  6  1  1
  7  8  2  0
  9 13  1  0
  9  7  1  0
 10  9  1  0
 11 10  1  0
 11 12  1  0
 12 13  1  0
 13 14  1  1
 14 16  1  0
 14 15  2  0
 16 17  1  0
 17 20  1  0
 17 18  1  1
 19 18  1  0
 20 21  2  0
 20 22  1  0
M  END
$$$$
