MPC.pdb
     RDKit          3D

 22 22  0  0  1  0  0  0  0  0999 V2000
    6.4549  -10.8405   26.4960 C   0  0  0  0  0  0  0  0  0  0  0  0
    6.6333  -12.2918   27.5403 S   0  0  0  0  0  0  0  0  0  0  0  0
    6.0919  -13.7444   26.6190 C   0  0  0  0  0  0  0  0  0  0  0  0
    7.2271  -14.3478   25.8047 C   0  0  0  0  0  0  0  0  0  0  0  0
    6.6652  -15.5895   25.0849 C   0  0  2  0  0  0  0  0  0  0  0  0
    6.2778  -16.5671   26.0526 N   0  0  0  0  0  0  0  0  0  0  0  0
    7.5425  -16.0311   24.0134 C   0  0  0  0  0  0  0  0  0  0  0  0
    8.2960  -17.0437   24.2467 O   0  0  0  0  0  0  0  0  0  0  0  0
    7.6696  -15.4616   22.7031 N   0  0  0  0  0  0  0  0  0  0  0  0
    6.8118  -14.5106   22.0549 C   0  0  0  0  0  0  0  0  0  0  0  0
    7.8107  -13.6482   21.2674 C   0  0  0  0  0  0  0  0  0  0  0  0
    8.5724  -14.8034   20.5891 C   0  0  0  0  0  0  0  0  0  0  0  0
    8.7362  -15.7793   21.7496 C   0  0  1  0  0  0  0  0  0  0  0  0
   10.0767  -15.6468   22.3102 C   0  0  0  0  0  0  0  0  0  0  0  0
   10.5298  -14.5433   22.6631 O   0  0  0  0  0  0  0  0  0  0  0  0
   10.8785  -16.8022   22.4550 N   0  0  0  0  0  0  0  0  0  0  0  0
   12.2346  -16.7545   22.9339 C   0  0  1  0  0  0  0  0  0  0  0  0
   12.2057  -16.8629   24.4625 C   0  0  0  0  0  0  0  0  0  0  0  0
   11.0751  -18.2116   24.8956 S   0  0  0  0  0  0  0  0  0  0  0  0
   12.9989  -17.8633   22.3413 C   0  0  0  0  0  0  0  0  0  0  0  0
   12.4470  -18.6801   21.5702 O   0  0  0  0  0  0  0  0  0  0  0  0
   14.3415  -17.9946   22.6467 O   0  0  0  0  0  0  0  0  0  0  0  0
  1  2  1  0
  2  3  1  0
  3  4  1  0
  5  7  1  0
  5  4  1  0
  5  6  1  1
  7  8  2  0
  9 13  1  0
  9  7  1  0
 10  9  1  0
 11 10  1  0
 11 12  1  0
 12 13  1  0
 13 14  1  1
 14 16  1  0
 14 15  2  0
 16 17  1  0
 17 20  1  0
 17 18  1  1
 19 18  1  0
 20 21  2  0
 20 22  1  0
M  END
$$$$
