MPC.pdb
     RDKit          3D

 22 22  0  0  1  0  0  0  0  0999 V2000
    7.2164  -12.3680   27.8533 C   0  0  0  0  0  0  0  0  0  0  0  0
    6.7228  -12.7373   26.1654 S   0  0  0  0  0  0  0  0  0  0  0  0
    6.9051  -14.5082   25.8779 C   0  0  0  0  0  0  0  0  0  0  0  0
    6.5448  -14.8847   24.4481 C   0  0  0  0  0  0  0  0  0  0  0  0
    6.7821  -16.4004   24.2996 C   0  0  2  0  0  0  0  0  0  0  0  0
    5.8800  -17.1100   25.1509 N   0  0  0  0  0  0  0  0  0  0  0  0
    8.1926  -16.7353   24.4050 C   0  0  0  0  0  0  0  0  0  0  0  0
    8.6026  -17.2201   25.5206 O   0  0  0  0  0  0  0  0  0  0  0  0
    9.1995  -16.5871   23.3943 N   0  0  0  0  0  0  0  0  0  0  0  0
    9.0302  -16.2788   22.0026 C   0  0  0  0  0  0  0  0  0  0  0  0
   10.2460  -15.3847   21.7124 C   0  0  0  0  0  0  0  0  0  0  0  0
   11.3176  -16.3105   22.3200 C   0  0  0  0  0  0  0  0  0  0  0  0
   10.6394  -16.7488   23.6137 C   0  0  1  0  0  0  0  0  0  0  0  0
   11.1519  -15.9535   24.7244 C   0  0  0  0  0  0  0  0  0  0  0  0
   11.0831  -14.7114   24.7234 O   0  0  0  0  0  0  0  0  0  0  0  0
   11.7406  -16.6128   25.8277 N   0  0  0  0  0  0  0  0  0  0  0  0
   11.9635  -15.9659   27.0937 C   0  0  1  0  0  0  0  0  0  0  0  0
   10.6893  -15.2020   27.4709 C   0  0  0  0  0  0  0  0  0  0  0  0
   10.9828  -14.4010   29.0699 S   0  0  0  0  0  0  0  0  0  0  0  0
   12.2890  -16.9810   28.1079 C   0  0  0  0  0  0  0  0  0  0  0  0
   11.7003  -18.0854   28.1192 O   0  0  0  0  0  0  0  0  0  0  0  0
   13.2579  -16.7008   29.0543 O   0  0  0  0  0  0  0  0  0  0  0  0
  1  2  1  0
  2  3  1  0
  3  4  1  0
  5  7  1  0
  5  4  1  0
  5  6  1  1
  7  8  2  0
  9 13  1  0
  9  7  1  0
 10  9  1  0
 11 10  1  0
 11 12  1  0
 12 13  1  0
 13 14  1  1
 14 16  1  0
 14 15  2  0
 16 17  1  0
 17 20  1  0
 17 18  1  1
 19 18  1  0
 20 21  2  0
 20 22  1  0
M  END
$$$$
