MPC.pdb
     RDKit          3D

 22 22  0  0  1  0  0  0  0  0999 V2000
    5.3897  -11.8899   26.8045 C   0  0  0  0  0  0  0  0  0  0  0  0
    6.9426  -12.6568   27.2832 S   0  0  0  0  0  0  0  0  0  0  0  0
    6.8974  -14.4011   26.8279 C   0  0  0  0  0  0  0  0  0  0  0  0
    6.2919  -14.6052   25.4468 C   0  0  0  0  0  0  0  0  0  0  0  0
    6.4421  -16.0987   25.0967 C   0  0  2  0  0  0  0  0  0  0  0  0
    6.4900  -16.8682   26.2999 N   0  0  0  0  0  0  0  0  0  0  0  0
    7.5037  -16.3184   24.1285 C   0  0  0  0  0  0  0  0  0  0  0  0
    8.3652  -17.2321   24.3941 O   0  0  0  0  0  0  0  0  0  0  0  0
    7.7079  -15.6252   22.8895 N   0  0  0  0  0  0  0  0  0  0  0  0
    6.8359  -14.6932   22.2327 C   0  0  0  0  0  0  0  0  0  0  0  0
    7.8257  -13.6847   21.6284 C   0  0  0  0  0  0  0  0  0  0  0  0
    8.7524  -14.7081   20.9440 C   0  0  0  0  0  0  0  0  0  0  0  0
    8.8882  -15.7675   22.0325 C   0  0  1  0  0  0  0  0  0  0  0  0
   10.1490  -15.5767   22.7416 C   0  0  0  0  0  0  0  0  0  0  0  0
   10.2702  -14.7224   23.6377 O   0  0  0  0  0  0  0  0  0  0  0  0
   11.2585  -16.3835   22.4003 N   0  0  0  0  0  0  0  0  0  0  0  0
   12.4758  -16.3994   23.1677 C   0  0  1  0  0  0  0  0  0  0  0  0
   12.3930  -17.5551   24.1712 C   0  0  0  0  0  0  0  0  0  0  0  0
   11.4524  -16.9699   25.6056 S   0  0  0  0  0  0  0  0  0  0  0  0
   13.6208  -16.5709   22.2598 C   0  0  0  0  0  0  0  0  0  0  0  0
   13.4764  -17.1222   21.1455 O   0  0  0  0  0  0  0  0  0  0  0  0
   14.8658  -16.1139   22.6523 O   0  0  0  0  0  0  0  0  0  0  0  0
  1  2  1  0
  2  3  1  0
  3  4  1  0
  5  7  1  0
  5  4  1  0
  5  6  1  1
  7  8  2  0
  9 13  1  0
  9  7  1  0
 10  9  1  0
 11 10  1  0
 11 12  1  0
 12 13  1  0
 13 14  1  1
 14 16  1  0
 14 15  2  0
 16 17  1  0
 17 20  1  0
 17 18  1  1
 19 18  1  0
 20 21  2  0
 20 22  1  0
M  END
$$$$
