MPC.pdb
     RDKit          3D

 22 22  0  0  1  0  0  0  0  0999 V2000
    7.2499  -12.0120   26.4498 C   0  0  0  0  0  0  0  0  0  0  0  0
    7.9081  -13.2688   27.5524 S   0  0  0  0  0  0  0  0  0  0  0  0
    7.8373  -14.8685   26.7230 C   0  0  0  0  0  0  0  0  0  0  0  0
    6.5662  -15.0182   25.8998 C   0  0  0  0  0  0  0  0  0  0  0  0
    6.5924  -16.4237   25.2676 C   0  0  2  0  0  0  0  0  0  0  0  0
    6.7453  -17.4058   26.2945 N   0  0  0  0  0  0  0  0  0  0  0  0
    7.5147  -16.4903   24.1462 C   0  0  0  0  0  0  0  0  0  0  0  0
    8.4464  -17.3716   24.1996 O   0  0  0  0  0  0  0  0  0  0  0  0
    7.5088  -15.6755   22.9657 N   0  0  0  0  0  0  0  0  0  0  0  0
    6.4701  -14.8109   22.4818 C   0  0  0  0  0  0  0  0  0  0  0  0
    7.2666  -13.6374   21.8902 C   0  0  0  0  0  0  0  0  0  0  0  0
    8.2348  -14.4732   21.0307 C   0  0  0  0  0  0  0  0  0  0  0  0
    8.6050  -15.5938   21.9966 C   0  0  1  0  0  0  0  0  0  0  0  0
    9.8992  -15.3034   22.6046 C   0  0  0  0  0  0  0  0  0  0  0  0
   10.0206  -14.4535   23.5048 O   0  0  0  0  0  0  0  0  0  0  0  0
   11.0416  -16.0063   22.1581 N   0  0  0  0  0  0  0  0  0  0  0  0
   12.2505  -16.1007   22.9329 C   0  0  1  0  0  0  0  0  0  0  0  0
   11.9046  -16.7401   24.2823 C   0  0  0  0  0  0  0  0  0  0  0  0
   13.4501  -16.9380   25.2080 S   0  0  0  0  0  0  0  0  0  0  0  0
   13.2348  -16.9136   22.2014 C   0  0  0  0  0  0  0  0  0  0  0  0
   12.8758  -17.9223   21.5532 O   0  0  0  0  0  0  0  0  0  0  0  0
   14.5687  -16.5498   22.2374 O   0  0  0  0  0  0  0  0  0  0  0  0
  1  2  1  0
  2  3  1  0
  3  4  1  0
  5  7  1  0
  5  4  1  0
  5  6  1  1
  7  8  2  0
  9 13  1  0
  9  7  1  0
 10  9  1  0
 11 10  1  0
 11 12  1  0
 12 13  1  0
 13 14  1  1
 14 16  1  0
 14 15  2  0
 16 17  1  0
 17 20  1  0
 17 18  1  1
 19 18  1  0
 20 21  2  0
 20 22  1  0
M  END
$$$$
