MPC.pdb
     RDKit          3D

 22 22  0  0  1  0  0  0  0  0999 V2000
    5.7676  -11.8278   26.8610 C   0  0  0  0  0  0  0  0  0  0  0  0
    7.0741  -13.0111   27.2098 S   0  0  0  0  0  0  0  0  0  0  0  0
    7.1362  -14.2227   25.8755 C   0  0  0  0  0  0  0  0  0  0  0  0
    6.7485  -15.6120   26.3604 C   0  0  0  0  0  0  0  0  0  0  0  0
    6.4970  -16.4797   25.1116 C   0  0  2  0  0  0  0  0  0  0  0  0
    6.0479  -17.7754   25.5137 N   0  0  0  0  0  0  0  0  0  0  0  0
    7.6168  -16.4256   24.1865 C   0  0  0  0  0  0  0  0  0  0  0  0
    8.6762  -17.0777   24.5030 O   0  0  0  0  0  0  0  0  0  0  0  0
    7.6817  -15.7190   22.9399 N   0  0  0  0  0  0  0  0  0  0  0  0
    6.6621  -14.9344   22.3034 C   0  0  0  0  0  0  0  0  0  0  0  0
    7.4721  -13.7928   21.6689 C   0  0  0  0  0  0  0  0  0  0  0  0
    8.5246  -14.6699   20.9636 C   0  0  0  0  0  0  0  0  0  0  0  0
    8.8472  -15.6883   22.0520 C   0  0  1  0  0  0  0  0  0  0  0  0
   10.0827  -15.3039   22.7263 C   0  0  0  0  0  0  0  0  0  0  0  0
   10.0908  -14.4635   23.6434 O   0  0  0  0  0  0  0  0  0  0  0  0
   11.2992  -15.9026   22.3257 N   0  0  0  0  0  0  0  0  0  0  0  0
   12.3856  -16.1449   23.2377 C   0  0  1  0  0  0  0  0  0  0  0  0
   11.8944  -17.1132   24.3197 C   0  0  0  0  0  0  0  0  0  0  0  0
   13.2805  -17.4289   25.4438 S   0  0  0  0  0  0  0  0  0  0  0  0
   13.5234  -16.7140   22.4985 C   0  0  0  0  0  0  0  0  0  0  0  0
   13.3771  -17.7307   21.7834 O   0  0  0  0  0  0  0  0  0  0  0  0
   14.7636  -16.1105   22.6023 O   0  0  0  0  0  0  0  0  0  0  0  0
  1  2  1  0
  2  3  1  0
  3  4  1  0
  5  7  1  0
  5  4  1  0
  5  6  1  1
  7  8  2  0
  9 13  1  0
  9  7  1  0
 10  9  1  0
 11 10  1  0
 11 12  1  0
 12 13  1  0
 13 14  1  1
 14 16  1  0
 14 15  2  0
 16 17  1  0
 17 20  1  0
 17 18  1  1
 19 18  1  0
 20 21  2  0
 20 22  1  0
M  END
$$$$
