MPC.pdb
     RDKit          3D

 22 22  0  0  1  0  0  0  0  0999 V2000
    9.1523  -12.6934   27.8407 C   0  0  0  0  0  0  0  0  0  0  0  0
    7.5762  -12.9559   27.0186 S   0  0  0  0  0  0  0  0  0  0  0  0
    7.5187  -14.6459   26.3921 C   0  0  0  0  0  0  0  0  0  0  0  0
    6.2314  -14.9175   25.6274 C   0  0  0  0  0  0  0  0  0  0  0  0
    6.3259  -16.3493   25.0647 C   0  0  2  0  0  0  0  0  0  0  0  0
    6.3946  -17.2826   26.1447 N   0  0  0  0  0  0  0  0  0  0  0  0
    7.3454  -16.4543   24.0340 C   0  0  0  0  0  0  0  0  0  0  0  0
    8.2687  -17.3297   24.2038 O   0  0  0  0  0  0  0  0  0  0  0  0
    7.4456  -15.6840   22.8282 N   0  0  0  0  0  0  0  0  0  0  0  0
    6.4928  -14.7652   22.2729 C   0  0  0  0  0  0  0  0  0  0  0  0
    7.3955  -13.6736   21.6770 C   0  0  0  0  0  0  0  0  0  0  0  0
    8.3334  -14.6067   20.8869 C   0  0  0  0  0  0  0  0  0  0  0  0
    8.5824  -15.7157   21.9038 C   0  0  1  0  0  0  0  0  0  0  0  0
    9.8692  -15.4971   22.5557 C   0  0  0  0  0  0  0  0  0  0  0  0
    9.9785  -14.7607   23.5524 O   0  0  0  0  0  0  0  0  0  0  0  0
   11.0186  -16.1389   22.0404 N   0  0  0  0  0  0  0  0  0  0  0  0
   12.2545  -16.2293   22.7721 C   0  0  1  0  0  0  0  0  0  0  0  0
   12.0129  -17.0960   24.0129 C   0  0  0  0  0  0  0  0  0  0  0  0
   13.5960  -17.2692   24.8780 S   0  0  0  0  0  0  0  0  0  0  0  0
   13.2885  -16.8214   21.9089 C   0  0  0  0  0  0  0  0  0  0  0  0
   12.9907  -17.6891   21.0574 O   0  0  0  0  0  0  0  0  0  0  0  0
   14.6007  -16.4070   22.0486 O   0  0  0  0  0  0  0  0  0  0  0  0
  1  2  1  0
  2  3  1  0
  3  4  1  0
  5  7  1  0
  5  4  1  0
  5  6  1  1
  7  8  2  0
  9 13  1  0
  9  7  1  0
 10  9  1  0
 11 10  1  0
 11 12  1  0
 12 13  1  0
 13 14  1  1
 14 16  1  0
 14 15  2  0
 16 17  1  0
 17 20  1  0
 17 18  1  1
 19 18  1  0
 20 21  2  0
 20 22  1  0
M  END
$$$$
