MPC.pdb
     RDKit          3D

 22 22  0  0  1  0  0  0  0  0999 V2000
    8.0573  -11.8693   27.0876 C   0  0  0  0  0  0  0  0  0  0  0  0
    6.2673  -12.0005   27.0025 S   0  0  0  0  0  0  0  0  0  0  0  0
    5.8327  -13.5790   26.2464 C   0  0  0  0  0  0  0  0  0  0  0  0
    7.0701  -14.3712   25.8504 C   0  0  0  0  0  0  0  0  0  0  0  0
    6.5874  -15.6458   25.1305 C   0  0  2  0  0  0  0  0  0  0  0  0
    6.1326  -16.5958   26.0964 N   0  0  0  0  0  0  0  0  0  0  0  0
    7.5577  -16.1096   24.1527 C   0  0  0  0  0  0  0  0  0  0  0  0
    8.3038  -17.0998   24.4851 O   0  0  0  0  0  0  0  0  0  0  0  0
    7.7856  -15.5850   22.8373 N   0  0  0  0  0  0  0  0  0  0  0  0
    6.9535  -14.7014   22.0710 C   0  0  0  0  0  0  0  0  0  0  0  0
    7.9850  -13.8229   21.3458 C   0  0  0  0  0  0  0  0  0  0  0  0
    8.8586  -14.9653   20.7924 C   0  0  0  0  0  0  0  0  0  0  0  0
    8.9522  -15.8873   22.0035 C   0  0  1  0  0  0  0  0  0  0  0  0
   10.2252  -15.6697   22.6825 C   0  0  0  0  0  0  0  0  0  0  0  0
   10.4064  -14.6927   23.4308 O   0  0  0  0  0  0  0  0  0  0  0  0
   11.2770  -16.5932   22.4835 N   0  0  0  0  0  0  0  0  0  0  0  0
   12.5559  -16.4691   23.1315 C   0  0  1  0  0  0  0  0  0  0  0  0
   12.6373  -17.5297   24.2350 C   0  0  0  0  0  0  0  0  0  0  0  0
   14.1188  -17.1840   25.2201 S   0  0  0  0  0  0  0  0  0  0  0  0
   13.6247  -16.6586   22.1384 C   0  0  0  0  0  0  0  0  0  0  0  0
   13.4130  -17.3022   21.0860 O   0  0  0  0  0  0  0  0  0  0  0  0
   14.8733  -16.1153   22.3809 O   0  0  0  0  0  0  0  0  0  0  0  0
  1  2  1  0
  2  3  1  0
  3  4  1  0
  5  7  1  0
  5  4  1  0
  5  6  1  1
  7  8  2  0
  9 13  1  0
  9  7  1  0
 10  9  1  0
 11 10  1  0
 11 12  1  0
 12 13  1  0
 13 14  1  1
 14 16  1  0
 14 15  2  0
 16 17  1  0
 17 20  1  0
 17 18  1  1
 19 18  1  0
 20 21  2  0
 20 22  1  0
M  END
$$$$
