MPC.pdb
     RDKit          3D

 22 22  0  0  1  0  0  0  0  0999 V2000
    8.4463  -11.8674   27.0296 C   0  0  0  0  0  0  0  0  0  0  0  0
    6.6696  -12.0266   27.2458 S   0  0  0  0  0  0  0  0  0  0  0  0
    6.1302  -13.5861   26.5183 C   0  0  0  0  0  0  0  0  0  0  0  0
    7.2542  -14.2654   25.7497 C   0  0  0  0  0  0  0  0  0  0  0  0
    6.6645  -15.5323   25.0994 C   0  0  2  0  0  0  0  0  0  0  0  0
    6.2703  -16.4524   26.1193 N   0  0  0  0  0  0  0  0  0  0  0  0
    7.5236  -16.0430   24.0441 C   0  0  0  0  0  0  0  0  0  0  0  0
    8.2840  -17.0366   24.3307 O   0  0  0  0  0  0  0  0  0  0  0  0
    7.6254  -15.5622   22.6965 N   0  0  0  0  0  0  0  0  0  0  0  0
    6.7160  -14.7145   21.9790 C   0  0  0  0  0  0  0  0  0  0  0  0
    7.6663  -13.8511   21.1345 C   0  0  0  0  0  0  0  0  0  0  0  0
    8.5020  -15.0030   20.5434 C   0  0  0  0  0  0  0  0  0  0  0  0
    8.7164  -15.8813   21.7715 C   0  0  1  0  0  0  0  0  0  0  0  0
   10.0422  -15.6270   22.3252 C   0  0  0  0  0  0  0  0  0  0  0  0
   10.2330  -14.7451   23.1815 O   0  0  0  0  0  0  0  0  0  0  0  0
   11.1351  -16.4031   21.8759 N   0  0  0  0  0  0  0  0  0  0  0  0
   12.3605  -16.5273   22.6200 C   0  0  1  0  0  0  0  0  0  0  0  0
   12.0369  -17.1808   23.9682 C   0  0  0  0  0  0  0  0  0  0  0  0
   13.6034  -17.4432   24.8409 S   0  0  0  0  0  0  0  0  0  0  0  0
   13.3141  -17.3447   21.8536 C   0  0  0  0  0  0  0  0  0  0  0  0
   12.9384  -18.3854   21.2685 O   0  0  0  0  0  0  0  0  0  0  0  0
   14.6377  -16.9492   21.7858 O   0  0  0  0  0  0  0  0  0  0  0  0
  1  2  1  0
  2  3  1  0
  3  4  1  0
  5  7  1  0
  5  4  1  0
  5  6  1  1
  7  8  2  0
  9 13  1  0
  9  7  1  0
 10  9  1  0
 11 10  1  0
 11 12  1  0
 12 13  1  0
 13 14  1  1
 14 16  1  0
 14 15  2  0
 16 17  1  0
 17 20  1  0
 17 18  1  1
 19 18  1  0
 20 21  2  0
 20 22  1  0
M  END
$$$$
