MPC.pdb
     RDKit          3D

 22 22  0  0  1  0  0  0  0  0999 V2000
    6.5448  -12.0277   26.1791 C   0  0  0  0  0  0  0  0  0  0  0  0
    6.1606  -13.3976   27.2766 S   0  0  0  0  0  0  0  0  0  0  0  0
    6.6578  -14.9388   26.4831 C   0  0  0  0  0  0  0  0  0  0  0  0
    5.8465  -15.2093   25.2244 C   0  0  0  0  0  0  0  0  0  0  0  0
    6.2847  -16.5844   24.6833 C   0  0  2  0  0  0  0  0  0  0  0  0
    5.9639  -17.5972   25.6390 N   0  0  0  0  0  0  0  0  0  0  0  0
    7.6496  -16.5543   24.1845 C   0  0  0  0  0  0  0  0  0  0  0  0
    8.4741  -17.4108   24.6684 O   0  0  0  0  0  0  0  0  0  0  0  0
    8.1958  -15.6672   23.1985 N   0  0  0  0  0  0  0  0  0  0  0  0
    7.5175  -14.6707   22.4193 C   0  0  0  0  0  0  0  0  0  0  0  0
    8.5643  -13.5486   22.3352 C   0  0  0  0  0  0  0  0  0  0  0  0
    9.7477  -14.4209   21.8736 C   0  0  0  0  0  0  0  0  0  0  0  0
    9.6014  -15.6348   22.7851 C   0  0  1  0  0  0  0  0  0  0  0  0
   10.5340  -15.5194   23.9013 C   0  0  0  0  0  0  0  0  0  0  0  0
   11.7644  -15.4825   23.7218 O   0  0  0  0  0  0  0  0  0  0  0  0
   10.0244  -15.4480   25.2180 N   0  0  0  0  0  0  0  0  0  0  0  0
   10.8377  -15.0894   26.3498 C   0  0  1  0  0  0  0  0  0  0  0  0
   10.1551  -13.9272   27.0797 C   0  0  0  0  0  0  0  0  0  0  0  0
   11.0659  -13.6355   28.6192 S   0  0  0  0  0  0  0  0  0  0  0  0
   10.9811  -16.2560   27.2347 C   0  0  0  0  0  0  0  0  0  0  0  0
   10.2048  -17.2328   27.1360 O   0  0  0  0  0  0  0  0  0  0  0  0
   11.9884  -16.2625   28.1826 O   0  0  0  0  0  0  0  0  0  0  0  0
  1  2  1  0
  2  3  1  0
  3  4  1  0
  5  7  1  0
  5  4  1  0
  5  6  1  1
  7  8  2  0
  9 13  1  0
  9  7  1  0
 10  9  1  0
 11 10  1  0
 11 12  1  0
 12 13  1  0
 13 14  1  1
 14 16  1  0
 14 15  2  0
 16 17  1  0
 17 20  1  0
 17 18  1  1
 19 18  1  0
 20 21  2  0
 20 22  1  0
M  END
$$$$
