MPC.pdb
     RDKit          3D

 22 22  0  0  1  0  0  0  0  0999 V2000
    6.9547  -11.1189   26.3169 C   0  0  0  0  0  0  0  0  0  0  0  0
    6.5928  -12.3809   27.5438 S   0  0  0  0  0  0  0  0  0  0  0  0
    6.1108  -13.8981   26.6964 C   0  0  0  0  0  0  0  0  0  0  0  0
    7.2535  -14.4646   25.8664 C   0  0  0  0  0  0  0  0  0  0  0  0
    6.7226  -15.7248   25.1553 C   0  0  2  0  0  0  0  0  0  0  0  0
    6.4019  -16.7217   26.1277 N   0  0  0  0  0  0  0  0  0  0  0  0
    7.5869  -16.1256   24.0576 C   0  0  0  0  0  0  0  0  0  0  0  0
    8.4401  -17.0567   24.2875 O   0  0  0  0  0  0  0  0  0  0  0  0
    7.6014  -15.5968   22.7243 N   0  0  0  0  0  0  0  0  0  0  0  0
    6.6712  -14.6910   22.1121 C   0  0  0  0  0  0  0  0  0  0  0  0
    7.5845  -13.8289   21.2264 C   0  0  0  0  0  0  0  0  0  0  0  0
    8.3278  -14.9852   20.5300 C   0  0  0  0  0  0  0  0  0  0  0  0
    8.6042  -15.9173   21.7049 C   0  0  1  0  0  0  0  0  0  0  0  0
    9.9777  -15.7305   22.1605 C   0  0  0  0  0  0  0  0  0  0  0  0
   10.3953  -14.6201   22.5346 O   0  0  0  0  0  0  0  0  0  0  0  0
   10.8535  -16.8402   22.1761 N   0  0  0  0  0  0  0  0  0  0  0  0
   12.2522  -16.7245   22.4942 C   0  0  1  0  0  0  0  0  0  0  0  0
   12.4170  -16.9257   24.0047 C   0  0  0  0  0  0  0  0  0  0  0  0
   11.3415  -18.2994   24.4958 S   0  0  0  0  0  0  0  0  0  0  0  0
   13.0075  -17.7385   21.7419 C   0  0  0  0  0  0  0  0  0  0  0  0
   12.4129  -18.6040   21.0609 O   0  0  0  0  0  0  0  0  0  0  0  0
   14.3896  -17.7256   21.7952 O   0  0  0  0  0  0  0  0  0  0  0  0
  1  2  1  0
  2  3  1  0
  3  4  1  0
  5  7  1  0
  5  4  1  0
  5  6  1  1
  7  8  2  0
  9 13  1  0
  9  7  1  0
 10  9  1  0
 11 10  1  0
 11 12  1  0
 12 13  1  0
 13 14  1  1
 14 16  1  0
 14 15  2  0
 16 17  1  0
 17 20  1  0
 17 18  1  1
 19 18  1  0
 20 21  2  0
 20 22  1  0
M  END
$$$$
