MPC.pdb
     RDKit          3D

 22 22  0  0  1  0  0  0  0  0999 V2000
    6.0443  -10.3387   27.0964 C   0  0  0  0  0  0  0  0  0  0  0  0
    5.6237  -12.0147   26.6036 S   0  0  0  0  0  0  0  0  0  0  0  0
    7.1307  -12.8746   26.1121 C   0  0  0  0  0  0  0  0  0  0  0  0
    6.8573  -14.3294   25.7596 C   0  0  0  0  0  0  0  0  0  0  0  0
    8.1871  -14.9420   25.2777 C   0  0  2  0  0  0  0  0  0  0  0  0
    9.2407  -13.9926   25.4530 N   0  0  0  0  0  0  0  0  0  0  0  0
    8.0537  -15.5467   23.9627 C   0  0  0  0  0  0  0  0  0  0  0  0
    8.0910  -16.8280   23.8955 O   0  0  0  0  0  0  0  0  0  0  0  0
    7.8819  -14.8720   22.7086 N   0  0  0  0  0  0  0  0  0  0  0  0
    7.2931  -13.5870   22.4585 C   0  0  0  0  0  0  0  0  0  0  0  0
    8.1653  -13.0408   21.3171 C   0  0  0  0  0  0  0  0  0  0  0  0
    8.0841  -14.2776   20.4015 C   0  0  0  0  0  0  0  0  0  0  0  0
    8.2806  -15.4092   21.4048 C   0  0  1  0  0  0  0  0  0  0  0  0
    9.6668  -15.8622   21.3609 C   0  0  0  0  0  0  0  0  0  0  0  0
   10.6117  -15.0602   21.2537 O   0  0  0  0  0  0  0  0  0  0  0  0
    9.9404  -17.2468   21.4424 N   0  0  0  0  0  0  0  0  0  0  0  0
   11.2733  -17.7835   21.3641 C   0  0  1  0  0  0  0  0  0  0  0  0
   11.5328  -18.6052   22.6318 C   0  0  0  0  0  0  0  0  0  0  0  0
   11.1682  -17.5460   24.0564 S   0  0  0  0  0  0  0  0  0  0  0  0
   11.3904  -18.6210   20.1601 C   0  0  0  0  0  0  0  0  0  0  0  0
   10.3786  -18.9142   19.4842 O   0  0  0  0  0  0  0  0  0  0  0  0
   12.6373  -19.0838   19.7803 O   0  0  0  0  0  0  0  0  0  0  0  0
  1  2  1  0
  2  3  1  0
  3  4  1  0
  5  7  1  0
  5  4  1  0
  5  6  1  6
  7  8  2  0
  9 13  1  0
  9  7  1  0
 10  9  1  0
 11 10  1  0
 11 12  1  0
 12 13  1  0
 13 14  1  1
 14 16  1  0
 14 15  2  0
 16 17  1  0
 17 20  1  0
 17 18  1  1
 19 18  1  0
 20 21  2  0
 20 22  1  0
M  END
$$$$
