MPC.pdb
     RDKit          3D

 22 22  0  0  1  0  0  0  0  0999 V2000
    6.9606  -12.0762   26.7084 C   0  0  0  0  0  0  0  0  0  0  0  0
    5.3502  -12.8733   26.7191 S   0  0  0  0  0  0  0  0  0  0  0  0
    5.3881  -14.2815   25.5932 C   0  0  0  0  0  0  0  0  0  0  0  0
    6.3010  -15.3857   26.1060 C   0  0  0  0  0  0  0  0  0  0  0  0
    6.3868  -16.4587   25.0029 C   0  0  2  0  0  0  0  0  0  0  0  0
    5.8403  -17.6867   25.4884 N   0  0  0  0  0  0  0  0  0  0  0  0
    7.7127  -16.5136   24.4100 C   0  0  0  0  0  0  0  0  0  0  0  0
    8.4951  -17.4539   24.7992 O   0  0  0  0  0  0  0  0  0  0  0  0
    8.2620  -15.6280   23.4244 N   0  0  0  0  0  0  0  0  0  0  0  0
    7.6283  -14.5220   22.7644 C   0  0  0  0  0  0  0  0  0  0  0  0
    8.7773  -13.5090   22.6410 C   0  0  0  0  0  0  0  0  0  0  0  0
    9.8160  -14.4671   22.0264 C   0  0  0  0  0  0  0  0  0  0  0  0
    9.6215  -15.7132   22.8837 C   0  0  1  0  0  0  0  0  0  0  0  0
   10.6551  -15.7615   23.9124 C   0  0  0  0  0  0  0  0  0  0  0  0
   11.8639  -15.7985   23.6209 O   0  0  0  0  0  0  0  0  0  0  0  0
   10.2711  -15.7661   25.2730 N   0  0  0  0  0  0  0  0  0  0  0  0
   11.1576  -15.3676   26.3341 C   0  0  1  0  0  0  0  0  0  0  0  0
   10.5794  -14.1102   26.9930 C   0  0  0  0  0  0  0  0  0  0  0  0
   11.5189  -13.8056   28.5126 S   0  0  0  0  0  0  0  0  0  0  0  0
   11.2762  -16.4651   27.3067 C   0  0  0  0  0  0  0  0  0  0  0  0
   12.1338  -16.4227   28.2174 O   0  0  0  0  0  0  0  0  0  0  0  0
   10.4255  -17.5508   27.2040 O   0  0  0  0  0  0  0  0  0  0  0  0
  1  2  1  0
  2  3  1  0
  3  4  1  0
  5  7  1  0
  5  4  1  0
  5  6  1  1
  7  8  2  0
  9 13  1  0
  9  7  1  0
 10  9  1  0
 11 10  1  0
 11 12  1  0
 12 13  1  0
 13 14  1  1
 14 16  1  0
 14 15  2  0
 16 17  1  0
 17 20  1  0
 17 18  1  1
 19 18  1  0
 20 21  2  0
 20 22  1  0
M  END
$$$$
