MPC.pdb
     RDKit          3D

 22 22  0  0  1  0  0  0  0  0999 V2000
    8.0177  -11.6463   27.0000 C   0  0  0  0  0  0  0  0  0  0  0  0
    6.2491  -11.8995   27.1917 S   0  0  0  0  0  0  0  0  0  0  0  0
    5.7798  -13.4150   26.3346 C   0  0  0  0  0  0  0  0  0  0  0  0
    6.9663  -14.0472   25.6218 C   0  0  0  0  0  0  0  0  0  0  0  0
    6.4690  -15.3550   24.9753 C   0  0  2  0  0  0  0  0  0  0  0  0
    6.0407  -16.2588   25.9960 N   0  0  0  0  0  0  0  0  0  0  0  0
    7.4159  -15.8634   23.9966 C   0  0  0  0  0  0  0  0  0  0  0  0
    8.1615  -16.8461   24.3514 O   0  0  0  0  0  0  0  0  0  0  0  0
    7.6208  -15.3910   22.6578 N   0  0  0  0  0  0  0  0  0  0  0  0
    6.8362  -14.4474   21.9132 C   0  0  0  0  0  0  0  0  0  0  0  0
    7.9056  -13.6880   21.1124 C   0  0  0  0  0  0  0  0  0  0  0  0
    8.6349  -14.9208   20.5442 C   0  0  0  0  0  0  0  0  0  0  0  0
    8.7061  -15.8220   21.7724 C   0  0  1  0  0  0  0  0  0  0  0  0
   10.0291  -15.7141   22.3781 C   0  0  0  0  0  0  0  0  0  0  0  0
   10.4703  -14.6271   22.7917 O   0  0  0  0  0  0  0  0  0  0  0  0
   10.8274  -16.8749   22.4967 N   0  0  0  0  0  0  0  0  0  0  0  0
   12.0943  -16.8829   23.1792 C   0  0  1  0  0  0  0  0  0  0  0  0
   12.0954  -18.0515   24.1710 C   0  0  0  0  0  0  0  0  0  0  0  0
   10.9056  -17.6605   25.4810 S   0  0  0  0  0  0  0  0  0  0  0  0
   13.1769  -17.0273   22.1934 C   0  0  0  0  0  0  0  0  0  0  0  0
   14.3740  -16.8972   22.5347 O   0  0  0  0  0  0  0  0  0  0  0  0
   12.8566  -17.3100   20.8779 O   0  0  0  0  0  0  0  0  0  0  0  0
  1  2  1  0
  2  3  1  0
  3  4  1  0
  5  7  1  0
  5  4  1  0
  5  6  1  1
  7  8  2  0
  9 13  1  0
  9  7  1  0
 10  9  1  0
 11 10  1  0
 11 12  1  0
 12 13  1  0
 13 14  1  1
 14 16  1  0
 14 15  2  0
 16 17  1  0
 17 20  1  0
 17 18  1  1
 19 18  1  0
 20 21  2  0
 20 22  1  0
M  END
$$$$
