NAS.pdb
     RDKit          3D

 20 19  0  0  1  0  0  0  0  0999 V2000
    8.1565  -12.6356   16.1178 N   0  0  0  0  0  0  0  0  0  0  0  0
    7.6890  -13.8990   16.5286 C   0  0  0  0  0  0  0  0  0  0  0  0
    7.6243  -14.8464   15.7229 O   0  0  0  0  0  0  0  0  0  0  0  0
    7.2791  -14.0658   17.9394 C   0  0  0  0  0  0  0  0  0  0  0  0
    8.4339  -14.6227   18.7828 C   0  0  2  0  0  0  0  0  0  0  0  0
    8.7959  -15.9480   18.3307 N   0  0  0  0  0  0  0  0  0  0  0  0
    7.9099  -14.7333   20.1634 C   0  0  0  0  0  0  0  0  0  0  0  0
    7.6774  -13.6829   20.8052 O   0  0  0  0  0  0  0  0  0  0  0  0
    6.5780  -17.2953   22.4620 C   0  0  0  0  0  0  0  0  0  0  0  0
    7.2188  -15.9610   22.1662 C   0  0  2  0  0  0  0  0  0  0  0  0
    7.6596  -15.9790   20.7914 N   0  0  0  0  0  0  0  0  0  0  0  0
    8.3002  -15.6297   23.1062 C   0  0  0  0  0  0  0  0  0  0  0  0
    9.4791  -15.9080   22.7911 O   0  0  0  0  0  0  0  0  0  0  0  0
    7.2357  -13.4907   26.2944 O   0  0  0  0  0  0  0  0  0  0  0  0
    8.5817  -13.3724   25.9650 C   0  0  0  0  0  0  0  0  0  0  0  0
    8.9960  -14.6882   25.3353 C   0  0  2  0  0  0  0  0  0  0  0  0
    7.9914  -15.0074   24.3396 N   0  0  0  0  0  0  0  0  0  0  0  0
    9.0968  -15.7493   26.3634 C   0  0  0  0  0  0  0  0  0  0  0  0
    8.3023  -16.7272   26.2901 O   0  0  0  0  0  0  0  0  0  0  0  0
   10.0177  -15.7168   27.3949 O   0  0  0  0  0  0  0  0  0  0  0  0
  2  1  1  0
  3  2  2  0
  4  5  1  0
  4  2  1  0
  5  6  1  6
  7  8  2  0
  7  5  1  0
 10  9  1  1
 10 12  1  0
 10 11  1  0
 11  7  1  0
 12 13  2  0
 15 14  1  0
 16 15  1  1
 17 12  1  0
 17 16  1  0
 18 20  1  0
 18 16  1  0
 19 18  2  0
M  END
$$$$
