NAS.pdb
     RDKit          3D

 20 19  0  0  1  0  0  0  0  0999 V2000
   12.4488  -19.1723   13.4404 N   0  0  0  0  0  0  0  0  0  0  0  0
   12.5443  -17.8070   13.1081 C   0  0  0  0  0  0  0  0  0  0  0  0
   12.2988  -17.4149   11.9518 O   0  0  0  0  0  0  0  0  0  0  0  0
   12.9429  -16.8574   14.1690 C   0  0  0  0  0  0  0  0  0  0  0  0
   11.7196  -16.3756   14.9603 C   0  0  2  0  0  0  0  0  0  0  0  0
   10.9181  -15.4803   14.1552 N   0  0  0  0  0  0  0  0  0  0  0  0
   12.2563  -15.6085   16.1077 C   0  0  0  0  0  0  0  0  0  0  0  0
   13.2902  -14.9210   15.9415 O   0  0  0  0  0  0  0  0  0  0  0  0
   11.2492  -14.7025   19.5549 C   0  0  0  0  0  0  0  0  0  0  0  0
   12.2353  -14.7900   18.4154 C   0  0  2  0  0  0  0  0  0  0  0  0
   11.6495  -15.6188   17.3885 N   0  0  0  0  0  0  0  0  0  0  0  0
   13.5587  -15.2664   18.8450 C   0  0  0  0  0  0  0  0  0  0  0  0
   13.8202  -16.4866   18.7497 O   0  0  0  0  0  0  0  0  0  0  0  0
   17.9282  -13.9066   20.3148 O   0  0  0  0  0  0  0  0  0  0  0  0
   16.6573  -13.5023   19.9202 C   0  0  0  0  0  0  0  0  0  0  0  0
   15.7931  -14.7478   19.8831 C   0  0  2  0  0  0  0  0  0  0  0  0
   14.5048  -14.3446   19.3541 N   0  0  0  0  0  0  0  0  0  0  0  0
   15.6642  -15.3333   21.2371 C   0  0  0  0  0  0  0  0  0  0  0  0
   14.6473  -15.0330   21.9217 O   0  0  0  0  0  0  0  0  0  0  0  0
   16.6032  -16.1901   21.7824 O   0  0  0  0  0  0  0  0  0  0  0  0
  2  1  1  0
  3  2  2  0
  4  5  1  0
  4  2  1  0
  5  6  1  6
  7  8  2  0
  7  5  1  0
 10  9  1  1
 10 12  1  0
 10 11  1  0
 11  7  1  0
 12 13  2  0
 15 14  1  0
 16 15  1  1
 17 12  1  0
 17 16  1  0
 18 20  1  0
 18 16  1  0
 19 18  2  0
M  END
$$$$
