NAS.pdb
     RDKit          3D

 20 19  0  0  1  0  0  0  0  0999 V2000
   -1.7391  -26.3415   24.6087 N   0  0  0  0  0  0  0  0  0  0  0  0
   -2.7255  -27.3345   24.7642 C   0  0  0  0  0  0  0  0  0  0  0  0
   -2.7557  -28.3250   24.0099 O   0  0  0  0  0  0  0  0  0  0  0  0
   -3.7199  -27.1663   25.8454 C   0  0  0  0  0  0  0  0  0  0  0  0
   -3.4670  -25.8686   26.6246 C   0  0  2  0  0  0  0  0  0  0  0  0
   -2.3386  -26.0262   27.5155 N   0  0  0  0  0  0  0  0  0  0  0  0
   -4.6779  -25.6488   27.4483 C   0  0  0  0  0  0  0  0  0  0  0  0
   -5.7651  -25.4174   26.8707 O   0  0  0  0  0  0  0  0  0  0  0  0
   -5.6966  -25.9233   31.0010 C   0  0  0  0  0  0  0  0  0  0  0  0
   -5.9188  -25.5453   29.5567 C   0  0  2  0  0  0  0  0  0  0  0  0
   -4.6597  -25.6889   28.8649 N   0  0  0  0  0  0  0  0  0  0  0  0
   -6.5021  -24.2039   29.4041 C   0  0  0  0  0  0  0  0  0  0  0  0
   -5.7349  -23.2261   29.2569 O   0  0  0  0  0  0  0  0  0  0  0  0
  -10.6816  -21.7969   29.1014 O   0  0  0  0  0  0  0  0  0  0  0  0
  -10.0526  -23.0311   29.2256 C   0  0  0  0  0  0  0  0  0  0  0  0
   -8.5599  -22.7642   29.2254 C   0  0  2  0  0  0  0  0  0  0  0  0
   -7.9085  -24.0439   29.4261 N   0  0  0  0  0  0  0  0  0  0  0  0
   -8.2025  -21.8006   30.2915 C   0  0  0  0  0  0  0  0  0  0  0  0
   -7.9929  -22.2479   31.4530 O   0  0  0  0  0  0  0  0  0  0  0  0
   -8.0887  -20.4396   30.0727 O   0  0  0  0  0  0  0  0  0  0  0  0
  2  1  1  0
  3  2  2  0
  4  5  1  0
  4  2  1  0
  5  6  1  1
  7  8  2  0
  7  5  1  0
 10  9  1  1
 10 12  1  0
 10 11  1  0
 11  7  1  0
 12 13  2  0
 15 14  1  0
 16 15  1  1
 17 12  1  0
 17 16  1  0
 18 20  1  0
 18 16  1  0
 19 18  2  0
M  END
$$$$
