NAS.pdb
     RDKit          3D

 20 19  0  0  1  0  0  0  0  0999 V2000
   10.0245  -17.1192   13.2308 N   0  0  0  0  0  0  0  0  0  0  0  0
    8.9957  -16.2361   13.6118 C   0  0  0  0  0  0  0  0  0  0  0  0
    7.9878  -16.0866   12.8958 O   0  0  0  0  0  0  0  0  0  0  0  0
    9.1478  -15.4952   14.8823 C   0  0  0  0  0  0  0  0  0  0  0  0
    8.6583  -16.3366   16.0686 C   0  0  2  0  0  0  0  0  0  0  0  0
    7.2173  -16.4585   16.0408 N   0  0  0  0  0  0  0  0  0  0  0  0
    9.0338  -15.5789   17.2843 C   0  0  0  0  0  0  0  0  0  0  0  0
   10.2485  -15.4494   17.5618 O   0  0  0  0  0  0  0  0  0  0  0  0
    7.4242  -13.5980   19.9722 C   0  0  0  0  0  0  0  0  0  0  0  0
    8.5528  -14.4064   19.3796 C   0  0  2  0  0  0  0  0  0  0  0  0
    8.0762  -14.9926   18.1492 N   0  0  0  0  0  0  0  0  0  0  0  0
    9.0881  -15.4060   20.3162 C   0  0  0  0  0  0  0  0  0  0  0  0
    8.6229  -16.5676   20.2889 O   0  0  0  0  0  0  0  0  0  0  0  0
   12.7965  -15.4552   21.2163 O   0  0  0  0  0  0  0  0  0  0  0  0
   12.1178  -15.4645   22.4302 C   0  0  0  0  0  0  0  0  0  0  0  0
   10.7195  -15.9782   22.1465 C   0  0  2  0  0  0  0  0  0  0  0  0
   10.1109  -15.0399   21.2238 N   0  0  0  0  0  0  0  0  0  0  0  0
    9.9401  -16.0883   23.4008 C   0  0  0  0  0  0  0  0  0  0  0  0
    9.0123  -15.2563   23.6006 O   0  0  0  0  0  0  0  0  0  0  0  0
   10.1820  -17.0569   24.3581 O   0  0  0  0  0  0  0  0  0  0  0  0
  2  1  1  0
  3  2  2  0
  4  5  1  0
  4  2  1  0
  5  6  1  6
  7  8  2  0
  7  5  1  0
 10  9  1  1
 10 12  1  0
 10 11  1  0
 11  7  1  0
 12 13  2  0
 15 14  1  0
 16 15  1  1
 17 12  1  0
 17 16  1  0
 18 20  1  0
 18 16  1  0
 19 18  2  0
M  END
$$$$
