NAS.pdb
     RDKit          3D

 20 19  0  0  1  0  0  0  0  0999 V2000
    7.5989  -14.2221   11.9490 N   0  0  0  0  0  0  0  0  0  0  0  0
    8.5189  -14.9545   12.7240 C   0  0  0  0  0  0  0  0  0  0  0  0
    8.9864  -16.0312   12.3077 O   0  0  0  0  0  0  0  0  0  0  0  0
    8.9112  -14.4089   14.0409 C   0  0  0  0  0  0  0  0  0  0  0  0
    8.5915  -15.4051   15.1635 C   0  0  2  0  0  0  0  0  0  0  0  0
    7.1610  -15.5695   15.3005 N   0  0  0  0  0  0  0  0  0  0  0  0
    9.1066  -14.7907   16.4086 C   0  0  0  0  0  0  0  0  0  0  0  0
   10.3448  -14.7544   16.5945 O   0  0  0  0  0  0  0  0  0  0  0  0
    7.8020  -13.0955   19.4441 C   0  0  0  0  0  0  0  0  0  0  0  0
    8.8643  -13.7979   18.6338 C   0  0  2  0  0  0  0  0  0  0  0  0
    8.2572  -14.2409   17.4010 N   0  0  0  0  0  0  0  0  0  0  0  0
    9.5127  -14.8911   19.3737 C   0  0  0  0  0  0  0  0  0  0  0  0
    8.9942  -16.0298   19.3437 O   0  0  0  0  0  0  0  0  0  0  0  0
   13.2459  -14.1925   20.8180 O   0  0  0  0  0  0  0  0  0  0  0  0
   12.9044  -15.4798   20.4174 C   0  0  0  0  0  0  0  0  0  0  0  0
   11.4459  -15.6794   20.7810 C   0  0  2  0  0  0  0  0  0  0  0  0
   10.7012  -14.6383   20.1001 N   0  0  0  0  0  0  0  0  0  0  0  0
   11.2600  -15.6079   22.2484 C   0  0  0  0  0  0  0  0  0  0  0  0
   10.5355  -14.6847   22.7129 O   0  0  0  0  0  0  0  0  0  0  0  0
   11.8416  -16.5029   23.1282 O   0  0  0  0  0  0  0  0  0  0  0  0
  2  1  1  0
  3  2  2  0
  4  5  1  0
  4  2  1  0
  5  6  1  1
  7  8  2  0
  7  5  1  0
 10  9  1  1
 10 12  1  0
 10 11  1  0
 11  7  1  0
 12 13  2  0
 15 14  1  0
 16 15  1  1
 17 12  1  0
 17 16  1  0
 18 20  1  0
 18 16  1  0
 19 18  2  0
M  END
$$$$
