NAS.pdb
     RDKit          3D

 20 19  0  0  1  0  0  0  0  0999 V2000
   14.0639  -18.8412   20.1428 N   0  0  0  0  0  0  0  0  0  0  0  0
   12.9338  -19.0975   20.9433 C   0  0  0  0  0  0  0  0  0  0  0  0
   12.3395  -20.1897   20.8741 O   0  0  0  0  0  0  0  0  0  0  0  0
   12.4764  -18.0351   21.8643 C   0  0  0  0  0  0  0  0  0  0  0  0
   11.0117  -17.6674   21.5915 C   0  0  2  0  0  0  0  0  0  0  0  0
   10.9081  -16.8591   20.3965 N   0  0  0  0  0  0  0  0  0  0  0  0
   10.5799  -16.8440   22.7442 C   0  0  0  0  0  0  0  0  0  0  0  0
   11.1809  -15.7695   22.9753 O   0  0  0  0  0  0  0  0  0  0  0  0
    7.6278  -16.5560   24.9012 C   0  0  0  0  0  0  0  0  0  0  0  0
    9.0742  -16.2616   24.5853 C   0  0  2  0  0  0  0  0  0  0  0  0
    9.5136  -17.2200   23.5988 N   0  0  0  0  0  0  0  0  0  0  0  0
    9.9258  -16.2479   25.7842 C   0  0  0  0  0  0  0  0  0  0  0  0
   10.6402  -17.2463   26.0275 O   0  0  0  0  0  0  0  0  0  0  0  0
    9.1162  -13.3979   28.4241 O   0  0  0  0  0  0  0  0  0  0  0  0
   10.4815  -13.6631   28.4342 C   0  0  0  0  0  0  0  0  0  0  0  0
   10.6598  -15.0638   27.8814 C   0  0  2  0  0  0  0  0  0  0  0  0
    9.9227  -15.1157   26.6340 N   0  0  0  0  0  0  0  0  0  0  0  0
   10.1646  -16.0721   28.8464 C   0  0  0  0  0  0  0  0  0  0  0  0
    9.1075  -16.7001   28.5618 O   0  0  0  0  0  0  0  0  0  0  0  0
   10.8052  -16.3549   30.0392 O   0  0  0  0  0  0  0  0  0  0  0  0
  2  1  1  0
  3  2  2  0
  4  5  1  0
  4  2  1  0
  5  6  1  6
  7  8  2  0
  7  5  1  0
 10  9  1  1
 10 12  1  0
 10 11  1  0
 11  7  1  0
 12 13  2  0
 15 14  1  0
 16 15  1  1
 17 12  1  0
 17 16  1  0
 18 20  1  0
 18 16  1  0
 19 18  2  0
M  END
$$$$
