NAS.pdb
     RDKit          3D

 20 19  0  0  1  0  0  0  0  0999 V2000
    6.5569  -19.6101   15.4279 N   0  0  0  0  0  0  0  0  0  0  0  0
    6.4149  -18.2131   15.5367 C   0  0  0  0  0  0  0  0  0  0  0  0
    5.7885  -17.5682   14.6750 O   0  0  0  0  0  0  0  0  0  0  0  0
    7.0293  -17.5384   16.7001 C   0  0  0  0  0  0  0  0  0  0  0  0
    7.6185  -16.1801   16.2969 C   0  0  2  0  0  0  0  0  0  0  0  0
    8.7049  -16.3593   15.3590 N   0  0  0  0  0  0  0  0  0  0  0  0
    8.1731  -15.5948   17.5390 C   0  0  0  0  0  0  0  0  0  0  0  0
    9.2471  -16.0525   17.9929 O   0  0  0  0  0  0  0  0  0  0  0  0
    7.3745  -12.8800   19.9469 C   0  0  0  0  0  0  0  0  0  0  0  0
    8.1549  -14.0770   19.4605 C   0  0  2  0  0  0  0  0  0  0  0  0
    7.5397  -14.5368   18.2378 N   0  0  0  0  0  0  0  0  0  0  0  0
    8.2630  -15.1352   20.4760 C   0  0  0  0  0  0  0  0  0  0  0  0
    7.3213  -15.9502   20.6000 O   0  0  0  0  0  0  0  0  0  0  0  0
   10.9330  -17.5346   20.9547 O   0  0  0  0  0  0  0  0  0  0  0  0
    9.7175  -17.5489   21.6305 C   0  0  0  0  0  0  0  0  0  0  0  0
    9.5884  -16.2087   22.3281 C   0  0  2  0  0  0  0  0  0  0  0  0
    9.4201  -15.2128   21.2879 N   0  0  0  0  0  0  0  0  0  0  0  0
   10.7863  -15.9332   23.1539 C   0  0  0  0  0  0  0  0  0  0  0  0
   11.0527  -16.7251   24.0999 O   0  0  0  0  0  0  0  0  0  0  0  0
   11.6220  -14.8528   22.9362 O   0  0  0  0  0  0  0  0  0  0  0  0
  2  1  1  0
  3  2  2  0
  4  5  1  0
  4  2  1  0
  5  6  1  6
  7  8  2  0
  7  5  1  0
 10  9  1  1
 10 12  1  0
 10 11  1  0
 11  7  1  0
 12 13  2  0
 15 14  1  0
 16 15  1  6
 17 12  1  0
 17 16  1  0
 18 20  1  0
 18 16  1  0
 19 18  2  0
M  END
$$$$
