NAS.pdb
     RDKit          3D

 20 19  0  0  1  0  0  0  0  0999 V2000
    9.3041  -15.1777   12.5810 N   0  0  0  0  0  0  0  0  0  0  0  0
    9.6641  -16.0937   13.5884 C   0  0  0  0  0  0  0  0  0  0  0  0
    9.7852  -17.3064   13.3320 O   0  0  0  0  0  0  0  0  0  0  0  0
    9.8929  -15.5742   14.9536 C   0  0  0  0  0  0  0  0  0  0  0  0
    8.7643  -16.0056   15.8997 C   0  0  2  0  0  0  0  0  0  0  0  0
    7.4995  -15.4598   15.4588 N   0  0  0  0  0  0  0  0  0  0  0  0
    9.0899  -15.4101   17.2159 C   0  0  0  0  0  0  0  0  0  0  0  0
   10.1383  -15.7726   17.7979 O   0  0  0  0  0  0  0  0  0  0  0  0
    7.6342  -12.9714   19.6137 C   0  0  0  0  0  0  0  0  0  0  0  0
    8.6148  -14.0365   19.1866 C   0  0  2  0  0  0  0  0  0  0  0  0
    8.2649  -14.4459   17.8469 N   0  0  0  0  0  0  0  0  0  0  0  0
    8.6747  -15.1640   20.1288 C   0  0  0  0  0  0  0  0  0  0  0  0
    7.7148  -15.9660   20.1708 O   0  0  0  0  0  0  0  0  0  0  0  0
   11.8461  -17.0036   20.8663 O   0  0  0  0  0  0  0  0  0  0  0  0
   10.6476  -17.5127   21.3548 C   0  0  0  0  0  0  0  0  0  0  0  0
    9.9005  -16.3508   21.9803 C   0  0  2  0  0  0  0  0  0  0  0  0
    9.8069  -15.3210   20.9639 N   0  0  0  0  0  0  0  0  0  0  0  0
   10.6110  -15.8617   23.1841 C   0  0  0  0  0  0  0  0  0  0  0  0
   10.7059  -16.6366   24.1758 O   0  0  0  0  0  0  0  0  0  0  0  0
   11.1721  -14.6004   23.2699 O   0  0  0  0  0  0  0  0  0  0  0  0
  2  1  1  0
  3  2  2  0
  4  5  1  0
  4  2  1  0
  5  6  1  6
  7  8  2  0
  7  5  1  0
 10  9  1  1
 10 12  1  0
 10 11  1  0
 11  7  1  0
 12 13  2  0
 15 14  1  0
 16 15  1  6
 17 12  1  0
 17 16  1  0
 18 20  1  0
 18 16  1  0
 19 18  2  0
M  END
$$$$
