NAS.pdb
     RDKit          3D

 20 19  0  0  1  0  0  0  0  0999 V2000
    7.0965  -13.5970   17.2601 N   0  0  0  0  0  0  0  0  0  0  0  0
    8.2245  -14.4273   17.1122 C   0  0  0  0  0  0  0  0  0  0  0  0
    8.2671  -15.2885   16.2136 O   0  0  0  0  0  0  0  0  0  0  0  0
    9.3515  -14.2462   18.0519 C   0  0  0  0  0  0  0  0  0  0  0  0
    9.3493  -15.3413   19.1269 C   0  0  2  0  0  0  0  0  0  0  0  0
    8.1548  -16.1500   19.0213 N   0  0  0  0  0  0  0  0  0  0  0  0
    9.3130  -14.6324   20.4266 C   0  0  0  0  0  0  0  0  0  0  0  0
   10.2841  -13.9077   20.7444 O   0  0  0  0  0  0  0  0  0  0  0  0
    7.0543  -13.4664   22.9728 C   0  0  0  0  0  0  0  0  0  0  0  0
    8.3675  -14.1259   22.6278 C   0  0  2  0  0  0  0  0  0  0  0  0
    8.2248  -14.7387   21.3283 N   0  0  0  0  0  0  0  0  0  0  0  0
    8.8143  -15.0750   23.6585 C   0  0  0  0  0  0  0  0  0  0  0  0
    8.7716  -14.7251   24.8594 O   0  0  0  0  0  0  0  0  0  0  0  0
    9.0127  -18.8126   22.5810 O   0  0  0  0  0  0  0  0  0  0  0  0
    8.9907  -18.6181   23.9580 C   0  0  0  0  0  0  0  0  0  0  0  0
    9.7566  -17.3383   24.2321 C   0  0  2  0  0  0  0  0  0  0  0  0
    9.2806  -16.3563   23.2775 N   0  0  0  0  0  0  0  0  0  0  0  0
   11.2139  -17.5639   24.0971 C   0  0  0  0  0  0  0  0  0  0  0  0
   11.8169  -17.0058   23.1390 O   0  0  0  0  0  0  0  0  0  0  0  0
   11.9401  -18.3544   24.9693 O   0  0  0  0  0  0  0  0  0  0  0  0
  2  1  1  0
  3  2  2  0
  4  5  1  0
  4  2  1  0
  5  6  1  6
  7  8  2  0
  7  5  1  0
 10  9  1  1
 10 12  1  0
 10 11  1  0
 11  7  1  0
 12 13  2  0
 15 14  1  0
 16 15  1  6
 17 12  1  0
 17 16  1  0
 18 20  1  0
 18 16  1  0
 19 18  2  0
M  END
$$$$
