NAS.pdb
     RDKit          3D

 20 19  0  0  1  0  0  0  0  0999 V2000
    7.3749  -18.7058   14.5731 N   0  0  0  0  0  0  0  0  0  0  0  0
    7.0328  -17.3974   14.9663 C   0  0  0  0  0  0  0  0  0  0  0  0
    6.3299  -16.6762   14.2337 O   0  0  0  0  0  0  0  0  0  0  0  0
    7.5312  -16.9083   16.2696 C   0  0  0  0  0  0  0  0  0  0  0  0
    8.3605  -15.6292   16.0934 C   0  0  2  0  0  0  0  0  0  0  0  0
    9.5777  -15.9128   15.3653 N   0  0  0  0  0  0  0  0  0  0  0  0
    8.7309  -15.1956   17.4601 C   0  0  0  0  0  0  0  0  0  0  0  0
    9.5844  -15.8600   18.0919 O   0  0  0  0  0  0  0  0  0  0  0  0
    7.9424  -12.4340   19.8189 C   0  0  0  0  0  0  0  0  0  0  0  0
    8.6291  -13.7133   19.4065 C   0  0  2  0  0  0  0  0  0  0  0  0
    8.1600  -14.0591   18.0855 N   0  0  0  0  0  0  0  0  0  0  0  0
    8.4391  -14.7991   20.3800 C   0  0  0  0  0  0  0  0  0  0  0  0
    7.3759  -15.4588   20.3474 O   0  0  0  0  0  0  0  0  0  0  0  0
   11.5631  -16.6471   21.8183 O   0  0  0  0  0  0  0  0  0  0  0  0
   10.3011  -17.2265   21.8951 C   0  0  0  0  0  0  0  0  0  0  0  0
    9.3410  -16.1312   22.3169 C   0  0  2  0  0  0  0  0  0  0  0  0
    9.4530  -15.0765   21.3282 N   0  0  0  0  0  0  0  0  0  0  0  0
    9.6739  -15.6402   23.6737 C   0  0  0  0  0  0  0  0  0  0  0  0
   10.0747  -14.4495   23.7947 O   0  0  0  0  0  0  0  0  0  0  0  0
    9.5659  -16.4238   24.8084 O   0  0  0  0  0  0  0  0  0  0  0  0
  2  1  1  0
  3  2  2  0
  4  5  1  0
  4  2  1  0
  5  6  1  6
  7  8  2  0
  7  5  1  0
 10  9  1  1
 10 12  1  0
 10 11  1  0
 11  7  1  0
 12 13  2  0
 15 14  1  0
 16 15  1  6
 17 12  1  0
 17 16  1  0
 18 20  1  0
 18 16  1  0
 19 18  2  0
M  END
$$$$
