NFR.pdb
     RDKit          3D

 31 31  0  0  1  0  0  0  0  0999 V2000
    8.5890  -17.8733   17.2869 N   0  0  0  0  0  0  0  0  0  0  0  0
    9.4636  -16.7536   17.2875 C   0  0  0  0  0  0  0  0  0  0  0  0
   10.1227  -16.5110   16.2546 O   0  0  0  0  0  0  0  0  0  0  0  0
    9.5511  -15.9271   18.5154 C   0  0  0  0  0  0  0  0  0  0  0  0
    8.9450  -16.6384   19.6936 C   0  0  2  0  0  0  0  0  0  0  0  0
    7.6063  -17.0664   19.4206 N   0  0  0  0  0  0  0  0  0  0  0  0
    9.0380  -15.7907   20.9008 C   0  0  0  0  0  0  0  0  0  0  0  0
   10.1854  -15.4491   21.2855 O   0  0  0  0  0  0  0  0  0  0  0  0
    7.8950  -15.3556   21.6294 N   0  0  0  0  0  0  0  0  0  0  0  0
    8.0628  -14.7803   22.9459 C   0  0  1  0  0  0  0  0  0  0  0  0
    6.8585  -13.9574   23.3166 C   0  0  0  0  0  0  0  0  0  0  0  0
    6.9438  -13.3837   24.6715 C   0  0  0  0  0  0  0  0  0  0  0  0
    7.5939  -12.1935   24.8966 C   0  0  0  0  0  0  0  0  0  0  0  0
    7.6848  -11.6364   26.1715 C   0  0  0  0  0  0  0  0  0  0  0  0
    7.1187  -12.2801   27.2255 C   0  0  0  0  0  0  0  0  0  0  0  0
    6.4627  -13.4684   27.0385 C   0  0  0  0  0  0  0  0  0  0  0  0
    6.3772  -14.0200   25.7514 C   0  0  0  0  0  0  0  0  0  0  0  0
    8.3289  -15.8651   23.9276 C   0  0  0  0  0  0  0  0  0  0  0  0
    7.6473  -16.9242   23.9646 O   0  0  0  0  0  0  0  0  0  0  0  0
   13.9597  -20.5966   22.9544 N   0  0  0  0  0  0  0  0  0  0  0  0
   14.4254  -20.5873   24.2944 C   0  0  0  0  0  0  0  0  0  0  0  0
   14.8641  -21.7113   24.7649 N   0  0  0  0  0  0  0  0  0  0  0  0
   14.4009  -19.3915   25.0612 N   0  0  0  0  0  0  0  0  0  0  0  0
   13.6194  -18.2828   24.5692 C   0  0  0  0  0  0  0  0  0  0  0  0
   12.3039  -18.0921   25.2128 C   0  0  0  0  0  0  0  0  0  0  0  0
   11.3695  -17.0561   24.7913 C   0  0  0  0  0  0  0  0  0  0  0  0
   10.0475  -16.9746   25.4443 C   0  0  2  0  0  0  0  0  0  0  0  0
    9.3702  -15.7345   24.8599 N   0  0  0  0  0  0  0  0  0  0  0  0
   10.1377  -16.5977   26.8602 C   0  0  0  0  0  0  0  0  0  0  0  0
   10.2502  -17.4655   27.8948 O   0  0  0  0  0  0  0  0  0  0  0  0
   10.1035  -15.3575   27.1769 O   0  0  0  0  0  0  0  0  0  0  0  0
  2  1  1  0
  2  3  2  0
  4  5  1  0
  4  2  1  0
  5  6  1  6
  7  8  2  0
  7  5  1  0
  9  7  1  0
 10  9  1  0
 10 11  1  1
 11 12  1  0
 12 13  2  0
 12 17  1  0
 13 14  1  0
 14 15  2  0
 16 15  1  0
 17 16  2  0
 18 28  1  0
 18 10  1  0
 19 18  2  0
 20 21  1  0
 21 23  1  0
 22 21  2  0
 23 24  1  0
 25 24  1  0
 25 26  1  0
 27 26  1  6
 27 28  1  0
 27 29  1  0
 29 30  1  0
 31 29  2  0
M  END
$$$$
