NFR.pdb
     RDKit          3D

 31 31  0  0  1  0  0  0  0  0999 V2000
    8.6719  -18.7563   18.3706 N   0  0  0  0  0  0  0  0  0  0  0  0
    8.5469  -19.3123   19.6720 C   0  0  0  0  0  0  0  0  0  0  0  0
    8.2021  -20.5080   19.7793 O   0  0  0  0  0  0  0  0  0  0  0  0
    8.8321  -18.4451   20.8404 C   0  0  0  0  0  0  0  0  0  0  0  0
    8.9771  -17.0064   20.4268 C   0  0  2  0  0  0  0  0  0  0  0  0
   10.0526  -16.8298   19.4984 N   0  0  0  0  0  0  0  0  0  0  0  0
    9.1074  -16.1458   21.6213 C   0  0  0  0  0  0  0  0  0  0  0  0
   10.2612  -15.9700   22.0893 O   0  0  0  0  0  0  0  0  0  0  0  0
    7.9928  -15.5209   22.2489 N   0  0  0  0  0  0  0  0  0  0  0  0
    8.1877  -14.7711   23.4704 C   0  0  1  0  0  0  0  0  0  0  0  0
    7.0248  -13.8465   23.7101 C   0  0  0  0  0  0  0  0  0  0  0  0
    7.1071  -13.1342   24.9978 C   0  0  0  0  0  0  0  0  0  0  0  0
    8.0128  -12.1175   25.1877 C   0  0  0  0  0  0  0  0  0  0  0  0
    8.1048  -11.4333   26.3990 C   0  0  0  0  0  0  0  0  0  0  0  0
    7.2814  -11.7736   27.4246 C   0  0  0  0  0  0  0  0  0  0  0  0
    6.3664  -12.7819   27.2713 C   0  0  0  0  0  0  0  0  0  0  0  0
    6.2824  -13.4639   26.0481 C   0  0  0  0  0  0  0  0  0  0  0  0
    8.4001  -15.7152   24.5995 C   0  0  0  0  0  0  0  0  0  0  0  0
    7.6565  -16.7136   24.7937 O   0  0  0  0  0  0  0  0  0  0  0  0
   12.8652  -21.1257   28.1700 N   0  0  0  0  0  0  0  0  0  0  0  0
   12.5108  -21.5247   26.8556 C   0  0  0  0  0  0  0  0  0  0  0  0
   12.3198  -22.7913   26.6645 N   0  0  0  0  0  0  0  0  0  0  0  0
   12.3787  -20.5634   25.8179 N   0  0  0  0  0  0  0  0  0  0  0  0
   12.7290  -19.1944   26.1092 C   0  0  0  0  0  0  0  0  0  0  0  0
   11.6452  -18.3623   26.6697 C   0  0  0  0  0  0  0  0  0  0  0  0
   10.9387  -17.3616   25.8799 C   0  0  0  0  0  0  0  0  0  0  0  0
    9.8383  -16.6011   26.5054 C   0  0  2  0  0  0  0  0  0  0  0  0
    9.4589  -15.5140   25.4991 N   0  0  0  0  0  0  0  0  0  0  0  0
   10.2879  -15.7829   27.6382 C   0  0  0  0  0  0  0  0  0  0  0  0
    9.9560  -15.9931   28.9351 O   0  0  0  0  0  0  0  0  0  0  0  0
   11.0504  -14.7786   27.4160 O   0  0  0  0  0  0  0  0  0  0  0  0
  2  1  1  0
  2  3  2  0
  4  5  1  0
  4  2  1  0
  5  6  1  6
  7  8  2  0
  7  5  1  0
  9  7  1  0
 10  9  1  0
 10 11  1  1
 11 12  1  0
 12 13  2  0
 12 17  1  0
 13 14  1  0
 14 15  2  0
 16 15  1  0
 17 16  2  0
 18 28  1  0
 18 10  1  0
 19 18  2  0
 20 21  1  0
 21 23  1  0
 22 21  2  0
 23 24  1  0
 25 24  1  0
 25 26  1  0
 27 26  1  6
 27 28  1  0
 27 29  1  0
 29 30  1  0
 31 29  2  0
M  END
$$$$
