NFR.pdb
     RDKit          3D

 31 31  0  0  1  0  0  0  0  0999 V2000
    8.0767  -15.3654   18.5308 N   0  0  0  0  0  0  0  0  0  0  0  0
    8.2917  -14.1208   19.1813 C   0  0  0  0  0  0  0  0  0  0  0  0
    8.2338  -13.0745   18.5017 O   0  0  0  0  0  0  0  0  0  0  0  0
    8.5747  -14.1249   20.6368 C   0  0  0  0  0  0  0  0  0  0  0  0
    8.5066  -15.5178   21.1998 C   0  0  2  0  0  0  0  0  0  0  0  0
    7.2503  -16.1421   20.9135 N   0  0  0  0  0  0  0  0  0  0  0  0
    8.8170  -15.4967   22.6447 C   0  0  0  0  0  0  0  0  0  0  0  0
    9.8903  -14.9475   23.0018 O   0  0  0  0  0  0  0  0  0  0  0  0
    7.9591  -16.0662   23.6278 N   0  0  0  0  0  0  0  0  0  0  0  0
    8.3146  -15.9738   25.0268 C   0  0  1  0  0  0  0  0  0  0  0  0
    7.1420  -15.4884   25.8356 C   0  0  0  0  0  0  0  0  0  0  0  0
    7.0880  -14.0203   25.9538 C   0  0  0  0  0  0  0  0  0  0  0  0
    7.6151  -13.3785   27.0494 C   0  0  0  0  0  0  0  0  0  0  0  0
    7.5724  -11.9908   27.1780 C   0  0  0  0  0  0  0  0  0  0  0  0
    6.9964  -11.2449   26.1995 C   0  0  0  0  0  0  0  0  0  0  0  0
    6.4608  -11.8505   25.0933 C   0  0  0  0  0  0  0  0  0  0  0  0
    6.5092  -13.2476   24.9740 C   0  0  0  0  0  0  0  0  0  0  0  0
    8.8164  -17.2927   25.4960 C   0  0  0  0  0  0  0  0  0  0  0  0
    8.1790  -18.3631   25.3082 O   0  0  0  0  0  0  0  0  0  0  0  0
   12.7204  -20.9305   21.9116 N   0  0  0  0  0  0  0  0  0  0  0  0
   13.3469  -19.6578   21.9218 C   0  0  0  0  0  0  0  0  0  0  0  0
   13.5270  -19.0895   20.7720 N   0  0  0  0  0  0  0  0  0  0  0  0
   13.7480  -19.0580   23.1456 N   0  0  0  0  0  0  0  0  0  0  0  0
   13.4865  -19.7720   24.3719 C   0  0  0  0  0  0  0  0  0  0  0  0
   12.1397  -19.5824   24.9475 C   0  0  0  0  0  0  0  0  0  0  0  0
   11.9173  -18.8743   26.2018 C   0  0  0  0  0  0  0  0  0  0  0  0
   10.5375  -18.7269   26.7068 C   0  0  2  0  0  0  0  0  0  0  0  0
   10.0414  -17.3814   26.1759 N   0  0  0  0  0  0  0  0  0  0  0  0
   10.4869  -18.4874   28.1542 C   0  0  0  0  0  0  0  0  0  0  0  0
   10.4297  -17.2686   28.7436 O   0  0  0  0  0  0  0  0  0  0  0  0
   10.5033  -19.4894   28.9512 O   0  0  0  0  0  0  0  0  0  0  0  0
  2  1  1  0
  2  3  2  0
  4  5  1  0
  4  2  1  0
  5  6  1  1
  7  8  2  0
  7  5  1  0
  9  7  1  0
 10  9  1  0
 10 11  1  1
 11 12  1  0
 12 13  2  0
 12 17  1  0
 13 14  1  0
 14 15  2  0
 16 15  1  0
 17 16  2  0
 18 28  1  0
 18 10  1  0
 19 18  2  0
 20 21  1  0
 21 23  1  0
 22 21  2  0
 23 24  1  0
 25 24  1  0
 25 26  1  0
 27 26  1  6
 27 28  1  0
 27 29  1  0
 29 30  1  0
 31 29  2  0
M  END
$$$$
