NFR.pdb
     RDKit          3D

 31 31  0  0  1  0  0  0  0  0999 V2000
    8.4449  -14.4187   17.4208 N   0  0  0  0  0  0  0  0  0  0  0  0
    8.5694  -13.1747   18.0957 C   0  0  0  0  0  0  0  0  0  0  0  0
    8.6300  -12.1297   17.4143 O   0  0  0  0  0  0  0  0  0  0  0  0
    8.6215  -13.1779   19.5776 C   0  0  0  0  0  0  0  0  0  0  0  0
    8.5800  -14.5801   20.1198 C   0  0  2  0  0  0  0  0  0  0  0  0
    7.3699  -15.2521   19.7539 N   0  0  0  0  0  0  0  0  0  0  0  0
    8.8057  -14.5660   21.5804 C   0  0  0  0  0  0  0  0  0  0  0  0
    9.8925  -14.0903   21.9972 O   0  0  0  0  0  0  0  0  0  0  0  0
    7.8531  -15.0632   22.5143 N   0  0  0  0  0  0  0  0  0  0  0  0
    8.1822  -15.0958   23.9225 C   0  0  1  0  0  0  0  0  0  0  0  0
    6.9291  -15.1634   24.7530 C   0  0  0  0  0  0  0  0  0  0  0  0
    6.5863  -13.8791   25.3898 C   0  0  0  0  0  0  0  0  0  0  0  0
    5.3747  -13.6997   26.0142 C   0  0  0  0  0  0  0  0  0  0  0  0
    5.0336  -12.4917   26.6211 C   0  0  0  0  0  0  0  0  0  0  0  0
    5.9159  -11.4588   26.5998 C   0  0  0  0  0  0  0  0  0  0  0  0
    7.1329  -11.6017   25.9866 C   0  0  0  0  0  0  0  0  0  0  0  0
    7.4659  -12.8216   25.3789 C   0  0  0  0  0  0  0  0  0  0  0  0
    9.0976  -16.2372   24.1883 C   0  0  0  0  0  0  0  0  0  0  0  0
    8.8100  -17.4217   23.8695 O   0  0  0  0  0  0  0  0  0  0  0  0
   15.2985  -14.9623   20.9721 N   0  0  0  0  0  0  0  0  0  0  0  0
   14.1344  -15.3145   20.2420 C   0  0  0  0  0  0  0  0  0  0  0  0
   14.2108  -15.2329   18.9517 N   0  0  0  0  0  0  0  0  0  0  0  0
   12.9557  -15.7325   20.9160 N   0  0  0  0  0  0  0  0  0  0  0  0
   12.8908  -15.5572   22.3468 C   0  0  0  0  0  0  0  0  0  0  0  0
   12.8060  -16.8000   23.1402 C   0  0  0  0  0  0  0  0  0  0  0  0
   12.5911  -16.7950   24.5816 C   0  0  0  0  0  0  0  0  0  0  0  0
   11.2708  -17.1919   25.1108 C   0  0  2  0  0  0  0  0  0  0  0  0
   10.3344  -16.0196   24.8158 N   0  0  0  0  0  0  0  0  0  0  0  0
   11.2320  -17.2130   26.5781 C   0  0  0  0  0  0  0  0  0  0  0  0
   11.7311  -18.2011   27.3595 O   0  0  0  0  0  0  0  0  0  0  0  0
   10.6834  -16.2371   27.1996 O   0  0  0  0  0  0  0  0  0  0  0  0
  2  1  1  0
  2  3  2  0
  4  5  1  0
  4  2  1  0
  5  6  1  1
  7  8  2  0
  7  5  1  0
  9  7  1  0
 10  9  1  0
 10 11  1  1
 11 12  1  0
 12 13  2  0
 12 17  1  0
 13 14  1  0
 14 15  2  0
 16 15  1  0
 17 16  2  0
 18 28  1  0
 18 10  1  0
 19 18  2  0
 20 21  1  0
 21 23  1  0
 22 21  2  0
 23 24  1  0
 25 24  1  0
 25 26  1  0
 27 26  1  1
 27 28  1  0
 27 29  1  0
 29 30  1  0
 31 29  2  0
M  END
$$$$
