NFR.pdb
     RDKit          3D

 31 31  0  0  1  0  0  0  0  0999 V2000
   10.2049  -16.5656   16.4287 N   0  0  0  0  0  0  0  0  0  0  0  0
    8.9966  -16.3662   17.1489 C   0  0  0  0  0  0  0  0  0  0  0  0
    7.9382  -16.8351   16.6799 O   0  0  0  0  0  0  0  0  0  0  0  0
    9.0512  -15.6104   18.4234 C   0  0  0  0  0  0  0  0  0  0  0  0
    8.8832  -16.5250   19.6053 C   0  0  2  0  0  0  0  0  0  0  0  0
    7.6515  -17.2519   19.5396 N   0  0  0  0  0  0  0  0  0  0  0  0
    9.0287  -15.7614   20.8624 C   0  0  0  0  0  0  0  0  0  0  0  0
   10.1757  -15.3390   21.1578 O   0  0  0  0  0  0  0  0  0  0  0  0
    7.9357  -15.4926   21.7342 N   0  0  0  0  0  0  0  0  0  0  0  0
    8.1762  -14.8374   23.0011 C   0  0  1  0  0  0  0  0  0  0  0  0
    6.9524  -14.0799   23.4410 C   0  0  0  0  0  0  0  0  0  0  0  0
    7.1303  -13.3917   24.7321 C   0  0  0  0  0  0  0  0  0  0  0  0
    7.7158  -12.1495   24.7973 C   0  0  0  0  0  0  0  0  0  0  0  0
    7.8925  -11.4841   26.0097 C   0  0  0  0  0  0  0  0  0  0  0  0
    7.4780  -12.0714   27.1626 C   0  0  0  0  0  0  0  0  0  0  0  0
    6.8903  -13.3089   27.1356 C   0  0  0  0  0  0  0  0  0  0  0  0
    6.7174  -13.9695   25.9101 C   0  0  0  0  0  0  0  0  0  0  0  0
    8.6057  -15.8473   24.0045 C   0  0  0  0  0  0  0  0  0  0  0  0
    8.1294  -17.0133   24.0354 O   0  0  0  0  0  0  0  0  0  0  0  0
   16.6881  -17.9327   22.4527 N   0  0  0  0  0  0  0  0  0  0  0  0
   16.1901  -17.0963   23.4846 C   0  0  0  0  0  0  0  0  0  0  0  0
   16.6297  -15.8783   23.5084 N   0  0  0  0  0  0  0  0  0  0  0  0
   15.2566  -17.5940   24.4330 N   0  0  0  0  0  0  0  0  0  0  0  0
   13.8711  -17.6863   24.0409 C   0  0  0  0  0  0  0  0  0  0  0  0
   12.8864  -17.3380   25.0850 C   0  0  0  0  0  0  0  0  0  0  0  0
   11.8103  -16.3816   24.8579 C   0  0  0  0  0  0  0  0  0  0  0  0
   10.5089  -16.5960   25.5220 C   0  0  2  0  0  0  0  0  0  0  0  0
    9.5754  -15.5203   24.9656 N   0  0  0  0  0  0  0  0  0  0  0  0
   10.5320  -16.2321   26.9439 C   0  0  0  0  0  0  0  0  0  0  0  0
   10.7186  -17.0975   27.9697 O   0  0  0  0  0  0  0  0  0  0  0  0
   10.3584  -15.0075   27.2752 O   0  0  0  0  0  0  0  0  0  0  0  0
  2  1  1  0
  2  3  2  0
  4  5  1  0
  4  2  1  0
  5  6  1  1
  7  8  2  0
  7  5  1  0
  9  7  1  0
 10  9  1  0
 10 11  1  1
 11 12  1  0
 12 13  2  0
 12 17  1  0
 13 14  1  0
 14 15  2  0
 16 15  1  0
 17 16  2  0
 18 28  1  0
 18 10  1  0
 19 18  2  0
 20 21  1  0
 21 23  1  0
 22 21  2  0
 23 24  1  0
 25 24  1  0
 25 26  1  0
 27 26  1  6
 27 28  1  0
 27 29  1  0
 29 30  1  0
 31 29  2  0
M  END
$$$$
