NFR.pdb
     RDKit          3D

 31 31  0  0  1  0  0  0  0  0999 V2000
    7.8400  -16.8905   18.2665 N   0  0  0  0  0  0  0  0  0  0  0  0
    8.3359  -17.9416   19.0837 C   0  0  0  0  0  0  0  0  0  0  0  0
    8.4445  -19.0826   18.5873 O   0  0  0  0  0  0  0  0  0  0  0  0
    8.7006  -17.6323   20.4872 C   0  0  0  0  0  0  0  0  0  0  0  0
    8.2148  -16.2662   20.8865 C   0  0  2  0  0  0  0  0  0  0  0  0
    8.6810  -15.2558   19.9855 N   0  0  0  0  0  0  0  0  0  0  0  0
    8.5787  -15.9891   22.2920 C   0  0  0  0  0  0  0  0  0  0  0  0
    9.7242  -15.5210   22.5155 O   0  0  0  0  0  0  0  0  0  0  0  0
    7.6939  -16.2295   23.3811 N   0  0  0  0  0  0  0  0  0  0  0  0
    8.1370  -15.9689   24.7331 C   0  0  1  0  0  0  0  0  0  0  0  0
    7.0177  -15.3790   25.5478 C   0  0  0  0  0  0  0  0  0  0  0  0
    7.0951  -13.9116   25.6616 C   0  0  0  0  0  0  0  0  0  0  0  0
    7.5673  -13.1450   24.6227 C   0  0  0  0  0  0  0  0  0  0  0  0
    7.6479  -11.7560   24.7130 C   0  0  0  0  0  0  0  0  0  0  0  0
    7.2515  -11.1349   25.8545 C   0  0  0  0  0  0  0  0  0  0  0  0
    6.7755  -11.8671   26.9103 C   0  0  0  0  0  0  0  0  0  0  0  0
    6.6986  -13.2642   26.8087 C   0  0  0  0  0  0  0  0  0  0  0  0
    8.6676  -17.2240   25.3285 C   0  0  0  0  0  0  0  0  0  0  0  0
    8.0285  -18.3094   25.2961 O   0  0  0  0  0  0  0  0  0  0  0  0
   13.2176  -19.6767   30.7158 N   0  0  0  0  0  0  0  0  0  0  0  0
   14.4675  -20.0707   30.1729 C   0  0  0  0  0  0  0  0  0  0  0  0
   15.3912  -20.3988   31.0193 N   0  0  0  0  0  0  0  0  0  0  0  0
   14.6709  -20.0953   28.7670 N   0  0  0  0  0  0  0  0  0  0  0  0
   14.0724  -19.0490   27.9739 C   0  0  0  0  0  0  0  0  0  0  0  0
   12.6298  -19.2022   27.6970 C   0  0  0  0  0  0  0  0  0  0  0  0
   11.8879  -18.2609   26.8678 C   0  0  0  0  0  0  0  0  0  0  0  0
   10.4560  -18.5098   26.6067 C   0  0  2  0  0  0  0  0  0  0  0  0
    9.9231  -17.2325   25.9565 N   0  0  0  0  0  0  0  0  0  0  0  0
    9.6546  -18.5479   27.8360 C   0  0  0  0  0  0  0  0  0  0  0  0
    9.2549  -17.4632   28.5430 O   0  0  0  0  0  0  0  0  0  0  0  0
    9.2935  -19.6821   28.3080 O   0  0  0  0  0  0  0  0  0  0  0  0
  2  1  1  0
  2  3  2  0
  4  5  1  0
  4  2  1  0
  5  6  1  6
  7  8  2  0
  7  5  1  0
  9  7  1  0
 10  9  1  0
 10 11  1  1
 11 12  1  0
 12 13  2  0
 12 17  1  0
 13 14  1  0
 14 15  2  0
 16 15  1  0
 17 16  2  0
 18 28  1  0
 18 10  1  0
 19 18  2  0
 20 21  1  0
 21 23  1  0
 22 21  2  0
 23 24  1  0
 25 24  1  0
 25 26  1  0
 27 26  1  1
 27 28  1  0
 27 29  1  0
 29 30  1  0
 31 29  2  0
M  END
$$$$
