NFR.pdb
     RDKit          3D

 31 31  0  0  1  0  0  0  0  0999 V2000
   10.0446  -17.3664   16.8207 N   0  0  0  0  0  0  0  0  0  0  0  0
    8.9520  -17.2662   17.7233 C   0  0  0  0  0  0  0  0  0  0  0  0
    7.9486  -17.9838   17.5273 O   0  0  0  0  0  0  0  0  0  0  0  0
    9.0564  -16.3137   18.8548 C   0  0  0  0  0  0  0  0  0  0  0  0
    8.9781  -17.0283   20.1757 C   0  0  2  0  0  0  0  0  0  0  0  0
    7.8377  -17.8916   20.2423 N   0  0  0  0  0  0  0  0  0  0  0  0
    9.0196  -16.0515   21.2842 C   0  0  0  0  0  0  0  0  0  0  0  0
   10.0346  -15.3145   21.3732 O   0  0  0  0  0  0  0  0  0  0  0  0
    7.9700  -15.9185   22.2368 N   0  0  0  0  0  0  0  0  0  0  0  0
    8.1647  -15.0859   23.4035 C   0  0  1  0  0  0  0  0  0  0  0  0
    6.9077  -14.3204   23.7177 C   0  0  0  0  0  0  0  0  0  0  0  0
    7.0142  -13.5107   24.9446 C   0  0  0  0  0  0  0  0  0  0  0  0
    6.4550  -13.9381   26.1255 C   0  0  0  0  0  0  0  0  0  0  0  0
    6.5456  -13.1850   27.2954 C   0  0  0  0  0  0  0  0  0  0  0  0
    7.2021  -11.9957   27.2771 C   0  0  0  0  0  0  0  0  0  0  0  0
    7.7718  -11.5382   26.1180 C   0  0  0  0  0  0  0  0  0  0  0  0
    7.6746  -12.3041   24.9466 C   0  0  0  0  0  0  0  0  0  0  0  0
    8.6106  -15.9308   24.5431 C   0  0  0  0  0  0  0  0  0  0  0  0
    8.0080  -16.9855   24.8779 O   0  0  0  0  0  0  0  0  0  0  0  0
   14.7137  -18.7854   22.7189 N   0  0  0  0  0  0  0  0  0  0  0  0
   14.6259  -19.7503   23.7551 C   0  0  0  0  0  0  0  0  0  0  0  0
   15.4476  -20.7492   23.6901 N   0  0  0  0  0  0  0  0  0  0  0  0
   13.6749  -19.6055   24.8007 N   0  0  0  0  0  0  0  0  0  0  0  0
   12.7276  -18.5206   24.7142 C   0  0  0  0  0  0  0  0  0  0  0  0
   12.8672  -17.4664   25.7391 C   0  0  0  0  0  0  0  0  0  0  0  0
   11.9409  -16.3458   25.8403 C   0  0  0  0  0  0  0  0  0  0  0  0
   10.5115  -16.6180   26.0921 C   0  0  2  0  0  0  0  0  0  0  0  0
    9.7404  -15.5670   25.2927 N   0  0  0  0  0  0  0  0  0  0  0  0
   10.1029  -16.2777   27.4604 C   0  0  0  0  0  0  0  0  0  0  0  0
    9.9130  -17.1680   28.4641 O   0  0  0  0  0  0  0  0  0  0  0  0
    9.8947  -15.0504   27.7601 O   0  0  0  0  0  0  0  0  0  0  0  0
  2  1  1  0
  2  3  2  0
  4  5  1  0
  4  2  1  0
  5  6  1  6
  7  8  2  0
  7  5  1  0
  9  7  1  0
 10  9  1  0
 10 11  1  1
 11 12  1  0
 12 13  2  0
 12 17  1  0
 13 14  1  0
 14 15  2  0
 16 15  1  0
 17 16  2  0
 18 28  1  0
 18 10  1  0
 19 18  2  0
 20 21  1  0
 21 23  1  0
 22 21  2  0
 23 24  1  0
 25 24  1  0
 25 26  1  0
 27 26  1  1
 27 28  1  0
 27 29  1  0
 29 30  1  0
 31 29  2  0
M  END
$$$$
