NFR.pdb
     RDKit          3D

 31 31  0  0  1  0  0  0  0  0999 V2000
    8.4305  -12.6123   16.5385 N   0  0  0  0  0  0  0  0  0  0  0  0
    7.7615  -13.5826   17.3319 C   0  0  0  0  0  0  0  0  0  0  0  0
    7.2242  -14.5539   16.7592 O   0  0  0  0  0  0  0  0  0  0  0  0
    7.7338  -13.3945   18.8023 C   0  0  0  0  0  0  0  0  0  0  0  0
    8.4841  -14.4922   19.5050 C   0  0  2  0  0  0  0  0  0  0  0  0
    7.9421  -15.7817   19.1994 N   0  0  0  0  0  0  0  0  0  0  0  0
    8.5335  -14.2237   20.9575 C   0  0  0  0  0  0  0  0  0  0  0  0
    9.0692  -13.1500   21.3334 O   0  0  0  0  0  0  0  0  0  0  0  0
    8.0056  -15.1219   21.9278 N   0  0  0  0  0  0  0  0  0  0  0  0
    8.1540  -14.8221   23.3351 C   0  0  1  0  0  0  0  0  0  0  0  0
    6.8111  -14.5536   23.9590 C   0  0  0  0  0  0  0  0  0  0  0  0
    6.8611  -13.5396   25.0274 C   0  0  0  0  0  0  0  0  0  0  0  0
    7.2893  -12.2591   24.7685 C   0  0  0  0  0  0  0  0  0  0  0  0
    7.3436  -11.2874   25.7669 C   0  0  0  0  0  0  0  0  0  0  0  0
    6.9651  -11.6055   27.0323 C   0  0  0  0  0  0  0  0  0  0  0  0
    6.5329  -12.8719   27.3269 C   0  0  0  0  0  0  0  0  0  0  0  0
    6.4822  -13.8420   26.3147 C   0  0  0  0  0  0  0  0  0  0  0  0
    8.8738  -15.9384   24.0036 C   0  0  0  0  0  0  0  0  0  0  0  0
    8.3367  -17.0589   24.2125 O   0  0  0  0  0  0  0  0  0  0  0  0
   15.5643  -14.4044   22.0741 N   0  0  0  0  0  0  0  0  0  0  0  0
   14.8848  -15.1624   21.0861 C   0  0  0  0  0  0  0  0  0  0  0  0
   15.4241  -15.1992   19.9092 N   0  0  0  0  0  0  0  0  0  0  0  0
   13.6743  -15.8380   21.3972 N   0  0  0  0  0  0  0  0  0  0  0  0
   13.0457  -15.5597   22.6658 C   0  0  0  0  0  0  0  0  0  0  0  0
   13.0609  -16.6665   23.6435 C   0  0  0  0  0  0  0  0  0  0  0  0
   12.4006  -16.5748   24.9395 C   0  0  0  0  0  0  0  0  0  0  0  0
   10.9728  -16.9372   25.0437 C   0  0  2  0  0  0  0  0  0  0  0  0
   10.2008  -15.7691   24.4292 N   0  0  0  0  0  0  0  0  0  0  0  0
   10.4781  -16.8980   26.4252 C   0  0  0  0  0  0  0  0  0  0  0  0
   10.1122  -15.7772   27.0932 O   0  0  0  0  0  0  0  0  0  0  0  0
   10.3786  -17.9929   27.0814 O   0  0  0  0  0  0  0  0  0  0  0  0
  2  1  1  0
  2  3  2  0
  4  5  1  0
  4  2  1  0
  5  6  1  1
  7  8  2  0
  7  5  1  0
  9  7  1  0
 10  9  1  0
 10 11  1  1
 11 12  1  0
 12 13  2  0
 12 17  1  0
 13 14  1  0
 14 15  2  0
 16 15  1  0
 17 16  2  0
 18 28  1  0
 18 10  1  0
 19 18  2  0
 20 21  1  0
 21 23  1  0
 22 21  2  0
 23 24  1  0
 25 24  1  0
 25 26  1  0
 27 26  1  1
 27 28  1  0
 27 29  1  0
 29 30  1  0
 31 29  2  0
M  END
$$$$
