NFR.pdb
     RDKit          3D

 31 31  0  0  1  0  0  0  0  0999 V2000
    9.8836  -14.9318   15.8240 N   0  0  0  0  0  0  0  0  0  0  0  0
    8.9594  -15.3674   16.8112 C   0  0  0  0  0  0  0  0  0  0  0  0
    7.9391  -15.9859   16.4417 O   0  0  0  0  0  0  0  0  0  0  0  0
    9.2515  -15.0661   18.2333 C   0  0  0  0  0  0  0  0  0  0  0  0
    8.1225  -14.3038   18.8705 C   0  0  2  0  0  0  0  0  0  0  0  0
    7.8511  -13.0823   18.1745 N   0  0  0  0  0  0  0  0  0  0  0  0
    8.3999  -14.0926   20.3067 C   0  0  0  0  0  0  0  0  0  0  0  0
    9.4693  -13.5063   20.6132 O   0  0  0  0  0  0  0  0  0  0  0  0
    7.5151  -14.5219   21.3360 N   0  0  0  0  0  0  0  0  0  0  0  0
    7.8003  -14.1807   22.7124 C   0  0  1  0  0  0  0  0  0  0  0  0
    6.5641  -13.6536   23.3896 C   0  0  0  0  0  0  0  0  0  0  0  0
    6.7906  -13.2757   24.7961 C   0  0  0  0  0  0  0  0  0  0  0  0
    6.6880  -14.2048   25.8041 C   0  0  0  0  0  0  0  0  0  0  0  0
    6.8985  -13.8650   27.1398 C   0  0  0  0  0  0  0  0  0  0  0  0
    7.2138  -12.5837   27.4632 C   0  0  0  0  0  0  0  0  0  0  0  0
    7.3246  -11.6310   26.4847 C   0  0  0  0  0  0  0  0  0  0  0  0
    7.1107  -11.9839   25.1438 C   0  0  0  0  0  0  0  0  0  0  0  0
    8.3619  -15.3688   23.4084 C   0  0  0  0  0  0  0  0  0  0  0  0
    7.7567  -16.4729   23.4545 O   0  0  0  0  0  0  0  0  0  0  0  0
   15.6408  -14.8755   21.0386 N   0  0  0  0  0  0  0  0  0  0  0  0
   14.5356  -15.1642   20.1974 C   0  0  0  0  0  0  0  0  0  0  0  0
   14.7089  -14.9812   18.9270 N   0  0  0  0  0  0  0  0  0  0  0  0
   13.3102  -15.6292   20.7457 N   0  0  0  0  0  0  0  0  0  0  0  0
   13.1739  -15.6571   22.1819 C   0  0  0  0  0  0  0  0  0  0  0  0
   11.9698  -16.3398   22.6969 C   0  0  0  0  0  0  0  0  0  0  0  0
   11.6942  -16.4715   24.1219 C   0  0  0  0  0  0  0  0  0  0  0  0
   10.2914  -16.5516   24.5762 C   0  0  2  0  0  0  0  0  0  0  0  0
    9.6096  -15.2893   24.0469 N   0  0  0  0  0  0  0  0  0  0  0  0
   10.1529  -16.3529   26.0240 C   0  0  0  0  0  0  0  0  0  0  0  0
   10.4103  -17.2884   26.9699 O   0  0  0  0  0  0  0  0  0  0  0  0
    9.7525  -15.2176   26.4604 O   0  0  0  0  0  0  0  0  0  0  0  0
  2  1  1  0
  2  3  2  0
  4  5  1  0
  4  2  1  0
  5  6  1  6
  7  8  2  0
  7  5  1  0
  9  7  1  0
 10  9  1  0
 10 11  1  1
 11 12  1  0
 12 13  2  0
 12 17  1  0
 13 14  1  0
 14 15  2  0
 16 15  1  0
 17 16  2  0
 18 28  1  0
 18 10  1  0
 19 18  2  0
 20 21  1  0
 21 23  1  0
 22 21  2  0
 23 24  1  0
 25 24  1  0
 25 26  1  0
 27 26  1  1
 27 28  1  0
 27 29  1  0
 29 30  1  0
 31 29  2  0
M  END
$$$$
