NFR.pdb
     RDKit          3D

 31 31  0  0  1  0  0  0  0  0999 V2000
   10.6750  -18.1491   17.0687 N   0  0  0  0  0  0  0  0  0  0  0  0
    9.8856  -16.9837   17.2620 C   0  0  0  0  0  0  0  0  0  0  0  0
    9.0801  -16.6536   16.3664 O   0  0  0  0  0  0  0  0  0  0  0  0
   10.0570  -16.2156   18.5186 C   0  0  0  0  0  0  0  0  0  0  0  0
    9.2301  -16.8005   19.6302 C   0  0  2  0  0  0  0  0  0  0  0  0
    7.8712  -17.0030   19.2271 N   0  0  0  0  0  0  0  0  0  0  0  0
    9.3468  -15.9644   20.8434 C   0  0  0  0  0  0  0  0  0  0  0  0
   10.4880  -15.8380   21.3559 O   0  0  0  0  0  0  0  0  0  0  0  0
    8.2327  -15.3095   21.4407 N   0  0  0  0  0  0  0  0  0  0  0  0
    8.3458  -14.7896   22.7857 C   0  0  1  0  0  0  0  0  0  0  0  0
    7.2213  -13.8322   23.0748 C   0  0  0  0  0  0  0  0  0  0  0  0
    7.2755  -13.2691   24.4357 C   0  0  0  0  0  0  0  0  0  0  0  0
    6.5585  -13.8331   25.4642 C   0  0  0  0  0  0  0  0  0  0  0  0
    6.5975  -13.3135   26.7574 C   0  0  0  0  0  0  0  0  0  0  0  0
    7.3618  -12.2208   27.0174 C   0  0  0  0  0  0  0  0  0  0  0  0
    8.0898  -11.6324   26.0168 C   0  0  0  0  0  0  0  0  0  0  0  0
    8.0432  -12.1634   24.7190 C   0  0  0  0  0  0  0  0  0  0  0  0
    8.3854  -15.9211   23.7497 C   0  0  0  0  0  0  0  0  0  0  0  0
    7.5027  -16.8199   23.7724 O   0  0  0  0  0  0  0  0  0  0  0  0
   15.2879  -21.1465   23.4309 N   0  0  0  0  0  0  0  0  0  0  0  0
   14.4785  -20.3786   24.3071 C   0  0  0  0  0  0  0  0  0  0  0  0
   14.9714  -19.2531   24.7167 N   0  0  0  0  0  0  0  0  0  0  0  0
   13.1950  -20.8432   24.7011 N   0  0  0  0  0  0  0  0  0  0  0  0
   12.0346  -20.2111   24.1217 C   0  0  0  0  0  0  0  0  0  0  0  0
   11.3059  -19.2787   25.0055 C   0  0  0  0  0  0  0  0  0  0  0  0
   10.6607  -18.0708   24.5069 C   0  0  0  0  0  0  0  0  0  0  0  0
    9.7200  -17.3462   25.3848 C   0  0  2  0  0  0  0  0  0  0  0  0
    9.4313  -16.0197   24.6810 N   0  0  0  0  0  0  0  0  0  0  0  0
   10.3519  -16.8700   26.6213 C   0  0  0  0  0  0  0  0  0  0  0  0
   10.3230  -17.5148   27.8127 O   0  0  0  0  0  0  0  0  0  0  0  0
   10.9833  -15.7561   26.6079 O   0  0  0  0  0  0  0  0  0  0  0  0
  2  1  1  0
  2  3  2  0
  4  5  1  0
  4  2  1  0
  5  6  1  6
  7  8  2  0
  7  5  1  0
  9  7  1  0
 10  9  1  0
 10 11  1  1
 11 12  1  0
 12 13  2  0
 12 17  1  0
 13 14  1  0
 14 15  2  0
 16 15  1  0
 17 16  2  0
 18 28  1  0
 18 10  1  0
 19 18  2  0
 20 21  1  0
 21 23  1  0
 22 21  2  0
 23 24  1  0
 25 24  1  0
 25 26  1  0
 27 26  1  6
 27 28  1  0
 27 29  1  0
 29 30  1  0
 31 29  2  0
M  END
$$$$
