NFR.pdb
     RDKit          3D

 31 31  0  0  1  0  0  0  0  0999 V2000
   12.6224  -18.1006   19.3415 N   0  0  0  0  0  0  0  0  0  0  0  0
   11.6897  -17.0313   19.2695 C   0  0  0  0  0  0  0  0  0  0  0  0
   11.1161  -16.8122   18.1818 O   0  0  0  0  0  0  0  0  0  0  0  0
   11.4426  -16.2270   20.4904 C   0  0  0  0  0  0  0  0  0  0  0  0
   10.2934  -16.7838   21.2847 C   0  0  2  0  0  0  0  0  0  0  0  0
    9.1337  -16.9808   20.4684 N   0  0  0  0  0  0  0  0  0  0  0  0
   10.0258  -15.9267   22.4588 C   0  0  0  0  0  0  0  0  0  0  0  0
   10.9704  -15.7331   23.2659 O   0  0  0  0  0  0  0  0  0  0  0  0
    8.7593  -15.3241   22.7030 N   0  0  0  0  0  0  0  0  0  0  0  0
    8.5376  -14.6006   23.9358 C   0  0  1  0  0  0  0  0  0  0  0  0
    7.3903  -13.6392   23.7812 C   0  0  0  0  0  0  0  0  0  0  0  0
    7.0442  -12.9442   25.0340 C   0  0  0  0  0  0  0  0  0  0  0  0
    7.8388  -11.9366   25.5273 C   0  0  0  0  0  0  0  0  0  0  0  0
    7.5271  -11.2688   26.7108 C   0  0  0  0  0  0  0  0  0  0  0  0
    6.4101  -11.6164   27.4017 C   0  0  0  0  0  0  0  0  0  0  0  0
    5.5947  -12.6160   26.9400 C   0  0  0  0  0  0  0  0  0  0  0  0
    5.9179  -13.2815   25.7479 C   0  0  0  0  0  0  0  0  0  0  0  0
    8.3173  -15.5688   25.0427 C   0  0  0  0  0  0  0  0  0  0  0  0
    8.3718  -15.2316   26.2555 O   0  0  0  0  0  0  0  0  0  0  0  0
    6.1902  -24.0310   23.9281 N   0  0  0  0  0  0  0  0  0  0  0  0
    5.4530  -23.3343   24.9198 C   0  0  0  0  0  0  0  0  0  0  0  0
    4.1621  -23.3953   24.8342 N   0  0  0  0  0  0  0  0  0  0  0  0
    6.1209  -22.6126   25.9452 N   0  0  0  0  0  0  0  0  0  0  0  0
    7.0233  -21.5558   25.5571 C   0  0  0  0  0  0  0  0  0  0  0  0
    6.6448  -20.1977   25.9972 C   0  0  0  0  0  0  0  0  0  0  0  0
    6.9590  -19.0067   25.2182 C   0  0  0  0  0  0  0  0  0  0  0  0
    7.6434  -17.8777   25.8797 C   0  0  2  0  0  0  0  0  0  0  0  0
    8.0364  -16.9147   24.7588 N   0  0  0  0  0  0  0  0  0  0  0  0
    8.9647  -18.2448   26.4032 C   0  0  0  0  0  0  0  0  0  0  0  0
   10.1024  -18.3213   25.6710 O   0  0  0  0  0  0  0  0  0  0  0  0
    9.0844  -18.5277   27.6463 O   0  0  0  0  0  0  0  0  0  0  0  0
  2  1  1  0
  2  3  2  0
  4  5  1  0
  4  2  1  0
  5  6  1  6
  7  8  2  0
  7  5  1  0
  9  7  1  0
 10  9  1  0
 10 11  1  6
 11 12  1  0
 12 13  2  0
 12 17  1  0
 13 14  1  0
 14 15  2  0
 16 15  1  0
 17 16  2  0
 18 28  1  0
 18 10  1  0
 19 18  2  0
 20 21  1  0
 21 23  1  0
 22 21  2  0
 23 24  1  0
 25 24  1  0
 25 26  1  0
 27 26  1  6
 27 28  1  0
 27 29  1  0
 29 30  1  0
 31 29  2  0
M  END
$$$$
