NFR.pdb
     RDKit          3D

 31 31  0  0  1  0  0  0  0  0999 V2000
    9.7057  -21.3234   17.2625 N   0  0  0  0  0  0  0  0  0  0  0  0
    9.7498  -19.9803   16.8014 C   0  0  0  0  0  0  0  0  0  0  0  0
    9.3051  -19.7256   15.6624 O   0  0  0  0  0  0  0  0  0  0  0  0
   10.3221  -18.9455   17.6960 C   0  0  0  0  0  0  0  0  0  0  0  0
    9.2892  -17.9183   18.0696 C   0  0  2  0  0  0  0  0  0  0  0  0
    9.0381  -17.0067   16.9945 N   0  0  0  0  0  0  0  0  0  0  0  0
    9.6836  -17.2330   19.3183 C   0  0  0  0  0  0  0  0  0  0  0  0
   10.7698  -16.5994   19.3167 O   0  0  0  0  0  0  0  0  0  0  0  0
    8.8915  -17.2650   20.5008 N   0  0  0  0  0  0  0  0  0  0  0  0
    9.3261  -16.5365   21.6724 C   0  0  1  0  0  0  0  0  0  0  0  0
    8.1726  -15.7862   22.2818 C   0  0  0  0  0  0  0  0  0  0  0  0
    7.6934  -14.6764   21.4386 C   0  0  0  0  0  0  0  0  0  0  0  0
    6.5472  -14.8001   20.6898 C   0  0  0  0  0  0  0  0  0  0  0  0
    6.0795  -13.7610   19.8863 C   0  0  0  0  0  0  0  0  0  0  0  0
    6.7686  -12.5912   19.8360 C   0  0  0  0  0  0  0  0  0  0  0  0
    7.9152  -12.4322   20.5691 C   0  0  0  0  0  0  0  0  0  0  0  0
    8.3768  -13.4843   21.3742 C   0  0  0  0  0  0  0  0  0  0  0  0
    9.9565  -17.4798   22.6336 C   0  0  0  0  0  0  0  0  0  0  0  0
    9.4733  -18.6173   22.8787 O   0  0  0  0  0  0  0  0  0  0  0  0
   17.8601  -20.4666   24.4545 N   0  0  0  0  0  0  0  0  0  0  0  0
   17.4719  -20.2278   23.1111 C   0  0  0  0  0  0  0  0  0  0  0  0
   17.9479  -21.0343   22.2166 N   0  0  0  0  0  0  0  0  0  0  0  0
   16.6036  -19.1505   22.7889 N   0  0  0  0  0  0  0  0  0  0  0  0
   15.7440  -18.6348   23.8268 C   0  0  0  0  0  0  0  0  0  0  0  0
   14.3356  -19.0753   23.7683 C   0  0  0  0  0  0  0  0  0  0  0  0
   13.2661  -18.2146   23.2789 C   0  0  0  0  0  0  0  0  0  0  0  0
   11.9824  -18.1815   24.0080 C   0  0  2  0  0  0  0  0  0  0  0  0
   11.1335  -17.1193   23.3084 N   0  0  0  0  0  0  0  0  0  0  0  0
   12.1072  -17.5956   25.3481 C   0  0  0  0  0  0  0  0  0  0  0  0
   12.4210  -16.3038   25.6107 O   0  0  0  0  0  0  0  0  0  0  0  0
   11.9170  -18.3401   26.3724 O   0  0  0  0  0  0  0  0  0  0  0  0
  2  1  1  0
  2  3  2  0
  4  5  1  0
  4  2  1  0
  5  6  1  6
  7  8  2  0
  7  5  1  0
  9  7  1  0
 10  9  1  0
 10 11  1  1
 11 12  1  0
 12 13  2  0
 12 17  1  0
 13 14  1  0
 14 15  2  0
 16 15  1  0
 17 16  2  0
 18 28  1  0
 18 10  1  0
 19 18  2  0
 20 21  1  0
 21 23  1  0
 22 21  2  0
 23 24  1  0
 25 24  1  0
 25 26  1  0
 27 26  1  6
 27 28  1  0
 27 29  1  0
 29 30  1  0
 31 29  2  0
M  END
$$$$
