NFR.pdb
     RDKit          3D

 31 31  0  0  1  0  0  0  0  0999 V2000
    7.4135  -18.6853   18.9924 N   0  0  0  0  0  0  0  0  0  0  0  0
    7.7184  -19.5434   20.0830 C   0  0  0  0  0  0  0  0  0  0  0  0
    7.5497  -20.7727   19.9400 O   0  0  0  0  0  0  0  0  0  0  0  0
    8.2223  -18.9370   21.3387 C   0  0  0  0  0  0  0  0  0  0  0  0
    8.2375  -17.4358   21.2494 C   0  0  2  0  0  0  0  0  0  0  0  0
    8.7729  -16.9866   19.9997 N   0  0  0  0  0  0  0  0  0  0  0  0
    8.9488  -16.8656   22.4128 C   0  0  0  0  0  0  0  0  0  0  0  0
   10.1905  -16.6960   22.3103 O   0  0  0  0  0  0  0  0  0  0  0  0
    8.2891  -16.5084   23.6227 N   0  0  0  0  0  0  0  0  0  0  0  0
    9.0696  -16.0815   24.7633 C   0  0  1  0  0  0  0  0  0  0  0  0
    8.2095  -15.3126   25.7297 C   0  0  0  0  0  0  0  0  0  0  0  0
    8.9406  -14.8709   26.9308 C   0  0  0  0  0  0  0  0  0  0  0  0
    9.0818  -15.6998   28.0184 C   0  0  0  0  0  0  0  0  0  0  0  0
    9.7696  -15.2985   29.1628 C   0  0  0  0  0  0  0  0  0  0  0  0
   10.3183  -14.0566   29.2135 C   0  0  0  0  0  0  0  0  0  0  0  0
   10.1974  -13.2035   28.1481 C   0  0  0  0  0  0  0  0  0  0  0  0
    9.5032  -13.6176   27.0015 C   0  0  0  0  0  0  0  0  0  0  0  0
    9.7075  -17.2667   25.3954 C   0  0  0  0  0  0  0  0  0  0  0  0
    9.0552  -18.2984   25.7076 O   0  0  0  0  0  0  0  0  0  0  0  0
   17.7768  -20.1659   23.5704 N   0  0  0  0  0  0  0  0  0  0  0  0
   17.6925  -20.1391   24.9862 C   0  0  0  0  0  0  0  0  0  0  0  0
   18.7853  -20.3807   25.6381 N   0  0  0  0  0  0  0  0  0  0  0  0
   16.4590  -19.8591   25.6330 N   0  0  0  0  0  0  0  0  0  0  0  0
   15.2639  -19.8049   24.8262 C   0  0  0  0  0  0  0  0  0  0  0  0
   13.9949  -19.6760   25.5708 C   0  0  0  0  0  0  0  0  0  0  0  0
   13.0321  -18.6164   25.2985 C   0  0  0  0  0  0  0  0  0  0  0  0
   11.7903  -18.5543   26.0951 C   0  0  2  0  0  0  0  0  0  0  0  0
   11.0849  -17.2670   25.6669 N   0  0  0  0  0  0  0  0  0  0  0  0
   12.0411  -18.2722   27.5136 C   0  0  0  0  0  0  0  0  0  0  0  0
   12.4089  -17.0697   28.0187 O   0  0  0  0  0  0  0  0  0  0  0  0
   11.9174  -19.2185   28.3672 O   0  0  0  0  0  0  0  0  0  0  0  0
  2  1  1  0
  2  3  2  0
  4  5  1  0
  4  2  1  0
  5  6  1  6
  7  8  2  0
  7  5  1  0
  9  7  1  0
 10  9  1  0
 10 11  1  1
 11 12  1  0
 12 13  2  0
 12 17  1  0
 13 14  1  0
 14 15  2  0
 16 15  1  0
 17 16  2  0
 18 28  1  0
 18 10  1  0
 19 18  2  0
 20 21  1  0
 21 23  1  0
 22 21  2  0
 23 24  1  0
 25 24  1  0
 25 26  1  0
 27 26  1  6
 27 28  1  0
 27 29  1  0
 29 30  1  0
 31 29  2  0
M  END
$$$$
