NFR.pdb
     RDKit          3D

 31 31  0  0  1  0  0  0  0  0999 V2000
    5.6223  -21.7149   21.0226 N   0  0  0  0  0  0  0  0  0  0  0  0
    6.2384  -21.6788   22.3024 C   0  0  0  0  0  0  0  0  0  0  0  0
    6.1524  -22.6870   23.0345 O   0  0  0  0  0  0  0  0  0  0  0  0
    6.9538  -20.4446   22.7065 C   0  0  0  0  0  0  0  0  0  0  0  0
    6.1505  -19.2173   22.3748 C   0  0  2  0  0  0  0  0  0  0  0  0
    5.9098  -19.1082   20.9676 N   0  0  0  0  0  0  0  0  0  0  0  0
    6.8036  -18.0163   22.9366 C   0  0  0  0  0  0  0  0  0  0  0  0
    7.7259  -17.4872   22.2654 O   0  0  0  0  0  0  0  0  0  0  0  0
    6.4316  -17.4484   24.1880 N   0  0  0  0  0  0  0  0  0  0  0  0
    7.1448  -16.2943   24.6896 C   0  0  1  0  0  0  0  0  0  0  0  0
    6.3155  -15.5696   25.7152 C   0  0  0  0  0  0  0  0  0  0  0  0
    6.9282  -14.3084   26.1693 C   0  0  0  0  0  0  0  0  0  0  0  0
    7.6092  -14.2414   27.3617 C   0  0  0  0  0  0  0  0  0  0  0  0
    8.1945  -13.0570   27.8071 C   0  0  0  0  0  0  0  0  0  0  0  0
    8.0942  -11.9340   27.0489 C   0  0  0  0  0  0  0  0  0  0  0  0
    7.4230  -11.9637   25.8548 C   0  0  0  0  0  0  0  0  0  0  0  0
    6.8377  -13.1609   25.4162 C   0  0  0  0  0  0  0  0  0  0  0  0
    8.4612  -16.7252   25.2305 C   0  0  0  0  0  0  0  0  0  0  0  0
    8.6034  -17.7861   25.8953 O   0  0  0  0  0  0  0  0  0  0  0  0
   15.8712  -15.3197   21.6827 N   0  0  0  0  0  0  0  0  0  0  0  0
   16.3166  -16.1500   22.7432 C   0  0  0  0  0  0  0  0  0  0  0  0
   17.5480  -16.0045   23.1172 N   0  0  0  0  0  0  0  0  0  0  0  0
   15.4364  -17.0868   23.3481 N   0  0  0  0  0  0  0  0  0  0  0  0
   14.0185  -16.9244   23.1357 C   0  0  0  0  0  0  0  0  0  0  0  0
   13.2863  -16.2270   24.2122 C   0  0  0  0  0  0  0  0  0  0  0  0
   11.8475  -16.0005   24.1604 C   0  0  0  0  0  0  0  0  0  0  0  0
   10.9998  -16.5245   25.2501 C   0  0  2  0  0  0  0  0  0  0  0  0
    9.6061  -15.9434   25.0096 N   0  0  0  0  0  0  0  0  0  0  0  0
   11.3237  -15.9328   26.5539 C   0  0  0  0  0  0  0  0  0  0  0  0
   11.2225  -14.6172   26.8624 O   0  0  0  0  0  0  0  0  0  0  0  0
   11.7446  -16.6928   27.4944 O   0  0  0  0  0  0  0  0  0  0  0  0
  2  1  1  0
  2  3  2  0
  4  5  1  0
  4  2  1  0
  5  6  1  6
  7  8  2  0
  7  5  1  0
  9  7  1  0
 10  9  1  0
 10 11  1  1
 11 12  1  0
 12 13  2  0
 12 17  1  0
 13 14  1  0
 14 15  2  0
 16 15  1  0
 17 16  2  0
 18 28  1  0
 18 10  1  0
 19 18  2  0
 20 21  1  0
 21 23  1  0
 22 21  2  0
 23 24  1  0
 25 24  1  0
 25 26  1  0
 27 26  1  6
 27 28  1  0
 27 29  1  0
 29 30  1  0
 31 29  2  0
M  END
$$$$
