WLF.pdb
     RDKit          3D

 34 36  0  0  1  0  0  0  0  0999 V2000
   26.3775  -20.6616  -16.0007 N   0  0  0  0  0  0  0  0  0  0  0  0
   25.4992  -19.9154  -15.1101 C   0  0  1  0  0  0  0  0  0  0  0  0
   24.6749  -18.9538  -15.9061 C   0  0  0  0  0  0  0  0  0  0  0  0
   25.4124  -17.9396  -16.6578 C   0  0  0  0  0  0  0  0  0  0  0  0
   25.6653  -17.9736  -18.0395 C   0  0  0  0  0  0  0  0  0  0  0  0
   26.3387  -16.8681  -18.3608 N   0  0  0  0  0  0  0  0  0  0  0  0
   26.5516  -16.0976  -17.2777 C   0  0  0  0  0  0  0  0  0  0  0  0
   27.1925  -14.8880  -17.1053 C   0  0  0  0  0  0  0  0  0  0  0  0
   27.2538  -14.3414  -15.8373 C   0  0  0  0  0  0  0  0  0  0  0  0
   26.6965  -14.9726  -14.7648 C   0  0  0  0  0  0  0  0  0  0  0  0
   26.0661  -16.1689  -14.9547 C   0  0  0  0  0  0  0  0  0  0  0  0
   25.9719  -16.7701  -16.2140 C   0  0  0  0  0  0  0  0  0  0  0  0
   24.7959  -20.7322  -14.1290 C   0  0  0  0  0  0  0  0  0  0  0  0
   24.2416  -21.7877  -14.5259 O   0  0  0  0  0  0  0  0  0  0  0  0
   26.4338  -20.7368   -8.9368 C   0  0  0  0  0  0  0  0  0  0  0  0
   25.9304  -21.0345  -10.3263 C   0  0  1  0  0  0  0  0  0  0  0  0
   26.3179  -22.4883  -10.6384 C   0  0  0  0  0  0  0  0  0  0  0  0
   24.4423  -20.9649  -10.4349 C   0  0  0  0  0  0  0  0  0  0  0  0
   23.8893  -21.1501  -11.8075 C   0  0  2  0  0  0  0  0  0  0  0  0
   24.6941  -20.4135  -12.7457 N   0  0  0  0  0  0  0  0  0  0  0  0
   22.4791  -20.6665  -11.8838 C   0  0  0  0  0  0  0  0  0  0  0  0
   22.1690  -19.4695  -11.6340 O   0  0  0  0  0  0  0  0  0  0  0  0
   21.4013  -21.5208  -12.2411 N   0  0  0  0  0  0  0  0  0  0  0  0
   20.0177  -21.0530  -12.3611 C   0  0  1  0  0  0  0  0  0  0  0  0
   19.7946  -20.3283  -13.6420 C   0  0  0  0  0  0  0  0  0  0  0  0
   20.0762  -21.2123  -14.7891 C   0  0  0  0  0  0  0  0  0  0  0  0
   21.2776  -21.2751  -15.4594 C   0  0  0  0  0  0  0  0  0  0  0  0
   21.5036  -22.1243  -16.5297 C   0  0  0  0  0  0  0  0  0  0  0  0
   20.4937  -22.9547  -16.9624 C   0  0  0  0  0  0  0  0  0  0  0  0
   19.2709  -22.9248  -16.3187 C   0  0  0  0  0  0  0  0  0  0  0  0
   19.0712  -22.0696  -15.2545 C   0  0  0  0  0  0  0  0  0  0  0  0
   19.1426  -22.2111  -12.1723 C   0  0  0  0  0  0  0  0  0  0  0  0
   19.6758  -23.4820  -12.1002 O   0  0  0  0  0  0  0  0  0  0  0  0
   17.9092  -22.0699  -12.0740 O   0  0  0  0  0  0  0  0  0  0  0  0
  2  1  1  6
  3  2  1  0
  4  3  1  0
  5  4  2  0
  6  5  1  0
  7  6  1  0
  7 12  2  0
  8  7  1  0
  9  8  2  0
  9 10  1  0
 10 11  2  0
 11 12  1  0
 12  4  1  0
 13 14  2  0
 13  2  1  0
 16 15  1  1
 16 17  1  0
 16 18  1  0
 19 18  1  1
 19 21  1  0
 19 20  1  0
 20 13  1  0
 21 23  1  0
 22 21  2  0
 23 24  1  0
 24 25  1  6
 25 26  1  0
 26 27  2  0
 27 28  1  0
 29 28  2  0
 30 29  1  0
 31 26  1  0
 31 30  2  0
 32 33  1  0
 32 24  1  0
 34 32  2  0
M  END
$$$$
