WLF.pdb
     RDKit          3D

 34 36  0  0  1  0  0  0  0  0999 V2000
   23.8120  -19.8988  -15.6796 N   0  0  0  0  0  0  0  0  0  0  0  0
   23.7395  -19.8709  -14.2252 C   0  0  1  0  0  0  0  0  0  0  0  0
   22.3172  -20.0278  -13.7892 C   0  0  0  0  0  0  0  0  0  0  0  0
   21.3452  -19.1404  -14.4260 C   0  0  0  0  0  0  0  0  0  0  0  0
   21.6516  -17.9445  -15.0970 C   0  0  0  0  0  0  0  0  0  0  0  0
   20.5120  -17.4322  -15.5636 N   0  0  0  0  0  0  0  0  0  0  0  0
   19.4626  -18.2128  -15.2448 C   0  0  0  0  0  0  0  0  0  0  0  0
   18.1099  -18.1038  -15.4934 C   0  0  0  0  0  0  0  0  0  0  0  0
   17.2637  -19.0871  -15.0165 C   0  0  0  0  0  0  0  0  0  0  0  0
   17.7399  -20.1524  -14.3111 C   0  0  0  0  0  0  0  0  0  0  0  0
   19.0818  -20.2435  -14.0751 C   0  0  0  0  0  0  0  0  0  0  0  0
   19.9862  -19.2800  -14.5330 C   0  0  0  0  0  0  0  0  0  0  0  0
   24.7307  -20.7019  -13.5534 C   0  0  0  0  0  0  0  0  0  0  0  0
   24.5371  -21.9430  -13.5190 O   0  0  0  0  0  0  0  0  0  0  0  0
   29.2355  -20.7844  -14.1242 C   0  0  0  0  0  0  0  0  0  0  0  0
   29.3377  -20.7356  -12.6209 C   0  0  1  0  0  0  0  0  0  0  0  0
   30.4462  -19.7267  -12.2824 C   0  0  0  0  0  0  0  0  0  0  0  0
   28.0943  -20.2268  -11.9679 C   0  0  0  0  0  0  0  0  0  0  0  0
   26.8599  -21.0214  -12.2303 C   0  0  2  0  0  0  0  0  0  0  0  0
   25.9083  -20.2004  -12.9311 N   0  0  0  0  0  0  0  0  0  0  0  0
   26.2513  -21.4981  -10.9533 C   0  0  0  0  0  0  0  0  0  0  0  0
   25.0986  -22.0089  -10.9125 O   0  0  0  0  0  0  0  0  0  0  0  0
   26.9294  -21.4066   -9.7079 N   0  0  0  0  0  0  0  0  0  0  0  0
   26.3062  -20.8647   -8.4973 C   0  0  1  0  0  0  0  0  0  0  0  0
   26.8226  -19.5058   -8.1778 C   0  0  0  0  0  0  0  0  0  0  0  0
   27.7396  -19.5621   -7.0234 C   0  0  0  0  0  0  0  0  0  0  0  0
   29.1128  -19.6196   -7.1098 C   0  0  0  0  0  0  0  0  0  0  0  0
   29.9397  -19.6655   -5.9999 C   0  0  0  0  0  0  0  0  0  0  0  0
   29.3851  -19.6543   -4.7393 C   0  0  0  0  0  0  0  0  0  0  0  0
   28.0107  -19.5974   -4.6055 C   0  0  0  0  0  0  0  0  0  0  0  0
   27.2087  -19.5523   -5.7274 C   0  0  0  0  0  0  0  0  0  0  0  0
   24.8555  -20.9212   -8.6849 C   0  0  0  0  0  0  0  0  0  0  0  0
   24.0189  -21.0806   -7.5989 O   0  0  0  0  0  0  0  0  0  0  0  0
   24.3547  -20.8270   -9.8212 O   0  0  0  0  0  0  0  0  0  0  0  0
  2  1  1  6
  3  2  1  0
  4  3  1  0
  5  4  2  0
  6  5  1  0
  7  6  1  0
  7 12  2  0
  8  7  1  0
  9  8  2  0
  9 10  1  0
 10 11  2  0
 11 12  1  0
 12  4  1  0
 13 14  2  0
 13  2  1  0
 16 15  1  6
 16 17  1  0
 16 18  1  0
 19 18  1  1
 19 21  1  0
 19 20  1  0
 20 13  1  0
 21 23  1  0
 22 21  2  0
 23 24  1  0
 24 25  1  6
 25 26  1  0
 26 27  2  0
 27 28  1  0
 29 28  2  0
 30 29  1  0
 31 26  1  0
 31 30  2  0
 32 33  1  0
 32 24  1  0
 34 32  2  0
M  END
$$$$
