WLF.pdb
     RDKit          3D

 34 36  0  0  1  0  0  0  0  0999 V2000
   26.9477  -20.7344  -13.3776 N   0  0  0  0  0  0  0  0  0  0  0  0
   25.7537  -20.4549  -12.5917 C   0  0  1  0  0  0  0  0  0  0  0  0
   24.5347  -20.7154  -13.4187 C   0  0  0  0  0  0  0  0  0  0  0  0
   24.4512  -19.9974  -14.6895 C   0  0  0  0  0  0  0  0  0  0  0  0
   25.0008  -20.4311  -15.9077 C   0  0  0  0  0  0  0  0  0  0  0  0
   24.6960  -19.5278  -16.8403 N   0  0  0  0  0  0  0  0  0  0  0  0
   23.9764  -18.5163  -16.3193 C   0  0  0  0  0  0  0  0  0  0  0  0
   23.4439  -17.3696  -16.8716 C   0  0  0  0  0  0  0  0  0  0  0  0
   22.7447  -16.5000  -16.0560 C   0  0  0  0  0  0  0  0  0  0  0  0
   22.5748  -16.7549  -14.7273 C   0  0  0  0  0  0  0  0  0  0  0  0
   23.1089  -17.8950  -14.1984 C   0  0  0  0  0  0  0  0  0  0  0  0
   23.8252  -18.8121  -14.9742 C   0  0  0  0  0  0  0  0  0  0  0  0
   25.7698  -21.0144  -11.2460 C   0  0  0  0  0  0  0  0  0  0  0  0
   25.8487  -22.2627  -11.1250 O   0  0  0  0  0  0  0  0  0  0  0  0
   27.9481  -18.3540   -7.3074 C   0  0  0  0  0  0  0  0  0  0  0  0
   27.4878  -19.5523   -8.0978 C   0  0  1  0  0  0  0  0  0  0  0  0
   28.4445  -20.7053   -7.7565 C   0  0  0  0  0  0  0  0  0  0  0  0
   26.1204  -20.0146   -7.7133 C   0  0  0  0  0  0  0  0  0  0  0  0
   25.3835  -20.7802   -8.7596 C   0  0  2  0  0  0  0  0  0  0  0  0
   25.7017  -20.2391  -10.0545 N   0  0  0  0  0  0  0  0  0  0  0  0
   23.9091  -20.6976   -8.5413 C   0  0  0  0  0  0  0  0  0  0  0  0
   23.2666  -19.6264   -8.7178 O   0  0  0  0  0  0  0  0  0  0  0  0
   23.1393  -21.8161   -8.1225 N   0  0  0  0  0  0  0  0  0  0  0  0
   21.6975  -21.7438   -7.8706 C   0  0  1  0  0  0  0  0  0  0  0  0
   20.9187  -22.3935   -8.9602 C   0  0  0  0  0  0  0  0  0  0  0  0
   20.9419  -21.5595  -10.1769 C   0  0  0  0  0  0  0  0  0  0  0  0
   21.7417  -21.7887  -11.2743 C   0  0  0  0  0  0  0  0  0  0  0  0
   21.7293  -20.9839  -12.4013 C   0  0  0  0  0  0  0  0  0  0  0  0
   20.8852  -19.8967  -12.4497 C   0  0  0  0  0  0  0  0  0  0  0  0
   20.0647  -19.6288  -11.3702 C   0  0  0  0  0  0  0  0  0  0  0  0
   20.0960  -20.4462  -10.2591 C   0  0  0  0  0  0  0  0  0  0  0  0
   21.4525  -22.3117   -6.5438 C   0  0  0  0  0  0  0  0  0  0  0  0
   22.4672  -22.9536   -5.8633 O   0  0  0  0  0  0  0  0  0  0  0  0
   20.3308  -22.2257   -6.0099 O   0  0  0  0  0  0  0  0  0  0  0  0
  2  1  1  6
  3  2  1  0
  4  3  1  0
  5  4  2  0
  6  5  1  0
  7  6  1  0
  7 12  2  0
  8  7  1  0
  9  8  2  0
  9 10  1  0
 10 11  2  0
 11 12  1  0
 12  4  1  0
 13 14  2  0
 13  2  1  0
 16 15  1  1
 16 17  1  0
 16 18  1  0
 19 18  1  1
 19 21  1  0
 19 20  1  0
 20 13  1  0
 21 23  1  0
 22 21  2  0
 23 24  1  0
 24 25  1  6
 25 26  1  0
 26 27  2  0
 27 28  1  0
 29 28  2  0
 30 29  1  0
 31 26  1  0
 31 30  2  0
 32 33  1  0
 32 24  1  0
 34 32  2  0
M  END
$$$$
