WLF.pdb
     RDKit          3D

 34 36  0  0  1  0  0  0  0  0999 V2000
   27.4950  -21.0281  -16.1764 N   0  0  0  0  0  0  0  0  0  0  0  0
   27.3638  -20.2087  -14.9794 C   0  0  1  0  0  0  0  0  0  0  0  0
   26.5593  -18.9869  -15.2918 C   0  0  0  0  0  0  0  0  0  0  0  0
   27.0604  -18.1438  -16.3761 C   0  0  0  0  0  0  0  0  0  0  0  0
   26.2762  -17.5727  -17.3925 C   0  0  0  0  0  0  0  0  0  0  0  0
   27.0805  -16.8525  -18.1756 N   0  0  0  0  0  0  0  0  0  0  0  0
   28.3546  -16.9080  -17.7446 C   0  0  0  0  0  0  0  0  0  0  0  0
   29.5235  -16.3463  -18.2154 C   0  0  0  0  0  0  0  0  0  0  0  0
   30.7035  -16.6021  -17.5428 C   0  0  0  0  0  0  0  0  0  0  0  0
   30.7304  -17.3931  -16.4325 C   0  0  0  0  0  0  0  0  0  0  0  0
   29.5635  -17.9402  -15.9811 C   0  0  0  0  0  0  0  0  0  0  0  0
   28.3394  -17.7164  -16.6195 C   0  0  0  0  0  0  0  0  0  0  0  0
   27.0011  -20.9476  -13.7766 C   0  0  0  0  0  0  0  0  0  0  0  0
   26.2231  -21.9271  -13.8958 O   0  0  0  0  0  0  0  0  0  0  0  0
   30.5351  -21.0290   -9.5954 C   0  0  0  0  0  0  0  0  0  0  0  0
   29.5322  -21.2625  -10.6964 C   0  0  1  0  0  0  0  0  0  0  0  0
   29.7184  -22.7130  -11.1682 C   0  0  0  0  0  0  0  0  0  0  0  0
   28.1175  -21.1518  -10.2299 C   0  0  0  0  0  0  0  0  0  0  0  0
   27.0777  -21.3428  -11.2818 C   0  0  2  0  0  0  0  0  0  0  0  0
   27.4707  -20.6332  -12.4704 N   0  0  0  0  0  0  0  0  0  0  0  0
   25.7528  -20.8328  -10.8204 C   0  0  0  0  0  0  0  0  0  0  0  0
   25.6502  -19.9814   -9.8952 O   0  0  0  0  0  0  0  0  0  0  0  0
   24.5285  -21.2724  -11.3921 N   0  0  0  0  0  0  0  0  0  0  0  0
   23.2255  -20.7212  -11.0101 C   0  0  1  0  0  0  0  0  0  0  0  0
   23.0469  -19.3349  -11.5219 C   0  0  0  0  0  0  0  0  0  0  0  0
   22.9488  -19.3385  -12.9940 C   0  0  0  0  0  0  0  0  0  0  0  0
   21.7724  -19.4208  -13.7052 C   0  0  0  0  0  0  0  0  0  0  0  0
   21.7227  -19.4153  -15.0891 C   0  0  0  0  0  0  0  0  0  0  0  0
   22.8926  -19.3241  -15.8100 C   0  0  0  0  0  0  0  0  0  0  0  0
   24.0969  -19.2396  -15.1370 C   0  0  0  0  0  0  0  0  0  0  0  0
   24.1194  -19.2470  -13.7575 C   0  0  0  0  0  0  0  0  0  0  0  0
   22.1989  -21.6604  -11.4648 C   0  0  0  0  0  0  0  0  0  0  0  0
   22.5356  -22.7131  -12.2914 O   0  0  0  0  0  0  0  0  0  0  0  0
   21.0112  -21.5261  -11.1154 O   0  0  0  0  0  0  0  0  0  0  0  0
  2  1  1  6
  3  2  1  0
  4  3  1  0
  5  4  2  0
  6  5  1  0
  7  6  1  0
  7 12  2  0
  8  7  1  0
  9  8  2  0
  9 10  1  0
 10 11  2  0
 11 12  1  0
 12  4  1  0
 13 14  2  0
 13  2  1  0
 16 15  1  1
 16 17  1  0
 16 18  1  0
 19 18  1  1
 19 21  1  0
 19 20  1  0
 20 13  1  0
 21 23  1  0
 22 21  2  0
 23 24  1  0
 24 25  1  6
 25 26  1  0
 26 27  2  0
 27 28  1  0
 29 28  2  0
 30 29  1  0
 31 26  1  0
 31 30  2  0
 32 33  1  0
 32 24  1  0
 34 32  2  0
M  END
$$$$
