WLF.pdb
     RDKit          3D

 34 36  0  0  1  0  0  0  0  0999 V2000
   25.5599  -19.5187  -16.8158 N   0  0  0  0  0  0  0  0  0  0  0  0
   25.3789  -20.9632  -16.8606 C   0  0  1  0  0  0  0  0  0  0  0  0
   26.0242  -21.5131  -18.0930 C   0  0  0  0  0  0  0  0  0  0  0  0
   25.7036  -20.8339  -19.3475 C   0  0  0  0  0  0  0  0  0  0  0  0
   26.6335  -20.2119  -20.1975 C   0  0  0  0  0  0  0  0  0  0  0  0
   25.9699  -19.7301  -21.2493 N   0  0  0  0  0  0  0  0  0  0  0  0
   24.6529  -19.9919  -21.1536 C   0  0  0  0  0  0  0  0  0  0  0  0
   23.5818  -19.6979  -21.9721 C   0  0  0  0  0  0  0  0  0  0  0  0
   22.3181  -20.1044  -21.5874 C   0  0  0  0  0  0  0  0  0  0  0  0
   22.1153  -20.7845  -20.4231 C   0  0  0  0  0  0  0  0  0  0  0  0
   23.1874  -21.0668  -19.6259 C   0  0  0  0  0  0  0  0  0  0  0  0
   24.4889  -20.6818  -19.9632 C   0  0  0  0  0  0  0  0  0  0  0  0
   25.6628  -21.6482  -15.6058 C   0  0  0  0  0  0  0  0  0  0  0  0
   25.6095  -22.9036  -15.5916 O   0  0  0  0  0  0  0  0  0  0  0  0
   29.2478  -19.6017  -12.2414 C   0  0  0  0  0  0  0  0  0  0  0  0
   28.2763  -20.3709  -13.0999 C   0  0  1  0  0  0  0  0  0  0  0  0
   29.0647  -21.5231  -13.7419 C   0  0  0  0  0  0  0  0  0  0  0  0
   27.1762  -21.0037  -12.3121 C   0  0  0  0  0  0  0  0  0  0  0  0
   26.1003  -21.6510  -13.1169 C   0  0  2  0  0  0  0  0  0  0  0  0
   25.9977  -20.9883  -14.3901 N   0  0  0  0  0  0  0  0  0  0  0  0
   24.7863  -21.5697  -12.4133 C   0  0  0  0  0  0  0  0  0  0  0  0
   24.6117  -22.0623  -11.2652 O   0  0  0  0  0  0  0  0  0  0  0  0
   23.6535  -20.9349  -12.9904 N   0  0  0  0  0  0  0  0  0  0  0  0
   22.3581  -20.8422  -12.3116 C   0  0  1  0  0  0  0  0  0  0  0  0
   21.8733  -19.4363  -12.2481 C   0  0  0  0  0  0  0  0  0  0  0  0
   21.6960  -18.8913  -13.6076 C   0  0  0  0  0  0  0  0  0  0  0  0
   20.5023  -18.8574  -14.2936 C   0  0  0  0  0  0  0  0  0  0  0  0
   20.3767  -18.3310  -15.5683 C   0  0  0  0  0  0  0  0  0  0  0  0
   21.4844  -17.8112  -16.2003 C   0  0  0  0  0  0  0  0  0  0  0  0
   22.7033  -17.8247  -15.5488 C   0  0  0  0  0  0  0  0  0  0  0  0
   22.8020  -18.3549  -14.2788 C   0  0  0  0  0  0  0  0  0  0  0  0
   21.4389  -21.7588  -12.9883 C   0  0  0  0  0  0  0  0  0  0  0  0
   21.8121  -22.3757  -14.1651 O   0  0  0  0  0  0  0  0  0  0  0  0
   20.3112  -21.9958  -12.5162 O   0  0  0  0  0  0  0  0  0  0  0  0
  2  1  1  1
  3  2  1  0
  4  3  1  0
  5  4  2  0
  6  5  1  0
  7  6  1  0
  7 12  2  0
  8  7  1  0
  9  8  2  0
  9 10  1  0
 10 11  2  0
 11 12  1  0
 12  4  1  0
 13 14  2  0
 13  2  1  0
 16 15  1  1
 16 17  1  0
 16 18  1  0
 19 18  1  1
 19 21  1  0
 19 20  1  0
 20 13  1  0
 21 23  1  0
 22 21  2  0
 23 24  1  0
 24 25  1  6
 25 26  1  0
 26 27  2  0
 27 28  1  0
 29 28  2  0
 30 29  1  0
 31 26  1  0
 31 30  2  0
 32 33  1  0
 32 24  1  0
 34 32  2  0
M  END
$$$$
