WLF.pdb
     RDKit          3D

 34 36  0  0  1  0  0  0  0  0999 V2000
   25.8014  -17.8545  -14.1502 N   0  0  0  0  0  0  0  0  0  0  0  0
   24.9964  -19.0102  -13.7791 C   0  0  1  0  0  0  0  0  0  0  0  0
   24.0129  -19.3082  -14.8660 C   0  0  0  0  0  0  0  0  0  0  0  0
   23.1539  -18.2002  -15.2810 C   0  0  0  0  0  0  0  0  0  0  0  0
   23.5987  -16.9884  -15.8357 C   0  0  0  0  0  0  0  0  0  0  0  0
   22.5264  -16.2437  -16.1085 N   0  0  0  0  0  0  0  0  0  0  0  0
   21.3919  -16.8841  -15.7694 C   0  0  0  0  0  0  0  0  0  0  0  0
   20.0610  -16.5297  -15.8511 C   0  0  0  0  0  0  0  0  0  0  0  0
   19.1054  -17.4219  -15.4026 C   0  0  0  0  0  0  0  0  0  0  0  0
   19.4537  -18.6346  -14.8858 C   0  0  0  0  0  0  0  0  0  0  0  0
   20.7759  -18.9681  -14.8131 C   0  0  0  0  0  0  0  0  0  0  0  0
   21.7870  -18.1071  -15.2517 C   0  0  0  0  0  0  0  0  0  0  0  0
   25.7587  -20.1354  -13.2527 C   0  0  0  0  0  0  0  0  0  0  0  0
   25.4304  -21.2934  -13.6137 O   0  0  0  0  0  0  0  0  0  0  0  0
   31.0155  -19.8883  -13.0473 C   0  0  0  0  0  0  0  0  0  0  0  0
   29.5656  -20.2939  -13.1241 C   0  0  1  0  0  0  0  0  0  0  0  0
   29.4796  -21.4508  -14.1318 C   0  0  0  0  0  0  0  0  0  0  0  0
   29.0391  -20.8246  -11.8309 C   0  0  0  0  0  0  0  0  0  0  0  0
   27.5792  -21.1280  -11.8081 C   0  0  2  0  0  0  0  0  0  0  0  0
   26.8548  -20.0106  -12.3535 N   0  0  0  0  0  0  0  0  0  0  0  0
   27.1098  -21.3848  -10.4145 C   0  0  0  0  0  0  0  0  0  0  0  0
   27.4417  -22.4225   -9.7785 O   0  0  0  0  0  0  0  0  0  0  0  0
   26.2628  -20.4803   -9.7193 N   0  0  0  0  0  0  0  0  0  0  0  0
   25.5841  -20.8242   -8.4667 C   0  0  1  0  0  0  0  0  0  0  0  0
   25.6533  -19.7090   -7.4833 C   0  0  0  0  0  0  0  0  0  0  0  0
   26.8840  -19.8104   -6.6761 C   0  0  0  0  0  0  0  0  0  0  0  0
   27.2806  -20.9313   -5.9811 C   0  0  0  0  0  0  0  0  0  0  0  0
   28.4482  -20.9877   -5.2386 C   0  0  0  0  0  0  0  0  0  0  0  0
   29.2677  -19.8826   -5.1772 C   0  0  0  0  0  0  0  0  0  0  0  0
   28.9085  -18.7355   -5.8595 C   0  0  0  0  0  0  0  0  0  0  0  0
   27.7399  -18.7049   -6.5924 C   0  0  0  0  0  0  0  0  0  0  0  0
   24.2207  -21.2375   -8.8029 C   0  0  0  0  0  0  0  0  0  0  0  0
   23.4462  -21.9030   -7.8745 O   0  0  0  0  0  0  0  0  0  0  0  0
   23.7394  -20.9970   -9.9260 O   0  0  0  0  0  0  0  0  0  0  0  0
  2  1  1  6
  3  2  1  0
  4  3  1  0
  5  4  2  0
  6  5  1  0
  7  6  1  0
  7 12  2  0
  8  7  1  0
  9  8  2  0
  9 10  1  0
 10 11  2  0
 11 12  1  0
 12  4  1  0
 13 14  2  0
 13  2  1  0
 16 15  1  1
 16 17  1  0
 16 18  1  0
 19 18  1  1
 19 21  1  0
 19 20  1  0
 20 13  1  0
 21 23  1  0
 22 21  2  0
 23 24  1  0
 24 25  1  1
 25 26  1  0
 26 27  2  0
 27 28  1  0
 29 28  2  0
 30 29  1  0
 31 26  1  0
 31 30  2  0
 32 33  1  0
 32 24  1  0
 34 32  2  0
M  END
$$$$
