WLF.pdb
     RDKit          3D

 34 36  0  0  1  0  0  0  0  0999 V2000
   24.3413  -19.9678  -13.1342 N   0  0  0  0  0  0  0  0  0  0  0  0
   23.2850  -20.0340  -12.1336 C   0  0  1  0  0  0  0  0  0  0  0  0
   21.9884  -20.3826  -12.7931 C   0  0  0  0  0  0  0  0  0  0  0  0
   21.5894  -19.5392  -13.9188 C   0  0  0  0  0  0  0  0  0  0  0  0
   21.9403  -19.7544  -15.2622 C   0  0  0  0  0  0  0  0  0  0  0  0
   21.3700  -18.7962  -15.9940 N   0  0  0  0  0  0  0  0  0  0  0  0
   20.6596  -17.9534  -15.2211 C   0  0  0  0  0  0  0  0  0  0  0  0
   19.9136  -16.8290  -15.5088 C   0  0  0  0  0  0  0  0  0  0  0  0
   19.2941  -16.1574  -14.4718 C   0  0  0  0  0  0  0  0  0  0  0  0
   19.4077  -16.5841  -13.1817 C   0  0  0  0  0  0  0  0  0  0  0  0
   20.1500  -17.6990  -12.9162 C   0  0  0  0  0  0  0  0  0  0  0  0
   20.7989  -18.4199  -13.9239 C   0  0  0  0  0  0  0  0  0  0  0  0
   23.6353  -20.7804  -10.9318 C   0  0  0  0  0  0  0  0  0  0  0  0
   23.8383  -22.0157  -11.0404 O   0  0  0  0  0  0  0  0  0  0  0  0
   26.9645  -19.1501   -7.1780 C   0  0  0  0  0  0  0  0  0  0  0  0
   26.0410  -19.8480   -8.1437 C   0  0  1  0  0  0  0  0  0  0  0  0
   26.7974  -21.0754   -8.6753 C   0  0  0  0  0  0  0  0  0  0  0  0
   24.8017  -20.3691   -7.4927 C   0  0  0  0  0  0  0  0  0  0  0  0
   23.7919  -20.9620   -8.4161 C   0  0  2  0  0  0  0  0  0  0  0  0
   23.7635  -20.2020   -9.6377 N   0  0  0  0  0  0  0  0  0  0  0  0
   22.4330  -20.9503   -7.7984 C   0  0  0  0  0  0  0  0  0  0  0  0
   21.7867  -19.8808   -7.6260 O   0  0  0  0  0  0  0  0  0  0  0  0
   21.7843  -22.1387   -7.3672 N   0  0  0  0  0  0  0  0  0  0  0  0
   20.4401  -22.1479   -6.7834 C   0  0  1  0  0  0  0  0  0  0  0  0
   19.4215  -21.6505   -7.7481 C   0  0  0  0  0  0  0  0  0  0  0  0
   19.3465  -22.5410   -8.9219 C   0  0  0  0  0  0  0  0  0  0  0  0
   19.7648  -22.2087  -10.1912 C   0  0  0  0  0  0  0  0  0  0  0  0
   19.6824  -23.0770  -11.2669 C   0  0  0  0  0  0  0  0  0  0  0  0
   19.1608  -24.3382  -11.0827 C   0  0  0  0  0  0  0  0  0  0  0  0
   18.7284  -24.7143   -9.8250 C   0  0  0  0  0  0  0  0  0  0  0  0
   18.8214  -23.8305   -8.7696 C   0  0  0  0  0  0  0  0  0  0  0  0
   20.1823  -23.5021   -6.2910 C   0  0  0  0  0  0  0  0  0  0  0  0
   19.0578  -23.7657   -5.5356 O   0  0  0  0  0  0  0  0  0  0  0  0
   20.9690  -24.4337   -6.5440 O   0  0  0  0  0  0  0  0  0  0  0  0
  2  1  1  6
  3  2  1  0
  4  3  1  0
  5  4  2  0
  6  5  1  0
  7  6  1  0
  7 12  2  0
  8  7  1  0
  9  8  2  0
  9 10  1  0
 10 11  2  0
 11 12  1  0
 12  4  1  0
 13 14  2  0
 13  2  1  0
 16 15  1  1
 16 17  1  0
 16 18  1  0
 19 18  1  1
 19 21  1  0
 19 20  1  0
 20 13  1  0
 21 23  1  0
 22 21  2  0
 23 24  1  0
 24 25  1  6
 25 26  1  0
 26 27  2  0
 27 28  1  0
 29 28  2  0
 30 29  1  0
 31 26  1  0
 31 30  2  0
 32 33  1  0
 32 24  1  0
 34 32  2  0
M  END
$$$$
