WLF.pdb
     RDKit          3D

 34 36  0  0  1  0  0  0  0  0999 V2000
   23.0630  -20.1164  -15.1686 N   0  0  0  0  0  0  0  0  0  0  0  0
   23.5090  -20.4345  -13.8190 C   0  0  1  0  0  0  0  0  0  0  0  0
   22.4817  -21.2807  -13.1361 C   0  0  0  0  0  0  0  0  0  0  0  0
   21.1621  -20.6767  -12.9586 C   0  0  0  0  0  0  0  0  0  0  0  0
   20.3021  -20.2791  -13.9961 C   0  0  0  0  0  0  0  0  0  0  0  0
   19.1866  -19.8001  -13.4439 N   0  0  0  0  0  0  0  0  0  0  0  0
   19.2491  -19.8530  -12.1001 C   0  0  0  0  0  0  0  0  0  0  0  0
   18.3647  -19.4773  -11.1101 C   0  0  0  0  0  0  0  0  0  0  0  0
   18.7293  -19.6546   -9.7888 C   0  0  0  0  0  0  0  0  0  0  0  0
   19.9373  -20.1896   -9.4517 C   0  0  0  0  0  0  0  0  0  0  0  0
   20.7996  -20.5558  -10.4452 C   0  0  0  0  0  0  0  0  0  0  0  0
   20.4855  -20.4010  -11.7992 C   0  0  0  0  0  0  0  0  0  0  0  0
   24.8946  -20.8770  -13.7277 C   0  0  0  0  0  0  0  0  0  0  0  0
   25.2058  -21.9650  -14.2740 O   0  0  0  0  0  0  0  0  0  0  0  0
   29.4123  -18.4103  -14.7752 C   0  0  0  0  0  0  0  0  0  0  0  0
   28.2582  -19.3226  -14.4460 C   0  0  1  0  0  0  0  0  0  0  0  0
   28.4027  -20.5640  -15.3401 C   0  0  0  0  0  0  0  0  0  0  0  0
   28.2881  -19.8157  -13.0363 C   0  0  0  0  0  0  0  0  0  0  0  0
   27.1779  -20.7350  -12.6539 C   0  0  2  0  0  0  0  0  0  0  0  0
   25.9237  -20.1568  -13.0584 N   0  0  0  0  0  0  0  0  0  0  0  0
   27.1601  -20.9647  -11.1790 C   0  0  0  0  0  0  0  0  0  0  0  0
   28.0266  -21.6785  -10.6037 O   0  0  0  0  0  0  0  0  0  0  0  0
   26.1697  -20.3961  -10.3335 N   0  0  0  0  0  0  0  0  0  0  0  0
   26.0293  -20.7498   -8.9183 C   0  0  1  0  0  0  0  0  0  0  0  0
   26.0154  -19.5400   -8.0511 C   0  0  0  0  0  0  0  0  0  0  0  0
   27.1885  -19.5347   -7.1565 C   0  0  0  0  0  0  0  0  0  0  0  0
   27.8268  -20.6611   -6.6872 C   0  0  0  0  0  0  0  0  0  0  0  0
   28.9306  -20.6131   -5.8522 C   0  0  0  0  0  0  0  0  0  0  0  0
   29.4316  -19.3919   -5.4590 C   0  0  0  0  0  0  0  0  0  0  0  0
   28.8219  -18.2350   -5.9061 C   0  0  0  0  0  0  0  0  0  0  0  0
   27.7233  -18.3099   -6.7376 C   0  0  0  0  0  0  0  0  0  0  0  0
   24.8363  -21.5882   -8.7894 C   0  0  0  0  0  0  0  0  0  0  0  0
   24.6052  -22.2958   -7.6273 O   0  0  0  0  0  0  0  0  0  0  0  0
   24.0147  -21.6766   -9.7210 O   0  0  0  0  0  0  0  0  0  0  0  0
  2  1  1  6
  3  2  1  0
  4  3  1  0
  5  4  2  0
  6  5  1  0
  7  6  1  0
  7 12  2  0
  8  7  1  0
  9  8  2  0
  9 10  1  0
 10 11  2  0
 11 12  1  0
 12  4  1  0
 13 14  2  0
 13  2  1  0
 16 15  1  1
 16 17  1  0
 16 18  1  0
 19 18  1  1
 19 21  1  0
 19 20  1  0
 20 13  1  0
 21 23  1  0
 22 21  2  0
 23 24  1  0
 24 25  1  1
 25 26  1  0
 26 27  2  0
 27 28  1  0
 29 28  2  0
 30 29  1  0
 31 26  1  0
 31 30  2  0
 32 33  1  0
 32 24  1  0
 34 32  2  0
M  END
$$$$
