WLF.pdb
     RDKit          3D

 34 36  0  0  1  0  0  0  0  0999 V2000
   22.5305  -28.6672  -17.3125 N   0  0  0  0  0  0  0  0  0  0  0  0
   23.4727  -29.1999  -16.3378 C   0  0  1  0  0  0  0  0  0  0  0  0
   22.7881  -29.3732  -15.0191 C   0  0  0  0  0  0  0  0  0  0  0  0
   22.1807  -28.1738  -14.4445 C   0  0  0  0  0  0  0  0  0  0  0  0
   22.0596  -26.9324  -15.0913 C   0  0  0  0  0  0  0  0  0  0  0  0
   21.4307  -26.0975  -14.2630 N   0  0  0  0  0  0  0  0  0  0  0  0
   21.1245  -26.7055  -13.1015 C   0  0  0  0  0  0  0  0  0  0  0  0
   20.4929  -26.2650  -11.9567 C   0  0  0  0  0  0  0  0  0  0  0  0
   20.3305  -27.1462  -10.9045 C   0  0  0  0  0  0  0  0  0  0  0  0
   20.7803  -28.4313  -10.9791 C   0  0  0  0  0  0  0  0  0  0  0  0
   21.4028  -28.8495  -12.1204 C   0  0  0  0  0  0  0  0  0  0  0  0
   21.5950  -28.0035  -13.2174 C   0  0  0  0  0  0  0  0  0  0  0  0
   24.2725  -30.3197  -16.8180 C   0  0  0  0  0  0  0  0  0  0  0  0
   23.6855  -31.2463  -17.4311 O   0  0  0  0  0  0  0  0  0  0  0  0
   29.7250  -29.9141  -18.4188 C   0  0  0  0  0  0  0  0  0  0  0  0
   28.2580  -30.2582  -18.3729 C   0  0  1  0  0  0  0  0  0  0  0  0
   27.9555  -31.0874  -19.6308 C   0  0  0  0  0  0  0  0  0  0  0  0
   27.8969  -31.1189  -17.2068 C   0  0  0  0  0  0  0  0  0  0  0  0
   26.4663  -31.5337  -17.1334 C   0  0  2  0  0  0  0  0  0  0  0  0
   25.6796  -30.4351  -16.6385 N   0  0  0  0  0  0  0  0  0  0  0  0
   26.2973  -32.7070  -16.2261 C   0  0  0  0  0  0  0  0  0  0  0  0
   26.7346  -32.7049  -15.0428 O   0  0  0  0  0  0  0  0  0  0  0  0
   25.6358  -33.8957  -16.6366 N   0  0  0  0  0  0  0  0  0  0  0  0
   25.4553  -35.0536  -15.7567 C   0  0  1  0  0  0  0  0  0  0  0  0
   24.0630  -35.5762  -15.8192 C   0  0  0  0  0  0  0  0  0  0  0  0
   23.9527  -36.8384  -15.0635 C   0  0  0  0  0  0  0  0  0  0  0  0
   24.1993  -38.0907  -15.5808 C   0  0  0  0  0  0  0  0  0  0  0  0
   24.0899  -39.2526  -14.8351 C   0  0  0  0  0  0  0  0  0  0  0  0
   23.7182  -39.1770  -13.5112 C   0  0  0  0  0  0  0  0  0  0  0  0
   23.4608  -37.9402  -12.9504 C   0  0  0  0  0  0  0  0  0  0  0  0
   23.5770  -36.7974  -13.7149 C   0  0  0  0  0  0  0  0  0  0  0  0
   26.4776  -36.0398  -16.1102 C   0  0  0  0  0  0  0  0  0  0  0  0
   27.2398  -35.8747  -17.2489 O   0  0  0  0  0  0  0  0  0  0  0  0
   26.6756  -37.0388  -15.3935 O   0  0  0  0  0  0  0  0  0  0  0  0
  2  1  1  6
  3  2  1  0
  4  3  1  0
  5  4  2  0
  6  5  1  0
  7  6  1  0
  7 12  2  0
  8  7  1  0
  9  8  2  0
  9 10  1  0
 10 11  2  0
 11 12  1  0
 12  4  1  0
 13 14  2  0
 13  2  1  0
 16 15  1  1
 16 17  1  0
 16 18  1  0
 19 18  1  1
 19 21  1  0
 19 20  1  0
 20 13  1  0
 21 23  1  0
 22 21  2  0
 23 24  1  0
 24 25  1  6
 25 26  1  0
 26 27  2  0
 27 28  1  0
 29 28  2  0
 30 29  1  0
 31 26  1  0
 31 30  2  0
 32 33  1  0
 32 24  1  0
 34 32  2  0
M  END
$$$$
