WLF.pdb
     RDKit          3D

 34 36  0  0  1  0  0  0  0  0999 V2000
   21.4950  -16.2437  -20.3943 N   0  0  0  0  0  0  0  0  0  0  0  0
   20.9598  -17.2660  -19.5056 C   0  0  1  0  0  0  0  0  0  0  0  0
   20.3486  -18.3659  -20.3145 C   0  0  0  0  0  0  0  0  0  0  0  0
   19.2070  -17.9954  -21.1495 C   0  0  0  0  0  0  0  0  0  0  0  0
   18.7751  -16.6825  -21.4025 C   0  0  0  0  0  0  0  0  0  0  0  0
   17.7272  -16.7465  -22.2251 N   0  0  0  0  0  0  0  0  0  0  0  0
   17.4322  -18.0225  -22.5367 C   0  0  0  0  0  0  0  0  0  0  0  0
   16.4537  -18.5865  -23.3292 C   0  0  0  0  0  0  0  0  0  0  0  0
   16.4033  -19.9626  -23.4473 C   0  0  0  0  0  0  0  0  0  0  0  0
   17.2962  -20.7637  -22.7991 C   0  0  0  0  0  0  0  0  0  0  0  0
   18.2578  -20.1875  -22.0193 C   0  0  0  0  0  0  0  0  0  0  0  0
   18.3586  -18.8015  -21.8625 C   0  0  0  0  0  0  0  0  0  0  0  0
   21.8571  -17.6608  -18.4271 C   0  0  0  0  0  0  0  0  0  0  0  0
   22.9850  -18.1217  -18.7343 O   0  0  0  0  0  0  0  0  0  0  0  0
   22.9282  -14.2675  -14.7723 C   0  0  0  0  0  0  0  0  0  0  0  0
   22.8226  -15.4154  -15.7437 C   0  0  1  0  0  0  0  0  0  0  0  0
   24.1778  -15.5181  -16.4608 C   0  0  0  0  0  0  0  0  0  0  0  0
   22.6039  -16.7309  -15.0707 C   0  0  0  0  0  0  0  0  0  0  0  0
   22.4509  -17.9011  -15.9825 C   0  0  2  0  0  0  0  0  0  0  0  0
   21.5406  -17.5591  -17.0432 N   0  0  0  0  0  0  0  0  0  0  0  0
   21.9227  -19.0863  -15.2446 C   0  0  0  0  0  0  0  0  0  0  0  0
   22.5945  -19.6707  -14.3510 O   0  0  0  0  0  0  0  0  0  0  0  0
   20.6348  -19.6290  -15.5013 N   0  0  0  0  0  0  0  0  0  0  0  0
   20.1048  -20.7971  -14.7927 C   0  0  1  0  0  0  0  0  0  0  0  0
   19.0636  -20.4098  -13.8020 C   0  0  0  0  0  0  0  0  0  0  0  0
   19.6738  -19.6860  -12.6705 C   0  0  0  0  0  0  0  0  0  0  0  0
   20.3306  -20.2812  -11.6165 C   0  0  0  0  0  0  0  0  0  0  0  0
   20.8956  -19.5645  -10.5749 C   0  0  0  0  0  0  0  0  0  0  0  0
   20.8090  -18.1900  -10.5713 C   0  0  0  0  0  0  0  0  0  0  0  0
   20.1584  -17.5505  -11.6096 C   0  0  0  0  0  0  0  0  0  0  0  0
   19.6039  -18.2877  -12.6357 C   0  0  0  0  0  0  0  0  0  0  0  0
   19.6412  -21.7517  -15.8010 C   0  0  0  0  0  0  0  0  0  0  0  0
   19.6764  -21.4214  -17.1405 O   0  0  0  0  0  0  0  0  0  0  0  0
   19.2097  -22.8717  -15.4688 O   0  0  0  0  0  0  0  0  0  0  0  0
  2  1  1  6
  3  2  1  0
  4  3  1  0
  5  4  2  0
  6  5  1  0
  7  6  1  0
  7 12  2  0
  8  7  1  0
  9  8  2  0
  9 10  1  0
 10 11  2  0
 11 12  1  0
 12  4  1  0
 13 14  2  0
 13  2  1  0
 16 15  1  1
 16 17  1  0
 16 18  1  0
 19 18  1  1
 19 21  1  0
 19 20  1  0
 20 13  1  0
 21 23  1  0
 22 21  2  0
 23 24  1  0
 24 25  1  1
 25 26  1  0
 26 27  2  0
 27 28  1  0
 29 28  2  0
 30 29  1  0
 31 26  1  0
 31 30  2  0
 32 33  1  0
 32 24  1  0
 34 32  2  0
M  END
$$$$
