WLF.pdb
     RDKit          3D

 34 36  0  0  1  0  0  0  0  0999 V2000
   22.2394  -20.7134  -14.3309 N   0  0  0  0  0  0  0  0  0  0  0  0
   23.3560  -19.8882  -13.8910 C   0  0  1  0  0  0  0  0  0  0  0  0
   22.8378  -18.6740  -13.1876 C   0  0  0  0  0  0  0  0  0  0  0  0
   22.1707  -17.6783  -14.0251 C   0  0  0  0  0  0  0  0  0  0  0  0
   20.8670  -17.1920  -13.8301 C   0  0  0  0  0  0  0  0  0  0  0  0
   20.6230  -16.2819  -14.7741 N   0  0  0  0  0  0  0  0  0  0  0  0
   21.6843  -16.1308  -15.5884 C   0  0  0  0  0  0  0  0  0  0  0  0
   21.9081  -15.3307  -16.6898 C   0  0  0  0  0  0  0  0  0  0  0  0
   23.1281  -15.4104  -17.3343 C   0  0  0  0  0  0  0  0  0  0  0  0
   24.1044  -16.2591  -16.9030 C   0  0  0  0  0  0  0  0  0  0  0  0
   23.8649  -17.0432  -15.8110 C   0  0  0  0  0  0  0  0  0  0  0  0
   22.6506  -17.0055  -15.1181 C   0  0  0  0  0  0  0  0  0  0  0  0
   24.4300  -20.6228  -13.2343 C   0  0  0  0  0  0  0  0  0  0  0  0
   24.1699  -21.7602  -12.7678 O   0  0  0  0  0  0  0  0  0  0  0  0
   28.9677  -18.9375  -15.4565 C   0  0  0  0  0  0  0  0  0  0  0  0
   27.7605  -19.6071  -14.8509 C   0  0  1  0  0  0  0  0  0  0  0  0
   27.2644  -20.6408  -15.8739 C   0  0  0  0  0  0  0  0  0  0  0  0
   28.0791  -20.3690  -13.6062 C   0  0  0  0  0  0  0  0  0  0  0  0
   26.9105  -20.9825  -12.9120 C   0  0  2  0  0  0  0  0  0  0  0  0
   25.7593  -20.1367  -13.0852 N   0  0  0  0  0  0  0  0  0  0  0  0
   27.1835  -21.1484  -11.4538 C   0  0  0  0  0  0  0  0  0  0  0  0
   27.9824  -22.0225  -11.0190 O   0  0  0  0  0  0  0  0  0  0  0  0
   26.5631  -20.3352  -10.4674 N   0  0  0  0  0  0  0  0  0  0  0  0
   26.7945  -20.5065   -9.0305 C   0  0  1  0  0  0  0  0  0  0  0  0
   27.5999  -19.3876   -8.4691 C   0  0  0  0  0  0  0  0  0  0  0  0
   27.8007  -19.5750   -7.0196 C   0  0  0  0  0  0  0  0  0  0  0  0
   28.4965  -20.6174   -6.4486 C   0  0  0  0  0  0  0  0  0  0  0  0
   28.6675  -20.7541   -5.0812 C   0  0  0  0  0  0  0  0  0  0  0  0
   28.1248  -19.8154   -4.2320 C   0  0  0  0  0  0  0  0  0  0  0  0
   27.4182  -18.7523   -4.7618 C   0  0  0  0  0  0  0  0  0  0  0  0
   27.2621  -18.6387   -6.1280 C   0  0  0  0  0  0  0  0  0  0  0  0
   25.4891  -20.6794   -8.3911 C   0  0  0  0  0  0  0  0  0  0  0  0
   24.3291  -20.4910   -9.1148 O   0  0  0  0  0  0  0  0  0  0  0  0
   25.4037  -20.9977   -7.1902 O   0  0  0  0  0  0  0  0  0  0  0  0
  2  1  1  1
  3  2  1  0
  4  3  1  0
  5  4  2  0
  6  5  1  0
  7  6  1  0
  7 12  2  0
  8  7  1  0
  9  8  2  0
  9 10  1  0
 10 11  2  0
 11 12  1  0
 12  4  1  0
 13 14  2  0
 13  2  1  0
 16 15  1  6
 16 17  1  0
 16 18  1  0
 19 18  1  6
 19 21  1  0
 19 20  1  0
 20 13  1  0
 21 23  1  0
 22 21  2  0
 23 24  1  0
 24 25  1  1
 25 26  1  0
 26 27  2  0
 27 28  1  0
 29 28  2  0
 30 29  1  0
 31 26  1  0
 31 30  2  0
 32 33  1  0
 32 24  1  0
 34 32  2  0
M  END
$$$$
