WLF.pdb
     RDKit          3D

 34 36  0  0  1  0  0  0  0  0999 V2000
   23.9377  -21.2328  -16.9639 N   0  0  0  0  0  0  0  0  0  0  0  0
   23.8546  -20.6315  -15.6400 C   0  0  1  0  0  0  0  0  0  0  0  0
   22.4243  -20.5643  -15.2068 C   0  0  0  0  0  0  0  0  0  0  0  0
   21.5592  -19.6685  -15.9728 C   0  0  0  0  0  0  0  0  0  0  0  0
   20.8241  -20.0263  -17.1155 C   0  0  0  0  0  0  0  0  0  0  0  0
   20.1390  -18.9541  -17.5152 N   0  0  0  0  0  0  0  0  0  0  0  0
   20.3720  -17.9012  -16.7093 C   0  0  0  0  0  0  0  0  0  0  0  0
   19.9099  -16.6012  -16.7164 C   0  0  0  0  0  0  0  0  0  0  0  0
   20.3500  -15.7325  -15.7357 C   0  0  0  0  0  0  0  0  0  0  0  0
   21.2250  -16.1359  -14.7710 C   0  0  0  0  0  0  0  0  0  0  0  0
   21.6713  -17.4264  -14.7798 C   0  0  0  0  0  0  0  0  0  0  0  0
   21.2608  -18.3505  -15.7460 C   0  0  0  0  0  0  0  0  0  0  0  0
   24.8120  -21.1572  -14.6749 C   0  0  0  0  0  0  0  0  0  0  0  0
   24.7508  -22.3786  -14.3858 O   0  0  0  0  0  0  0  0  0  0  0  0
   29.7272  -19.0225  -14.3102 C   0  0  0  0  0  0  0  0  0  0  0  0
   28.4346  -19.7976  -14.3398 C   0  0  1  0  0  0  0  0  0  0  0  0
   28.7227  -21.1162  -15.0743 C   0  0  0  0  0  0  0  0  0  0  0  0
   27.9487  -20.1738  -12.9784 C   0  0  0  0  0  0  0  0  0  0  0  0
   26.6168  -20.8432  -12.9342 C   0  0  2  0  0  0  0  0  0  0  0  0
   25.8158  -20.3772  -14.0351 N   0  0  0  0  0  0  0  0  0  0  0  0
   25.9121  -20.5441  -11.6526 C   0  0  0  0  0  0  0  0  0  0  0  0
   25.1019  -19.5833  -11.5443 O   0  0  0  0  0  0  0  0  0  0  0  0
   26.1089  -21.3198  -10.4785 N   0  0  0  0  0  0  0  0  0  0  0  0
   25.3318  -21.1228   -9.2518 C   0  0  1  0  0  0  0  0  0  0  0  0
   25.5158  -19.7518   -8.7020 C   0  0  0  0  0  0  0  0  0  0  0  0
   26.7118  -19.6994   -7.8398 C   0  0  0  0  0  0  0  0  0  0  0  0
   27.2482  -18.5492   -7.3052 C   0  0  0  0  0  0  0  0  0  0  0  0
   28.3708  -18.5434   -6.4943 C   0  0  0  0  0  0  0  0  0  0  0  0
   28.9977  -19.7324   -6.1945 C   0  0  0  0  0  0  0  0  0  0  0  0
   28.4935  -20.9116   -6.7098 C   0  0  0  0  0  0  0  0  0  0  0  0
   27.3734  -20.8904   -7.5153 C   0  0  0  0  0  0  0  0  0  0  0  0
   23.9398  -21.4616   -9.5524 C   0  0  0  0  0  0  0  0  0  0  0  0
   23.5809  -21.8689  -10.8212 O   0  0  0  0  0  0  0  0  0  0  0  0
   23.0609  -21.3883   -8.6731 O   0  0  0  0  0  0  0  0  0  0  0  0
  2  1  1  6
  3  2  1  0
  4  3  1  0
  5  4  2  0
  6  5  1  0
  7  6  1  0
  7 12  2  0
  8  7  1  0
  9  8  2  0
  9 10  1  0
 10 11  2  0
 11 12  1  0
 12  4  1  0
 13 14  2  0
 13  2  1  0
 16 15  1  1
 16 17  1  0
 16 18  1  0
 19 18  1  1
 19 21  1  0
 19 20  1  0
 20 13  1  0
 21 23  1  0
 22 21  2  0
 23 24  1  0
 24 25  1  6
 25 26  1  0
 26 27  2  0
 27 28  1  0
 29 28  2  0
 30 29  1  0
 31 26  1  0
 31 30  2  0
 32 33  1  0
 32 24  1  0
 34 32  2  0
M  END
$$$$
