AHV.pdb
     RDKit          3D

 23 23  0  0  1  0  0  0  0  0999 V2000
    9.2212  -21.5415   18.1616 C   0  0  0  0  0  0  0  0  0  0  0  0
    9.7813  -20.4242   17.3417 C   0  0  2  0  0  0  0  0  0  0  0  0
   10.9787  -20.7583   16.6324 N   0  0  0  0  0  0  0  0  0  0  0  0
    9.9428  -19.2060   18.1997 C   0  0  0  0  0  0  0  0  0  0  0  0
   11.0725  -19.0563   18.7313 O   0  0  0  0  0  0  0  0  0  0  0  0
    8.8893  -18.2881   18.3948 N   0  0  0  0  0  0  0  0  0  0  0  0
    9.0804  -17.0102   19.1117 C   0  0  1  0  0  0  0  0  0  0  0  0
    8.0231  -16.0517   18.7037 C   0  0  0  0  0  0  0  0  0  0  0  0
    7.9821  -14.7545   19.3924 C   0  0  0  0  0  0  0  0  0  0  0  0
    8.7414  -14.3204   20.4855 C   0  0  0  0  0  0  0  0  0  0  0  0
    8.3805  -13.0790   20.8492 N   0  0  0  0  0  0  0  0  0  0  0  0
    7.3996  -12.6959   20.0130 C   0  0  0  0  0  0  0  0  0  0  0  0
    7.1591  -13.6917   19.1433 N   0  0  0  0  0  0  0  0  0  0  0  0
    9.1725  -17.3508   20.5360 C   0  0  0  0  0  0  0  0  0  0  0  0
    8.3495  -18.1876   21.0491 O   0  0  0  0  0  0  0  0  0  0  0  0
   12.0585  -18.7708   22.6164 C   0  0  0  0  0  0  0  0  0  0  0  0
   11.5078  -17.5860   23.3419 C   0  0  1  0  0  0  0  0  0  0  0  0
   12.4961  -16.4715   23.3120 C   0  0  0  0  0  0  0  0  0  0  0  0
   10.1287  -17.1809   22.8557 C   0  0  2  0  0  0  0  0  0  0  0  0
   10.1287  -16.8335   21.4632 N   0  0  0  0  0  0  0  0  0  0  0  0
    9.5733  -16.1614   23.7556 C   0  0  0  0  0  0  0  0  0  0  0  0
    9.1277  -16.4110   25.0396 O   0  0  0  0  0  0  0  0  0  0  0  0
    9.4765  -14.9571   23.3713 O   0  0  0  0  0  0  0  0  0  0  0  0
  2  1  1  1
  2  4  1  0
  3  2  1  0
  4  5  2  0
  4  6  1  0
  6  7  1  0
  7 14  1  0
  7  8  1  1
  9  8  1  0
 10  9  2  0
 11 10  1  0
 12 11  1  0
 12 13  2  0
 13  9  1  0
 14 20  1  0
 14 15  2  0
 17 18  1  6
 17 16  1  0
 19 21  1  0
 19 17  1  0
 19 20  1  6
 21 22  1  0
 23 21  2  0
M  END
$$$$
