AHV.pdb
     RDKit          3D

 23 23  0  0  1  0  0  0  0  0999 V2000
    8.3160  -12.0028   19.8878 C   0  0  0  0  0  0  0  0  0  0  0  0
    8.3374  -13.4469   19.5025 C   0  0  2  0  0  0  0  0  0  0  0  0
    7.5615  -13.7569   18.3404 N   0  0  0  0  0  0  0  0  0  0  0  0
    7.9606  -14.2862   20.6855 C   0  0  0  0  0  0  0  0  0  0  0  0
    6.7328  -14.5208   20.8220 O   0  0  0  0  0  0  0  0  0  0  0  0
    8.9279  -14.7795   21.5864 N   0  0  0  0  0  0  0  0  0  0  0  0
    8.5720  -15.6525   22.7244 C   0  0  1  0  0  0  0  0  0  0  0  0
    9.3057  -16.9376   22.6097 C   0  0  0  0  0  0  0  0  0  0  0  0
    8.8723  -17.8744   21.5641 C   0  0  0  0  0  0  0  0  0  0  0  0
    7.7909  -17.7612   20.6822 C   0  0  0  0  0  0  0  0  0  0  0  0
    7.7038  -18.8483   19.8985 N   0  0  0  0  0  0  0  0  0  0  0  0
    8.7087  -19.6682   20.2535 C   0  0  0  0  0  0  0  0  0  0  0  0
    9.4075  -19.0915   21.2459 N   0  0  0  0  0  0  0  0  0  0  0  0
    8.7905  -14.8538   23.9357 C   0  0  0  0  0  0  0  0  0  0  0  0
    9.9004  -14.2369   24.1047 O   0  0  0  0  0  0  0  0  0  0  0  0
    7.1383  -11.7920   25.4368 C   0  0  0  0  0  0  0  0  0  0  0  0
    7.1670  -12.8524   26.4895 C   0  0  1  0  0  0  0  0  0  0  0  0
    5.7883  -13.3645   26.7279 C   0  0  0  0  0  0  0  0  0  0  0  0
    8.1748  -13.9490   26.1998 C   0  0  2  0  0  0  0  0  0  0  0  0
    7.8562  -14.6710   25.0011 N   0  0  0  0  0  0  0  0  0  0  0  0
    8.3552  -14.7763   27.4001 C   0  0  0  0  0  0  0  0  0  0  0  0
    8.8741  -14.3170   28.5956 O   0  0  0  0  0  0  0  0  0  0  0  0
    8.0268  -16.0009   27.3850 O   0  0  0  0  0  0  0  0  0  0  0  0
  2  1  1  1
  2  4  1  0
  3  2  1  0
  4  5  2  0
  4  6  1  0
  6  7  1  0
  7 14  1  0
  7  8  1  1
  9  8  1  0
 10  9  2  0
 11 10  1  0
 12 11  1  0
 12 13  2  0
 13  9  1  0
 14 20  1  0
 14 15  2  0
 17 18  1  6
 17 16  1  0
 19 21  1  0
 19 17  1  0
 19 20  1  6
 21 22  1  0
 23 21  2  0
M  END
$$$$
