AHV.pdb
     RDKit          3D

 23 23  0  0  1  0  0  0  0  0999 V2000
    8.4387  -12.1447   19.6507 C   0  0  0  0  0  0  0  0  0  0  0  0
    8.3644  -13.6153   19.3936 C   0  0  2  0  0  0  0  0  0  0  0  0
    7.4941  -13.9810   18.3179 N   0  0  0  0  0  0  0  0  0  0  0  0
    8.0337  -14.3302   20.6686 C   0  0  0  0  0  0  0  0  0  0  0  0
    6.8123  -14.5475   20.8738 O   0  0  0  0  0  0  0  0  0  0  0  0
    9.0347  -14.7318   21.5780 N   0  0  0  0  0  0  0  0  0  0  0  0
    8.7447  -15.6059   22.7336 C   0  0  1  0  0  0  0  0  0  0  0  0
    9.5451  -16.8511   22.6246 C   0  0  0  0  0  0  0  0  0  0  0  0
    9.1166  -17.8473   21.6333 C   0  0  0  0  0  0  0  0  0  0  0  0
    7.8555  -18.4330   21.4709 C   0  0  0  0  0  0  0  0  0  0  0  0
    7.8757  -19.3305   20.4720 N   0  0  0  0  0  0  0  0  0  0  0  0
    9.1272  -19.3407   19.9803 C   0  0  0  0  0  0  0  0  0  0  0  0
    9.8699  -18.4581   20.6697 N   0  0  0  0  0  0  0  0  0  0  0  0
    8.9387  -14.7789   23.9300 C   0  0  0  0  0  0  0  0  0  0  0  0
   10.0692  -14.2151   24.1427 O   0  0  0  0  0  0  0  0  0  0  0  0
    7.0021  -11.7205   25.4977 C   0  0  0  0  0  0  0  0  0  0  0  0
    7.1648  -12.8103   26.5073 C   0  0  1  0  0  0  0  0  0  0  0  0
    5.8479  -13.4558   26.7700 C   0  0  0  0  0  0  0  0  0  0  0  0
    8.2575  -13.7982   26.1432 C   0  0  2  0  0  0  0  0  0  0  0  0
    7.9582  -14.5115   24.9343 N   0  0  0  0  0  0  0  0  0  0  0  0
    8.5632  -14.6397   27.3078 C   0  0  0  0  0  0  0  0  0  0  0  0
    8.4168  -16.0134   27.3398 O   0  0  0  0  0  0  0  0  0  0  0  0
    8.9930  -14.1138   28.3784 O   0  0  0  0  0  0  0  0  0  0  0  0
  2  1  1  1
  2  4  1  0
  3  2  1  0
  4  5  2  0
  4  6  1  0
  6  7  1  0
  7 14  1  0
  7  8  1  1
  9  8  1  0
 10  9  2  0
 11 10  1  0
 12 11  1  0
 12 13  2  0
 13  9  1  0
 14 20  1  0
 14 15  2  0
 17 18  1  6
 17 16  1  0
 19 21  1  0
 19 17  1  0
 19 20  1  6
 21 22  1  0
 23 21  2  0
M  END
$$$$
