AHV.pdb
     RDKit          3D

 23 23  0  0  1  0  0  0  0  0999 V2000
    8.4408  -12.5377   19.2812 C   0  0  0  0  0  0  0  0  0  0  0  0
    8.4118  -14.0317   19.2445 C   0  0  2  0  0  0  0  0  0  0  0  0
    7.8504  -14.5797   18.0474 N   0  0  0  0  0  0  0  0  0  0  0  0
    7.7435  -14.5499   20.4819 C   0  0  0  0  0  0  0  0  0  0  0  0
    6.5056  -14.7518   20.3923 O   0  0  0  0  0  0  0  0  0  0  0  0
    8.4638  -14.7939   21.6702 N   0  0  0  0  0  0  0  0  0  0  0  0
    7.8525  -15.4591   22.8396 C   0  0  1  0  0  0  0  0  0  0  0  0
    8.1844  -16.9056   22.8148 C   0  0  0  0  0  0  0  0  0  0  0  0
    7.7831  -17.7128   23.9750 C   0  0  0  0  0  0  0  0  0  0  0  0
    7.1516  -17.2970   25.1533 C   0  0  0  0  0  0  0  0  0  0  0  0
    6.9875  -18.3323   25.9928 N   0  0  0  0  0  0  0  0  0  0  0  0
    7.5006  -19.4156   25.3833 C   0  0  0  0  0  0  0  0  0  0  0  0
    7.9758  -19.0506   24.1805 N   0  0  0  0  0  0  0  0  0  0  0  0
    8.2738  -14.6878   24.0145 C   0  0  0  0  0  0  0  0  0  0  0  0
    9.4932  -14.3129   24.1313 O   0  0  0  0  0  0  0  0  0  0  0  0
    6.8450  -11.4076   25.4825 C   0  0  0  0  0  0  0  0  0  0  0  0
    7.0182  -12.3892   26.5959 C   0  0  1  0  0  0  0  0  0  0  0  0
    5.6845  -12.8201   27.1012 C   0  0  0  0  0  0  0  0  0  0  0  0
    7.9262  -13.5483   26.2292 C   0  0  2  0  0  0  0  0  0  0  0  0
    7.4347  -14.2807   25.0970 N   0  0  0  0  0  0  0  0  0  0  0  0
    8.1975  -14.3543   27.4269 C   0  0  0  0  0  0  0  0  0  0  0  0
    7.8612  -15.6875   27.5648 O   0  0  0  0  0  0  0  0  0  0  0  0
    8.7774  -13.8338   28.4271 O   0  0  0  0  0  0  0  0  0  0  0  0
  2  1  1  6
  2  4  1  0
  3  2  1  0
  4  5  2  0
  4  6  1  0
  6  7  1  0
  7 14  1  0
  7  8  1  1
  9  8  1  0
 10  9  2  0
 11 10  1  0
 12 11  1  0
 12 13  2  0
 13  9  1  0
 14 20  1  0
 14 15  2  0
 17 18  1  6
 17 16  1  0
 19 21  1  0
 19 17  1  0
 19 20  1  6
 21 22  1  0
 23 21  2  0
M  END
$$$$
