AHV.pdb
     RDKit          3D

 23 23  0  0  1  0  0  0  0  0999 V2000
   11.4379  -19.2864   17.6520 C   0  0  0  0  0  0  0  0  0  0  0  0
   10.7085  -18.0112   17.3761 C   0  0  2  0  0  0  0  0  0  0  0  0
   11.1790  -17.3019   16.2255 N   0  0  0  0  0  0  0  0  0  0  0  0
   10.7004  -17.1620   18.6109 C   0  0  0  0  0  0  0  0  0  0  0  0
   11.7962  -16.6247   18.9135 O   0  0  0  0  0  0  0  0  0  0  0  0
    9.5327  -16.9805   19.3817 N   0  0  0  0  0  0  0  0  0  0  0  0
    9.4930  -16.0781   20.5512 C   0  0  1  0  0  0  0  0  0  0  0  0
    8.1838  -15.3800   20.5925 C   0  0  0  0  0  0  0  0  0  0  0  0
    7.8647  -14.4721   19.4822 C   0  0  0  0  0  0  0  0  0  0  0  0
    8.1631  -13.1105   19.3526 C   0  0  0  0  0  0  0  0  0  0  0  0
    7.6660  -12.6244   18.2037 N   0  0  0  0  0  0  0  0  0  0  0  0
    7.0487  -13.6444   17.5819 C   0  0  0  0  0  0  0  0  0  0  0  0
    7.1648  -14.7475   18.3406 N   0  0  0  0  0  0  0  0  0  0  0  0
    9.8604  -16.8973   21.7117 C   0  0  0  0  0  0  0  0  0  0  0  0
    9.2530  -18.0032   21.9334 O   0  0  0  0  0  0  0  0  0  0  0  0
   13.1912  -18.4457   22.6286 C   0  0  0  0  0  0  0  0  0  0  0  0
   12.6726  -17.7604   23.8512 C   0  0  1  0  0  0  0  0  0  0  0  0
   13.5104  -16.5662   24.1542 C   0  0  0  0  0  0  0  0  0  0  0  0
   11.1891  -17.4511   23.7738 C   0  0  2  0  0  0  0  0  0  0  0  0
   10.8750  -16.5897   22.6696 N   0  0  0  0  0  0  0  0  0  0  0  0
   10.7180  -16.9857   25.0850 C   0  0  0  0  0  0  0  0  0  0  0  0
   10.7089  -17.7571   26.2314 O   0  0  0  0  0  0  0  0  0  0  0  0
   10.2809  -15.8035   25.2220 O   0  0  0  0  0  0  0  0  0  0  0  0
  2  1  1  1
  2  4  1  0
  3  2  1  0
  4  5  2  0
  4  6  1  0
  6  7  1  0
  7 14  1  0
  7  8  1  1
  9  8  1  0
 10  9  2  0
 11 10  1  0
 12 11  1  0
 12 13  2  0
 13  9  1  0
 14 20  1  0
 14 15  2  0
 17 18  1  6
 17 16  1  0
 19 21  1  0
 19 17  1  0
 19 20  1  6
 21 22  1  0
 23 21  2  0
M  END
$$$$
