AHV.pdb
     RDKit          3D

 23 23  0  0  1  0  0  0  0  0999 V2000
    8.5188  -12.3656   19.2261 C   0  0  0  0  0  0  0  0  0  0  0  0
    8.4830  -13.8451   19.0157 C   0  0  2  0  0  0  0  0  0  0  0  0
    7.9783  -14.2452   17.7376 N   0  0  0  0  0  0  0  0  0  0  0  0
    7.7516  -14.4945   20.1512 C   0  0  0  0  0  0  0  0  0  0  0  0
    6.7193  -15.1412   19.8394 O   0  0  0  0  0  0  0  0  0  0  0  0
    8.1984  -14.3835   21.4848 N   0  0  0  0  0  0  0  0  0  0  0  0
    7.5219  -15.0742   22.6024 C   0  0  1  0  0  0  0  0  0  0  0  0
    7.6113  -16.5422   22.4028 C   0  0  0  0  0  0  0  0  0  0  0  0
    8.9437  -17.1136   22.1638 C   0  0  0  0  0  0  0  0  0  0  0  0
   10.1660  -16.4483   22.0114 C   0  0  0  0  0  0  0  0  0  0  0  0
   11.1545  -17.3243   21.7684 N   0  0  0  0  0  0  0  0  0  0  0  0
   10.5988  -18.5488   21.7596 C   0  0  0  0  0  0  0  0  0  0  0  0
    9.2813  -18.4276   21.9948 N   0  0  0  0  0  0  0  0  0  0  0  0
    8.0992  -14.5218   23.8331 C   0  0  0  0  0  0  0  0  0  0  0  0
    9.3704  -14.4226   23.9561 O   0  0  0  0  0  0  0  0  0  0  0  0
    7.1642  -11.1855   25.8188 C   0  0  0  0  0  0  0  0  0  0  0  0
    7.2380  -12.3632   26.7358 C   0  0  1  0  0  0  0  0  0  0  0  0
    5.8699  -12.7290   27.1990 C   0  0  0  0  0  0  0  0  0  0  0  0
    8.0047  -13.5303   26.1422 C   0  0  2  0  0  0  0  0  0  0  0  0
    7.3674  -14.0519   24.9668 N   0  0  0  0  0  0  0  0  0  0  0  0
    8.2835  -14.5173   27.1939 C   0  0  0  0  0  0  0  0  0  0  0  0
    9.1382  -14.3049   28.2588 O   0  0  0  0  0  0  0  0  0  0  0  0
    7.7250  -15.6551   27.1638 O   0  0  0  0  0  0  0  0  0  0  0  0
  2  1  1  1
  2  4  1  0
  3  2  1  0
  4  5  2  0
  4  6  1  0
  6  7  1  0
  7 14  1  0
  7  8  1  6
  9  8  1  0
 10  9  2  0
 11 10  1  0
 12 11  1  0
 12 13  2  0
 13  9  1  0
 14 20  1  0
 14 15  2  0
 17 18  1  6
 17 16  1  0
 19 21  1  0
 19 17  1  0
 19 20  1  6
 21 22  1  0
 23 21  2  0
M  END
$$$$
