AHV.pdb
     RDKit          3D

 23 23  0  0  1  0  0  0  0  0999 V2000
    8.5241  -12.5242   18.9943 C   0  0  0  0  0  0  0  0  0  0  0  0
    8.6419  -14.0142   18.9975 C   0  0  2  0  0  0  0  0  0  0  0  0
    8.2989  -14.6338   17.7538 N   0  0  0  0  0  0  0  0  0  0  0  0
    7.8674  -14.5750   20.1515 C   0  0  0  0  0  0  0  0  0  0  0  0
    6.9231  -15.3498   19.8527 O   0  0  0  0  0  0  0  0  0  0  0  0
    8.1828  -14.2501   21.4877 N   0  0  0  0  0  0  0  0  0  0  0  0
    7.7330  -15.0769   22.6269 C   0  0  1  0  0  0  0  0  0  0  0  0
    8.1648  -16.4816   22.4190 C   0  0  0  0  0  0  0  0  0  0  0  0
    7.8761  -17.4449   23.4902 C   0  0  0  0  0  0  0  0  0  0  0  0
    8.6912  -17.8333   24.5600 C   0  0  0  0  0  0  0  0  0  0  0  0
    8.0807  -18.7696   25.3044 N   0  0  0  0  0  0  0  0  0  0  0  0
    6.8823  -18.9988   24.7392 C   0  0  0  0  0  0  0  0  0  0  0  0
    6.7564  -18.2113   23.6577 N   0  0  0  0  0  0  0  0  0  0  0  0
    8.2052  -14.3955   23.8375 C   0  0  0  0  0  0  0  0  0  0  0  0
    9.4400  -14.0740   23.9514 O   0  0  0  0  0  0  0  0  0  0  0  0
    6.6581  -11.2844   25.8057 C   0  0  0  0  0  0  0  0  0  0  0  0
    6.9992  -12.3963   26.7440 C   0  0  1  0  0  0  0  0  0  0  0  0
    5.7498  -13.0018   27.2847 C   0  0  0  0  0  0  0  0  0  0  0  0
    7.9481  -13.4137   26.1384 C   0  0  2  0  0  0  0  0  0  0  0  0
    7.4026  -14.0249   24.9600 N   0  0  0  0  0  0  0  0  0  0  0  0
    8.3922  -14.3487   27.1808 C   0  0  0  0  0  0  0  0  0  0  0  0
    9.2183  -14.0092   28.2352 O   0  0  0  0  0  0  0  0  0  0  0  0
    8.0175  -15.5596   27.1518 O   0  0  0  0  0  0  0  0  0  0  0  0
  2  1  1  6
  2  4  1  0
  3  2  1  0
  4  5  2  0
  4  6  1  0
  6  7  1  0
  7 14  1  0
  7  8  1  6
  9  8  1  0
 10  9  2  0
 11 10  1  0
 12 11  1  0
 12 13  2  0
 13  9  1  0
 14 20  1  0
 14 15  2  0
 17 18  1  6
 17 16  1  0
 19 21  1  0
 19 17  1  0
 19 20  1  6
 21 22  1  0
 23 21  2  0
M  END
$$$$
