AHV.pdb
     RDKit          3D

 23 23  0  0  1  0  0  0  0  0999 V2000
   10.1414  -20.2920   18.2442 C   0  0  0  0  0  0  0  0  0  0  0  0
   10.0730  -18.9185   17.6586 C   0  0  2  0  0  0  0  0  0  0  0  0
   11.0030  -18.6852   16.5960 N   0  0  0  0  0  0  0  0  0  0  0  0
   10.1850  -17.9014   18.7536 C   0  0  0  0  0  0  0  0  0  0  0  0
   11.3409  -17.4575   18.9728 O   0  0  0  0  0  0  0  0  0  0  0  0
    9.0600  -17.4727   19.4892 N   0  0  0  0  0  0  0  0  0  0  0  0
    9.1725  -16.5363   20.6268 C   0  0  1  0  0  0  0  0  0  0  0  0
    7.9687  -15.6694   20.6742 C   0  0  0  0  0  0  0  0  0  0  0  0
    7.8720  -14.5894   19.6827 C   0  0  0  0  0  0  0  0  0  0  0  0
    8.8179  -14.1879   18.7319 C   0  0  0  0  0  0  0  0  0  0  0  0
    8.3683  -13.1326   18.0336 N   0  0  0  0  0  0  0  0  0  0  0  0
    7.1464  -12.8386   18.5119 C   0  0  0  0  0  0  0  0  0  0  0  0
    6.8469  -13.7045   19.4950 N   0  0  0  0  0  0  0  0  0  0  0  0
    9.4607  -17.3597   21.8065 C   0  0  0  0  0  0  0  0  0  0  0  0
    8.5936  -18.2044   22.2257 O   0  0  0  0  0  0  0  0  0  0  0  0
   12.8068  -19.3527   22.7188 C   0  0  0  0  0  0  0  0  0  0  0  0
   12.3032  -18.5828   23.8965 C   0  0  1  0  0  0  0  0  0  0  0  0
   13.2339  -17.4599   24.2011 C   0  0  0  0  0  0  0  0  0  0  0  0
   10.8589  -18.1432   23.7444 C   0  0  2  0  0  0  0  0  0  0  0  0
   10.6629  -17.3301   22.5781 N   0  0  0  0  0  0  0  0  0  0  0  0
   10.3927  -17.5521   25.0058 C   0  0  0  0  0  0  0  0  0  0  0  0
   10.0307  -16.2277   25.1618 O   0  0  0  0  0  0  0  0  0  0  0  0
   10.3004  -18.2672   26.0486 O   0  0  0  0  0  0  0  0  0  0  0  0
  2  1  1  1
  2  4  1  0
  3  2  1  0
  4  5  2  0
  4  6  1  0
  6  7  1  0
  7 14  1  0
  7  8  1  1
  9  8  1  0
 10  9  2  0
 11 10  1  0
 12 11  1  0
 12 13  2  0
 13  9  1  0
 14 20  1  0
 14 15  2  0
 17 18  1  6
 17 16  1  0
 19 21  1  0
 19 17  1  0
 19 20  1  6
 21 22  1  0
 23 21  2  0
M  END
$$$$
