AHV.pdb
     RDKit          3D

 23 23  0  0  1  0  0  0  0  0999 V2000
    8.9089  -20.2642   17.9622 C   0  0  0  0  0  0  0  0  0  0  0  0
    8.7488  -18.9185   17.3317 C   0  0  2  0  0  0  0  0  0  0  0  0
    9.2524  -18.8319   15.9948 N   0  0  0  0  0  0  0  0  0  0  0  0
    9.3291  -17.8712   18.2330 C   0  0  0  0  0  0  0  0  0  0  0  0
   10.5130  -17.5286   17.9836 O   0  0  0  0  0  0  0  0  0  0  0  0
    8.5883  -17.3085   19.2937 N   0  0  0  0  0  0  0  0  0  0  0  0
    9.1605  -16.2944   20.2035 C   0  0  1  0  0  0  0  0  0  0  0  0
    8.1674  -15.2143   20.4269 C   0  0  0  0  0  0  0  0  0  0  0  0
    7.8479  -14.3414   19.2890 C   0  0  0  0  0  0  0  0  0  0  0  0
    8.2985  -13.0414   19.0306 C   0  0  0  0  0  0  0  0  0  0  0  0
    7.7467  -12.5648   17.9028 N   0  0  0  0  0  0  0  0  0  0  0  0
    6.9445  -13.5305   17.4212 C   0  0  0  0  0  0  0  0  0  0  0  0
    7.0019  -14.5911   18.2445 N   0  0  0  0  0  0  0  0  0  0  0  0
    9.6409  -17.0266   21.3807 C   0  0  0  0  0  0  0  0  0  0  0  0
    8.8350  -17.7650   22.0488 O   0  0  0  0  0  0  0  0  0  0  0  0
   13.0148  -19.4668   23.9208 C   0  0  0  0  0  0  0  0  0  0  0  0
   12.5783  -18.6592   22.7415 C   0  0  1  0  0  0  0  0  0  0  0  0
   12.3830  -19.5506   21.5636 C   0  0  0  0  0  0  0  0  0  0  0  0
   11.3777  -17.7796   23.0363 C   0  0  2  0  0  0  0  0  0  0  0  0
   10.9756  -17.0145   21.8905 N   0  0  0  0  0  0  0  0  0  0  0  0
   11.6319  -16.9978   24.2537 C   0  0  0  0  0  0  0  0  0  0  0  0
   11.3547  -17.4342   25.5352 O   0  0  0  0  0  0  0  0  0  0  0  0
   12.1389  -15.8386   24.1720 O   0  0  0  0  0  0  0  0  0  0  0  0
  2  1  1  1
  2  4  1  0
  3  2  1  0
  4  5  2  0
  4  6  1  0
  6  7  1  0
  7 14  1  0
  7  8  1  1
  9  8  1  0
 10  9  2  0
 11 10  1  0
 12 11  1  0
 12 13  2  0
 13  9  1  0
 14 20  1  0
 14 15  2  0
 17 18  1  6
 17 16  1  0
 19 21  1  0
 19 17  1  0
 19 20  1  6
 21 22  1  0
 23 21  2  0
M  END
$$$$
