AHV.pdb
     RDKit          3D

 23 23  0  0  1  0  0  0  0  0999 V2000
    9.4909  -19.0438   18.6560 C   0  0  0  0  0  0  0  0  0  0  0  0
    9.2249  -18.6904   20.0838 C   0  0  2  0  0  0  0  0  0  0  0  0
    7.9516  -19.1267   20.5702 N   0  0  0  0  0  0  0  0  0  0  0  0
    9.4442  -17.2216   20.2850 C   0  0  0  0  0  0  0  0  0  0  0  0
   10.6074  -16.8044   20.0526 O   0  0  0  0  0  0  0  0  0  0  0  0
    8.4061  -16.3653   20.7089 N   0  0  0  0  0  0  0  0  0  0  0  0
    8.6296  -14.9298   20.9792 C   0  0  1  0  0  0  0  0  0  0  0  0
    7.6558  -14.1231   20.2022 C   0  0  0  0  0  0  0  0  0  0  0  0
    7.8665  -14.0190   18.7518 C   0  0  0  0  0  0  0  0  0  0  0  0
    8.9473  -14.4787   17.9900 C   0  0  0  0  0  0  0  0  0  0  0  0
    8.7861  -14.1554   16.6966 N   0  0  0  0  0  0  0  0  0  0  0  0
    7.6197  -13.4931   16.6013 C   0  0  0  0  0  0  0  0  0  0  0  0
    7.0685  -13.4096   17.8240 N   0  0  0  0  0  0  0  0  0  0  0  0
    8.6187  -14.7826   22.4390 C   0  0  0  0  0  0  0  0  0  0  0  0
    7.7964  -13.9730   22.9952 O   0  0  0  0  0  0  0  0  0  0  0  0
    6.9179  -14.6065   24.5145 C   0  0  0  0  0  0  0  0  0  0  0  0
    7.8304  -15.5818   25.1850 C   0  0  1  0  0  0  0  0  0  0  0  0
    7.3226  -16.9681   24.9850 C   0  0  0  0  0  0  0  0  0  0  0  0
    9.2830  -15.4087   24.7823 C   0  0  2  0  0  0  0  0  0  0  0  0
    9.4601  -15.4796   23.3598 N   0  0  0  0  0  0  0  0  0  0  0  0
   10.1198  -16.3286   25.5643 C   0  0  0  0  0  0  0  0  0  0  0  0
   10.2255  -16.3099   26.9419 O   0  0  0  0  0  0  0  0  0  0  0  0
   10.8096  -17.2165   24.9782 O   0  0  0  0  0  0  0  0  0  0  0  0
  2  1  1  6
  2  4  1  0
  3  2  1  0
  4  5  2  0
  4  6  1  0
  6  7  1  0
  7 14  1  0
  7  8  1  6
  9  8  1  0
 10  9  2  0
 11 10  1  0
 12 11  1  0
 12 13  2  0
 13  9  1  0
 14 20  1  0
 14 15  2  0
 17 18  1  6
 17 16  1  0
 19 21  1  0
 19 17  1  0
 19 20  1  6
 21 22  1  0
 23 21  2  0
M  END
$$$$
