AHV.pdb
     RDKit          3D

 23 23  0  0  1  0  0  0  0  0999 V2000
    8.2342  -12.1615   19.7315 C   0  0  0  0  0  0  0  0  0  0  0  0
    8.4955  -13.6162   19.5080 C   0  0  2  0  0  0  0  0  0  0  0  0
    7.9300  -14.1364   18.3006 N   0  0  0  0  0  0  0  0  0  0  0  0
    8.0761  -14.3920   20.7197 C   0  0  0  0  0  0  0  0  0  0  0  0
    6.8458  -14.6322   20.8175 O   0  0  0  0  0  0  0  0  0  0  0  0
    9.0084  -14.8232   21.6868 N   0  0  0  0  0  0  0  0  0  0  0  0
    8.6101  -15.6238   22.8632 C   0  0  1  0  0  0  0  0  0  0  0  0
    9.2982  -16.9383   22.8224 C   0  0  0  0  0  0  0  0  0  0  0  0
    8.7644  -17.9544   21.9051 C   0  0  0  0  0  0  0  0  0  0  0  0
    7.6513  -17.8713   21.0601 C   0  0  0  0  0  0  0  0  0  0  0  0
    7.4666  -19.0294   20.4057 N   0  0  0  0  0  0  0  0  0  0  0  0
    8.4390  -19.8661   20.8088 C   0  0  0  0  0  0  0  0  0  0  0  0
    9.2146  -19.2292   21.7024 N   0  0  0  0  0  0  0  0  0  0  0  0
    8.8451  -14.7726   24.0350 C   0  0  0  0  0  0  0  0  0  0  0  0
    9.9946  -14.2377   24.2181 O   0  0  0  0  0  0  0  0  0  0  0  0
    6.9491  -11.6680   25.5098 C   0  0  0  0  0  0  0  0  0  0  0  0
    7.1587  -12.6881   26.5816 C   0  0  1  0  0  0  0  0  0  0  0  0
    5.8536  -13.2998   26.9587 C   0  0  0  0  0  0  0  0  0  0  0  0
    8.2228  -13.7104   26.2278 C   0  0  2  0  0  0  0  0  0  0  0  0
    7.8871  -14.4505   25.0449 N   0  0  0  0  0  0  0  0  0  0  0  0
    8.5297  -14.5255   27.4107 C   0  0  0  0  0  0  0  0  0  0  0  0
    9.0815  -14.0329   28.5779 O   0  0  0  0  0  0  0  0  0  0  0  0
    8.2893  -15.7704   27.4063 O   0  0  0  0  0  0  0  0  0  0  0  0
  2  1  1  1
  2  4  1  0
  3  2  1  0
  4  5  2  0
  4  6  1  0
  6  7  1  0
  7 14  1  0
  7  8  1  1
  9  8  1  0
 10  9  2  0
 11 10  1  0
 12 11  1  0
 12 13  2  0
 13  9  1  0
 14 20  1  0
 14 15  2  0
 17 18  1  6
 17 16  1  0
 19 21  1  0
 19 17  1  0
 19 20  1  6
 21 22  1  0
 23 21  2  0
M  END
$$$$
