AHV.pdb
     RDKit          3D

 23 23  0  0  1  0  0  0  0  0999 V2000
    8.4895  -12.1118   19.6765 C   0  0  0  0  0  0  0  0  0  0  0  0
    8.5019  -13.5909   19.4613 C   0  0  2  0  0  0  0  0  0  0  0  0
    7.7214  -14.0292   18.3445 N   0  0  0  0  0  0  0  0  0  0  0  0
    8.1234  -14.2851   20.7344 C   0  0  0  0  0  0  0  0  0  0  0  0
    6.8920  -14.4639   20.9157 O   0  0  0  0  0  0  0  0  0  0  0  0
    9.0929  -14.7092   21.6676 N   0  0  0  0  0  0  0  0  0  0  0  0
    8.7560  -15.5797   22.8132 C   0  0  1  0  0  0  0  0  0  0  0  0
    9.5499  -16.8312   22.7330 C   0  0  0  0  0  0  0  0  0  0  0  0
    9.2050  -17.7856   21.6704 C   0  0  0  0  0  0  0  0  0  0  0  0
    8.1912  -17.6952   20.7092 C   0  0  0  0  0  0  0  0  0  0  0  0
    8.1736  -18.7927   19.9355 N   0  0  0  0  0  0  0  0  0  0  0  0
    9.1575  -19.5971   20.3749 C   0  0  0  0  0  0  0  0  0  0  0  0
    9.7747  -19.0005   21.4088 N   0  0  0  0  0  0  0  0  0  0  0  0
    8.9149  -14.7529   24.0149 C   0  0  0  0  0  0  0  0  0  0  0  0
   10.0252  -14.1543   24.2385 O   0  0  0  0  0  0  0  0  0  0  0  0
    6.8857  -11.7849   25.5444 C   0  0  0  0  0  0  0  0  0  0  0  0
    7.0848  -12.8392   26.5847 C   0  0  1  0  0  0  0  0  0  0  0  0
    5.7847  -13.5004   26.8887 C   0  0  0  0  0  0  0  0  0  0  0  0
    8.1902  -13.8176   26.2339 C   0  0  2  0  0  0  0  0  0  0  0  0
    7.9192  -14.5221   25.0133 N   0  0  0  0  0  0  0  0  0  0  0  0
    8.4779  -14.6674   27.3971 C   0  0  0  0  0  0  0  0  0  0  0  0
    8.9739  -14.2037   28.6006 O   0  0  0  0  0  0  0  0  0  0  0  0
    8.2729  -15.9173   27.3390 O   0  0  0  0  0  0  0  0  0  0  0  0
  2  1  1  1
  2  4  1  0
  3  2  1  0
  4  5  2  0
  4  6  1  0
  6  7  1  0
  7 14  1  0
  7  8  1  1
  9  8  1  0
 10  9  2  0
 11 10  1  0
 12 11  1  0
 12 13  2  0
 13  9  1  0
 14 20  1  0
 14 15  2  0
 17 18  1  6
 17 16  1  0
 19 21  1  0
 19 17  1  0
 19 20  1  6
 21 22  1  0
 23 21  2  0
M  END
$$$$
