AHV.pdb
     RDKit          3D

 23 23  0  0  1  0  0  0  0  0999 V2000
    8.9229  -12.5232   19.3885 C   0  0  0  0  0  0  0  0  0  0  0  0
    8.5553  -13.9604   19.2056 C   0  0  2  0  0  0  0  0  0  0  0  0
    7.8161  -14.2308   18.0103 N   0  0  0  0  0  0  0  0  0  0  0  0
    7.8605  -14.4598   20.4360 C   0  0  0  0  0  0  0  0  0  0  0  0
    6.6037  -14.4451   20.3995 O   0  0  0  0  0  0  0  0  0  0  0  0
    8.5774  -14.9166   21.5620 N   0  0  0  0  0  0  0  0  0  0  0  0
    7.9155  -15.5961   22.6950 C   0  0  1  0  0  0  0  0  0  0  0  0
    8.2862  -17.0333   22.6942 C   0  0  0  0  0  0  0  0  0  0  0  0
    7.8211  -17.8537   23.8210 C   0  0  0  0  0  0  0  0  0  0  0  0
    7.1160  -17.4529   24.9620 C   0  0  0  0  0  0  0  0  0  0  0  0
    6.9089  -18.4968   25.7812 N   0  0  0  0  0  0  0  0  0  0  0  0
    7.4662  -19.5709   25.1949 C   0  0  0  0  0  0  0  0  0  0  0  0
    8.0110  -19.1919   24.0264 N   0  0  0  0  0  0  0  0  0  0  0  0
    8.2458  -14.8124   23.8907 C   0  0  0  0  0  0  0  0  0  0  0  0
    9.4564  -14.4540   24.1075 O   0  0  0  0  0  0  0  0  0  0  0  0
    7.0653  -11.8282   27.6680 C   0  0  0  0  0  0  0  0  0  0  0  0
    6.6222  -12.7216   26.5549 C   0  0  1  0  0  0  0  0  0  0  0  0
    5.9858  -11.9104   25.4794 C   0  0  0  0  0  0  0  0  0  0  0  0
    7.7260  -13.6317   26.0493 C   0  0  2  0  0  0  0  0  0  0  0  0
    7.3228  -14.3753   24.8899 N   0  0  0  0  0  0  0  0  0  0  0  0
    8.2422  -14.4388   27.1629 C   0  0  0  0  0  0  0  0  0  0  0  0
    9.1949  -14.0069   28.0658 O   0  0  0  0  0  0  0  0  0  0  0  0
    7.8139  -15.6179   27.3470 O   0  0  0  0  0  0  0  0  0  0  0  0
  2  1  1  1
  2  4  1  0
  3  2  1  0
  4  5  2  0
  4  6  1  0
  6  7  1  0
  7 14  1  0
  7  8  1  1
  9  8  1  0
 10  9  2  0
 11 10  1  0
 12 11  1  0
 12 13  2  0
 13  9  1  0
 14 20  1  0
 14 15  2  0
 17 18  1  6
 17 16  1  0
 19 21  1  0
 19 17  1  0
 19 20  1  6
 21 22  1  0
 23 21  2  0
M  END
$$$$
