FRP.pdb
     RDKit          3D

 30 31  0  0  1  0  0  0  0  0999 V2000
    5.5853  -17.4921   25.7321 N   0  0  0  0  0  0  0  0  0  0  0  0
    6.3612  -16.3169   25.4854 C   0  0  1  0  0  0  0  0  0  0  0  0
    7.1796  -15.8760   26.6512 C   0  0  0  0  0  0  0  0  0  0  0  0
    7.1155  -14.3711   26.6830 C   0  0  0  0  0  0  0  0  0  0  0  0
    8.2580  -13.6287   26.6651 C   0  0  0  0  0  0  0  0  0  0  0  0
    8.1574  -12.2424   26.6952 C   0  0  0  0  0  0  0  0  0  0  0  0
    6.9211  -11.6387   26.7423 C   0  0  0  0  0  0  0  0  0  0  0  0
    5.7796  -12.4224   26.7594 C   0  0  0  0  0  0  0  0  0  0  0  0
    5.8627  -13.8025   26.7299 C   0  0  0  0  0  0  0  0  0  0  0  0
    7.2768  -16.4921   24.3099 C   0  0  0  0  0  0  0  0  0  0  0  0
    7.7867  -17.6106   24.0515 O   0  0  0  0  0  0  0  0  0  0  0  0
    9.1744  -15.1580   16.0778 N   0  0  0  0  0  0  0  0  0  0  0  0
    8.3892  -14.0882   16.5594 C   0  0  0  0  0  0  0  0  0  0  0  0
    8.1751  -12.9905   15.9064 N   0  0  0  0  0  0  0  0  0  0  0  0
    7.7872  -14.1994   17.8342 N   0  0  0  0  0  0  0  0  0  0  0  0
    8.4797  -14.1611   19.0744 C   0  0  0  0  0  0  0  0  0  0  0  0
    7.5890  -14.2074   20.2971 C   0  0  0  0  0  0  0  0  0  0  0  0
    8.4478  -14.2116   21.5416 C   0  0  0  0  0  0  0  0  0  0  0  0
    8.4086  -15.4987   22.3083 C   0  0  2  0  0  0  0  0  0  0  0  0
    7.5592  -15.3685   23.4923 N   0  0  0  0  0  0  0  0  0  0  0  0
    9.8245  -15.7544   22.7565 C   0  0  0  0  0  0  0  0  0  0  0  0
   10.2412  -15.0112   23.6942 O   0  0  0  0  0  0  0  0  0  0  0  0
    7.6718  -12.2343   16.4549 N   0  0  0  0  0  0  0  0  0  0  0  0
   10.6401  -16.7460   22.1855 C   0  0  0  0  0  0  0  0  0  0  0  0
   10.3606  -17.6621   21.1120 C   0  0  0  0  0  0  0  0  0  0  0  0
   11.1401  -18.9246   21.5271 C   0  0  0  0  0  0  0  0  0  0  0  0
   12.4382  -18.2935   21.9746 C   0  0  2  0  0  0  0  0  0  0  0  0
   12.0003  -17.0283   22.6396 C   0  0  0  0  0  0  0  0  0  0  0  0
   12.8951  -15.8748   22.3577 O   0  0  0  0  0  0  0  0  0  0  0  0
   13.9358  -15.5896   23.2071 O   0  0  0  0  0  0  0  0  0  0  0  0
  2 10  1  0
  2  1  1  1
  3  4  1  0
  3  2  1  0
  4  9  2  0
  5  6  2  0
  5  4  1  0
  6  7  1  0
  7  8  2  0
  9  8  1  0
 10 20  1  0
 11 10  2  0
 13 15  1  0
 13 12  1  0
 14 13  2  0
 16 17  1  0
 16 15  1  0
 17 18  1  0
 19 18  1  1
 19 21  1  0
 20 19  1  0
 21 22  2  0
 21 23  1  0
 23 27  1  0
 24 23  1  0
 25 26  1  0
 25 24  1  0
 26 27  1  0
 27 28  1  6
 28 30  2  0
 28 29  1  0
M  END
$$$$
