FRP.pdb
     RDKit          3D

 30 31  0  0  1  0  0  0  0  0999 V2000
    6.1201  -17.5694   26.0518 N   0  0  0  0  0  0  0  0  0  0  0  0
    6.6615  -16.3212   25.6124 C   0  0  1  0  0  0  0  0  0  0  0  0
    7.5443  -15.6579   26.6143 C   0  0  0  0  0  0  0  0  0  0  0  0
    7.1391  -14.2075   26.6581 C   0  0  0  0  0  0  0  0  0  0  0  0
    5.8311  -13.8583   26.8130 C   0  0  0  0  0  0  0  0  0  0  0  0
    5.4970  -12.5091   26.8489 C   0  0  0  0  0  0  0  0  0  0  0  0
    6.4769  -11.5497   26.7294 C   0  0  0  0  0  0  0  0  0  0  0  0
    7.7968  -11.9385   26.5732 C   0  0  0  0  0  0  0  0  0  0  0  0
    8.1454  -13.2762   26.5355 C   0  0  0  0  0  0  0  0  0  0  0  0
    7.4325  -16.4692   24.3340 C   0  0  0  0  0  0  0  0  0  0  0  0
    8.0711  -17.5218   24.0848 O   0  0  0  0  0  0  0  0  0  0  0  0
    7.0331  -14.7088   16.9966 N   0  0  0  0  0  0  0  0  0  0  0  0
    8.2139  -13.9582   16.8089 C   0  0  0  0  0  0  0  0  0  0  0  0
    8.9792  -14.0529   15.7684 N   0  0  0  0  0  0  0  0  0  0  0  0
    8.6066  -13.0371   17.8075 N   0  0  0  0  0  0  0  0  0  0  0  0
    8.1791  -13.0644   19.1624 C   0  0  0  0  0  0  0  0  0  0  0  0
    8.3821  -14.3907   19.8625 C   0  0  0  0  0  0  0  0  0  0  0  0
    7.8561  -14.2953   21.2768 C   0  0  0  0  0  0  0  0  0  0  0  0
    7.9885  -15.5623   22.0662 C   0  0  2  0  0  0  0  0  0  0  0  0
    7.4294  -15.3955   23.4078 N   0  0  0  0  0  0  0  0  0  0  0  0
    9.4686  -15.8182   22.1891 C   0  0  0  0  0  0  0  0  0  0  0  0
   10.0768  -15.0987   23.0361 O   0  0  0  0  0  0  0  0  0  0  0  0
    9.8417  -13.4351   15.7895 N   0  0  0  0  0  0  0  0  0  0  0  0
   10.1433  -16.7857   21.4254 C   0  0  0  0  0  0  0  0  0  0  0  0
    9.6690  -17.5890   20.3303 C   0  0  0  0  0  0  0  0  0  0  0  0
   10.4320  -18.9138   20.5214 C   0  0  0  0  0  0  0  0  0  0  0  0
   11.8110  -18.3779   20.8287 C   0  0  2  0  0  0  0  0  0  0  0  0
   11.5372  -17.1617   21.6536 C   0  0  0  0  0  0  0  0  0  0  0  0
   12.4427  -16.0239   21.3437 O   0  0  0  0  0  0  0  0  0  0  0  0
   13.7420  -16.0399   21.7877 O   0  0  0  0  0  0  0  0  0  0  0  0
  2 10  1  0
  2  1  1  1
  3  4  1  0
  3  2  1  0
  4  9  2  0
  5  6  2  0
  5  4  1  0
  6  7  1  0
  7  8  2  0
  9  8  1  0
 10 20  1  0
 11 10  2  0
 13 15  1  0
 13 12  1  0
 14 13  2  0
 16 17  1  0
 16 15  1  0
 17 18  1  0
 19 18  1  6
 19 21  1  0
 20 19  1  0
 21 22  2  0
 21 23  1  0
 23 27  1  0
 24 23  1  0
 25 26  1  0
 25 24  1  0
 26 27  1  0
 27 28  1  6
 28 30  2  0
 28 29  1  0
M  END
$$$$
