FRP.pdb
     RDKit          3D

 30 31  0  0  1  0  0  0  0  0999 V2000
    5.6735  -17.7859   26.0606 N   0  0  0  0  0  0  0  0  0  0  0  0
    6.4066  -16.5871   25.7965 C   0  0  1  0  0  0  0  0  0  0  0  0
    7.1018  -16.0271   26.9907 C   0  0  0  0  0  0  0  0  0  0  0  0
    7.0509  -14.5271   26.8596 C   0  0  0  0  0  0  0  0  0  0  0  0
    8.2002  -13.7962   26.8172 C   0  0  0  0  0  0  0  0  0  0  0  0
    8.1118  -12.4141   26.6953 C   0  0  0  0  0  0  0  0  0  0  0  0
    6.8807  -11.8030   26.6194 C   0  0  0  0  0  0  0  0  0  0  0  0
    5.7319  -12.5750   26.6655 C   0  0  0  0  0  0  0  0  0  0  0  0
    5.8030  -13.9508   26.7865 C   0  0  0  0  0  0  0  0  0  0  0  0
    7.4244  -16.7857   24.7123 C   0  0  0  0  0  0  0  0  0  0  0  0
    7.9816  -17.8994   24.5478 O   0  0  0  0  0  0  0  0  0  0  0  0
    7.8231  -12.2431   16.9951 N   0  0  0  0  0  0  0  0  0  0  0  0
    7.7107  -13.6497   16.9557 C   0  0  0  0  0  0  0  0  0  0  0  0
    7.8218  -14.3592   15.8780 N   0  0  0  0  0  0  0  0  0  0  0  0
    7.4610  -14.3513   18.1579 N   0  0  0  0  0  0  0  0  0  0  0  0
    8.1369  -14.1354   19.3891 C   0  0  0  0  0  0  0  0  0  0  0  0
    7.6134  -14.9540   20.5493 C   0  0  0  0  0  0  0  0  0  0  0  0
    8.4718  -14.7003   21.7679 C   0  0  0  0  0  0  0  0  0  0  0  0
    8.5891  -15.8760   22.6898 C   0  0  2  0  0  0  0  0  0  0  0  0
    7.7493  -15.6898   23.8733 N   0  0  0  0  0  0  0  0  0  0  0  0
   10.0317  -15.9168   23.1240 C   0  0  0  0  0  0  0  0  0  0  0  0
   10.3850  -15.0010   23.9251 O   0  0  0  0  0  0  0  0  0  0  0  0
    7.9087  -15.4047   16.0374 N   0  0  0  0  0  0  0  0  0  0  0  0
   10.9360  -16.8970   22.6814 C   0  0  0  0  0  0  0  0  0  0  0  0
   10.7202  -18.0236   21.8132 C   0  0  0  0  0  0  0  0  0  0  0  0
   11.6738  -19.0879   22.3893 C   0  0  0  0  0  0  0  0  0  0  0  0
   12.9026  -18.2390   22.6194 C   0  0  2  0  0  0  0  0  0  0  0  0
   12.3426  -16.9308   23.0772 C   0  0  0  0  0  0  0  0  0  0  0  0
   13.0682  -15.7551   22.5279 O   0  0  0  0  0  0  0  0  0  0  0  0
   14.2787  -15.3851   23.0605 O   0  0  0  0  0  0  0  0  0  0  0  0
  2 10  1  0
  2  1  1  1
  3  4  1  0
  3  2  1  0
  4  9  2  0
  5  6  2  0
  5  4  1  0
  6  7  1  0
  7  8  2  0
  9  8  1  0
 10 20  1  0
 11 10  2  0
 13 15  1  0
 13 12  1  0
 14 13  2  0
 16 17  1  0
 16 15  1  0
 17 18  1  0
 19 18  1  6
 19 21  1  0
 20 19  1  0
 21 22  2  0
 21 23  1  0
 23 27  1  0
 24 23  1  0
 25 26  1  0
 25 24  1  0
 26 27  1  0
 27 28  1  6
 28 30  2  0
 28 29  1  0
M  END
$$$$
