FRP.pdb
     RDKit          3D

 30 31  0  0  1  0  0  0  0  0999 V2000
    5.9397  -15.5077   20.2124 N   0  0  0  0  0  0  0  0  0  0  0  0
    7.0643  -15.2822   21.0661 C   0  0  1  0  0  0  0  0  0  0  0  0
    7.7103  -13.9517   20.8774 C   0  0  0  0  0  0  0  0  0  0  0  0
    8.2670  -13.9334   19.4775 C   0  0  0  0  0  0  0  0  0  0  0  0
    9.2309  -14.8212   19.1040 C   0  0  0  0  0  0  0  0  0  0  0  0
    9.7191  -14.7729   17.8031 C   0  0  0  0  0  0  0  0  0  0  0  0
    9.2316  -13.8413   16.9146 C   0  0  0  0  0  0  0  0  0  0  0  0
    8.2520  -12.9534   17.3264 C   0  0  0  0  0  0  0  0  0  0  0  0
    7.7559  -12.9885   18.6168 C   0  0  0  0  0  0  0  0  0  0  0  0
    6.6999  -15.4248   22.5144 C   0  0  0  0  0  0  0  0  0  0  0  0
    5.7768  -14.7373   23.0173 O   0  0  0  0  0  0  0  0  0  0  0  0
    8.6643  -20.8874   26.3483 N   0  0  0  0  0  0  0  0  0  0  0  0
    8.1988  -20.8095   27.6788 C   0  0  0  0  0  0  0  0  0  0  0  0
    8.7576  -21.4084   28.6819 N   0  0  0  0  0  0  0  0  0  0  0  0
    7.0503  -20.0333   27.9587 N   0  0  0  0  0  0  0  0  0  0  0  0
    6.5190  -19.0208   27.1152 C   0  0  0  0  0  0  0  0  0  0  0  0
    7.4841  -17.9029   26.7847 C   0  0  0  0  0  0  0  0  0  0  0  0
    7.5996  -17.7696   25.2830 C   0  0  0  0  0  0  0  0  0  0  0  0
    7.2039  -16.4238   24.7555 C   0  0  2  0  0  0  0  0  0  0  0  0
    7.4193  -16.3521   23.3101 N   0  0  0  0  0  0  0  0  0  0  0  0
    8.1179  -15.4326   25.4288 C   0  0  0  0  0  0  0  0  0  0  0  0
    9.3560  -15.6089   25.2259 O   0  0  0  0  0  0  0  0  0  0  0  0
    8.3043  -21.2226   29.6232 N   0  0  0  0  0  0  0  0  0  0  0  0
    7.6459  -14.3782   26.2289 C   0  0  0  0  0  0  0  0  0  0  0  0
    6.2968  -13.9487   26.4835 C   0  0  0  0  0  0  0  0  0  0  0  0
    6.4435  -12.4210   26.6201 C   0  0  0  0  0  0  0  0  0  0  0  0
    7.6812  -12.3547   27.4845 C   0  0  2  0  0  0  0  0  0  0  0  0
    8.5245  -13.4784   26.9737 C   0  0  0  0  0  0  0  0  0  0  0  0
    9.2370  -14.2163   28.0500 O   0  0  0  0  0  0  0  0  0  0  0  0
   10.3169  -13.6439   28.6759 O   0  0  0  0  0  0  0  0  0  0  0  0
  2 10  1  0
  2  1  1  6
  3  4  1  0
  3  2  1  0
  4  9  2  0
  5  6  2  0
  5  4  1  0
  6  7  1  0
  7  8  2  0
  9  8  1  0
 10 20  1  0
 11 10  2  0
 13 15  1  0
 13 12  1  0
 14 13  2  0
 16 17  1  0
 16 15  1  0
 17 18  1  0
 19 18  1  1
 19 21  1  0
 20 19  1  0
 21 22  2  0
 21 23  1  0
 23 27  1  0
 24 23  1  0
 25 26  1  0
 25 24  1  0
 26 27  1  0
 27 28  1  1
 28 30  2  0
 28 29  1  0
M  END
$$$$
