FRP.pdb
     RDKit          3D

 30 31  0  0  1  0  0  0  0  0999 V2000
    6.8113  -16.7986   20.0034 N   0  0  0  0  0  0  0  0  0  0  0  0
    7.0665  -15.6038   20.7461 C   0  0  1  0  0  0  0  0  0  0  0  0
    6.4155  -14.3881   20.1793 C   0  0  0  0  0  0  0  0  0  0  0  0
    7.4840  -13.6295   19.4357 C   0  0  0  0  0  0  0  0  0  0  0  0
    7.6285  -13.7779   18.0889 C   0  0  0  0  0  0  0  0  0  0  0  0
    8.6261  -13.0604   17.4385 C   0  0  0  0  0  0  0  0  0  0  0  0
    9.4489  -12.2171   18.1506 C   0  0  0  0  0  0  0  0  0  0  0  0
    9.2753  -12.0893   19.5185 C   0  0  0  0  0  0  0  0  0  0  0  0
    8.2877  -12.7960   20.1801 C   0  0  0  0  0  0  0  0  0  0  0  0
    6.6409  -15.7384   22.1785 C   0  0  0  0  0  0  0  0  0  0  0  0
    5.5247  -15.3087   22.5621 O   0  0  0  0  0  0  0  0  0  0  0  0
    7.8464  -22.1460   27.8882 N   0  0  0  0  0  0  0  0  0  0  0  0
    7.8066  -21.0096   28.7247 C   0  0  0  0  0  0  0  0  0  0  0  0
    8.0355  -21.0351   29.9991 N   0  0  0  0  0  0  0  0  0  0  0  0
    7.4995  -19.7512   28.1572 N   0  0  0  0  0  0  0  0  0  0  0  0
    7.1074  -19.5332   26.8089 C   0  0  0  0  0  0  0  0  0  0  0  0
    6.9087  -18.0800   26.4358 C   0  0  0  0  0  0  0  0  0  0  0  0
    7.2830  -17.8807   24.9844 C   0  0  0  0  0  0  0  0  0  0  0  0
    7.1812  -16.4611   24.5152 C   0  0  2  0  0  0  0  0  0  0  0  0
    7.5245  -16.3604   23.0965 N   0  0  0  0  0  0  0  0  0  0  0  0
    8.2001  -15.6893   25.3136 C   0  0  0  0  0  0  0  0  0  0  0  0
    9.4045  -16.0464   25.1492 O   0  0  0  0  0  0  0  0  0  0  0  0
    7.9884  -20.0910   30.4814 N   0  0  0  0  0  0  0  0  0  0  0  0
    7.8552  -14.6416   26.1842 C   0  0  0  0  0  0  0  0  0  0  0  0
    6.5708  -14.0505   26.4498 C   0  0  0  0  0  0  0  0  0  0  0  0
    6.9203  -12.5717   26.7046 C   0  0  0  0  0  0  0  0  0  0  0  0
    8.1326  -12.7397   27.5907 C   0  0  2  0  0  0  0  0  0  0  0  0
    8.8283  -13.9282   27.0091 C   0  0  0  0  0  0  0  0  0  0  0  0
    9.4057  -14.8340   28.0370 O   0  0  0  0  0  0  0  0  0  0  0  0
   10.4873  -14.4286   28.7797 O   0  0  0  0  0  0  0  0  0  0  0  0
  2 10  1  0
  2  1  1  6
  3  4  1  0
  3  2  1  0
  4  9  2  0
  5  6  2  0
  5  4  1  0
  6  7  1  0
  7  8  2  0
  9  8  1  0
 10 20  1  0
 11 10  2  0
 13 15  1  0
 13 12  1  0
 14 13  2  0
 16 17  1  0
 16 15  1  0
 17 18  1  0
 19 18  1  1
 19 21  1  0
 20 19  1  0
 21 22  2  0
 21 23  1  0
 23 27  1  0
 24 23  1  0
 25 26  1  0
 25 24  1  0
 26 27  1  0
 27 28  1  1
 28 30  2  0
 28 29  1  0
M  END
$$$$
