FRP.pdb
     RDKit          3D

 30 31  0  0  1  0  0  0  0  0999 V2000
    5.3194  -17.2513   24.6587 N   0  0  0  0  0  0  0  0  0  0  0  0
    6.4183  -16.3753   24.9219 C   0  0  1  0  0  0  0  0  0  0  0  0
    6.5837  -16.0275   26.3624 C   0  0  0  0  0  0  0  0  0  0  0  0
    7.0912  -14.6098   26.4117 C   0  0  0  0  0  0  0  0  0  0  0  0
    6.2681  -13.5684   26.1035 C   0  0  0  0  0  0  0  0  0  0  0  0
    6.7735  -12.2745   26.1611 C   0  0  0  0  0  0  0  0  0  0  0  0
    8.0837  -12.0583   26.5241 C   0  0  0  0  0  0  0  0  0  0  0  0
    8.8936  -13.1389   26.8311 C   0  0  0  0  0  0  0  0  0  0  0  0
    8.4059  -14.4319   26.7786 C   0  0  0  0  0  0  0  0  0  0  0  0
    7.7144  -16.9452   24.4259 C   0  0  0  0  0  0  0  0  0  0  0  0
    8.1556  -18.0310   24.8775 O   0  0  0  0  0  0  0  0  0  0  0  0
    7.6643  -12.2431   19.6667 N   0  0  0  0  0  0  0  0  0  0  0  0
    7.4457  -13.2648   18.7174 C   0  0  0  0  0  0  0  0  0  0  0  0
    6.5498  -13.2115   17.7837 N   0  0  0  0  0  0  0  0  0  0  0  0
    8.2441  -14.4308   18.7692 N   0  0  0  0  0  0  0  0  0  0  0  0
    9.3067  -14.6573   19.6850 C   0  0  0  0  0  0  0  0  0  0  0  0
    8.8805  -15.2370   21.0165 C   0  0  0  0  0  0  0  0  0  0  0  0
    9.9970  -16.0937   21.5693 C   0  0  0  0  0  0  0  0  0  0  0  0
    9.6552  -16.7938   22.8495 C   0  0  2  0  0  0  0  0  0  0  0  0
    8.4371  -16.2335   23.4350 N   0  0  0  0  0  0  0  0  0  0  0  0
   10.8064  -16.5272   23.7848 C   0  0  0  0  0  0  0  0  0  0  0  0
   10.8734  -15.3479   24.2431 O   0  0  0  0  0  0  0  0  0  0  0  0
    6.4961  -14.0722   17.1654 N   0  0  0  0  0  0  0  0  0  0  0  0
   11.7490  -17.5082   24.1364 C   0  0  0  0  0  0  0  0  0  0  0  0
   11.7562  -18.9195   23.8579 C   0  0  0  0  0  0  0  0  0  0  0  0
   12.4203  -19.5136   25.1148 C   0  0  0  0  0  0  0  0  0  0  0  0
   13.5587  -18.5362   25.2943 C   0  0  2  0  0  0  0  0  0  0  0  0
   12.9555  -17.2233   24.9107 C   0  0  0  0  0  0  0  0  0  0  0  0
   13.8803  -16.3543   24.1361 O   0  0  0  0  0  0  0  0  0  0  0  0
   14.9670  -15.7856   24.7537 O   0  0  0  0  0  0  0  0  0  0  0  0
  2 10  1  0
  2  1  1  1
  3  4  1  0
  3  2  1  0
  4  9  2  0
  5  6  2  0
  5  4  1  0
  6  7  1  0
  7  8  2  0
  9  8  1  0
 10 20  1  0
 11 10  2  0
 13 15  1  0
 13 12  1  0
 14 13  2  0
 16 17  1  0
 16 15  1  0
 17 18  1  0
 19 18  1  6
 19 21  1  0
 20 19  1  0
 21 22  2  0
 21 23  1  0
 23 27  1  0
 24 23  1  0
 25 26  1  0
 25 24  1  0
 26 27  1  0
 27 28  1  6
 28 30  2  0
 28 29  1  0
M  END
$$$$
