FRP.pdb
     RDKit          3D

 30 31  0  0  1  0  0  0  0  0999 V2000
    8.6907  -15.5873   21.0740 N   0  0  0  0  0  0  0  0  0  0  0  0
    8.0610  -14.5580   21.8409 C   0  0  1  0  0  0  0  0  0  0  0  0
    6.8603  -13.9639   21.1862 C   0  0  0  0  0  0  0  0  0  0  0  0
    7.3145  -13.4211   19.8561 C   0  0  0  0  0  0  0  0  0  0  0  0
    7.0869  -14.1200   18.7087 C   0  0  0  0  0  0  0  0  0  0  0  0
    7.5210  -13.5855   17.5008 C   0  0  0  0  0  0  0  0  0  0  0  0
    8.1684  -12.3710   17.4738 C   0  0  0  0  0  0  0  0  0  0  0  0
    8.3839  -11.6864   18.6581 C   0  0  0  0  0  0  0  0  0  0  0  0
    7.9583  -12.2044   19.8676 C   0  0  0  0  0  0  0  0  0  0  0  0
    7.6593  -15.0458   23.2016 C   0  0  0  0  0  0  0  0  0  0  0  0
    6.9219  -14.3505   23.9436 O   0  0  0  0  0  0  0  0  0  0  0  0
    6.1098  -21.4800   28.7911 N   0  0  0  0  0  0  0  0  0  0  0  0
    7.4997  -21.2539   28.6905 C   0  0  0  0  0  0  0  0  0  0  0  0
    8.3149  -21.2709   29.6966 N   0  0  0  0  0  0  0  0  0  0  0  0
    8.0609  -20.9902   27.4195 N   0  0  0  0  0  0  0  0  0  0  0  0
    7.3987  -20.3256   26.3523 C   0  0  0  0  0  0  0  0  0  0  0  0
    7.4465  -18.8146   26.4223 C   0  0  0  0  0  0  0  0  0  0  0  0
    7.7368  -18.2591   25.0463 C   0  0  0  0  0  0  0  0  0  0  0  0
    7.8841  -16.7683   25.0063 C   0  0  2  0  0  0  0  0  0  0  0  0
    8.1292  -16.3102   23.6386 N   0  0  0  0  0  0  0  0  0  0  0  0
    9.0954  -16.4515   25.8451 C   0  0  0  0  0  0  0  0  0  0  0  0
   10.1558  -17.0661   25.5239 O   0  0  0  0  0  0  0  0  0  0  0  0
    9.3192  -21.0200   29.4632 N   0  0  0  0  0  0  0  0  0  0  0  0
    9.0685  -15.5385   26.9130 C   0  0  0  0  0  0  0  0  0  0  0  0
    7.9783  -14.7507   27.4233 C   0  0  0  0  0  0  0  0  0  0  0  0
    8.6758  -13.4545   27.8783 C   0  0  0  0  0  0  0  0  0  0  0  0
    9.8828  -14.0390   28.5745 C   0  0  2  0  0  0  0  0  0  0  0  0
   10.2404  -15.2156   27.7246 C   0  0  0  0  0  0  0  0  0  0  0  0
   10.6736  -16.4004   28.5114 O   0  0  0  0  0  0  0  0  0  0  0  0
   11.8906  -16.3947   29.1474 O   0  0  0  0  0  0  0  0  0  0  0  0
  2 10  1  0
  2  1  1  6
  3  4  1  0
  3  2  1  0
  4  9  2  0
  5  6  2  0
  5  4  1  0
  6  7  1  0
  7  8  2  0
  9  8  1  0
 10 20  1  0
 11 10  2  0
 13 15  1  0
 13 12  1  0
 14 13  2  0
 16 17  1  0
 16 15  1  0
 17 18  1  0
 19 18  1  6
 19 21  1  0
 20 19  1  0
 21 22  2  0
 21 23  1  0
 23 27  1  0
 24 23  1  0
 25 26  1  0
 25 24  1  0
 26 27  1  0
 27 28  1  1
 28 30  2  0
 28 29  1  0
M  END
$$$$
