FRP.pdb
     RDKit          3D

 30 31  0  0  1  0  0  0  0  0999 V2000
    5.8436  -17.3931   25.9587 N   0  0  0  0  0  0  0  0  0  0  0  0
    6.5190  -16.2220   25.4931 C   0  0  1  0  0  0  0  0  0  0  0  0
    7.4926  -15.6560   26.4703 C   0  0  0  0  0  0  0  0  0  0  0  0
    7.1822  -14.1866   26.5916 C   0  0  0  0  0  0  0  0  0  0  0  0
    5.8913  -13.7506   26.6079 C   0  0  0  0  0  0  0  0  0  0  0  0
    5.6456  -12.3868   26.7216 C   0  0  0  0  0  0  0  0  0  0  0  0
    6.6941  -11.4998   26.8156 C   0  0  0  0  0  0  0  0  0  0  0  0
    7.9943  -11.9761   26.7960 C   0  0  0  0  0  0  0  0  0  0  0  0
    8.2553  -13.3295   26.6834 C   0  0  0  0  0  0  0  0  0  0  0  0
    7.2426  -16.4736   24.2032 C   0  0  0  0  0  0  0  0  0  0  0  0
    7.8400  -17.5598   24.0008 O   0  0  0  0  0  0  0  0  0  0  0  0
    6.8846  -14.3491   16.5492 N   0  0  0  0  0  0  0  0  0  0  0  0
    8.2014  -13.8493   16.4537 C   0  0  0  0  0  0  0  0  0  0  0  0
    8.8877  -13.8103   15.3562 N   0  0  0  0  0  0  0  0  0  0  0  0
    8.8325  -13.3539   17.6182 N   0  0  0  0  0  0  0  0  0  0  0  0
    8.2554  -13.3289   18.9165 C   0  0  0  0  0  0  0  0  0  0  0  0
    8.5891  -14.5265   19.7795 C   0  0  0  0  0  0  0  0  0  0  0  0
    7.8194  -14.4373   21.0779 C   0  0  0  0  0  0  0  0  0  0  0  0
    7.8950  -15.6741   21.9208 C   0  0  2  0  0  0  0  0  0  0  0  0
    7.2418  -15.4595   23.2122 N   0  0  0  0  0  0  0  0  0  0  0  0
    9.3626  -15.9217   22.1581 C   0  0  0  0  0  0  0  0  0  0  0  0
    9.9012  -15.1931   23.0436 O   0  0  0  0  0  0  0  0  0  0  0  0
    9.8966  -13.5018   15.4698 N   0  0  0  0  0  0  0  0  0  0  0  0
   10.0978  -16.8913   21.4553 C   0  0  0  0  0  0  0  0  0  0  0  0
    9.6584  -17.8484   20.4753 C   0  0  0  0  0  0  0  0  0  0  0  0
   10.5657  -19.0626   20.7512 C   0  0  0  0  0  0  0  0  0  0  0  0
   11.8936  -18.3619   20.9216 C   0  0  2  0  0  0  0  0  0  0  0  0
   11.5331  -17.0996   21.6366 C   0  0  0  0  0  0  0  0  0  0  0  0
   12.2969  -15.9155   21.1623 O   0  0  0  0  0  0  0  0  0  0  0  0
   13.4703  -15.5621   21.7820 O   0  0  0  0  0  0  0  0  0  0  0  0
  2 10  1  0
  2  1  1  1
  3  4  1  0
  3  2  1  0
  4  9  2  0
  5  6  2  0
  5  4  1  0
  6  7  1  0
  7  8  2  0
  9  8  1  0
 10 20  1  0
 11 10  2  0
 13 15  1  0
 13 12  1  0
 14 13  2  0
 16 17  1  0
 16 15  1  0
 17 18  1  0
 19 18  1  6
 19 21  1  0
 20 19  1  0
 21 22  2  0
 21 23  1  0
 23 27  1  0
 24 23  1  0
 25 26  1  0
 25 24  1  0
 26 27  1  0
 27 28  1  6
 28 30  2  0
 28 29  1  0
M  END
$$$$
