FRP.pdb
     RDKit          3D

 30 31  0  0  1  0  0  0  0  0999 V2000
    6.7747  -17.5672   27.1462 N   0  0  0  0  0  0  0  0  0  0  0  0
    7.1141  -16.4744   26.2889 C   0  0  1  0  0  0  0  0  0  0  0  0
    8.1183  -15.5381   26.8704 C   0  0  0  0  0  0  0  0  0  0  0  0
    7.5026  -14.1634   26.8345 C   0  0  0  0  0  0  0  0  0  0  0  0
    6.1811  -14.0039   26.5430 C   0  0  0  0  0  0  0  0  0  0  0  0
    5.6499  -12.7192   26.5200 C   0  0  0  0  0  0  0  0  0  0  0  0
    6.4522  -11.6332   26.7882 C   0  0  0  0  0  0  0  0  0  0  0  0
    7.7913  -11.8302   27.0808 C   0  0  0  0  0  0  0  0  0  0  0  0
    8.3348  -13.1016   27.1077 C   0  0  0  0  0  0  0  0  0  0  0  0
    7.6289  -16.9484   24.9619 C   0  0  0  0  0  0  0  0  0  0  0  0
    8.1539  -18.0833   24.8424 O   0  0  0  0  0  0  0  0  0  0  0  0
    9.1118  -13.2293   17.1524 N   0  0  0  0  0  0  0  0  0  0  0  0
    8.5019  -12.9264   18.3890 C   0  0  0  0  0  0  0  0  0  0  0  0
    8.4946  -11.7490   18.9282 N   0  0  0  0  0  0  0  0  0  0  0  0
    7.8505  -13.9588   19.1030 N   0  0  0  0  0  0  0  0  0  0  0  0
    8.2824  -15.3111   19.1663 C   0  0  0  0  0  0  0  0  0  0  0  0
    7.4438  -16.2011   20.0579 C   0  0  0  0  0  0  0  0  0  0  0  0
    7.4048  -15.6179   21.4523 C   0  0  0  0  0  0  0  0  0  0  0  0
    7.9445  -16.5293   22.5126 C   0  0  2  0  0  0  0  0  0  0  0  0
    7.5137  -16.0893   23.8397 N   0  0  0  0  0  0  0  0  0  0  0  0
    9.4449  -16.4141   22.4300 C   0  0  0  0  0  0  0  0  0  0  0  0
    9.9332  -15.3336   22.8765 O   0  0  0  0  0  0  0  0  0  0  0  0
    8.1116  -11.7120   19.9172 N   0  0  0  0  0  0  0  0  0  0  0  0
   10.2614  -17.4267   21.8987 C   0  0  0  0  0  0  0  0  0  0  0  0
    9.9000  -18.7017   21.3388 C   0  0  0  0  0  0  0  0  0  0  0  0
   11.0739  -19.6062   21.7602 C   0  0  0  0  0  0  0  0  0  0  0  0
   12.2335  -18.6865   21.4556 C   0  0  2  0  0  0  0  0  0  0  0  0
   11.7191  -17.3367   21.8406 C   0  0  0  0  0  0  0  0  0  0  0  0
   12.1391  -16.2583   20.9072 O   0  0  0  0  0  0  0  0  0  0  0  0
   13.4300  -15.7909   20.9346 O   0  0  0  0  0  0  0  0  0  0  0  0
  2 10  1  0
  2  1  1  1
  3  4  1  0
  3  2  1  0
  4  9  2  0
  5  6  2  0
  5  4  1  0
  6  7  1  0
  7  8  2  0
  9  8  1  0
 10 20  1  0
 11 10  2  0
 13 15  1  0
 13 12  1  0
 14 13  2  0
 16 17  1  0
 16 15  1  0
 17 18  1  0
 19 18  1  6
 19 21  1  0
 20 19  1  0
 21 22  2  0
 21 23  1  0
 23 27  1  0
 24 23  1  0
 25 26  1  0
 25 24  1  0
 26 27  1  0
 27 28  1  6
 28 30  2  0
 28 29  1  0
M  END
$$$$
