FRP.pdb
     RDKit          3D

 30 31  0  0  1  0  0  0  0  0999 V2000
    9.2280  -15.6997   26.7357 N   0  0  0  0  0  0  0  0  0  0  0  0
    8.9698  -15.2093   25.4177 C   0  0  1  0  0  0  0  0  0  0  0  0
    8.9883  -13.7222   25.3108 C   0  0  0  0  0  0  0  0  0  0  0  0
    7.8988  -13.2078   26.2155 C   0  0  0  0  0  0  0  0  0  0  0  0
    8.2051  -12.6494   27.4201 C   0  0  0  0  0  0  0  0  0  0  0  0
    7.1717  -12.1860   28.2265 C   0  0  0  0  0  0  0  0  0  0  0  0
    5.8649  -12.2935   27.8074 C   0  0  0  0  0  0  0  0  0  0  0  0
    5.5879  -12.8663   26.5775 C   0  0  0  0  0  0  0  0  0  0  0  0
    6.6045  -13.3320   25.7637 C   0  0  0  0  0  0  0  0  0  0  0  0
    9.9422  -15.7628   24.4184 C   0  0  0  0  0  0  0  0  0  0  0  0
   11.1544  -15.9107   24.7125 O   0  0  0  0  0  0  0  0  0  0  0  0
   13.6226  -15.7369   16.8323 N   0  0  0  0  0  0  0  0  0  0  0  0
   13.9902  -15.5076   18.1759 C   0  0  0  0  0  0  0  0  0  0  0  0
   14.3097  -14.3479   18.6556 N   0  0  0  0  0  0  0  0  0  0  0  0
   14.0184  -16.5991   19.0746 N   0  0  0  0  0  0  0  0  0  0  0  0
   12.8932  -17.1183   19.7700 C   0  0  0  0  0  0  0  0  0  0  0  0
   11.8674  -16.0820   20.1751 C   0  0  0  0  0  0  0  0  0  0  0  0
   11.1562  -16.5448   21.4266 C   0  0  0  0  0  0  0  0  0  0  0  0
   10.1118  -15.5926   21.9250 C   0  0  2  0  0  0  0  0  0  0  0  0
    9.4681  -16.1168   23.1298 N   0  0  0  0  0  0  0  0  0  0  0  0
    9.0815  -15.5007   20.8291 C   0  0  0  0  0  0  0  0  0  0  0  0
    8.2570  -16.4612   20.7752 O   0  0  0  0  0  0  0  0  0  0  0  0
   14.4708  -14.3262   19.7043 N   0  0  0  0  0  0  0  0  0  0  0  0
    9.0240  -14.4295   19.9215 C   0  0  0  0  0  0  0  0  0  0  0  0
    9.7867  -13.2102   19.8871 C   0  0  0  0  0  0  0  0  0  0  0  0
    8.7728  -12.1870   19.3404 C   0  0  0  0  0  0  0  0  0  0  0  0
    8.1587  -12.9999   18.2244 C   0  0  2  0  0  0  0  0  0  0  0  0
    8.0982  -14.3818   18.7914 C   0  0  0  0  0  0  0  0  0  0  0  0
    8.4285  -15.4398   17.8005 O   0  0  0  0  0  0  0  0  0  0  0  0
    7.5062  -15.8021   16.8498 O   0  0  0  0  0  0  0  0  0  0  0  0
  2 10  1  0
  2  1  1  1
  3  4  1  0
  3  2  1  0
  4  9  2  0
  5  6  2  0
  5  4  1  0
  6  7  1  0
  7  8  2  0
  9  8  1  0
 10 20  1  0
 11 10  2  0
 13 15  1  0
 13 12  1  0
 14 13  2  0
 16 17  1  0
 16 15  1  0
 17 18  1  0
 19 18  1  6
 19 21  1  0
 20 19  1  0
 21 22  2  0
 21 23  1  0
 23 27  1  0
 24 23  1  0
 25 26  1  0
 25 24  1  0
 26 27  1  0
 27 28  1  6
 28 30  2  0
 28 29  1  0
M  END
$$$$
