FPT.pdb
     RDKit          3D

 26 27  0  0  1  0  0  0  0  0999 V2000
    5.6034  -17.6638   25.2032 N   0  0  0  0  0  0  0  0  0  0  0  0
    6.4287  -16.5136   24.9328 C   0  0  1  0  0  0  0  0  0  0  0  0
    7.1306  -16.0939   26.1913 C   0  0  0  0  0  0  0  0  0  0  0  0
    6.9845  -14.6325   26.3675 C   0  0  0  0  0  0  0  0  0  0  0  0
    8.0955  -13.8454   26.5622 C   0  0  0  0  0  0  0  0  0  0  0  0
    8.0127  -12.4712   26.7396 C   0  0  0  0  0  0  0  0  0  0  0  0
    6.7643  -11.9088   26.7145 C   0  0  0  0  0  0  0  0  0  0  0  0
    5.6250  -12.6529   26.5233 C   0  0  0  0  0  0  0  0  0  0  0  0
    5.7466  -14.0379   26.3477 C   0  0  0  0  0  0  0  0  0  0  0  0
    7.3528  -16.6901   23.7941 C   0  0  0  0  0  0  0  0  0  0  0  0
    7.7930  -17.8746   23.6037 O   0  0  0  0  0  0  0  0  0  0  0  0
    7.7467  -15.6474   22.9525 N   0  0  0  0  0  0  0  0  0  0  0  0
    7.5365  -14.2292   23.1552 C   0  0  0  0  0  0  0  0  0  0  0  0
    8.2692  -13.5546   21.9838 C   0  0  0  0  0  0  0  0  0  0  0  0
    8.0316  -14.6186   20.9187 C   0  0  0  0  0  0  0  0  0  0  0  0
    8.4680  -15.8381   21.6838 C   0  0  1  0  0  0  0  0  0  0  0  0
    9.9133  -15.7929   22.0200 C   0  0  0  0  0  0  0  0  0  0  0  0
   10.7976  -15.3724   21.2299 O   0  0  0  0  0  0  0  0  0  0  0  0
   11.3013  -14.9726   25.8386 C   0  0  0  0  0  0  0  0  0  0  0  0
   11.7632  -16.2751   25.2295 C   0  0  1  0  0  0  0  0  0  0  0  0
   10.9678  -17.3461   25.5709 O   0  0  0  0  0  0  0  0  0  0  0  0
   11.7599  -16.1969   23.6975 C   0  0  2  0  0  0  0  0  0  0  0  0
   10.3658  -16.2422   23.3004 N   0  0  0  0  0  0  0  0  0  0  0  0
   12.4385  -17.3914   23.1426 C   0  0  0  0  0  0  0  0  0  0  0  0
   13.7944  -17.5671   23.2442 O   0  0  0  0  0  0  0  0  0  0  0  0
   11.7750  -18.2873   22.5555 O   0  0  0  0  0  0  0  0  0  0  0  0
  2 10  1  0
  2  1  1  1
  3  2  1  0
  4  9  1  0
  4  3  1  0
  5  4  2  0
  6  7  2  0
  6  5  1  0
  7  8  1  0
  8  9  2  0
 10 12  1  0
 11 10  2  0
 12 16  1  0
 12 13  1  0
 14 13  1  0
 15 14  1  0
 15 16  1  0
 16 17  1  1
 17 18  2  0
 20 19  1  1
 20 22  1  0
 21 20  1  0
 22 23  1  6
 23 17  1  0
 24 22  1  0
 25 24  1  0
 26 24  2  0
M  END
$$$$
