FPT.pdb
     RDKit          3D

 26 27  0  0  1  0  0  0  0  0999 V2000
    5.6164  -17.1217   25.8098 N   0  0  0  0  0  0  0  0  0  0  0  0
    6.5086  -16.1203   25.2819 C   0  0  1  0  0  0  0  0  0  0  0  0
    7.4236  -15.6407   26.3706 C   0  0  0  0  0  0  0  0  0  0  0  0
    7.2674  -14.1785   26.5305 C   0  0  0  0  0  0  0  0  0  0  0  0
    6.0219  -13.6360   26.7452 C   0  0  0  0  0  0  0  0  0  0  0  0
    5.8200  -12.2709   26.8947 C   0  0  0  0  0  0  0  0  0  0  0  0
    6.9219  -11.4611   26.8206 C   0  0  0  0  0  0  0  0  0  0  0  0
    8.1862  -11.9556   26.6076 C   0  0  0  0  0  0  0  0  0  0  0  0
    8.3525  -13.3393   26.4611 C   0  0  0  0  0  0  0  0  0  0  0  0
    7.2362  -16.5423   24.0677 C   0  0  0  0  0  0  0  0  0  0  0  0
    7.4044  -17.8005   23.9201 O   0  0  0  0  0  0  0  0  0  0  0  0
    7.7277  -15.6482   23.1139 N   0  0  0  0  0  0  0  0  0  0  0  0
    7.6033  -14.2056   23.1175 C   0  0  0  0  0  0  0  0  0  0  0  0
    8.4206  -13.7403   21.9011 C   0  0  0  0  0  0  0  0  0  0  0  0
    8.1527  -14.9222   20.9767 C   0  0  0  0  0  0  0  0  0  0  0  0
    8.4805  -16.0512   21.9151 C   0  0  1  0  0  0  0  0  0  0  0  0
    9.9125  -16.0477   22.3067 C   0  0  0  0  0  0  0  0  0  0  0  0
   10.4050  -15.2360   23.1324 O   0  0  0  0  0  0  0  0  0  0  0  0
   13.6617  -19.2903   22.5142 C   0  0  0  0  0  0  0  0  0  0  0  0
   12.2947  -18.8402   22.0565 C   0  0  1  0  0  0  0  0  0  0  0  0
   11.2660  -19.5213   22.6682 O   0  0  0  0  0  0  0  0  0  0  0  0
   12.0765  -17.3522   22.3587 C   0  0  2  0  0  0  0  0  0  0  0  0
   10.8137  -17.0018   21.7377 N   0  0  0  0  0  0  0  0  0  0  0  0
   13.1467  -16.5570   21.7125 C   0  0  0  0  0  0  0  0  0  0  0  0
   14.2429  -16.1169   22.4085 O   0  0  0  0  0  0  0  0  0  0  0  0
   13.0731  -16.2622   20.4898 O   0  0  0  0  0  0  0  0  0  0  0  0
  2 10  1  0
  2  1  1  1
  3  2  1  0
  4  9  1  0
  4  3  1  0
  5  4  2  0
  6  7  2  0
  6  5  1  0
  7  8  1  0
  8  9  2  0
 10 12  1  0
 11 10  2  0
 12 16  1  0
 12 13  1  0
 14 13  1  0
 15 14  1  0
 15 16  1  0
 16 17  1  1
 17 18  2  0
 20 19  1  1
 20 22  1  0
 21 20  1  0
 22 23  1  6
 23 17  1  0
 24 22  1  0
 25 24  1  0
 26 24  2  0
M  END
$$$$
