FPT.pdb
     RDKit          3D

 26 27  0  0  1  0  0  0  0  0999 V2000
    5.7174  -17.5529   25.7896 N   0  0  0  0  0  0  0  0  0  0  0  0
    6.5272  -16.4283   25.3934 C   0  0  1  0  0  0  0  0  0  0  0  0
    7.3259  -15.9472   26.5695 C   0  0  0  0  0  0  0  0  0  0  0  0
    7.1507  -14.4855   26.7132 C   0  0  0  0  0  0  0  0  0  0  0  0
    8.2416  -13.6497   26.6559 C   0  0  0  0  0  0  0  0  0  0  0  0
    8.1327  -12.2727   26.7919 C   0  0  0  0  0  0  0  0  0  0  0  0
    6.8790  -11.7582   26.9893 C   0  0  0  0  0  0  0  0  0  0  0  0
    5.7591  -12.5519   27.0539 C   0  0  0  0  0  0  0  0  0  0  0  0
    5.9068  -13.9382   26.9125 C   0  0  0  0  0  0  0  0  0  0  0  0
    7.3604  -16.6775   24.1994 C   0  0  0  0  0  0  0  0  0  0  0  0
    7.7066  -17.8908   23.9969 O   0  0  0  0  0  0  0  0  0  0  0  0
    7.7671  -15.6716   23.3200 N   0  0  0  0  0  0  0  0  0  0  0  0
    7.5567  -14.2459   23.4600 C   0  0  0  0  0  0  0  0  0  0  0  0
    8.3059  -13.6221   22.2710 C   0  0  0  0  0  0  0  0  0  0  0  0
    8.0804  -14.7297   21.2486 C   0  0  0  0  0  0  0  0  0  0  0  0
    8.5046  -15.9164   22.0700 C   0  0  1  0  0  0  0  0  0  0  0  0
    9.9455  -15.8587   22.4231 C   0  0  0  0  0  0  0  0  0  0  0  0
   10.4418  -14.9810   23.1757 O   0  0  0  0  0  0  0  0  0  0  0  0
   11.7921  -18.5662   24.1871 C   0  0  0  0  0  0  0  0  0  0  0  0
   12.4164  -18.3741   22.8254 C   0  0  1  0  0  0  0  0  0  0  0  0
   11.8738  -19.1917   21.8594 O   0  0  0  0  0  0  0  0  0  0  0  0
   12.2316  -16.9327   22.3346 C   0  0  2  0  0  0  0  0  0  0  0  0
   10.8513  -16.8347   21.9005 N   0  0  0  0  0  0  0  0  0  0  0  0
   13.1040  -16.6972   21.1604 C   0  0  0  0  0  0  0  0  0  0  0  0
   14.4401  -16.4202   21.2944 O   0  0  0  0  0  0  0  0  0  0  0  0
   12.6312  -16.7467   19.9936 O   0  0  0  0  0  0  0  0  0  0  0  0
  2 10  1  0
  2  1  1  1
  3  2  1  0
  4  9  1  0
  4  3  1  0
  5  4  2  0
  6  7  2  0
  6  5  1  0
  7  8  1  0
  8  9  2  0
 10 12  1  0
 11 10  2  0
 12 16  1  0
 12 13  1  0
 14 13  1  0
 15 14  1  0
 15 16  1  0
 16 17  1  1
 17 18  2  0
 20 19  1  1
 20 22  1  0
 21 20  1  0
 22 23  1  6
 23 17  1  0
 24 22  1  0
 25 24  1  0
 26 24  2  0
M  END
$$$$
