FPT.pdb
     RDKit          3D

 26 27  0  0  1  0  0  0  0  0999 V2000
    6.6453  -17.4942   26.5499 N   0  0  0  0  0  0  0  0  0  0  0  0
    6.3581  -16.7303   25.3620 C   0  0  1  0  0  0  0  0  0  0  0  0
    6.0487  -15.3115   25.7414 C   0  0  0  0  0  0  0  0  0  0  0  0
    7.2213  -14.7219   26.4235 C   0  0  0  0  0  0  0  0  0  0  0  0
    7.3753  -13.3562   26.4770 C   0  0  0  0  0  0  0  0  0  0  0  0
    8.4601  -12.7529   27.0981 C   0  0  0  0  0  0  0  0  0  0  0  0
    9.3942  -13.5754   27.6694 C   0  0  0  0  0  0  0  0  0  0  0  0
    9.2846  -14.9449   27.6420 C   0  0  0  0  0  0  0  0  0  0  0  0
    8.1759  -15.5194   27.0059 C   0  0  0  0  0  0  0  0  0  0  0  0
    7.3972  -16.8292   24.3168 C   0  0  0  0  0  0  0  0  0  0  0  0
    7.9668  -17.9666   24.1942 O   0  0  0  0  0  0  0  0  0  0  0  0
    7.7642  -15.7639   23.4916 N   0  0  0  0  0  0  0  0  0  0  0  0
    7.3389  -14.3840   23.5991 C   0  0  0  0  0  0  0  0  0  0  0  0
    8.1347  -13.6443   22.5111 C   0  0  0  0  0  0  0  0  0  0  0  0
    8.1968  -14.7580   21.4725 C   0  0  0  0  0  0  0  0  0  0  0  0
    8.6786  -15.8850   22.3447 C   0  0  1  0  0  0  0  0  0  0  0  0
   10.0416  -15.6305   22.8752 C   0  0  0  0  0  0  0  0  0  0  0  0
   10.3308  -14.6474   23.6052 O   0  0  0  0  0  0  0  0  0  0  0  0
   11.9463  -17.7676   25.2118 C   0  0  0  0  0  0  0  0  0  0  0  0
   12.6776  -17.7350   23.8908 C   0  0  1  0  0  0  0  0  0  0  0  0
   12.2913  -18.7394   23.0317 O   0  0  0  0  0  0  0  0  0  0  0  0
   12.4289  -16.4107   23.1577 C   0  0  2  0  0  0  0  0  0  0  0  0
   11.1114  -16.5273   22.5628 N   0  0  0  0  0  0  0  0  0  0  0  0
   13.4185  -16.2599   22.0653 C   0  0  0  0  0  0  0  0  0  0  0  0
   14.7215  -15.9112   22.3111 O   0  0  0  0  0  0  0  0  0  0  0  0
   13.0804  -16.4515   20.8668 O   0  0  0  0  0  0  0  0  0  0  0  0
  2 10  1  0
  2  1  1  1
  3  2  1  0
  4  9  1  0
  4  3  1  0
  5  4  2  0
  6  7  2  0
  6  5  1  0
  7  8  1  0
  8  9  2  0
 10 12  1  0
 11 10  2  0
 12 16  1  0
 12 13  1  0
 14 13  1  0
 15 14  1  0
 15 16  1  0
 16 17  1  1
 17 18  2  0
 20 19  1  1
 20 22  1  0
 21 20  1  0
 22 23  1  6
 23 17  1  0
 24 22  1  0
 25 24  1  0
 26 24  2  0
M  END
$$$$
