FPT.pdb
     RDKit          3D

 26 27  0  0  1  0  0  0  0  0999 V2000
    6.1016  -17.1655   25.9685 N   0  0  0  0  0  0  0  0  0  0  0  0
    6.6766  -16.1247   25.1540 C   0  0  1  0  0  0  0  0  0  0  0  0
    7.7510  -15.4186   25.9286 C   0  0  0  0  0  0  0  0  0  0  0  0
    7.3094  -14.0393   26.2292 C   0  0  0  0  0  0  0  0  0  0  0  0
    8.2167  -13.1033   26.6681 C   0  0  0  0  0  0  0  0  0  0  0  0
    7.8531  -11.7984   26.9706 C   0  0  0  0  0  0  0  0  0  0  0  0
    6.5347  -11.4618   26.8159 C   0  0  0  0  0  0  0  0  0  0  0  0
    5.5912  -12.3611   26.3807 C   0  0  0  0  0  0  0  0  0  0  0  0
    5.9943  -13.6702   26.0847 C   0  0  0  0  0  0  0  0  0  0  0  0
    7.1356  -16.5833   23.8270 C   0  0  0  0  0  0  0  0  0  0  0  0
    7.0968  -17.8439   23.6218 O   0  0  0  0  0  0  0  0  0  0  0  0
    7.5931  -15.7198   22.8291 N   0  0  0  0  0  0  0  0  0  0  0  0
    7.6916  -14.2768   22.8950 C   0  0  0  0  0  0  0  0  0  0  0  0
    8.3582  -13.8701   21.5704 C   0  0  0  0  0  0  0  0  0  0  0  0
    7.7653  -14.9493   20.6722 C   0  0  0  0  0  0  0  0  0  0  0  0
    8.0679  -16.1627   21.5082 C   0  0  1  0  0  0  0  0  0  0  0  0
    9.5286  -16.3877   21.6490 C   0  0  0  0  0  0  0  0  0  0  0  0
   10.2391  -15.8168   22.5165 O   0  0  0  0  0  0  0  0  0  0  0  0
   10.8573  -19.4907   22.7341 C   0  0  0  0  0  0  0  0  0  0  0  0
   11.3933  -19.2777   21.3384 C   0  0  1  0  0  0  0  0  0  0  0  0
   10.5803  -19.8027   20.3588 O   0  0  0  0  0  0  0  0  0  0  0  0
   11.5430  -17.7826   21.0296 C   0  0  2  0  0  0  0  0  0  0  0  0
   10.2022  -17.2942   20.7711 N   0  0  0  0  0  0  0  0  0  0  0  0
   12.3437  -17.6132   19.7945 C   0  0  0  0  0  0  0  0  0  0  0  0
   13.7134  -17.6710   19.8054 O   0  0  0  0  0  0  0  0  0  0  0  0
   11.7756  -17.4090   18.6885 O   0  0  0  0  0  0  0  0  0  0  0  0
  2 10  1  0
  2  1  1  1
  3  2  1  0
  4  9  1  0
  4  3  1  0
  5  4  2  0
  6  7  2  0
  6  5  1  0
  7  8  1  0
  8  9  2  0
 10 12  1  0
 11 10  2  0
 12 16  1  0
 12 13  1  0
 14 13  1  0
 15 14  1  0
 15 16  1  0
 16 17  1  1
 17 18  2  0
 20 19  1  1
 20 22  1  0
 21 20  1  0
 22 23  1  6
 23 17  1  0
 24 22  1  0
 25 24  1  0
 26 24  2  0
M  END
$$$$
