FPT.pdb
     RDKit          3D

 26 27  0  0  1  0  0  0  0  0999 V2000
    6.7223  -17.0099   26.7852 N   0  0  0  0  0  0  0  0  0  0  0  0
    6.6011  -16.0917   25.6809 C   0  0  1  0  0  0  0  0  0  0  0  0
    6.8718  -14.6949   26.1588 C   0  0  0  0  0  0  0  0  0  0  0  0
    8.1128  -14.6865   26.9637 C   0  0  0  0  0  0  0  0  0  0  0  0
    8.5660  -13.5143   27.5226 C   0  0  0  0  0  0  0  0  0  0  0  0
    9.7274  -13.4507   28.2800 C   0  0  0  0  0  0  0  0  0  0  0  0
   10.4252  -14.6155   28.4589 C   0  0  0  0  0  0  0  0  0  0  0  0
   10.0130  -15.8109   27.9209 C   0  0  0  0  0  0  0  0  0  0  0  0
    8.8355  -15.8375   27.1615 C   0  0  0  0  0  0  0  0  0  0  0  0
    7.4099  -16.4594   24.5008 C   0  0  0  0  0  0  0  0  0  0  0  0
    7.7564  -17.6864   24.4151 O   0  0  0  0  0  0  0  0  0  0  0  0
    7.7940  -15.5474   23.5153 N   0  0  0  0  0  0  0  0  0  0  0  0
    7.7129  -14.1030   23.5770 C   0  0  0  0  0  0  0  0  0  0  0  0
    8.3720  -13.6190   22.2749 C   0  0  0  0  0  0  0  0  0  0  0  0
    7.9483  -14.7634   21.3618 C   0  0  0  0  0  0  0  0  0  0  0  0
    8.3667  -15.9299   22.2146 C   0  0  1  0  0  0  0  0  0  0  0  0
    9.8379  -15.9743   22.4085 C   0  0  0  0  0  0  0  0  0  0  0  0
   10.4608  -15.1989   23.1792 O   0  0  0  0  0  0  0  0  0  0  0  0
   11.3203  -19.5540   23.0014 C   0  0  0  0  0  0  0  0  0  0  0  0
   12.0680  -18.8190   21.9144 C   0  0  1  0  0  0  0  0  0  0  0  0
   11.5903  -19.0864   20.6510 O   0  0  0  0  0  0  0  0  0  0  0  0
   11.9682  -17.3007   22.1090 C   0  0  2  0  0  0  0  0  0  0  0  0
   10.6257  -16.9352   21.6999 N   0  0  0  0  0  0  0  0  0  0  0  0
   12.9279  -16.6248   21.2049 C   0  0  0  0  0  0  0  0  0  0  0  0
   12.5170  -15.9594   20.0788 O   0  0  0  0  0  0  0  0  0  0  0  0
   14.1629  -16.6462   21.4537 O   0  0  0  0  0  0  0  0  0  0  0  0
  2 10  1  0
  2  1  1  1
  3  2  1  0
  4  9  1  0
  4  3  1  0
  5  4  2  0
  6  7  2  0
  6  5  1  0
  7  8  1  0
  8  9  2  0
 10 12  1  0
 11 10  2  0
 12 16  1  0
 12 13  1  0
 14 13  1  0
 15 14  1  0
 15 16  1  0
 16 17  1  1
 17 18  2  0
 20 19  1  1
 20 22  1  0
 21 20  1  0
 22 23  1  6
 23 17  1  0
 24 22  1  0
 25 24  1  0
 26 24  2  0
M  END
$$$$
