FPT.pdb
     RDKit          3D

 26 27  0  0  1  0  0  0  0  0999 V2000
    5.8895  -16.7193   25.7295 N   0  0  0  0  0  0  0  0  0  0  0  0
    6.5270  -15.7407   24.8850 C   0  0  1  0  0  0  0  0  0  0  0  0
    7.6592  -15.0969   25.6309 C   0  0  0  0  0  0  0  0  0  0  0  0
    7.2300  -13.7676   26.1172 C   0  0  0  0  0  0  0  0  0  0  0  0
    5.9701  -13.2989   25.8260 C   0  0  0  0  0  0  0  0  0  0  0  0
    5.5209  -12.0566   26.2520 C   0  0  0  0  0  0  0  0  0  0  0  0
    6.3881  -11.2934   26.9875 C   0  0  0  0  0  0  0  0  0  0  0  0
    7.6562  -11.7178   27.3039 C   0  0  0  0  0  0  0  0  0  0  0  0
    8.0760  -12.9778   26.8568 C   0  0  0  0  0  0  0  0  0  0  0  0
    6.9344  -16.2598   23.5635 C   0  0  0  0  0  0  0  0  0  0  0  0
    6.7343  -17.5056   23.3613 O   0  0  0  0  0  0  0  0  0  0  0  0
    7.5089  -15.4668   22.5677 N   0  0  0  0  0  0  0  0  0  0  0  0
    7.7733  -14.0443   22.6226 C   0  0  0  0  0  0  0  0  0  0  0  0
    8.5087  -13.7329   21.3087 C   0  0  0  0  0  0  0  0  0  0  0  0
    7.8121  -14.7460   20.4080 C   0  0  0  0  0  0  0  0  0  0  0  0
    7.9549  -15.9768   21.2611 C   0  0  1  0  0  0  0  0  0  0  0  0
    9.3764  -16.3683   21.4344 C   0  0  0  0  0  0  0  0  0  0  0  0
   10.1928  -15.7248   22.1433 O   0  0  0  0  0  0  0  0  0  0  0  0
   10.3666  -20.2547   21.8919 C   0  0  0  0  0  0  0  0  0  0  0  0
   11.1238  -19.5673   20.7806 C   0  0  1  0  0  0  0  0  0  0  0  0
   10.5389  -19.7290   19.5446 O   0  0  0  0  0  0  0  0  0  0  0  0
   11.2132  -18.0564   21.0294 C   0  0  2  0  0  0  0  0  0  0  0  0
    9.8845  -17.5329   20.7773 N   0  0  0  0  0  0  0  0  0  0  0  0
   12.1435  -17.4505   20.0482 C   0  0  0  0  0  0  0  0  0  0  0  0
   13.5040  -17.5630   20.1746 O   0  0  0  0  0  0  0  0  0  0  0  0
   11.6990  -16.8081   19.0597 O   0  0  0  0  0  0  0  0  0  0  0  0
  2 10  1  0
  2  1  1  1
  3  2  1  0
  4  9  1  0
  4  3  1  0
  5  4  2  0
  6  7  2  0
  6  5  1  0
  7  8  1  0
  8  9  2  0
 10 12  1  0
 11 10  2  0
 12 16  1  0
 12 13  1  0
 14 13  1  0
 15 14  1  0
 15 16  1  0
 16 17  1  1
 17 18  2  0
 20 19  1  1
 20 22  1  0
 21 20  1  0
 22 23  1  6
 23 17  1  0
 24 22  1  0
 25 24  1  0
 26 24  2  0
M  END
$$$$
