FPT.pdb
     RDKit          3D

 26 27  0  0  1  0  0  0  0  0999 V2000
    5.1500  -19.3200   23.5729 N   0  0  0  0  0  0  0  0  0  0  0  0
    6.2808  -18.6649   24.1807 C   0  0  1  0  0  0  0  0  0  0  0  0
    7.0993  -19.6735   24.9327 C   0  0  0  0  0  0  0  0  0  0  0  0
    7.1897  -19.2680   26.3523 C   0  0  0  0  0  0  0  0  0  0  0  0
    8.0177  -18.2346   26.7244 C   0  0  0  0  0  0  0  0  0  0  0  0
    8.1442  -17.8197   28.0429 C   0  0  0  0  0  0  0  0  0  0  0  0
    7.4040  -18.4841   28.9843 C   0  0  0  0  0  0  0  0  0  0  0  0
    6.5634  -19.5221   28.6619 C   0  0  0  0  0  0  0  0  0  0  0  0
    6.4607  -19.9142   27.3204 C   0  0  0  0  0  0  0  0  0  0  0  0
    7.0872  -17.8602   23.2405 C   0  0  0  0  0  0  0  0  0  0  0  0
    7.3115  -18.3859   22.0975 O   0  0  0  0  0  0  0  0  0  0  0  0
    7.5934  -16.5951   23.5467 N   0  0  0  0  0  0  0  0  0  0  0  0
    7.3256  -15.8061   24.7309 C   0  0  0  0  0  0  0  0  0  0  0  0
    8.2271  -14.5687   24.5877 C   0  0  0  0  0  0  0  0  0  0  0  0
    8.1874  -14.4280   23.0706 C   0  0  0  0  0  0  0  0  0  0  0  0
    8.5161  -15.8433   22.6809 C   0  0  1  0  0  0  0  0  0  0  0  0
    9.8858  -16.2300   23.1034 C   0  0  0  0  0  0  0  0  0  0  0  0
   10.2129  -16.4291   24.3020 O   0  0  0  0  0  0  0  0  0  0  0  0
   11.3156  -18.7903   20.4914 C   0  0  0  0  0  0  0  0  0  0  0  0
   12.4002  -17.8497   20.9599 C   0  0  1  0  0  0  0  0  0  0  0  0
   12.5957  -16.7818   20.1128 O   0  0  0  0  0  0  0  0  0  0  0  0
   12.0613  -17.2620   22.3357 C   0  0  2  0  0  0  0  0  0  0  0  0
   10.9175  -16.3952   22.1265 N   0  0  0  0  0  0  0  0  0  0  0  0
   13.1928  -16.4299   22.8074 C   0  0  0  0  0  0  0  0  0  0  0  0
   14.3799  -16.9836   23.2125 O   0  0  0  0  0  0  0  0  0  0  0  0
   13.0889  -15.1749   22.8479 O   0  0  0  0  0  0  0  0  0  0  0  0
  2 10  1  0
  2  1  1  6
  3  2  1  0
  4  9  1  0
  4  3  1  0
  5  4  2  0
  6  7  2  0
  6  5  1  0
  7  8  1  0
  8  9  2  0
 10 12  1  0
 11 10  2  0
 12 16  1  0
 12 13  1  0
 14 13  1  0
 15 14  1  0
 15 16  1  0
 16 17  1  1
 17 18  2  0
 20 19  1  6
 20 22  1  0
 21 20  1  0
 22 23  1  6
 23 17  1  0
 24 22  1  0
 25 24  1  0
 26 24  2  0
M  END
$$$$
