FPT.pdb
     RDKit          3D

 26 27  0  0  1  0  0  0  0  0999 V2000
    5.5562  -17.3764   25.6333 N   0  0  0  0  0  0  0  0  0  0  0  0
    6.4058  -16.3067   25.1739 C   0  0  1  0  0  0  0  0  0  0  0  0
    7.2807  -15.8424   26.3016 C   0  0  0  0  0  0  0  0  0  0  0  0
    7.1535  -14.3758   26.4460 C   0  0  0  0  0  0  0  0  0  0  0  0
    8.2783  -13.5852   26.4857 C   0  0  0  0  0  0  0  0  0  0  0  0
    8.2144  -12.2059   26.6267 C   0  0  0  0  0  0  0  0  0  0  0  0
    6.9706  -11.6418   26.7277 C   0  0  0  0  0  0  0  0  0  0  0  0
    5.8180  -12.3892   26.6934 C   0  0  0  0  0  0  0  0  0  0  0  0
    5.9207  -13.7794   26.5500 C   0  0  0  0  0  0  0  0  0  0  0  0
    7.1705  -16.6278   23.9516 C   0  0  0  0  0  0  0  0  0  0  0  0
    7.3572  -17.8693   23.7135 O   0  0  0  0  0  0  0  0  0  0  0  0
    7.6768  -15.6589   23.0825 N   0  0  0  0  0  0  0  0  0  0  0  0
    7.6433  -14.2217   23.2554 C   0  0  0  0  0  0  0  0  0  0  0  0
    8.4368  -13.6662   22.0612 C   0  0  0  0  0  0  0  0  0  0  0  0
    8.0571  -14.7155   21.0230 C   0  0  0  0  0  0  0  0  0  0  0  0
    8.3523  -15.9628   21.8106 C   0  0  1  0  0  0  0  0  0  0  0  0
    9.7968  -16.0869   22.1301 C   0  0  0  0  0  0  0  0  0  0  0  0
   10.4207  -15.2697   22.8554 O   0  0  0  0  0  0  0  0  0  0  0  0
   11.4174  -19.4243   23.4065 C   0  0  0  0  0  0  0  0  0  0  0  0
   12.0642  -18.9477   22.1277 C   0  0  1  0  0  0  0  0  0  0  0  0
   11.5056  -19.5019   20.9977 O   0  0  0  0  0  0  0  0  0  0  0  0
   11.9347  -17.4264   21.9803 C   0  0  2  0  0  0  0  0  0  0  0  0
   10.5558  -17.1796   21.6048 N   0  0  0  0  0  0  0  0  0  0  0  0
   12.8057  -16.9635   20.8747 C   0  0  0  0  0  0  0  0  0  0  0  0
   14.1526  -16.7724   21.0448 O   0  0  0  0  0  0  0  0  0  0  0  0
   12.3213  -16.7311   19.7350 O   0  0  0  0  0  0  0  0  0  0  0  0
  2 10  1  0
  2  1  1  1
  3  2  1  0
  4  9  1  0
  4  3  1  0
  5  4  2  0
  6  7  2  0
  6  5  1  0
  7  8  1  0
  8  9  2  0
 10 12  1  0
 11 10  2  0
 12 16  1  0
 12 13  1  0
 14 13  1  0
 15 14  1  0
 15 16  1  0
 16 17  1  1
 17 18  2  0
 20 19  1  1
 20 22  1  0
 21 20  1  0
 22 23  1  6
 23 17  1  0
 24 22  1  0
 25 24  1  0
 26 24  2  0
M  END
$$$$
