FPT.pdb
     RDKit          3D

 26 27  0  0  1  0  0  0  0  0999 V2000
    5.4656  -17.4759   25.4569 N   0  0  0  0  0  0  0  0  0  0  0  0
    6.3725  -16.3881   25.1890 C   0  0  1  0  0  0  0  0  0  0  0  0
    7.0738  -15.9969   26.4570 C   0  0  0  0  0  0  0  0  0  0  0  0
    7.0730  -14.5229   26.5803 C   0  0  0  0  0  0  0  0  0  0  0  0
    5.8878  -13.8433   26.7384 C   0  0  0  0  0  0  0  0  0  0  0  0
    5.8313  -12.4611   26.8517 C   0  0  0  0  0  0  0  0  0  0  0  0
    7.0170  -11.7777   26.8004 C   0  0  0  0  0  0  0  0  0  0  0  0
    8.2261  -12.4116   26.6437 C   0  0  0  0  0  0  0  0  0  0  0  0
    8.2450  -13.8084   26.5325 C   0  0  0  0  0  0  0  0  0  0  0  0
    7.3069  -16.6441   24.0740 C   0  0  0  0  0  0  0  0  0  0  0  0
    7.7996  -17.8214   24.0106 O   0  0  0  0  0  0  0  0  0  0  0  0
    7.6567  -15.6809   23.1251 N   0  0  0  0  0  0  0  0  0  0  0  0
    7.1838  -14.3146   23.0465 C   0  0  0  0  0  0  0  0  0  0  0  0
    7.9787  -13.6926   21.8865 C   0  0  0  0  0  0  0  0  0  0  0  0
    8.1004  -14.9272   21.0012 C   0  0  0  0  0  0  0  0  0  0  0  0
    8.5998  -15.9153   22.0198 C   0  0  1  0  0  0  0  0  0  0  0  0
    9.9416  -15.5467   22.5371 C   0  0  0  0  0  0  0  0  0  0  0  0
   10.7136  -14.7416   21.9549 O   0  0  0  0  0  0  0  0  0  0  0  0
   10.5506  -14.4115   26.2134 C   0  0  0  0  0  0  0  0  0  0  0  0
   11.3834  -15.6273   25.8829 C   0  0  1  0  0  0  0  0  0  0  0  0
   10.7759  -16.8125   26.2325 O   0  0  0  0  0  0  0  0  0  0  0  0
   11.6665  -15.7067   24.3774 C   0  0  2  0  0  0  0  0  0  0  0  0
   10.4195  -16.1150   23.7597 N   0  0  0  0  0  0  0  0  0  0  0  0
   12.6766  -16.7600   24.1218 C   0  0  0  0  0  0  0  0  0  0  0  0
   12.3645  -17.9166   23.4548 O   0  0  0  0  0  0  0  0  0  0  0  0
   13.8640  -16.6152   24.5174 O   0  0  0  0  0  0  0  0  0  0  0  0
  2 10  1  0
  2  1  1  1
  3  2  1  0
  4  9  1  0
  4  3  1  0
  5  4  2  0
  6  7  2  0
  6  5  1  0
  7  8  1  0
  8  9  2  0
 10 12  1  0
 11 10  2  0
 12 16  1  0
 12 13  1  0
 14 13  1  0
 15 14  1  0
 15 16  1  0
 16 17  1  1
 17 18  2  0
 20 19  1  6
 20 22  1  0
 21 20  1  0
 22 23  1  6
 23 17  1  0
 24 22  1  0
 25 24  1  0
 26 24  2  0
M  END
$$$$
