FPT.pdb
     RDKit          3D

 26 27  0  0  1  0  0  0  0  0999 V2000
    5.5863  -17.9175   25.0140 N   0  0  0  0  0  0  0  0  0  0  0  0
    6.3806  -16.7156   24.9738 C   0  0  1  0  0  0  0  0  0  0  0  0
    6.8508  -16.3795   26.3590 C   0  0  0  0  0  0  0  0  0  0  0  0
    6.8345  -14.9111   26.5370 C   0  0  0  0  0  0  0  0  0  0  0  0
    8.0125  -14.2229   26.7109 C   0  0  0  0  0  0  0  0  0  0  0  0
    8.0518  -12.8470   26.8891 C   0  0  0  0  0  0  0  0  0  0  0  0
    6.8563  -12.1789   26.8866 C   0  0  0  0  0  0  0  0  0  0  0  0
    5.6538  -12.8219   26.7168 C   0  0  0  0  0  0  0  0  0  0  0  0
    5.6523  -14.2120   26.5397 C   0  0  0  0  0  0  0  0  0  0  0  0
    7.4815  -16.7542   23.9897 C   0  0  0  0  0  0  0  0  0  0  0  0
    8.0848  -17.8735   23.8625 O   0  0  0  0  0  0  0  0  0  0  0  0
    7.8702  -15.6523   23.2246 N   0  0  0  0  0  0  0  0  0  0  0  0
    7.5148  -14.2653   23.4401 C   0  0  0  0  0  0  0  0  0  0  0  0
    8.3071  -13.4893   22.3751 C   0  0  0  0  0  0  0  0  0  0  0  0
    8.2806  -14.5307   21.2626 C   0  0  0  0  0  0  0  0  0  0  0  0
    8.7380  -15.7355   22.0388 C   0  0  1  0  0  0  0  0  0  0  0  0
   10.1289  -15.5797   22.5338 C   0  0  0  0  0  0  0  0  0  0  0  0
   11.0634  -15.1000   21.8410 O   0  0  0  0  0  0  0  0  0  0  0  0
   11.1432  -14.4735   26.3028 C   0  0  0  0  0  0  0  0  0  0  0  0
   11.6887  -15.8235   25.9019 C   0  0  1  0  0  0  0  0  0  0  0  0
   10.8914  -16.8720   26.3034 O   0  0  0  0  0  0  0  0  0  0  0  0
   11.8213  -15.9319   24.3776 C   0  0  2  0  0  0  0  0  0  0  0  0
   10.4661  -15.9846   23.8637 N   0  0  0  0  0  0  0  0  0  0  0  0
   12.4973  -17.2042   24.0319 C   0  0  0  0  0  0  0  0  0  0  0  0
   13.8287  -17.4098   24.2869 O   0  0  0  0  0  0  0  0  0  0  0  0
   11.8547  -18.1411   23.4872 O   0  0  0  0  0  0  0  0  0  0  0  0
  2 10  1  0
  2  1  1  1
  3  2  1  0
  4  9  1  0
  4  3  1  0
  5  4  2  0
  6  7  2  0
  6  5  1  0
  7  8  1  0
  8  9  2  0
 10 12  1  0
 11 10  2  0
 12 16  1  0
 12 13  1  0
 14 13  1  0
 15 14  1  0
 15 16  1  0
 16 17  1  1
 17 18  2  0
 20 19  1  6
 20 22  1  0
 21 20  1  0
 22 23  1  6
 23 17  1  0
 24 22  1  0
 25 24  1  0
 26 24  2  0
M  END
$$$$
