HYY.pdb
     RDKit          3D

 35 37  0  0  1  0  0  0  0  0999 V2000
    9.3260  -15.8310   13.7368 N   0  0  0  0  0  0  0  0  0  0  0  0
    9.9419  -16.9172   14.4740 C   0  0  1  0  0  0  0  0  0  0  0  0
   11.1401  -17.4759   13.7172 C   0  0  0  0  0  0  0  0  0  0  0  0
   10.6497  -18.0347   12.4292 C   0  0  0  0  0  0  0  0  0  0  0  0
   10.2004  -19.3262   12.2050 C   0  0  0  0  0  0  0  0  0  0  0  0
    9.8476  -19.4131   10.8918 N   0  0  0  0  0  0  0  0  0  0  0  0
   10.0662  -18.2194   10.3077 C   0  0  0  0  0  0  0  0  0  0  0  0
   10.5475  -17.3976   11.2364 N   0  0  0  0  0  0  0  0  0  0  0  0
   10.3175  -16.5011   15.8441 C   0  0  0  0  0  0  0  0  0  0  0  0
   10.7709  -15.3575   16.0831 O   0  0  0  0  0  0  0  0  0  0  0  0
   12.1542  -23.3316   18.0122 O   0  0  0  0  0  0  0  0  0  0  0  0
   11.6286  -22.0737   18.2994 C   0  0  0  0  0  0  0  0  0  0  0  0
   10.5111  -21.6229   17.6249 C   0  0  0  0  0  0  0  0  0  0  0  0
    9.9776  -20.3756   17.8993 C   0  0  0  0  0  0  0  0  0  0  0  0
   10.5344  -19.5342   18.8515 C   0  0  0  0  0  0  0  0  0  0  0  0
    9.9925  -18.2133   19.1617 C   0  0  0  0  0  0  0  0  0  0  0  0
   10.5041  -17.1220   18.2768 C   0  0  2  0  0  0  0  0  0  0  0  0
   10.1672  -17.4021   16.9149 N   0  0  0  0  0  0  0  0  0  0  0  0
   11.9853  -16.9993   18.4719 C   0  0  0  0  0  0  0  0  0  0  0  0
   12.7539  -16.9952   17.4764 O   0  0  0  0  0  0  0  0  0  0  0  0
   11.6462  -19.9846   19.5215 C   0  0  0  0  0  0  0  0  0  0  0  0
   12.1777  -21.2316   19.2456 C   0  0  0  0  0  0  0  0  0  0  0  0
   18.3021  -11.6639   19.5093 O   0  0  0  0  0  0  0  0  0  0  0  0
   17.1139  -12.4049   19.5238 C   0  0  0  0  0  0  0  0  0  0  0  0
   16.5478  -12.7725   20.7252 C   0  0  0  0  0  0  0  0  0  0  0  0
   15.3638  -13.5109   20.7422 C   0  0  0  0  0  0  0  0  0  0  0  0
   14.7440  -13.8835   19.5740 C   0  0  0  0  0  0  0  0  0  0  0  0
   13.5012  -14.6637   19.5618 C   0  0  0  0  0  0  0  0  0  0  0  0
   13.7526  -16.0713   19.9914 C   0  0  2  0  0  0  0  0  0  0  0  0
   12.5438  -16.8866   19.7732 N   0  0  0  0  0  0  0  0  0  0  0  0
   14.1747  -16.1936   21.3935 C   0  0  0  0  0  0  0  0  0  0  0  0
   13.2197  -16.2461   22.3931 O   0  0  0  0  0  0  0  0  0  0  0  0
   15.3213  -13.5090   18.3833 C   0  0  0  0  0  0  0  0  0  0  0  0
   16.4838  -12.7839   18.3628 C   0  0  0  0  0  0  0  0  0  0  0  0
   15.3752  -16.2538   21.7345 O   0  0  0  0  0  0  0  0  0  0  0  0
  2  1  1  6
  3  2  1  0
  4  5  2  0
  4  3  1  0
  6  5  1  0
  7  8  2  0
  7  6  1  0
  8  4  1  0
  9  2  1  0
 10  9  2  0
 12 11  1  0
 12 22  2  0
 13 12  1  0
 14 13  2  0
 14 15  1  0
 15 21  2  0
 16 15  1  0
 17 16  1  1
 17 18  1  0
 18  9  1  0
 19 20  2  0
 19 17  1  0
 21 22  1  0
 24 34  2  0
 24 23  1  0
 25 24  1  0
 26 27  1  0
 26 25  2  0
 27 33  2  0
 29 28  1  1
 28 27  1  0
 29 30  1  0
 30 19  1  0
 31 32  1  0
 31 29  1  0
 33 34  1  0
 35 31  2  0
M  END
$$$$
