HYY.pdb
     RDKit          3D

 35 37  0  0  1  0  0  0  0  0999 V2000
    5.7208  -16.7515   22.7184 N   0  0  0  0  0  0  0  0  0  0  0  0
    6.5566  -17.8223   22.2110 C   0  0  1  0  0  0  0  0  0  0  0  0
    6.0759  -18.2832   20.8409 C   0  0  0  0  0  0  0  0  0  0  0  0
    4.6660  -18.7362   20.9776 C   0  0  0  0  0  0  0  0  0  0  0  0
    3.9919  -18.9984   22.1595 C   0  0  0  0  0  0  0  0  0  0  0  0
    2.7277  -19.3863   21.8307 N   0  0  0  0  0  0  0  0  0  0  0  0
    2.6078  -19.3696   20.4894 C   0  0  0  0  0  0  0  0  0  0  0  0
    3.7749  -18.9786   19.9845 N   0  0  0  0  0  0  0  0  0  0  0  0
    7.9834  -17.4292   22.1761 C   0  0  0  0  0  0  0  0  0  0  0  0
    8.8628  -18.1863   21.7029 O   0  0  0  0  0  0  0  0  0  0  0  0
    7.5780  -13.2369   17.1690 O   0  0  0  0  0  0  0  0  0  0  0  0
    8.1147  -13.4873   18.4301 C   0  0  0  0  0  0  0  0  0  0  0  0
    7.4576  -13.0417   19.5600 C   0  0  0  0  0  0  0  0  0  0  0  0
    7.9785  -13.2828   20.8194 C   0  0  0  0  0  0  0  0  0  0  0  0
    9.1680  -13.9736   21.0001 C   0  0  0  0  0  0  0  0  0  0  0  0
    9.7408  -14.2424   22.3170 C   0  0  0  0  0  0  0  0  0  0  0  0
    9.7202  -15.6857   22.7071 C   0  0  2  0  0  0  0  0  0  0  0  0
    8.3766  -16.1767   22.6835 N   0  0  0  0  0  0  0  0  0  0  0  0
   10.3424  -15.8260   24.0638 C   0  0  0  0  0  0  0  0  0  0  0  0
   11.5844  -15.6873   24.2050 O   0  0  0  0  0  0  0  0  0  0  0  0
    9.8203  -14.4160   19.8746 C   0  0  0  0  0  0  0  0  0  0  0  0
    9.2977  -14.1738   18.6168 C   0  0  0  0  0  0  0  0  0  0  0  0
    5.5512  -12.0873   26.0207 O   0  0  0  0  0  0  0  0  0  0  0  0
    6.6586  -12.8714   26.3669 C   0  0  0  0  0  0  0  0  0  0  0  0
    6.4764  -14.1717   26.7850 C   0  0  0  0  0  0  0  0  0  0  0  0
    7.5784  -14.9550   27.1305 C   0  0  0  0  0  0  0  0  0  0  0  0
    8.8551  -14.4518   27.0621 C   0  0  0  0  0  0  0  0  0  0  0  0
   10.0316  -15.2509   27.4236 C   0  0  0  0  0  0  0  0  0  0  0  0
   10.1911  -16.4117   26.4984 C   0  0  2  0  0  0  0  0  0  0  0  0
    9.5480  -16.1156   25.2053 N   0  0  0  0  0  0  0  0  0  0  0  0
    9.6520  -17.6700   27.0324 C   0  0  0  0  0  0  0  0  0  0  0  0
   10.1778  -18.1995   28.1973 O   0  0  0  0  0  0  0  0  0  0  0  0
    9.0204  -13.1525   26.6430 C   0  0  0  0  0  0  0  0  0  0  0  0
    7.9407  -12.3805   26.3028 C   0  0  0  0  0  0  0  0  0  0  0  0
    8.7252  -18.2972   26.4767 O   0  0  0  0  0  0  0  0  0  0  0  0
  2  1  1  6
  3  2  1  0
  4  5  2  0
  4  3  1  0
  6  5  1  0
  7  8  2  0
  7  6  1  0
  8  4  1  0
  9  2  1  0
 10  9  2  0
 12 11  1  0
 12 22  2  0
 13 12  1  0
 14 13  2  0
 14 15  1  0
 15 21  2  0
 16 15  1  0
 17 16  1  1
 17 18  1  0
 18  9  1  0
 19 20  2  0
 19 17  1  0
 21 22  1  0
 24 34  2  0
 24 23  1  0
 25 24  1  0
 26 27  1  0
 26 25  2  0
 27 33  2  0
 29 28  1  1
 28 27  1  0
 29 30  1  0
 30 19  1  0
 31 32  1  0
 31 29  1  0
 33 34  1  0
 35 31  2  0
M  END
$$$$
