HYY.pdb
     RDKit          3D

 35 37  0  0  1  0  0  0  0  0999 V2000
    9.0475  -16.6409   19.1918 N   0  0  0  0  0  0  0  0  0  0  0  0
    8.3485  -15.5242   19.7974 C   0  0  1  0  0  0  0  0  0  0  0  0
    7.2179  -15.0398   18.8987 C   0  0  0  0  0  0  0  0  0  0  0  0
    7.8119  -14.6103   17.6048 C   0  0  0  0  0  0  0  0  0  0  0  0
    8.3088  -13.3535   17.2989 C   0  0  0  0  0  0  0  0  0  0  0  0
    8.7554  -13.3934   16.0122 N   0  0  0  0  0  0  0  0  0  0  0  0
    8.5479  -14.6310   15.5231 C   0  0  0  0  0  0  0  0  0  0  0  0
    7.9815  -15.3554   16.4844 N   0  0  0  0  0  0  0  0  0  0  0  0
    7.8527  -15.8617   21.1508 C   0  0  0  0  0  0  0  0  0  0  0  0
    7.2018  -15.0394   21.8368 O   0  0  0  0  0  0  0  0  0  0  0  0
    8.2260  -20.8025   28.5771 O   0  0  0  0  0  0  0  0  0  0  0  0
    8.1559  -20.3548   27.2596 C   0  0  0  0  0  0  0  0  0  0  0  0
    6.9643  -19.8683   26.7592 C   0  0  0  0  0  0  0  0  0  0  0  0
    6.8792  -19.4200   25.4525 C   0  0  0  0  0  0  0  0  0  0  0  0
    7.9727  -19.4393   24.5990 C   0  0  0  0  0  0  0  0  0  0  0  0
    7.9118  -18.9726   23.2158 C   0  0  0  0  0  0  0  0  0  0  0  0
    7.9597  -17.4851   23.0722 C   0  0  2  0  0  0  0  0  0  0  0  0
    8.1116  -17.1343   21.6935 N   0  0  0  0  0  0  0  0  0  0  0  0
    9.0851  -16.9571   23.9100 C   0  0  0  0  0  0  0  0  0  0  0  0
   10.2768  -17.2051   23.5932 O   0  0  0  0  0  0  0  0  0  0  0  0
    9.1574  -19.9237   25.0988 C   0  0  0  0  0  0  0  0  0  0  0  0
    9.2400  -20.3712   26.4052 C   0  0  0  0  0  0  0  0  0  0  0  0
    4.9637  -12.5122   28.2632 O   0  0  0  0  0  0  0  0  0  0  0  0
    6.1707  -12.9114   27.6759 C   0  0  0  0  0  0  0  0  0  0  0  0
    7.3060  -13.0261   28.4484 C   0  0  0  0  0  0  0  0  0  0  0  0
    8.5099  -13.4236   27.8655 C   0  0  0  0  0  0  0  0  0  0  0  0
    8.5884  -13.7060   26.5232 C   0  0  0  0  0  0  0  0  0  0  0  0
    9.8416  -14.1215   25.8828 C   0  0  0  0  0  0  0  0  0  0  0  0
    9.9500  -15.6099   25.8415 C   0  0  2  0  0  0  0  0  0  0  0  0
    8.8293  -16.1740   25.0673 N   0  0  0  0  0  0  0  0  0  0  0  0
    9.9861  -16.2358   27.1704 C   0  0  0  0  0  0  0  0  0  0  0  0
    8.9837  -17.1147   27.5399 O   0  0  0  0  0  0  0  0  0  0  0  0
    7.4467  -13.5869   25.7658 C   0  0  0  0  0  0  0  0  0  0  0  0
    6.2628  -13.1969   26.3348 C   0  0  0  0  0  0  0  0  0  0  0  0
   10.8938  -16.0098   27.9988 O   0  0  0  0  0  0  0  0  0  0  0  0
  2  1  1  6
  3  2  1  0
  4  5  2  0
  4  3  1  0
  6  5  1  0
  7  8  2  0
  7  6  1  0
  8  4  1  0
  9  2  1  0
 10  9  2  0
 12 11  1  0
 12 22  2  0
 13 12  1  0
 14 13  2  0
 14 15  1  0
 15 21  2  0
 16 15  1  0
 17 16  1  6
 17 18  1  0
 18  9  1  0
 19 20  2  0
 19 17  1  0
 21 22  1  0
 24 34  2  0
 24 23  1  0
 25 24  1  0
 26 27  1  0
 26 25  2  0
 27 33  2  0
 29 28  1  1
 28 27  1  0
 29 30  1  0
 30 19  1  0
 31 32  1  0
 31 29  1  0
 33 34  1  0
 35 31  2  0
M  END
$$$$
