HYY.pdb
     RDKit          3D

 35 37  0  0  1  0  0  0  0  0999 V2000
    7.9602  -16.7374   19.8536 N   0  0  0  0  0  0  0  0  0  0  0  0
    7.8215  -15.7306   20.8878 C   0  0  1  0  0  0  0  0  0  0  0  0
    6.8059  -14.6707   20.4808 C   0  0  0  0  0  0  0  0  0  0  0  0
    7.3771  -13.9000   19.3444 C   0  0  0  0  0  0  0  0  0  0  0  0
    8.1075  -12.7252   19.4253 C   0  0  0  0  0  0  0  0  0  0  0  0
    8.4348  -12.3600   18.1540 N   0  0  0  0  0  0  0  0  0  0  0  0
    7.9292  -13.2714   17.3010 C   0  0  0  0  0  0  0  0  0  0  0  0
    7.2960  -14.1923   18.0227 N   0  0  0  0  0  0  0  0  0  0  0  0
    7.4736  -16.3356   22.1934 C   0  0  0  0  0  0  0  0  0  0  0  0
    6.4642  -17.0651   22.3321 O   0  0  0  0  0  0  0  0  0  0  0  0
    8.4570  -21.3870   29.0637 O   0  0  0  0  0  0  0  0  0  0  0  0
    8.4722  -20.6179   27.9020 C   0  0  0  0  0  0  0  0  0  0  0  0
    7.2917  -20.1119   27.3947 C   0  0  0  0  0  0  0  0  0  0  0  0
    7.2910  -19.3463   26.2417 C   0  0  0  0  0  0  0  0  0  0  0  0
    8.4605  -19.0570   25.5537 C   0  0  0  0  0  0  0  0  0  0  0  0
    8.4894  -18.2518   24.3350 C   0  0  0  0  0  0  0  0  0  0  0  0
    8.2058  -16.8006   24.5568 C   0  0  2  0  0  0  0  0  0  0  0  0
    8.2878  -16.0938   23.3156 N   0  0  0  0  0  0  0  0  0  0  0  0
    9.1776  -16.2697   25.5672 C   0  0  0  0  0  0  0  0  0  0  0  0
   10.4117  -16.2885   25.3251 O   0  0  0  0  0  0  0  0  0  0  0  0
    9.6340  -19.5614   26.0603 C   0  0  0  0  0  0  0  0  0  0  0  0
    9.6323  -20.3264   27.2128 C   0  0  0  0  0  0  0  0  0  0  0  0
    5.9339  -10.7874   24.9093 O   0  0  0  0  0  0  0  0  0  0  0  0
    6.6939  -11.5732   25.7845 C   0  0  0  0  0  0  0  0  0  0  0  0
    8.0679  -11.5852   25.6804 C   0  0  0  0  0  0  0  0  0  0  0  0
    8.8272  -12.3675   26.5515 C   0  0  0  0  0  0  0  0  0  0  0  0
    8.2277  -13.1344   27.5210 C   0  0  0  0  0  0  0  0  0  0  0  0
    9.0006  -13.9699   28.4472 C   0  0  0  0  0  0  0  0  0  0  0  0
    9.6794  -15.0828   27.7196 C   0  0  2  0  0  0  0  0  0  0  0  0
    8.7273  -15.7403   26.8061 N   0  0  0  0  0  0  0  0  0  0  0  0
   10.2760  -16.0905   28.6071 C   0  0  0  0  0  0  0  0  0  0  0  0
    9.8439  -17.4030   28.5396 O   0  0  0  0  0  0  0  0  0  0  0  0
    6.8557  -13.1116   27.6122 C   0  0  0  0  0  0  0  0  0  0  0  0
    6.1068  -12.3446   26.7586 C   0  0  0  0  0  0  0  0  0  0  0  0
   11.1707  -15.8162   29.4351 O   0  0  0  0  0  0  0  0  0  0  0  0
  2  1  1  6
  3  2  1  0
  4  5  2  0
  4  3  1  0
  6  5  1  0
  7  8  2  0
  7  6  1  0
  8  4  1  0
  9  2  1  0
 10  9  2  0
 12 11  1  0
 12 22  2  0
 13 12  1  0
 14 13  2  0
 14 15  1  0
 15 21  2  0
 16 15  1  0
 17 16  1  6
 17 18  1  0
 18  9  1  0
 19 20  2  0
 19 17  1  0
 21 22  1  0
 24 34  2  0
 24 23  1  0
 25 24  1  0
 26 27  1  0
 26 25  2  0
 27 33  2  0
 29 28  1  1
 28 27  1  0
 29 30  1  0
 30 19  1  0
 31 32  1  0
 31 29  1  0
 33 34  1  0
 35 31  2  0
M  END
$$$$
