HYY.pdb
     RDKit          3D

 35 37  0  0  1  0  0  0  0  0999 V2000
   11.4777  -17.4101   18.2841 N   0  0  0  0  0  0  0  0  0  0  0  0
   11.5020  -18.0863   19.5666 C   0  0  1  0  0  0  0  0  0  0  0  0
   12.7270  -18.9842   19.6836 C   0  0  0  0  0  0  0  0  0  0  0  0
   12.6229  -20.0408   18.6421 C   0  0  0  0  0  0  0  0  0  0  0  0
   12.8679  -19.8934   17.2863 C   0  0  0  0  0  0  0  0  0  0  0  0
   12.6553  -21.1046   16.6993 N   0  0  0  0  0  0  0  0  0  0  0  0
   12.2893  -21.9852   17.6503 C   0  0  0  0  0  0  0  0  0  0  0  0
   12.2721  -21.3395   18.8133 N   0  0  0  0  0  0  0  0  0  0  0  0
   11.4305  -17.1252   20.6902 C   0  0  0  0  0  0  0  0  0  0  0  0
   12.2769  -16.2116   20.8291 O   0  0  0  0  0  0  0  0  0  0  0  0
    6.9412  -12.8169   18.4695 O   0  0  0  0  0  0  0  0  0  0  0  0
    7.3858  -13.5915   19.5389 C   0  0  0  0  0  0  0  0  0  0  0  0
    8.0960  -13.0042   20.5673 C   0  0  0  0  0  0  0  0  0  0  0  0
    8.5442  -13.7606   21.6362 C   0  0  0  0  0  0  0  0  0  0  0  0
    8.3030  -15.1242   21.7207 C   0  0  0  0  0  0  0  0  0  0  0  0
    8.7638  -15.9469   22.8367 C   0  0  0  0  0  0  0  0  0  0  0  0
   10.2015  -16.3474   22.7452 C   0  0  2  0  0  0  0  0  0  0  0  0
   10.3912  -17.2281   21.6338 N   0  0  0  0  0  0  0  0  0  0  0  0
   10.6058  -16.9865   24.0396 C   0  0  0  0  0  0  0  0  0  0  0  0
   10.5287  -18.2342   24.1775 O   0  0  0  0  0  0  0  0  0  0  0  0
    7.5962  -15.7066   20.6964 C   0  0  0  0  0  0  0  0  0  0  0  0
    7.1493  -14.9485   19.6291 C   0  0  0  0  0  0  0  0  0  0  0  0
    8.1568  -12.2185   29.0445 O   0  0  0  0  0  0  0  0  0  0  0  0
    9.1426  -13.1119   28.6073 C   0  0  0  0  0  0  0  0  0  0  0  0
    9.6699  -12.9873   27.3403 C   0  0  0  0  0  0  0  0  0  0  0  0
   10.6523  -13.8763   26.9023 C   0  0  0  0  0  0  0  0  0  0  0  0
   11.1100  -14.8842   27.7163 C   0  0  0  0  0  0  0  0  0  0  0  0
   12.1385  -15.8359   27.2807 C   0  0  0  0  0  0  0  0  0  0  0  0
   11.5619  -16.8557   26.3552 C   0  0  2  0  0  0  0  0  0  0  0  0
   11.0794  -16.2020   25.1251 N   0  0  0  0  0  0  0  0  0  0  0  0
   10.4706  -17.6406   26.9484 C   0  0  0  0  0  0  0  0  0  0  0  0
   10.7459  -18.5309   27.9709 O   0  0  0  0  0  0  0  0  0  0  0  0
   10.5740  -14.9953   28.9779 C   0  0  0  0  0  0  0  0  0  0  0  0
    9.6092  -14.1241   29.4113 C   0  0  0  0  0  0  0  0  0  0  0  0
    9.2843  -17.5425   26.5686 O   0  0  0  0  0  0  0  0  0  0  0  0
  2  1  1  6
  3  2  1  0
  4  5  2  0
  4  3  1  0
  6  5  1  0
  7  8  2  0
  7  6  1  0
  8  4  1  0
  9  2  1  0
 10  9  2  0
 12 11  1  0
 12 22  2  0
 13 12  1  0
 14 13  2  0
 14 15  1  0
 15 21  2  0
 16 15  1  0
 17 16  1  1
 17 18  1  0
 18  9  1  0
 19 20  2  0
 19 17  1  0
 21 22  1  0
 24 34  2  0
 24 23  1  0
 25 24  1  0
 26 27  1  0
 26 25  2  0
 27 33  2  0
 29 28  1  1
 28 27  1  0
 29 30  1  0
 30 19  1  0
 31 32  1  0
 31 29  1  0
 33 34  1  0
 35 31  2  0
M  END
$$$$
