HYY.pdb
     RDKit          3D

 35 37  0  0  1  0  0  0  0  0999 V2000
    7.8708  -16.8749   17.4728 N   0  0  0  0  0  0  0  0  0  0  0  0
    8.6600  -17.2230   18.6384 C   0  0  1  0  0  0  0  0  0  0  0  0
   10.0778  -17.6102   18.2379 C   0  0  0  0  0  0  0  0  0  0  0  0
   10.0884  -19.0667   17.9377 C   0  0  0  0  0  0  0  0  0  0  0  0
    9.0165  -19.9395   18.0343 C   0  0  0  0  0  0  0  0  0  0  0  0
    9.4615  -21.1742   17.6681 N   0  0  0  0  0  0  0  0  0  0  0  0
   10.7675  -21.0844   17.3517 C   0  0  0  0  0  0  0  0  0  0  0  0
   11.1365  -19.8169   17.5159 N   0  0  0  0  0  0  0  0  0  0  0  0
    8.6628  -16.1324   19.6394 C   0  0  0  0  0  0  0  0  0  0  0  0
    8.1919  -15.0004   19.3800 O   0  0  0  0  0  0  0  0  0  0  0  0
    6.3465  -12.0768   26.7882 O   0  0  0  0  0  0  0  0  0  0  0  0
    6.6411  -12.8776   25.6869 C   0  0  0  0  0  0  0  0  0  0  0  0
    6.3609  -14.2293   25.7226 C   0  0  0  0  0  0  0  0  0  0  0  0
    6.6478  -15.0376   24.6364 C   0  0  0  0  0  0  0  0  0  0  0  0
    7.2221  -14.5323   23.4789 C   0  0  0  0  0  0  0  0  0  0  0  0
    7.5355  -15.3617   22.3177 C   0  0  0  0  0  0  0  0  0  0  0  0
    8.9997  -15.5165   22.0571 C   0  0  2  0  0  0  0  0  0  0  0  0
    9.2047  -16.3582   20.9185 N   0  0  0  0  0  0  0  0  0  0  0  0
    9.6508  -16.0730   23.2875 C   0  0  0  0  0  0  0  0  0  0  0  0
    9.4056  -17.2515   23.6521 O   0  0  0  0  0  0  0  0  0  0  0  0
    7.5001  -13.1871   23.4454 C   0  0  0  0  0  0  0  0  0  0  0  0
    7.2124  -12.3813   24.5323 C   0  0  0  0  0  0  0  0  0  0  0  0
   10.6944  -16.2646   31.6289 O   0  0  0  0  0  0  0  0  0  0  0  0
   10.8851  -15.8857   30.2943 C   0  0  0  0  0  0  0  0  0  0  0  0
   11.4192  -16.7826   29.3948 C   0  0  0  0  0  0  0  0  0  0  0  0
   11.6102  -16.4074   28.0644 C   0  0  0  0  0  0  0  0  0  0  0  0
   11.2734  -15.1490   27.6275 C   0  0  0  0  0  0  0  0  0  0  0  0
   11.4674  -14.7258   26.2359 C   0  0  0  0  0  0  0  0  0  0  0  0
   11.1405  -15.8352   25.2919 C   0  0  2  0  0  0  0  0  0  0  0  0
   10.5488  -15.2869   24.0579 N   0  0  0  0  0  0  0  0  0  0  0  0
   10.2348  -16.8441   25.8583 C   0  0  0  0  0  0  0  0  0  0  0  0
   10.7563  -18.0115   26.3867 O   0  0  0  0  0  0  0  0  0  0  0  0
   10.7414  -14.2655   28.5372 C   0  0  0  0  0  0  0  0  0  0  0  0
   10.5525  -14.6305   29.8443 C   0  0  0  0  0  0  0  0  0  0  0  0
    8.9943  -16.6978   25.8872 O   0  0  0  0  0  0  0  0  0  0  0  0
  2  1  1  6
  3  2  1  0
  4  5  2  0
  4  3  1  0
  6  5  1  0
  7  8  2  0
  7  6  1  0
  8  4  1  0
  9  2  1  0
 10  9  2  0
 12 11  1  0
 12 22  2  0
 13 12  1  0
 14 13  2  0
 14 15  1  0
 15 21  2  0
 16 15  1  0
 17 16  1  1
 17 18  1  0
 18  9  1  0
 19 20  2  0
 19 17  1  0
 21 22  1  0
 24 34  2  0
 24 23  1  0
 25 24  1  0
 26 27  1  0
 26 25  2  0
 27 33  2  0
 29 28  1  1
 28 27  1  0
 29 30  1  0
 30 19  1  0
 31 32  1  0
 31 29  1  0
 33 34  1  0
 35 31  2  0
M  END
$$$$
