HYY.pdb
     RDKit          3D

 35 37  0  0  1  0  0  0  0  0999 V2000
   11.9879  -17.1060   19.1082 N   0  0  0  0  0  0  0  0  0  0  0  0
   11.6783  -17.6723   20.4067 C   0  0  1  0  0  0  0  0  0  0  0  0
   12.8946  -18.3749   20.9963 C   0  0  0  0  0  0  0  0  0  0  0  0
   13.0848  -19.6553   20.2643 C   0  0  0  0  0  0  0  0  0  0  0  0
   12.1857  -20.7069   20.1886 C   0  0  0  0  0  0  0  0  0  0  0  0
   12.7566  -21.6774   19.4212 N   0  0  0  0  0  0  0  0  0  0  0  0
   13.9726  -21.2539   19.0265 C   0  0  0  0  0  0  0  0  0  0  0  0
   14.1624  -20.0398   19.5362 N   0  0  0  0  0  0  0  0  0  0  0  0
   11.1464  -16.6486   21.3343 C   0  0  0  0  0  0  0  0  0  0  0  0
   11.8907  -15.7910   21.8642 O   0  0  0  0  0  0  0  0  0  0  0  0
    7.6733  -13.1946   16.7506 O   0  0  0  0  0  0  0  0  0  0  0  0
    7.6943  -13.7335   18.0352 C   0  0  0  0  0  0  0  0  0  0  0  0
    8.0836  -12.9515   19.1047 C   0  0  0  0  0  0  0  0  0  0  0  0
    8.1095  -13.4729   20.3866 C   0  0  0  0  0  0  0  0  0  0  0  0
    7.7502  -14.7868   20.6502 C   0  0  0  0  0  0  0  0  0  0  0  0
    7.7680  -15.3633   21.9926 C   0  0  0  0  0  0  0  0  0  0  0  0
    9.1380  -15.6784   22.5020 C   0  0  2  0  0  0  0  0  0  0  0  0
    9.7722  -16.6259   21.6377 N   0  0  0  0  0  0  0  0  0  0  0  0
    9.0226  -16.1926   23.9054 C   0  0  0  0  0  0  0  0  0  0  0  0
    8.9311  -17.4287   24.1182 O   0  0  0  0  0  0  0  0  0  0  0  0
    7.3632  -15.5631   19.5847 C   0  0  0  0  0  0  0  0  0  0  0  0
    7.3381  -15.0398   18.3044 C   0  0  0  0  0  0  0  0  0  0  0  0
    5.2644  -10.7109   26.6408 O   0  0  0  0  0  0  0  0  0  0  0  0
    6.2396  -11.7001   26.8189 C   0  0  0  0  0  0  0  0  0  0  0  0
    7.3787  -11.6897   26.0434 C   0  0  0  0  0  0  0  0  0  0  0  0
    8.3519  -12.6743   26.2191 C   0  0  0  0  0  0  0  0  0  0  0  0
    8.1968  -13.6646   27.1587 C   0  0  0  0  0  0  0  0  0  0  0  0
    9.2012  -14.7150   27.3619 C   0  0  0  0  0  0  0  0  0  0  0  0
    9.0094  -15.8300   26.3878 C   0  0  2  0  0  0  0  0  0  0  0  0
    9.0143  -15.3013   25.0116 N   0  0  0  0  0  0  0  0  0  0  0  0
    7.7777  -16.6004   26.6079 C   0  0  0  0  0  0  0  0  0  0  0  0
    7.6411  -17.3578   27.7574 O   0  0  0  0  0  0  0  0  0  0  0  0
    7.0546  -13.6612   27.9247 C   0  0  0  0  0  0  0  0  0  0  0  0
    6.0970  -12.6959   27.7551 C   0  0  0  0  0  0  0  0  0  0  0  0
    6.8300  -16.6056   25.7937 O   0  0  0  0  0  0  0  0  0  0  0  0
  2  1  1  6
  3  2  1  0
  4  5  2  0
  4  3  1  0
  6  5  1  0
  7  8  2  0
  7  6  1  0
  8  4  1  0
  9  2  1  0
 10  9  2  0
 12 11  1  0
 12 22  2  0
 13 12  1  0
 14 13  2  0
 14 15  1  0
 15 21  2  0
 16 15  1  0
 17 16  1  6
 17 18  1  0
 18  9  1  0
 19 20  2  0
 19 17  1  0
 21 22  1  0
 24 34  2  0
 24 23  1  0
 25 24  1  0
 26 27  1  0
 26 25  2  0
 27 33  2  0
 29 28  1  1
 28 27  1  0
 29 30  1  0
 30 19  1  0
 31 32  1  0
 31 29  1  0
 33 34  1  0
 35 31  2  0
M  END
$$$$
