HYY.pdb
     RDKit          3D

 35 37  0  0  1  0  0  0  0  0999 V2000
    9.0219  -19.4106   19.5803 N   0  0  0  0  0  0  0  0  0  0  0  0
    8.4898  -18.8135   20.7898 C   0  0  1  0  0  0  0  0  0  0  0  0
    8.4193  -19.8378   21.9151 C   0  0  0  0  0  0  0  0  0  0  0  0
    7.4464  -20.8901   21.5178 C   0  0  0  0  0  0  0  0  0  0  0  0
    6.7413  -20.9581   20.3269 C   0  0  0  0  0  0  0  0  0  0  0  0
    5.9659  -22.0776   20.3754 N   0  0  0  0  0  0  0  0  0  0  0  0
    6.1740  -22.6943   21.5545 C   0  0  0  0  0  0  0  0  0  0  0  0
    7.0635  -21.9759   22.2344 N   0  0  0  0  0  0  0  0  0  0  0  0
    9.2674  -17.6211   21.1959 C   0  0  0  0  0  0  0  0  0  0  0  0
   10.5009  -17.5390   20.9904 O   0  0  0  0  0  0  0  0  0  0  0  0
    7.9854  -13.3362   16.2225 O   0  0  0  0  0  0  0  0  0  0  0  0
    8.0807  -13.5450   17.5967 C   0  0  0  0  0  0  0  0  0  0  0  0
    7.3404  -12.7673   18.4652 C   0  0  0  0  0  0  0  0  0  0  0  0
    7.4245  -12.9629   19.8328 C   0  0  0  0  0  0  0  0  0  0  0  0
    8.2453  -13.9360   20.3843 C   0  0  0  0  0  0  0  0  0  0  0  0
    8.3536  -14.1646   21.8233 C   0  0  0  0  0  0  0  0  0  0  0  0
    9.2414  -15.3095   22.1931 C   0  0  2  0  0  0  0  0  0  0  0  0
    8.6183  -16.5450   21.8297 N   0  0  0  0  0  0  0  0  0  0  0  0
    9.5288  -15.2400   23.6627 C   0  0  0  0  0  0  0  0  0  0  0  0
    9.6953  -14.1250   24.2202 O   0  0  0  0  0  0  0  0  0  0  0  0
    8.9810  -14.7086   19.5185 C   0  0  0  0  0  0  0  0  0  0  0  0
    8.8953  -14.5113   18.1520 C   0  0  0  0  0  0  0  0  0  0  0  0
    6.8603  -10.6659   27.2136 O   0  0  0  0  0  0  0  0  0  0  0  0
    7.0336  -12.0025   26.8333 C   0  0  0  0  0  0  0  0  0  0  0  0
    7.2484  -12.3181   25.5093 C   0  0  0  0  0  0  0  0  0  0  0  0
    7.4213  -13.6493   25.1280 C   0  0  0  0  0  0  0  0  0  0  0  0
    7.3814  -14.6630   26.0546 C   0  0  0  0  0  0  0  0  0  0  0  0
    7.5553  -16.0715   25.6816 C   0  0  0  0  0  0  0  0  0  0  0  0
    8.9895  -16.4745   25.7790 C   0  0  2  0  0  0  0  0  0  0  0  0
    9.6178  -16.4215   24.4463 N   0  0  0  0  0  0  0  0  0  0  0  0
    9.1890  -17.8103   26.3574 C   0  0  0  0  0  0  0  0  0  0  0  0
    9.8083  -18.7946   25.6080 O   0  0  0  0  0  0  0  0  0  0  0  0
    7.1662  -14.3318   27.3719 C   0  0  0  0  0  0  0  0  0  0  0  0
    6.9960  -13.0258   27.7499 C   0  0  0  0  0  0  0  0  0  0  0  0
    8.8205  -18.1073   27.5138 O   0  0  0  0  0  0  0  0  0  0  0  0
  2  1  1  6
  3  2  1  0
  4  5  2  0
  4  3  1  0
  6  5  1  0
  7  8  2  0
  7  6  1  0
  8  4  1  0
  9  2  1  0
 10  9  2  0
 12 11  1  0
 12 22  2  0
 13 12  1  0
 14 13  2  0
 14 15  1  0
 15 21  2  0
 16 15  1  0
 17 16  1  1
 17 18  1  0
 18  9  1  0
 19 20  2  0
 19 17  1  0
 21 22  1  0
 24 34  2  0
 24 23  1  0
 25 24  1  0
 26 27  1  0
 26 25  2  0
 27 33  2  0
 29 28  1  6
 28 27  1  0
 29 30  1  0
 30 19  1  0
 31 32  1  0
 31 29  1  0
 33 34  1  0
 35 31  2  0
M  END
$$$$
