HYY.pdb
     RDKit          3D

 35 37  0  0  1  0  0  0  0  0999 V2000
    8.1974  -16.8778   19.9202 N   0  0  0  0  0  0  0  0  0  0  0  0
    7.8710  -15.5402   20.3749 C   0  0  1  0  0  0  0  0  0  0  0  0
    7.0198  -14.8093   19.3445 C   0  0  0  0  0  0  0  0  0  0  0  0
    7.7823  -14.7633   18.0685 C   0  0  0  0  0  0  0  0  0  0  0  0
    7.3503  -15.2091   16.8297 C   0  0  0  0  0  0  0  0  0  0  0  0
    8.3561  -14.9786   15.9398 N   0  0  0  0  0  0  0  0  0  0  0  0
    9.3862  -14.4079   16.5932 C   0  0  0  0  0  0  0  0  0  0  0  0
    9.0344  -14.2819   17.8699 N   0  0  0  0  0  0  0  0  0  0  0  0
    7.2112  -15.5615   21.6999 C   0  0  0  0  0  0  0  0  0  0  0  0
    6.7692  -14.5163   22.2314 O   0  0  0  0  0  0  0  0  0  0  0  0
    1.9472  -19.9933   20.3223 O   0  0  0  0  0  0  0  0  0  0  0  0
    2.9464  -19.5833   21.2024 C   0  0  0  0  0  0  0  0  0  0  0  0
    4.2636  -19.9142   20.9526 C   0  0  0  0  0  0  0  0  0  0  0  0
    5.2672  -19.5141   21.8177 C   0  0  0  0  0  0  0  0  0  0  0  0
    4.9979  -18.7726   22.9589 C   0  0  0  0  0  0  0  0  0  0  0  0
    6.0367  -18.3368   23.8892 C   0  0  0  0  0  0  0  0  0  0  0  0
    6.4811  -16.9234   23.6875 C   0  0  2  0  0  0  0  0  0  0  0  0
    7.0700  -16.7791   22.3916 N   0  0  0  0  0  0  0  0  0  0  0  0
    7.4406  -16.5604   24.7805 C   0  0  0  0  0  0  0  0  0  0  0  0
    7.8246  -15.3701   24.9124 O   0  0  0  0  0  0  0  0  0  0  0  0
    3.6867  -18.4444   23.2057 C   0  0  0  0  0  0  0  0  0  0  0  0
    2.6853  -18.8455   22.3396 C   0  0  0  0  0  0  0  0  0  0  0  0
    7.3964  -11.1844   25.1022 O   0  0  0  0  0  0  0  0  0  0  0  0
    7.5518  -12.4199   25.7429 C   0  0  0  0  0  0  0  0  0  0  0  0
    8.8132  -12.9399   25.9365 C   0  0  0  0  0  0  0  0  0  0  0  0
    8.9705  -14.1708   26.5747 C   0  0  0  0  0  0  0  0  0  0  0  0
    7.8828  -14.8831   27.0189 C   0  0  0  0  0  0  0  0  0  0  0  0
    8.0182  -16.1817   27.6888 C   0  0  0  0  0  0  0  0  0  0  0  0
    8.7635  -17.1485   26.8293 C   0  0  2  0  0  0  0  0  0  0  0  0
    7.9299  -17.5452   25.6799 N   0  0  0  0  0  0  0  0  0  0  0  0
    9.2090  -18.3521   27.5448 C   0  0  0  0  0  0  0  0  0  0  0  0
   10.2537  -18.2637   28.4474 O   0  0  0  0  0  0  0  0  0  0  0  0
    6.6308  -14.3508   26.8183 C   0  0  0  0  0  0  0  0  0  0  0  0
    6.4725  -13.1423   26.1921 C   0  0  0  0  0  0  0  0  0  0  0  0
    8.6817  -19.4722   27.3757 O   0  0  0  0  0  0  0  0  0  0  0  0
  2  1  1  6
  3  2  1  0
  4  5  2  0
  4  3  1  0
  6  5  1  0
  7  8  2  0
  7  6  1  0
  8  4  1  0
  9  2  1  0
 10  9  2  0
 12 11  1  0
 12 22  2  0
 13 12  1  0
 14 13  2  0
 14 15  1  0
 15 21  2  0
 16 15  1  0
 17 16  1  1
 17 18  1  0
 18  9  1  0
 19 20  2  0
 19 17  1  0
 21 22  1  0
 24 34  2  0
 24 23  1  0
 25 24  1  0
 26 27  1  0
 26 25  2  0
 27 33  2  0
 29 28  1  1
 28 27  1  0
 29 30  1  0
 30 19  1  0
 31 32  1  0
 31 29  1  0
 33 34  1  0
 35 31  2  0
M  END
$$$$
