HYY.pdb
     RDKit          3D

 35 37  0  0  1  0  0  0  0  0999 V2000
    8.3110  -19.7633   21.8429 N   0  0  0  0  0  0  0  0  0  0  0  0
    9.5692  -19.4333   21.2021 C   0  0  1  0  0  0  0  0  0  0  0  0
    9.5000  -19.6960   19.7031 C   0  0  0  0  0  0  0  0  0  0  0  0
    9.1543  -21.1286   19.5036 C   0  0  0  0  0  0  0  0  0  0  0  0
    9.6722  -22.2095   20.1989 C   0  0  0  0  0  0  0  0  0  0  0  0
    9.0860  -23.3340   19.7003 N   0  0  0  0  0  0  0  0  0  0  0  0
    8.2287  -22.9760   18.7253 C   0  0  0  0  0  0  0  0  0  0  0  0
    8.2752  -21.6513   18.6131 N   0  0  0  0  0  0  0  0  0  0  0  0
    9.9749  -18.0381   21.4854 C   0  0  0  0  0  0  0  0  0  0  0  0
   11.0325  -17.5533   21.0199 O   0  0  0  0  0  0  0  0  0  0  0  0
    7.6240  -12.0011   17.6251 O   0  0  0  0  0  0  0  0  0  0  0  0
    7.7241  -12.7662   18.7851 C   0  0  0  0  0  0  0  0  0  0  0  0
    8.7322  -12.5119   19.6940 C   0  0  0  0  0  0  0  0  0  0  0  0
    8.8444  -13.2634   20.8508 C   0  0  0  0  0  0  0  0  0  0  0  0
    7.9608  -14.2918   21.1447 C   0  0  0  0  0  0  0  0  0  0  0  0
    8.0552  -15.1009   22.3575 C   0  0  0  0  0  0  0  0  0  0  0  0
    9.3560  -15.8226   22.5086 C   0  0  2  0  0  0  0  0  0  0  0  0
    9.1620  -17.2241   22.2963 N   0  0  0  0  0  0  0  0  0  0  0  0
    9.9096  -15.5355   23.8717 C   0  0  0  0  0  0  0  0  0  0  0  0
   10.1958  -14.3556   24.2001 O   0  0  0  0  0  0  0  0  0  0  0  0
    6.9585  -14.5433   20.2391 C   0  0  0  0  0  0  0  0  0  0  0  0
    6.8483  -13.7908   19.0835 C   0  0  0  0  0  0  0  0  0  0  0  0
    6.1384  -11.1540   26.8810 O   0  0  0  0  0  0  0  0  0  0  0  0
    6.6078  -12.4573   26.6756 C   0  0  0  0  0  0  0  0  0  0  0  0
    7.8577  -12.8173   27.1305 C   0  0  0  0  0  0  0  0  0  0  0  0
    8.3276  -14.1154   26.9269 C   0  0  0  0  0  0  0  0  0  0  0  0
    7.5623  -15.0523   26.2755 C   0  0  0  0  0  0  0  0  0  0  0  0
    8.0326  -16.4228   26.0434 C   0  0  0  0  0  0  0  0  0  0  0  0
    9.5194  -16.5010   26.1541 C   0  0  2  0  0  0  0  0  0  0  0  0
   10.1197  -16.5813   24.8100 N   0  0  0  0  0  0  0  0  0  0  0  0
    9.9919  -17.6311   26.9656 C   0  0  0  0  0  0  0  0  0  0  0  0
   10.0409  -18.8977   26.4114 O   0  0  0  0  0  0  0  0  0  0  0  0
    6.3172  -14.6776   25.8276 C   0  0  0  0  0  0  0  0  0  0  0  0
    5.8526  -13.4039   26.0258 C   0  0  0  0  0  0  0  0  0  0  0  0
   10.3584  -17.5030   28.1532 O   0  0  0  0  0  0  0  0  0  0  0  0
  2  1  1  6
  3  2  1  0
  4  5  2  0
  4  3  1  0
  6  5  1  0
  7  8  2  0
  7  6  1  0
  8  4  1  0
  9  2  1  0
 10  9  2  0
 12 11  1  0
 12 22  2  0
 13 12  1  0
 14 13  2  0
 14 15  1  0
 15 21  2  0
 16 15  1  0
 17 16  1  1
 17 18  1  0
 18  9  1  0
 19 20  2  0
 19 17  1  0
 21 22  1  0
 24 34  2  0
 24 23  1  0
 25 24  1  0
 26 27  1  0
 26 25  2  0
 27 33  2  0
 29 28  1  6
 28 27  1  0
 29 30  1  0
 30 19  1  0
 31 32  1  0
 31 29  1  0
 33 34  1  0
 35 31  2  0
M  END
$$$$
