HYY.pdb
     RDKit          3D

 35 37  0  0  1  0  0  0  0  0999 V2000
    9.3395  -18.1041   19.2727 N   0  0  0  0  0  0  0  0  0  0  0  0
   10.4839  -17.2185   19.3660 C   0  0  1  0  0  0  0  0  0  0  0  0
   10.7530  -16.5368   18.0305 C   0  0  0  0  0  0  0  0  0  0  0  0
   10.9570  -17.5963   17.0071 C   0  0  0  0  0  0  0  0  0  0  0  0
   12.1506  -18.2279   16.6964 C   0  0  0  0  0  0  0  0  0  0  0  0
   11.8905  -19.1275   15.7065 N   0  0  0  0  0  0  0  0  0  0  0  0
   10.5797  -19.0661   15.4031 C   0  0  0  0  0  0  0  0  0  0  0  0
   10.0264  -18.1452   16.1876 N   0  0  0  0  0  0  0  0  0  0  0  0
   10.3175  -16.2266   20.4523 C   0  0  0  0  0  0  0  0  0  0  0  0
   11.2475  -15.4567   20.7880 O   0  0  0  0  0  0  0  0  0  0  0  0
    5.9631  -11.5503   26.6388 O   0  0  0  0  0  0  0  0  0  0  0  0
    6.3060  -12.4047   25.5931 C   0  0  0  0  0  0  0  0  0  0  0  0
    7.0184  -11.9215   24.5133 C   0  0  0  0  0  0  0  0  0  0  0  0
    7.3664  -12.7581   23.4671 C   0  0  0  0  0  0  0  0  0  0  0  0
    7.0194  -14.1014   23.4569 C   0  0  0  0  0  0  0  0  0  0  0  0
    7.3732  -15.0072   22.3666 C   0  0  0  0  0  0  0  0  0  0  0  0
    8.8375  -15.2910   22.2613 C   0  0  2  0  0  0  0  0  0  0  0  0
    9.0895  -16.1348   21.1337 N   0  0  0  0  0  0  0  0  0  0  0  0
    9.2990  -15.9181   23.5423 C   0  0  0  0  0  0  0  0  0  0  0  0
    9.1166  -17.1460   23.7444 O   0  0  0  0  0  0  0  0  0  0  0  0
    6.3106  -14.5801   24.5322 C   0  0  0  0  0  0  0  0  0  0  0  0
    5.9640  -13.7421   25.5768 C   0  0  0  0  0  0  0  0  0  0  0  0
   11.9339  -16.8760   31.8814 O   0  0  0  0  0  0  0  0  0  0  0  0
   11.6694  -16.3468   30.6121 C   0  0  0  0  0  0  0  0  0  0  0  0
   11.9891  -17.0721   29.4848 C   0  0  0  0  0  0  0  0  0  0  0  0
   11.7266  -16.5469   28.2189 C   0  0  0  0  0  0  0  0  0  0  0  0
   11.1499  -15.3086   28.0709 C   0  0  0  0  0  0  0  0  0  0  0  0
   10.8668  -14.7297   26.7525 C   0  0  0  0  0  0  0  0  0  0  0  0
   10.3562  -15.7712   25.8126 C   0  0  2  0  0  0  0  0  0  0  0  0
    9.9453  -15.1443   24.5431 N   0  0  0  0  0  0  0  0  0  0  0  0
    9.2366  -16.5550   26.3522 C   0  0  0  0  0  0  0  0  0  0  0  0
    9.4747  -17.8075   26.8891 O   0  0  0  0  0  0  0  0  0  0  0  0
   10.8366  -14.5973   29.2054 C   0  0  0  0  0  0  0  0  0  0  0  0
   11.0929  -15.1099   30.4500 C   0  0  0  0  0  0  0  0  0  0  0  0
    8.0584  -16.1390   26.3505 O   0  0  0  0  0  0  0  0  0  0  0  0
  2  1  1  6
  3  2  1  0
  4  5  2  0
  4  3  1  0
  6  5  1  0
  7  8  2  0
  7  6  1  0
  8  4  1  0
  9  2  1  0
 10  9  2  0
 12 11  1  0
 12 22  2  0
 13 12  1  0
 14 13  2  0
 14 15  1  0
 15 21  2  0
 16 15  1  0
 17 16  1  1
 17 18  1  0
 18  9  1  0
 19 20  2  0
 19 17  1  0
 21 22  1  0
 24 34  2  0
 24 23  1  0
 25 24  1  0
 26 27  1  0
 26 25  2  0
 27 33  2  0
 29 28  1  1
 28 27  1  0
 29 30  1  0
 30 19  1  0
 31 32  1  0
 31 29  1  0
 33 34  1  0
 35 31  2  0
M  END
$$$$
