LKC.pdb
     RDKit          3D

 24 23  0  0  1  0  0  0  0  0999 V2000
    9.6928  -14.4278   19.6549 C   0  0  0  0  0  0  0  0  0  0  0  0
    8.3373  -14.0202   19.1558 C   0  0  2  0  0  0  0  0  0  0  0  0
    8.3048  -12.5374   18.9785 C   0  0  0  0  0  0  0  0  0  0  0  0
    7.2157  -14.5512   20.0094 C   0  0  0  0  0  0  0  0  0  0  0  0
    7.4937  -15.9084   20.5761 C   0  0  2  0  0  0  0  0  0  0  0  0
    6.8407  -16.9773   19.8994 N   0  0  0  0  0  0  0  0  0  0  0  0
    7.0500  -15.9112   21.9949 C   0  0  0  0  0  0  0  0  0  0  0  0
    5.8636  -15.6465   22.3013 O   0  0  0  0  0  0  0  0  0  0  0  0
    7.9508  -16.2128   23.0522 N   0  0  0  0  0  0  0  0  0  0  0  0
    7.4765  -16.3589   24.4507 C   0  0  1  0  0  0  0  0  0  0  0  0
    7.9208  -17.7329   24.8950 C   0  0  0  0  0  0  0  0  0  0  0  0
    7.5889  -18.0665   26.3176 C   0  0  0  0  0  0  0  0  0  0  0  0
    8.0827  -19.5091   26.5329 C   0  0  0  0  0  0  0  0  0  0  0  0
    7.8099  -19.8340   27.9858 C   0  0  0  0  0  0  0  0  0  0  0  0
    8.2297  -21.1932   28.2375 N   0  0  0  0  0  0  0  0  0  0  0  0
    8.0480  -15.2526   25.2352 C   0  0  0  0  0  0  0  0  0  0  0  0
    9.3110  -15.0661   25.1756 O   0  0  0  0  0  0  0  0  0  0  0  0
    7.3490  -14.3543   26.0593 N   0  0  0  0  0  0  0  0  0  0  0  0
    7.9809  -13.3589   26.9049 C   0  0  1  0  0  0  0  0  0  0  0  0
    6.8597  -12.6549   27.6559 C   0  0  0  0  0  0  0  0  0  0  0  0
    5.6660  -12.0451   26.4202 S   0  0  0  0  0  0  0  0  0  0  0  0
    8.8524  -13.9907   27.9291 C   0  0  0  0  0  0  0  0  0  0  0  0
    8.9009  -15.2269   28.1152 O   0  0  0  0  0  0  0  0  0  0  0  0
    9.6399  -13.1600   28.7039 O   0  0  0  0  0  0  0  0  0  0  0  0
  2  1  1  1
  3  2  1  0
  4  2  1  0
  5  6  1  6
  5  4  1  0
  7  5  1  0
  8  7  2  0
  9  7  1  0
 10 11  1  1
 10  9  1  0
 11 12  1  0
 12 13  1  0
 13 14  1  0
 14 15  1  0
 16 10  1  0
 17 16  2  0
 18 16  1  0
 19 22  1  0
 19 18  1  0
 20 21  1  0
 19 20  1  1
 22 24  1  0
 23 22  2  0
M  END
$$$$
