LKC.pdb
     RDKit          3D

 24 23  0  0  1  0  0  0  0  0999 V2000
    6.0475  -12.3217   25.9857 C   0  0  0  0  0  0  0  0  0  0  0  0
    6.5347  -13.3245   26.9904 C   0  0  2  0  0  0  0  0  0  0  0  0
    7.3229  -12.6195   28.0453 C   0  0  0  0  0  0  0  0  0  0  0  0
    7.2686  -14.4775   26.3576 C   0  0  0  0  0  0  0  0  0  0  0  0
    6.4742  -15.1759   25.2984 C   0  0  2  0  0  0  0  0  0  0  0  0
    5.7967  -16.3467   25.7425 N   0  0  0  0  0  0  0  0  0  0  0  0
    7.4064  -15.5596   24.2059 C   0  0  0  0  0  0  0  0  0  0  0  0
    7.9861  -16.6711   24.2120 O   0  0  0  0  0  0  0  0  0  0  0  0
    7.6738  -14.6842   23.1185 N   0  0  0  0  0  0  0  0  0  0  0  0
    8.6943  -15.0171   22.0939 C   0  0  1  0  0  0  0  0  0  0  0  0
    8.5409  -13.9788   21.0071 C   0  0  0  0  0  0  0  0  0  0  0  0
    7.7980  -14.4501   19.7941 C   0  0  0  0  0  0  0  0  0  0  0  0
    8.4534  -13.7323   18.5998 C   0  0  0  0  0  0  0  0  0  0  0  0
    7.6320  -14.1041   17.3841 C   0  0  0  0  0  0  0  0  0  0  0  0
    8.1707  -13.4093   16.2377 N   0  0  0  0  0  0  0  0  0  0  0  0
   10.0094  -15.0150   22.7546 C   0  0  0  0  0  0  0  0  0  0  0  0
   10.1430  -14.3225   23.8205 O   0  0  0  0  0  0  0  0  0  0  0  0
   11.1616  -15.7051   22.3413 N   0  0  0  0  0  0  0  0  0  0  0  0
   12.2380  -16.1046   23.2284 C   0  0  1  0  0  0  0  0  0  0  0  0
   11.6263  -17.0506   24.2519 C   0  0  0  0  0  0  0  0  0  0  0  0
   12.9383  -17.5110   25.4310 S   0  0  0  0  0  0  0  0  0  0  0  0
   13.2819  -16.8741   22.5033 C   0  0  0  0  0  0  0  0  0  0  0  0
   13.0152  -17.7686   21.6702 O   0  0  0  0  0  0  0  0  0  0  0  0
   14.6043  -16.5756   22.7731 O   0  0  0  0  0  0  0  0  0  0  0  0
  2  1  1  6
  3  2  1  0
  4  2  1  0
  5  6  1  1
  5  4  1  0
  7  5  1  0
  8  7  2  0
  9  7  1  0
 10 11  1  6
 10  9  1  0
 11 12  1  0
 12 13  1  0
 13 14  1  0
 14 15  1  0
 16 10  1  0
 17 16  2  0
 18 16  1  0
 19 22  1  0
 19 18  1  0
 20 21  1  0
 19 20  1  1
 22 24  1  0
 23 22  2  0
M  END
$$$$
