LKC.pdb
     RDKit          3D

 24 23  0  0  1  0  0  0  0  0999 V2000
    9.3697  -13.4315   19.1363 C   0  0  0  0  0  0  0  0  0  0  0  0
    7.9718  -13.3542   19.6770 C   0  0  2  0  0  0  0  0  0  0  0  0
    7.5227  -11.9296   19.6751 C   0  0  0  0  0  0  0  0  0  0  0  0
    7.8233  -14.0324   21.0137 C   0  0  0  0  0  0  0  0  0  0  0  0
    8.1739  -15.4873   20.9821 C   0  0  2  0  0  0  0  0  0  0  0  0
    7.2618  -16.3000   20.2509 N   0  0  0  0  0  0  0  0  0  0  0  0
    8.2181  -15.9776   22.3848 C   0  0  0  0  0  0  0  0  0  0  0  0
    7.1657  -16.1346   23.0477 O   0  0  0  0  0  0  0  0  0  0  0  0
    9.4499  -16.2853   23.0236 N   0  0  0  0  0  0  0  0  0  0  0  0
    9.4909  -16.7744   24.4240 C   0  0  1  0  0  0  0  0  0  0  0  0
   10.4534  -17.9390   24.4256 C   0  0  0  0  0  0  0  0  0  0  0  0
    9.9948  -19.1287   23.6384 C   0  0  0  0  0  0  0  0  0  0  0  0
   11.1760  -20.1167   23.6515 C   0  0  0  0  0  0  0  0  0  0  0  0
   10.6934  -21.3576   22.9317 C   0  0  0  0  0  0  0  0  0  0  0  0
   11.7583  -22.3338   22.9381 N   0  0  0  0  0  0  0  0  0  0  0  0
    9.8984  -15.6485   25.2798 C   0  0  0  0  0  0  0  0  0  0  0  0
   11.0194  -15.0856   25.0353 O   0  0  0  0  0  0  0  0  0  0  0  0
    9.1792  -15.1059   26.3582 N   0  0  0  0  0  0  0  0  0  0  0  0
    9.7181  -14.1401   27.2974 C   0  0  1  0  0  0  0  0  0  0  0  0
    8.5493  -13.2742   27.7456 C   0  0  0  0  0  0  0  0  0  0  0  0
    7.6576  -12.7340   26.2500 S   0  0  0  0  0  0  0  0  0  0  0  0
   10.2506  -14.8053   28.5146 C   0  0  0  0  0  0  0  0  0  0  0  0
   10.2081  -16.0434   28.6896 O   0  0  0  0  0  0  0  0  0  0  0  0
   10.8159  -14.0048   29.4894 O   0  0  0  0  0  0  0  0  0  0  0  0
  2  1  1  1
  3  2  1  0
  4  2  1  0
  5  6  1  6
  5  4  1  0
  7  5  1  0
  8  7  2  0
  9  7  1  0
 10 11  1  6
 10  9  1  0
 11 12  1  0
 12 13  1  0
 13 14  1  0
 14 15  1  0
 16 10  1  0
 17 16  2  0
 18 16  1  0
 19 22  1  0
 19 18  1  0
 20 21  1  0
 19 20  1  1
 22 24  1  0
 23 22  2  0
M  END
$$$$
