LKC.pdb
     RDKit          3D

 24 23  0  0  1  0  0  0  0  0999 V2000
    8.9307  -12.1089   19.2949 C   0  0  0  0  0  0  0  0  0  0  0  0
    8.0888  -13.3499   19.2364 C   0  0  2  0  0  0  0  0  0  0  0  0
    6.7492  -13.0083   18.6706 C   0  0  0  0  0  0  0  0  0  0  0  0
    8.0204  -14.0732   20.5558 C   0  0  0  0  0  0  0  0  0  0  0  0
    9.3658  -14.3456   21.1526 C   0  0  2  0  0  0  0  0  0  0  0  0
   10.2863  -14.9806   20.2715 N   0  0  0  0  0  0  0  0  0  0  0  0
    9.1715  -15.2213   22.3381 C   0  0  0  0  0  0  0  0  0  0  0  0
    8.1127  -15.1762   23.0079 O   0  0  0  0  0  0  0  0  0  0  0  0
   10.1746  -16.1381   22.7543 N   0  0  0  0  0  0  0  0  0  0  0  0
   10.0585  -16.8786   24.0351 C   0  0  1  0  0  0  0  0  0  0  0  0
   10.9777  -18.0708   23.9064 C   0  0  0  0  0  0  0  0  0  0  0  0
   10.7350  -18.9181   22.6945 C   0  0  0  0  0  0  0  0  0  0  0  0
   10.1814  -20.2537   23.2246 C   0  0  0  0  0  0  0  0  0  0  0  0
    9.9486  -21.1240   22.0084 C   0  0  0  0  0  0  0  0  0  0  0  0
    9.3699  -22.3740   22.4440 N   0  0  0  0  0  0  0  0  0  0  0  0
   10.4141  -15.9521   25.1219 C   0  0  0  0  0  0  0  0  0  0  0  0
   11.5401  -15.3516   25.0525 O   0  0  0  0  0  0  0  0  0  0  0  0
    9.6391  -15.6414   26.2521 N   0  0  0  0  0  0  0  0  0  0  0  0
   10.0895  -14.8029   27.3473 C   0  0  1  0  0  0  0  0  0  0  0  0
    8.9073  -13.9262   27.7350 C   0  0  0  0  0  0  0  0  0  0  0  0
    8.3913  -13.0064   26.2479 S   0  0  0  0  0  0  0  0  0  0  0  0
   10.4342  -15.6123   28.5446 C   0  0  0  0  0  0  0  0  0  0  0  0
   10.3146  -16.8570   28.5845 O   0  0  0  0  0  0  0  0  0  0  0  0
   10.9077  -14.9436   29.6579 O   0  0  0  0  0  0  0  0  0  0  0  0
  2  1  1  1
  3  2  1  0
  4  2  1  0
  5  6  1  6
  5  4  1  0
  7  5  1  0
  8  7  2  0
  9  7  1  0
 10 11  1  6
 10  9  1  0
 11 12  1  0
 12 13  1  0
 13 14  1  0
 14 15  1  0
 16 10  1  0
 17 16  2  0
 18 16  1  0
 19 22  1  0
 19 18  1  0
 20 21  1  0
 19 20  1  1
 22 24  1  0
 23 22  2  0
M  END
$$$$
