LKC.pdb
     RDKit          3D

 24 23  0  0  1  0  0  0  0  0999 V2000
    9.6448  -13.6405   19.6920 C   0  0  0  0  0  0  0  0  0  0  0  0
    8.2180  -13.6845   19.2288 C   0  0  2  0  0  0  0  0  0  0  0  0
    7.8054  -12.3211   18.7791 C   0  0  0  0  0  0  0  0  0  0  0  0
    7.2902  -14.2904   20.2490 C   0  0  0  0  0  0  0  0  0  0  0  0
    7.8032  -15.5709   20.8299 C   0  0  2  0  0  0  0  0  0  0  0  0
    7.3832  -16.7436   20.1405 N   0  0  0  0  0  0  0  0  0  0  0  0
    7.3281  -15.6581   22.2358 C   0  0  0  0  0  0  0  0  0  0  0  0
    6.3399  -14.9928   22.6261 O   0  0  0  0  0  0  0  0  0  0  0  0
    7.9739  -16.4954   23.1855 N   0  0  0  0  0  0  0  0  0  0  0  0
    7.4679  -16.6179   24.5751 C   0  0  1  0  0  0  0  0  0  0  0  0
    7.6743  -18.0636   24.9628 C   0  0  0  0  0  0  0  0  0  0  0  0
    6.6956  -19.0195   24.3514 C   0  0  0  0  0  0  0  0  0  0  0  0
    7.1086  -20.4155   24.8533 C   0  0  0  0  0  0  0  0  0  0  0  0
    6.2002  -21.4005   24.1493 C   0  0  0  0  0  0  0  0  0  0  0  0
    6.6377  -22.7387   24.4731 N   0  0  0  0  0  0  0  0  0  0  0  0
    8.2065  -15.6546   25.4073 C   0  0  0  0  0  0  0  0  0  0  0  0
    9.4671  -15.5492   25.2254 O   0  0  0  0  0  0  0  0  0  0  0  0
    7.6730  -14.8151   26.3999 N   0  0  0  0  0  0  0  0  0  0  0  0
    8.4582  -13.8957   27.2022 C   0  0  1  0  0  0  0  0  0  0  0  0
    7.4702  -12.9402   27.8560 C   0  0  0  0  0  0  0  0  0  0  0  0
    6.3257  -12.3589   26.5614 S   0  0  0  0  0  0  0  0  0  0  0  0
    9.1641  -14.6019   28.3024 C   0  0  0  0  0  0  0  0  0  0  0  0
    8.9981  -15.8168   28.5507 O   0  0  0  0  0  0  0  0  0  0  0  0
   10.0415  -13.8680   29.0785 O   0  0  0  0  0  0  0  0  0  0  0  0
  2  1  1  1
  3  2  1  0
  4  2  1  0
  5  6  1  6
  5  4  1  0
  7  5  1  0
  8  7  2  0
  9  7  1  0
 10 11  1  1
 10  9  1  0
 11 12  1  0
 12 13  1  0
 13 14  1  0
 14 15  1  0
 16 10  1  0
 17 16  2  0
 18 16  1  0
 19 22  1  0
 19 18  1  0
 20 21  1  0
 19 20  1  1
 22 24  1  0
 23 22  2  0
M  END
$$$$
