LKC.pdb
     RDKit          3D

 24 23  0  0  1  0  0  0  0  0999 V2000
    7.4960  -12.1106   27.7315 C   0  0  0  0  0  0  0  0  0  0  0  0
    6.5231  -12.0432   26.5907 C   0  0  2  0  0  0  0  0  0  0  0  0
    5.2073  -11.5488   27.0962 C   0  0  0  0  0  0  0  0  0  0  0  0
    6.4284  -13.3370   25.8254 C   0  0  0  0  0  0  0  0  0  0  0  0
    7.7279  -14.0758   25.7474 C   0  0  2  0  0  0  0  0  0  0  0  0
    8.8564  -13.2586   25.4547 N   0  0  0  0  0  0  0  0  0  0  0  0
    7.6056  -15.1052   24.6819 C   0  0  0  0  0  0  0  0  0  0  0  0
    6.6051  -15.8583   24.6232 O   0  0  0  0  0  0  0  0  0  0  0  0
    8.6141  -15.2730   23.6945 N   0  0  0  0  0  0  0  0  0  0  0  0
    8.5567  -16.3867   22.7156 C   0  0  1  0  0  0  0  0  0  0  0  0
    8.8836  -15.7733   21.3741 C   0  0  0  0  0  0  0  0  0  0  0  0
    7.9519  -14.6816   20.9433 C   0  0  0  0  0  0  0  0  0  0  0  0
    8.3991  -14.2893   19.5230 C   0  0  0  0  0  0  0  0  0  0  0  0
    7.4289  -13.2254   19.0562 C   0  0  0  0  0  0  0  0  0  0  0  0
    7.9503  -12.6288   17.8481 N   0  0  0  0  0  0  0  0  0  0  0  0
    9.5056  -17.4210   23.1579 C   0  0  0  0  0  0  0  0  0  0  0  0
    9.5110  -18.5356   22.5325 O   0  0  0  0  0  0  0  0  0  0  0  0
   10.4305  -17.3216   24.2111 N   0  0  0  0  0  0  0  0  0  0  0  0
   11.3878  -18.3549   24.5592 C   0  0  1  0  0  0  0  0  0  0  0  0
   12.6578  -17.6384   24.9956 C   0  0  0  0  0  0  0  0  0  0  0  0
   13.0672  -16.4103   23.7119 S   0  0  0  0  0  0  0  0  0  0  0  0
   10.9248  -19.1542   25.7230 C   0  0  0  0  0  0  0  0  0  0  0  0
    9.8169  -18.9759   26.2760 O   0  0  0  0  0  0  0  0  0  0  0  0
   11.7695  -20.1366   26.2049 O   0  0  0  0  0  0  0  0  0  0  0  0
  2  1  1  1
  3  2  1  0
  4  2  1  0
  5  6  1  6
  5  4  1  0
  7  5  1  0
  8  7  2  0
  9  7  1  0
 10 11  1  6
 10  9  1  0
 11 12  1  0
 12 13  1  0
 13 14  1  0
 14 15  1  0
 16 10  1  0
 17 16  2  0
 18 16  1  0
 19 22  1  0
 19 18  1  0
 20 21  1  0
 19 20  1  1
 22 24  1  0
 23 22  2  0
M  END
$$$$
