LKC.pdb
     RDKit          3D

 24 23  0  0  1  0  0  0  0  0999 V2000
    9.4691  -13.3656   19.3312 C   0  0  0  0  0  0  0  0  0  0  0  0
    8.0065  -13.2999   19.6614 C   0  0  2  0  0  0  0  0  0  0  0  0
    7.5577  -11.8757   19.6219 C   0  0  0  0  0  0  0  0  0  0  0  0
    7.6649  -14.0053   20.9476 C   0  0  0  0  0  0  0  0  0  0  0  0
    8.1348  -15.4259   20.9872 C   0  0  2  0  0  0  0  0  0  0  0  0
    7.3020  -16.3442   20.2871 N   0  0  0  0  0  0  0  0  0  0  0  0
    8.2020  -15.8459   22.4116 C   0  0  0  0  0  0  0  0  0  0  0  0
    7.2132  -15.7147   23.1710 O   0  0  0  0  0  0  0  0  0  0  0  0
    9.3847  -16.4093   22.9629 N   0  0  0  0  0  0  0  0  0  0  0  0
    9.4211  -16.9114   24.3588 C   0  0  1  0  0  0  0  0  0  0  0  0
   10.4188  -18.0460   24.3626 C   0  0  0  0  0  0  0  0  0  0  0  0
    9.8656  -19.3651   23.9163 C   0  0  0  0  0  0  0  0  0  0  0  0
   11.0141  -20.3768   24.0859 C   0  0  0  0  0  0  0  0  0  0  0  0
   10.4273  -21.7352   23.7677 C   0  0  0  0  0  0  0  0  0  0  0  0
   11.4703  -22.7263   23.8985 N   0  0  0  0  0  0  0  0  0  0  0  0
    9.7818  -15.7825   25.2314 C   0  0  0  0  0  0  0  0  0  0  0  0
   10.8326  -15.1146   24.9430 O   0  0  0  0  0  0  0  0  0  0  0  0
    9.0865  -15.3415   26.3701 N   0  0  0  0  0  0  0  0  0  0  0  0
    9.5848  -14.3423   27.2968 C   0  0  1  0  0  0  0  0  0  0  0  0
    8.3676  -13.5947   27.8223 C   0  0  0  0  0  0  0  0  0  0  0  0
    7.4567  -12.9433   26.3837 S   0  0  0  0  0  0  0  0  0  0  0  0
   10.2421  -14.9712   28.4715 C   0  0  0  0  0  0  0  0  0  0  0  0
   10.3037  -16.2097   28.6372 O   0  0  0  0  0  0  0  0  0  0  0  0
   10.8068  -14.1349   29.4162 O   0  0  0  0  0  0  0  0  0  0  0  0
  2  1  1  1
  3  2  1  0
  4  2  1  0
  5  6  1  6
  5  4  1  0
  7  5  1  0
  8  7  2  0
  9  7  1  0
 10 11  1  6
 10  9  1  0
 11 12  1  0
 12 13  1  0
 13 14  1  0
 14 15  1  0
 16 10  1  0
 17 16  2  0
 18 16  1  0
 19 22  1  0
 19 18  1  0
 20 21  1  0
 19 20  1  1
 22 24  1  0
 23 22  2  0
M  END
$$$$
