LKC.pdb
     RDKit          3D

 24 23  0  0  1  0  0  0  0  0999 V2000
    9.5529  -13.7782   18.9373 C   0  0  0  0  0  0  0  0  0  0  0  0
    8.0767  -13.6919   19.1937 C   0  0  2  0  0  0  0  0  0  0  0  0
    7.6596  -12.2576   19.1840 C   0  0  0  0  0  0  0  0  0  0  0  0
    7.6539  -14.4353   20.4336 C   0  0  0  0  0  0  0  0  0  0  0  0
    8.0894  -15.8674   20.4432 C   0  0  2  0  0  0  0  0  0  0  0  0
    7.1622  -16.7718   19.8522 N   0  0  0  0  0  0  0  0  0  0  0  0
    8.3014  -16.2714   21.8580 C   0  0  0  0  0  0  0  0  0  0  0  0
    7.3468  -16.3064   22.6698 O   0  0  0  0  0  0  0  0  0  0  0  0
    9.5889  -16.6314   22.3408 N   0  0  0  0  0  0  0  0  0  0  0  0
    9.7845  -17.1097   23.7318 C   0  0  1  0  0  0  0  0  0  0  0  0
   11.0077  -17.9959   23.6946 C   0  0  0  0  0  0  0  0  0  0  0  0
   11.5060  -18.4286   25.0398 C   0  0  0  0  0  0  0  0  0  0  0  0
   10.9487  -19.8482   25.2531 C   0  0  0  0  0  0  0  0  0  0  0  0
   11.4983  -20.3198   26.5822 C   0  0  0  0  0  0  0  0  0  0  0  0
   10.8060  -21.5301   26.9603 N   0  0  0  0  0  0  0  0  0  0  0  0
    9.9175  -15.9270   24.5975 C   0  0  0  0  0  0  0  0  0  0  0  0
   10.7608  -15.0285   24.2584 O   0  0  0  0  0  0  0  0  0  0  0  0
    9.2056  -15.6634   25.7800 N   0  0  0  0  0  0  0  0  0  0  0  0
    9.4663  -14.5381   26.6580 C   0  0  1  0  0  0  0  0  0  0  0  0
    8.1168  -13.9001   26.9555 C   0  0  0  0  0  0  0  0  0  0  0  0
    8.3977  -12.5405   28.1371 S   0  0  0  0  0  0  0  0  0  0  0  0
   10.0264  -14.9836   27.9600 C   0  0  0  0  0  0  0  0  0  0  0  0
    9.8439  -16.1307   28.4248 O   0  0  0  0  0  0  0  0  0  0  0  0
   10.7821  -14.0764   28.6789 O   0  0  0  0  0  0  0  0  0  0  0  0
  2  1  1  1
  3  2  1  0
  4  2  1  0
  5  6  1  1
  5  4  1  0
  7  5  1  0
  8  7  2  0
  9  7  1  0
 10 11  1  6
 10  9  1  0
 11 12  1  0
 12 13  1  0
 13 14  1  0
 14 15  1  0
 16 10  1  0
 17 16  2  0
 18 16  1  0
 19 22  1  0
 19 18  1  0
 20 21  1  0
 19 20  1  1
 22 24  1  0
 23 22  2  0
M  END
$$$$
