LKC.pdb
     RDKit          3D

 24 23  0  0  1  0  0  0  0  0999 V2000
    9.3119  -13.2874   19.1249 C   0  0  0  0  0  0  0  0  0  0  0  0
    7.9736  -13.9589   19.0236 C   0  0  2  0  0  0  0  0  0  0  0  0
    7.0361  -13.0742   18.2688 C   0  0  0  0  0  0  0  0  0  0  0  0
    7.4398  -14.4041   20.3599 C   0  0  0  0  0  0  0  0  0  0  0  0
    8.3992  -15.2606   21.1256 C   0  0  2  0  0  0  0  0  0  0  0  0
    8.6269  -16.5465   20.5585 N   0  0  0  0  0  0  0  0  0  0  0  0
    7.8554  -15.4428   22.4971 C   0  0  0  0  0  0  0  0  0  0  0  0
    7.2241  -14.5231   23.0691 O   0  0  0  0  0  0  0  0  0  0  0  0
    8.0303  -16.6612   23.2077 N   0  0  0  0  0  0  0  0  0  0  0  0
    7.6179  -16.7918   24.6272 C   0  0  1  0  0  0  0  0  0  0  0  0
    7.5818  -18.2753   24.9110 C   0  0  0  0  0  0  0  0  0  0  0  0
    7.3187  -18.6306   26.3427 C   0  0  0  0  0  0  0  0  0  0  0  0
    7.3908  -20.1674   26.4101 C   0  0  0  0  0  0  0  0  0  0  0  0
    7.0594  -20.5411   27.8389 C   0  0  0  0  0  0  0  0  0  0  0  0
    7.0962  -21.9805   27.9558 N   0  0  0  0  0  0  0  0  0  0  0  0
    8.5836  -16.0403   25.4450 C   0  0  0  0  0  0  0  0  0  0  0  0
    9.8276  -16.2751   25.2695 O   0  0  0  0  0  0  0  0  0  0  0  0
    8.2895  -15.0692   26.4171 N   0  0  0  0  0  0  0  0  0  0  0  0
    9.2898  -14.3518   27.1854 C   0  0  1  0  0  0  0  0  0  0  0  0
    8.5930  -13.1311   27.7693 C   0  0  0  0  0  0  0  0  0  0  0  0
    7.7349  -12.2802   26.4043 S   0  0  0  0  0  0  0  0  0  0  0  0
    9.7743  -15.1597   28.3344 C   0  0  0  0  0  0  0  0  0  0  0  0
    9.3142  -16.2881   28.6175 O   0  0  0  0  0  0  0  0  0  0  0  0
   10.7806  -14.6252   29.1170 O   0  0  0  0  0  0  0  0  0  0  0  0
  2  1  1  1
  3  2  1  0
  4  2  1  0
  5  6  1  6
  5  4  1  0
  7  5  1  0
  8  7  2  0
  9  7  1  0
 10 11  1  1
 10  9  1  0
 11 12  1  0
 12 13  1  0
 13 14  1  0
 14 15  1  0
 16 10  1  0
 17 16  2  0
 18 16  1  0
 19 22  1  0
 19 18  1  0
 20 21  1  0
 19 20  1  1
 22 24  1  0
 23 22  2  0
M  END
$$$$
