LKC.pdb
     RDKit          3D

 24 23  0  0  1  0  0  0  0  0999 V2000
    9.4809  -14.1286   19.8290 C   0  0  0  0  0  0  0  0  0  0  0  0
    8.0539  -13.9045   19.4218 C   0  0  2  0  0  0  0  0  0  0  0  0
    7.8670  -12.4678   19.0581 C   0  0  0  0  0  0  0  0  0  0  0  0
    7.0681  -14.4011   20.4466 C   0  0  0  0  0  0  0  0  0  0  0  0
    7.2975  -15.8247   20.8482 C   0  0  2  0  0  0  0  0  0  0  0  0
    6.5369  -16.7770   20.1120 N   0  0  0  0  0  0  0  0  0  0  0  0
    6.9471  -15.9562   22.2869 C   0  0  0  0  0  0  0  0  0  0  0  0
    5.7872  -15.7109   22.6943 O   0  0  0  0  0  0  0  0  0  0  0  0
    7.9102  -16.3633   23.2497 N   0  0  0  0  0  0  0  0  0  0  0  0
    7.5436  -16.5493   24.6756 C   0  0  1  0  0  0  0  0  0  0  0  0
    7.9491  -17.9624   25.0243 C   0  0  0  0  0  0  0  0  0  0  0  0
    7.7098  -18.3458   26.4529 C   0  0  0  0  0  0  0  0  0  0  0  0
    8.2444  -19.7831   26.5931 C   0  0  0  0  0  0  0  0  0  0  0  0
    7.9718  -20.1948   28.0239 C   0  0  0  0  0  0  0  0  0  0  0  0
    8.5135  -21.5181   28.2306 N   0  0  0  0  0  0  0  0  0  0  0  0
    8.2345  -15.5094   25.4549 C   0  0  0  0  0  0  0  0  0  0  0  0
    9.4695  -15.2952   25.2052 O   0  0  0  0  0  0  0  0  0  0  0  0
    7.6796  -14.7034   26.4634 N   0  0  0  0  0  0  0  0  0  0  0  0
    8.4205  -13.7075   27.2147 C   0  0  1  0  0  0  0  0  0  0  0  0
    7.3908  -12.8904   27.9820 C   0  0  0  0  0  0  0  0  0  0  0  0
    6.2548  -12.1500   26.7635 S   0  0  0  0  0  0  0  0  0  0  0  0
    9.3070  -14.3390   28.2260 C   0  0  0  0  0  0  0  0  0  0  0  0
    9.3062  -15.5676   28.4622 O   0  0  0  0  0  0  0  0  0  0  0  0
   10.1668  -13.5169   28.9300 O   0  0  0  0  0  0  0  0  0  0  0  0
  2  1  1  1
  3  2  1  0
  4  2  1  0
  5  6  1  6
  5  4  1  0
  7  5  1  0
  8  7  2  0
  9  7  1  0
 10 11  1  1
 10  9  1  0
 11 12  1  0
 12 13  1  0
 13 14  1  0
 14 15  1  0
 16 10  1  0
 17 16  2  0
 18 16  1  0
 19 22  1  0
 19 18  1  0
 20 21  1  0
 19 20  1  1
 22 24  1  0
 23 22  2  0
M  END
$$$$
