LKC.pdb
     RDKit          3D

 24 23  0  0  1  0  0  0  0  0999 V2000
    6.1741  -12.3475   26.4287 C   0  0  0  0  0  0  0  0  0  0  0  0
    6.8373  -13.3499   27.3274 C   0  0  2  0  0  0  0  0  0  0  0  0
    7.8019  -12.6438   28.2232 C   0  0  0  0  0  0  0  0  0  0  0  0
    7.4473  -14.5006   26.5707 C   0  0  0  0  0  0  0  0  0  0  0  0
    6.4904  -15.1657   25.6313 C   0  0  2  0  0  0  0  0  0  0  0  0
    5.8079  -16.2888   26.1789 N   0  0  0  0  0  0  0  0  0  0  0  0
    7.2576  -15.6179   24.4412 C   0  0  0  0  0  0  0  0  0  0  0  0
    7.8704  -16.7116   24.4450 O   0  0  0  0  0  0  0  0  0  0  0  0
    7.3247  -14.8305   23.2598 N   0  0  0  0  0  0  0  0  0  0  0  0
    8.1632  -15.2410   22.1063 C   0  0  1  0  0  0  0  0  0  0  0  0
    7.8420  -14.2677   20.9963 C   0  0  0  0  0  0  0  0  0  0  0  0
    8.4970  -14.5783   19.6849 C   0  0  0  0  0  0  0  0  0  0  0  0
    7.8851  -13.5941   18.6708 C   0  0  0  0  0  0  0  0  0  0  0  0
    8.3797  -14.0327   17.3092 C   0  0  0  0  0  0  0  0  0  0  0  0
    7.8440  -13.1312   16.3154 N   0  0  0  0  0  0  0  0  0  0  0  0
    9.5681  -15.2207   22.5443 C   0  0  0  0  0  0  0  0  0  0  0  0
   10.0097  -14.1530   23.0905 O   0  0  0  0  0  0  0  0  0  0  0  0
   10.5014  -16.2651   22.4316 N   0  0  0  0  0  0  0  0  0  0  0  0
   11.9046  -16.1495   22.7827 C   0  0  1  0  0  0  0  0  0  0  0  0
   12.2136  -17.3109   23.7167 C   0  0  0  0  0  0  0  0  0  0  0  0
   11.2237  -17.0802   25.2302 S   0  0  0  0  0  0  0  0  0  0  0  0
   12.7775  -16.3130   21.5916 C   0  0  0  0  0  0  0  0  0  0  0  0
   12.3320  -16.5435   20.4455 O   0  0  0  0  0  0  0  0  0  0  0  0
   14.1431  -16.2023   21.7754 O   0  0  0  0  0  0  0  0  0  0  0  0
  2  1  1  6
  3  2  1  0
  4  2  1  0
  5  6  1  1
  5  4  1  0
  7  5  1  0
  8  7  2  0
  9  7  1  0
 10 11  1  6
 10  9  1  0
 11 12  1  0
 12 13  1  0
 13 14  1  0
 14 15  1  0
 16 10  1  0
 17 16  2  0
 18 16  1  0
 19 22  1  0
 19 18  1  0
 20 21  1  0
 19 20  1  1
 22 24  1  0
 23 22  2  0
M  END
$$$$
