LKC.pdb
     RDKit          3D

 24 23  0  0  1  0  0  0  0  0999 V2000
    9.2795  -12.5437   19.4664 C   0  0  0  0  0  0  0  0  0  0  0  0
    8.1016  -13.4725   19.5147 C   0  0  2  0  0  0  0  0  0  0  0  0
    6.8728  -12.7288   19.1046 C   0  0  0  0  0  0  0  0  0  0  0  0
    7.9668  -14.1780   20.8386 C   0  0  0  0  0  0  0  0  0  0  0  0
    9.2250  -14.8596   21.2776 C   0  0  2  0  0  0  0  0  0  0  0  0
    9.6900  -15.8717   20.3907 N   0  0  0  0  0  0  0  0  0  0  0  0
    8.9703  -15.4799   22.6043 C   0  0  0  0  0  0  0  0  0  0  0  0
    8.1324  -14.9885   23.3969 O   0  0  0  0  0  0  0  0  0  0  0  0
    9.6642  -16.6479   23.0217 N   0  0  0  0  0  0  0  0  0  0  0  0
    9.4870  -17.2036   24.3862 C   0  0  1  0  0  0  0  0  0  0  0  0
   10.1294  -18.5709   24.3609 C   0  0  0  0  0  0  0  0  0  0  0  0
   10.1419  -19.2791   25.6813 C   0  0  0  0  0  0  0  0  0  0  0  0
   10.9028  -20.5960   25.4400 C   0  0  0  0  0  0  0  0  0  0  0  0
   10.9615  -21.2986   26.7793 C   0  0  0  0  0  0  0  0  0  0  0  0
   11.8306  -20.5454   27.6536 N   0  0  0  0  0  0  0  0  0  0  0  0
   10.1004  -16.2619   25.3364 C   0  0  0  0  0  0  0  0  0  0  0  0
   11.3288  -15.9535   25.1652 O   0  0  0  0  0  0  0  0  0  0  0  0
    9.4762  -15.6455   26.4341 N   0  0  0  0  0  0  0  0  0  0  0  0
   10.1610  -14.8050   27.3985 C   0  0  1  0  0  0  0  0  0  0  0  0
    9.1998  -13.6784   27.7497 C   0  0  0  0  0  0  0  0  0  0  0  0
    8.8475  -12.7558   26.2172 S   0  0  0  0  0  0  0  0  0  0  0  0
   10.4388  -15.5405   28.6592 C   0  0  0  0  0  0  0  0  0  0  0  0
   10.0423  -16.7082   28.8696 O   0  0  0  0  0  0  0  0  0  0  0  0
   11.1706  -14.8900   29.6350 O   0  0  0  0  0  0  0  0  0  0  0  0
  2  1  1  1
  3  2  1  0
  4  2  1  0
  5  6  1  6
  5  4  1  0
  7  5  1  0
  8  7  2  0
  9  7  1  0
 10 11  1  6
 10  9  1  0
 11 12  1  0
 12 13  1  0
 13 14  1  0
 14 15  1  0
 16 10  1  0
 17 16  2  0
 18 16  1  0
 19 22  1  0
 19 18  1  0
 20 21  1  0
 19 20  1  1
 22 24  1  0
 23 22  2  0
M  END
$$$$
