PRQ.pdb
     RDKit          3D

 28 28  0  0  1  0  0  0  0  0999 V2000
   25.7730  -21.6968  -16.1736 N   0  0  0  0  0  0  0  0  0  0  0  0
   27.0403  -22.1130  -16.6929 C   0  0  0  0  0  0  0  0  0  0  0  0
   28.1148  -21.3387  -15.9449 C   0  0  0  0  0  0  0  0  0  0  0  0
   27.2988  -20.1186  -15.4926 C   0  0  0  0  0  0  0  0  0  0  0  0
   26.0119  -20.7735  -15.0957 C   0  0  1  0  0  0  0  0  0  0  0  0
   24.8937  -19.8192  -14.9065 C   0  0  0  0  0  0  0  0  0  0  0  0
   24.9767  -19.0081  -13.9504 O   0  0  0  0  0  0  0  0  0  0  0  0
   19.5823  -14.7097  -16.8624 N   0  0  0  0  0  0  0  0  0  0  0  0
   20.6444  -13.8907  -17.3412 C   0  0  0  0  0  0  0  0  0  0  0  0
   20.5521  -12.6033  -17.3756 N   0  0  0  0  0  0  0  0  0  0  0  0
   21.8158  -14.5614  -17.7806 N   0  0  0  0  0  0  0  0  0  0  0  0
   21.8151  -16.0002  -17.9060 C   0  0  0  0  0  0  0  0  0  0  0  0
   22.0032  -16.5935  -16.5138 C   0  0  0  0  0  0  0  0  0  0  0  0
   22.9867  -17.6993  -16.5165 C   0  0  0  0  0  0  0  0  0  0  0  0
   22.6638  -18.7798  -15.5297 C   0  0  2  0  0  0  0  0  0  0  0  0
   23.7568  -19.7747  -15.7320 N   0  0  0  0  0  0  0  0  0  0  0  0
   21.3753  -19.4693  -15.7775 C   0  0  0  0  0  0  0  0  0  0  0  0
   21.1753  -20.1055  -16.8675 O   0  0  0  0  0  0  0  0  0  0  0  0
   21.3053  -12.0081  -17.7401 N   0  0  0  0  0  0  0  0  0  0  0  0
   18.9666  -23.9038  -13.0792 C   0  0  0  0  0  0  0  0  0  0  0  0
   19.9403  -22.9508  -12.7014 O   0  0  0  0  0  0  0  0  0  0  0  0
   20.7987  -23.1869  -11.7929 C   0  0  0  0  0  0  0  0  0  0  0  0
   19.9870  -21.6464  -13.3653 C   0  0  0  0  0  0  0  0  0  0  0  0
   19.0278  -21.4368  -14.4850 C   0  0  1  0  0  0  0  0  0  0  0  0
   19.0066  -20.1185  -15.1588 N   0  0  0  0  0  0  0  0  0  0  0  0
   20.3071  -19.4826  -14.8653 C   0  0  0  0  0  0  0  0  0  0  0  0
   17.8996  -19.2164  -14.9630 O   0  0  0  0  0  0  0  0  0  0  0  0
   18.0933  -18.0483  -14.5135 O   0  0  0  0  0  0  0  0  0  0  0  0
  1  5  1  0
  1  2  1  0
  2  3  1  0
  4  3  1  0
  5  4  1  0
  5  6  1  6
  7  6  2  0
  9 10  2  0
  9  8  1  0
 11  9  1  0
 12 11  1  0
 13 12  1  0
 15 14  1  6
 14 13  1  0
 15 16  1  0
 16  6  1  0
 17 15  1  0
 18 17  2  0
 19 20  1  0
 20 22  1  0
 21 20  2  0
 22 23  1  0
 24 23  1  6
 24 25  1  0
 25 17  1  0
 26 24  1  0
 26 28  1  0
 27 26  2  0
M  END
$$$$
