PRQ.pdb
     RDKit          3D

 28 28  0  0  1  0  0  0  0  0999 V2000
   26.7118  -19.3442  -13.8277 N   0  0  0  0  0  0  0  0  0  0  0  0
   28.1231  -19.1425  -13.6988 C   0  0  0  0  0  0  0  0  0  0  0  0
   28.7906  -20.5033  -13.8259 C   0  0  0  0  0  0  0  0  0  0  0  0
   27.6239  -21.4127  -13.4124 C   0  0  0  0  0  0  0  0  0  0  0  0
   26.4822  -20.7372  -14.1074 C   0  0  1  0  0  0  0  0  0  0  0  0
   25.1507  -21.1974  -13.6465 C   0  0  0  0  0  0  0  0  0  0  0  0
   24.6707  -22.2244  -14.1884 O   0  0  0  0  0  0  0  0  0  0  0  0
   20.6175  -23.4785   -6.9718 N   0  0  0  0  0  0  0  0  0  0  0  0
   19.7055  -23.3142   -8.0531 C   0  0  0  0  0  0  0  0  0  0  0  0
   18.6315  -24.0237   -8.1548 N   0  0  0  0  0  0  0  0  0  0  0  0
   20.0356  -22.3274   -9.0187 N   0  0  0  0  0  0  0  0  0  0  0  0
   21.4204  -22.0702   -9.3380 C   0  0  0  0  0  0  0  0  0  0  0  0
   21.4617  -20.9980  -10.4217 C   0  0  0  0  0  0  0  0  0  0  0  0
   22.8394  -20.7605  -10.9071 C   0  0  0  0  0  0  0  0  0  0  0  0
   22.9672  -20.8639  -12.3965 C   0  0  2  0  0  0  0  0  0  0  0  0
   24.4046  -20.5515  -12.6454 N   0  0  0  0  0  0  0  0  0  0  0  0
   22.1551  -19.8791  -13.1499 C   0  0  0  0  0  0  0  0  0  0  0  0
   22.2027  -18.6358  -12.8590 O   0  0  0  0  0  0  0  0  0  0  0  0
   17.9553  -23.8908   -8.9160 N   0  0  0  0  0  0  0  0  0  0  0  0
   23.7677  -20.3490  -17.9256 C   0  0  0  0  0  0  0  0  0  0  0  0
   22.5651  -19.6493  -18.1775 O   0  0  0  0  0  0  0  0  0  0  0  0
   22.4311  -18.8766  -19.1790 C   0  0  0  0  0  0  0  0  0  0  0  0
   21.4218  -19.8066  -17.2761 C   0  0  0  0  0  0  0  0  0  0  0  0
   21.3362  -18.8484  -16.1393 C   0  0  1  0  0  0  0  0  0  0  0  0
   20.5154  -19.2192  -14.9640 N   0  0  0  0  0  0  0  0  0  0  0  0
   21.2992  -20.2192  -14.2106 C   0  0  0  0  0  0  0  0  0  0  0  0
   19.1393  -19.6144  -15.1301 O   0  0  0  0  0  0  0  0  0  0  0  0
   18.2864  -18.7982  -15.5889 O   0  0  0  0  0  0  0  0  0  0  0  0
  1  5  1  0
  1  2  1  0
  2  3  1  0
  4  3  1  0
  5  4  1  0
  5  6  1  1
  7  6  2  0
  9 10  2  0
  9  8  1  0
 11  9  1  0
 12 11  1  0
 13 12  1  0
 15 14  1  1
 14 13  1  0
 15 16  1  0
 16  6  1  0
 17 15  1  0
 18 17  2  0
 19 20  1  0
 20 22  1  0
 21 20  2  0
 22 23  1  0
 24 23  1  1
 24 25  1  0
 25 17  1  0
 26 24  1  0
 26 28  1  0
 27 26  2  0
M  END
$$$$
