PRQ.pdb
     RDKit          3D

 28 28  0  0  1  0  0  0  0  0999 V2000
   26.5893  -18.5109  -15.0418 N   0  0  0  0  0  0  0  0  0  0  0  0
   27.9754  -18.2697  -14.7784 C   0  0  0  0  0  0  0  0  0  0  0  0
   28.7562  -18.7191  -16.0040 C   0  0  0  0  0  0  0  0  0  0  0  0
   27.7630  -19.7290  -16.5979 C   0  0  0  0  0  0  0  0  0  0  0  0
   26.4686  -19.0058  -16.3879 C   0  0  1  0  0  0  0  0  0  0  0  0
   25.2731  -19.8622  -16.5735 C   0  0  0  0  0  0  0  0  0  0  0  0
   25.0853  -20.3599  -17.7118 O   0  0  0  0  0  0  0  0  0  0  0  0
   24.7426  -20.7706  -10.0861 N   0  0  0  0  0  0  0  0  0  0  0  0
   25.9476  -21.0331  -10.7983 C   0  0  0  0  0  0  0  0  0  0  0  0
   27.1096  -20.8338  -10.2718 N   0  0  0  0  0  0  0  0  0  0  0  0
   25.8089  -21.5275  -12.1217 N   0  0  0  0  0  0  0  0  0  0  0  0
   24.5313  -21.4425  -12.7898 C   0  0  0  0  0  0  0  0  0  0  0  0
   24.6693  -22.1088  -14.1546 C   0  0  0  0  0  0  0  0  0  0  0  0
   23.3750  -22.1688  -14.8697 C   0  0  0  0  0  0  0  0  0  0  0  0
   23.1480  -21.0004  -15.7799 C   0  0  2  0  0  0  0  0  0  0  0  0
   24.3480  -20.1436  -15.5532 N   0  0  0  0  0  0  0  0  0  0  0  0
   21.9493  -20.1929  -15.4513 C   0  0  0  0  0  0  0  0  0  0  0  0
   21.9593  -19.3834  -14.4627 O   0  0  0  0  0  0  0  0  0  0  0  0
   27.9797  -20.9314  -10.8081 N   0  0  0  0  0  0  0  0  0  0  0  0
   18.9112  -16.8549  -19.2676 C   0  0  0  0  0  0  0  0  0  0  0  0
   17.9879  -16.7885  -18.1988 O   0  0  0  0  0  0  0  0  0  0  0  0
   16.9441  -16.0635  -18.2529 C   0  0  0  0  0  0  0  0  0  0  0  0
   18.2142  -17.5733  -16.9834 C   0  0  0  0  0  0  0  0  0  0  0  0
   19.3843  -18.4944  -16.9965 C   0  0  1  0  0  0  0  0  0  0  0  0
   19.5730  -19.4119  -15.8498 N   0  0  0  0  0  0  0  0  0  0  0  0
   20.7472  -20.2466  -16.1762 C   0  0  0  0  0  0  0  0  0  0  0  0
   18.4689  -20.1920  -15.3496 O   0  0  0  0  0  0  0  0  0  0  0  0
   18.4268  -21.4433  -15.5401 O   0  0  0  0  0  0  0  0  0  0  0  0
  1  5  1  0
  1  2  1  0
  2  3  1  0
  4  3  1  0
  5  4  1  0
  5  6  1  1
  7  6  2  0
  9 10  2  0
  9  8  1  0
 11  9  1  0
 12 11  1  0
 13 12  1  0
 15 14  1  1
 14 13  1  0
 15 16  1  0
 16  6  1  0
 17 15  1  0
 18 17  2  0
 19 20  1  0
 20 22  1  0
 21 20  2  0
 22 23  1  0
 24 23  1  1
 24 25  1  0
 25 17  1  0
 26 24  1  0
 26 28  1  0
 27 26  2  0
M  END
$$$$
