PRQ.pdb
     RDKit          3D

 28 28  0  0  1  0  0  0  0  0999 V2000
   27.0345  -18.9469  -15.0317 N   0  0  0  0  0  0  0  0  0  0  0  0
   28.4214  -18.6403  -15.2096 C   0  0  0  0  0  0  0  0  0  0  0  0
   28.5145  -17.5519  -16.2680 C   0  0  0  0  0  0  0  0  0  0  0  0
   27.1900  -17.7866  -17.0096 C   0  0  0  0  0  0  0  0  0  0  0  0
   26.2684  -18.0532  -15.8598 C   0  0  1  0  0  0  0  0  0  0  0  0
   24.9650  -18.6310  -16.2652 C   0  0  0  0  0  0  0  0  0  0  0  0
   24.2169  -17.9275  -16.9892 O   0  0  0  0  0  0  0  0  0  0  0  0
   24.6234  -25.1296  -14.4594 N   0  0  0  0  0  0  0  0  0  0  0  0
   23.5259  -25.4967  -15.2892 C   0  0  0  0  0  0  0  0  0  0  0  0
   22.5991  -26.2980  -14.8815 N   0  0  0  0  0  0  0  0  0  0  0  0
   23.4994  -24.9360  -16.5930 N   0  0  0  0  0  0  0  0  0  0  0  0
   24.5016  -23.9707  -16.9801 C   0  0  0  0  0  0  0  0  0  0  0  0
   24.2416  -22.6853  -16.2019 C   0  0  0  0  0  0  0  0  0  0  0  0
   23.4932  -21.6964  -17.0093 C   0  0  0  0  0  0  0  0  0  0  0  0
   23.1813  -20.4365  -16.2604 C   0  0  2  0  0  0  0  0  0  0  0  0
   24.5266  -19.9116  -15.8858 N   0  0  0  0  0  0  0  0  0  0  0  0
   22.4138  -20.6428  -15.0092 C   0  0  0  0  0  0  0  0  0  0  0  0
   23.0113  -20.9366  -13.9186 O   0  0  0  0  0  0  0  0  0  0  0  0
   21.8086  -26.5719  -15.4768 N   0  0  0  0  0  0  0  0  0  0  0  0
   20.1564  -20.4366   -9.8828 C   0  0  0  0  0  0  0  0  0  0  0  0
   21.0218  -19.5165  -10.5181 O   0  0  0  0  0  0  0  0  0  0  0  0
   22.2259  -19.3525  -10.1420 C   0  0  0  0  0  0  0  0  0  0  0  0
   20.5434  -18.7201  -11.6500 C   0  0  0  0  0  0  0  0  0  0  0  0
   20.9969  -19.1490  -13.0021 C   0  0  2  0  0  0  0  0  0  0  0  0
   20.3065  -20.2876  -13.6497 N   0  0  0  0  0  0  0  0  0  0  0  0
   21.0161  -20.5327  -14.9218 C   0  0  0  0  0  0  0  0  0  0  0  0
   18.8747  -20.2746  -13.8153 O   0  0  0  0  0  0  0  0  0  0  0  0
   18.3590  -19.9747  -14.9324 O   0  0  0  0  0  0  0  0  0  0  0  0
  1  5  1  0
  1  2  1  0
  2  3  1  0
  4  3  1  0
  5  4  1  0
  5  6  1  6
  7  6  2  0
  9 10  2  0
  9  8  1  0
 11  9  1  0
 12 11  1  0
 13 12  1  0
 15 14  1  1
 14 13  1  0
 15 16  1  0
 16  6  1  0
 17 15  1  0
 18 17  2  0
 19 20  1  0
 20 22  1  0
 21 20  2  0
 22 23  1  0
 24 23  1  1
 24 25  1  0
 25 17  1  0
 26 24  1  0
 26 28  1  0
 27 26  2  0
M  END
$$$$
