PRQ.pdb
     RDKit          3D

 28 28  0  0  1  0  0  0  0  0999 V2000
   25.1179  -17.3727  -17.5481 N   0  0  0  0  0  0  0  0  0  0  0  0
   24.9358  -16.7099  -18.8037 C   0  0  0  0  0  0  0  0  0  0  0  0
   23.9760  -17.5536  -19.6285 C   0  0  0  0  0  0  0  0  0  0  0  0
   24.1891  -18.9236  -18.9677 C   0  0  0  0  0  0  0  0  0  0  0  0
   24.2628  -18.5302  -17.5245 C   0  0  1  0  0  0  0  0  0  0  0  0
   24.7821  -19.6024  -16.6426 C   0  0  0  0  0  0  0  0  0  0  0  0
   24.0373  -20.5916  -16.4293 O   0  0  0  0  0  0  0  0  0  0  0  0
   27.2554  -25.2598  -16.1167 N   0  0  0  0  0  0  0  0  0  0  0  0
   28.3686  -25.1611  -16.9994 C   0  0  0  0  0  0  0  0  0  0  0  0
   28.5935  -26.0417  -17.9166 N   0  0  0  0  0  0  0  0  0  0  0  0
   29.2234  -24.0418  -16.8216 N   0  0  0  0  0  0  0  0  0  0  0  0
   28.9308  -23.0711  -15.7931 C   0  0  0  0  0  0  0  0  0  0  0  0
   28.2395  -21.8820  -16.4517 C   0  0  0  0  0  0  0  0  0  0  0  0
   27.9775  -20.7938  -15.4836 C   0  0  0  0  0  0  0  0  0  0  0  0
   26.5282  -20.6535  -15.1301 C   0  0  2  0  0  0  0  0  0  0  0  0
   26.0510  -19.5707  -16.0386 N   0  0  0  0  0  0  0  0  0  0  0  0
   26.2782  -20.2152  -13.7364 C   0  0  0  0  0  0  0  0  0  0  0  0
   26.9049  -19.2161  -13.2447 O   0  0  0  0  0  0  0  0  0  0  0  0
   29.4282  -26.0119  -18.5138 N   0  0  0  0  0  0  0  0  0  0  0  0
   20.8832  -19.5375  -11.4916 C   0  0  0  0  0  0  0  0  0  0  0  0
   21.4489  -20.0817  -10.3155 O   0  0  0  0  0  0  0  0  0  0  0  0
   20.7528  -20.3121   -9.2761 C   0  0  0  0  0  0  0  0  0  0  0  0
   22.8765  -20.4044  -10.2690 C   0  0  0  0  0  0  0  0  0  0  0  0
   23.6935  -19.9701  -11.4360 C   0  0  1  0  0  0  0  0  0  0  0  0
   25.1163  -20.3762  -11.4916 N   0  0  0  0  0  0  0  0  0  0  0  0
   25.3614  -20.8378  -12.8731 C   0  0  0  0  0  0  0  0  0  0  0  0
   25.6561  -21.2812  -10.5081 O   0  0  0  0  0  0  0  0  0  0  0  0
   25.9691  -22.4661  -10.8274 O   0  0  0  0  0  0  0  0  0  0  0  0
  1  5  1  0
  1  2  1  0
  2  3  1  0
  4  3  1  0
  5  4  1  0
  5  6  1  1
  7  6  2  0
  9 10  2  0
  9  8  1  0
 11  9  1  0
 12 11  1  0
 13 12  1  0
 15 14  1  1
 14 13  1  0
 15 16  1  0
 16  6  1  0
 17 15  1  0
 18 17  2  0
 19 20  1  0
 20 22  1  0
 21 20  2  0
 22 23  1  0
 24 23  1  6
 24 25  1  0
 25 17  1  0
 26 24  1  0
 26 28  1  0
 27 26  2  0
M  END
$$$$
