PRQ.pdb
     RDKit          3D

 28 28  0  0  1  0  0  0  0  0999 V2000
   24.5429  -17.9003  -16.5185 N   0  0  0  0  0  0  0  0  0  0  0  0
   25.4543  -17.0105  -17.1716 C   0  0  0  0  0  0  0  0  0  0  0  0
   26.6002  -17.8508  -17.7142 C   0  0  0  0  0  0  0  0  0  0  0  0
   26.5070  -19.0655  -16.7788 C   0  0  0  0  0  0  0  0  0  0  0  0
   25.0223  -19.2452  -16.7000 C   0  0  1  0  0  0  0  0  0  0  0  0
   24.5912  -20.1539  -15.6112 C   0  0  0  0  0  0  0  0  0  0  0  0
   24.3853  -21.3579  -15.9059 O   0  0  0  0  0  0  0  0  0  0  0  0
   29.4057  -21.6016   -9.7005 N   0  0  0  0  0  0  0  0  0  0  0  0
   29.4758  -21.4520  -11.1150 C   0  0  0  0  0  0  0  0  0  0  0  0
   30.2475  -22.1886  -11.8424 N   0  0  0  0  0  0  0  0  0  0  0  0
   28.6518  -20.4492  -11.6897 N   0  0  0  0  0  0  0  0  0  0  0  0
   27.2901  -20.2910  -11.2350 C   0  0  0  0  0  0  0  0  0  0  0  0
   26.3633  -20.6794  -12.3821 C   0  0  0  0  0  0  0  0  0  0  0  0
   24.9510  -20.3564  -12.0803 C   0  0  0  0  0  0  0  0  0  0  0  0
   24.0148  -20.6965  -13.1998 C   0  0  2  0  0  0  0  0  0  0  0  0
   24.4025  -19.7434  -14.2801 N   0  0  0  0  0  0  0  0  0  0  0  0
   22.5832  -20.4688  -12.8905 C   0  0  0  0  0  0  0  0  0  0  0  0
   22.1391  -19.2874  -12.6908 O   0  0  0  0  0  0  0  0  0  0  0  0
   30.3707  -22.0282  -12.8491 N   0  0  0  0  0  0  0  0  0  0  0  0
   19.1238  -18.8087  -16.5524 C   0  0  0  0  0  0  0  0  0  0  0  0
   18.4544  -19.8745  -15.9082 O   0  0  0  0  0  0  0  0  0  0  0  0
   17.1952  -20.0322  -15.9966 C   0  0  0  0  0  0  0  0  0  0  0  0
   19.2118  -20.8438  -15.1137 C   0  0  0  0  0  0  0  0  0  0  0  0
   19.9035  -20.3155  -13.9053 C   0  0  1  0  0  0  0  0  0  0  0  0
   20.1744  -21.2444  -12.7846 N   0  0  0  0  0  0  0  0  0  0  0  0
   21.6298  -21.4963  -12.7982 C   0  0  0  0  0  0  0  0  0  0  0  0
   19.4101  -22.4581  -12.6413 O   0  0  0  0  0  0  0  0  0  0  0  0
   19.8851  -23.5668  -13.0273 O   0  0  0  0  0  0  0  0  0  0  0  0
  1  5  1  0
  1  2  1  0
  2  3  1  0
  4  3  1  0
  5  4  1  0
  5  6  1  1
  7  6  2  0
  9 10  2  0
  9  8  1  0
 11  9  1  0
 12 11  1  0
 13 12  1  0
 15 14  1  1
 14 13  1  0
 15 16  1  0
 16  6  1  0
 17 15  1  0
 18 17  2  0
 19 20  1  0
 20 22  1  0
 21 20  2  0
 22 23  1  0
 24 23  1  1
 24 25  1  0
 25 17  1  0
 26 24  1  0
 26 28  1  0
 27 26  2  0
M  END
$$$$
