PRQ.pdb
     RDKit          3D

 28 28  0  0  1  0  0  0  0  0999 V2000
   25.8965  -22.2777  -15.1102 N   0  0  0  0  0  0  0  0  0  0  0  0
   26.3651  -22.9714  -16.2712 C   0  0  0  0  0  0  0  0  0  0  0  0
   25.6900  -22.3423  -17.4803 C   0  0  0  0  0  0  0  0  0  0  0  0
   24.4438  -21.7452  -16.8099 C   0  0  0  0  0  0  0  0  0  0  0  0
   25.0369  -21.2080  -15.5440 C   0  0  1  0  0  0  0  0  0  0  0  0
   24.0262  -20.8417  -14.5235 C   0  0  0  0  0  0  0  0  0  0  0  0
   24.4127  -20.1623  -13.5398 O   0  0  0  0  0  0  0  0  0  0  0  0
   19.8182  -18.1114  -17.9628 N   0  0  0  0  0  0  0  0  0  0  0  0
   18.9053  -17.4655  -17.0811 C   0  0  0  0  0  0  0  0  0  0  0  0
   17.6910  -17.1991  -17.4301 N   0  0  0  0  0  0  0  0  0  0  0  0
   19.3970  -17.1272  -15.7931 N   0  0  0  0  0  0  0  0  0  0  0  0
   20.7639  -17.4349  -15.4428 C   0  0  0  0  0  0  0  0  0  0  0  0
   20.8583  -18.9360  -15.1910 C   0  0  0  0  0  0  0  0  0  0  0  0
   21.5833  -19.2380  -13.9368 C   0  0  0  0  0  0  0  0  0  0  0  0
   21.6536  -20.7036  -13.6330 C   0  0  2  0  0  0  0  0  0  0  0  0
   22.6719  -21.2111  -14.5979 N   0  0  0  0  0  0  0  0  0  0  0  0
   20.3917  -21.4408  -13.8804 C   0  0  0  0  0  0  0  0  0  0  0  0
   19.9551  -21.6053  -15.0700 O   0  0  0  0  0  0  0  0  0  0  0  0
   17.0080  -16.7959  -16.7781 N   0  0  0  0  0  0  0  0  0  0  0  0
   19.5202  -25.7896  -10.0159 C   0  0  0  0  0  0  0  0  0  0  0  0
   18.9586  -24.5240   -9.7296 O   0  0  0  0  0  0  0  0  0  0  0  0
   18.4350  -24.2578   -8.6013 C   0  0  0  0  0  0  0  0  0  0  0  0
   18.9730  -23.4681  -10.7441 C   0  0  0  0  0  0  0  0  0  0  0  0
   18.2658  -23.7646  -12.0208 C   0  0  1  0  0  0  0  0  0  0  0  0
   18.3870  -22.7978  -13.1356 N   0  0  0  0  0  0  0  0  0  0  0  0
   19.6016  -22.0024  -12.8638 C   0  0  0  0  0  0  0  0  0  0  0  0
   17.2660  -21.9737  -13.5123 O   0  0  0  0  0  0  0  0  0  0  0  0
   17.2651  -20.7332  -13.2576 O   0  0  0  0  0  0  0  0  0  0  0  0
  1  5  1  0
  1  2  1  0
  2  3  1  0
  4  3  1  0
  5  4  1  0
  5  6  1  1
  7  6  2  0
  9 10  2  0
  9  8  1  0
 11  9  1  0
 12 11  1  0
 13 12  1  0
 15 14  1  6
 14 13  1  0
 15 16  1  0
 16  6  1  0
 17 15  1  0
 18 17  2  0
 19 20  1  0
 20 22  1  0
 21 20  2  0
 22 23  1  0
 24 23  1  6
 24 25  1  0
 25 17  1  0
 26 24  1  0
 26 28  1  0
 27 26  2  0
M  END
$$$$
