PRQ.pdb
     RDKit          3D

 28 28  0  0  1  0  0  0  0  0999 V2000
   26.5572  -20.3331  -13.1983 N   0  0  0  0  0  0  0  0  0  0  0  0
   27.9654  -20.1944  -12.9820 C   0  0  0  0  0  0  0  0  0  0  0  0
   28.4339  -18.9945  -13.7909 C   0  0  0  0  0  0  0  0  0  0  0  0
   27.3315  -18.9458  -14.8593 C   0  0  0  0  0  0  0  0  0  0  0  0
   26.1216  -19.2401  -14.0272 C   0  0  1  0  0  0  0  0  0  0  0  0
   24.9193  -19.5768  -14.8260 C   0  0  0  0  0  0  0  0  0  0  0  0
   24.3751  -18.6499  -15.4767 O   0  0  0  0  0  0  0  0  0  0  0  0
   24.7118  -27.1019  -17.5724 N   0  0  0  0  0  0  0  0  0  0  0  0
   24.3082  -26.0422  -18.4338 C   0  0  0  0  0  0  0  0  0  0  0  0
   24.4572  -26.1085  -19.7147 N   0  0  0  0  0  0  0  0  0  0  0  0
   23.7307  -24.9035  -17.8133 N   0  0  0  0  0  0  0  0  0  0  0  0
   23.3455  -23.7663  -18.6159 C   0  0  0  0  0  0  0  0  0  0  0  0
   22.7529  -22.7133  -17.6854 C   0  0  0  0  0  0  0  0  0  0  0  0
   23.7290  -22.2703  -16.6651 C   0  0  0  0  0  0  0  0  0  0  0  0
   23.2018  -21.1870  -15.7741 C   0  0  2  0  0  0  0  0  0  0  0  0
   24.3616  -20.8655  -14.8927 N   0  0  0  0  0  0  0  0  0  0  0  0
   22.0767  -21.6042  -14.9040 C   0  0  0  0  0  0  0  0  0  0  0  0
   22.2931  -22.2513  -13.8236 O   0  0  0  0  0  0  0  0  0  0  0  0
   24.1679  -25.3484  -20.3415 N   0  0  0  0  0  0  0  0  0  0  0  0
   17.0421  -18.2677  -14.0126 C   0  0  0  0  0  0  0  0  0  0  0  0
   16.7818  -19.3512  -13.1423 O   0  0  0  0  0  0  0  0  0  0  0  0
   15.8108  -19.3384  -12.3206 C   0  0  0  0  0  0  0  0  0  0  0  0
   17.6378  -20.5390  -13.1723 C   0  0  0  0  0  0  0  0  0  0  0  0
   18.8496  -20.4621  -14.0345 C   0  0  1  0  0  0  0  0  0  0  0  0
   19.6256  -21.7003  -14.2732 N   0  0  0  0  0  0  0  0  0  0  0  0
   20.7279  -21.3291  -15.1837 C   0  0  0  0  0  0  0  0  0  0  0  0
   18.9601  -22.9110  -14.6844 O   0  0  0  0  0  0  0  0  0  0  0  0
   18.9230  -23.2415  -15.9064 O   0  0  0  0  0  0  0  0  0  0  0  0
  1  5  1  0
  1  2  1  0
  2  3  1  0
  4  3  1  0
  5  4  1  0
  5  6  1  6
  7  6  2  0
  9 10  2  0
  9  8  1  0
 11  9  1  0
 12 11  1  0
 13 12  1  0
 15 14  1  6
 14 13  1  0
 15 16  1  0
 16  6  1  0
 17 15  1  0
 18 17  2  0
 19 20  1  0
 20 22  1  0
 21 20  2  0
 22 23  1  0
 24 23  1  1
 24 25  1  0
 25 17  1  0
 26 24  1  0
 26 28  1  0
 27 26  2  0
M  END
$$$$
