PRQ.pdb
     RDKit          3D

 28 28  0  0  1  0  0  0  0  0999 V2000
   22.8695  -21.5396  -18.8423 N   0  0  0  0  0  0  0  0  0  0  0  0
   23.3202  -21.8131  -20.1731 C   0  0  0  0  0  0  0  0  0  0  0  0
   23.9710  -23.1878  -20.1594 C   0  0  0  0  0  0  0  0  0  0  0  0
   24.3516  -23.2884  -18.6748 C   0  0  0  0  0  0  0  0  0  0  0  0
   23.1333  -22.6999  -18.0327 C   0  0  1  0  0  0  0  0  0  0  0  0
   23.3204  -22.3635  -16.6013 C   0  0  0  0  0  0  0  0  0  0  0  0
   22.9391  -23.2065  -15.7511 O   0  0  0  0  0  0  0  0  0  0  0  0
   29.2047  -22.2235  -16.4795 N   0  0  0  0  0  0  0  0  0  0  0  0
   28.8103  -20.9703  -17.0289 C   0  0  0  0  0  0  0  0  0  0  0  0
   28.9785  -20.6885  -18.2778 N   0  0  0  0  0  0  0  0  0  0  0  0
   28.2198  -20.0410  -16.1330 N   0  0  0  0  0  0  0  0  0  0  0  0
   27.9290  -20.4381  -14.7751 C   0  0  0  0  0  0  0  0  0  0  0  0
   26.5845  -21.1576  -14.7733 C   0  0  0  0  0  0  0  0  0  0  0  0
   25.4537  -20.2081  -14.6745 C   0  0  0  0  0  0  0  0  0  0  0  0
   24.1143  -20.8794  -14.7017 C   0  0  2  0  0  0  0  0  0  0  0  0
   23.8959  -21.1631  -16.1499 N   0  0  0  0  0  0  0  0  0  0  0  0
   22.9940  -20.0282  -14.2354 C   0  0  0  0  0  0  0  0  0  0  0  0
   22.8987  -19.6912  -13.0066 O   0  0  0  0  0  0  0  0  0  0  0  0
   28.7395  -19.7705  -18.6708 N   0  0  0  0  0  0  0  0  0  0  0  0
   18.9027  -17.0471  -18.0407 C   0  0  0  0  0  0  0  0  0  0  0  0
   18.2693  -16.8936  -16.7859 O   0  0  0  0  0  0  0  0  0  0  0  0
   17.1462  -16.3091  -16.6640 C   0  0  0  0  0  0  0  0  0  0  0  0
   18.9022  -17.4202  -15.5749 C   0  0  0  0  0  0  0  0  0  0  0  0
   20.1664  -18.1842  -15.7651 C   0  0  1  0  0  0  0  0  0  0  0  0
   20.8155  -18.7818  -14.5762 N   0  0  0  0  0  0  0  0  0  0  0  0
   21.9824  -19.5364  -15.0770 C   0  0  0  0  0  0  0  0  0  0  0  0
   20.0412  -19.5390  -13.6250 O   0  0  0  0  0  0  0  0  0  0  0  0
   19.7602  -19.0512  -12.4905 O   0  0  0  0  0  0  0  0  0  0  0  0
  1  5  1  0
  1  2  1  0
  2  3  1  0
  4  3  1  0
  5  4  1  0
  5  6  1  1
  7  6  2  0
  9 10  2  0
  9  8  1  0
 11  9  1  0
 12 11  1  0
 13 12  1  0
 15 14  1  6
 14 13  1  0
 15 16  1  0
 16  6  1  0
 17 15  1  0
 18 17  2  0
 19 20  1  0
 20 22  1  0
 21 20  2  0
 22 23  1  0
 24 23  1  1
 24 25  1  0
 25 17  1  0
 26 24  1  0
 26 28  1  0
 27 26  2  0
M  END
$$$$
