PRQ.pdb
     RDKit          3D

 28 28  0  0  1  0  0  0  0  0999 V2000
   17.3101  -12.6112  -12.7379 N   0  0  0  0  0  0  0  0  0  0  0  0
   16.8820  -13.9214  -13.1238 C   0  0  0  0  0  0  0  0  0  0  0  0
   16.1069  -13.7819  -14.4250 C   0  0  0  0  0  0  0  0  0  0  0  0
   15.6679  -12.3139  -14.3183 C   0  0  0  0  0  0  0  0  0  0  0  0
   16.9125  -11.6884  -13.7684 C   0  0  1  0  0  0  0  0  0  0  0  0
   16.7083  -10.3140  -13.2526 C   0  0  0  0  0  0  0  0  0  0  0  0
   16.4731   -9.4074  -14.0901 O   0  0  0  0  0  0  0  0  0  0  0  0
   15.5416   -5.5055   -7.2290 N   0  0  0  0  0  0  0  0  0  0  0  0
   14.1210   -5.6020   -7.2583 C   0  0  0  0  0  0  0  0  0  0  0  0
   13.3661   -4.7600   -6.6351 N   0  0  0  0  0  0  0  0  0  0  0  0
   13.5721   -6.6738   -8.0099 N   0  0  0  0  0  0  0  0  0  0  0  0
   14.3806   -7.8344   -8.3016 C   0  0  0  0  0  0  0  0  0  0  0  0
   15.1088   -7.5814   -9.6174 C   0  0  0  0  0  0  0  0  0  0  0  0
   15.8104   -8.7924  -10.0983 C   0  0  0  0  0  0  0  0  0  0  0  0
   16.5180   -8.5864  -11.4031 C   0  0  2  0  0  0  0  0  0  0  0  0
   16.7636   -9.9752  -11.8894 N   0  0  0  0  0  0  0  0  0  0  0  0
   17.8321   -7.9109  -11.2862 C   0  0  0  0  0  0  0  0  0  0  0  0
   18.8062   -8.4791  -10.6853 O   0  0  0  0  0  0  0  0  0  0  0  0
   12.3418   -4.7873   -6.7008 N   0  0  0  0  0  0  0  0  0  0  0  0
   22.5178   -6.7463  -15.5265 C   0  0  0  0  0  0  0  0  0  0  0  0
   21.8850   -7.5648  -14.5628 O   0  0  0  0  0  0  0  0  0  0  0  0
   21.5738   -8.7743  -14.8045 C   0  0  0  0  0  0  0  0  0  0  0  0
   21.5728   -7.0294  -13.2360 C   0  0  0  0  0  0  0  0  0  0  0  0
   20.1926   -7.2701  -12.7311 C   0  0  1  0  0  0  0  0  0  0  0  0
   19.4770   -6.1531  -12.0735 N   0  0  0  0  0  0  0  0  0  0  0  0
   18.1063   -6.6371  -11.8110 C   0  0  0  0  0  0  0  0  0  0  0  0
   19.4899   -4.8346  -12.6556 O   0  0  0  0  0  0  0  0  0  0  0  0
   20.5457   -4.1353  -12.6413 O   0  0  0  0  0  0  0  0  0  0  0  0
  1  5  1  0
  1  2  1  0
  2  3  1  0
  4  3  1  0
  5  4  1  0
  5  6  1  1
  7  6  2  0
  9 10  2  0
  9  8  1  0
 11  9  1  0
 12 11  1  0
 13 12  1  0
 15 14  1  1
 14 13  1  0
 15 16  1  0
 16  6  1  0
 17 15  1  0
 18 17  2  0
 19 20  1  0
 20 22  1  0
 21 20  2  0
 22 23  1  0
 24 23  1  1
 24 25  1  0
 25 17  1  0
 26 24  1  0
 26 28  1  0
 27 26  2  0
M  END
$$$$
