PRQ.pdb
     RDKit          3D

 28 28  0  0  1  0  0  0  0  0999 V2000
   27.2547  -18.3676  -16.7026 N   0  0  0  0  0  0  0  0  0  0  0  0
   28.3827  -17.6459  -17.2080 C   0  0  0  0  0  0  0  0  0  0  0  0
   29.4873  -18.6569  -17.4747 C   0  0  0  0  0  0  0  0  0  0  0  0
   29.0593  -19.7789  -16.5171 C   0  0  0  0  0  0  0  0  0  0  0  0
   27.5757  -19.7705  -16.7208 C   0  0  1  0  0  0  0  0  0  0  0  0
   26.8310  -20.5373  -15.6940 C   0  0  0  0  0  0  0  0  0  0  0  0
   26.9972  -21.7823  -15.6636 O   0  0  0  0  0  0  0  0  0  0  0  0
   22.9510  -19.8246   -9.7295 N   0  0  0  0  0  0  0  0  0  0  0  0
   23.4967  -20.7069   -8.7539 C   0  0  0  0  0  0  0  0  0  0  0  0
   22.7889  -21.1670   -7.7769 N   0  0  0  0  0  0  0  0  0  0  0  0
   24.8633  -21.0584   -8.9083 N   0  0  0  0  0  0  0  0  0  0  0  0
   25.6400  -20.4699   -9.9742 C   0  0  0  0  0  0  0  0  0  0  0  0
   25.0017  -20.8734  -11.2992 C   0  0  0  0  0  0  0  0  0  0  0  0
   25.7634  -20.3534  -12.4565 C   0  0  0  0  0  0  0  0  0  0  0  0
   25.1828  -20.7597  -13.7768 C   0  0  2  0  0  0  0  0  0  0  0  0
   25.9573  -19.9504  -14.7620 N   0  0  0  0  0  0  0  0  0  0  0  0
   23.7493  -20.4223  -13.9444 C   0  0  0  0  0  0  0  0  0  0  0  0
   23.3403  -19.2210  -13.7945 O   0  0  0  0  0  0  0  0  0  0  0  0
   23.1666  -21.8294   -7.0892 N   0  0  0  0  0  0  0  0  0  0  0  0
   19.4759  -24.1036  -16.8305 C   0  0  0  0  0  0  0  0  0  0  0  0
   19.5498  -24.2862  -15.4303 O   0  0  0  0  0  0  0  0  0  0  0  0
   19.0942  -25.3285  -14.8609 C   0  0  0  0  0  0  0  0  0  0  0  0
   20.1705  -23.2616  -14.5881 C   0  0  0  0  0  0  0  0  0  0  0  0
   20.7480  -22.0836  -15.2929 C   0  0  1  0  0  0  0  0  0  0  0  0
   21.3416  -20.9969  -14.4812 N   0  0  0  0  0  0  0  0  0  0  0  0
   22.7579  -21.3615  -14.2736 C   0  0  0  0  0  0  0  0  0  0  0  0
   20.7038  -20.5635  -13.2634 O   0  0  0  0  0  0  0  0  0  0  0  0
   19.8491  -19.6291  -13.2821 O   0  0  0  0  0  0  0  0  0  0  0  0
  1  5  1  0
  1  2  1  0
  2  3  1  0
  4  3  1  0
  5  4  1  0
  5  6  1  1
  7  6  2  0
  9 10  2  0
  9  8  1  0
 11  9  1  0
 12 11  1  0
 13 12  1  0
 15 14  1  1
 14 13  1  0
 15 16  1  0
 16  6  1  0
 17 15  1  0
 18 17  2  0
 19 20  1  0
 20 22  1  0
 21 20  2  0
 22 23  1  0
 24 23  1  6
 24 25  1  0
 25 17  1  0
 26 24  1  0
 26 28  1  0
 27 26  2  0
M  END
$$$$
