PRQ.pdb
     RDKit          3D

 28 28  0  0  1  0  0  0  0  0999 V2000
   26.7717  -18.2443  -17.9104 N   0  0  0  0  0  0  0  0  0  0  0  0
   27.6887  -17.2779  -18.4338 C   0  0  0  0  0  0  0  0  0  0  0  0
   29.0835  -17.8776  -18.3415 C   0  0  0  0  0  0  0  0  0  0  0  0
   28.8627  -18.8947  -17.2119 C   0  0  0  0  0  0  0  0  0  0  0  0
   27.5137  -19.4320  -17.5784 C   0  0  1  0  0  0  0  0  0  0  0  0
   26.8739  -20.2181  -16.4968 C   0  0  0  0  0  0  0  0  0  0  0  0
   26.3126  -21.2962  -16.8153 O   0  0  0  0  0  0  0  0  0  0  0  0
   25.0001  -19.6623   -9.4616 N   0  0  0  0  0  0  0  0  0  0  0  0
   25.5540  -20.7649   -8.7506 C   0  0  0  0  0  0  0  0  0  0  0  0
   25.0279  -21.2065   -7.6572 N   0  0  0  0  0  0  0  0  0  0  0  0
   26.7181  -21.3586   -9.3050 N   0  0  0  0  0  0  0  0  0  0  0  0
   27.3526  -20.7577  -10.4548 C   0  0  0  0  0  0  0  0  0  0  0  0
   26.4053  -20.8983  -11.6416 C   0  0  0  0  0  0  0  0  0  0  0  0
   27.0610  -20.5257  -12.9148 C   0  0  0  0  0  0  0  0  0  0  0  0
   26.1432  -20.6022  -14.0968 C   0  0  2  0  0  0  0  0  0  0  0  0
   26.8622  -19.8244  -15.1473 N   0  0  0  0  0  0  0  0  0  0  0  0
   24.8223  -19.9629  -13.8878 C   0  0  0  0  0  0  0  0  0  0  0  0
   24.6893  -18.6954  -13.9803 O   0  0  0  0  0  0  0  0  0  0  0  0
   25.3917  -22.0321   -7.1669 N   0  0  0  0  0  0  0  0  0  0  0  0
   22.3886  -19.1207  -18.3419 C   0  0  0  0  0  0  0  0  0  0  0  0
   21.4474  -19.7430  -17.4898 O   0  0  0  0  0  0  0  0  0  0  0  0
   20.2026  -19.7516  -17.7515 C   0  0  0  0  0  0  0  0  0  0  0  0
   21.8943  -20.4100  -16.2652 C   0  0  0  0  0  0  0  0  0  0  0  0
   22.2661  -19.5262  -15.1257 C   0  0  1  0  0  0  0  0  0  0  0  0
   22.2966  -20.1059  -13.7637 N   0  0  0  0  0  0  0  0  0  0  0  0
   23.6487  -20.6731  -13.5852 C   0  0  0  0  0  0  0  0  0  0  0  0
   21.2616  -21.0118  -13.3326 O   0  0  0  0  0  0  0  0  0  0  0  0
   21.5161  -22.2388  -13.1490 O   0  0  0  0  0  0  0  0  0  0  0  0
  1  5  1  0
  1  2  1  0
  2  3  1  0
  4  3  1  0
  5  4  1  0
  5  6  1  1
  7  6  2  0
  9 10  2  0
  9  8  1  0
 11  9  1  0
 12 11  1  0
 13 12  1  0
 15 14  1  1
 14 13  1  0
 15 16  1  0
 16  6  1  0
 17 15  1  0
 18 17  2  0
 19 20  1  0
 20 22  1  0
 21 20  2  0
 22 23  1  0
 24 23  1  1
 24 25  1  0
 25 17  1  0
 26 24  1  0
 26 28  1  0
 27 26  2  0
M  END
$$$$
