PRQ.pdb
     RDKit          3D

 28 28  0  0  1  0  0  0  0  0999 V2000
   27.9453  -17.8391  -18.5403 N   0  0  0  0  0  0  0  0  0  0  0  0
   28.9490  -17.4182  -19.4701 C   0  0  0  0  0  0  0  0  0  0  0  0
   29.3068  -18.6216  -20.3287 C   0  0  0  0  0  0  0  0  0  0  0  0
   28.8885  -19.7579  -19.3838 C   0  0  0  0  0  0  0  0  0  0  0  0
   27.6092  -19.2076  -18.8329 C   0  0  1  0  0  0  0  0  0  0  0  0
   27.1127  -19.9378  -17.6424 C   0  0  0  0  0  0  0  0  0  0  0  0
   26.7139  -21.1178  -17.8084 O   0  0  0  0  0  0  0  0  0  0  0  0
   24.8155  -21.6309  -11.4061 N   0  0  0  0  0  0  0  0  0  0  0  0
   25.5382  -21.0042  -10.3511 C   0  0  0  0  0  0  0  0  0  0  0  0
   24.9711  -20.6650   -9.2418 N   0  0  0  0  0  0  0  0  0  0  0  0
   26.9196  -20.7694  -10.5789 N   0  0  0  0  0  0  0  0  0  0  0  0
   27.4796  -20.9954  -11.8908 C   0  0  0  0  0  0  0  0  0  0  0  0
   27.1081  -19.8074  -12.7717 C   0  0  0  0  0  0  0  0  0  0  0  0
   27.6369  -19.9560  -14.1458 C   0  0  0  0  0  0  0  0  0  0  0  0
   26.5645  -20.1527  -15.1737 C   0  0  2  0  0  0  0  0  0  0  0  0
   27.0649  -19.3850  -16.3509 N   0  0  0  0  0  0  0  0  0  0  0  0
   25.2457  -19.5908  -14.7969 C   0  0  0  0  0  0  0  0  0  0  0  0
   25.1000  -18.3343  -14.6156 O   0  0  0  0  0  0  0  0  0  0  0  0
   25.4925  -20.2414   -8.4653 N   0  0  0  0  0  0  0  0  0  0  0  0
   22.7070  -19.8594  -19.0347 C   0  0  0  0  0  0  0  0  0  0  0  0
   21.8349  -19.5267  -17.9726 O   0  0  0  0  0  0  0  0  0  0  0  0
   20.8857  -18.6920  -18.1151 C   0  0  0  0  0  0  0  0  0  0  0  0
   22.0048  -20.1528  -16.6597 C   0  0  0  0  0  0  0  0  0  0  0  0
   22.2098  -19.2325  -15.5070 C   0  0  1  0  0  0  0  0  0  0  0  0
   22.7788  -19.7839  -14.2562 N   0  0  0  0  0  0  0  0  0  0  0  0
   24.0876  -20.3654  -14.6179 C   0  0  0  0  0  0  0  0  0  0  0  0
   21.9982  -20.6666  -13.4261 O   0  0  0  0  0  0  0  0  0  0  0  0
   20.8930  -20.2834  -12.9408 O   0  0  0  0  0  0  0  0  0  0  0  0
  1  5  1  0
  1  2  1  0
  2  3  1  0
  4  3  1  0
  5  4  1  0
  5  6  1  1
  7  6  2  0
  9 10  2  0
  9  8  1  0
 11  9  1  0
 12 11  1  0
 13 12  1  0
 15 14  1  1
 14 13  1  0
 15 16  1  0
 16  6  1  0
 17 15  1  0
 18 17  2  0
 19 20  1  0
 20 22  1  0
 21 20  2  0
 22 23  1  0
 24 23  1  1
 24 25  1  0
 25 17  1  0
 26 24  1  0
 26 28  1  0
 27 26  2  0
M  END
$$$$
