YRS.pdb
     RDKit          3D

 30 30  0  0  1  0  0  0  0  0999 V2000
   24.9491  -17.8695  -16.7265 O   0  0  0  0  0  0  0  0  0  0  0  0
   24.0178  -18.5380  -15.9405 C   0  0  0  0  0  0  0  0  0  0  0  0
   23.0555  -17.8113  -15.2546 C   0  0  0  0  0  0  0  0  0  0  0  0
   22.1084  -18.4632  -14.4575 C   0  0  0  0  0  0  0  0  0  0  0  0
   22.1280  -19.8281  -14.3511 C   0  0  0  0  0  0  0  0  0  0  0  0
   21.1405  -20.5253  -13.5140 C   0  0  0  0  0  0  0  0  0  0  0  0
   20.0508  -21.0779  -14.4436 C   0  0  2  0  0  0  0  0  0  0  0  0
   19.0789  -20.0511  -14.7452 N   0  0  0  0  0  0  0  0  0  0  0  0
   19.4412  -22.2911  -13.8799 C   0  0  0  0  0  0  0  0  0  0  0  0
   18.4658  -22.0936  -13.0760 O   0  0  0  0  0  0  0  0  0  0  0  0
   23.0825  -20.5439  -15.0321 C   0  0  0  0  0  0  0  0  0  0  0  0
   24.0274  -19.9112  -15.8256 C   0  0  0  0  0  0  0  0  0  0  0  0
   21.2740  -29.2308  -12.0505 N   0  0  0  0  0  0  0  0  0  0  0  0
   20.1686  -30.0125  -12.4711 C   0  0  0  0  0  0  0  0  0  0  0  0
   19.7325  -31.0466  -11.8306 N   0  0  0  0  0  0  0  0  0  0  0  0
   19.4865  -29.6484  -13.6677 N   0  0  0  0  0  0  0  0  0  0  0  0
   19.8446  -28.4535  -14.4197 C   0  0  0  0  0  0  0  0  0  0  0  0
   19.4054  -27.2612  -13.6386 C   0  0  0  0  0  0  0  0  0  0  0  0
   19.7152  -25.9500  -14.2284 C   0  0  0  0  0  0  0  0  0  0  0  0
   19.1859  -24.7284  -13.5206 C   0  0  2  0  0  0  0  0  0  0  0  0
   19.8632  -23.6060  -14.1725 N   0  0  0  0  0  0  0  0  0  0  0  0
   19.5969  -24.6680  -12.0943 C   0  0  0  0  0  0  0  0  0  0  0  0
   20.8263  -24.6095  -11.7384 O   0  0  0  0  0  0  0  0  0  0  0  0
   18.9024  -31.5912  -12.1158 O   0  0  0  0  0  0  0  0  0  0  0  0
   17.1470  -23.4715   -8.9904 C   0  0  0  0  0  0  0  0  0  0  0  0
   18.5178  -23.4274   -8.9233 C   0  0  1  0  0  0  0  0  0  0  0  0
   19.1488  -24.6114   -9.6147 N   0  0  0  0  0  0  0  0  0  0  0  0
   18.6861  -24.6660  -10.9997 C   0  0  0  0  0  0  0  0  0  0  0  0
   18.7059  -25.8731   -8.9534 O   0  0  0  0  0  0  0  0  0  0  0  0
   17.9782  -26.7126   -9.5152 O   0  0  0  0  0  0  0  0  0  0  0  0
  2  1  1  0
  3  2  2  0
  4  3  1  0
  5 11  1  0
  5  4  2  0
  6  5  1  0
  7  9  1  0
  7  6  1  0
  7  8  1  1
  9 10  2  0
 11 12  2  0
 12  2  1  0
 13 14  1  0
 14 15  2  0
 16 14  1  0
 16 17  1  0
 18 17  1  0
 19 18  1  0
 20 19  1  6
 21 20  1  0
 21  9  1  0
 22 20  1  0
 23 22  2  0
 24 25  1  0
 26 25  1  6
 26 28  1  0
 26 27  1  0
 27 22  1  0
 28 30  1  0
 29 28  2  0
M  END
$$$$
