YRS.pdb
     RDKit          3D

 30 30  0  0  1  0  0  0  0  0999 V2000
   15.4191  -28.5125   -3.4830 O   0  0  0  0  0  0  0  0  0  0  0  0
   15.7150  -27.5113   -4.4007 C   0  0  0  0  0  0  0  0  0  0  0  0
   16.2462  -26.3103   -3.9537 C   0  0  0  0  0  0  0  0  0  0  0  0
   16.5514  -25.2886   -4.8595 C   0  0  0  0  0  0  0  0  0  0  0  0
   16.3261  -25.4717   -6.1975 C   0  0  0  0  0  0  0  0  0  0  0  0
   16.6394  -24.4049   -7.1595 C   0  0  0  0  0  0  0  0  0  0  0  0
   17.9358  -24.7970   -7.8823 C   0  0  2  0  0  0  0  0  0  0  0  0
   19.0545  -24.7530   -6.9677 N   0  0  0  0  0  0  0  0  0  0  0  0
   18.1451  -23.9680   -9.0783 C   0  0  0  0  0  0  0  0  0  0  0  0
   18.7173  -22.8422   -8.8735 O   0  0  0  0  0  0  0  0  0  0  0  0
   15.8002  -26.6627   -6.6359 C   0  0  0  0  0  0  0  0  0  0  0  0
   15.4927  -27.6839   -5.7497 C   0  0  0  0  0  0  0  0  0  0  0  0
   23.4397  -24.4199  -15.0527 N   0  0  0  0  0  0  0  0  0  0  0  0
   22.5157  -25.4951  -15.0633 C   0  0  0  0  0  0  0  0  0  0  0  0
   22.8117  -26.6955  -15.4390 N   0  0  0  0  0  0  0  0  0  0  0  0
   21.1781  -25.2544  -14.6358 N   0  0  0  0  0  0  0  0  0  0  0  0
   20.7958  -24.0109  -13.9808 C   0  0  0  0  0  0  0  0  0  0  0  0
   20.2873  -24.3385  -12.6175 C   0  0  0  0  0  0  0  0  0  0  0  0
   18.8265  -24.4350  -12.4766 C   0  0  0  0  0  0  0  0  0  0  0  0
   18.1590  -23.4910  -11.5087 C   0  0  2  0  0  0  0  0  0  0  0  0
   17.7615  -24.3408  -10.3847 N   0  0  0  0  0  0  0  0  0  0  0  0
   16.8959  -22.9196  -12.0426 C   0  0  0  0  0  0  0  0  0  0  0  0
   15.8631  -23.6412  -12.2755 O   0  0  0  0  0  0  0  0  0  0  0  0
   22.1383  -27.4787  -15.4434 O   0  0  0  0  0  0  0  0  0  0  0  0
   14.3000  -18.9719  -13.2966 C   0  0  0  0  0  0  0  0  0  0  0  0
   15.4811  -19.5122  -12.8509 C   0  0  1  0  0  0  0  0  0  0  0  0
   15.4115  -21.0179  -12.7722 N   0  0  0  0  0  0  0  0  0  0  0  0
   16.7064  -21.5402  -12.3412 C   0  0  0  0  0  0  0  0  0  0  0  0
   15.1404  -21.5791  -14.1275 O   0  0  0  0  0  0  0  0  0  0  0  0
   16.0248  -21.7159  -14.9929 O   0  0  0  0  0  0  0  0  0  0  0  0
  2  1  1  0
  3  2  2  0
  4  3  1  0
  5 11  1  0
  5  4  2  0
  6  5  1  0
  7  9  1  0
  7  6  1  0
  7  8  1  1
  9 10  2  0
 11 12  2  0
 12  2  1  0
 13 14  1  0
 14 15  2  0
 16 14  1  0
 16 17  1  0
 18 17  1  0
 19 18  1  0
 20 19  1  6
 21 20  1  0
 21  9  1  0
 22 20  1  0
 23 22  2  0
 24 25  1  0
 26 25  1  1
 26 28  1  0
 26 27  1  0
 27 22  1  0
 28 30  1  0
 29 28  2  0
M  END
$$$$
