YRS.pdb
     RDKit          3D

 30 30  0  0  1  0  0  0  0  0999 V2000
   27.4548  -16.2970  -26.8942 O   0  0  0  0  0  0  0  0  0  0  0  0
   26.3135  -16.0503  -26.1401 C   0  0  0  0  0  0  0  0  0  0  0  0
   26.4398  -15.5335  -24.8589 C   0  0  0  0  0  0  0  0  0  0  0  0
   25.3048  -15.2777  -24.0820 C   0  0  0  0  0  0  0  0  0  0  0  0
   24.0587  -15.5376  -24.5861 C   0  0  0  0  0  0  0  0  0  0  0  0
   22.8579  -15.2765  -23.7788 C   0  0  0  0  0  0  0  0  0  0  0  0
   22.5884  -16.5264  -22.9292 C   0  0  2  0  0  0  0  0  0  0  0  0
   22.2694  -17.6523  -23.7781 N   0  0  0  0  0  0  0  0  0  0  0  0
   21.5539  -16.2646  -21.9179 C   0  0  0  0  0  0  0  0  0  0  0  0
   21.8336  -15.3487  -21.0697 O   0  0  0  0  0  0  0  0  0  0  0  0
   23.9381  -16.0491  -25.8554 C   0  0  0  0  0  0  0  0  0  0  0  0
   25.0541  -16.3079  -26.6367 C   0  0  0  0  0  0  0  0  0  0  0  0
   15.2343  -12.1645  -22.9814 N   0  0  0  0  0  0  0  0  0  0  0  0
   16.5449  -12.5043  -23.4021 C   0  0  0  0  0  0  0  0  0  0  0  0
   17.0601  -12.1303  -24.5265 N   0  0  0  0  0  0  0  0  0  0  0  0
   17.3550  -13.3036  -22.5449 N   0  0  0  0  0  0  0  0  0  0  0  0
   16.8935  -13.7249  -21.2292 C   0  0  0  0  0  0  0  0  0  0  0  0
   17.9593  -14.5621  -20.6066 C   0  0  0  0  0  0  0  0  0  0  0  0
   18.3467  -15.7732  -21.3457 C   0  0  0  0  0  0  0  0  0  0  0  0
   19.4120  -16.6479  -20.7346 C   0  0  2  0  0  0  0  0  0  0  0  0
   20.3201  -16.9466  -21.8435 N   0  0  0  0  0  0  0  0  0  0  0  0
   18.8869  -17.9625  -20.2842 C   0  0  0  0  0  0  0  0  0  0  0  0
   18.4996  -18.8635  -21.1087 O   0  0  0  0  0  0  0  0  0  0  0  0
   17.9701  -12.4661  -24.8816 O   0  0  0  0  0  0  0  0  0  0  0  0
   18.8607  -19.1604  -16.2844 C   0  0  0  0  0  0  0  0  0  0  0  0
   18.9183  -20.1169  -17.2681 C   0  0  1  0  0  0  0  0  0  0  0  0
   18.2382  -19.6567  -18.5345 N   0  0  0  0  0  0  0  0  0  0  0  0
   18.7653  -18.3492  -18.9191 C   0  0  0  0  0  0  0  0  0  0  0  0
   16.7773  -19.4856  -18.2857 O   0  0  0  0  0  0  0  0  0  0  0  0
   16.2334  -18.3701  -18.1875 O   0  0  0  0  0  0  0  0  0  0  0  0
  2  1  1  0
  3  2  2  0
  4  3  1  0
  5 11  1  0
  5  4  2  0
  6  5  1  0
  7  9  1  0
  7  6  1  0
  7  8  1  6
  9 10  2  0
 11 12  2  0
 12  2  1  0
 13 14  1  0
 14 15  2  0
 16 14  1  0
 16 17  1  0
 18 17  1  0
 19 18  1  0
 20 19  1  6
 21 20  1  0
 21  9  1  0
 22 20  1  0
 23 22  2  0
 24 25  1  0
 26 25  1  6
 26 28  1  0
 26 27  1  0
 27 22  1  0
 28 30  1  0
 29 28  2  0
M  END
$$$$
