YRS.pdb
     RDKit          3D

 30 30  0  0  1  0  0  0  0  0999 V2000
   11.3794  -11.5229  -10.9615 O   0  0  0  0  0  0  0  0  0  0  0  0
   12.5436  -10.7897  -11.1595 C   0  0  0  0  0  0  0  0  0  0  0  0
   13.2517  -10.9387  -12.3430 C   0  0  0  0  0  0  0  0  0  0  0  0
   14.4262  -10.2110  -12.5636 C   0  0  0  0  0  0  0  0  0  0  0  0
   14.8830   -9.3444  -11.6070 C   0  0  0  0  0  0  0  0  0  0  0  0
   16.1177   -8.5763  -11.8249 C   0  0  0  0  0  0  0  0  0  0  0  0
   17.2995   -9.5454  -11.6800 C   0  0  2  0  0  0  0  0  0  0  0  0
   17.3945  -10.0226  -10.3186 N   0  0  0  0  0  0  0  0  0  0  0  0
   18.5474   -8.9314  -12.1566 C   0  0  0  0  0  0  0  0  0  0  0  0
   19.2969   -8.4328  -11.2475 O   0  0  0  0  0  0  0  0  0  0  0  0
   14.1786   -9.1997  -10.4365 C   0  0  0  0  0  0  0  0  0  0  0  0
   13.0133   -9.9145  -10.2042 C   0  0  0  0  0  0  0  0  0  0  0  0
   25.2916  -11.3358  -14.9538 N   0  0  0  0  0  0  0  0  0  0  0  0
   25.3641  -10.4082  -16.0234 C   0  0  0  0  0  0  0  0  0  0  0  0
   26.4640  -10.0739  -16.6136 N   0  0  0  0  0  0  0  0  0  0  0  0
   24.1618   -9.8010  -16.4877 N   0  0  0  0  0  0  0  0  0  0  0  0
   22.8527  -10.2485  -16.0321 C   0  0  0  0  0  0  0  0  0  0  0  0
   22.2589   -9.1718  -15.1879 C   0  0  0  0  0  0  0  0  0  0  0  0
   20.9090   -9.4294  -14.6641 C   0  0  0  0  0  0  0  0  0  0  0  0
   20.2652   -8.3424  -13.8410 C   0  0  2  0  0  0  0  0  0  0  0  0
   18.9399   -8.8700  -13.5112 N   0  0  0  0  0  0  0  0  0  0  0  0
   20.0179   -7.1021  -14.6204 C   0  0  0  0  0  0  0  0  0  0  0  0
   19.2476   -7.0794  -15.6439 O   0  0  0  0  0  0  0  0  0  0  0  0
   26.5229   -9.3596  -17.3573 O   0  0  0  0  0  0  0  0  0  0  0  0
   21.6283   -3.3962  -13.5645 C   0  0  0  0  0  0  0  0  0  0  0  0
   20.4260   -3.4216  -14.2275 C   0  0  1  0  0  0  0  0  0  0  0  0
   20.2972   -4.6442  -15.1031 N   0  0  0  0  0  0  0  0  0  0  0  0
   20.5969   -5.8376  -14.3148 C   0  0  0  0  0  0  0  0  0  0  0  0
   21.3020   -4.5811  -16.2039 O   0  0  0  0  0  0  0  0  0  0  0  0
   22.2430   -5.3894  -16.3088 O   0  0  0  0  0  0  0  0  0  0  0  0
  2  1  1  0
  3  2  2  0
  4  3  1  0
  5 11  1  0
  5  4  2  0
  6  5  1  0
  7  9  1  0
  7  6  1  0
  7  8  1  1
  9 10  2  0
 11 12  2  0
 12  2  1  0
 13 14  1  0
 14 15  2  0
 16 14  1  0
 16 17  1  0
 18 17  1  0
 19 18  1  0
 20 19  1  6
 21 20  1  0
 21  9  1  0
 22 20  1  0
 23 22  2  0
 24 25  1  0
 26 25  1  1
 26 28  1  0
 26 27  1  0
 27 22  1  0
 28 30  1  0
 29 28  2  0
M  END
$$$$
