YRS.pdb
     RDKit          3D

 30 30  0  0  1  0  0  0  0  0999 V2000
   28.0788  -20.0806   -5.5444 O   0  0  0  0  0  0  0  0  0  0  0  0
   27.7981  -20.0341   -6.9050 C   0  0  0  0  0  0  0  0  0  0  0  0
   28.8409  -20.0699   -7.8191 C   0  0  0  0  0  0  0  0  0  0  0  0
   28.5818  -20.0240   -9.1932 C   0  0  0  0  0  0  0  0  0  0  0  0
   27.2911  -19.9435   -9.6430 C   0  0  0  0  0  0  0  0  0  0  0  0
   27.0053  -19.8912  -11.0843 C   0  0  0  0  0  0  0  0  0  0  0  0
   26.9476  -21.3364  -11.5992 C   0  0  2  0  0  0  0  0  0  0  0  0
   28.2712  -21.7969  -11.9541 N   0  0  0  0  0  0  0  0  0  0  0  0
   25.9848  -21.4658  -12.7027 C   0  0  0  0  0  0  0  0  0  0  0  0
   26.4273  -21.1434  -13.8590 O   0  0  0  0  0  0  0  0  0  0  0  0
   26.2614  -19.9086   -8.7343 C   0  0  0  0  0  0  0  0  0  0  0  0
   26.5033  -19.9530   -7.3696 C   0  0  0  0  0  0  0  0  0  0  0  0
   21.0281  -26.8675  -15.7907 N   0  0  0  0  0  0  0  0  0  0  0  0
   22.1484  -26.3078  -15.1262 C   0  0  0  0  0  0  0  0  0  0  0  0
   23.3638  -26.7114  -15.2985 N   0  0  0  0  0  0  0  0  0  0  0  0
   21.9386  -25.2351  -14.2123 N   0  0  0  0  0  0  0  0  0  0  0  0
   20.8836  -24.2517  -14.4154 C   0  0  0  0  0  0  0  0  0  0  0  0
   21.4637  -22.8941  -14.2033 C   0  0  0  0  0  0  0  0  0  0  0  0
   22.6172  -22.8171  -13.2940 C   0  0  0  0  0  0  0  0  0  0  0  0
   23.7933  -21.9828  -13.7345 C   0  0  2  0  0  0  0  0  0  0  0  0
   24.6535  -21.9105  -12.5520 N   0  0  0  0  0  0  0  0  0  0  0  0
   23.4183  -20.5784  -14.0412 C   0  0  0  0  0  0  0  0  0  0  0  0
   22.9946  -19.7712  -13.1409 O   0  0  0  0  0  0  0  0  0  0  0  0
   24.1850  -26.2661  -14.8580 O   0  0  0  0  0  0  0  0  0  0  0  0
   23.6144  -16.7669  -17.0286 C   0  0  0  0  0  0  0  0  0  0  0  0
   23.9284  -18.0741  -16.7486 C   0  0  1  0  0  0  0  0  0  0  0  0
   23.1360  -18.5996  -15.5765 N   0  0  0  0  0  0  0  0  0  0  0  0
   23.4925  -19.9967  -15.3388 C   0  0  0  0  0  0  0  0  0  0  0  0
   21.6801  -18.5667  -15.9000 O   0  0  0  0  0  0  0  0  0  0  0  0
   21.0772  -19.5308  -16.4069 O   0  0  0  0  0  0  0  0  0  0  0  0
  2  1  1  0
  3  2  2  0
  4  3  1  0
  5 11  1  0
  5  4  2  0
  6  5  1  0
  7  9  1  0
  7  6  1  0
  7  8  1  6
  9 10  2  0
 11 12  2  0
 12  2  1  0
 13 14  1  0
 14 15  2  0
 16 14  1  0
 16 17  1  0
 18 17  1  0
 19 18  1  0
 20 19  1  1
 21 20  1  0
 21  9  1  0
 22 20  1  0
 23 22  2  0
 24 25  1  0
 26 25  1  1
 26 28  1  0
 26 27  1  0
 27 22  1  0
 28 30  1  0
 29 28  2  0
M  END
$$$$
