YRS.pdb
     RDKit          3D

 30 30  0  0  1  0  0  0  0  0999 V2000
   12.8552  -25.4336  -13.4384 O   0  0  0  0  0  0  0  0  0  0  0  0
   13.6880  -24.4178  -13.8929 C   0  0  0  0  0  0  0  0  0  0  0  0
   13.5784  -23.1481  -13.3448 C   0  0  0  0  0  0  0  0  0  0  0  0
   14.4062  -22.1105  -13.7872 C   0  0  0  0  0  0  0  0  0  0  0  0
   15.3325  -22.3459  -14.7675 C   0  0  0  0  0  0  0  0  0  0  0  0
   16.2062  -21.2635  -15.2437 C   0  0  0  0  0  0  0  0  0  0  0  0
   17.4302  -21.2132  -14.3183 C   0  0  2  0  0  0  0  0  0  0  0  0
   17.0355  -20.8235  -12.9833 N   0  0  0  0  0  0  0  0  0  0  0  0
   18.4796  -20.3485  -14.8772 C   0  0  0  0  0  0  0  0  0  0  0  0
   18.3061  -19.0926  -14.7058 O   0  0  0  0  0  0  0  0  0  0  0  0
   15.4379  -23.6048  -15.3073 C   0  0  0  0  0  0  0  0  0  0  0  0
   14.6241  -24.6426  -14.8789 C   0  0  0  0  0  0  0  0  0  0  0  0
   26.2253  -22.9623  -16.9758 N   0  0  0  0  0  0  0  0  0  0  0  0
   24.9458  -23.2346  -16.4294 C   0  0  0  0  0  0  0  0  0  0  0  0
   24.5804  -24.3953  -15.9946 N   0  0  0  0  0  0  0  0  0  0  0  0
   23.9958  -22.1761  -16.3464 N   0  0  0  0  0  0  0  0  0  0  0  0
   24.3133  -20.8259  -16.7911 C   0  0  0  0  0  0  0  0  0  0  0  0
   23.0950  -19.9815  -16.6265 C   0  0  0  0  0  0  0  0  0  0  0  0
   21.9018  -20.6612  -16.0996 C   0  0  0  0  0  0  0  0  0  0  0  0
   20.6315  -19.8551  -16.0000 C   0  0  2  0  0  0  0  0  0  0  0  0
   19.6200  -20.8193  -15.5632 N   0  0  0  0  0  0  0  0  0  0  0  0
   20.1632  -19.3560  -17.3186 C   0  0  0  0  0  0  0  0  0  0  0  0
   19.7094  -20.1397  -18.2249 O   0  0  0  0  0  0  0  0  0  0  0  0
   23.6291  -24.6075  -15.6529 O   0  0  0  0  0  0  0  0  0  0  0  0
   19.8878  -15.3554  -18.0842 C   0  0  0  0  0  0  0  0  0  0  0  0
   19.0989  -16.1535  -18.8756 C   0  0  1  0  0  0  0  0  0  0  0  0
   19.6639  -17.5474  -19.0015 N   0  0  0  0  0  0  0  0  0  0  0  0
   20.1680  -17.9845  -17.7014 C   0  0  0  0  0  0  0  0  0  0  0  0
   20.8227  -17.5361  -19.9408 O   0  0  0  0  0  0  0  0  0  0  0  0
   21.9953  -17.7331  -19.5718 O   0  0  0  0  0  0  0  0  0  0  0  0
  2  1  1  0
  3  2  2  0
  4  3  1  0
  5 11  1  0
  5  4  2  0
  6  5  1  0
  7  9  1  0
  7  6  1  0
  7  8  1  1
  9 10  2  0
 11 12  2  0
 12  2  1  0
 13 14  1  0
 14 15  2  0
 16 14  1  0
 16 17  1  0
 18 17  1  0
 19 18  1  0
 20 19  1  6
 21 20  1  0
 21  9  1  0
 22 20  1  0
 23 22  2  0
 24 25  1  0
 26 25  1  1
 26 28  1  0
 26 27  1  0
 27 22  1  0
 28 30  1  0
 29 28  2  0
M  END
$$$$
