YRS.pdb
     RDKit          3D

 30 30  0  0  1  0  0  0  0  0999 V2000
   29.3997  -14.4365  -19.9336 O   0  0  0  0  0  0  0  0  0  0  0  0
   28.5373  -15.2962  -19.2633 C   0  0  0  0  0  0  0  0  0  0  0  0
   28.8119  -15.6532  -17.9513 C   0  0  0  0  0  0  0  0  0  0  0  0
   27.9579  -16.5173  -17.2575 C   0  0  0  0  0  0  0  0  0  0  0  0
   26.8419  -17.0160  -17.8742 C   0  0  0  0  0  0  0  0  0  0  0  0
   25.9380  -17.9276  -17.1574 C   0  0  0  0  0  0  0  0  0  0  0  0
   26.6157  -19.3040  -17.1002 C   0  0  2  0  0  0  0  0  0  0  0  0
   26.7210  -19.8682  -18.4271 N   0  0  0  0  0  0  0  0  0  0  0  0
   25.9245  -20.1941  -16.1561 C   0  0  0  0  0  0  0  0  0  0  0  0
   25.0552  -20.9767  -16.6743 O   0  0  0  0  0  0  0  0  0  0  0  0
   26.5735  -16.6597  -19.1735 C   0  0  0  0  0  0  0  0  0  0  0  0
   27.4110  -15.8045  -19.8735 C   0  0  0  0  0  0  0  0  0  0  0  0
   23.7669  -19.6455   -9.0144 N   0  0  0  0  0  0  0  0  0  0  0  0
   24.3197  -20.8843   -8.6024 C   0  0  0  0  0  0  0  0  0  0  0  0
   23.7928  -21.6434   -7.6991 N   0  0  0  0  0  0  0  0  0  0  0  0
   25.5266  -21.3336   -9.2120 N   0  0  0  0  0  0  0  0  0  0  0  0
   26.2435  -20.5182  -10.1828 C   0  0  0  0  0  0  0  0  0  0  0  0
   25.4547  -20.4975  -11.4485 C   0  0  0  0  0  0  0  0  0  0  0  0
   26.0752  -21.1533  -12.6095 C   0  0  0  0  0  0  0  0  0  0  0  0
   25.3355  -21.0859  -13.9217 C   0  0  2  0  0  0  0  0  0  0  0  0
   26.1658  -20.2244  -14.7655 N   0  0  0  0  0  0  0  0  0  0  0  0
   24.0272  -20.3914  -13.8083 C   0  0  0  0  0  0  0  0  0  0  0  0
   23.9292  -19.1773  -13.4111 O   0  0  0  0  0  0  0  0  0  0  0  0
   24.1778  -22.5616   -7.4242 O   0  0  0  0  0  0  0  0  0  0  0  0
   21.1885  -20.9500  -16.2704 C   0  0  0  0  0  0  0  0  0  0  0  0
   21.0150  -19.9080  -15.3930 C   0  0  1  0  0  0  0  0  0  0  0  0
   21.5190  -20.2512  -14.0123 N   0  0  0  0  0  0  0  0  0  0  0  0
   22.7747  -20.9900  -14.1254 C   0  0  0  0  0  0  0  0  0  0  0  0
   20.5415  -21.1481  -13.3300 O   0  0  0  0  0  0  0  0  0  0  0  0
   19.3824  -20.7941  -13.0452 O   0  0  0  0  0  0  0  0  0  0  0  0
  2  1  1  0
  3  2  2  0
  4  3  1  0
  5 11  1  0
  5  4  2  0
  6  5  1  0
  7  9  1  0
  7  6  1  0
  7  8  1  6
  9 10  2  0
 11 12  2  0
 12  2  1  0
 13 14  1  0
 14 15  2  0
 16 14  1  0
 16 17  1  0
 18 17  1  0
 19 18  1  0
 20 19  1  1
 21 20  1  0
 21  9  1  0
 22 20  1  0
 23 22  2  0
 24 25  1  0
 26 25  1  1
 26 28  1  0
 26 27  1  0
 27 22  1  0
 28 30  1  0
 29 28  2  0
M  END
$$$$
