YRS.pdb
     RDKit          3D

 30 30  0  0  1  0  0  0  0  0999 V2000
   16.8112  -23.5932  -12.9246 O   0  0  0  0  0  0  0  0  0  0  0  0
   18.0615  -23.0052  -13.0772 C   0  0  0  0  0  0  0  0  0  0  0  0
   18.1593  -21.7489  -13.6572 C   0  0  0  0  0  0  0  0  0  0  0  0
   19.4073  -21.1382  -13.8210 C   0  0  0  0  0  0  0  0  0  0  0  0
   20.5427  -21.7818  -13.4069 C   0  0  0  0  0  0  0  0  0  0  0  0
   21.8607  -21.1526  -13.5762 C   0  0  0  0  0  0  0  0  0  0  0  0
   22.5998  -21.2539  -12.2344 C   0  0  2  0  0  0  0  0  0  0  0  0
   21.8786  -20.5358  -11.2076 N   0  0  0  0  0  0  0  0  0  0  0  0
   23.9955  -20.8110  -12.3655 C   0  0  0  0  0  0  0  0  0  0  0  0
   24.2102  -19.5807  -12.0884 O   0  0  0  0  0  0  0  0  0  0  0  0
   20.4413  -23.0257  -12.8328 C   0  0  0  0  0  0  0  0  0  0  0  0
   19.2111  -23.6431  -12.6643 C   0  0  0  0  0  0  0  0  0  0  0  0
   31.1255  -22.4305   -8.2273 N   0  0  0  0  0  0  0  0  0  0  0  0
   31.6389  -22.0898   -9.5042 C   0  0  0  0  0  0  0  0  0  0  0  0
   32.8988  -22.0598   -9.7894 N   0  0  0  0  0  0  0  0  0  0  0  0
   30.7243  -21.7600  -10.5456 N   0  0  0  0  0  0  0  0  0  0  0  0
   29.3151  -22.1204  -10.4695 C   0  0  0  0  0  0  0  0  0  0  0  0
   28.6140  -21.5126  -11.6372 C   0  0  0  0  0  0  0  0  0  0  0  0
   27.1693  -21.7715  -11.7323 C   0  0  0  0  0  0  0  0  0  0  0  0
   26.4120  -21.0803  -12.8378 C   0  0  2  0  0  0  0  0  0  0  0  0
   25.0628  -21.6443  -12.7647 N   0  0  0  0  0  0  0  0  0  0  0  0
   26.9189  -21.4332  -14.1889 C   0  0  0  0  0  0  0  0  0  0  0  0
   26.4866  -22.4499  -14.8378 O   0  0  0  0  0  0  0  0  0  0  0  0
   33.2706  -21.8369  -10.7269 O   0  0  0  0  0  0  0  0  0  0  0  0
   29.0831  -23.0284  -17.4293 C   0  0  0  0  0  0  0  0  0  0  0  0
   28.7494  -22.5639  -16.1808 C   0  0  1  0  0  0  0  0  0  0  0  0
   28.3890  -21.0985  -16.2085 N   0  0  0  0  0  0  0  0  0  0  0  0
   27.9138  -20.6921  -14.8878 C   0  0  0  0  0  0  0  0  0  0  0  0
   27.2676  -20.8757  -17.1667 O   0  0  0  0  0  0  0  0  0  0  0  0
   26.1196  -21.3200  -16.9805 O   0  0  0  0  0  0  0  0  0  0  0  0
  2  1  1  0
  3  2  2  0
  4  3  1  0
  5 11  1  0
  5  4  2  0
  6  5  1  0
  7  9  1  0
  7  6  1  0
  7  8  1  1
  9 10  2  0
 11 12  2  0
 12  2  1  0
 13 14  1  0
 14 15  2  0
 16 14  1  0
 16 17  1  0
 18 17  1  0
 19 18  1  0
 20 19  1  1
 21 20  1  0
 21  9  1  0
 22 20  1  0
 23 22  2  0
 24 25  1  0
 26 25  1  1
 26 28  1  0
 26 27  1  0
 27 22  1  0
 28 30  1  0
 29 28  2  0
M  END
$$$$
