YRS.pdb
     RDKit          3D

 30 30  0  0  1  0  0  0  0  0999 V2000
   16.5237  -18.3572  -19.5670 O   0  0  0  0  0  0  0  0  0  0  0  0
   17.8660  -18.5355  -19.2533 C   0  0  0  0  0  0  0  0  0  0  0  0
   18.2314  -19.5248  -18.3522 C   0  0  0  0  0  0  0  0  0  0  0  0
   19.5765  -19.7218  -18.0216 C   0  0  0  0  0  0  0  0  0  0  0  0
   20.5422  -18.9348  -18.5896 C   0  0  0  0  0  0  0  0  0  0  0  0
   21.9591  -19.1292  -18.2483 C   0  0  0  0  0  0  0  0  0  0  0  0
   22.1876  -18.5289  -16.8539 C   0  0  2  0  0  0  0  0  0  0  0  0
   22.0022  -17.0955  -16.8868 N   0  0  0  0  0  0  0  0  0  0  0  0
   23.4995  -18.9212  -16.3186 C   0  0  0  0  0  0  0  0  0  0  0  0
   24.4760  -18.1623  -16.6459 O   0  0  0  0  0  0  0  0  0  0  0  0
   20.1760  -17.9564  -19.4817 C   0  0  0  0  0  0  0  0  0  0  0  0
   18.8469  -17.7496  -19.8185 C   0  0  0  0  0  0  0  0  0  0  0  0
   26.1755  -20.1589   -8.9108 N   0  0  0  0  0  0  0  0  0  0  0  0
   25.0215  -20.7102   -9.5225 C   0  0  0  0  0  0  0  0  0  0  0  0
   23.8733  -20.8080   -8.9378 N   0  0  0  0  0  0  0  0  0  0  0  0
   25.1166  -21.1877  -10.8615 N   0  0  0  0  0  0  0  0  0  0  0  0
   26.3502  -21.0770  -11.6279 C   0  0  0  0  0  0  0  0  0  0  0  0
   26.0765  -21.5326  -13.0215 C   0  0  0  0  0  0  0  0  0  0  0  0
   24.8905  -20.9542  -13.6712 C   0  0  0  0  0  0  0  0  0  0  0  0
   25.0806  -20.3243  -15.0279 C   0  0  2  0  0  0  0  0  0  0  0  0
   23.7214  -20.0465  -15.4956 N   0  0  0  0  0  0  0  0  0  0  0  0
   25.6597  -21.2648  -16.0215 C   0  0  0  0  0  0  0  0  0  0  0  0
   25.0547  -22.3341  -16.3849 O   0  0  0  0  0  0  0  0  0  0  0  0
   23.0396  -21.2319   -9.3760 O   0  0  0  0  0  0  0  0  0  0  0  0
   29.3886  -20.6666  -17.7171 C   0  0  0  0  0  0  0  0  0  0  0  0
   28.4819  -21.3464  -18.4926 C   0  0  1  0  0  0  0  0  0  0  0  0
   27.4252  -22.0221  -17.6530 N   0  0  0  0  0  0  0  0  0  0  0  0
   26.9182  -21.0769  -16.6606 C   0  0  0  0  0  0  0  0  0  0  0  0
   28.0315  -23.1615  -16.9050 O   0  0  0  0  0  0  0  0  0  0  0  0
   28.1315  -23.1801  -15.6642 O   0  0  0  0  0  0  0  0  0  0  0  0
  2  1  1  0
  3  2  2  0
  4  3  1  0
  5 11  1  0
  5  4  2  0
  6  5  1  0
  7  9  1  0
  7  6  1  0
  7  8  1  6
  9 10  2  0
 11 12  2  0
 12  2  1  0
 13 14  1  0
 14 15  2  0
 16 14  1  0
 16 17  1  0
 18 17  1  0
 19 18  1  0
 20 19  1  1
 21 20  1  0
 21  9  1  0
 22 20  1  0
 23 22  2  0
 24 25  1  0
 26 25  1  6
 26 28  1  0
 26 27  1  0
 27 22  1  0
 28 30  1  0
 29 28  2  0
M  END
$$$$
