YRS.pdb
     RDKit          3D

 30 30  0  0  1  0  0  0  0  0999 V2000
   17.6632  -25.5463   -7.2154 O   0  0  0  0  0  0  0  0  0  0  0  0
   18.0973  -24.5877   -8.1235 C   0  0  0  0  0  0  0  0  0  0  0  0
   17.7483  -23.2587   -7.9331 C   0  0  0  0  0  0  0  0  0  0  0  0
   18.1738  -22.2771   -8.8346 C   0  0  0  0  0  0  0  0  0  0  0  0
   18.9407  -22.6266   -9.9137 C   0  0  0  0  0  0  0  0  0  0  0  0
   19.3917  -21.6053  -10.8705 C   0  0  0  0  0  0  0  0  0  0  0  0
   20.9268  -21.6034  -10.8588 C   0  0  2  0  0  0  0  0  0  0  0  0
   21.4194  -21.1480   -9.5782 N   0  0  0  0  0  0  0  0  0  0  0  0
   21.4625  -20.8245  -11.9848 C   0  0  0  0  0  0  0  0  0  0  0  0
   21.3723  -19.5539  -11.8665 O   0  0  0  0  0  0  0  0  0  0  0  0
   19.2843  -23.9438  -10.0984 C   0  0  0  0  0  0  0  0  0  0  0  0
   18.8695  -24.9273   -9.2133 C   0  0  0  0  0  0  0  0  0  0  0  0
   28.0059  -22.9970  -16.2813 N   0  0  0  0  0  0  0  0  0  0  0  0
   27.6250  -21.6748  -16.6227 C   0  0  0  0  0  0  0  0  0  0  0  0
   27.9885  -21.0785  -17.7100 N   0  0  0  0  0  0  0  0  0  0  0  0
   26.7912  -20.9476  -15.7251 N   0  0  0  0  0  0  0  0  0  0  0  0
   26.3277  -21.5266  -14.4716 C   0  0  0  0  0  0  0  0  0  0  0  0
   25.1154  -20.7775  -14.0313 C   0  0  0  0  0  0  0  0  0  0  0  0
   23.8421  -21.1893  -14.6413 C   0  0  0  0  0  0  0  0  0  0  0  0
   22.5894  -20.4976  -14.1660 C   0  0  2  0  0  0  0  0  0  0  0  0
   22.0468  -21.3891  -13.1392 N   0  0  0  0  0  0  0  0  0  0  0  0
   21.5433  -20.4178  -15.2178 C   0  0  0  0  0  0  0  0  0  0  0  0
   20.8507  -21.4356  -15.5726 O   0  0  0  0  0  0  0  0  0  0  0  0
   27.7228  -20.1098  -17.9505 O   0  0  0  0  0  0  0  0  0  0  0  0
   20.8432  -16.9297  -17.2025 C   0  0  0  0  0  0  0  0  0  0  0  0
   19.7776  -17.7942  -17.2551 C   0  0  1  0  0  0  0  0  0  0  0  0
   20.1991  -19.2171  -16.9795 N   0  0  0  0  0  0  0  0  0  0  0  0
   21.2081  -19.2267  -15.9225 C   0  0  0  0  0  0  0  0  0  0  0  0
   20.8342  -19.7971  -18.1984 O   0  0  0  0  0  0  0  0  0  0  0  0
   22.0466  -20.0720  -18.2645 O   0  0  0  0  0  0  0  0  0  0  0  0
  2  1  1  0
  3  2  2  0
  4  3  1  0
  5 11  1  0
  5  4  2  0
  6  5  1  0
  7  9  1  0
  7  6  1  0
  7  8  1  1
  9 10  2  0
 11 12  2  0
 12  2  1  0
 13 14  1  0
 14 15  2  0
 16 14  1  0
 16 17  1  0
 18 17  1  0
 19 18  1  0
 20 19  1  6
 21 20  1  0
 21  9  1  0
 22 20  1  0
 23 22  2  0
 24 25  1  0
 26 25  1  1
 26 28  1  0
 26 27  1  0
 27 22  1  0
 28 30  1  0
 29 28  2  0
M  END
$$$$
