YRS.pdb
     RDKit          3D

 30 30  0  0  1  0  0  0  0  0999 V2000
   28.2107  -18.6333  -13.9180 O   0  0  0  0  0  0  0  0  0  0  0  0
   27.6940  -17.6857  -14.7941 C   0  0  0  0  0  0  0  0  0  0  0  0
   28.0062  -17.7612  -16.1436 C   0  0  0  0  0  0  0  0  0  0  0  0
   27.4976  -16.8182  -17.0433 C   0  0  0  0  0  0  0  0  0  0  0  0
   26.6855  -15.8123  -16.5926 C   0  0  0  0  0  0  0  0  0  0  0  0
   26.1472  -14.8129  -17.5271 C   0  0  0  0  0  0  0  0  0  0  0  0
   24.7529  -15.2864  -17.9614 C   0  0  2  0  0  0  0  0  0  0  0  0
   24.8398  -16.5728  -18.6153 N   0  0  0  0  0  0  0  0  0  0  0  0
   24.0842  -14.2713  -18.7883 C   0  0  0  0  0  0  0  0  0  0  0  0
   24.2700  -14.3800  -20.0493 O   0  0  0  0  0  0  0  0  0  0  0  0
   26.3787  -15.7413  -15.2554 C   0  0  0  0  0  0  0  0  0  0  0  0
   26.8757  -16.6688  -14.3523 C   0  0  0  0  0  0  0  0  0  0  0  0
   16.3139  -11.9358  -16.6097 N   0  0  0  0  0  0  0  0  0  0  0  0
   16.5935  -13.1593  -17.2692 C   0  0  0  0  0  0  0  0  0  0  0  0
   15.7279  -14.1053  -17.4297 N   0  0  0  0  0  0  0  0  0  0  0  0
   17.9010  -13.3731  -17.7931 N   0  0  0  0  0  0  0  0  0  0  0  0
   18.9417  -12.3591  -17.6912 C   0  0  0  0  0  0  0  0  0  0  0  0
   20.1607  -12.8702  -18.3821 C   0  0  0  0  0  0  0  0  0  0  0  0
   21.3120  -11.9560  -18.4259 C   0  0  0  0  0  0  0  0  0  0  0  0
   22.5197  -12.3986  -19.2127 C   0  0  2  0  0  0  0  0  0  0  0  0
   23.2813  -13.2286  -18.2775 N   0  0  0  0  0  0  0  0  0  0  0  0
   23.4188  -11.2705  -19.5677 C   0  0  0  0  0  0  0  0  0  0  0  0
   24.1948  -10.7183  -18.7107 O   0  0  0  0  0  0  0  0  0  0  0  0
   15.9444  -15.0131  -17.8721 O   0  0  0  0  0  0  0  0  0  0  0  0
   25.1590  -10.8946  -23.1403 C   0  0  0  0  0  0  0  0  0  0  0  0
   24.7420   -9.6685  -22.6838 C   0  0  2  0  0  0  0  0  0  0  0  0
   24.5038   -9.6793  -21.1935 N   0  0  0  0  0  0  0  0  0  0  0  0
   23.5106  -10.7011  -20.8696 C   0  0  0  0  0  0  0  0  0  0  0  0
   23.9389   -8.3664  -20.7661 O   0  0  0  0  0  0  0  0  0  0  0  0
   22.7904   -8.2425  -20.3017 O   0  0  0  0  0  0  0  0  0  0  0  0
  2  1  1  0
  3  2  2  0
  4  3  1  0
  5 11  1  0
  5  4  2  0
  6  5  1  0
  7  9  1  0
  7  6  1  0
  7  8  1  6
  9 10  2  0
 11 12  2  0
 12  2  1  0
 13 14  1  0
 14 15  2  0
 16 14  1  0
 16 17  1  0
 18 17  1  0
 19 18  1  0
 20 19  1  1
 21 20  1  0
 21  9  1  0
 22 20  1  0
 23 22  2  0
 24 25  1  0
 26 25  1  1
 26 28  1  0
 26 27  1  0
 27 22  1  0
 28 30  1  0
 29 28  2  0
M  END
$$$$
