YRS.pdb
     RDKit          3D

 30 30  0  0  1  0  0  0  0  0999 V2000
   31.6556  -15.8603  -19.5016 O   0  0  0  0  0  0  0  0  0  0  0  0
   30.6003  -16.4928  -18.8548 C   0  0  0  0  0  0  0  0  0  0  0  0
   30.7773  -16.9695  -17.5641 C   0  0  0  0  0  0  0  0  0  0  0  0
   29.7291  -17.6095  -16.8941 C   0  0  0  0  0  0  0  0  0  0  0  0
   28.5182  -17.7682  -17.5131 C   0  0  0  0  0  0  0  0  0  0  0  0
   27.4094  -18.4420  -16.8214 C   0  0  0  0  0  0  0  0  0  0  0  0
   27.8102  -19.9104  -16.6216 C   0  0  2  0  0  0  0  0  0  0  0  0
   27.8177  -20.6065  -17.8887 N   0  0  0  0  0  0  0  0  0  0  0  0
   26.9526  -20.5604  -15.6200 C   0  0  0  0  0  0  0  0  0  0  0  0
   25.9156  -21.1493  -16.0831 O   0  0  0  0  0  0  0  0  0  0  0  0
   28.3471  -17.2945  -18.7912 C   0  0  0  0  0  0  0  0  0  0  0  0
   29.3771  -16.6584  -19.4675 C   0  0  0  0  0  0  0  0  0  0  0  0
   29.0228  -21.0458   -7.5186 N   0  0  0  0  0  0  0  0  0  0  0  0
   29.3869  -21.5674   -8.7856 C   0  0  0  0  0  0  0  0  0  0  0  0
   30.5573  -22.0413   -9.0602 N   0  0  0  0  0  0  0  0  0  0  0  0
   28.4157  -21.5782   -9.8279 N   0  0  0  0  0  0  0  0  0  0  0  0
   27.0157  -21.8836   -9.5666 C   0  0  0  0  0  0  0  0  0  0  0  0
   26.2850  -21.8734  -10.8668 C   0  0  0  0  0  0  0  0  0  0  0  0
   27.0217  -21.3342  -12.0199 C   0  0  0  0  0  0  0  0  0  0  0  0
   26.3075  -21.3052  -13.3475 C   0  0  2  0  0  0  0  0  0  0  0  0
   27.2096  -20.5651  -14.2319 N   0  0  0  0  0  0  0  0  0  0  0  0
   25.0511  -20.5135  -13.3066 C   0  0  0  0  0  0  0  0  0  0  0  0
   25.0363  -19.2688  -13.0032 O   0  0  0  0  0  0  0  0  0  0  0  0
   30.8277  -22.4016   -9.9896 O   0  0  0  0  0  0  0  0  0  0  0  0
   21.7295  -21.5712  -15.3266 C   0  0  0  0  0  0  0  0  0  0  0  0
   21.8528  -20.2791  -14.8783 C   0  0  1  0  0  0  0  0  0  0  0  0
   22.5600  -20.2155  -13.5465 N   0  0  0  0  0  0  0  0  0  0  0  0
   23.7622  -21.0446  -13.5969 C   0  0  0  0  0  0  0  0  0  0  0  0
   21.6798  -20.7820  -12.4835 O   0  0  0  0  0  0  0  0  0  0  0  0
   21.9474  -21.8329  -11.8720 O   0  0  0  0  0  0  0  0  0  0  0  0
  2  1  1  0
  3  2  2  0
  4  3  1  0
  5 11  1  0
  5  4  2  0
  6  5  1  0
  7  9  1  0
  7  6  1  0
  7  8  1  6
  9 10  2  0
 11 12  2  0
 12  2  1  0
 13 14  1  0
 14 15  2  0
 16 14  1  0
 16 17  1  0
 18 17  1  0
 19 18  1  0
 20 19  1  1
 21 20  1  0
 21  9  1  0
 22 20  1  0
 23 22  2  0
 24 25  1  0
 26 25  1  6
 26 28  1  0
 26 27  1  0
 27 22  1  0
 28 30  1  0
 29 28  2  0
M  END
$$$$
