YRS.pdb
     RDKit          3D

 30 30  0  0  1  0  0  0  0  0999 V2000
   28.9183  -20.0173   -4.6757 O   0  0  0  0  0  0  0  0  0  0  0  0
   28.3424  -19.9544   -5.9392 C   0  0  0  0  0  0  0  0  0  0  0  0
   28.6244  -20.9450   -6.8685 C   0  0  0  0  0  0  0  0  0  0  0  0
   28.0562  -20.9017   -8.1463 C   0  0  0  0  0  0  0  0  0  0  0  0
   27.2151  -19.8761   -8.4858 C   0  0  0  0  0  0  0  0  0  0  0  0
   26.6140  -19.8169   -9.8263 C   0  0  0  0  0  0  0  0  0  0  0  0
   27.1668  -20.9984  -10.6359 C   0  0  2  0  0  0  0  0  0  0  0  0
   28.5764  -20.8128  -10.8979 N   0  0  0  0  0  0  0  0  0  0  0  0
   26.3830  -21.2115  -11.8613 C   0  0  0  0  0  0  0  0  0  0  0  0
   26.9562  -20.8577  -12.9489 O   0  0  0  0  0  0  0  0  0  0  0  0
   26.9384  -18.8972   -7.5624 C   0  0  0  0  0  0  0  0  0  0  0  0
   27.4945  -18.9271   -6.2925 C   0  0  0  0  0  0  0  0  0  0  0  0
   22.2678  -25.6697  -16.6451 N   0  0  0  0  0  0  0  0  0  0  0  0
   22.9558  -26.3121  -15.5849 C   0  0  0  0  0  0  0  0  0  0  0  0
   23.7698  -27.3020  -15.7498 N   0  0  0  0  0  0  0  0  0  0  0  0
   22.7492  -25.8497  -14.2533 N   0  0  0  0  0  0  0  0  0  0  0  0
   21.8558  -24.7377  -13.9590 C   0  0  0  0  0  0  0  0  0  0  0  0
   22.6247  -23.4686  -14.1093 C   0  0  0  0  0  0  0  0  0  0  0  0
   23.5929  -23.1674  -13.0439 C   0  0  0  0  0  0  0  0  0  0  0  0
   24.4050  -21.9045  -13.1812 C   0  0  2  0  0  0  0  0  0  0  0  0
   25.0848  -21.7650  -11.8920 N   0  0  0  0  0  0  0  0  0  0  0  0
   23.5599  -20.6906  -13.3196 C   0  0  0  0  0  0  0  0  0  0  0  0
   22.8771  -20.2174  -12.3441 O   0  0  0  0  0  0  0  0  0  0  0  0
   24.2213  -27.8103  -14.9722 O   0  0  0  0  0  0  0  0  0  0  0  0
   24.1199  -17.5288  -15.7741 C   0  0  0  0  0  0  0  0  0  0  0  0
   22.8322  -18.0003  -15.8460 C   0  0  2  0  0  0  0  0  0  0  0  0
   22.4768  -18.8387  -14.6423 N   0  0  0  0  0  0  0  0  0  0  0  0
   23.4268  -19.9426  -14.5239 C   0  0  0  0  0  0  0  0  0  0  0  0
   21.1251  -19.4407  -14.8317 O   0  0  0  0  0  0  0  0  0  0  0  0
   20.9526  -20.6364  -15.1326 O   0  0  0  0  0  0  0  0  0  0  0  0
  2  1  1  0
  3  2  2  0
  4  3  1  0
  5 11  1  0
  5  4  2  0
  6  5  1  0
  7  9  1  0
  7  6  1  0
  7  8  1  6
  9 10  2  0
 11 12  2  0
 12  2  1  0
 13 14  1  0
 14 15  2  0
 16 14  1  0
 16 17  1  0
 18 17  1  0
 19 18  1  0
 20 19  1  1
 21 20  1  0
 21  9  1  0
 22 20  1  0
 23 22  2  0
 24 25  1  0
 26 25  1  1
 26 28  1  0
 26 27  1  0
 27 22  1  0
 28 30  1  0
 29 28  2  0
M  END
$$$$
