YRS.pdb
     RDKit          3D

 30 30  0  0  1  0  0  0  0  0999 V2000
   21.3167  -16.3966  -15.4565 O   0  0  0  0  0  0  0  0  0  0  0  0
   20.8994  -15.0993  -15.7304 C   0  0  0  0  0  0  0  0  0  0  0  0
   20.7552  -14.1940  -14.6893 C   0  0  0  0  0  0  0  0  0  0  0  0
   20.3362  -12.8832  -14.9418 C   0  0  0  0  0  0  0  0  0  0  0  0
   20.0658  -12.4872  -16.2242 C   0  0  0  0  0  0  0  0  0  0  0  0
   19.6215  -11.1136  -16.5028 C   0  0  0  0  0  0  0  0  0  0  0  0
   18.1546  -11.0017  -16.0637 C   0  0  2  0  0  0  0  0  0  0  0  0
   17.3485  -11.9881  -16.7472 N   0  0  0  0  0  0  0  0  0  0  0  0
   17.6524   -9.6318  -16.2440 C   0  0  0  0  0  0  0  0  0  0  0  0
   17.3058   -9.3260  -17.4369 O   0  0  0  0  0  0  0  0  0  0  0  0
   20.2101  -13.3869  -17.2523 C   0  0  0  0  0  0  0  0  0  0  0  0
   20.6243  -14.6892  -17.0170 C   0  0  0  0  0  0  0  0  0  0  0  0
   11.5901   -7.6604  -11.4498 N   0  0  0  0  0  0  0  0  0  0  0  0
   11.3729   -8.1353  -12.7679 C   0  0  0  0  0  0  0  0  0  0  0  0
   10.2253   -8.5308  -13.2110 N   0  0  0  0  0  0  0  0  0  0  0  0
   12.4746   -8.1840  -13.6699 N   0  0  0  0  0  0  0  0  0  0  0  0
   13.7696   -7.6114  -13.3282 C   0  0  0  0  0  0  0  0  0  0  0  0
   14.6728   -7.7640  -14.5052 C   0  0  0  0  0  0  0  0  0  0  0  0
   15.9869   -7.1114  -14.4026 C   0  0  0  0  0  0  0  0  0  0  0  0
   16.9755   -7.3643  -15.5125 C   0  0  2  0  0  0  0  0  0  0  0  0
   17.5393   -8.6805  -15.2071 N   0  0  0  0  0  0  0  0  0  0  0  0
   18.1240   -6.4224  -15.4841 C   0  0  0  0  0  0  0  0  0  0  0  0
   19.0172   -6.4600  -14.5663 O   0  0  0  0  0  0  0  0  0  0  0  0
   10.0767   -8.9163  -14.1577 O   0  0  0  0  0  0  0  0  0  0  0  0
   19.0870   -3.9378  -18.6980 C   0  0  0  0  0  0  0  0  0  0  0  0
   20.0611   -4.4371  -17.8688 C   0  0  1  0  0  0  0  0  0  0  0  0
   19.5625   -4.5936  -16.4529 N   0  0  0  0  0  0  0  0  0  0  0  0
   18.3470   -5.4047  -16.4548 C   0  0  0  0  0  0  0  0  0  0  0  0
   19.1980   -3.2573  -15.8989 O   0  0  0  0  0  0  0  0  0  0  0  0
   20.0307   -2.3500  -15.7165 O   0  0  0  0  0  0  0  0  0  0  0  0
  2  1  1  0
  3  2  2  0
  4  3  1  0
  5 11  1  0
  5  4  2  0
  6  5  1  0
  7  9  1  0
  7  6  1  0
  7  8  1  6
  9 10  2  0
 11 12  2  0
 12  2  1  0
 13 14  1  0
 14 15  2  0
 16 14  1  0
 16 17  1  0
 18 17  1  0
 19 18  1  0
 20 19  1  1
 21 20  1  0
 21  9  1  0
 22 20  1  0
 23 22  2  0
 24 25  1  0
 26 25  1  1
 26 28  1  0
 26 27  1  0
 27 22  1  0
 28 30  1  0
 29 28  2  0
M  END
$$$$
