YRS.pdb
     RDKit          3D

 30 30  0  0  1  0  0  0  0  0999 V2000
   22.1305   -9.8027  -19.7664 O   0  0  0  0  0  0  0  0  0  0  0  0
   22.1801  -11.1376  -19.3820 C   0  0  0  0  0  0  0  0  0  0  0  0
   22.8070  -11.4834  -18.1937 C   0  0  0  0  0  0  0  0  0  0  0  0
   22.8690  -12.8207  -17.7873 C   0  0  0  0  0  0  0  0  0  0  0  0
   22.3079  -13.7980  -18.5648 C   0  0  0  0  0  0  0  0  0  0  0  0
   22.3691  -15.2075  -18.1508 C   0  0  0  0  0  0  0  0  0  0  0  0
   23.8265  -15.6697  -18.2895 C   0  0  2  0  0  0  0  0  0  0  0  0
   24.1802  -15.8060  -19.6846 N   0  0  0  0  0  0  0  0  0  0  0  0
   24.0665  -16.8982  -17.5185 C   0  0  0  0  0  0  0  0  0  0  0  0
   23.7929  -17.9906  -18.1257 O   0  0  0  0  0  0  0  0  0  0  0  0
   21.6879  -13.4512  -19.7406 C   0  0  0  0  0  0  0  0  0  0  0  0
   21.6190  -12.1300  -20.1561 C   0  0  0  0  0  0  0  0  0  0  0  0
   26.2073  -21.0503  -10.9584 N   0  0  0  0  0  0  0  0  0  0  0  0
   26.0813  -21.7885  -12.1622 C   0  0  0  0  0  0  0  0  0  0  0  0
   25.5217  -22.9507  -12.2391 N   0  0  0  0  0  0  0  0  0  0  0  0
   26.5956  -21.2289  -13.3672 N   0  0  0  0  0  0  0  0  0  0  0  0
   27.0137  -19.8359  -13.4470 C   0  0  0  0  0  0  0  0  0  0  0  0
   25.7980  -18.9773  -13.3501 C   0  0  0  0  0  0  0  0  0  0  0  0
   25.6564  -17.9360  -14.3790 C   0  0  0  0  0  0  0  0  0  0  0  0
   24.7244  -18.2199  -15.5297 C   0  0  2  0  0  0  0  0  0  0  0  0
   24.5639  -16.9270  -16.1977 N   0  0  0  0  0  0  0  0  0  0  0  0
   23.3623  -18.6095  -15.0828 C   0  0  0  0  0  0  0  0  0  0  0  0
   22.6099  -17.8185  -14.4122 O   0  0  0  0  0  0  0  0  0  0  0  0
   25.4178  -23.4812  -13.1192 O   0  0  0  0  0  0  0  0  0  0  0  0
   19.3305  -21.0860  -15.5483 C   0  0  0  0  0  0  0  0  0  0  0  0
   20.5861  -20.7316  -15.9767 C   0  0  1  0  0  0  0  0  0  0  0  0
   21.4397  -20.2212  -14.8414 N   0  0  0  0  0  0  0  0  0  0  0  0
   22.7647  -19.8739  -15.3505 C   0  0  0  0  0  0  0  0  0  0  0  0
   21.6270  -21.3013  -13.8297 O   0  0  0  0  0  0  0  0  0  0  0  0
   22.5884  -22.0919  -13.8534 O   0  0  0  0  0  0  0  0  0  0  0  0
  2  1  1  0
  3  2  2  0
  4  3  1  0
  5 11  1  0
  5  4  2  0
  6  5  1  0
  7  9  1  0
  7  6  1  0
  7  8  1  6
  9 10  2  0
 11 12  2  0
 12  2  1  0
 13 14  1  0
 14 15  2  0
 16 14  1  0
 16 17  1  0
 18 17  1  0
 19 18  1  0
 20 19  1  1
 21 20  1  0
 21  9  1  0
 22 20  1  0
 23 22  2  0
 24 25  1  0
 26 25  1  6
 26 28  1  0
 26 27  1  0
 27 22  1  0
 28 30  1  0
 29 28  2  0
M  END
$$$$
