MMY.pdb
     RDKit          3D

 29 29  0  0  1  0  0  0  0  0999 V2000
   22.2974  -27.2023  -19.2796 C   0  0  0  0  0  0  0  0  0  0  0  0
   20.5154  -27.1337  -19.5090 S   0  0  0  0  0  0  0  0  0  0  0  0
   19.8617  -25.4582  -19.2110 C   0  0  0  0  0  0  0  0  0  0  0  0
   21.0249  -24.5657  -18.8640 C   0  0  0  0  0  0  0  0  0  0  0  0
   20.9939  -24.2685  -17.3799 C   0  0  2  0  0  0  0  0  0  0  0  0
   19.9309  -23.3324  -17.1212 N   0  0  0  0  0  0  0  0  0  0  0  0
   22.2846  -23.6040  -16.9582 C   0  0  0  0  0  0  0  0  0  0  0  0
   23.3698  -24.1737  -17.1794 O   0  0  0  0  0  0  0  0  0  0  0  0
   25.4947  -17.8254  -17.5746 C   0  0  0  0  0  0  0  0  0  0  0  0
   24.0494  -18.5263  -18.4080 S   0  0  0  0  0  0  0  0  0  0  0  0
   23.8220  -20.2444  -17.8213 C   0  0  0  0  0  0  0  0  0  0  0  0
   23.5339  -20.2486  -16.3300 C   0  0  0  0  0  0  0  0  0  0  0  0
   23.3715  -21.6250  -15.7996 C   0  0  2  0  0  0  0  0  0  0  0  0
   22.2602  -22.3415  -16.3149 N   0  0  0  0  0  0  0  0  0  0  0  0
   23.4716  -21.6345  -14.3010 C   0  0  0  0  0  0  0  0  0  0  0  0
   22.4345  -21.6716  -13.5998 O   0  0  0  0  0  0  0  0  0  0  0  0
   26.7263  -19.7458   -6.2927 O   0  0  0  0  0  0  0  0  0  0  0  0
   26.5899  -20.0945   -7.6373 C   0  0  0  0  0  0  0  0  0  0  0  0
   26.5521  -19.0911   -8.5992 C   0  0  0  0  0  0  0  0  0  0  0  0
   26.4160  -19.4680   -9.9261 C   0  0  0  0  0  0  0  0  0  0  0  0
   26.3189  -20.7848  -10.3107 C   0  0  0  0  0  0  0  0  0  0  0  0
   26.1635  -21.1401  -11.7051 C   0  0  0  0  0  0  0  0  0  0  0  0
   24.7669  -21.3047  -12.1873 C   0  0  2  0  0  0  0  0  0  0  0  0
   24.7110  -21.6038  -13.6110 N   0  0  0  0  0  0  0  0  0  0  0  0
   23.8993  -20.1694  -11.8315 C   0  0  0  0  0  0  0  0  0  0  0  0
   23.0900  -20.2248  -10.7249 O   0  0  0  0  0  0  0  0  0  0  0  0
   26.3596  -21.7512   -9.3337 C   0  0  0  0  0  0  0  0  0  0  0  0
   26.4952  -21.4227   -7.9872 C   0  0  0  0  0  0  0  0  0  0  0  0
   23.8902  -19.1339  -12.5419 O   0  0  0  0  0  0  0  0  0  0  0  0
  2  1  1  0
  3  2  1  0
  4  5  1  0
  4  3  1  0
  5  6  1  6
  7  8  2  0
  7  5  1  0
  9 10  1  0
 10 11  1  0
 11 12  1  0
 13 12  1  1
 13 14  1  0
 14  7  1  0
 15 16  2  0
 15 13  1  0
 18 17  1  0
 19 18  2  0
 20 19  1  0
 21 20  2  0
 21 27  1  0
 22 21  1  0
 23 22  1  6
 23 24  1  0
 24 15  1  0
 25 23  1  0
 26 25  1  0
 27 28  2  0
 28 18  1  0
 29 25  2  0
M  END
$$$$
