MMY.pdb
     RDKit          3D

 29 29  0  0  1  0  0  0  0  0999 V2000
   24.1224  -16.4822  -18.4460 C   0  0  0  0  0  0  0  0  0  0  0  0
   25.7499  -16.1892  -19.1519 S   0  0  0  0  0  0  0  0  0  0  0  0
   26.8904  -17.5702  -18.8121 C   0  0  0  0  0  0  0  0  0  0  0  0
   26.2759  -18.4182  -17.7290 C   0  0  0  0  0  0  0  0  0  0  0  0
   27.2873  -19.4493  -17.2753 C   0  0  2  0  0  0  0  0  0  0  0  0
   27.5751  -20.3271  -18.3797 N   0  0  0  0  0  0  0  0  0  0  0  0
   26.6999  -20.2998  -16.1722 C   0  0  0  0  0  0  0  0  0  0  0  0
   25.9617  -21.2597  -16.4633 O   0  0  0  0  0  0  0  0  0  0  0  0
   25.1153  -21.1009   -8.7521 C   0  0  0  0  0  0  0  0  0  0  0  0
   25.6355  -20.2097  -10.2387 S   0  0  0  0  0  0  0  0  0  0  0  0
   26.5424  -21.3733  -11.3211 C   0  0  0  0  0  0  0  0  0  0  0  0
   27.2123  -20.6131  -12.4526 C   0  0  0  0  0  0  0  0  0  0  0  0
   26.3665  -20.5719  -13.6712 C   0  0  2  0  0  0  0  0  0  0  0  0
   26.9867  -20.0067  -14.8156 N   0  0  0  0  0  0  0  0  0  0  0  0
   25.0104  -20.0057  -13.3604 C   0  0  0  0  0  0  0  0  0  0  0  0
   24.8560  -18.7687  -13.2394 O   0  0  0  0  0  0  0  0  0  0  0  0
   17.3487  -16.4656  -13.1915 O   0  0  0  0  0  0  0  0  0  0  0  0
   18.5663  -17.1261  -13.3631 C   0  0  0  0  0  0  0  0  0  0  0  0
   19.6773  -16.7012  -12.6430 C   0  0  0  0  0  0  0  0  0  0  0  0
   20.8726  -17.3765  -12.8343 C   0  0  0  0  0  0  0  0  0  0  0  0
   20.9877  -18.4371  -13.7022 C   0  0  0  0  0  0  0  0  0  0  0  0
   22.2560  -19.1094  -13.8867 C   0  0  0  0  0  0  0  0  0  0  0  0
   22.5541  -20.2167  -12.9407 C   0  0  2  0  0  0  0  0  0  0  0  0
   23.8574  -20.8150  -13.1912 N   0  0  0  0  0  0  0  0  0  0  0  0
   21.4870  -21.2301  -12.8887 C   0  0  0  0  0  0  0  0  0  0  0  0
   20.3151  -20.9813  -12.2199 O   0  0  0  0  0  0  0  0  0  0  0  0
   19.8694  -18.8308  -14.3982 C   0  0  0  0  0  0  0  0  0  0  0  0
   18.6461  -18.1842  -14.2403 C   0  0  0  0  0  0  0  0  0  0  0  0
   21.6400  -22.3389  -13.4582 O   0  0  0  0  0  0  0  0  0  0  0  0
  2  1  1  0
  3  2  1  0
  4  5  1  0
  4  3  1  0
  5  6  1  6
  7  8  2  0
  7  5  1  0
  9 10  1  0
 10 11  1  0
 11 12  1  0
 13 12  1  1
 13 14  1  0
 14  7  1  0
 15 16  2  0
 15 13  1  0
 18 17  1  0
 19 18  2  0
 20 19  1  0
 21 20  2  0
 21 27  1  0
 22 21  1  0
 23 22  1  6
 23 24  1  0
 24 15  1  0
 25 23  1  0
 26 25  1  0
 27 28  2  0
 28 18  1  0
 29 25  2  0
M  END
$$$$
