MMY.pdb
     RDKit          3D

 29 29  0  0  1  0  0  0  0  0999 V2000
   19.1916  -16.9409  -17.9825 C   0  0  0  0  0  0  0  0  0  0  0  0
   19.6012  -16.9224  -19.7332 S   0  0  0  0  0  0  0  0  0  0  0  0
   20.6320  -15.4833  -20.1688 C   0  0  0  0  0  0  0  0  0  0  0  0
   20.7949  -14.6423  -18.9294 C   0  0  0  0  0  0  0  0  0  0  0  0
   21.6841  -13.4593  -19.2484 C   0  0  2  0  0  0  0  0  0  0  0  0
   22.9744  -13.9516  -19.6559 N   0  0  0  0  0  0  0  0  0  0  0  0
   21.8983  -12.6234  -18.0073 C   0  0  0  0  0  0  0  0  0  0  0  0
   20.9183  -12.1086  -17.4366 O   0  0  0  0  0  0  0  0  0  0  0  0
   27.2587  -15.4296  -14.8717 C   0  0  0  0  0  0  0  0  0  0  0  0
   26.9807  -13.6640  -15.1552 S   0  0  0  0  0  0  0  0  0  0  0  0
   25.2191  -13.4192  -15.5849 C   0  0  0  0  0  0  0  0  0  0  0  0
   24.9486  -11.9470  -15.8430 C   0  0  0  0  0  0  0  0  0  0  0  0
   23.5644  -11.7126  -16.3236 C   0  0  2  0  0  0  0  0  0  0  0  0
   23.2055  -12.4261  -17.4966 N   0  0  0  0  0  0  0  0  0  0  0  0
   23.2600  -10.2427  -16.3771 C   0  0  0  0  0  0  0  0  0  0  0  0
   23.7155   -9.5377  -17.3068 O   0  0  0  0  0  0  0  0  0  0  0  0
   19.2493   -2.8596  -17.7537 O   0  0  0  0  0  0  0  0  0  0  0  0
   19.7648   -4.1389  -17.5401 C   0  0  0  0  0  0  0  0  0  0  0  0
   18.9221   -5.1423  -17.0745 C   0  0  0  0  0  0  0  0  0  0  0  0
   19.4625   -6.4025  -16.8720 C   0  0  0  0  0  0  0  0  0  0  0  0
   20.7868   -6.6830  -17.1148 C   0  0  0  0  0  0  0  0  0  0  0  0
   21.3192   -8.0078  -16.8782 C   0  0  0  0  0  0  0  0  0  0  0  0
   22.0424   -8.2034  -15.5942 C   0  0  2  0  0  0  0  0  0  0  0  0
   22.4609   -9.5851  -15.4065 N   0  0  0  0  0  0  0  0  0  0  0  0
   21.2956   -7.6945  -14.4316 C   0  0  0  0  0  0  0  0  0  0  0  0
   21.1435   -6.3457  -14.2311 O   0  0  0  0  0  0  0  0  0  0  0  0
   21.5918   -5.6676  -17.5743 C   0  0  0  0  0  0  0  0  0  0  0  0
   21.0956   -4.3849  -17.7933 C   0  0  0  0  0  0  0  0  0  0  0  0
   20.7887   -8.4942  -13.6066 O   0  0  0  0  0  0  0  0  0  0  0  0
  2  1  1  0
  3  2  1  0
  4  5  1  0
  4  3  1  0
  5  6  1  1
  7  8  2  0
  7  5  1  0
  9 10  1  0
 10 11  1  0
 11 12  1  0
 13 12  1  6
 13 14  1  0
 14  7  1  0
 15 16  2  0
 15 13  1  0
 18 17  1  0
 19 18  2  0
 20 19  1  0
 21 20  2  0
 21 27  1  0
 22 21  1  0
 23 22  1  6
 23 24  1  0
 24 15  1  0
 25 23  1  0
 26 25  1  0
 27 28  2  0
 28 18  1  0
 29 25  2  0
M  END
$$$$
