MMY.pdb
     RDKit          3D

 29 29  0  0  1  0  0  0  0  0999 V2000
   27.3596  -23.2853  -17.9721 C   0  0  0  0  0  0  0  0  0  0  0  0
   27.7515  -21.5314  -18.0283 S   0  0  0  0  0  0  0  0  0  0  0  0
   28.6547  -20.9948  -16.5385 C   0  0  0  0  0  0  0  0  0  0  0  0
   28.0053  -21.6486  -15.3465 C   0  0  0  0  0  0  0  0  0  0  0  0
   27.0004  -20.6902  -14.7437 C   0  0  2  0  0  0  0  0  0  0  0  0
   27.7101  -19.5575  -14.2084 N   0  0  0  0  0  0  0  0  0  0  0  0
   26.2823  -21.3516  -13.5896 C   0  0  0  0  0  0  0  0  0  0  0  0
   25.6138  -22.3827  -13.7917 O   0  0  0  0  0  0  0  0  0  0  0  0
   27.1826  -19.9119   -7.2395 C   0  0  0  0  0  0  0  0  0  0  0  0
   28.2798  -21.0709   -8.0924 S   0  0  0  0  0  0  0  0  0  0  0  0
   27.5883  -21.4038   -9.7534 C   0  0  0  0  0  0  0  0  0  0  0  0
   26.1739  -20.8575   -9.8446 C   0  0  0  0  0  0  0  0  0  0  0  0
   25.5585  -21.1277  -11.1676 C   0  0  2  0  0  0  0  0  0  0  0  0
   26.3687  -20.8019  -12.2862 N   0  0  0  0  0  0  0  0  0  0  0  0
   24.1647  -20.5713  -11.2312 C   0  0  0  0  0  0  0  0  0  0  0  0
   23.9004  -19.4697  -10.6973 O   0  0  0  0  0  0  0  0  0  0  0  0
   17.6852  -16.2543  -14.5161 O   0  0  0  0  0  0  0  0  0  0  0  0
   18.8011  -17.0036  -14.1402 C   0  0  0  0  0  0  0  0  0  0  0  0
   19.3762  -17.8742  -15.0593 C   0  0  0  0  0  0  0  0  0  0  0  0
   20.4834  -18.6049  -14.6573 C   0  0  0  0  0  0  0  0  0  0  0  0
   21.0196  -18.4941  -13.3957 C   0  0  0  0  0  0  0  0  0  0  0  0
   22.1683  -19.2839  -13.0068 C   0  0  0  0  0  0  0  0  0  0  0  0
   21.8803  -20.5293  -12.2479 C   0  0  2  0  0  0  0  0  0  0  0  0
   23.0964  -21.2410  -11.8818 N   0  0  0  0  0  0  0  0  0  0  0  0
   20.9161  -21.4078  -12.9313 C   0  0  0  0  0  0  0  0  0  0  0  0
   19.5792  -21.3526  -12.6279 O   0  0  0  0  0  0  0  0  0  0  0  0
   20.4260  -17.6240  -12.5122 C   0  0  0  0  0  0  0  0  0  0  0  0
   19.3121  -16.8681  -12.8689 C   0  0  0  0  0  0  0  0  0  0  0  0
   21.3101  -22.2218  -13.8027 O   0  0  0  0  0  0  0  0  0  0  0  0
  2  1  1  0
  3  2  1  0
  4  5  1  0
  4  3  1  0
  5  6  1  1
  7  8  2  0
  7  5  1  0
  9 10  1  0
 10 11  1  0
 11 12  1  0
 13 12  1  1
 13 14  1  0
 14  7  1  0
 15 16  2  0
 15 13  1  0
 18 17  1  0
 19 18  2  0
 20 19  1  0
 21 20  2  0
 21 27  1  0
 22 21  1  0
 23 22  1  6
 23 24  1  0
 24 15  1  0
 25 23  1  0
 26 25  1  0
 27 28  2  0
 28 18  1  0
 29 25  2  0
M  END
$$$$
