MMY.pdb
     RDKit          3D

 29 29  0  0  1  0  0  0  0  0999 V2000
   15.9038  -10.5613    5.7900 C   0  0  0  0  0  0  0  0  0  0  0  0
   16.2714  -10.2012    7.5128 S   0  0  0  0  0  0  0  0  0  0  0  0
   18.0563  -10.3269    7.8615 C   0  0  0  0  0  0  0  0  0  0  0  0
   18.5178  -11.6891    7.4126 C   0  0  0  0  0  0  0  0  0  0  0  0
   20.0091  -11.8069    7.6449 C   0  0  2  0  0  0  0  0  0  0  0  0
   20.6900  -10.9736    6.6882 N   0  0  0  0  0  0  0  0  0  0  0  0
   20.4605  -13.2283    7.3981 C   0  0  0  0  0  0  0  0  0  0  0  0
   20.8362  -13.5647    6.2593 O   0  0  0  0  0  0  0  0  0  0  0  0
   25.0294  -15.8840   11.7314 C   0  0  0  0  0  0  0  0  0  0  0  0
   23.3627  -16.5104   11.4074 S   0  0  0  0  0  0  0  0  0  0  0  0
   22.7704  -15.7869    9.8346 C   0  0  0  0  0  0  0  0  0  0  0  0
   21.3136  -16.1545    9.6117 C   0  0  0  0  0  0  0  0  0  0  0  0
   20.7731  -15.5526    8.3676 C   0  0  2  0  0  0  0  0  0  0  0  0
   20.4558  -14.1722    8.4551 N   0  0  0  0  0  0  0  0  0  0  0  0
   19.6752  -16.4039    7.7964 C   0  0  0  0  0  0  0  0  0  0  0  0
   18.4786  -16.1596    8.0738 O   0  0  0  0  0  0  0  0  0  0  0  0
   14.6972  -21.1509    2.3875 O   0  0  0  0  0  0  0  0  0  0  0  0
   15.7396  -20.4687    3.0167 C   0  0  0  0  0  0  0  0  0  0  0  0
   15.6049  -19.1087    3.2730 C   0  0  0  0  0  0  0  0  0  0  0  0
   16.6566  -18.4583    3.8992 C   0  0  0  0  0  0  0  0  0  0  0  0
   17.8101  -19.1102    4.2676 C   0  0  0  0  0  0  0  0  0  0  0  0
   18.8936  -18.3950    4.9073 C   0  0  0  0  0  0  0  0  0  0  0  0
   18.8225  -18.2864    6.3882 C   0  0  2  0  0  0  0  0  0  0  0  0
   19.9216  -17.5025    6.9331 N   0  0  0  0  0  0  0  0  0  0  0  0
   18.6992  -19.5939    7.0543 C   0  0  0  0  0  0  0  0  0  0  0  0
   17.4695  -20.1739    7.2390 O   0  0  0  0  0  0  0  0  0  0  0  0
   17.9100  -20.4548    3.9991 C   0  0  0  0  0  0  0  0  0  0  0  0
   16.8806  -21.1524    3.3720 C   0  0  0  0  0  0  0  0  0  0  0  0
   19.7237  -20.1940    7.4633 O   0  0  0  0  0  0  0  0  0  0  0  0
  2  1  1  0
  3  2  1  0
  4  5  1  0
  4  3  1  0
  5  6  1  6
  7  8  2  0
  7  5  1  0
  9 10  1  0
 10 11  1  0
 11 12  1  0
 13 12  1  1
 13 14  1  0
 14  7  1  0
 15 16  2  0
 15 13  1  0
 18 17  1  0
 19 18  2  0
 20 19  1  0
 21 20  2  0
 21 27  1  0
 22 21  1  0
 23 22  1  6
 23 24  1  0
 24 15  1  0
 25 23  1  0
 26 25  1  0
 27 28  2  0
 28 18  1  0
 29 25  2  0
M  END
$$$$
