MMY.pdb
     RDKit          3D

 29 29  0  0  1  0  0  0  0  0999 V2000
   30.9769  -13.1938  -22.4678 C   0  0  0  0  0  0  0  0  0  0  0  0
   30.1363  -11.7683  -23.1710 S   0  0  0  0  0  0  0  0  0  0  0  0
   28.5158  -11.4863  -22.3850 C   0  0  0  0  0  0  0  0  0  0  0  0
   28.0775  -12.7835  -21.7565 C   0  0  0  0  0  0  0  0  0  0  0  0
   26.7267  -12.5842  -21.1027 C   0  0  2  0  0  0  0  0  0  0  0  0
   26.8643  -11.6089  -20.0525 N   0  0  0  0  0  0  0  0  0  0  0  0
   26.2694  -13.8722  -20.4568 C   0  0  0  0  0  0  0  0  0  0  0  0
   26.1337  -14.8950  -21.1544 O   0  0  0  0  0  0  0  0  0  0  0  0
   26.0238  -18.0927  -13.8326 C   0  0  0  0  0  0  0  0  0  0  0  0
   26.6612  -16.6303  -14.6871 S   0  0  0  0  0  0  0  0  0  0  0  0
   25.7302  -16.4232  -16.2485 C   0  0  0  0  0  0  0  0  0  0  0  0
   26.2343  -15.1995  -16.9938 C   0  0  0  0  0  0  0  0  0  0  0  0
   25.5766  -15.0437  -18.3149 C   0  0  2  0  0  0  0  0  0  0  0  0
   25.9961  -13.9157  -19.0669 N   0  0  0  0  0  0  0  0  0  0  0  0
   24.0864  -15.1825  -18.1886 C   0  0  0  0  0  0  0  0  0  0  0  0
   23.4098  -14.2675  -17.6654 O   0  0  0  0  0  0  0  0  0  0  0  0
   17.4798  -20.0159  -15.5651 O   0  0  0  0  0  0  0  0  0  0  0  0
   18.4968  -19.1287  -15.9210 C   0  0  0  0  0  0  0  0  0  0  0  0
   18.1770  -17.8040  -16.1975 C   0  0  0  0  0  0  0  0  0  0  0  0
   19.2080  -16.9463  -16.5480 C   0  0  0  0  0  0  0  0  0  0  0  0
   20.5163  -17.3627  -16.6285 C   0  0  0  0  0  0  0  0  0  0  0  0
   21.5649  -16.4417  -17.0116 C   0  0  0  0  0  0  0  0  0  0  0  0
   21.9386  -16.4365  -18.4505 C   0  0  2  0  0  0  0  0  0  0  0  0
   23.3773  -16.3247  -18.6421 N   0  0  0  0  0  0  0  0  0  0  0  0
   21.2020  -15.4283  -19.2311 C   0  0  0  0  0  0  0  0  0  0  0  0
   19.8329  -15.3586  -19.1726 O   0  0  0  0  0  0  0  0  0  0  0  0
   20.7969  -18.6792  -16.3487 C   0  0  0  0  0  0  0  0  0  0  0  0
   19.7958  -19.5792  -15.9920 C   0  0  0  0  0  0  0  0  0  0  0  0
   21.8227  -14.6186  -19.9633 O   0  0  0  0  0  0  0  0  0  0  0  0
  2  1  1  0
  3  2  1  0
  4  5  1  0
  4  3  1  0
  5  6  1  1
  7  8  2  0
  7  5  1  0
  9 10  1  0
 10 11  1  0
 11 12  1  0
 13 12  1  1
 13 14  1  0
 14  7  1  0
 15 16  2  0
 15 13  1  0
 18 17  1  0
 19 18  2  0
 20 19  1  0
 21 20  2  0
 21 27  1  0
 22 21  1  0
 23 22  1  1
 23 24  1  0
 24 15  1  0
 25 23  1  0
 26 25  1  0
 27 28  2  0
 28 18  1  0
 29 25  2  0
M  END
$$$$
