MMY.pdb
     RDKit          3D

 29 29  0  0  1  0  0  0  0  0999 V2000
   18.6030   -9.2686  -24.5933 C   0  0  0  0  0  0  0  0  0  0  0  0
   20.2341  -10.0221  -24.6601 S   0  0  0  0  0  0  0  0  0  0  0  0
   21.3377   -9.3553  -23.3713 C   0  0  0  0  0  0  0  0  0  0  0  0
   20.5218   -9.1691  -22.1185 C   0  0  0  0  0  0  0  0  0  0  0  0
   21.3991   -8.5648  -21.0428 C   0  0  2  0  0  0  0  0  0  0  0  0
   22.3646   -9.5501  -20.6305 N   0  0  0  0  0  0  0  0  0  0  0  0
   20.5668   -8.2217  -19.8285 C   0  0  0  0  0  0  0  0  0  0  0  0
   19.6679   -7.3648  -19.9218 O   0  0  0  0  0  0  0  0  0  0  0  0
   18.8648  -13.7524  -15.8427 C   0  0  0  0  0  0  0  0  0  0  0  0
   18.1686  -12.1780  -16.4009 S   0  0  0  0  0  0  0  0  0  0  0  0
   19.5494  -11.0436  -16.7934 C   0  0  0  0  0  0  0  0  0  0  0  0
   19.0074   -9.6659  -17.1330 C   0  0  0  0  0  0  0  0  0  0  0  0
   20.0947   -8.6864  -17.3787 C   0  0  2  0  0  0  0  0  0  0  0  0
   20.8079   -8.8703  -18.5917 N   0  0  0  0  0  0  0  0  0  0  0  0
   20.9674   -8.5424  -16.1647 C   0  0  0  0  0  0  0  0  0  0  0  0
   22.0655   -9.1415  -16.1026 O   0  0  0  0  0  0  0  0  0  0  0  0
   22.4671   -1.5817  -16.2647 O   0  0  0  0  0  0  0  0  0  0  0  0
   22.5523   -2.9012  -15.8178 C   0  0  0  0  0  0  0  0  0  0  0  0
   21.9644   -3.2477  -14.6063 C   0  0  0  0  0  0  0  0  0  0  0  0
   22.0653   -4.5655  -14.1886 C   0  0  0  0  0  0  0  0  0  0  0  0
   22.7199   -5.5234  -14.9270 C   0  0  0  0  0  0  0  0  0  0  0  0
   22.8172   -6.8870  -14.4521 C   0  0  0  0  0  0  0  0  0  0  0  0
   21.5544   -7.5033  -13.9670 C   0  0  2  0  0  0  0  0  0  0  0  0
   20.6103   -7.7415  -15.0492 N   0  0  0  0  0  0  0  0  0  0  0  0
   20.9392   -6.7545  -12.8583 C   0  0  0  0  0  0  0  0  0  0  0  0
   21.5909   -6.6152  -11.6589 O   0  0  0  0  0  0  0  0  0  0  0  0
   23.2899   -5.1462  -16.1200 C   0  0  0  0  0  0  0  0  0  0  0  0
   23.2154   -3.8347  -16.5823 C   0  0  0  0  0  0  0  0  0  0  0  0
   19.8052   -6.2339  -12.9997 O   0  0  0  0  0  0  0  0  0  0  0  0
  2  1  1  0
  3  2  1  0
  4  5  1  0
  4  3  1  0
  5  6  1  1
  7  8  2  0
  7  5  1  0
  9 10  1  0
 10 11  1  0
 11 12  1  0
 13 12  1  1
 13 14  1  0
 14  7  1  0
 15 16  2  0
 15 13  1  0
 18 17  1  0
 19 18  2  0
 20 19  1  0
 21 20  2  0
 21 27  1  0
 22 21  1  0
 23 22  1  6
 23 24  1  0
 24 15  1  0
 25 23  1  0
 26 25  1  0
 27 28  2  0
 28 18  1  0
 29 25  2  0
M  END
$$$$
