MMY.pdb
     RDKit          3D

 29 29  0  0  1  0  0  0  0  0999 V2000
   18.6143  -14.2643  -21.3997 C   0  0  0  0  0  0  0  0  0  0  0  0
   19.8709  -15.3948  -22.0127 S   0  0  0  0  0  0  0  0  0  0  0  0
   20.8967  -16.0596  -20.6602 C   0  0  0  0  0  0  0  0  0  0  0  0
   21.0942  -14.9598  -19.6496 C   0  0  0  0  0  0  0  0  0  0  0  0
   22.1826  -15.3692  -18.6802 C   0  0  2  0  0  0  0  0  0  0  0  0
   21.7446  -16.5402  -17.9660 N   0  0  0  0  0  0  0  0  0  0  0  0
   22.4005  -14.2788  -17.6562 C   0  0  0  0  0  0  0  0  0  0  0  0
   21.4912  -14.0007  -16.8518 O   0  0  0  0  0  0  0  0  0  0  0  0
   28.2480  -11.7132  -15.7151 C   0  0  0  0  0  0  0  0  0  0  0  0
   27.7965  -13.4563  -15.5338 S   0  0  0  0  0  0  0  0  0  0  0  0
   25.9813  -13.6032  -15.7103 C   0  0  0  0  0  0  0  0  0  0  0  0
   25.4329  -12.3938  -16.4477 C   0  0  0  0  0  0  0  0  0  0  0  0
   23.9813  -12.5246  -16.7267 C   0  0  2  0  0  0  0  0  0  0  0  0
   23.6309  -13.5769  -17.6119 N   0  0  0  0  0  0  0  0  0  0  0  0
   23.3845  -11.1930  -17.0829 C   0  0  0  0  0  0  0  0  0  0  0  0
   23.5300  -10.7247  -18.2353 O   0  0  0  0  0  0  0  0  0  0  0  0
   18.3998   -4.2649  -18.5046 O   0  0  0  0  0  0  0  0  0  0  0  0
   18.9994   -5.4812  -18.1741 C   0  0  0  0  0  0  0  0  0  0  0  0
   20.1213   -5.8999  -18.8808 C   0  0  0  0  0  0  0  0  0  0  0  0
   20.6951   -7.1120  -18.5300 C   0  0  0  0  0  0  0  0  0  0  0  0
   20.1936   -7.8983  -17.5194 C   0  0  0  0  0  0  0  0  0  0  0  0
   20.8110   -9.1652  -17.1902 C   0  0  0  0  0  0  0  0  0  0  0  0
   22.1421   -9.0937  -16.5321 C   0  0  2  0  0  0  0  0  0  0  0  0
   22.6413  -10.4102  -16.1621 N   0  0  0  0  0  0  0  0  0  0  0  0
   22.1710   -8.1576  -15.3958 C   0  0  0  0  0  0  0  0  0  0  0  0
   21.9545   -8.6013  -14.1156 O   0  0  0  0  0  0  0  0  0  0  0  0
   19.0831   -7.4541  -16.8414 C   0  0  0  0  0  0  0  0  0  0  0  0
   18.4710   -6.2436  -17.1567 C   0  0  0  0  0  0  0  0  0  0  0  0
   22.3941   -6.9368  -15.5881 O   0  0  0  0  0  0  0  0  0  0  0  0
  2  1  1  0
  3  2  1  0
  4  5  1  0
  4  3  1  0
  5  6  1  1
  7  8  2  0
  7  5  1  0
  9 10  1  0
 10 11  1  0
 11 12  1  0
 13 12  1  6
 13 14  1  0
 14  7  1  0
 15 16  2  0
 15 13  1  0
 18 17  1  0
 19 18  2  0
 20 19  1  0
 21 20  2  0
 21 27  1  0
 22 21  1  0
 23 22  1  1
 23 24  1  0
 24 15  1  0
 25 23  1  0
 26 25  1  0
 27 28  2  0
 28 18  1  0
 29 25  2  0
M  END
$$$$
