MMY.pdb
     RDKit          3D

 29 29  0  0  1  0  0  0  0  0999 V2000
   35.4564  -18.5572  -20.1480 C   0  0  0  0  0  0  0  0  0  0  0  0
   34.1313  -17.5242  -19.5076 S   0  0  0  0  0  0  0  0  0  0  0  0
   34.3537  -15.7763  -19.9752 C   0  0  0  0  0  0  0  0  0  0  0  0
   33.2510  -14.9823  -19.3243 C   0  0  0  0  0  0  0  0  0  0  0  0
   31.9461  -15.7353  -19.4727 C   0  0  2  0  0  0  0  0  0  0  0  0
   31.5119  -15.6361  -20.8419 N   0  0  0  0  0  0  0  0  0  0  0  0
   30.8773  -15.0917  -18.6191 C   0  0  0  0  0  0  0  0  0  0  0  0
   31.0347  -15.0236  -17.3855 O   0  0  0  0  0  0  0  0  0  0  0  0
   29.6236   -9.1159  -17.4810 C   0  0  0  0  0  0  0  0  0  0  0  0
   28.3591  -10.3797  -17.7623 S   0  0  0  0  0  0  0  0  0  0  0  0
   29.0456  -11.6400  -18.8972 C   0  0  0  0  0  0  0  0  0  0  0  0
   28.0474  -12.7698  -19.0815 C   0  0  0  0  0  0  0  0  0  0  0  0
   28.5612  -14.0569  -18.5509 C   0  0  2  0  0  0  0  0  0  0  0  0
   29.7038  -14.5699  -19.2181 N   0  0  0  0  0  0  0  0  0  0  0  0
   27.4456  -15.0489  -18.3848 C   0  0  0  0  0  0  0  0  0  0  0  0
   27.1588  -15.8372  -19.3149 O   0  0  0  0  0  0  0  0  0  0  0  0
   20.9635  -19.9615  -14.8954 O   0  0  0  0  0  0  0  0  0  0  0  0
   22.0363  -19.0894  -15.0861 C   0  0  0  0  0  0  0  0  0  0  0  0
   21.8131  -17.7176  -15.0424 C   0  0  0  0  0  0  0  0  0  0  0  0
   22.8978  -16.8765  -15.2352 C   0  0  0  0  0  0  0  0  0  0  0  0
   24.1671  -17.3534  -15.4647 C   0  0  0  0  0  0  0  0  0  0  0  0
   25.2734  -16.4445  -15.6757 C   0  0  0  0  0  0  0  0  0  0  0  0
   25.5915  -16.1172  -17.0905 C   0  0  2  0  0  0  0  0  0  0  0  0
   26.6736  -15.1494  -17.1987 N   0  0  0  0  0  0  0  0  0  0  0  0
   24.4084  -15.7048  -17.8642 C   0  0  0  0  0  0  0  0  0  0  0  0
   23.6875  -16.6223  -18.5861 O   0  0  0  0  0  0  0  0  0  0  0  0
   24.3521  -18.7152  -15.5017 C   0  0  0  0  0  0  0  0  0  0  0  0
   23.2941  -19.6011  -15.3138 C   0  0  0  0  0  0  0  0  0  0  0  0
   24.0460  -14.5024  -17.8721 O   0  0  0  0  0  0  0  0  0  0  0  0
  2  1  1  0
  3  2  1  0
  4  5  1  0
  4  3  1  0
  5  6  1  6
  7  8  2  0
  7  5  1  0
  9 10  1  0
 10 11  1  0
 11 12  1  0
 13 12  1  6
 13 14  1  0
 14  7  1  0
 15 16  2  0
 15 13  1  0
 18 17  1  0
 19 18  2  0
 20 19  1  0
 21 20  2  0
 21 27  1  0
 22 21  1  0
 23 22  1  1
 23 24  1  0
 24 15  1  0
 25 23  1  0
 26 25  1  0
 27 28  2  0
 28 18  1  0
 29 25  2  0
M  END
$$$$
