MMY.pdb
     RDKit          3D

 29 29  0  0  1  0  0  0  0  0999 V2000
   30.6391  -24.0057  -21.5626 C   0  0  0  0  0  0  0  0  0  0  0  0
   32.1895  -24.5472  -20.8306 S   0  0  0  0  0  0  0  0  0  0  0  0
   32.3232  -24.0413  -19.0843 C   0  0  0  0  0  0  0  0  0  0  0  0
   30.9293  -23.9769  -18.5162 C   0  0  0  0  0  0  0  0  0  0  0  0
   30.9960  -23.4371  -17.1035 C   0  0  2  0  0  0  0  0  0  0  0  0
   31.6908  -24.3919  -16.2794 N   0  0  0  0  0  0  0  0  0  0  0  0
   29.6014  -23.2929  -16.5382 C   0  0  0  0  0  0  0  0  0  0  0  0
   29.1292  -24.2008  -15.8284 O   0  0  0  0  0  0  0  0  0  0  0  0
   27.2653  -17.4547  -15.6986 C   0  0  0  0  0  0  0  0  0  0  0  0
   28.0166  -18.2840  -14.2764 S   0  0  0  0  0  0  0  0  0  0  0  0
   28.2057  -20.0592  -14.6775 C   0  0  0  0  0  0  0  0  0  0  0  0
   27.3604  -20.4091  -15.8900 C   0  0  0  0  0  0  0  0  0  0  0  0
   27.5473  -21.8205  -16.3087 C   0  0  2  0  0  0  0  0  0  0  0  0
   28.8359  -22.1327  -16.8145 N   0  0  0  0  0  0  0  0  0  0  0  0
   26.4137  -22.2716  -17.1848 C   0  0  0  0  0  0  0  0  0  0  0  0
   26.4465  -22.0582  -18.4185 O   0  0  0  0  0  0  0  0  0  0  0  0
   27.3233  -29.0236  -16.7539 O   0  0  0  0  0  0  0  0  0  0  0  0
   26.7006  -27.8655  -17.2218 C   0  0  0  0  0  0  0  0  0  0  0  0
   27.4820  -26.8202  -17.7016 C   0  0  0  0  0  0  0  0  0  0  0  0
   26.8354  -25.6829  -18.1597 C   0  0  0  0  0  0  0  0  0  0  0  0
   25.4654  -25.5621  -18.1525 C   0  0  0  0  0  0  0  0  0  0  0  0
   24.8255  -24.3534  -18.6258 C   0  0  0  0  0  0  0  0  0  0  0  0
   24.2517  -23.4642  -17.5818 C   0  0  2  0  0  0  0  0  0  0  0  0
   25.2722  -22.9474  -16.6814 N   0  0  0  0  0  0  0  0  0  0  0  0
   23.1372  -24.0861  -16.8474 C   0  0  0  0  0  0  0  0  0  0  0  0
   23.2039  -24.2618  -15.4883 O   0  0  0  0  0  0  0  0  0  0  0  0
   24.7235  -26.6146  -17.6710 C   0  0  0  0  0  0  0  0  0  0  0  0
   25.3268  -27.7781  -17.2000 C   0  0  0  0  0  0  0  0  0  0  0  0
   22.1092  -24.4652  -17.4612 O   0  0  0  0  0  0  0  0  0  0  0  0
  2  1  1  0
  3  2  1  0
  4  5  1  0
  4  3  1  0
  5  6  1  1
  7  8  2  0
  7  5  1  0
  9 10  1  0
 10 11  1  0
 11 12  1  0
 13 12  1  6
 13 14  1  0
 14  7  1  0
 15 16  2  0
 15 13  1  0
 18 17  1  0
 19 18  2  0
 20 19  1  0
 21 20  2  0
 21 27  1  0
 22 21  1  0
 23 22  1  6
 23 24  1  0
 24 15  1  0
 25 23  1  0
 26 25  1  0
 27 28  2  0
 28 18  1  0
 29 25  2  0
M  END
$$$$
