MMY.pdb
     RDKit          3D

 29 29  0  0  1  0  0  0  0  0999 V2000
   29.0404  -23.7147  -16.8897 C   0  0  0  0  0  0  0  0  0  0  0  0
   29.2474  -21.9988  -17.3854 S   0  0  0  0  0  0  0  0  0  0  0  0
   29.2375  -20.8766  -15.9487 C   0  0  0  0  0  0  0  0  0  0  0  0
   28.4054  -21.5188  -14.8693 C   0  0  0  0  0  0  0  0  0  0  0  0
   27.3159  -20.5563  -14.4469 C   0  0  2  0  0  0  0  0  0  0  0  0
   27.9026  -19.5316  -13.6228 N   0  0  0  0  0  0  0  0  0  0  0  0
   26.2901  -21.2750  -13.6006 C   0  0  0  0  0  0  0  0  0  0  0  0
   25.7204  -22.2862  -14.0524 O   0  0  0  0  0  0  0  0  0  0  0  0
   26.5826  -19.6602   -7.4187 C   0  0  0  0  0  0  0  0  0  0  0  0
   26.4126  -21.4410   -7.6918 S   0  0  0  0  0  0  0  0  0  0  0  0
   26.2527  -21.7360   -9.4905 C   0  0  0  0  0  0  0  0  0  0  0  0
   25.0598  -20.9707  -10.0368 C   0  0  0  0  0  0  0  0  0  0  0  0
   24.8787  -21.1904  -11.4932 C   0  0  2  0  0  0  0  0  0  0  0  0
   25.9780  -20.8012  -12.3019 N   0  0  0  0  0  0  0  0  0  0  0  0
   23.5531  -20.6541  -11.9529 C   0  0  0  0  0  0  0  0  0  0  0  0
   23.3797  -19.4196  -12.0734 O   0  0  0  0  0  0  0  0  0  0  0  0
   24.1971  -18.8592  -18.0722 O   0  0  0  0  0  0  0  0  0  0  0  0
   23.3930  -19.4655  -17.1059 C   0  0  0  0  0  0  0  0  0  0  0  0
   23.7553  -20.7107  -16.6042 C   0  0  0  0  0  0  0  0  0  0  0  0
   22.9373  -21.2879  -15.6455 C   0  0  0  0  0  0  0  0  0  0  0  0
   21.7967  -20.6732  -15.1847 C   0  0  0  0  0  0  0  0  0  0  0  0
   20.9591  -21.3128  -14.1928 C   0  0  0  0  0  0  0  0  0  0  0  0
   21.2085  -20.9281  -12.7786 C   0  0  2  0  0  0  0  0  0  0  0  0
   22.4512  -21.4900  -12.2694 N   0  0  0  0  0  0  0  0  0  0  0  0
   20.0697  -21.2253  -11.8936 C   0  0  0  0  0  0  0  0  0  0  0  0
   18.8149  -20.7508  -12.1815 O   0  0  0  0  0  0  0  0  0  0  0  0
   21.4681  -19.4426  -15.7024 C   0  0  0  0  0  0  0  0  0  0  0  0
   22.2577  -18.8219  -16.6671 C   0  0  0  0  0  0  0  0  0  0  0  0
   20.2367  -21.9188  -10.8600 O   0  0  0  0  0  0  0  0  0  0  0  0
  2  1  1  0
  3  2  1  0
  4  5  1  0
  4  3  1  0
  5  6  1  1
  7  8  2  0
  7  5  1  0
  9 10  1  0
 10 11  1  0
 11 12  1  0
 13 12  1  1
 13 14  1  0
 14  7  1  0
 15 16  2  0
 15 13  1  0
 18 17  1  0
 19 18  2  0
 20 19  1  0
 21 20  2  0
 21 27  1  0
 22 21  1  0
 23 22  1  6
 23 24  1  0
 24 15  1  0
 25 23  1  0
 26 25  1  0
 27 28  2  0
 28 18  1  0
 29 25  2  0
M  END
$$$$
