MMY.pdb
     RDKit          3D

 29 29  0  0  1  0  0  0  0  0999 V2000
   28.9841  -16.9182  -15.8981 C   0  0  0  0  0  0  0  0  0  0  0  0
   28.1526  -17.2500  -17.4574 S   0  0  0  0  0  0  0  0  0  0  0  0
   28.0870  -19.0356  -17.8193 C   0  0  0  0  0  0  0  0  0  0  0  0
   27.3843  -19.7120  -16.6710 C   0  0  0  0  0  0  0  0  0  0  0  0
   28.3333  -20.6971  -16.0224 C   0  0  2  0  0  0  0  0  0  0  0  0
   28.5564  -21.7885  -16.9347 N   0  0  0  0  0  0  0  0  0  0  0  0
   27.7036  -21.2793  -14.7775 C   0  0  0  0  0  0  0  0  0  0  0  0
   26.8798  -22.2075  -14.8821 O   0  0  0  0  0  0  0  0  0  0  0  0
   31.9902  -22.2424   -9.5637 C   0  0  0  0  0  0  0  0  0  0  0  0
   30.5312  -21.1722   -9.5930 S   0  0  0  0  0  0  0  0  0  0  0  0
   29.5138  -21.6236  -11.0452 C   0  0  0  0  0  0  0  0  0  0  0  0
   28.2354  -20.8035  -11.0571 C   0  0  0  0  0  0  0  0  0  0  0  0
   27.4155  -21.0706  -12.2648 C   0  0  2  0  0  0  0  0  0  0  0  0
   28.0476  -20.7719  -13.4997 N   0  0  0  0  0  0  0  0  0  0  0  0
   26.0407  -20.4839  -12.1167 C   0  0  0  0  0  0  0  0  0  0  0  0
   25.8732  -19.2446  -12.1847 O   0  0  0  0  0  0  0  0  0  0  0  0
   23.7277  -18.3612  -17.6671 O   0  0  0  0  0  0  0  0  0  0  0  0
   23.4552  -19.0076  -16.4605 C   0  0  0  0  0  0  0  0  0  0  0  0
   22.8738  -18.2898  -15.4212 C   0  0  0  0  0  0  0  0  0  0  0  0
   22.6148  -18.9585  -14.2350 C   0  0  0  0  0  0  0  0  0  0  0  0
   22.9123  -20.2898  -14.0608 C   0  0  0  0  0  0  0  0  0  0  0  0
   22.6404  -20.9515  -12.8027 C   0  0  0  0  0  0  0  0  0  0  0  0
   23.5825  -20.6575  -11.6910 C   0  0  2  0  0  0  0  0  0  0  0  0
   24.8840  -21.2759  -11.8983 N   0  0  0  0  0  0  0  0  0  0  0  0
   23.0266  -20.9817  -10.3665 C   0  0  0  0  0  0  0  0  0  0  0  0
   23.7103  -21.7953   -9.4987 O   0  0  0  0  0  0  0  0  0  0  0  0
   23.4867  -20.9692  -15.1089 C   0  0  0  0  0  0  0  0  0  0  0  0
   23.7661  -20.3415  -16.3203 C   0  0  0  0  0  0  0  0  0  0  0  0
   21.9144  -20.5152  -10.0164 O   0  0  0  0  0  0  0  0  0  0  0  0
  2  1  1  0
  3  2  1  0
  4  5  1  0
  4  3  1  0
  5  6  1  6
  7  8  2  0
  7  5  1  0
  9 10  1  0
 10 11  1  0
 11 12  1  0
 13 12  1  1
 13 14  1  0
 14  7  1  0
 15 16  2  0
 15 13  1  0
 18 17  1  0
 19 18  2  0
 20 19  1  0
 21 20  2  0
 21 27  1  0
 22 21  1  0
 23 22  1  6
 23 24  1  0
 24 15  1  0
 25 23  1  0
 26 25  1  0
 27 28  2  0
 28 18  1  0
 29 25  2  0
M  END
$$$$
