MMY.pdb
     RDKit          3D

 29 29  0  0  1  0  0  0  0  0999 V2000
   15.5638  -19.3151  -18.6309 C   0  0  0  0  0  0  0  0  0  0  0  0
   17.1797  -20.1010  -18.5650 S   0  0  0  0  0  0  0  0  0  0  0  0
   18.3142  -19.4148  -19.8162 C   0  0  0  0  0  0  0  0  0  0  0  0
   19.6034  -20.1910  -19.7430 C   0  0  0  0  0  0  0  0  0  0  0  0
   20.3951  -19.7216  -18.5410 C   0  0  2  0  0  0  0  0  0  0  0  0
   20.4748  -18.2844  -18.5765 N   0  0  0  0  0  0  0  0  0  0  0  0
   21.8102  -20.2479  -18.6159 C   0  0  0  0  0  0  0  0  0  0  0  0
   22.0064  -21.4760  -18.6809 O   0  0  0  0  0  0  0  0  0  0  0  0
   29.3372  -19.1211  -20.4659 C   0  0  0  0  0  0  0  0  0  0  0  0
   27.6181  -18.5917  -20.6645 S   0  0  0  0  0  0  0  0  0  0  0  0
   26.6063  -19.4276  -19.3896 C   0  0  0  0  0  0  0  0  0  0  0  0
   25.1594  -18.9788  -19.5002 C   0  0  0  0  0  0  0  0  0  0  0  0
   24.2834  -19.6850  -18.5328 C   0  0  2  0  0  0  0  0  0  0  0  0
   22.9066  -19.3499  -18.6116 N   0  0  0  0  0  0  0  0  0  0  0  0
   24.8571  -19.6184  -17.1463 C   0  0  0  0  0  0  0  0  0  0  0  0
   24.6554  -18.6125  -16.4279 O   0  0  0  0  0  0  0  0  0  0  0  0
   25.7781  -20.4880   -8.7594 O   0  0  0  0  0  0  0  0  0  0  0  0
   25.5435  -20.4797  -10.1352 C   0  0  0  0  0  0  0  0  0  0  0  0
   25.5795  -19.2720  -10.8235 C   0  0  0  0  0  0  0  0  0  0  0  0
   25.3428  -19.2952  -12.1891 C   0  0  0  0  0  0  0  0  0  0  0  0
   25.0777  -20.4602  -12.8702 C   0  0  0  0  0  0  0  0  0  0  0  0
   24.8214  -20.4440  -14.2945 C   0  0  0  0  0  0  0  0  0  0  0  0
   26.0021  -20.6462  -15.1748 C   0  0  2  0  0  0  0  0  0  0  0  0
   25.6380  -20.6612  -16.5842 N   0  0  0  0  0  0  0  0  0  0  0  0
   26.8001  -21.8265  -14.8026 C   0  0  0  0  0  0  0  0  0  0  0  0
   27.6623  -21.7825  -13.7362 O   0  0  0  0  0  0  0  0  0  0  0  0
   25.0496  -21.6362  -12.1586 C   0  0  0  0  0  0  0  0  0  0  0  0
   25.2811  -21.6644  -10.7856 C   0  0  0  0  0  0  0  0  0  0  0  0
   26.7000  -22.8907  -15.4618 O   0  0  0  0  0  0  0  0  0  0  0  0
  2  1  1  0
  3  2  1  0
  4  5  1  0
  4  3  1  0
  5  6  1  6
  7  8  2  0
  7  5  1  0
  9 10  1  0
 10 11  1  0
 11 12  1  0
 13 12  1  6
 13 14  1  0
 14  7  1  0
 15 16  2  0
 15 13  1  0
 18 17  1  0
 19 18  2  0
 20 19  1  0
 21 20  2  0
 21 27  1  0
 22 21  1  0
 23 22  1  1
 23 24  1  0
 24 15  1  0
 25 23  1  0
 26 25  1  0
 27 28  2  0
 28 18  1  0
 29 25  2  0
M  END
$$$$
