MMY.pdb
     RDKit          3D

 29 29  0  0  1  0  0  0  0  0999 V2000
   16.8792  -13.8526  -17.0909 C   0  0  0  0  0  0  0  0  0  0  0  0
   17.9424  -13.3908  -18.4654 S   0  0  0  0  0  0  0  0  0  0  0  0
   19.6768  -13.8651  -18.1646 C   0  0  0  0  0  0  0  0  0  0  0  0
   20.2452  -12.9095  -17.1479 C   0  0  0  0  0  0  0  0  0  0  0  0
   20.6716  -11.6377  -17.8497 C   0  0  2  0  0  0  0  0  0  0  0  0
   21.7221  -11.9572  -18.7811 N   0  0  0  0  0  0  0  0  0  0  0  0
   21.2462  -10.6619  -16.8483 C   0  0  0  0  0  0  0  0  0  0  0  0
   20.5728  -10.3350  -15.8529 O   0  0  0  0  0  0  0  0  0  0  0  0
   27.3869  -12.5005  -15.0922 C   0  0  0  0  0  0  0  0  0  0  0  0
   26.9324  -10.8635  -15.7158 S   0  0  0  0  0  0  0  0  0  0  0  0
   25.1078  -10.7278  -15.7035 C   0  0  0  0  0  0  0  0  0  0  0  0
   24.6886   -9.3396  -16.1556 C   0  0  0  0  0  0  0  0  0  0  0  0
   23.2127   -9.1932  -16.2032 C   0  0  2  0  0  0  0  0  0  0  0  0
   22.5423  -10.1219  -17.0410 N   0  0  0  0  0  0  0  0  0  0  0  0
   22.8260   -7.7605  -16.4356 C   0  0  0  0  0  0  0  0  0  0  0  0
   23.0980   -7.2022  -17.5232 O   0  0  0  0  0  0  0  0  0  0  0  0
   18.9459   -7.6739  -21.1341 O   0  0  0  0  0  0  0  0  0  0  0  0
   19.2954   -7.1309  -19.8967 C   0  0  0  0  0  0  0  0  0  0  0  0
   19.1169   -7.8911  -18.7462 C   0  0  0  0  0  0  0  0  0  0  0  0
   19.4732   -7.3254  -17.5319 C   0  0  0  0  0  0  0  0  0  0  0  0
   19.9896   -6.0544  -17.4357 C   0  0  0  0  0  0  0  0  0  0  0  0
   20.3373   -5.4913  -16.1486 C   0  0  0  0  0  0  0  0  0  0  0  0
   21.7649   -5.6024  -15.7492 C   0  0  2  0  0  0  0  0  0  0  0  0
   22.1485   -6.9778  -15.4653 N   0  0  0  0  0  0  0  0  0  0  0  0
   22.1249   -4.6947  -14.6471 C   0  0  0  0  0  0  0  0  0  0  0  0
   21.9630   -3.3381  -14.7742 O   0  0  0  0  0  0  0  0  0  0  0  0
   20.1527   -5.3306  -18.5931 C   0  0  0  0  0  0  0  0  0  0  0  0
   19.8096   -5.8552  -19.8367 C   0  0  0  0  0  0  0  0  0  0  0  0
   22.5874   -5.1553  -13.5742 O   0  0  0  0  0  0  0  0  0  0  0  0
  2  1  1  0
  3  2  1  0
  4  5  1  0
  4  3  1  0
  5  6  1  6
  7  8  2  0
  7  5  1  0
  9 10  1  0
 10 11  1  0
 11 12  1  0
 13 12  1  6
 13 14  1  0
 14  7  1  0
 15 16  2  0
 15 13  1  0
 18 17  1  0
 19 18  2  0
 20 19  1  0
 21 20  2  0
 21 27  1  0
 22 21  1  0
 23 22  1  1
 23 24  1  0
 24 15  1  0
 25 23  1  0
 26 25  1  0
 27 28  2  0
 28 18  1  0
 29 25  2  0
M  END
$$$$
