MMY.pdb
     RDKit          3D

 29 29  0  0  1  0  0  0  0  0999 V2000
   30.1504  -24.2428  -16.1534 C   0  0  0  0  0  0  0  0  0  0  0  0
   30.4417  -22.7548  -17.1198 S   0  0  0  0  0  0  0  0  0  0  0  0
   29.2804  -21.4227  -16.6724 C   0  0  0  0  0  0  0  0  0  0  0  0
   28.2517  -22.0040  -15.7376 C   0  0  0  0  0  0  0  0  0  0  0  0
   27.2387  -20.9339  -15.3905 C   0  0  2  0  0  0  0  0  0  0  0  0
   27.9168  -19.8652  -14.7040 N   0  0  0  0  0  0  0  0  0  0  0  0
   26.2049  -21.4895  -14.4379 C   0  0  0  0  0  0  0  0  0  0  0  0
   25.4833  -22.4381  -14.7993 O   0  0  0  0  0  0  0  0  0  0  0  0
   29.0709  -21.2392   -8.6307 C   0  0  0  0  0  0  0  0  0  0  0  0
   27.2819  -21.0428   -8.8205 S   0  0  0  0  0  0  0  0  0  0  0  0
   26.8530  -21.3311  -10.5756 C   0  0  0  0  0  0  0  0  0  0  0  0
   25.3711  -21.0800  -10.7948 C   0  0  0  0  0  0  0  0  0  0  0  0
   24.9981  -21.1726  -12.2281 C   0  0  2  0  0  0  0  0  0  0  0  0
   26.0570  -20.9345  -13.1423 N   0  0  0  0  0  0  0  0  0  0  0  0
   23.7516  -20.3822  -12.5070 C   0  0  0  0  0  0  0  0  0  0  0  0
   23.8319  -19.1969  -12.9034 O   0  0  0  0  0  0  0  0  0  0  0  0
   17.6302  -18.8166  -18.1303 O   0  0  0  0  0  0  0  0  0  0  0  0
   18.6363  -19.2421  -17.2615 C   0  0  0  0  0  0  0  0  0  0  0  0
   18.9265  -20.5989  -17.1702 C   0  0  0  0  0  0  0  0  0  0  0  0
   19.9307  -20.9912  -16.2990 C   0  0  0  0  0  0  0  0  0  0  0  0
   20.6358  -20.0906  -15.5354 C   0  0  0  0  0  0  0  0  0  0  0  0
   21.6685  -20.5386  -14.6258 C   0  0  0  0  0  0  0  0  0  0  0  0
   21.3436  -20.4622  -13.1772 C   0  0  2  0  0  0  0  0  0  0  0  0
   22.4474  -20.9165  -12.3438 N   0  0  0  0  0  0  0  0  0  0  0  0
   20.0830  -21.1421  -12.8350 C   0  0  0  0  0  0  0  0  0  0  0  0
   18.9383  -20.4221  -12.6024 O   0  0  0  0  0  0  0  0  0  0  0  0
   20.3228  -18.7568  -15.6503 C   0  0  0  0  0  0  0  0  0  0  0  0
   19.3222  -18.3133  -16.5115 C   0  0  0  0  0  0  0  0  0  0  0  0
   20.0428  -22.3944  -12.7510 O   0  0  0  0  0  0  0  0  0  0  0  0
  2  1  1  0
  3  2  1  0
  4  5  1  0
  4  3  1  0
  5  6  1  1
  7  8  2  0
  7  5  1  0
  9 10  1  0
 10 11  1  0
 11 12  1  0
 13 12  1  1
 13 14  1  0
 14  7  1  0
 15 16  2  0
 15 13  1  0
 18 17  1  0
 19 18  2  0
 20 19  1  0
 21 20  2  0
 21 27  1  0
 22 21  1  0
 23 22  1  6
 23 24  1  0
 24 15  1  0
 25 23  1  0
 26 25  1  0
 27 28  2  0
 28 18  1  0
 29 25  2  0
M  END
$$$$
