MMY.pdb
     RDKit          3D

 29 29  0  0  1  0  0  0  0  0999 V2000
   17.7801  -14.7794  -15.3720 C   0  0  0  0  0  0  0  0  0  0  0  0
   16.2336  -14.3442  -16.1793 S   0  0  0  0  0  0  0  0  0  0  0  0
   15.9377  -12.5457  -16.1435 C   0  0  0  0  0  0  0  0  0  0  0  0
   16.4347  -12.0241  -14.8203 C   0  0  0  0  0  0  0  0  0  0  0  0
   16.3649  -10.5119  -14.8276 C   0  0  2  0  0  0  0  0  0  0  0  0
   17.2735  -10.0151  -15.8280 N   0  0  0  0  0  0  0  0  0  0  0  0
   16.8275   -9.9661  -13.4959 C   0  0  0  0  0  0  0  0  0  0  0  0
   16.2414  -10.3123  -12.4530 O   0  0  0  0  0  0  0  0  0  0  0  0
   21.8827   -5.1186  -14.9066 C   0  0  0  0  0  0  0  0  0  0  0  0
   21.6955   -6.2736  -13.5261 S   0  0  0  0  0  0  0  0  0  0  0  0
   19.9484   -6.8129  -13.4582 C   0  0  0  0  0  0  0  0  0  0  0  0
   19.7718   -7.8619  -12.3739 C   0  0  0  0  0  0  0  0  0  0  0  0
   18.3726   -8.3498  -12.2958 C   0  0  2  0  0  0  0  0  0  0  0  0
   17.9203   -9.0660  -13.4344 N   0  0  0  0  0  0  0  0  0  0  0  0
   17.4491   -7.2526  -11.8492 C   0  0  0  0  0  0  0  0  0  0  0  0
   16.8225   -6.5727  -12.6939 O   0  0  0  0  0  0  0  0  0  0  0  0
   11.6142   -9.6911   -8.2388 O   0  0  0  0  0  0  0  0  0  0  0  0
   12.4621   -8.7620   -8.8436 C   0  0  0  0  0  0  0  0  0  0  0  0
   12.7798   -7.5900   -8.1662 C   0  0  0  0  0  0  0  0  0  0  0  0
   13.6242   -6.6864   -8.7920 C   0  0  0  0  0  0  0  0  0  0  0  0
   14.1475   -6.9134  -10.0434 C   0  0  0  0  0  0  0  0  0  0  0  0
   15.0151   -5.9401  -10.6716 C   0  0  0  0  0  0  0  0  0  0  0  0
   16.3824   -5.8169  -10.1013 C   0  0  2  0  0  0  0  0  0  0  0  0
   17.2375   -6.9314  -10.4835 N   0  0  0  0  0  0  0  0  0  0  0  0
   16.3795   -5.6031   -8.6444 C   0  0  0  0  0  0  0  0  0  0  0  0
   17.0478   -6.4613   -7.8080 O   0  0  0  0  0  0  0  0  0  0  0  0
   13.8126   -8.0824  -10.6848 C   0  0  0  0  0  0  0  0  0  0  0  0
   12.9681   -9.0213  -10.0975 C   0  0  0  0  0  0  0  0  0  0  0  0
   15.7609   -4.6285   -8.1498 O   0  0  0  0  0  0  0  0  0  0  0  0
  2  1  1  0
  3  2  1  0
  4  5  1  0
  4  3  1  0
  5  6  1  6
  7  8  2  0
  7  5  1  0
  9 10  1  0
 10 11  1  0
 11 12  1  0
 13 12  1  6
 13 14  1  0
 14  7  1  0
 15 16  2  0
 15 13  1  0
 18 17  1  0
 19 18  2  0
 20 19  1  0
 21 20  2  0
 21 27  1  0
 22 21  1  0
 23 22  1  1
 23 24  1  0
 24 15  1  0
 25 23  1  0
 26 25  1  0
 27 28  2  0
 28 18  1  0
 29 25  2  0
M  END
$$$$
