TAH.pdb
     RDKit          3D

 23 23  0  0  1  0  0  0  0  0999 V2000
   11.3488  -13.5824   17.8491 C   0  0  0  0  0  0  0  0  0  0  0  0
   10.5301  -14.1017   19.0231 C   0  0  1  0  0  0  0  0  0  0  0  0
   10.3904  -13.1517   20.0134 O   0  0  0  0  0  0  0  0  0  0  0  0
    9.1746  -14.5709   18.5017 C   0  0  2  0  0  0  0  0  0  0  0  0
    8.4400  -13.4634   17.9152 N   0  0  0  0  0  0  0  0  0  0  0  0
    8.4432  -15.1835   19.6297 C   0  0  0  0  0  0  0  0  0  0  0  0
    7.4812  -14.6268   20.2102 O   0  0  0  0  0  0  0  0  0  0  0  0
    8.6838  -18.5286   21.3805 C   0  0  0  0  0  0  0  0  0  0  0  0
    8.2013  -17.1017   21.1935 C   0  0  2  0  0  0  0  0  0  0  0  0
    8.8647  -16.4718   20.0674 N   0  0  0  0  0  0  0  0  0  0  0  0
    8.5492  -16.2744   22.4051 C   0  0  0  0  0  0  0  0  0  0  0  0
    9.5893  -15.5434   22.4315 O   0  0  0  0  0  0  0  0  0  0  0  0
    7.7387  -16.2754   23.5580 N   0  0  0  0  0  0  0  0  0  0  0  0
    7.8481  -15.1594   24.5119 C   0  0  1  0  0  0  0  0  0  0  0  0
    6.4776  -14.6139   24.8280 C   0  0  0  0  0  0  0  0  0  0  0  0
    6.5338  -13.5525   25.8571 C   0  0  0  0  0  0  0  0  0  0  0  0
    7.6144  -13.0892   26.5748 C   0  0  0  0  0  0  0  0  0  0  0  0
    7.2071  -12.1262   27.4151 N   0  0  0  0  0  0  0  0  0  0  0  0
    5.8905  -11.9899   27.2253 C   0  0  0  0  0  0  0  0  0  0  0  0
    5.4572  -12.8422   26.2868 N   0  0  0  0  0  0  0  0  0  0  0  0
    8.5279  -15.6785   25.7072 C   0  0  0  0  0  0  0  0  0  0  0  0
    8.8980  -16.9915   25.7912 O   0  0  0  0  0  0  0  0  0  0  0  0
    8.7706  -14.9053   26.6615 O   0  0  0  0  0  0  0  0  0  0  0  0
  2  4  1  0
  2  1  1  6
  3  2  1  0
  4  5  1  1
  6  4  1  0
  7  6  2  0
  9  8  1  1
  9 11  1  0
  9 10  1  0
 10  6  1  0
 11 13  1  0
 12 11  2  0
 13 14  1  0
 14 21  1  0
 14 15  1  1
 16 15  1  0
 17 16  2  0
 18 17  1  0
 19 18  1  0
 19 20  2  0
 20 16  1  0
 21 22  1  0
 23 21  2  0
M  END
$$$$
