TAH.pdb
     RDKit          3D

 23 23  0  0  1  0  0  0  0  0999 V2000
   10.2650  -13.0387   19.7766 C   0  0  0  0  0  0  0  0  0  0  0  0
    9.0279  -12.9836   18.8907 C   0  0  1  0  0  0  0  0  0  0  0  0
    9.1633  -12.0608   17.8744 O   0  0  0  0  0  0  0  0  0  0  0  0
    8.7574  -14.3828   18.3445 C   0  0  2  0  0  0  0  0  0  0  0  0
    7.6452  -14.3619   17.4102 N   0  0  0  0  0  0  0  0  0  0  0  0
    8.4974  -15.2747   19.4932 C   0  0  0  0  0  0  0  0  0  0  0  0
    7.4294  -15.2581   20.1500 O   0  0  0  0  0  0  0  0  0  0  0  0
   10.0326  -18.4730   20.5890 C   0  0  0  0  0  0  0  0  0  0  0  0
    9.2581  -17.1988   20.8725 C   0  0  2  0  0  0  0  0  0  0  0  0
    9.5220  -16.1938   19.8600 N   0  0  0  0  0  0  0  0  0  0  0  0
    9.7030  -16.6034   22.1844 C   0  0  0  0  0  0  0  0  0  0  0  0
   10.6851  -15.7982   22.2471 O   0  0  0  0  0  0  0  0  0  0  0  0
    9.0513  -16.9128   23.3950 N   0  0  0  0  0  0  0  0  0  0  0  0
    9.4778  -16.2372   24.6316 C   0  0  1  0  0  0  0  0  0  0  0  0
    8.2940  -16.0351   25.5445 C   0  0  0  0  0  0  0  0  0  0  0  0
    7.4852  -14.8633   25.1425 C   0  0  0  0  0  0  0  0  0  0  0  0
    7.7029  -13.9602   24.1255 C   0  0  0  0  0  0  0  0  0  0  0  0
    6.7229  -13.0443   24.1302 N   0  0  0  0  0  0  0  0  0  0  0  0
    5.9046  -13.3704   25.1362 C   0  0  0  0  0  0  0  0  0  0  0  0
    6.3434  -14.4685   25.7659 N   0  0  0  0  0  0  0  0  0  0  0  0
   10.5155  -17.0771   25.2463 C   0  0  0  0  0  0  0  0  0  0  0  0
   11.4613  -16.5355   26.0710 O   0  0  0  0  0  0  0  0  0  0  0  0
   10.5319  -18.3065   25.0100 O   0  0  0  0  0  0  0  0  0  0  0  0
  2  4  1  0
  2  1  1  6
  3  2  1  0
  4  5  1  6
  6  4  1  0
  7  6  2  0
  9  8  1  6
  9 11  1  0
  9 10  1  0
 10  6  1  0
 11 13  1  0
 12 11  2  0
 13 14  1  0
 14 21  1  0
 14 15  1  1
 16 15  1  0
 17 16  2  0
 18 17  1  0
 19 18  1  0
 19 20  2  0
 20 16  1  0
 21 22  1  0
 23 21  2  0
M  END
$$$$
