TAH.pdb
     RDKit          3D

 23 23  0  0  1  0  0  0  0  0999 V2000
    9.6169  -17.4860   17.4695 C   0  0  0  0  0  0  0  0  0  0  0  0
   10.8327  -16.7909   16.8722 C   0  0  1  0  0  0  0  0  0  0  0  0
   11.3908  -17.5228   15.8447 O   0  0  0  0  0  0  0  0  0  0  0  0
   10.4173  -15.3981   16.4066 C   0  0  2  0  0  0  0  0  0  0  0  0
   11.3641  -14.8793   15.4346 N   0  0  0  0  0  0  0  0  0  0  0  0
   10.3201  -14.5323   17.5997 C   0  0  0  0  0  0  0  0  0  0  0  0
   11.3151  -14.0032   18.1496 O   0  0  0  0  0  0  0  0  0  0  0  0
    7.4151  -12.9813   19.4324 C   0  0  0  0  0  0  0  0  0  0  0  0
    8.8659  -13.3951   19.2657 C   0  0  2  0  0  0  0  0  0  0  0  0
    9.0233  -14.2968   18.1401 N   0  0  0  0  0  0  0  0  0  0  0  0
    9.3311  -14.1540   20.4828 C   0  0  0  0  0  0  0  0  0  0  0  0
    9.2166  -13.6659   21.6513 O   0  0  0  0  0  0  0  0  0  0  0  0
    9.9114  -15.4339   20.3784 N   0  0  0  0  0  0  0  0  0  0  0  0
   10.3337  -16.1316   21.6041 C   0  0  1  0  0  0  0  0  0  0  0  0
   10.2553  -17.6245   21.4017 C   0  0  0  0  0  0  0  0  0  0  0  0
    8.8546  -18.0974   21.3458 C   0  0  0  0  0  0  0  0  0  0  0  0
    7.6905  -17.4111   21.6125 C   0  0  0  0  0  0  0  0  0  0  0  0
    6.6445  -18.2353   21.4512 N   0  0  0  0  0  0  0  0  0  0  0  0
    7.1480  -19.4200   21.0892 C   0  0  0  0  0  0  0  0  0  0  0  0
    8.4847  -19.3639   21.0179 N   0  0  0  0  0  0  0  0  0  0  0  0
   11.7005  -15.6837   21.9064 C   0  0  0  0  0  0  0  0  0  0  0  0
   12.3837  -16.1849   22.9788 O   0  0  0  0  0  0  0  0  0  0  0  0
   12.2455  -14.8304   21.1699 O   0  0  0  0  0  0  0  0  0  0  0  0
  2  4  1  0
  2  1  1  6
  3  2  1  0
  4  5  1  6
  6  4  1  0
  7  6  2  0
  9  8  1  1
  9 11  1  0
  9 10  1  0
 10  6  1  0
 11 13  1  0
 12 11  2  0
 13 14  1  0
 14 21  1  0
 14 15  1  6
 16 15  1  0
 17 16  2  0
 18 17  1  0
 19 18  1  0
 19 20  2  0
 20 16  1  0
 21 22  1  0
 23 21  2  0
M  END
$$$$
