TAH.pdb
     RDKit          3D

 23 23  0  0  1  0  0  0  0  0999 V2000
    7.6117  -12.8759   21.6100 C   0  0  0  0  0  0  0  0  0  0  0  0
    7.3951  -14.2992   22.1056 C   0  0  1  0  0  0  0  0  0  0  0  0
    6.5168  -14.3460   23.1683 O   0  0  0  0  0  0  0  0  0  0  0  0
    6.9074  -15.1524   20.9379 C   0  0  2  0  0  0  0  0  0  0  0  0
    6.2972  -16.3795   21.4198 N   0  0  0  0  0  0  0  0  0  0  0  0
    8.0640  -15.4190   20.0582 C   0  0  0  0  0  0  0  0  0  0  0  0
    8.8658  -16.3653   20.2425 O   0  0  0  0  0  0  0  0  0  0  0  0
    9.3207  -13.8392   16.8590 C   0  0  0  0  0  0  0  0  0  0  0  0
    9.3988  -14.7527   18.0687 C   0  0  2  0  0  0  0  0  0  0  0  0
    8.2640  -14.5477   18.9491 N   0  0  0  0  0  0  0  0  0  0  0  0
   10.6273  -14.4316   18.8817 C   0  0  0  0  0  0  0  0  0  0  0  0
   10.5391  -14.0344   20.0864 O   0  0  0  0  0  0  0  0  0  0  0  0
   11.9235  -14.5576   18.3431 N   0  0  0  0  0  0  0  0  0  0  0  0
   13.0484  -14.8561   19.2447 C   0  0  1  0  0  0  0  0  0  0  0  0
   12.8596  -16.2140   19.8741 C   0  0  0  0  0  0  0  0  0  0  0  0
   12.1222  -16.1275   21.1537 C   0  0  0  0  0  0  0  0  0  0  0  0
   11.7808  -15.0150   21.8907 C   0  0  0  0  0  0  0  0  0  0  0  0
   11.1266  -15.4008   22.9964 N   0  0  0  0  0  0  0  0  0  0  0  0
   11.0604  -16.7356   22.9510 C   0  0  0  0  0  0  0  0  0  0  0  0
   11.6560  -17.2013   21.8450 N   0  0  0  0  0  0  0  0  0  0  0  0
   14.2767  -14.7831   18.4408 C   0  0  0  0  0  0  0  0  0  0  0  0
   14.4796  -15.6306   17.3880 O   0  0  0  0  0  0  0  0  0  0  0  0
   15.1489  -13.9314   18.7260 O   0  0  0  0  0  0  0  0  0  0  0  0
  2  4  1  0
  2  1  1  6
  3  2  1  0
  4  5  1  1
  6  4  1  0
  7  6  2  0
  9  8  1  6
  9 11  1  0
  9 10  1  0
 10  6  1  0
 11 13  1  0
 12 11  2  0
 13 14  1  0
 14 21  1  0
 14 15  1  6
 16 15  1  0
 17 16  2  0
 18 17  1  0
 19 18  1  0
 19 20  2  0
 20 16  1  0
 21 22  1  0
 23 21  2  0
M  END
$$$$
