TAH.pdb
     RDKit          3D

 23 23  0  0  1  0  0  0  0  0999 V2000
   11.8850  -18.3576   19.7840 C   0  0  0  0  0  0  0  0  0  0  0  0
   10.3861  -18.5916   19.6553 C   0  0  1  0  0  0  0  0  0  0  0  0
   10.1035  -19.8089   19.0711 O   0  0  0  0  0  0  0  0  0  0  0  0
    9.7544  -18.4747   21.0398 C   0  0  2  0  0  0  0  0  0  0  0  0
    8.4250  -19.0602   21.0475 N   0  0  0  0  0  0  0  0  0  0  0  0
    9.7301  -17.0438   21.4068 C   0  0  0  0  0  0  0  0  0  0  0  0
   10.7663  -16.3557   21.5652 O   0  0  0  0  0  0  0  0  0  0  0  0
    6.9991  -14.4734   21.4062 C   0  0  0  0  0  0  0  0  0  0  0  0
    8.3718  -14.9961   21.7883 C   0  0  2  0  0  0  0  0  0  0  0  0
    8.4571  -16.4302   21.5858 N   0  0  0  0  0  0  0  0  0  0  0  0
    8.6254  -14.7612   23.2560 C   0  0  0  0  0  0  0  0  0  0  0  0
    8.4674  -13.6135   23.7800 O   0  0  0  0  0  0  0  0  0  0  0  0
    9.0473  -15.8009   24.1086 N   0  0  0  0  0  0  0  0  0  0  0  0
    9.0252  -15.5871   25.5651 C   0  0  1  0  0  0  0  0  0  0  0  0
    7.6059  -15.3901   26.0367 C   0  0  0  0  0  0  0  0  0  0  0  0
    7.2893  -13.9593   26.2404 C   0  0  0  0  0  0  0  0  0  0  0  0
    8.1219  -12.8638   26.1774 C   0  0  0  0  0  0  0  0  0  0  0  0
    7.4155  -11.7555   26.4460 N   0  0  0  0  0  0  0  0  0  0  0  0
    6.1593  -12.1531   26.6740 C   0  0  0  0  0  0  0  0  0  0  0  0
    6.0554  -13.4835   26.5558 N   0  0  0  0  0  0  0  0  0  0  0  0
    9.6574  -16.7611   26.1832 C   0  0  0  0  0  0  0  0  0  0  0  0
    9.4810  -18.0116   25.6606 O   0  0  0  0  0  0  0  0  0  0  0  0
   10.3675  -16.6118   27.2035 O   0  0  0  0  0  0  0  0  0  0  0  0
  2  4  1  0
  2  1  1  1
  3  2  1  0
  4  5  1  6
  6  4  1  0
  7  6  2  0
  9  8  1  1
  9 11  1  0
  9 10  1  0
 10  6  1  0
 11 13  1  0
 12 11  2  0
 13 14  1  0
 14 21  1  0
 14 15  1  1
 16 15  1  0
 17 16  2  0
 18 17  1  0
 19 18  1  0
 19 20  2  0
 20 16  1  0
 21 22  1  0
 23 21  2  0
M  END
$$$$
