TAH.pdb
     RDKit          3D

 23 23  0  0  1  0  0  0  0  0999 V2000
   10.1457  -13.9863   18.1057 C   0  0  0  0  0  0  0  0  0  0  0  0
    9.5867  -14.3294   19.4797 C   0  0  1  0  0  0  0  0  0  0  0  0
   10.0931  -13.5040   20.4621 O   0  0  0  0  0  0  0  0  0  0  0  0
    8.0635  -14.2570   19.4176 C   0  0  2  0  0  0  0  0  0  0  0  0
    7.6272  -12.9083   19.0998 N   0  0  0  0  0  0  0  0  0  0  0  0
    7.5351  -14.7164   20.7185 C   0  0  0  0  0  0  0  0  0  0  0  0
    7.1626  -13.9347   21.6254 O   0  0  0  0  0  0  0  0  0  0  0  0
    6.5574  -18.1103   22.0476 C   0  0  0  0  0  0  0  0  0  0  0  0
    6.8486  -16.6248   22.1574 C   0  0  2  0  0  0  0  0  0  0  0  0
    7.4513  -16.1215   20.9374 N   0  0  0  0  0  0  0  0  0  0  0  0
    7.8486  -16.3730   23.2574 C   0  0  0  0  0  0  0  0  0  0  0  0
    9.0640  -16.1032   22.9985 O   0  0  0  0  0  0  0  0  0  0  0  0
    7.4807  -16.4254   24.6168 N   0  0  0  0  0  0  0  0  0  0  0  0
    8.4849  -16.1036   25.6441 C   0  0  1  0  0  0  0  0  0  0  0  0
    7.8383  -15.3516   26.7808 C   0  0  0  0  0  0  0  0  0  0  0  0
    7.3108  -14.0411   26.3415 C   0  0  0  0  0  0  0  0  0  0  0  0
    7.9913  -12.9394   25.8718 C   0  0  0  0  0  0  0  0  0  0  0  0
    7.1152  -11.9595   25.6041 N   0  0  0  0  0  0  0  0  0  0  0  0
    5.9044  -12.4421   25.9026 C   0  0  0  0  0  0  0  0  0  0  0  0
    5.9944  -13.7011   26.3515 N   0  0  0  0  0  0  0  0  0  0  0  0
    9.0745  -17.3758   26.0847 C   0  0  0  0  0  0  0  0  0  0  0  0
   10.1100  -17.3995   26.9764 O   0  0  0  0  0  0  0  0  0  0  0  0
    8.6204  -18.4526   25.6356 O   0  0  0  0  0  0  0  0  0  0  0  0
  2  4  1  0
  2  1  1  6
  3  2  1  0
  4  5  1  1
  6  4  1  0
  7  6  2  0
  9  8  1  6
  9 11  1  0
  9 10  1  0
 10  6  1  0
 11 13  1  0
 12 11  2  0
 13 14  1  0
 14 21  1  0
 14 15  1  1
 16 15  1  0
 17 16  2  0
 18 17  1  0
 19 18  1  0
 19 20  2  0
 20 16  1  0
 21 22  1  0
 23 21  2  0
M  END
$$$$
