TAH.pdb
     RDKit          3D

 23 23  0  0  1  0  0  0  0  0999 V2000
    6.4311  -17.5616   15.6027 C   0  0  0  0  0  0  0  0  0  0  0  0
    7.2850  -17.0164   16.7392 C   0  0  1  0  0  0  0  0  0  0  0  0
    8.0363  -18.0058   17.3388 O   0  0  0  0  0  0  0  0  0  0  0  0
    8.1668  -15.8974   16.1921 C   0  0  2  0  0  0  0  0  0  0  0  0
    9.0766  -16.4095   15.1820 N   0  0  0  0  0  0  0  0  0  0  0  0
    8.8888  -15.2926   17.3304 C   0  0  0  0  0  0  0  0  0  0  0  0
   10.0543  -15.6190   17.6585 O   0  0  0  0  0  0  0  0  0  0  0  0
    8.0646  -12.4925   19.7366 C   0  0  0  0  0  0  0  0  0  0  0  0
    8.8877  -13.6467   19.1944 C   0  0  2  0  0  0  0  0  0  0  0  0
    8.2127  -14.2897   18.0827 N   0  0  0  0  0  0  0  0  0  0  0  0
    9.0570  -14.7051   20.2548 C   0  0  0  0  0  0  0  0  0  0  0  0
    8.0975  -15.4717   20.5845 O   0  0  0  0  0  0  0  0  0  0  0  0
   10.2828  -14.8904   20.9249 N   0  0  0  0  0  0  0  0  0  0  0  0
   10.4036  -15.9770   21.9109 C   0  0  1  0  0  0  0  0  0  0  0  0
   10.4764  -17.3086   21.2057 C   0  0  0  0  0  0  0  0  0  0  0  0
    9.1312  -17.8721   20.9578 C   0  0  0  0  0  0  0  0  0  0  0  0
    8.0290  -17.8953   21.7837 C   0  0  0  0  0  0  0  0  0  0  0  0
    7.0215  -18.5232   21.1590 N   0  0  0  0  0  0  0  0  0  0  0  0
    7.4878  -18.8874   19.9598 C   0  0  0  0  0  0  0  0  0  0  0  0
    8.7633  -18.5052   19.8123 N   0  0  0  0  0  0  0  0  0  0  0  0
   11.6081  -15.7046   22.7078 C   0  0  0  0  0  0  0  0  0  0  0  0
   11.5171  -15.3898   24.0347 O   0  0  0  0  0  0  0  0  0  0  0  0
   12.7332  -15.7621   22.1617 O   0  0  0  0  0  0  0  0  0  0  0  0
  2  4  1  0
  2  1  1  6
  3  2  1  0
  4  5  1  6
  6  4  1  0
  7  6  2  0
  9  8  1  1
  9 11  1  0
  9 10  1  0
 10  6  1  0
 11 13  1  0
 12 11  2  0
 13 14  1  0
 14 21  1  0
 14 15  1  6
 16 15  1  0
 17 16  2  0
 18 17  1  0
 19 18  1  0
 19 20  2  0
 20 16  1  0
 21 22  1  0
 23 21  2  0
M  END
$$$$
