TAH.pdb
     RDKit          3D

 23 23  0  0  1  0  0  0  0  0999 V2000
   10.4748  -18.5378   16.7466 C   0  0  0  0  0  0  0  0  0  0  0  0
    9.8041  -19.7362   16.0891 C   0  0  1  0  0  0  0  0  0  0  0  0
    8.4744  -19.4944   15.8131 O   0  0  0  0  0  0  0  0  0  0  0  0
   10.5816  -20.0973   14.8264 C   0  0  2  0  0  0  0  0  0  0  0  0
    9.8493  -21.0703   14.0345 N   0  0  0  0  0  0  0  0  0  0  0  0
   11.9057  -20.6056   15.2401 C   0  0  0  0  0  0  0  0  0  0  0  0
   12.0581  -21.5776   16.0175 O   0  0  0  0  0  0  0  0  0  0  0  0
   15.4514  -19.7766   14.2465 C   0  0  0  0  0  0  0  0  0  0  0  0
   14.3792  -20.3697   15.1423 C   0  0  2  0  0  0  0  0  0  0  0  0
   13.0570  -19.9470   14.7206 N   0  0  0  0  0  0  0  0  0  0  0  0
   14.5511  -19.8718   16.5551 C   0  0  0  0  0  0  0  0  0  0  0  0
   14.1342  -18.7235   16.9079 O   0  0  0  0  0  0  0  0  0  0  0  0
   15.1796  -20.6555   17.5434 N   0  0  0  0  0  0  0  0  0  0  0  0
   15.3469  -20.1025   18.8975 C   0  0  1  0  0  0  0  0  0  0  0  0
   14.6736  -20.9977   19.9080 C   0  0  0  0  0  0  0  0  0  0  0  0
   13.2147  -20.7596   19.9655 C   0  0  0  0  0  0  0  0  0  0  0  0
   12.5268  -19.5677   20.0267 C   0  0  0  0  0  0  0  0  0  0  0  0
   11.2102  -19.8194   20.0805 N   0  0  0  0  0  0  0  0  0  0  0  0
   11.0775  -21.1497   20.0535 C   0  0  0  0  0  0  0  0  0  0  0  0
   12.2765  -21.7433   19.9840 N   0  0  0  0  0  0  0  0  0  0  0  0
   16.7917  -19.9818   19.1388 C   0  0  0  0  0  0  0  0  0  0  0  0
   17.2685  -19.4888   20.3210 O   0  0  0  0  0  0  0  0  0  0  0  0
   17.5961  -20.3363   18.2473 O   0  0  0  0  0  0  0  0  0  0  0  0
  2  4  1  0
  2  1  1  6
  3  2  1  0
  4  5  1  1
  6  4  1  0
  7  6  2  0
  9  8  1  6
  9 11  1  0
  9 10  1  0
 10  6  1  0
 11 13  1  0
 12 11  2  0
 13 14  1  0
 14 21  1  0
 14 15  1  1
 16 15  1  0
 17 16  2  0
 18 17  1  0
 19 18  1  0
 19 20  2  0
 20 16  1  0
 21 22  1  0
 23 21  2  0
M  END
$$$$
