TAH.pdb
     RDKit          3D

 23 23  0  0  1  0  0  0  0  0999 V2000
    6.9339  -17.0327   14.6542 C   0  0  0  0  0  0  0  0  0  0  0  0
    7.6337  -16.5938   15.9332 C   0  0  1  0  0  0  0  0  0  0  0  0
    8.6126  -17.4868   16.3167 O   0  0  0  0  0  0  0  0  0  0  0  0
    8.2043  -15.1944   15.7203 C   0  0  2  0  0  0  0  0  0  0  0  0
    9.1798  -15.1972   14.6439 N   0  0  0  0  0  0  0  0  0  0  0  0
    8.7937  -14.7467   16.9989 C   0  0  0  0  0  0  0  0  0  0  0  0
   10.0043  -14.8971   17.2893 O   0  0  0  0  0  0  0  0  0  0  0  0
    7.4293  -12.8217   19.9547 C   0  0  0  0  0  0  0  0  0  0  0  0
    8.4648  -13.6336   19.1981 C   0  0  2  0  0  0  0  0  0  0  0  0
    7.9295  -14.1141   17.9381 N   0  0  0  0  0  0  0  0  0  0  0  0
    8.8425  -14.8591   19.9911 C   0  0  0  0  0  0  0  0  0  0  0  0
    8.1619  -15.9307   19.9184 O   0  0  0  0  0  0  0  0  0  0  0  0
    9.9634  -14.8700   20.8452 N   0  0  0  0  0  0  0  0  0  0  0  0
   10.1973  -16.0413   21.7059 C   0  0  1  0  0  0  0  0  0  0  0  0
   11.6515  -16.4390   21.6531 C   0  0  0  0  0  0  0  0  0  0  0  0
   11.9575  -17.2396   20.4472 C   0  0  0  0  0  0  0  0  0  0  0  0
   11.0989  -17.7599   19.5041 C   0  0  0  0  0  0  0  0  0  0  0  0
   11.8069  -18.4348   18.5861 N   0  0  0  0  0  0  0  0  0  0  0  0
   13.0897  -18.3378   18.9507 C   0  0  0  0  0  0  0  0  0  0  0  0
   13.2088  -17.6189   20.0749 N   0  0  0  0  0  0  0  0  0  0  0  0
    9.7723  -15.6710   23.0633 C   0  0  0  0  0  0  0  0  0  0  0  0
    9.3029  -14.4165   23.3356 O   0  0  0  0  0  0  0  0  0  0  0  0
    9.8419  -16.5182   23.9825 O   0  0  0  0  0  0  0  0  0  0  0  0
  2  4  1  0
  2  1  1  6
  3  2  1  0
  4  5  1  6
  6  4  1  0
  7  6  2  0
  9  8  1  1
  9 11  1  0
  9 10  1  0
 10  6  1  0
 11 13  1  0
 12 11  2  0
 13 14  1  0
 14 21  1  0
 14 15  1  1
 16 15  1  0
 17 16  2  0
 18 17  1  0
 19 18  1  0
 19 20  2  0
 20 16  1  0
 21 22  1  0
 23 21  2  0
M  END
$$$$
