TAH.pdb
     RDKit          3D

 23 23  0  0  1  0  0  0  0  0999 V2000
    9.8783  -18.8706   17.3476 C   0  0  0  0  0  0  0  0  0  0  0  0
    8.8701  -17.8975   16.7519 C   0  0  1  0  0  0  0  0  0  0  0  0
    8.2740  -18.4050   15.6162 O   0  0  0  0  0  0  0  0  0  0  0  0
    7.8366  -17.5523   17.8206 C   0  0  2  0  0  0  0  0  0  0  0  0
    6.6578  -16.9535   17.2187 N   0  0  0  0  0  0  0  0  0  0  0  0
    8.4790  -16.6477   18.7961 C   0  0  0  0  0  0  0  0  0  0  0  0
    9.6855  -16.7357   19.1262 O   0  0  0  0  0  0  0  0  0  0  0  0
    7.2446  -13.6826   20.8005 C   0  0  0  0  0  0  0  0  0  0  0  0
    8.2467  -14.7398   20.3739 C   0  0  2  0  0  0  0  0  0  0  0  0
    7.6731  -15.6295   19.3818 N   0  0  0  0  0  0  0  0  0  0  0  0
    8.6198  -15.6047   21.5512 C   0  0  0  0  0  0  0  0  0  0  0  0
    7.9084  -16.6020   21.8922 O   0  0  0  0  0  0  0  0  0  0  0  0
    9.7703  -15.3461   22.3228 N   0  0  0  0  0  0  0  0  0  0  0  0
   10.0920  -16.2362   23.4505 C   0  0  1  0  0  0  0  0  0  0  0  0
   11.5801  -16.4764   23.5108 C   0  0  0  0  0  0  0  0  0  0  0  0
   12.0425  -17.3345   22.3980 C   0  0  0  0  0  0  0  0  0  0  0  0
   11.3037  -18.0774   21.5037 C   0  0  0  0  0  0  0  0  0  0  0  0
   12.1350  -18.7189   20.6688 N   0  0  0  0  0  0  0  0  0  0  0  0
   13.3756  -18.3819   21.0366 C   0  0  0  0  0  0  0  0  0  0  0  0
   13.3481  -17.5442   22.0817 N   0  0  0  0  0  0  0  0  0  0  0  0
    9.5845  -15.5895   24.6690 C   0  0  0  0  0  0  0  0  0  0  0  0
    9.6168  -16.2350   25.8733 O   0  0  0  0  0  0  0  0  0  0  0  0
    9.1161  -14.4304   24.6009 O   0  0  0  0  0  0  0  0  0  0  0  0
  2  4  1  0
  2  1  1  1
  3  2  1  0
  4  5  1  6
  6  4  1  0
  7  6  2  0
  9  8  1  1
  9 11  1  0
  9 10  1  0
 10  6  1  0
 11 13  1  0
 12 11  2  0
 13 14  1  0
 14 21  1  0
 14 15  1  1
 16 15  1  0
 17 16  2  0
 18 17  1  0
 19 18  1  0
 19 20  2  0
 20 16  1  0
 21 22  1  0
 23 21  2  0
M  END
$$$$
