TWV.pdb
     RDKit          3D

 29 30  0  0  1  0  0  0  0  0999 V2000
   11.7343  -20.9314   20.9238 C   0  0  0  0  0  0  0  0  0  0  0  0
   11.5229  -19.7534   21.8432 C   0  0  1  0  0  0  0  0  0  0  0  0
   12.8103  -19.2941   22.2063 O   0  0  0  0  0  0  0  0  0  0  0  0
   10.8327  -18.5873   21.1456 C   0  0  2  0  0  0  0  0  0  0  0  0
   11.8223  -18.1481   20.1332 N   0  0  0  0  0  0  0  0  0  0  0  0
   10.5895  -17.4846   22.1025 C   0  0  0  0  0  0  0  0  0  0  0  0
   11.4704  -16.5890   22.3071 O   0  0  0  0  0  0  0  0  0  0  0  0
    9.4033  -17.3473   22.8331 N   0  0  0  0  0  0  0  0  0  0  0  0
    9.1650  -16.2540   23.7667 C   0  0  1  0  0  0  0  0  0  0  0  0
    7.6878  -15.9262   23.6877 C   0  0  0  0  0  0  0  0  0  0  0  0
    7.5704  -14.4513   23.8647 C   0  0  0  0  0  0  0  0  0  0  0  0
    8.0758  -13.4502   23.0657 C   0  0  0  0  0  0  0  0  0  0  0  0
    7.7414  -12.2678   23.5856 N   0  0  0  0  0  0  0  0  0  0  0  0
    7.0246  -12.4257   24.7129 C   0  0  0  0  0  0  0  0  0  0  0  0
    6.4318  -11.5935   25.6407 C   0  0  0  0  0  0  0  0  0  0  0  0
    5.7381  -12.0729   26.7329 C   0  0  0  0  0  0  0  0  0  0  0  0
    5.6347  -13.4276   26.9017 C   0  0  0  0  0  0  0  0  0  0  0  0
    6.2169  -14.2859   25.9907 C   0  0  0  0  0  0  0  0  0  0  0  0
    6.9093  -13.7879   24.9004 C   0  0  0  0  0  0  0  0  0  0  0  0
    9.6153  -16.5624   25.1232 C   0  0  0  0  0  0  0  0  0  0  0  0
    9.6888  -17.7625   25.4887 O   0  0  0  0  0  0  0  0  0  0  0  0
   10.6755  -14.7914   29.5827 C   0  0  0  0  0  0  0  0  0  0  0  0
   10.0396  -14.6123   28.2014 C   0  0  1  0  0  0  0  0  0  0  0  0
   10.3279  -13.2701   27.6153 C   0  0  0  0  0  0  0  0  0  0  0  0
   10.5549  -15.7539   27.3198 C   0  0  2  0  0  0  0  0  0  0  0  0
    9.9640  -15.5427   26.0156 N   0  0  0  0  0  0  0  0  0  0  0  0
   10.0302  -17.0066   27.9184 C   0  0  0  0  0  0  0  0  0  0  0  0
   10.7634  -17.6749   28.6824 O   0  0  0  0  0  0  0  0  0  0  0  0
    8.7504  -17.4691   27.6627 O   0  0  0  0  0  0  0  0  0  0  0  0
  2  1  1  6
  2  3  1  0
  4  2  1  0
  4  5  1  6
  6  4  1  0
  6  7  2  0
  8  6  1  0
  9  8  1  0
  9 10  1  1
 11 10  1  0
 11 19  1  0
 12 13  1  0
 12 11  2  0
 13 14  1  0
 14 19  2  0
 14 15  1  0
 15 16  2  0
 16 17  1  0
 18 17  2  0
 19 18  1  0
 20  9  1  0
 21 20  2  0
 23 22  1  1
 23 24  1  0
 23 25  1  0
 25 27  1  0
 25 26  1  6
 26 20  1  0
 27 29  1  0
 28 27  2  0
M  END
$$$$
