TWV.pdb
     RDKit          3D

 29 30  0  0  1  0  0  0  0  0999 V2000
   12.2395  -18.6320   19.5432 C   0  0  0  0  0  0  0  0  0  0  0  0
   11.8630  -17.9184   20.8186 C   0  0  1  0  0  0  0  0  0  0  0  0
   13.0548  -17.3493   21.3245 O   0  0  0  0  0  0  0  0  0  0  0  0
   10.9039  -16.7592   20.5755 C   0  0  2  0  0  0  0  0  0  0  0  0
   11.7264  -15.7716   19.8372 N   0  0  0  0  0  0  0  0  0  0  0  0
   10.4702  -16.1701   21.8622 C   0  0  0  0  0  0  0  0  0  0  0  0
   11.0101  -15.1088   22.3116 O   0  0  0  0  0  0  0  0  0  0  0  0
    9.4594  -16.7209   22.6590 N   0  0  0  0  0  0  0  0  0  0  0  0
    9.0053  -16.1125   23.9028 C   0  0  1  0  0  0  0  0  0  0  0  0
    7.6639  -16.7365   24.2301 C   0  0  0  0  0  0  0  0  0  0  0  0
    6.8460  -15.6705   24.8744 C   0  0  0  0  0  0  0  0  0  0  0  0
    5.5807  -15.7677   25.4093 C   0  0  0  0  0  0  0  0  0  0  0  0
    5.2168  -14.5756   25.8855 N   0  0  0  0  0  0  0  0  0  0  0  0
    6.1896  -13.6662   25.6947 C   0  0  0  0  0  0  0  0  0  0  0  0
    6.3673  -12.3256   25.9701 C   0  0  0  0  0  0  0  0  0  0  0  0
    7.5211  -11.6454   25.6386 C   0  0  0  0  0  0  0  0  0  0  0  0
    8.5286  -12.3286   25.0118 C   0  0  0  0  0  0  0  0  0  0  0  0
    8.3807  -13.6703   24.7229 C   0  0  0  0  0  0  0  0  0  0  0  0
    7.2163  -14.3373   25.0625 C   0  0  0  0  0  0  0  0  0  0  0  0
    9.9811  -16.2434   24.9839 C   0  0  0  0  0  0  0  0  0  0  0  0
   10.9270  -17.0618   24.8626 O   0  0  0  0  0  0  0  0  0  0  0  0
   11.0263  -14.8120   29.6151 C   0  0  0  0  0  0  0  0  0  0  0  0
   10.1631  -14.6557   28.3602 C   0  0  1  0  0  0  0  0  0  0  0  0
   10.0891  -13.2387   27.8969 C   0  0  0  0  0  0  0  0  0  0  0  0
   10.7504  -15.5855   27.2941 C   0  0  2  0  0  0  0  0  0  0  0  0
    9.8754  -15.4724   26.1467 N   0  0  0  0  0  0  0  0  0  0  0  0
   10.6759  -16.9570   27.8564 C   0  0  0  0  0  0  0  0  0  0  0  0
    9.5988  -17.5915   27.7841 O   0  0  0  0  0  0  0  0  0  0  0  0
   11.7604  -17.5676   28.4633 O   0  0  0  0  0  0  0  0  0  0  0  0
  2  1  1  6
  2  3  1  0
  4  2  1  0
  4  5  1  6
  6  4  1  0
  6  7  2  0
  8  6  1  0
  9  8  1  0
  9 10  1  1
 11 10  1  0
 11 19  1  0
 12 13  1  0
 12 11  2  0
 13 14  1  0
 14 19  2  0
 14 15  1  0
 15 16  2  0
 16 17  1  0
 18 17  2  0
 19 18  1  0
 20  9  1  0
 21 20  2  0
 23 22  1  1
 23 24  1  0
 23 25  1  0
 25 27  1  0
 25 26  1  6
 26 20  1  0
 27 29  1  0
 28 27  2  0
M  END
$$$$
