TWV.pdb
     RDKit          3D

 29 30  0  0  1  0  0  0  0  0999 V2000
    7.9207  -15.0342   16.5813 C   0  0  0  0  0  0  0  0  0  0  0  0
    8.2898  -15.0912   18.0435 C   0  0  1  0  0  0  0  0  0  0  0  0
    9.6819  -14.8519   18.1137 O   0  0  0  0  0  0  0  0  0  0  0  0
    7.6236  -13.9868   18.8555 C   0  0  2  0  0  0  0  0  0  0  0  0
    8.1847  -12.7410   18.2808 N   0  0  0  0  0  0  0  0  0  0  0  0
    8.0131  -14.0871   20.2799 C   0  0  0  0  0  0  0  0  0  0  0  0
    9.0801  -13.5404   20.7071 O   0  0  0  0  0  0  0  0  0  0  0  0
    7.2561  -14.7715   21.2383 N   0  0  0  0  0  0  0  0  0  0  0  0
    7.6852  -14.9389   22.6208 C   0  0  1  0  0  0  0  0  0  0  0  0
    6.4324  -14.9170   23.4728 C   0  0  0  0  0  0  0  0  0  0  0  0
    6.8846  -14.8351   24.8903 C   0  0  0  0  0  0  0  0  0  0  0  0
    7.2599  -15.8600   25.7299 C   0  0  0  0  0  0  0  0  0  0  0  0
    7.5941  -15.3502   26.9167 N   0  0  0  0  0  0  0  0  0  0  0  0
    7.4601  -14.0116   26.9179 C   0  0  0  0  0  0  0  0  0  0  0  0
    7.6533  -12.9924   27.8282 C   0  0  0  0  0  0  0  0  0  0  0  0
    7.4206  -11.6675   27.5209 C   0  0  0  0  0  0  0  0  0  0  0  0
    6.9809  -11.3530   26.2631 C   0  0  0  0  0  0  0  0  0  0  0  0
    6.7782  -12.3503   25.3303 C   0  0  0  0  0  0  0  0  0  0  0  0
    7.0165  -13.6745   25.6555 C   0  0  0  0  0  0  0  0  0  0  0  0
    8.4957  -16.1399   22.8184 C   0  0  0  0  0  0  0  0  0  0  0  0
    8.0544  -17.2503   22.4291 O   0  0  0  0  0  0  0  0  0  0  0  0
   11.7288  -16.7048   21.5037 C   0  0  0  0  0  0  0  0  0  0  0  0
   11.9674  -16.8167   23.0120 C   0  0  1  0  0  0  0  0  0  0  0  0
   12.5321  -15.5619   23.5904 C   0  0  0  0  0  0  0  0  0  0  0  0
   10.6283  -17.1990   23.6499 C   0  0  2  0  0  0  0  0  0  0  0  0
    9.7509  -16.0687   23.4326 N   0  0  0  0  0  0  0  0  0  0  0  0
   10.8946  -17.3637   25.1007 C   0  0  0  0  0  0  0  0  0  0  0  0
   10.5038  -16.4823   25.8996 O   0  0  0  0  0  0  0  0  0  0  0  0
   11.5643  -18.4636   25.6097 O   0  0  0  0  0  0  0  0  0  0  0  0
  2  1  1  6
  2  3  1  0
  4  2  1  0
  4  5  1  6
  6  4  1  0
  6  7  2  0
  8  6  1  0
  9  8  1  0
  9 10  1  1
 11 10  1  0
 11 19  1  0
 12 13  1  0
 12 11  2  0
 13 14  1  0
 14 19  2  0
 14 15  1  0
 15 16  2  0
 16 17  1  0
 18 17  2  0
 19 18  1  0
 20  9  1  0
 21 20  2  0
 23 22  1  6
 23 24  1  0
 23 25  1  0
 25 27  1  0
 25 26  1  1
 26 20  1  0
 27 29  1  0
 28 27  2  0
M  END
$$$$
