TWV.pdb
     RDKit          3D

 29 30  0  0  1  0  0  0  0  0999 V2000
   12.1541  -18.1321   21.4996 C   0  0  0  0  0  0  0  0  0  0  0  0
   12.0324  -16.8087   20.7846 C   0  0  1  0  0  0  0  0  0  0  0  0
   12.2589  -17.0729   19.4138 O   0  0  0  0  0  0  0  0  0  0  0  0
   10.6294  -16.2215   20.8818 C   0  0  2  0  0  0  0  0  0  0  0  0
   10.6718  -15.0566   19.9661 N   0  0  0  0  0  0  0  0  0  0  0  0
   10.3613  -15.7511   22.2594 C   0  0  0  0  0  0  0  0  0  0  0  0
   10.8166  -14.6362   22.6710 O   0  0  0  0  0  0  0  0  0  0  0  0
    9.6055  -16.4778   23.1872 N   0  0  0  0  0  0  0  0  0  0  0  0
    9.2829  -15.9779   24.5174 C   0  0  1  0  0  0  0  0  0  0  0  0
    7.8349  -16.3386   24.7804 C   0  0  0  0  0  0  0  0  0  0  0  0
    7.0191  -15.1775   24.3258 C   0  0  0  0  0  0  0  0  0  0  0  0
    6.2901  -15.0455   23.1650 C   0  0  0  0  0  0  0  0  0  0  0  0
    5.7083  -13.8448   23.1507 N   0  0  0  0  0  0  0  0  0  0  0  0
    6.0143  -13.1509   24.2618 C   0  0  0  0  0  0  0  0  0  0  0  0
    5.7122  -11.9049   24.7724 C   0  0  0  0  0  0  0  0  0  0  0  0
    6.1965  -11.4616   25.9859 C   0  0  0  0  0  0  0  0  0  0  0  0
    7.0089  -12.2916   26.7110 C   0  0  0  0  0  0  0  0  0  0  0  0
    7.3294  -13.5440   26.2269 C   0  0  0  0  0  0  0  0  0  0  0  0
    6.8346  -13.9728   25.0073 C   0  0  0  0  0  0  0  0  0  0  0  0
   10.1968  -16.4765   25.5443 C   0  0  0  0  0  0  0  0  0  0  0  0
   10.8614  -17.5196   25.3218 O   0  0  0  0  0  0  0  0  0  0  0  0
   11.5523  -13.8452   28.3216 C   0  0  0  0  0  0  0  0  0  0  0  0
   11.0800  -15.1678   28.9316 C   0  0  1  0  0  0  0  0  0  0  0  0
    9.6918  -15.0778   29.4726 C   0  0  0  0  0  0  0  0  0  0  0  0
   11.2104  -16.2356   27.8412 C   0  0  2  0  0  0  0  0  0  0  0  0
   10.3401  -15.8098   26.7661 N   0  0  0  0  0  0  0  0  0  0  0  0
   10.7028  -17.4970   28.4363 C   0  0  0  0  0  0  0  0  0  0  0  0
    9.5372  -17.8725   28.1751 O   0  0  0  0  0  0  0  0  0  0  0  0
   11.4746  -18.2817   29.2765 O   0  0  0  0  0  0  0  0  0  0  0  0
  2  1  1  1
  2  3  1  0
  4  2  1  0
  4  5  1  6
  6  4  1  0
  6  7  2  0
  8  6  1  0
  9  8  1  0
  9 10  1  1
 11 10  1  0
 11 19  1  0
 12 13  1  0
 12 11  2  0
 13 14  1  0
 14 19  2  0
 14 15  1  0
 15 16  2  0
 16 17  1  0
 18 17  2  0
 19 18  1  0
 20  9  1  0
 21 20  2  0
 23 22  1  6
 23 24  1  0
 23 25  1  0
 25 27  1  0
 25 26  1  6
 26 20  1  0
 27 29  1  0
 28 27  2  0
M  END
$$$$
