TWV.pdb
     RDKit          3D

 29 30  0  0  1  0  0  0  0  0999 V2000
   12.2025  -19.7807   20.4342 C   0  0  0  0  0  0  0  0  0  0  0  0
   11.9098  -18.8676   21.5996 C   0  0  1  0  0  0  0  0  0  0  0  0
   13.1625  -18.4277   22.0868 O   0  0  0  0  0  0  0  0  0  0  0  0
   11.1490  -17.6151   21.1807 C   0  0  2  0  0  0  0  0  0  0  0  0
   12.1291  -16.8676   20.3575 N   0  0  0  0  0  0  0  0  0  0  0  0
   10.7910  -16.8076   22.3685 C   0  0  0  0  0  0  0  0  0  0  0  0
   11.5221  -15.8360   22.7443 O   0  0  0  0  0  0  0  0  0  0  0  0
    9.6509  -17.0453   23.1454 N   0  0  0  0  0  0  0  0  0  0  0  0
    9.2889  -16.2307   24.2981 C   0  0  1  0  0  0  0  0  0  0  0  0
    7.7749  -16.1965   24.3508 C   0  0  0  0  0  0  0  0  0  0  0  0
    7.3721  -14.7904   24.0659 C   0  0  0  0  0  0  0  0  0  0  0  0
    7.3627  -14.1306   22.8572 C   0  0  0  0  0  0  0  0  0  0  0  0
    6.9315  -12.8821   23.0463 N   0  0  0  0  0  0  0  0  0  0  0  0
    6.6457  -12.6652   24.3428 C   0  0  0  0  0  0  0  0  0  0  0  0
    6.1812  -11.6065   25.0964 C   0  0  0  0  0  0  0  0  0  0  0  0
    5.9820  -11.6949   26.4589 C   0  0  0  0  0  0  0  0  0  0  0  0
    6.2565  -12.8802   27.0867 C   0  0  0  0  0  0  0  0  0  0  0  0
    6.7226  -13.9576   26.3601 C   0  0  0  0  0  0  0  0  0  0  0  0
    6.9167  -13.8514   24.9937 C   0  0  0  0  0  0  0  0  0  0  0  0
    9.8981  -16.7071   25.5391 C   0  0  0  0  0  0  0  0  0  0  0  0
   10.0617  -17.9414   25.7094 O   0  0  0  0  0  0  0  0  0  0  0  0
   11.5906  -13.8117   27.8941 C   0  0  0  0  0  0  0  0  0  0  0  0
   10.9055  -14.9440   28.6639 C   0  0  1  0  0  0  0  0  0  0  0  0
    9.5125  -14.5918   29.0683 C   0  0  0  0  0  0  0  0  0  0  0  0
   10.9540  -16.1867   27.7697 C   0  0  2  0  0  0  0  0  0  0  0  0
   10.2996  -15.8100   26.5350 N   0  0  0  0  0  0  0  0  0  0  0  0
   10.1604  -17.2286   28.4679 C   0  0  0  0  0  0  0  0  0  0  0  0
    8.9624  -17.4035   28.1483 O   0  0  0  0  0  0  0  0  0  0  0  0
   10.6978  -18.0218   29.4676 O   0  0  0  0  0  0  0  0  0  0  0  0
  2  1  1  6
  2  3  1  0
  4  2  1  0
  4  5  1  6
  6  4  1  0
  6  7  2  0
  8  6  1  0
  9  8  1  0
  9 10  1  1
 11 10  1  0
 11 19  1  0
 12 13  1  0
 12 11  2  0
 13 14  1  0
 14 19  2  0
 14 15  1  0
 15 16  2  0
 16 17  1  0
 18 17  2  0
 19 18  1  0
 20  9  1  0
 21 20  2  0
 23 22  1  6
 23 24  1  0
 23 25  1  0
 25 27  1  0
 25 26  1  6
 26 20  1  0
 27 29  1  0
 28 27  2  0
M  END
$$$$
