TWV.pdb
     RDKit          3D

 29 30  0  0  1  0  0  0  0  0999 V2000
   10.8486  -15.1672   17.6950 C   0  0  0  0  0  0  0  0  0  0  0  0
   10.6220  -14.9400   19.1697 C   0  0  1  0  0  0  0  0  0  0  0  0
   11.4482  -13.8528   19.5379 O   0  0  0  0  0  0  0  0  0  0  0  0
    9.1915  -14.5156   19.4802 C   0  0  2  0  0  0  0  0  0  0  0  0
    9.0510  -13.2161   18.7812 N   0  0  0  0  0  0  0  0  0  0  0  0
    9.0190  -14.3093   20.9357 C   0  0  0  0  0  0  0  0  0  0  0  0
    9.2071  -13.1658   21.4618 O   0  0  0  0  0  0  0  0  0  0  0  0
    8.6444  -15.3293   21.8184 N   0  0  0  0  0  0  0  0  0  0  0  0
    8.4405  -15.1127   23.2449 C   0  0  1  0  0  0  0  0  0  0  0  0
    7.0847  -15.6971   23.5861 C   0  0  0  0  0  0  0  0  0  0  0  0
    6.6638  -15.0705   24.8709 C   0  0  0  0  0  0  0  0  0  0  0  0
    6.1582  -15.6819   25.9965 C   0  0  0  0  0  0  0  0  0  0  0  0
    5.9108  -14.7534   26.9222 N   0  0  0  0  0  0  0  0  0  0  0  0
    6.2298  -13.5278   26.4685 C   0  0  0  0  0  0  0  0  0  0  0  0
    6.1899  -12.2407   26.9650 C   0  0  0  0  0  0  0  0  0  0  0  0
    6.6016  -11.1476   26.2304 C   0  0  0  0  0  0  0  0  0  0  0  0
    7.0678  -11.3493   24.9590 C   0  0  0  0  0  0  0  0  0  0  0  0
    7.1199  -12.6250   24.4342 C   0  0  0  0  0  0  0  0  0  0  0  0
    6.7028  -13.7105   25.1851 C   0  0  0  0  0  0  0  0  0  0  0  0
    9.5251  -15.6593   24.0591 C   0  0  0  0  0  0  0  0  0  0  0  0
   10.1680  -16.6541   23.6391 O   0  0  0  0  0  0  0  0  0  0  0  0
   11.0550  -13.2734   26.9451 C   0  0  0  0  0  0  0  0  0  0  0  0
   10.8145  -14.7042   27.4344 C   0  0  1  0  0  0  0  0  0  0  0  0
    9.5350  -14.8360   28.1917 C   0  0  0  0  0  0  0  0  0  0  0  0
   10.8557  -15.6120   26.2013 C   0  0  2  0  0  0  0  0  0  0  0  0
    9.8550  -15.0912   25.2945 N   0  0  0  0  0  0  0  0  0  0  0  0
   10.4616  -16.9637   26.6707 C   0  0  0  0  0  0  0  0  0  0  0  0
    9.2835  -17.3523   26.5006 O   0  0  0  0  0  0  0  0  0  0  0  0
   11.3536  -17.8193   27.2949 O   0  0  0  0  0  0  0  0  0  0  0  0
  2  1  1  6
  2  3  1  0
  4  2  1  0
  4  5  1  6
  6  4  1  0
  6  7  2  0
  8  6  1  0
  9  8  1  0
  9 10  1  1
 11 10  1  0
 11 19  1  0
 12 13  1  0
 12 11  2  0
 13 14  1  0
 14 19  2  0
 14 15  1  0
 15 16  2  0
 16 17  1  0
 18 17  2  0
 19 18  1  0
 20  9  1  0
 21 20  2  0
 23 22  1  6
 23 24  1  0
 23 25  1  0
 25 27  1  0
 25 26  1  6
 26 20  1  0
 27 29  1  0
 28 27  2  0
M  END
$$$$
