TWV.pdb
     RDKit          3D

 29 30  0  0  1  0  0  0  0  0999 V2000
   12.0270  -19.8746   22.7542 C   0  0  0  0  0  0  0  0  0  0  0  0
   12.3968  -18.9653   21.6079 C   0  0  1  0  0  0  0  0  0  0  0  0
   12.7471  -19.8076   20.5271 O   0  0  0  0  0  0  0  0  0  0  0  0
   11.2200  -18.1226   21.1306 C   0  0  2  0  0  0  0  0  0  0  0  0
   11.7561  -17.4090   19.9471 N   0  0  0  0  0  0  0  0  0  0  0  0
   10.8390  -17.1355   22.1656 C   0  0  0  0  0  0  0  0  0  0  0  0
   11.5653  -16.1165   22.3977 O   0  0  0  0  0  0  0  0  0  0  0  0
    9.6810  -17.2456   22.9448 N   0  0  0  0  0  0  0  0  0  0  0  0
    9.3351  -16.2971   23.9955 C   0  0  1  0  0  0  0  0  0  0  0  0
    7.8362  -16.0887   23.9198 C   0  0  0  0  0  0  0  0  0  0  0  0
    7.6171  -14.6187   23.8116 C   0  0  0  0  0  0  0  0  0  0  0  0
    7.9480  -13.7780   22.7723 C   0  0  0  0  0  0  0  0  0  0  0  0
    7.5755  -12.5349   23.0826 N   0  0  0  0  0  0  0  0  0  0  0  0
    7.0012  -12.4964   24.2985 C   0  0  0  0  0  0  0  0  0  0  0  0
    6.4462  -11.5255   25.1073 C   0  0  0  0  0  0  0  0  0  0  0  0
    5.9177  -11.8068   26.3504 C   0  0  0  0  0  0  0  0  0  0  0  0
    5.9457  -13.1003   26.7980 C   0  0  0  0  0  0  0  0  0  0  0  0
    6.4942  -14.0939   26.0122 C   0  0  0  0  0  0  0  0  0  0  0  0
    7.0202  -13.7941   24.7673 C   0  0  0  0  0  0  0  0  0  0  0  0
    9.7912  -16.7275   25.3165 C   0  0  0  0  0  0  0  0  0  0  0  0
    9.7368  -17.9461   25.6188 O   0  0  0  0  0  0  0  0  0  0  0  0
   11.4836  -13.7637   27.6844 C   0  0  0  0  0  0  0  0  0  0  0  0
   10.7713  -14.9176   28.3953 C   0  0  1  0  0  0  0  0  0  0  0  0
    9.3444  -14.6013   28.6984 C   0  0  0  0  0  0  0  0  0  0  0  0
   10.9150  -16.1521   27.4999 C   0  0  2  0  0  0  0  0  0  0  0  0
   10.2853  -15.8039   26.2441 N   0  0  0  0  0  0  0  0  0  0  0  0
   10.1525  -17.2367   28.1670 C   0  0  0  0  0  0  0  0  0  0  0  0
    8.9829  -17.4829   27.7935 O   0  0  0  0  0  0  0  0  0  0  0  0
   10.6885  -17.9934   29.1953 O   0  0  0  0  0  0  0  0  0  0  0  0
  2  1  1  1
  2  3  1  0
  4  2  1  0
  4  5  1  6
  6  4  1  0
  6  7  2  0
  8  6  1  0
  9  8  1  0
  9 10  1  1
 11 10  1  0
 11 19  1  0
 12 13  1  0
 12 11  2  0
 13 14  1  0
 14 19  2  0
 14 15  1  0
 15 16  2  0
 16 17  1  0
 18 17  2  0
 19 18  1  0
 20  9  1  0
 21 20  2  0
 23 22  1  6
 23 24  1  0
 23 25  1  0
 25 27  1  0
 25 26  1  6
 26 20  1  0
 27 29  1  0
 28 27  2  0
M  END
$$$$
