TWV.pdb
     RDKit          3D

 29 30  0  0  1  0  0  0  0  0999 V2000
    8.3755  -16.5754   18.3421 C   0  0  0  0  0  0  0  0  0  0  0  0
    8.6203  -15.1135   18.0585 C   0  0  1  0  0  0  0  0  0  0  0  0
    8.2502  -14.9008   16.7101 O   0  0  0  0  0  0  0  0  0  0  0  0
    7.7317  -14.2014   18.8959 C   0  0  2  0  0  0  0  0  0  0  0  0
    8.0349  -12.8453   18.3798 N   0  0  0  0  0  0  0  0  0  0  0  0
    8.1139  -14.2780   20.3238 C   0  0  0  0  0  0  0  0  0  0  0  0
    9.2177  -13.7943   20.7331 O   0  0  0  0  0  0  0  0  0  0  0  0
    7.3102  -14.8711   21.3047 N   0  0  0  0  0  0  0  0  0  0  0  0
    7.7172  -14.9973   22.6982 C   0  0  1  0  0  0  0  0  0  0  0  0
    6.4482  -14.9904   23.5263 C   0  0  0  0  0  0  0  0  0  0  0  0
    6.8700  -14.8455   24.9481 C   0  0  0  0  0  0  0  0  0  0  0  0
    7.1995  -15.8341   25.8483 C   0  0  0  0  0  0  0  0  0  0  0  0
    7.5197  -15.2712   27.0149 N   0  0  0  0  0  0  0  0  0  0  0  0
    7.4204  -13.9315   26.9436 C   0  0  0  0  0  0  0  0  0  0  0  0
    7.6191  -12.8711   27.8043 C   0  0  0  0  0  0  0  0  0  0  0  0
    7.4279  -11.5588   27.4234 C   0  0  0  0  0  0  0  0  0  0  0  0
    7.0251  -11.2999   26.1407 C   0  0  0  0  0  0  0  0  0  0  0  0
    6.8179  -12.3392   25.2562 C   0  0  0  0  0  0  0  0  0  0  0  0
    7.0145  -13.6501   25.6551 C   0  0  0  0  0  0  0  0  0  0  0  0
    8.5549  -16.1717   22.9372 C   0  0  0  0  0  0  0  0  0  0  0  0
    8.1446  -17.3033   22.5761 O   0  0  0  0  0  0  0  0  0  0  0  0
   13.1255  -17.6806   23.8485 C   0  0  0  0  0  0  0  0  0  0  0  0
   12.1188  -16.5804   23.5018 C   0  0  1  0  0  0  0  0  0  0  0  0
   12.2655  -16.1014   22.0957 C   0  0  0  0  0  0  0  0  0  0  0  0
   10.7230  -17.1468   23.7797 C   0  0  2  0  0  0  0  0  0  0  0  0
    9.8022  -16.0520   23.5599 N   0  0  0  0  0  0  0  0  0  0  0  0
   10.7142  -17.5383   25.2113 C   0  0  0  0  0  0  0  0  0  0  0  0
   10.3558  -16.7035   26.0729 O   0  0  0  0  0  0  0  0  0  0  0  0
   11.0902  -18.8019   25.6350 O   0  0  0  0  0  0  0  0  0  0  0  0
  2  1  1  1
  2  3  1  0
  4  2  1  0
  4  5  1  6
  6  4  1  0
  6  7  2  0
  8  6  1  0
  9  8  1  0
  9 10  1  1
 11 10  1  0
 11 19  1  0
 12 13  1  0
 12 11  2  0
 13 14  1  0
 14 19  2  0
 14 15  1  0
 15 16  2  0
 16 17  1  0
 18 17  2  0
 19 18  1  0
 20  9  1  0
 21 20  2  0
 23 22  1  6
 23 24  1  0
 23 25  1  0
 25 27  1  0
 25 26  1  1
 26 20  1  0
 27 29  1  0
 28 27  2  0
M  END
$$$$
