TWV.pdb
     RDKit          3D

 29 30  0  0  1  0  0  0  0  0999 V2000
    9.0542  -19.9536   20.5766 C   0  0  0  0  0  0  0  0  0  0  0  0
   10.0014  -19.2303   19.6508 C   0  0  1  0  0  0  0  0  0  0  0  0
    9.8855  -19.8595   18.3895 O   0  0  0  0  0  0  0  0  0  0  0  0
    9.6096  -17.7725   19.4401 C   0  0  2  0  0  0  0  0  0  0  0  0
   10.6035  -17.2803   18.4568 N   0  0  0  0  0  0  0  0  0  0  0  0
    9.7524  -17.0124   20.7022 C   0  0  0  0  0  0  0  0  0  0  0  0
   10.8950  -16.8347   21.2338 O   0  0  0  0  0  0  0  0  0  0  0  0
    8.6701  -16.4460   21.3860 N   0  0  0  0  0  0  0  0  0  0  0  0
    8.8177  -15.6873   22.6213 C   0  0  1  0  0  0  0  0  0  0  0  0
    7.6391  -14.7377   22.6942 C   0  0  0  0  0  0  0  0  0  0  0  0
    7.2809  -14.6160   24.1355 C   0  0  0  0  0  0  0  0  0  0  0  0
    6.8156  -15.5927   24.9876 C   0  0  0  0  0  0  0  0  0  0  0  0
    6.6195  -15.0596   26.1949 N   0  0  0  0  0  0  0  0  0  0  0  0
    6.9344  -13.7517   26.1979 C   0  0  0  0  0  0  0  0  0  0  0  0
    6.9318  -12.7291   27.1247 C   0  0  0  0  0  0  0  0  0  0  0  0
    7.3258  -11.4437   26.8142 C   0  0  0  0  0  0  0  0  0  0  0  0
    7.7352  -11.1735   25.5360 C   0  0  0  0  0  0  0  0  0  0  0  0
    7.7489  -12.1753   24.5863 C   0  0  0  0  0  0  0  0  0  0  0  0
    7.3503  -13.4595   24.9150 C   0  0  0  0  0  0  0  0  0  0  0  0
    8.9404  -16.5452   23.7990 C   0  0  0  0  0  0  0  0  0  0  0  0
    8.0411  -17.3889   24.0415 O   0  0  0  0  0  0  0  0  0  0  0  0
   12.6340  -16.3339   25.4048 C   0  0  0  0  0  0  0  0  0  0  0  0
   11.9395  -17.6968   25.3382 C   0  0  1  0  0  0  0  0  0  0  0  0
   12.5310  -18.6808   26.2921 C   0  0  0  0  0  0  0  0  0  0  0  0
   10.4505  -17.4540   25.6032 C   0  0  2  0  0  0  0  0  0  0  0  0
   10.0416  -16.4392   24.6557 N   0  0  0  0  0  0  0  0  0  0  0  0
   10.3587  -16.9239   26.9864 C   0  0  0  0  0  0  0  0  0  0  0  0
   10.3053  -15.6859   27.1662 O   0  0  0  0  0  0  0  0  0  0  0  0
   10.3294  -17.7523   28.0957 O   0  0  0  0  0  0  0  0  0  0  0  0
  2  1  1  1
  2  3  1  0
  4  2  1  0
  4  5  1  6
  6  4  1  0
  6  7  2  0
  8  6  1  0
  9  8  1  0
  9 10  1  1
 11 10  1  0
 11 19  1  0
 12 13  1  0
 12 11  2  0
 13 14  1  0
 14 19  2  0
 14 15  1  0
 15 16  2  0
 16 17  1  0
 18 17  2  0
 19 18  1  0
 20  9  1  0
 21 20  2  0
 23 22  1  1
 23 24  1  0
 23 25  1  0
 25 27  1  0
 25 26  1  6
 26 20  1  0
 27 29  1  0
 28 27  2  0
M  END
$$$$
