TWV.pdb
     RDKit          3D

 29 30  0  0  1  0  0  0  0  0999 V2000
    6.6873  -19.1675   18.5428 C   0  0  0  0  0  0  0  0  0  0  0  0
    7.3419  -18.6483   19.7996 C   0  0  1  0  0  0  0  0  0  0  0  0
    8.3539  -19.5774   20.1359 O   0  0  0  0  0  0  0  0  0  0  0  0
    8.0420  -17.3121   19.5819 C   0  0  2  0  0  0  0  0  0  0  0  0
    9.1428  -17.6408   18.6453 N   0  0  0  0  0  0  0  0  0  0  0  0
    8.6137  -16.8160   20.8539 C   0  0  0  0  0  0  0  0  0  0  0  0
    9.7971  -17.1260   21.2048 O   0  0  0  0  0  0  0  0  0  0  0  0
    7.9143  -15.9894   21.7413 N   0  0  0  0  0  0  0  0  0  0  0  0
    8.4767  -15.5155   22.9993 C   0  0  1  0  0  0  0  0  0  0  0  0
    7.6834  -14.2875   23.3974 C   0  0  0  0  0  0  0  0  0  0  0  0
    8.2287  -13.8368   24.7089 C   0  0  0  0  0  0  0  0  0  0  0  0
    9.5187  -13.9375   25.1799 C   0  0  0  0  0  0  0  0  0  0  0  0
    9.5777  -13.4093   26.4038 N   0  0  0  0  0  0  0  0  0  0  0  0
    8.3722  -12.9507   26.7861 C   0  0  0  0  0  0  0  0  0  0  0  0
    7.8514  -12.3306   27.9037 C   0  0  0  0  0  0  0  0  0  0  0  0
    6.5236  -11.9685   28.0018 C   0  0  0  0  0  0  0  0  0  0  0  0
    5.6910  -12.2356   26.9482 C   0  0  0  0  0  0  0  0  0  0  0  0
    6.1822  -12.8549   25.8165 C   0  0  0  0  0  0  0  0  0  0  0  0
    7.5172  -13.2114   25.7348 C   0  0  0  0  0  0  0  0  0  0  0  0
    8.4964  -16.5492   24.0333 C   0  0  0  0  0  0  0  0  0  0  0  0
    7.4263  -17.1320   24.3405 O   0  0  0  0  0  0  0  0  0  0  0  0
   11.4699  -19.7283   26.2791 C   0  0  0  0  0  0  0  0  0  0  0  0
   11.1779  -18.6692   25.2126 C   0  0  1  0  0  0  0  0  0  0  0  0
   11.1709  -19.2411   23.8339 C   0  0  0  0  0  0  0  0  0  0  0  0
    9.8392  -18.0215   25.5795 C   0  0  2  0  0  0  0  0  0  0  0  0
    9.6865  -16.8962   24.6822 N   0  0  0  0  0  0  0  0  0  0  0  0
    9.9822  -17.5415   26.9766 C   0  0  0  0  0  0  0  0  0  0  0  0
   10.5070  -16.4249   27.1904 O   0  0  0  0  0  0  0  0  0  0  0  0
    9.5544  -18.2868   28.0623 O   0  0  0  0  0  0  0  0  0  0  0  0
  2  1  1  6
  2  3  1  0
  4  2  1  0
  4  5  1  6
  6  4  1  0
  6  7  2  0
  8  6  1  0
  9  8  1  0
  9 10  1  1
 11 10  1  0
 11 19  1  0
 12 13  1  0
 12 11  2  0
 13 14  1  0
 14 19  2  0
 14 15  1  0
 15 16  2  0
 16 17  1  0
 18 17  2  0
 19 18  1  0
 20  9  1  0
 21 20  2  0
 23 22  1  1
 23 24  1  0
 23 25  1  0
 25 27  1  0
 25 26  1  6
 26 20  1  0
 27 29  1  0
 28 27  2  0
M  END
$$$$
