TWV.pdb
     RDKit          3D

 29 30  0  0  1  0  0  0  0  0999 V2000
   11.4470  -18.4569   19.1543 C   0  0  0  0  0  0  0  0  0  0  0  0
   11.2259  -17.7624   20.4758 C   0  0  1  0  0  0  0  0  0  0  0  0
   12.4009  -17.0203   20.7385 O   0  0  0  0  0  0  0  0  0  0  0  0
   10.0852  -16.7532   20.4192 C   0  0  2  0  0  0  0  0  0  0  0  0
   10.5847  -15.7102   19.4920 N   0  0  0  0  0  0  0  0  0  0  0  0
    9.8599  -16.1540   21.7538 C   0  0  0  0  0  0  0  0  0  0  0  0
   10.3944  -15.0436   22.0717 O   0  0  0  0  0  0  0  0  0  0  0  0
    9.0618  -16.7476   22.7390 N   0  0  0  0  0  0  0  0  0  0  0  0
    8.7534  -16.1030   24.0090 C   0  0  1  0  0  0  0  0  0  0  0  0
    7.4369  -16.6829   24.4849 C   0  0  0  0  0  0  0  0  0  0  0  0
    6.6023  -15.5316   24.9302 C   0  0  0  0  0  0  0  0  0  0  0  0
    5.2854  -15.5337   25.3328 C   0  0  0  0  0  0  0  0  0  0  0  0
    4.9247  -14.2885   25.6482 N   0  0  0  0  0  0  0  0  0  0  0  0
    5.9496  -13.4345   25.4750 C   0  0  0  0  0  0  0  0  0  0  0  0
    6.1543  -12.0791   25.6354 C   0  0  0  0  0  0  0  0  0  0  0  0
    7.3639  -11.4730   25.3649 C   0  0  0  0  0  0  0  0  0  0  0  0
    8.4012  -12.2480   24.9200 C   0  0  0  0  0  0  0  0  0  0  0  0
    8.2277  -13.6068   24.7495 C   0  0  0  0  0  0  0  0  0  0  0  0
    7.0071  -14.1986   25.0256 C   0  0  0  0  0  0  0  0  0  0  0  0
    9.8311  -16.2405   24.9876 C   0  0  0  0  0  0  0  0  0  0  0  0
   10.6924  -17.1422   24.8312 O   0  0  0  0  0  0  0  0  0  0  0  0
    9.1461  -14.6543   28.5853 C   0  0  0  0  0  0  0  0  0  0  0  0
   10.5819  -14.3712   28.1353 C   0  0  1  0  0  0  0  0  0  0  0  0
   11.5381  -14.3384   29.2810 C   0  0  0  0  0  0  0  0  0  0  0  0
   10.9475  -15.4432   27.1041 C   0  0  2  0  0  0  0  0  0  0  0  0
    9.9154  -15.3844   26.0912 N   0  0  0  0  0  0  0  0  0  0  0  0
   10.8841  -16.7422   27.8192 C   0  0  0  0  0  0  0  0  0  0  0  0
    9.8084  -17.3830   27.8319 O   0  0  0  0  0  0  0  0  0  0  0  0
   11.9775  -17.2779   28.4786 O   0  0  0  0  0  0  0  0  0  0  0  0
  2  1  1  6
  2  3  1  0
  4  2  1  0
  4  5  1  6
  6  4  1  0
  6  7  2  0
  8  6  1  0
  9  8  1  0
  9 10  1  1
 11 10  1  0
 11 19  1  0
 12 13  1  0
 12 11  2  0
 13 14  1  0
 14 19  2  0
 14 15  1  0
 15 16  2  0
 16 17  1  0
 18 17  2  0
 19 18  1  0
 20  9  1  0
 21 20  2  0
 23 22  1  1
 23 24  1  0
 23 25  1  0
 25 27  1  0
 25 26  1  6
 26 20  1  0
 27 29  1  0
 28 27  2  0
M  END
$$$$
