TWV.pdb
     RDKit          3D

 29 30  0  0  1  0  0  0  0  0999 V2000
   12.5748  -18.7891   22.2427 C   0  0  0  0  0  0  0  0  0  0  0  0
   12.9797  -17.6275   21.3684 C   0  0  1  0  0  0  0  0  0  0  0  0
   13.6176  -18.1837   20.2353 O   0  0  0  0  0  0  0  0  0  0  0  0
   11.7798  -16.8471   20.8449 C   0  0  2  0  0  0  0  0  0  0  0  0
   12.3821  -15.8493   19.9291 N   0  0  0  0  0  0  0  0  0  0  0  0
   11.0979  -16.1437   21.9544 C   0  0  0  0  0  0  0  0  0  0  0  0
   11.6561  -15.1693   22.5532 O   0  0  0  0  0  0  0  0  0  0  0  0
    9.8213  -16.4879   22.4145 N   0  0  0  0  0  0  0  0  0  0  0  0
    9.1934  -15.8560   23.5677 C   0  0  1  0  0  0  0  0  0  0  0  0
    7.6984  -16.0468   23.4103 C   0  0  0  0  0  0  0  0  0  0  0  0
    7.0588  -15.3597   24.5675 C   0  0  0  0  0  0  0  0  0  0  0  0
    6.4812  -15.9215   25.6843 C   0  0  0  0  0  0  0  0  0  0  0  0
    6.0271  -14.9480   26.4757 N   0  0  0  0  0  0  0  0  0  0  0  0
    6.2741  -13.7396   25.9387 C   0  0  0  0  0  0  0  0  0  0  0  0
    6.0420  -12.4262   26.2932 C   0  0  0  0  0  0  0  0  0  0  0  0
    6.4291  -11.3635   25.5028 C   0  0  0  0  0  0  0  0  0  0  0  0
    7.0686  -11.6238   24.3205 C   0  0  0  0  0  0  0  0  0  0  0  0
    7.3152  -12.9272   23.9383 C   0  0  0  0  0  0  0  0  0  0  0  0
    6.9199  -13.9815   24.7434 C   0  0  0  0  0  0  0  0  0  0  0  0
    9.7084  -16.3631   24.8388 C   0  0  0  0  0  0  0  0  0  0  0  0
   10.0021  -17.5807   24.9413 O   0  0  0  0  0  0  0  0  0  0  0  0
   10.9219  -15.1145   29.4797 C   0  0  0  0  0  0  0  0  0  0  0  0
   10.2345  -14.7516   28.1605 C   0  0  1  0  0  0  0  0  0  0  0  0
   10.6684  -13.4203   27.6436 C   0  0  0  0  0  0  0  0  0  0  0  0
   10.5341  -15.8838   27.1733 C   0  0  2  0  0  0  0  0  0  0  0  0
    9.8778  -15.5136   25.9376 N   0  0  0  0  0  0  0  0  0  0  0  0
    9.9025  -17.1021   27.7387 C   0  0  0  0  0  0  0  0  0  0  0  0
    8.6886  -17.3200   27.5221 O   0  0  0  0  0  0  0  0  0  0  0  0
   10.6094  -18.0151   28.5030 O   0  0  0  0  0  0  0  0  0  0  0  0
  2  1  1  1
  2  3  1  0
  4  2  1  0
  4  5  1  6
  6  4  1  0
  6  7  2  0
  8  6  1  0
  9  8  1  0
  9 10  1  1
 11 10  1  0
 11 19  1  0
 12 13  1  0
 12 11  2  0
 13 14  1  0
 14 19  2  0
 14 15  1  0
 15 16  2  0
 16 17  1  0
 18 17  2  0
 19 18  1  0
 20  9  1  0
 21 20  2  0
 23 22  1  1
 23 24  1  0
 23 25  1  0
 25 27  1  0
 25 26  1  6
 26 20  1  0
 27 29  1  0
 28 27  2  0
M  END
$$$$
