TWV.pdb
     RDKit          3D

 29 30  0  0  1  0  0  0  0  0999 V2000
   11.0439  -18.5665   19.5966 C   0  0  0  0  0  0  0  0  0  0  0  0
   10.9330  -17.8227   20.9050 C   0  0  1  0  0  0  0  0  0  0  0  0
   12.0908  -17.0167   21.0057 O   0  0  0  0  0  0  0  0  0  0  0  0
    9.7437  -16.8701   20.9340 C   0  0  2  0  0  0  0  0  0  0  0  0
   10.0899  -15.8452   19.9206 N   0  0  0  0  0  0  0  0  0  0  0  0
    9.6306  -16.2263   22.2619 C   0  0  0  0  0  0  0  0  0  0  0  0
   10.1003  -15.0613   22.4670 O   0  0  0  0  0  0  0  0  0  0  0  0
    9.0136  -16.8341   23.3618 N   0  0  0  0  0  0  0  0  0  0  0  0
    8.9295  -16.2074   24.6746 C   0  0  1  0  0  0  0  0  0  0  0  0
    7.6448  -16.6974   25.3112 C   0  0  0  0  0  0  0  0  0  0  0  0
    6.7009  -15.5444   25.3038 C   0  0  0  0  0  0  0  0  0  0  0  0
    5.3496  -15.5458   25.0383 C   0  0  0  0  0  0  0  0  0  0  0  0
    4.8850  -14.2991   25.1392 N   0  0  0  0  0  0  0  0  0  0  0  0
    5.8720  -13.4449   25.4644 C   0  0  0  0  0  0  0  0  0  0  0  0
    5.9794  -12.0883   25.6943 C   0  0  0  0  0  0  0  0  0  0  0  0
    7.1748  -11.4824   26.0223 C   0  0  0  0  0  0  0  0  0  0  0  0
    8.2980  -12.2587   26.1233 C   0  0  0  0  0  0  0  0  0  0  0  0
    8.2229  -13.6188   25.8992 C   0  0  0  0  0  0  0  0  0  0  0  0
    7.0152  -14.2104   25.5710 C   0  0  0  0  0  0  0  0  0  0  0  0
   10.1125  -16.4588   25.4965 C   0  0  0  0  0  0  0  0  0  0  0  0
   10.9558  -17.3094   25.1163 O   0  0  0  0  0  0  0  0  0  0  0  0
   11.0215  -13.6408   28.1914 C   0  0  0  0  0  0  0  0  0  0  0  0
   11.1985  -15.0429   28.7805 C   0  0  1  0  0  0  0  0  0  0  0  0
   10.0411  -15.4501   29.6305 C   0  0  0  0  0  0  0  0  0  0  0  0
   11.4196  -15.9983   27.6038 C   0  0  2  0  0  0  0  0  0  0  0  0
   10.3166  -15.7673   26.6956 N   0  0  0  0  0  0  0  0  0  0  0  0
   11.3369  -17.3699   28.1649 C   0  0  0  0  0  0  0  0  0  0  0  0
   10.2729  -18.0188   28.0433 O   0  0  0  0  0  0  0  0  0  0  0  0
   12.3997  -17.9651   28.8234 O   0  0  0  0  0  0  0  0  0  0  0  0
  2  1  1  6
  2  3  1  0
  4  2  1  0
  4  5  1  6
  6  4  1  0
  6  7  2  0
  8  6  1  0
  9  8  1  0
  9 10  1  1
 11 10  1  0
 11 19  1  0
 12 13  1  0
 12 11  2  0
 13 14  1  0
 14 19  2  0
 14 15  1  0
 15 16  2  0
 16 17  1  0
 18 17  2  0
 19 18  1  0
 20  9  1  0
 21 20  2  0
 23 22  1  6
 23 24  1  0
 23 25  1  0
 25 27  1  0
 25 26  1  6
 26 20  1  0
 27 29  1  0
 28 27  2  0
M  END
$$$$
