GPW.pdb
     RDKit          3D

 26 28  0  0  1  0  0  0  0  0999 V2000
   25.0837  -19.6460  -16.5190 N   0  0  0  0  0  0  0  0  0  0  0  0
   25.7123  -19.1583  -15.3396 C   0  0  0  0  0  0  0  0  0  0  0  0
   26.2013  -20.1768  -14.3975 C   0  0  0  0  0  0  0  0  0  0  0  0
   25.2746  -20.9709  -13.9745 O   0  0  0  0  0  0  0  0  0  0  0  0
   27.4824  -20.3965  -13.9146 N   0  0  0  0  0  0  0  0  0  0  0  0
   28.7473  -20.1793  -14.5828 C   0  0  0  0  0  0  0  0  0  0  0  0
   29.5387  -19.4346  -13.4764 C   0  0  0  0  0  0  0  0  0  0  0  0
   28.7370  -19.6947  -12.1798 C   0  0  0  0  0  0  0  0  0  0  0  0
   27.9479  -20.8875  -12.6064 C   0  0  1  0  0  0  0  0  0  0  0  0
   26.9335  -21.3931  -11.7161 C   0  0  0  0  0  0  0  0  0  0  0  0
   25.8871  -21.9442  -12.1601 O   0  0  0  0  0  0  0  0  0  0  0  0
   26.9898  -21.3276  -10.2968 N   0  0  0  0  0  0  0  0  0  0  0  0
   25.8573  -21.5241   -9.4164 C   0  0  1  0  0  0  0  0  0  0  0  0
   26.2144  -21.6900   -8.0123 C   0  0  0  0  0  0  0  0  0  0  0  0
   26.8413  -20.5045   -7.4282 C   0  0  0  0  0  0  0  0  0  0  0  0
   26.6989  -19.2074   -7.9472 C   0  0  0  0  0  0  0  0  0  0  0  0
   27.4226  -18.3407   -7.2275 N   0  0  0  0  0  0  0  0  0  0  0  0
   28.0411  -19.0195   -6.2453 C   0  0  0  0  0  0  0  0  0  0  0  0
   28.8664  -18.6132   -5.2369 C   0  0  0  0  0  0  0  0  0  0  0  0
   29.3663  -19.4999   -4.3166 C   0  0  0  0  0  0  0  0  0  0  0  0
   29.0050  -20.8264   -4.4434 C   0  0  0  0  0  0  0  0  0  0  0  0
   28.1693  -21.2558   -5.4608 C   0  0  0  0  0  0  0  0  0  0  0  0
   27.6933  -20.3496   -6.3561 C   0  0  0  0  0  0  0  0  0  0  0  0
   24.8602  -20.4911   -9.6679 C   0  0  0  0  0  0  0  0  0  0  0  0
   23.5049  -20.7418   -9.3633 O   0  0  0  0  0  0  0  0  0  0  0  0
   25.1146  -19.3537  -10.1522 O   0  0  0  0  0  0  0  0  0  0  0  0
  2  1  1  0
  3  2  1  0
  4  3  2  0
  5  3  1  0
  6  5  1  0
  7  8  1  0
  7  6  1  0
  8  9  1  0
  9  5  1  0
  9 10  1  1
 10 11  2  0
 12 10  1  0
 12 13  1  0
 13 14  1  1
 15 14  1  0
 15 16  2  0
 17 16  1  0
 18 17  1  0
 19 18  2  0
 20 19  1  0
 21 20  2  0
 21 22  1  0
 22 23  2  0
 23 18  1  0
 23 15  1  0
 24 25  1  0
 24 13  1  0
 26 24  2  0
M  END
$$$$
