GPW.pdb
     RDKit          3D

 26 28  0  0  1  0  0  0  0  0999 V2000
   24.9547  -19.9290  -17.0167 N   0  0  0  0  0  0  0  0  0  0  0  0
   25.7381  -19.2616  -16.0345 C   0  0  0  0  0  0  0  0  0  0  0  0
   26.1967  -20.0831  -14.9036 C   0  0  0  0  0  0  0  0  0  0  0  0
   25.2402  -20.7127  -14.3062 O   0  0  0  0  0  0  0  0  0  0  0  0
   27.4768  -20.2702  -14.4044 N   0  0  0  0  0  0  0  0  0  0  0  0
   28.7026  -20.5123  -15.1342 C   0  0  0  0  0  0  0  0  0  0  0  0
   29.6598  -19.5094  -14.4394 C   0  0  0  0  0  0  0  0  0  0  0  0
   28.9366  -19.1226  -13.1285 C   0  0  0  0  0  0  0  0  0  0  0  0
   27.9819  -20.2647  -13.0209 C   0  0  1  0  0  0  0  0  0  0  0  0
   26.9874  -20.2316  -11.9782 C   0  0  0  0  0  0  0  0  0  0  0  0
   26.5444  -19.1371  -11.5292 O   0  0  0  0  0  0  0  0  0  0  0  0
   26.4193  -21.3784  -11.3584 N   0  0  0  0  0  0  0  0  0  0  0  0
   26.2590  -21.5497   -9.9298 C   0  0  1  0  0  0  0  0  0  0  0  0
   27.5086  -21.5046   -9.1792 C   0  0  0  0  0  0  0  0  0  0  0  0
   27.4514  -20.6307   -8.0077 C   0  0  0  0  0  0  0  0  0  0  0  0
   26.4690  -19.6465   -7.8122 C   0  0  0  0  0  0  0  0  0  0  0  0
   26.7035  -18.9802   -6.6746 N   0  0  0  0  0  0  0  0  0  0  0  0
   27.8101  -19.4906   -6.1062 C   0  0  0  0  0  0  0  0  0  0  0  0
   28.4580  -19.1908   -4.9428 C   0  0  0  0  0  0  0  0  0  0  0  0
   29.5772  -19.8784   -4.5462 C   0  0  0  0  0  0  0  0  0  0  0  0
   30.0310  -20.8915   -5.3673 C   0  0  0  0  0  0  0  0  0  0  0  0
   29.3863  -21.2083   -6.5512 C   0  0  0  0  0  0  0  0  0  0  0  0
   28.2803  -20.5051   -6.9138 C   0  0  0  0  0  0  0  0  0  0  0  0
   25.2290  -20.6407   -9.4429 C   0  0  0  0  0  0  0  0  0  0  0  0
   24.4449  -21.0085   -8.3284 O   0  0  0  0  0  0  0  0  0  0  0  0
   24.9695  -19.5150   -9.9513 O   0  0  0  0  0  0  0  0  0  0  0  0
  2  1  1  0
  3  2  1  0
  4  3  2  0
  5  3  1  0
  6  5  1  0
  7  8  1  0
  7  6  1  0
  8  9  1  0
  9  5  1  0
  9 10  1  1
 10 11  2  0
 12 10  1  0
 12 13  1  0
 13 14  1  1
 15 14  1  0
 15 16  2  0
 17 16  1  0
 18 17  1  0
 19 18  2  0
 20 19  1  0
 21 20  2  0
 21 22  1  0
 22 23  2  0
 23 18  1  0
 23 15  1  0
 24 25  1  0
 24 13  1  0
 26 24  2  0
M  END
$$$$
