GPW.pdb
     RDKit          3D

 26 28  0  0  1  0  0  0  0  0999 V2000
   28.4858  -22.6160  -16.9235 N   0  0  0  0  0  0  0  0  0  0  0  0
   27.5455  -21.6565  -16.4556 C   0  0  0  0  0  0  0  0  0  0  0  0
   27.6892  -21.2394  -15.0523 C   0  0  0  0  0  0  0  0  0  0  0  0
   27.6970  -22.2285  -14.2217 O   0  0  0  0  0  0  0  0  0  0  0  0
   27.8141  -19.9681  -14.5128 N   0  0  0  0  0  0  0  0  0  0  0  0
   28.5274  -18.8282  -15.0470 C   0  0  0  0  0  0  0  0  0  0  0  0
   27.4675  -17.7102  -14.8696 C   0  0  0  0  0  0  0  0  0  0  0  0
   26.4388  -18.3006  -13.8773 C   0  0  0  0  0  0  0  0  0  0  0  0
   27.2647  -19.3882  -13.2754 C   0  0  1  0  0  0  0  0  0  0  0  0
   26.6297  -20.3085  -12.3660 C   0  0  0  0  0  0  0  0  0  0  0  0
   25.7749  -21.1458  -12.7711 O   0  0  0  0  0  0  0  0  0  0  0  0
   26.8783  -20.3730  -10.9674 N   0  0  0  0  0  0  0  0  0  0  0  0
   26.2252  -21.2877  -10.0548 C   0  0  1  0  0  0  0  0  0  0  0  0
   27.0330  -21.6547   -8.8974 C   0  0  0  0  0  0  0  0  0  0  0  0
   27.2402  -20.5512   -7.9600 C   0  0  0  0  0  0  0  0  0  0  0  0
   26.6401  -19.2885   -8.0921 C   0  0  0  0  0  0  0  0  0  0  0  0
   27.0532  -18.4766   -7.1107 N   0  0  0  0  0  0  0  0  0  0  0  0
   27.9082  -19.1592   -6.3290 C   0  0  0  0  0  0  0  0  0  0  0  0
   28.5868  -18.8086   -5.1978 C   0  0  0  0  0  0  0  0  0  0  0  0
   29.3990  -19.6994   -4.5422 C   0  0  0  0  0  0  0  0  0  0  0  0
   29.5089  -20.9719   -5.0669 C   0  0  0  0  0  0  0  0  0  0  0  0
   28.8280  -21.3440   -6.2139 C   0  0  0  0  0  0  0  0  0  0  0  0
   28.0327  -20.4349   -6.8385 C   0  0  0  0  0  0  0  0  0  0  0  0
   24.8966  -20.7846   -9.7288 C   0  0  0  0  0  0  0  0  0  0  0  0
   23.9201  -21.6704   -9.2248 O   0  0  0  0  0  0  0  0  0  0  0  0
   24.5331  -19.5836   -9.8646 O   0  0  0  0  0  0  0  0  0  0  0  0
  2  1  1  0
  3  2  1  0
  4  3  2  0
  5  3  1  0
  6  5  1  0
  7  8  1  0
  7  6  1  0
  8  9  1  0
  9  5  1  0
  9 10  1  6
 10 11  2  0
 12 10  1  0
 12 13  1  0
 13 14  1  1
 15 14  1  0
 15 16  2  0
 17 16  1  0
 18 17  1  0
 19 18  2  0
 20 19  1  0
 21 20  2  0
 21 22  1  0
 22 23  2  0
 23 18  1  0
 23 15  1  0
 24 25  1  0
 24 13  1  0
 26 24  2  0
M  END
$$$$
