GPW.pdb
     RDKit          3D

 26 28  0  0  1  0  0  0  0  0999 V2000
   29.0745  -21.1731  -18.4485 N   0  0  0  0  0  0  0  0  0  0  0  0
   28.0826  -20.2969  -17.9268 C   0  0  0  0  0  0  0  0  0  0  0  0
   28.0409  -20.1641  -16.4624 C   0  0  0  0  0  0  0  0  0  0  0  0
   28.1476  -21.2920  -15.8420 O   0  0  0  0  0  0  0  0  0  0  0  0
   27.9069  -19.0286  -15.6779 N   0  0  0  0  0  0  0  0  0  0  0  0
   28.5690  -17.7501  -15.8218 C   0  0  0  0  0  0  0  0  0  0  0  0
   27.3692  -16.7800  -15.6661 C   0  0  0  0  0  0  0  0  0  0  0  0
   26.2460  -17.6434  -15.0463 C   0  0  0  0  0  0  0  0  0  0  0  0
   27.0637  -18.7657  -14.4992 C   0  0  1  0  0  0  0  0  0  0  0  0
   26.3791  -19.9027  -13.9373 C   0  0  0  0  0  0  0  0  0  0  0  0
   25.5742  -20.5900  -14.6270 O   0  0  0  0  0  0  0  0  0  0  0  0
   26.5216  -20.3586  -12.5980 N   0  0  0  0  0  0  0  0  0  0  0  0
   25.8713  -21.5313  -12.0522 C   0  0  1  0  0  0  0  0  0  0  0  0
   26.5315  -22.0874  -10.8767 C   0  0  0  0  0  0  0  0  0  0  0  0
   26.5111  -21.1915   -9.7206 C   0  0  0  0  0  0  0  0  0  0  0  0
   25.3798  -20.4670   -9.3114 C   0  0  0  0  0  0  0  0  0  0  0  0
   25.6793  -19.7031   -8.2533 N   0  0  0  0  0  0  0  0  0  0  0  0
   26.9736  -19.8971   -7.9445 C   0  0  0  0  0  0  0  0  0  0  0  0
   27.7603  -19.3861   -6.9530 C   0  0  0  0  0  0  0  0  0  0  0  0
   29.0739  -19.7580   -6.8148 C   0  0  0  0  0  0  0  0  0  0  0  0
   29.5788  -20.6730   -7.7170 C   0  0  0  0  0  0  0  0  0  0  0  0
   28.7948  -21.2010   -8.7292 C   0  0  0  0  0  0  0  0  0  0  0  0
   27.4973  -20.8089   -8.8372 C   0  0  0  0  0  0  0  0  0  0  0  0
   24.4498  -21.2620  -11.8756 C   0  0  0  0  0  0  0  0  0  0  0  0
   23.9932  -19.9270  -11.8345 O   0  0  0  0  0  0  0  0  0  0  0  0
   23.5630  -22.1514  -11.7511 O   0  0  0  0  0  0  0  0  0  0  0  0
  2  1  1  0
  3  2  1  0
  4  3  2  0
  5  3  1  0
  6  5  1  0
  7  8  1  0
  7  6  1  0
  8  9  1  0
  9  5  1  0
  9 10  1  6
 10 11  2  0
 12 10  1  0
 12 13  1  0
 13 14  1  1
 15 14  1  0
 15 16  2  0
 17 16  1  0
 18 17  1  0
 19 18  2  0
 20 19  1  0
 21 20  2  0
 21 22  1  0
 22 23  2  0
 23 18  1  0
 23 15  1  0
 24 25  1  0
 24 13  1  0
 26 24  2  0
M  END
$$$$
