GPW.pdb
     RDKit          3D

 26 28  0  0  1  0  0  0  0  0999 V2000
   43.2240  -10.5190  -10.1565 N   0  0  0  0  0  0  0  0  0  0  0  0
   43.8597   -9.3028   -9.7815 C   0  0  0  0  0  0  0  0  0  0  0  0
   43.1754   -8.5045   -8.7527 C   0  0  0  0  0  0  0  0  0  0  0  0
   41.9112   -8.3588   -8.9735 O   0  0  0  0  0  0  0  0  0  0  0  0
   43.6847   -7.9041   -7.6112 N   0  0  0  0  0  0  0  0  0  0  0  0
   44.6537   -8.4278   -6.6729 C   0  0  0  0  0  0  0  0  0  0  0  0
   45.6037   -7.2112   -6.5238 C   0  0  0  0  0  0  0  0  0  0  0  0
   44.8036   -6.0178   -7.0956 C   0  0  0  0  0  0  0  0  0  0  0  0
   43.4234   -6.5806   -7.0203 C   0  0  1  0  0  0  0  0  0  0  0  0
   42.3418   -5.8246   -7.6000 C   0  0  0  0  0  0  0  0  0  0  0  0
   42.4675   -5.2533   -8.7197 O   0  0  0  0  0  0  0  0  0  0  0  0
   41.0656   -5.6391   -7.0010 N   0  0  0  0  0  0  0  0  0  0  0  0
   40.0429   -4.7435   -7.4991 C   0  0  1  0  0  0  0  0  0  0  0  0
   38.7068   -5.0167   -6.9823 C   0  0  0  0  0  0  0  0  0  0  0  0
   37.7013   -4.0553   -7.4342 C   0  0  0  0  0  0  0  0  0  0  0  0
   37.0850   -4.1012   -8.6952 C   0  0  0  0  0  0  0  0  0  0  0  0
   36.2453   -3.0678   -8.8360 N   0  0  0  0  0  0  0  0  0  0  0  0
   36.2822   -2.3363   -7.7084 C   0  0  0  0  0  0  0  0  0  0  0  0
   35.6102   -1.2099   -7.3306 C   0  0  0  0  0  0  0  0  0  0  0  0
   35.7946   -0.6442   -6.0941 C   0  0  0  0  0  0  0  0  0  0  0  0
   36.6881   -1.2552   -5.2370 C   0  0  0  0  0  0  0  0  0  0  0  0
   37.3787   -2.3980   -5.6044 C   0  0  0  0  0  0  0  0  0  0  0  0
   37.1722   -2.9308   -6.8383 C   0  0  0  0  0  0  0  0  0  0  0  0
   40.4828   -3.3635   -7.3362 C   0  0  0  0  0  0  0  0  0  0  0  0
   40.3560   -2.4598   -8.4129 O   0  0  0  0  0  0  0  0  0  0  0  0
   40.9854   -2.8928   -6.2784 O   0  0  0  0  0  0  0  0  0  0  0  0
  2  1  1  0
  3  2  1  0
  4  3  2  0
  5  3  1  0
  6  5  1  0
  7  8  1  0
  7  6  1  0
  8  9  1  0
  9  5  1  0
  9 10  1  6
 10 11  2  0
 12 10  1  0
 12 13  1  0
 13 14  1  1
 15 14  1  0
 15 16  2  0
 17 16  1  0
 18 17  1  0
 19 18  2  0
 20 19  1  0
 21 20  2  0
 21 22  1  0
 22 23  2  0
 23 18  1  0
 23 15  1  0
 24 25  1  0
 24 13  1  0
 26 24  2  0
M  END
$$$$
