GPW.pdb
     RDKit          3D

 26 28  0  0  1  0  0  0  0  0999 V2000
   28.3372  -22.6242  -17.3556 N   0  0  0  0  0  0  0  0  0  0  0  0
   27.6027  -21.5241  -16.8321 C   0  0  0  0  0  0  0  0  0  0  0  0
   27.8643  -21.1808  -15.4258 C   0  0  0  0  0  0  0  0  0  0  0  0
   27.8500  -22.2036  -14.6371 O   0  0  0  0  0  0  0  0  0  0  0  0
   28.1171  -19.9468  -14.8459 N   0  0  0  0  0  0  0  0  0  0  0  0
   28.9354  -18.8648  -15.3493 C   0  0  0  0  0  0  0  0  0  0  0  0
   27.9916  -17.6551  -15.1245 C   0  0  0  0  0  0  0  0  0  0  0  0
   26.9166  -18.1751  -14.1420 C   0  0  0  0  0  0  0  0  0  0  0  0
   27.6357  -19.3581  -13.5846 C   0  0  1  0  0  0  0  0  0  0  0  0
   26.9195  -20.2420  -12.6997 C   0  0  0  0  0  0  0  0  0  0  0  0
   25.9697  -20.9615  -13.1194 O   0  0  0  0  0  0  0  0  0  0  0  0
   27.1853  -20.3949  -11.3113 N   0  0  0  0  0  0  0  0  0  0  0  0
   26.4764  -21.2990  -10.4303 C   0  0  1  0  0  0  0  0  0  0  0  0
   27.2267  -21.6842   -9.2406 C   0  0  0  0  0  0  0  0  0  0  0  0
   27.2556  -20.6461   -8.2105 C   0  0  0  0  0  0  0  0  0  0  0  0
   26.5210  -19.4514   -8.2820 C   0  0  0  0  0  0  0  0  0  0  0  0
   26.7856  -18.6829   -7.2179 N   0  0  0  0  0  0  0  0  0  0  0  0
   27.6719  -19.3287   -6.4399 C   0  0  0  0  0  0  0  0  0  0  0  0
   28.2454  -19.0000   -5.2456 C   0  0  0  0  0  0  0  0  0  0  0  0
   29.1199  -19.8462   -4.6117 C   0  0  0  0  0  0  0  0  0  0  0  0
   29.4037  -21.0506   -5.2245 C   0  0  0  0  0  0  0  0  0  0  0  0
   28.8313  -21.3996   -6.4362 C   0  0  0  0  0  0  0  0  0  0  0  0
   27.9697  -20.5359   -7.0369 C   0  0  0  0  0  0  0  0  0  0  0  0
   25.1450  -20.7711  -10.1598 C   0  0  0  0  0  0  0  0  0  0  0  0
   24.8442  -19.4334  -10.4951 O   0  0  0  0  0  0  0  0  0  0  0  0
   24.2070  -21.4309   -9.6326 O   0  0  0  0  0  0  0  0  0  0  0  0
  2  1  1  0
  3  2  1  0
  4  3  2  0
  5  3  1  0
  6  5  1  0
  7  8  1  0
  7  6  1  0
  8  9  1  0
  9  5  1  0
  9 10  1  6
 10 11  2  0
 12 10  1  0
 12 13  1  0
 13 14  1  1
 15 14  1  0
 15 16  2  0
 17 16  1  0
 18 17  1  0
 19 18  2  0
 20 19  1  0
 21 20  2  0
 21 22  1  0
 22 23  2  0
 23 18  1  0
 23 15  1  0
 24 25  1  0
 24 13  1  0
 26 24  2  0
M  END
$$$$
