GPW.pdb
     RDKit          3D

 26 28  0  0  1  0  0  0  0  0999 V2000
   29.4355  -22.7506  -17.8529 N   0  0  0  0  0  0  0  0  0  0  0  0
   28.5675  -21.6389  -17.6676 C   0  0  0  0  0  0  0  0  0  0  0  0
   28.3119  -21.2417  -16.2744 C   0  0  0  0  0  0  0  0  0  0  0  0
   28.0359  -22.2377  -15.4997 O   0  0  0  0  0  0  0  0  0  0  0  0
   28.3259  -19.9824  -15.6939 N   0  0  0  0  0  0  0  0  0  0  0  0
   29.2154  -18.8741  -15.9661 C   0  0  0  0  0  0  0  0  0  0  0  0
   28.2009  -17.7076  -16.0872 C   0  0  0  0  0  0  0  0  0  0  0  0
   26.8982  -18.2554  -15.4593 C   0  0  0  0  0  0  0  0  0  0  0  0
   27.4585  -19.3868  -14.6634 C   0  0  1  0  0  0  0  0  0  0  0  0
   26.5414  -20.2826  -14.0048 C   0  0  0  0  0  0  0  0  0  0  0  0
   25.6617  -20.9147  -14.6549 O   0  0  0  0  0  0  0  0  0  0  0  0
   26.5194  -20.5423  -12.6070 N   0  0  0  0  0  0  0  0  0  0  0  0
   25.6595  -21.5118  -11.9615 C   0  0  1  0  0  0  0  0  0  0  0  0
   26.2272  -22.1043  -10.7559 C   0  0  0  0  0  0  0  0  0  0  0  0
   26.3833  -21.1506   -9.6579 C   0  0  0  0  0  0  0  0  0  0  0  0
   25.3398  -20.3551   -9.1574 C   0  0  0  0  0  0  0  0  0  0  0  0
   25.7961  -19.5527   -8.1875 N   0  0  0  0  0  0  0  0  0  0  0  0
   27.1097  -19.7896   -8.0257 C   0  0  0  0  0  0  0  0  0  0  0  0
   28.0311  -19.2651   -7.1661 C   0  0  0  0  0  0  0  0  0  0  0  0
   29.3362  -19.6890   -7.1656 C   0  0  0  0  0  0  0  0  0  0  0  0
   29.6908  -20.6711   -8.0690 C   0  0  0  0  0  0  0  0  0  0  0  0
   28.7690  -21.2137   -8.9486 C   0  0  0  0  0  0  0  0  0  0  0  0
   27.4843  -20.7687   -8.9221 C   0  0  0  0  0  0  0  0  0  0  0  0
   24.3295  -20.9421  -11.7857 C   0  0  0  0  0  0  0  0  0  0  0  0
   23.2127  -21.7988  -11.6798 O   0  0  0  0  0  0  0  0  0  0  0  0
   24.0836  -19.7060  -11.7188 O   0  0  0  0  0  0  0  0  0  0  0  0
  2  1  1  0
  3  2  1  0
  4  3  2  0
  5  3  1  0
  6  5  1  0
  7  8  1  0
  7  6  1  0
  8  9  1  0
  9  5  1  0
  9 10  1  6
 10 11  2  0
 12 10  1  0
 12 13  1  0
 13 14  1  1
 15 14  1  0
 15 16  2  0
 17 16  1  0
 18 17  1  0
 19 18  2  0
 20 19  1  0
 21 20  2  0
 21 22  1  0
 22 23  2  0
 23 18  1  0
 23 15  1  0
 24 25  1  0
 24 13  1  0
 26 24  2  0
M  END
$$$$
