GPW.pdb
     RDKit          3D

 26 28  0  0  1  0  0  0  0  0999 V2000
   23.4124  -19.1543  -15.9180 N   0  0  0  0  0  0  0  0  0  0  0  0
   24.4077  -18.6118  -15.0583 C   0  0  0  0  0  0  0  0  0  0  0  0
   25.3791  -19.5690  -14.5068 C   0  0  0  0  0  0  0  0  0  0  0  0
   24.8391  -20.4770  -13.7637 O   0  0  0  0  0  0  0  0  0  0  0  0
   26.7549  -19.6301  -14.6694 N   0  0  0  0  0  0  0  0  0  0  0  0
   27.5529  -19.1611  -15.7817 C   0  0  0  0  0  0  0  0  0  0  0  0
   28.6813  -18.4046  -15.0338 C   0  0  0  0  0  0  0  0  0  0  0  0
   28.5823  -18.9000  -13.5723 C   0  0  0  0  0  0  0  0  0  0  0  0
   27.8073  -20.1577  -13.7845 C   0  0  1  0  0  0  0  0  0  0  0  0
   27.3601  -20.8914  -12.6273 C   0  0  0  0  0  0  0  0  0  0  0  0
   27.3037  -22.1534  -12.6327 O   0  0  0  0  0  0  0  0  0  0  0  0
   26.9442  -20.3035  -11.4013 N   0  0  0  0  0  0  0  0  0  0  0  0
   26.5093  -21.0452  -10.2364 C   0  0  1  0  0  0  0  0  0  0  0  0
   27.5335  -21.1983   -9.2095 C   0  0  0  0  0  0  0  0  0  0  0  0
   27.0866  -20.7906   -7.8778 C   0  0  0  0  0  0  0  0  0  0  0  0
   25.7385  -20.7288   -7.4891 C   0  0  0  0  0  0  0  0  0  0  0  0
   25.6414  -20.2808   -6.2310 N   0  0  0  0  0  0  0  0  0  0  0  0
   26.8819  -20.0436   -5.7697 C   0  0  0  0  0  0  0  0  0  0  0  0
   27.3356  -19.6051   -4.5593 C   0  0  0  0  0  0  0  0  0  0  0  0
   28.6761  -19.4614   -4.3038 C   0  0  0  0  0  0  0  0  0  0  0  0
   29.5588  -19.7772   -5.3175 C   0  0  0  0  0  0  0  0  0  0  0  0
   29.1157  -20.2228   -6.5515 C   0  0  0  0  0  0  0  0  0  0  0  0
   27.7798  -20.3523   -6.7703 C   0  0  0  0  0  0  0  0  0  0  0  0
   25.2475  -20.4979   -9.7539 C   0  0  0  0  0  0  0  0  0  0  0  0
   24.3398  -21.3362   -9.0715 O   0  0  0  0  0  0  0  0  0  0  0  0
   24.8854  -19.2978   -9.9004 O   0  0  0  0  0  0  0  0  0  0  0  0
  2  1  1  0
  3  2  1  0
  4  3  2  0
  5  3  1  0
  6  5  1  0
  7  8  1  0
  7  6  1  0
  8  9  1  0
  9  5  1  0
  9 10  1  1
 10 11  2  0
 12 10  1  0
 12 13  1  0
 13 14  1  1
 15 14  1  0
 15 16  2  0
 17 16  1  0
 18 17  1  0
 19 18  2  0
 20 19  1  0
 21 20  2  0
 21 22  1  0
 22 23  2  0
 23 18  1  0
 23 15  1  0
 24 25  1  0
 24 13  1  0
 26 24  2  0
M  END
$$$$
