GPW.pdb
     RDKit          3D

 26 28  0  0  1  0  0  0  0  0999 V2000
   27.8128  -17.1509  -17.4406 N   0  0  0  0  0  0  0  0  0  0  0  0
   28.3846  -18.2732  -16.7791 C   0  0  0  0  0  0  0  0  0  0  0  0
   27.4392  -19.2919  -16.2970 C   0  0  0  0  0  0  0  0  0  0  0  0
   26.5411  -18.8204  -15.4973 O   0  0  0  0  0  0  0  0  0  0  0  0
   27.3801  -20.6493  -16.5740 N   0  0  0  0  0  0  0  0  0  0  0  0
   27.3210  -21.3047  -17.8626 C   0  0  0  0  0  0  0  0  0  0  0  0
   28.3941  -22.4090  -17.6788 C   0  0  0  0  0  0  0  0  0  0  0  0
   28.6271  -22.4776  -16.1516 C   0  0  0  0  0  0  0  0  0  0  0  0
   27.3763  -21.8167  -15.6760 C   0  0  1  0  0  0  0  0  0  0  0  0
   27.2398  -21.5392  -14.2683 C   0  0  0  0  0  0  0  0  0  0  0  0
   28.2526  -21.3845  -13.5293 O   0  0  0  0  0  0  0  0  0  0  0  0
   26.0021  -21.4178  -13.5787 N   0  0  0  0  0  0  0  0  0  0  0  0
   25.8596  -21.3912  -12.1382 C   0  0  1  0  0  0  0  0  0  0  0  0
   26.7966  -20.5016  -11.4619 C   0  0  0  0  0  0  0  0  0  0  0  0
   26.5207  -20.3440  -10.0341 C   0  0  0  0  0  0  0  0  0  0  0  0
   25.2286  -20.2533   -9.4917 C   0  0  0  0  0  0  0  0  0  0  0  0
   25.2963  -20.0701   -8.1670 N   0  0  0  0  0  0  0  0  0  0  0  0
   26.5924  -20.0372   -7.8104 C   0  0  0  0  0  0  0  0  0  0  0  0
   27.2002  -19.8987   -6.5961 C   0  0  0  0  0  0  0  0  0  0  0  0
   28.5663  -19.9225   -6.4697 C   0  0  0  0  0  0  0  0  0  0  0  0
   29.3129  -20.0925   -7.6187 C   0  0  0  0  0  0  0  0  0  0  0  0
   28.7127  -20.2338   -8.8586 C   0  0  0  0  0  0  0  0  0  0  0  0
   27.3561  -20.2042   -8.9469 C   0  0  0  0  0  0  0  0  0  0  0  0
   24.4610  -21.1717  -11.7913 C   0  0  0  0  0  0  0  0  0  0  0  0
   23.6553  -20.3638  -12.6223 O   0  0  0  0  0  0  0  0  0  0  0  0
   23.8906  -21.6586  -10.7762 O   0  0  0  0  0  0  0  0  0  0  0  0
  2  1  1  0
  3  2  1  0
  4  3  2  0
  5  3  1  0
  6  5  1  0
  7  8  1  0
  7  6  1  0
  8  9  1  0
  9  5  1  0
  9 10  1  1
 10 11  2  0
 12 10  1  0
 12 13  1  0
 13 14  1  6
 15 14  1  0
 15 16  2  0
 17 16  1  0
 18 17  1  0
 19 18  2  0
 20 19  1  0
 21 20  2  0
 21 22  1  0
 22 23  2  0
 23 18  1  0
 23 15  1  0
 24 25  1  0
 24 13  1  0
 26 24  2  0
M  END
$$$$
