GPW.pdb
     RDKit          3D

 26 28  0  0  1  0  0  0  0  0999 V2000
   29.9700  -22.7277  -17.5705 N   0  0  0  0  0  0  0  0  0  0  0  0
   28.7961  -21.9249  -17.5326 C   0  0  0  0  0  0  0  0  0  0  0  0
   28.3925  -21.4295  -16.2075 C   0  0  0  0  0  0  0  0  0  0  0  0
   27.9024  -22.3487  -15.4439 O   0  0  0  0  0  0  0  0  0  0  0  0
   28.4635  -20.1493  -15.6796 N   0  0  0  0  0  0  0  0  0  0  0  0
   29.4091  -19.0982  -15.9874 C   0  0  0  0  0  0  0  0  0  0  0  0
   28.4546  -17.8894  -16.1680 C   0  0  0  0  0  0  0  0  0  0  0  0
   27.1208  -18.3460  -15.5326 C   0  0  0  0  0  0  0  0  0  0  0  0
   27.6172  -19.4692  -14.6843 C   0  0  1  0  0  0  0  0  0  0  0  0
   26.6509  -20.2906  -13.9996 C   0  0  0  0  0  0  0  0  0  0  0  0
   25.6505  -20.7687  -14.6049 O   0  0  0  0  0  0  0  0  0  0  0  0
   26.7080  -20.6377  -12.6218 N   0  0  0  0  0  0  0  0  0  0  0  0
   25.8011  -21.5547  -11.9639 C   0  0  1  0  0  0  0  0  0  0  0  0
   26.3461  -22.1733  -10.7610 C   0  0  0  0  0  0  0  0  0  0  0  0
   26.4607  -21.2489   -9.6332 C   0  0  0  0  0  0  0  0  0  0  0  0
   25.4241  -20.4038   -9.2050 C   0  0  0  0  0  0  0  0  0  0  0  0
   25.8398  -19.6454   -8.1828 N   0  0  0  0  0  0  0  0  0  0  0  0
   27.1198  -19.9597   -7.9163 C   0  0  0  0  0  0  0  0  0  0  0  0
   27.9922  -19.5034   -6.9710 C   0  0  0  0  0  0  0  0  0  0  0  0
   29.2670  -20.0012   -6.8700 C   0  0  0  0  0  0  0  0  0  0  0  0
   29.6423  -20.9864   -7.7616 C   0  0  0  0  0  0  0  0  0  0  0  0
   28.7701  -21.4603   -8.7272 C   0  0  0  0  0  0  0  0  0  0  0  0
   27.5145  -20.9432   -8.7992 C   0  0  0  0  0  0  0  0  0  0  0  0
   24.5070  -20.9103  -11.7783 C   0  0  0  0  0  0  0  0  0  0  0  0
   23.3405  -21.7005  -11.6947 O   0  0  0  0  0  0  0  0  0  0  0  0
   24.3355  -19.6634  -11.6838 O   0  0  0  0  0  0  0  0  0  0  0  0
  2  1  1  0
  3  2  1  0
  4  3  2  0
  5  3  1  0
  6  5  1  0
  7  8  1  0
  7  6  1  0
  8  9  1  0
  9  5  1  0
  9 10  1  6
 10 11  2  0
 12 10  1  0
 12 13  1  0
 13 14  1  1
 15 14  1  0
 15 16  2  0
 17 16  1  0
 18 17  1  0
 19 18  2  0
 20 19  1  0
 21 20  2  0
 21 22  1  0
 22 23  2  0
 23 18  1  0
 23 15  1  0
 24 25  1  0
 24 13  1  0
 26 24  2  0
M  END
$$$$
