GPW.pdb
     RDKit          3D

 26 28  0  0  1  0  0  0  0  0999 V2000
   20.7434  -31.8905    0.8056 N   0  0  0  0  0  0  0  0  0  0  0  0
   21.0607  -30.5685    1.2247 C   0  0  0  0  0  0  0  0  0  0  0  0
   20.0117  -29.8558    1.9700 C   0  0  0  0  0  0  0  0  0  0  0  0
   18.8763  -29.8254    1.3549 O   0  0  0  0  0  0  0  0  0  0  0  0
   20.0708  -29.2301    3.2061 N   0  0  0  0  0  0  0  0  0  0  0  0
   20.7412  -29.6729    4.4095 C   0  0  0  0  0  0  0  0  0  0  0  0
   21.4676  -28.3708    4.8358 C   0  0  0  0  0  0  0  0  0  0  0  0
   20.7733  -27.2521    4.0247 C   0  0  0  0  0  0  0  0  0  0  0  0
   19.5041  -27.9511    3.6667 C   0  0  1  0  0  0  0  0  0  0  0  0
   18.5908  -27.2955    2.7648 C   0  0  0  0  0  0  0  0  0  0  0  0
   18.8033  -27.2711    1.5198 O   0  0  0  0  0  0  0  0  0  0  0  0
   17.3996  -26.6255    3.1571 N   0  0  0  0  0  0  0  0  0  0  0  0
   16.4418  -26.0418    2.2417 C   0  0  1  0  0  0  0  0  0  0  0  0
   16.0752  -26.9089    1.1279 C   0  0  0  0  0  0  0  0  0  0  0  0
   16.2637  -26.2843   -0.1812 C   0  0  0  0  0  0  0  0  0  0  0  0
   15.3910  -25.3281   -0.7254 C   0  0  0  0  0  0  0  0  0  0  0  0
   15.7996  -24.9753   -1.9508 N   0  0  0  0  0  0  0  0  0  0  0  0
   16.9171  -25.6654   -2.2389 C   0  0  0  0  0  0  0  0  0  0  0  0
   17.7337  -25.6620   -3.3327 C   0  0  0  0  0  0  0  0  0  0  0  0
   18.8571  -26.4476   -3.3928 C   0  0  0  0  0  0  0  0  0  0  0  0
   19.1381  -27.2479   -2.3033 C   0  0  0  0  0  0  0  0  0  0  0  0
   18.3202  -27.2640   -1.1859 C   0  0  0  0  0  0  0  0  0  0  0  0
   17.2142  -26.4734   -1.1611 C   0  0  0  0  0  0  0  0  0  0  0  0
   15.3102  -25.5128    2.9929 C   0  0  0  0  0  0  0  0  0  0  0  0
   14.9221  -24.1677    2.8136 O   0  0  0  0  0  0  0  0  0  0  0  0
   14.6257  -26.1781    3.8187 O   0  0  0  0  0  0  0  0  0  0  0  0
  2  1  1  0
  3  2  1  0
  4  3  2  0
  5  3  1  0
  6  5  1  0
  7  8  1  0
  7  6  1  0
  8  9  1  0
  9  5  1  0
  9 10  1  6
 10 11  2  0
 12 10  1  0
 12 13  1  0
 13 14  1  6
 15 14  1  0
 15 16  2  0
 17 16  1  0
 18 17  1  0
 19 18  2  0
 20 19  1  0
 21 20  2  0
 21 22  1  0
 22 23  2  0
 23 18  1  0
 23 15  1  0
 24 25  1  0
 24 13  1  0
 26 24  2  0
M  END
$$$$
