GPW.pdb
     RDKit          3D

 26 28  0  0  1  0  0  0  0  0999 V2000
   27.8603  -22.7647  -17.6517 N   0  0  0  0  0  0  0  0  0  0  0  0
   27.1065  -21.7322  -17.0276 C   0  0  0  0  0  0  0  0  0  0  0  0
   27.4433  -21.4411  -15.6256 C   0  0  0  0  0  0  0  0  0  0  0  0
   27.2713  -22.4494  -14.8369 O   0  0  0  0  0  0  0  0  0  0  0  0
   27.9068  -20.2680  -15.0496 N   0  0  0  0  0  0  0  0  0  0  0  0
   28.8359  -19.3018  -15.5947 C   0  0  0  0  0  0  0  0  0  0  0  0
   28.0907  -17.9760  -15.2916 C   0  0  0  0  0  0  0  0  0  0  0  0
   27.0197  -18.3599  -14.2444 C   0  0  0  0  0  0  0  0  0  0  0  0
   27.5982  -19.6444  -13.7515 C   0  0  1  0  0  0  0  0  0  0  0  0
   26.8233  -20.4371  -12.8304 C   0  0  0  0  0  0  0  0  0  0  0  0
   25.7414  -20.9842  -13.1856 O   0  0  0  0  0  0  0  0  0  0  0  0
   27.1704  -20.6794  -11.4730 N   0  0  0  0  0  0  0  0  0  0  0  0
   26.3545  -21.4176  -10.5320 C   0  0  1  0  0  0  0  0  0  0  0  0
   27.0657  -21.8465   -9.3332 C   0  0  0  0  0  0  0  0  0  0  0  0
   27.1581  -20.8063   -8.3091 C   0  0  0  0  0  0  0  0  0  0  0  0
   26.3318  -19.6715   -8.2688 C   0  0  0  0  0  0  0  0  0  0  0  0
   26.6822  -18.8819   -7.2457 N   0  0  0  0  0  0  0  0  0  0  0  0
   27.7146  -19.4557   -6.6031 C   0  0  0  0  0  0  0  0  0  0  0  0
   28.4216  -19.0806   -5.4974 C   0  0  0  0  0  0  0  0  0  0  0  0
   29.4376  -19.8556   -4.9974 C   0  0  0  0  0  0  0  0  0  0  0  0
   29.7244  -21.0364   -5.6529 C   0  0  0  0  0  0  0  0  0  0  0  0
   29.0176  -21.4318   -6.7763 C   0  0  0  0  0  0  0  0  0  0  0  0
   28.0177  -20.6383   -7.2450 C   0  0  0  0  0  0  0  0  0  0  0  0
   25.1234  -20.6815  -10.2729 C   0  0  0  0  0  0  0  0  0  0  0  0
   23.9921  -21.3669   -9.7804 O   0  0  0  0  0  0  0  0  0  0  0  0
   24.9784  -19.4416  -10.4588 O   0  0  0  0  0  0  0  0  0  0  0  0
  2  1  1  0
  3  2  1  0
  4  3  2  0
  5  3  1  0
  6  5  1  0
  7  8  1  0
  7  6  1  0
  8  9  1  0
  9  5  1  0
  9 10  1  6
 10 11  2  0
 12 10  1  0
 12 13  1  0
 13 14  1  1
 15 14  1  0
 15 16  2  0
 17 16  1  0
 18 17  1  0
 19 18  2  0
 20 19  1  0
 21 20  2  0
 21 22  1  0
 22 23  2  0
 23 18  1  0
 23 15  1  0
 24 25  1  0
 24 13  1  0
 26 24  2  0
M  END
$$$$
