GPW.pdb
     RDKit          3D

 26 28  0  0  1  0  0  0  0  0999 V2000
   26.5163  -21.3303  -16.2774 N   0  0  0  0  0  0  0  0  0  0  0  0
   25.3568  -21.6089  -15.5015 C   0  0  0  0  0  0  0  0  0  0  0  0
   25.2254  -20.8612  -14.2415 C   0  0  0  0  0  0  0  0  0  0  0  0
   26.3433  -20.7199  -13.6101 O   0  0  0  0  0  0  0  0  0  0  0  0
   24.1001  -20.3028  -13.6544 N   0  0  0  0  0  0  0  0  0  0  0  0
   23.0173  -19.5809  -14.2870 C   0  0  0  0  0  0  0  0  0  0  0  0
   21.7885  -20.2649  -13.6335 C   0  0  0  0  0  0  0  0  0  0  0  0
   22.3629  -21.0121  -12.4075 C   0  0  0  0  0  0  0  0  0  0  0  0
   23.6553  -20.2825  -12.2505 C   0  0  1  0  0  0  0  0  0  0  0  0
   24.6002  -20.7634  -11.2742 C   0  0  0  0  0  0  0  0  0  0  0  0
   24.9590  -21.9744  -11.2500 O   0  0  0  0  0  0  0  0  0  0  0  0
   25.2071  -19.9647  -10.2663 N   0  0  0  0  0  0  0  0  0  0  0  0
   26.1048  -20.4651   -9.2465 C   0  0  1  0  0  0  0  0  0  0  0  0
   27.0642  -19.4802   -8.7603 C   0  0  0  0  0  0  0  0  0  0  0  0
   28.0394  -20.0336   -7.8211 C   0  0  0  0  0  0  0  0  0  0  0  0
   28.9352  -21.0668   -8.1406 C   0  0  0  0  0  0  0  0  0  0  0  0
   29.6698  -21.3885   -7.0682 N   0  0  0  0  0  0  0  0  0  0  0  0
   29.2921  -20.6014   -6.0455 C   0  0  0  0  0  0  0  0  0  0  0  0
   29.7331  -20.5071   -4.7573 C   0  0  0  0  0  0  0  0  0  0  0  0
   29.2051  -19.5912   -3.8825 C   0  0  0  0  0  0  0  0  0  0  0  0
   28.2058  -18.7610   -4.3502 C   0  0  0  0  0  0  0  0  0  0  0  0
   27.7462  -18.8437   -5.6539 C   0  0  0  0  0  0  0  0  0  0  0  0
   28.2915  -19.7641   -6.4932 C   0  0  0  0  0  0  0  0  0  0  0  0
   25.3337  -21.1248   -8.2002 C   0  0  0  0  0  0  0  0  0  0  0  0
   25.8274  -22.3092   -7.6122 O   0  0  0  0  0  0  0  0  0  0  0  0
   24.2242  -20.7131   -7.7614 O   0  0  0  0  0  0  0  0  0  0  0  0
  2  1  1  0
  3  2  1  0
  4  3  2  0
  5  3  1  0
  6  5  1  0
  7  8  1  0
  7  6  1  0
  8  9  1  0
  9  5  1  0
  9 10  1  1
 10 11  2  0
 12 10  1  0
 12 13  1  0
 13 14  1  1
 15 14  1  0
 15 16  2  0
 17 16  1  0
 18 17  1  0
 19 18  2  0
 20 19  1  0
 21 20  2  0
 21 22  1  0
 22 23  2  0
 23 18  1  0
 23 15  1  0
 24 25  1  0
 24 13  1  0
 26 24  2  0
M  END
$$$$
