TVN.pdb
     RDKit          3D

 23 22  0  0  1  0  0  0  0  0999 V2000
    5.0881  -18.0791   22.4242 C   0  0  0  0  0  0  0  0  0  0  0  0
    5.5144  -18.8218   21.1790 C   0  0  1  0  0  0  0  0  0  0  0  0
    4.5022  -19.7511   20.8861 O   0  0  0  0  0  0  0  0  0  0  0  0
    5.6821  -17.9160   19.9936 C   0  0  2  0  0  0  0  0  0  0  0  0
    5.6212  -18.6962   18.7854 N   0  0  0  0  0  0  0  0  0  0  0  0
    6.8673  -17.0574   20.0656 C   0  0  0  0  0  0  0  0  0  0  0  0
    8.0087  -17.4615   19.7351 O   0  0  0  0  0  0  0  0  0  0  0  0
    8.5995  -12.4806   21.1240 C   0  0  0  0  0  0  0  0  0  0  0  0
    7.4686  -13.3846   20.7544 C   0  0  1  0  0  0  0  0  0  0  0  0
    6.9309  -12.9539   19.4094 C   0  0  0  0  0  0  0  0  0  0  0  0
    7.8735  -14.8431   20.7467 C   0  0  2  0  0  0  0  0  0  0  0  0
    6.7504  -15.7152   20.5220 N   0  0  0  0  0  0  0  0  0  0  0  0
    8.5562  -15.1289   22.0357 C   0  0  0  0  0  0  0  0  0  0  0  0
    7.8195  -15.2694   23.0459 O   0  0  0  0  0  0  0  0  0  0  0  0
   11.0835  -17.7948   25.4498 N   0  0  0  0  0  0  0  0  0  0  0  0
   10.7082  -18.3253   24.1920 C   0  0  0  0  0  0  0  0  0  0  0  0
   10.9550  -19.5251   23.9504 O   0  0  0  0  0  0  0  0  0  0  0  0
   10.0377  -17.4960   23.1722 C   0  0  0  0  0  0  0  0  0  0  0  0
   10.4960  -16.0562   23.2586 C   0  0  2  0  0  0  0  0  0  0  0  0
    9.9478  -15.2499   22.1953 N   0  0  0  0  0  0  0  0  0  0  0  0
   11.9715  -16.0265   23.1573 C   0  0  0  0  0  0  0  0  0  0  0  0
   12.5335  -16.4351   22.1043 O   0  0  0  0  0  0  0  0  0  0  0  0
   12.7189  -15.5504   24.2200 O   0  0  0  0  0  0  0  0  0  0  0  0
  2  3  1  0
  2  1  1  1
  4  2  1  0
  4  5  1  6
  6 12  1  0
  6  4  1  0
  7  6  2  0
  9  8  1  6
  9 11  1  0
 10  9  1  0
 11 12  1  1
 11 13  1  0
 13 20  1  0
 14 13  2  0
 16 15  1  0
 17 16  2  0
 18 16  1  0
 19 21  1  0
 19 18  1  6
 20 19  1  0
 21 23  1  0
 22 21  2  0
M  END
$$$$
