TVN.pdb
     RDKit          3D

 23 22  0  0  1  0  0  0  0  0999 V2000
    6.3310  -16.6048   20.2509 C   0  0  0  0  0  0  0  0  0  0  0  0
    7.0020  -16.3212   21.5750 C   0  0  1  0  0  0  0  0  0  0  0  0
    7.8288  -17.4204   21.8621 O   0  0  0  0  0  0  0  0  0  0  0  0
    7.8536  -15.0854   21.5394 C   0  0  2  0  0  0  0  0  0  0  0  0
    8.7443  -15.1531   20.4106 N   0  0  0  0  0  0  0  0  0  0  0  0
    8.5432  -14.8032   22.8011 C   0  0  0  0  0  0  0  0  0  0  0  0
    9.7461  -15.1076   22.9900 O   0  0  0  0  0  0  0  0  0  0  0  0
    6.2251  -13.5463   26.2272 C   0  0  0  0  0  0  0  0  0  0  0  0
    7.5638  -12.9356   25.9666 C   0  0  1  0  0  0  0  0  0  0  0  0
    8.2056  -12.6040   27.2938 C   0  0  0  0  0  0  0  0  0  0  0  0
    8.4538  -13.8296   25.1299 C   0  0  2  0  0  0  0  0  0  0  0  0
    7.8505  -14.1634   23.8662 N   0  0  0  0  0  0  0  0  0  0  0  0
    8.7681  -15.0371   25.9376 C   0  0  0  0  0  0  0  0  0  0  0  0
    7.8839  -15.9310   25.9844 O   0  0  0  0  0  0  0  0  0  0  0  0
   10.5444  -17.8552   24.9614 N   0  0  0  0  0  0  0  0  0  0  0  0
   11.6744  -17.7316   25.8054 C   0  0  0  0  0  0  0  0  0  0  0  0
   12.7513  -18.2496   25.4439 O   0  0  0  0  0  0  0  0  0  0  0  0
   11.6043  -17.0095   27.0903 C   0  0  0  0  0  0  0  0  0  0  0  0
   10.2083  -16.4800   27.3382 C   0  0  2  0  0  0  0  0  0  0  0  0
    9.9687  -15.2405   26.6401 N   0  0  0  0  0  0  0  0  0  0  0  0
   10.0481  -16.2403   28.7891 C   0  0  0  0  0  0  0  0  0  0  0  0
   10.0109  -15.0574   29.2262 O   0  0  0  0  0  0  0  0  0  0  0  0
    9.9410  -17.3175   29.6510 O   0  0  0  0  0  0  0  0  0  0  0  0
  2  3  1  0
  2  1  1  6
  4  2  1  0
  4  5  1  6
  6 12  1  0
  6  4  1  0
  7  6  2  0
  9  8  1  1
  9 11  1  0
 10  9  1  0
 11 12  1  6
 11 13  1  0
 13 20  1  0
 14 13  2  0
 16 15  1  0
 17 16  2  0
 18 16  1  0
 19 21  1  0
 19 18  1  1
 20 19  1  0
 21 23  1  0
 22 21  2  0
M  END
$$$$
