TVN.pdb
     RDKit          3D

 23 22  0  0  1  0  0  0  0  0999 V2000
    7.1033  -19.0631   18.7894 C   0  0  0  0  0  0  0  0  0  0  0  0
    7.8685  -18.5677   17.5840 C   0  0  1  0  0  0  0  0  0  0  0  0
    7.2622  -19.1333   16.4496 O   0  0  0  0  0  0  0  0  0  0  0  0
    7.8276  -17.0734   17.4465 C   0  0  2  0  0  0  0  0  0  0  0  0
    8.1585  -16.7102   16.0933 N   0  0  0  0  0  0  0  0  0  0  0  0
    8.6298  -16.3631   18.4459 C   0  0  0  0  0  0  0  0  0  0  0  0
    9.8843  -16.4038   18.4505 O   0  0  0  0  0  0  0  0  0  0  0  0
    7.7093  -12.7063   20.0237 C   0  0  0  0  0  0  0  0  0  0  0  0
    7.9369  -13.7491   21.0696 C   0  0  1  0  0  0  0  0  0  0  0  0
    6.5983  -14.1521   21.6435 C   0  0  0  0  0  0  0  0  0  0  0  0
    8.6932  -14.9469   20.5364 C   0  0  2  0  0  0  0  0  0  0  0  0
    7.9920  -15.5932   19.4580 N   0  0  0  0  0  0  0  0  0  0  0  0
    8.9410  -15.8683   21.6760 C   0  0  0  0  0  0  0  0  0  0  0  0
    8.2642  -16.9287   21.7023 O   0  0  0  0  0  0  0  0  0  0  0  0
   11.8227  -19.8232   23.0096 N   0  0  0  0  0  0  0  0  0  0  0  0
   12.2846  -18.4881   22.9170 C   0  0  0  0  0  0  0  0  0  0  0  0
   13.4049  -18.2078   23.3913 O   0  0  0  0  0  0  0  0  0  0  0  0
   11.4757  -17.4328   22.2771 C   0  0  0  0  0  0  0  0  0  0  0  0
   10.6028  -16.7287   23.2935 C   0  0  2  0  0  0  0  0  0  0  0  0
    9.8666  -15.6348   22.7081 N   0  0  0  0  0  0  0  0  0  0  0  0
   11.4699  -16.1911   24.3647 C   0  0  0  0  0  0  0  0  0  0  0  0
   11.9148  -15.0139   24.2760 O   0  0  0  0  0  0  0  0  0  0  0  0
   11.7833  -16.9867   25.4525 O   0  0  0  0  0  0  0  0  0  0  0  0
  2  3  1  0
  2  1  1  1
  4  2  1  0
  4  5  1  6
  6 12  1  0
  6  4  1  0
  7  6  2  0
  9  8  1  6
  9 11  1  0
 10  9  1  0
 11 12  1  6
 11 13  1  0
 13 20  1  0
 14 13  2  0
 16 15  1  0
 17 16  2  0
 18 16  1  0
 19 21  1  0
 19 18  1  6
 20 19  1  0
 21 23  1  0
 22 21  2  0
M  END
$$$$
