TVN.pdb
     RDKit          3D

 23 22  0  0  1  0  0  0  0  0999 V2000
    7.1648  -19.3544   17.8510 C   0  0  0  0  0  0  0  0  0  0  0  0
    7.9856  -18.4684   18.7595 C   0  0  1  0  0  0  0  0  0  0  0  0
    8.9781  -19.2775   19.3378 O   0  0  0  0  0  0  0  0  0  0  0  0
    8.6594  -17.3483   18.0212 C   0  0  2  0  0  0  0  0  0  0  0  0
    9.6828  -17.8894   17.1656 N   0  0  0  0  0  0  0  0  0  0  0  0
    9.1443  -16.2721   18.8895 C   0  0  0  0  0  0  0  0  0  0  0  0
   10.3666  -16.0260   19.0329 O   0  0  0  0  0  0  0  0  0  0  0  0
    7.8598  -12.4722   21.8850 C   0  0  0  0  0  0  0  0  0  0  0  0
    7.4849  -13.4855   20.8526 C   0  0  1  0  0  0  0  0  0  0  0  0
    7.0496  -12.7570   19.6023 C   0  0  0  0  0  0  0  0  0  0  0  0
    8.6078  -14.4583   20.5633 C   0  0  2  0  0  0  0  0  0  0  0  0
    8.2207  -15.4624   19.6071 N   0  0  0  0  0  0  0  0  0  0  0  0
    9.0358  -15.0516   21.8571 C   0  0  0  0  0  0  0  0  0  0  0  0
    9.5502  -14.2670   22.6955 O   0  0  0  0  0  0  0  0  0  0  0  0
    6.2529  -16.9638   25.1758 N   0  0  0  0  0  0  0  0  0  0  0  0
    6.8982  -17.4188   24.0006 C   0  0  0  0  0  0  0  0  0  0  0  0
    6.2690  -17.3902   22.9227 O   0  0  0  0  0  0  0  0  0  0  0  0
    8.2856  -17.9206   24.0254 C   0  0  0  0  0  0  0  0  0  0  0  0
    9.2505  -16.8694   23.5208 C   0  0  2  0  0  0  0  0  0  0  0  0
    8.9050  -16.4093   22.1979 N   0  0  0  0  0  0  0  0  0  0  0  0
   10.6057  -17.4604   23.4732 C   0  0  0  0  0  0  0  0  0  0  0  0
   11.2315  -17.5003   22.3785 O   0  0  0  0  0  0  0  0  0  0  0  0
   11.1717  -17.9635   24.6313 O   0  0  0  0  0  0  0  0  0  0  0  0
  2  3  1  0
  2  1  1  6
  4  2  1  0
  4  5  1  1
  6 12  1  0
  6  4  1  0
  7  6  2  0
  9  8  1  1
  9 11  1  0
 10  9  1  0
 11 12  1  6
 11 13  1  0
 13 20  1  0
 14 13  2  0
 16 15  1  0
 17 16  2  0
 18 16  1  0
 19 21  1  0
 19 18  1  6
 20 19  1  0
 21 23  1  0
 22 21  2  0
M  END
$$$$
