TVN.pdb
     RDKit          3D

 23 22  0  0  1  0  0  0  0  0999 V2000
    8.5609  -11.7862   26.0403 C   0  0  0  0  0  0  0  0  0  0  0  0
    7.3317  -12.3156   26.7421 C   0  0  1  0  0  0  0  0  0  0  0  0
    6.8410  -11.2785   27.5530 O   0  0  0  0  0  0  0  0  0  0  0  0
    6.2482  -12.7206   25.7852 C   0  0  2  0  0  0  0  0  0  0  0  0
    5.0337  -12.9677   26.5175 N   0  0  0  0  0  0  0  0  0  0  0  0
    6.6215  -13.8264   24.8992 C   0  0  0  0  0  0  0  0  0  0  0  0
    6.4235  -15.0272   25.2060 O   0  0  0  0  0  0  0  0  0  0  0  0
    8.7055  -12.9483   21.1592 C   0  0  0  0  0  0  0  0  0  0  0  0
    7.6904  -14.0379   21.2836 C   0  0  1  0  0  0  0  0  0  0  0  0
    8.0342  -15.1280   20.2951 C   0  0  0  0  0  0  0  0  0  0  0  0
    7.5944  -14.5800   22.6935 C   0  0  2  0  0  0  0  0  0  0  0  0
    7.2312  -13.5597   23.6419 N   0  0  0  0  0  0  0  0  0  0  0  0
    8.8979  -15.2136   23.0233 C   0  0  0  0  0  0  0  0  0  0  0  0
    9.7808  -14.4652   23.5166 O   0  0  0  0  0  0  0  0  0  0  0  0
   10.7306  -18.7643   26.5028 N   0  0  0  0  0  0  0  0  0  0  0  0
   11.1794  -18.5451   25.1781 C   0  0  0  0  0  0  0  0  0  0  0  0
   12.4069  -18.4537   24.9691 O   0  0  0  0  0  0  0  0  0  0  0  0
   10.2340  -18.4240   24.0516 C   0  0  0  0  0  0  0  0  0  0  0  0
   10.4439  -17.1236   23.3062 C   0  0  2  0  0  0  0  0  0  0  0  0
    9.2019  -16.5715   22.8227 N   0  0  0  0  0  0  0  0  0  0  0  0
   11.3247  -17.3842   22.1467 C   0  0  0  0  0  0  0  0  0  0  0  0
   10.8197  -17.7359   21.0454 O   0  0  0  0  0  0  0  0  0  0  0  0
   12.6940  -17.2392   22.2838 O   0  0  0  0  0  0  0  0  0  0  0  0
  2  3  1  0
  2  1  1  6
  4  2  1  0
  4  5  1  1
  6 12  1  0
  6  4  1  0
  7  6  2  0
  9  8  1  1
  9 11  1  0
 10  9  1  0
 11 12  1  1
 11 13  1  0
 13 20  1  0
 14 13  2  0
 16 15  1  0
 17 16  2  0
 18 16  1  0
 19 21  1  0
 19 18  1  6
 20 19  1  0
 21 23  1  0
 22 21  2  0
M  END
$$$$
