TVN.pdb
     RDKit          3D

 23 22  0  0  1  0  0  0  0  0999 V2000
    6.0610  -16.4305   20.3864 C   0  0  0  0  0  0  0  0  0  0  0  0
    6.7970  -16.0937   21.6626 C   0  0  1  0  0  0  0  0  0  0  0  0
    7.9140  -16.9433   21.7310 O   0  0  0  0  0  0  0  0  0  0  0  0
    7.2810  -14.6729   21.6940 C   0  0  2  0  0  0  0  0  0  0  0  0
    8.0154  -14.3931   20.4879 N   0  0  0  0  0  0  0  0  0  0  0  0
    8.0180  -14.3236   22.9113 C   0  0  0  0  0  0  0  0  0  0  0  0
    9.2721  -14.2940   22.9501 O   0  0  0  0  0  0  0  0  0  0  0  0
    7.6817  -12.6888   27.6266 C   0  0  0  0  0  0  0  0  0  0  0  0
    7.0150  -13.0301   26.3335 C   0  0  1  0  0  0  0  0  0  0  0  0
    6.4311  -11.7656   25.7472 C   0  0  0  0  0  0  0  0  0  0  0  0
    7.9550  -13.7083   25.3601 C   0  0  2  0  0  0  0  0  0  0  0  0
    7.3142  -14.0025   24.1051 N   0  0  0  0  0  0  0  0  0  0  0  0
    8.4834  -14.9307   26.0200 C   0  0  0  0  0  0  0  0  0  0  0  0
    7.6600  -15.8576   26.2342 O   0  0  0  0  0  0  0  0  0  0  0  0
   12.1940  -15.9575   24.1871 N   0  0  0  0  0  0  0  0  0  0  0  0
   11.6409  -16.9407   25.0426 C   0  0  0  0  0  0  0  0  0  0  0  0
   11.1574  -17.9733   24.5342 O   0  0  0  0  0  0  0  0  0  0  0  0
   11.6253  -16.7699   26.5083 C   0  0  0  0  0  0  0  0  0  0  0  0
   10.2495  -16.3644   26.9914 C   0  0  2  0  0  0  0  0  0  0  0  0
    9.8206  -15.1142   26.4133 N   0  0  0  0  0  0  0  0  0  0  0  0
   10.2950  -16.2105   28.4619 C   0  0  0  0  0  0  0  0  0  0  0  0
   10.1236  -15.0713   28.9762 O   0  0  0  0  0  0  0  0  0  0  0  0
   10.5256  -17.3191   29.2572 O   0  0  0  0  0  0  0  0  0  0  0  0
  2  3  1  0
  2  1  1  6
  4  2  1  0
  4  5  1  6
  6 12  1  0
  6  4  1  0
  7  6  2  0
  9  8  1  1
  9 11  1  0
 10  9  1  0
 11 12  1  6
 11 13  1  0
 13 20  1  0
 14 13  2  0
 16 15  1  0
 17 16  2  0
 18 16  1  0
 19 21  1  0
 19 18  1  6
 20 19  1  0
 21 23  1  0
 22 21  2  0
M  END
$$$$
