TVN.pdb
     RDKit          3D

 23 22  0  0  1  0  0  0  0  0999 V2000
    8.4579  -16.8815   19.4089 C   0  0  0  0  0  0  0  0  0  0  0  0
    8.8212  -15.9187   20.5157 C   0  0  1  0  0  0  0  0  0  0  0  0
    8.1144  -14.7285   20.2755 O   0  0  0  0  0  0  0  0  0  0  0  0
    8.4398  -16.4290   21.8751 C   0  0  2  0  0  0  0  0  0  0  0  0
    7.0331  -16.7344   21.8918 N   0  0  0  0  0  0  0  0  0  0  0  0
    8.8521  -15.5533   22.9751 C   0  0  0  0  0  0  0  0  0  0  0  0
   10.0532  -15.2492   23.1756 O   0  0  0  0  0  0  0  0  0  0  0  0
    7.3390  -12.7454   26.8309 C   0  0  0  0  0  0  0  0  0  0  0  0
    7.0468  -13.4312   25.5359 C   0  0  1  0  0  0  0  0  0  0  0  0
    6.6770  -12.3835   24.5117 C   0  0  0  0  0  0  0  0  0  0  0  0
    8.2025  -14.2854   25.0608 C   0  0  2  0  0  0  0  0  0  0  0  0
    7.8794  -15.0147   23.8624 N   0  0  0  0  0  0  0  0  0  0  0  0
    8.5876  -15.1862   26.1786 C   0  0  0  0  0  0  0  0  0  0  0  0
    7.8280  -16.1636   26.4036 O   0  0  0  0  0  0  0  0  0  0  0  0
   11.2346  -18.2136   29.2715 N   0  0  0  0  0  0  0  0  0  0  0  0
   11.9291  -17.8387   28.0960 C   0  0  0  0  0  0  0  0  0  0  0  0
   12.9468  -18.4843   27.7702 O   0  0  0  0  0  0  0  0  0  0  0  0
   11.4776  -16.7115   27.2576 C   0  0  0  0  0  0  0  0  0  0  0  0
   10.2068  -16.1018   27.8089 C   0  0  2  0  0  0  0  0  0  0  0  0
    9.7261  -15.0186   26.9862 N   0  0  0  0  0  0  0  0  0  0  0  0
   10.4879  -15.5746   29.1621 C   0  0  0  0  0  0  0  0  0  0  0  0
   10.6059  -14.3306   29.3355 O   0  0  0  0  0  0  0  0  0  0  0  0
   10.6185  -16.4532   30.2231 O   0  0  0  0  0  0  0  0  0  0  0  0
  2  3  1  0
  2  1  1  6
  4  2  1  0
  4  5  1  6
  6 12  1  0
  6  4  1  0
  7  6  2  0
  9  8  1  1
  9 11  1  0
 10  9  1  0
 11 12  1  6
 11 13  1  0
 13 20  1  0
 14 13  2  0
 16 15  1  0
 17 16  2  0
 18 16  1  0
 19 21  1  0
 19 18  1  6
 20 19  1  0
 21 23  1  0
 22 21  2  0
M  END
$$$$
