TVN.pdb
     RDKit          3D

 23 22  0  0  1  0  0  0  0  0999 V2000
    9.4782  -19.1828   17.4794 C   0  0  0  0  0  0  0  0  0  0  0  0
    8.0623  -18.6593   17.5502 C   0  0  1  0  0  0  0  0  0  0  0  0
    7.5844  -18.9360   18.8422 O   0  0  0  0  0  0  0  0  0  0  0  0
    7.9810  -17.1775   17.3232 C   0  0  2  0  0  0  0  0  0  0  0  0
    8.3257  -16.8853   15.9564 N   0  0  0  0  0  0  0  0  0  0  0  0
    8.7444  -16.3859   18.2915 C   0  0  0  0  0  0  0  0  0  0  0  0
    9.9862  -16.2292   18.1986 O   0  0  0  0  0  0  0  0  0  0  0  0
    7.2574  -12.9706   19.8878 C   0  0  0  0  0  0  0  0  0  0  0  0
    7.8131  -13.8826   20.9330 C   0  0  1  0  0  0  0  0  0  0  0  0
    6.6609  -14.5197   21.6746 C   0  0  0  0  0  0  0  0  0  0  0  0
    8.7428  -14.9271   20.3534 C   0  0  2  0  0  0  0  0  0  0  0  0
    8.0817  -15.7620   19.3848 N   0  0  0  0  0  0  0  0  0  0  0  0
    9.2996  -15.7137   21.4849 C   0  0  0  0  0  0  0  0  0  0  0  0
    8.8286  -16.8678   21.6561 O   0  0  0  0  0  0  0  0  0  0  0  0
   13.0863  -17.8661   24.1408 N   0  0  0  0  0  0  0  0  0  0  0  0
   13.5618  -16.6738   23.5437 C   0  0  0  0  0  0  0  0  0  0  0  0
   14.7928  -16.4671   23.5170 O   0  0  0  0  0  0  0  0  0  0  0  0
   12.6400  -15.6813   22.9584 C   0  0  0  0  0  0  0  0  0  0  0  0
   11.2146  -16.1899   22.9762 C   0  0  2  0  0  0  0  0  0  0  0  0
   10.3009  -15.2586   22.3606 N   0  0  0  0  0  0  0  0  0  0  0  0
   10.8048  -16.3888   24.3836 C   0  0  0  0  0  0  0  0  0  0  0  0
    9.9045  -15.6584   24.8810 O   0  0  0  0  0  0  0  0  0  0  0  0
   11.4148  -17.3747   25.1390 O   0  0  0  0  0  0  0  0  0  0  0  0
  2  3  1  0
  2  1  1  1
  4  2  1  0
  4  5  1  6
  6 12  1  0
  6  4  1  0
  7  6  2  0
  9  8  1  6
  9 11  1  0
 10  9  1  0
 11 12  1  6
 11 13  1  0
 13 20  1  0
 14 13  2  0
 16 15  1  0
 17 16  2  0
 18 16  1  0
 19 21  1  0
 19 18  1  1
 20 19  1  0
 21 23  1  0
 22 21  2  0
M  END
$$$$
