TVN.pdb
     RDKit          3D

 23 22  0  0  1  0  0  0  0  0999 V2000
    6.8458  -19.4281   16.8563 C   0  0  0  0  0  0  0  0  0  0  0  0
    7.5240  -18.6081   17.9294 C   0  0  1  0  0  0  0  0  0  0  0  0
    8.5969  -19.3732   18.4169 O   0  0  0  0  0  0  0  0  0  0  0  0
    8.0677  -17.3093   17.4085 C   0  0  2  0  0  0  0  0  0  0  0  0
    8.9017  -17.5670   16.2638 N   0  0  0  0  0  0  0  0  0  0  0  0
    8.7272  -16.4900   18.4287 C   0  0  0  0  0  0  0  0  0  0  0  0
    9.9750  -16.4595   18.5602 O   0  0  0  0  0  0  0  0  0  0  0  0
    8.0498  -13.1522   22.1048 C   0  0  0  0  0  0  0  0  0  0  0  0
    7.5350  -13.8714   20.9003 C   0  0  1  0  0  0  0  0  0  0  0  0
    7.2054  -12.8498   19.8368 C   0  0  0  0  0  0  0  0  0  0  0  0
    8.5096  -14.9095   20.3868 C   0  0  2  0  0  0  0  0  0  0  0  0
    7.9518  -15.6917   19.3147 N   0  0  0  0  0  0  0  0  0  0  0  0
    8.9212  -15.7519   21.5401 C   0  0  0  0  0  0  0  0  0  0  0  0
    8.0761  -16.5828   21.9626 O   0  0  0  0  0  0  0  0  0  0  0  0
   13.6273  -16.7986   21.5603 N   0  0  0  0  0  0  0  0  0  0  0  0
   12.5660  -17.3934   22.2844 C   0  0  0  0  0  0  0  0  0  0  0  0
   12.1304  -18.5009   21.9070 O   0  0  0  0  0  0  0  0  0  0  0  0
   11.9715  -16.7363   23.4644 C   0  0  0  0  0  0  0  0  0  0  0  0
   10.4800  -16.5509   23.2865 C   0  0  2  0  0  0  0  0  0  0  0  0
   10.1721  -15.6808   22.1778 N   0  0  0  0  0  0  0  0  0  0  0  0
    9.9313  -15.9496   24.5217 C   0  0  0  0  0  0  0  0  0  0  0  0
    9.9417  -16.6108   25.5960 O   0  0  0  0  0  0  0  0  0  0  0  0
    9.4121  -14.6675   24.4841 O   0  0  0  0  0  0  0  0  0  0  0  0
  2  3  1  0
  2  1  1  6
  4  2  1  0
  4  5  1  6
  6 12  1  0
  6  4  1  0
  7  6  2  0
  9  8  1  1
  9 11  1  0
 10  9  1  0
 11 12  1  6
 11 13  1  0
 13 20  1  0
 14 13  2  0
 16 15  1  0
 17 16  2  0
 18 16  1  0
 19 21  1  0
 19 18  1  1
 20 19  1  0
 21 23  1  0
 22 21  2  0
M  END
$$$$
