TVN.pdb
     RDKit          3D

 23 22  0  0  1  0  0  0  0  0999 V2000
    6.9389  -19.2731   16.4120 C   0  0  0  0  0  0  0  0  0  0  0  0
    7.5703  -18.5155   17.5571 C   0  0  1  0  0  0  0  0  0  0  0  0
    8.5748  -19.3392   18.0924 O   0  0  0  0  0  0  0  0  0  0  0  0
    8.2001  -17.2249   17.1199 C   0  0  2  0  0  0  0  0  0  0  0  0
    9.0930  -17.4792   16.0197 N   0  0  0  0  0  0  0  0  0  0  0  0
    8.8280  -16.4718   18.2088 C   0  0  0  0  0  0  0  0  0  0  0  0
   10.0701  -16.4634   18.3887 O   0  0  0  0  0  0  0  0  0  0  0  0
    7.9963  -13.2750   21.9808 C   0  0  0  0  0  0  0  0  0  0  0  0
    7.5375  -13.9393   20.7233 C   0  0  1  0  0  0  0  0  0  0  0  0
    7.1987  -12.8687   19.7121 C   0  0  0  0  0  0  0  0  0  0  0  0
    8.5607  -14.9119   20.1772 C   0  0  2  0  0  0  0  0  0  0  0  0
    8.0269  -15.7154   19.1087 N   0  0  0  0  0  0  0  0  0  0  0  0
    9.0475  -15.7395   21.3118 C   0  0  0  0  0  0  0  0  0  0  0  0
    8.3266  -16.7134   21.6505 O   0  0  0  0  0  0  0  0  0  0  0  0
   12.9994  -18.7293   23.7740 N   0  0  0  0  0  0  0  0  0  0  0  0
   12.7480  -17.3710   24.0845 C   0  0  0  0  0  0  0  0  0  0  0  0
   12.9482  -16.9767   25.2520 O   0  0  0  0  0  0  0  0  0  0  0  0
   12.2591  -16.4227   23.0651 C   0  0  0  0  0  0  0  0  0  0  0  0
   10.7529  -16.4959   22.9359 C   0  0  2  0  0  0  0  0  0  0  0  0
   10.2408  -15.5076   22.0182 N   0  0  0  0  0  0  0  0  0  0  0  0
   10.1553  -16.2544   24.2674 C   0  0  0  0  0  0  0  0  0  0  0  0
    9.9114  -15.0733   24.6375 O   0  0  0  0  0  0  0  0  0  0  0  0
    9.8708  -17.3282   25.0924 O   0  0  0  0  0  0  0  0  0  0  0  0
  2  3  1  0
  2  1  1  6
  4  2  1  0
  4  5  1  6
  6 12  1  0
  6  4  1  0
  7  6  2  0
  9  8  1  1
  9 11  1  0
 10  9  1  0
 11 12  1  6
 11 13  1  0
 13 20  1  0
 14 13  2  0
 16 15  1  0
 17 16  2  0
 18 16  1  0
 19 21  1  0
 19 18  1  1
 20 19  1  0
 21 23  1  0
 22 21  2  0
M  END
$$$$
