TVN.pdb
     RDKit          3D

 23 22  0  0  1  0  0  0  0  0999 V2000
    6.5767  -19.6511   17.0844 C   0  0  0  0  0  0  0  0  0  0  0  0
    7.2824  -18.7542   18.0750 C   0  0  1  0  0  0  0  0  0  0  0  0
    8.2766  -19.5283   18.6968 O   0  0  0  0  0  0  0  0  0  0  0  0
    7.9417  -17.5749   17.4206 C   0  0  2  0  0  0  0  0  0  0  0  0
    8.7893  -18.0353   16.3520 N   0  0  0  0  0  0  0  0  0  0  0  0
    8.6298  -16.6835   18.3582 C   0  0  0  0  0  0  0  0  0  0  0  0
    9.8305  -16.8507   18.6833 O   0  0  0  0  0  0  0  0  0  0  0  0
    6.3025  -13.8743   20.6866 C   0  0  0  0  0  0  0  0  0  0  0  0
    7.6370  -13.4745   20.1462 C   0  0  1  0  0  0  0  0  0  0  0  0
    8.2795  -12.5135   21.1194 C   0  0  0  0  0  0  0  0  0  0  0  0
    8.5305  -14.6655   19.8737 C   0  0  2  0  0  0  0  0  0  0  0  0
    7.9382  -15.5827   18.9356 N   0  0  0  0  0  0  0  0  0  0  0  0
    8.8303  -15.3127   21.1777 C   0  0  0  0  0  0  0  0  0  0  0  0
    7.8714  -15.8843   21.7581 O   0  0  0  0  0  0  0  0  0  0  0  0
    9.8899  -19.4152   23.9271 N   0  0  0  0  0  0  0  0  0  0  0  0
   10.8524  -18.7405   23.1378 C   0  0  0  0  0  0  0  0  0  0  0  0
   12.0589  -19.0192   23.2966 O   0  0  0  0  0  0  0  0  0  0  0  0
   10.4605  -17.7250   22.1413 C   0  0  0  0  0  0  0  0  0  0  0  0
   10.4274  -16.3442   22.7600 C   0  0  2  0  0  0  0  0  0  0  0  0
   10.0943  -15.3267   21.7930 N   0  0  0  0  0  0  0  0  0  0  0  0
   11.7663  -16.0456   23.3135 C   0  0  0  0  0  0  0  0  0  0  0  0
   12.1990  -16.7106   24.2943 O   0  0  0  0  0  0  0  0  0  0  0  0
   12.5292  -15.0390   22.7484 O   0  0  0  0  0  0  0  0  0  0  0  0
  2  3  1  0
  2  1  1  6
  4  2  1  0
  4  5  1  6
  6 12  1  0
  6  4  1  0
  7  6  2  0
  9  8  1  1
  9 11  1  0
 10  9  1  0
 11 12  1  6
 11 13  1  0
 13 20  1  0
 14 13  2  0
 16 15  1  0
 17 16  2  0
 18 16  1  0
 19 21  1  0
 19 18  1  6
 20 19  1  0
 21 23  1  0
 22 21  2  0
M  END
$$$$
