TVN.pdb
     RDKit          3D

 23 22  0  0  1  0  0  0  0  0999 V2000
    7.5797  -19.5862   17.3698 C   0  0  0  0  0  0  0  0  0  0  0  0
    8.1116  -18.5289   18.3095 C   0  0  1  0  0  0  0  0  0  0  0  0
    9.2547  -19.0636   18.9273 O   0  0  0  0  0  0  0  0  0  0  0  0
    8.5053  -17.2670   17.5978 C   0  0  2  0  0  0  0  0  0  0  0  0
    9.3702  -17.5926   16.4941 N   0  0  0  0  0  0  0  0  0  0  0  0
    9.0599  -16.2365   18.4796 C   0  0  0  0  0  0  0  0  0  0  0  0
   10.2734  -15.9167   18.4562 O   0  0  0  0  0  0  0  0  0  0  0  0
    7.9978  -12.8086   21.9766 C   0  0  0  0  0  0  0  0  0  0  0  0
    7.5552  -13.7132   20.8726 C   0  0  1  0  0  0  0  0  0  0  0  0
    6.9352  -12.8705   19.7823 C   0  0  0  0  0  0  0  0  0  0  0  0
    8.6847  -14.5668   20.3372 C   0  0  2  0  0  0  0  0  0  0  0  0
    8.2177  -15.5586   19.4041 N   0  0  0  0  0  0  0  0  0  0  0  0
    9.3814  -15.1754   21.5005 C   0  0  0  0  0  0  0  0  0  0  0  0
    9.9565  -14.3838   22.2916 O   0  0  0  0  0  0  0  0  0  0  0  0
   12.9495  -16.8562   20.7864 N   0  0  0  0  0  0  0  0  0  0  0  0
   12.5739  -17.2304   22.0992 C   0  0  0  0  0  0  0  0  0  0  0  0
   13.0718  -18.2633   22.5931 O   0  0  0  0  0  0  0  0  0  0  0  0
   11.6155  -16.4310   22.8866 C   0  0  0  0  0  0  0  0  0  0  0  0
   10.2377  -17.0566   22.8591 C   0  0  2  0  0  0  0  0  0  0  0  0
    9.4378  -16.5543   21.7686 N   0  0  0  0  0  0  0  0  0  0  0  0
    9.5518  -16.7374   24.1303 C   0  0  0  0  0  0  0  0  0  0  0  0
   10.0372  -17.1448   25.2211 O   0  0  0  0  0  0  0  0  0  0  0  0
    8.3844  -15.9949   24.1080 O   0  0  0  0  0  0  0  0  0  0  0  0
  2  3  1  0
  2  1  1  6
  4  2  1  0
  4  5  1  6
  6 12  1  0
  6  4  1  0
  7  6  2  0
  9  8  1  1
  9 11  1  0
 10  9  1  0
 11 12  1  6
 11 13  1  0
 13 20  1  0
 14 13  2  0
 16 15  1  0
 17 16  2  0
 18 16  1  0
 19 21  1  0
 19 18  1  1
 20 19  1  0
 21 23  1  0
 22 21  2  0
M  END
$$$$
