GQN.pdb
     RDKit          3D

 22 21  0  0  1  0  0  0  0  0999 V2000
    9.4185  -16.1393   18.0893 N   0  0  0  0  0  0  0  0  0  0  0  0
    8.7113  -16.6754   19.2461 C   0  0  0  0  0  0  0  0  0  0  0  0
    9.2657  -16.0860   20.4923 C   0  0  0  0  0  0  0  0  0  0  0  0
   10.2458  -15.3200   20.5296 O   0  0  0  0  0  0  0  0  0  0  0  0
    6.9977  -17.1557   25.7829 N   0  0  0  0  0  0  0  0  0  0  0  0
    6.3051  -17.3325   24.5554 C   0  0  0  0  0  0  0  0  0  0  0  0
    5.3551  -18.1209   24.4268 O   0  0  0  0  0  0  0  0  0  0  0  0
    6.7469  -16.5339   23.3851 C   0  0  0  0  0  0  0  0  0  0  0  0
    7.8445  -15.5425   23.7953 C   0  0  0  0  0  0  0  0  0  0  0  0
    9.0728  -15.9179   22.9988 C   0  0  2  0  0  0  0  0  0  0  0  0
    8.6402  -16.4155   21.7218 N   0  0  0  0  0  0  0  0  0  0  0  0
    9.9476  -16.8629   23.7233 C   0  0  0  0  0  0  0  0  0  0  0  0
    9.7784  -18.1010   23.6520 O   0  0  0  0  0  0  0  0  0  0  0  0
   14.2926  -15.2811   23.6339 N   0  0  0  0  0  0  0  0  0  0  0  0
   13.9190  -16.6139   23.9779 C   0  0  0  0  0  0  0  0  0  0  0  0
   14.1634  -17.5104   23.1425 O   0  0  0  0  0  0  0  0  0  0  0  0
   13.2754  -16.8566   25.2799 C   0  0  0  0  0  0  0  0  0  0  0  0
   11.8695  -17.3230   25.2457 C   0  0  2  0  0  0  0  0  0  0  0  0
   11.0044  -16.3730   24.5196 N   0  0  0  0  0  0  0  0  0  0  0  0
   11.2718  -17.5913   26.5888 C   0  0  0  0  0  0  0  0  0  0  0  0
   11.9301  -18.5103   27.4138 O   0  0  0  0  0  0  0  0  0  0  0  0
   10.2491  -17.0801   27.0503 O   0  0  0  0  0  0  0  0  0  0  0  0
  2  1  1  0
  2  3  1  0
  3  4  2  0
  3 11  1  0
  6  5  1  0
  6  7  2  0
  8  6  1  0
  9  8  1  0
 10 12  1  0
 10  9  1  1
 11 10  1  0
 12 13  2  0
 15 14  1  0
 16 15  2  0
 17 15  1  0
 18 17  1  1
 19 12  1  0
 19 18  1  0
 20 21  1  0
 20 18  1  0
 22 20  2  0
M  END
$$$$
