GQN.pdb
     RDKit          3D

 22 21  0  0  1  0  0  0  0  0999 V2000
    4.8564  -19.9977   20.8563 N   0  0  0  0  0  0  0  0  0  0  0  0
    4.7428  -18.6013   21.2597 C   0  0  0  0  0  0  0  0  0  0  0  0
    6.0916  -17.9797   21.3064 C   0  0  0  0  0  0  0  0  0  0  0  0
    7.1492  -18.6125   21.4794 O   0  0  0  0  0  0  0  0  0  0  0  0
    7.4877  -12.2953   18.9910 N   0  0  0  0  0  0  0  0  0  0  0  0
    8.7200  -12.8507   19.4279 C   0  0  0  0  0  0  0  0  0  0  0  0
    9.8199  -12.4677   18.9988 O   0  0  0  0  0  0  0  0  0  0  0  0
    8.6752  -13.9343   20.4410 C   0  0  0  0  0  0  0  0  0  0  0  0
    7.2683  -14.5435   20.5136 C   0  0  0  0  0  0  0  0  0  0  0  0
    7.4038  -15.8289   21.2967 C   0  0  2  0  0  0  0  0  0  0  0  0
    6.1844  -16.5738   21.1440 N   0  0  0  0  0  0  0  0  0  0  0  0
    7.7661  -15.5928   22.7096 C   0  0  0  0  0  0  0  0  0  0  0  0
    6.8940  -15.4396   23.5943 O   0  0  0  0  0  0  0  0  0  0  0  0
    6.1033  -15.7090   26.0154 N   0  0  0  0  0  0  0  0  0  0  0  0
    7.5027  -15.4336   26.0202 C   0  0  0  0  0  0  0  0  0  0  0  0
    7.8866  -14.4314   26.6602 O   0  0  0  0  0  0  0  0  0  0  0  0
    8.4051  -16.3327   25.2815 C   0  0  0  0  0  0  0  0  0  0  0  0
    9.4923  -15.6886   24.5079 C   0  0  2  0  0  0  0  0  0  0  0  0
    9.1246  -15.5358   23.0868 N   0  0  0  0  0  0  0  0  0  0  0  0
   10.8116  -16.3853   24.5933 C   0  0  0  0  0  0  0  0  0  0  0  0
   11.3146  -16.6556   25.8710 O   0  0  0  0  0  0  0  0  0  0  0  0
   11.5088  -16.7515   23.6447 O   0  0  0  0  0  0  0  0  0  0  0  0
  2  1  1  0
  2  3  1  0
  3  4  2  0
  3 11  1  0
  6  5  1  0
  6  7  2  0
  8  6  1  0
  9  8  1  0
 10 12  1  0
 10  9  1  6
 11 10  1  0
 12 13  2  0
 15 14  1  0
 16 15  2  0
 17 15  1  0
 18 17  1  1
 19 12  1  0
 19 18  1  0
 20 21  1  0
 20 18  1  0
 22 20  2  0
M  END
$$$$
