GQN.pdb
     RDKit          3D

 22 21  0  0  1  0  0  0  0  0999 V2000
    7.7973  -15.0028   18.8820 N   0  0  0  0  0  0  0  0  0  0  0  0
    6.8890  -14.8377   20.0105 C   0  0  0  0  0  0  0  0  0  0  0  0
    7.6684  -14.6062   21.2542 C   0  0  0  0  0  0  0  0  0  0  0  0
    8.9045  -14.7242   21.3387 O   0  0  0  0  0  0  0  0  0  0  0  0
    6.9821  -11.1638   27.4844 N   0  0  0  0  0  0  0  0  0  0  0  0
    6.4557  -12.3328   26.8728 C   0  0  0  0  0  0  0  0  0  0  0  0
    5.3072  -12.7484   27.0938 O   0  0  0  0  0  0  0  0  0  0  0  0
    7.3272  -13.0790   25.9314 C   0  0  0  0  0  0  0  0  0  0  0  0
    6.6058  -13.3035   24.5953 C   0  0  0  0  0  0  0  0  0  0  0  0
    7.5784  -14.0469   23.7091 C   0  0  2  0  0  0  0  0  0  0  0  0
    6.9617  -14.2261   22.4235 N   0  0  0  0  0  0  0  0  0  0  0  0
    8.0369  -15.3145   24.3142 C   0  0  0  0  0  0  0  0  0  0  0  0
    7.2922  -16.3186   24.3785 O   0  0  0  0  0  0  0  0  0  0  0  0
   13.2160  -18.3046   24.6839 N   0  0  0  0  0  0  0  0  0  0  0  0
   11.7943  -18.2987   24.5705 C   0  0  0  0  0  0  0  0  0  0  0  0
   11.2058  -19.3941   24.6934 O   0  0  0  0  0  0  0  0  0  0  0  0
   11.1081  -17.0204   24.3187 C   0  0  0  0  0  0  0  0  0  0  0  0
    9.9088  -16.7403   25.1425 C   0  0  2  0  0  0  0  0  0  0  0  0
    9.3439  -15.4116   24.8370 N   0  0  0  0  0  0  0  0  0  0  0  0
   10.1305  -16.8437   26.6167 C   0  0  0  0  0  0  0  0  0  0  0  0
   10.4993  -15.6765   27.2950 O   0  0  0  0  0  0  0  0  0  0  0  0
   10.0193  -17.8612   27.3040 O   0  0  0  0  0  0  0  0  0  0  0  0
  2  1  1  0
  2  3  1  0
  3  4  2  0
  3 11  1  0
  6  5  1  0
  6  7  2  0
  8  6  1  0
  9  8  1  0
 10 12  1  0
 10  9  1  1
 11 10  1  0
 12 13  2  0
 15 14  1  0
 16 15  2  0
 17 15  1  0
 18 17  1  6
 19 12  1  0
 19 18  1  0
 20 21  1  0
 20 18  1  0
 22 20  2  0
M  END
$$$$
