GQN.pdb
     RDKit          3D

 22 21  0  0  1  0  0  0  0  0999 V2000
    7.6340  -13.0637   19.5958 N   0  0  0  0  0  0  0  0  0  0  0  0
    7.0198  -13.7562   20.7223 C   0  0  0  0  0  0  0  0  0  0  0  0
    7.8778  -13.6165   21.9273 C   0  0  0  0  0  0  0  0  0  0  0  0
    9.0530  -13.2075   21.9072 O   0  0  0  0  0  0  0  0  0  0  0  0
    6.8147  -10.6857   27.1405 N   0  0  0  0  0  0  0  0  0  0  0  0
    6.0549  -11.8256   26.7650 C   0  0  0  0  0  0  0  0  0  0  0  0
    5.2119  -12.3476   27.5116 O   0  0  0  0  0  0  0  0  0  0  0  0
    6.2894  -12.4067   25.4196 C   0  0  0  0  0  0  0  0  0  0  0  0
    6.9836  -13.7705   25.5375 C   0  0  0  0  0  0  0  0  0  0  0  0
    8.0162  -13.8162   24.4350 C   0  0  2  0  0  0  0  0  0  0  0  0
    7.3256  -13.9716   23.1844 N   0  0  0  0  0  0  0  0  0  0  0  0
    9.0407  -14.8559   24.6649 C   0  0  0  0  0  0  0  0  0  0  0  0
    9.6849  -14.9175   25.7363 O   0  0  0  0  0  0  0  0  0  0  0  0
    9.2176  -17.6837   21.4483 N   0  0  0  0  0  0  0  0  0  0  0  0
    9.2342  -18.6228   22.5216 C   0  0  0  0  0  0  0  0  0  0  0  0
    8.7790  -19.7635   22.2910 O   0  0  0  0  0  0  0  0  0  0  0  0
    9.7792  -18.2027   23.8234 C   0  0  0  0  0  0  0  0  0  0  0  0
   10.3469  -16.8358   23.8924 C   0  0  2  0  0  0  0  0  0  0  0  0
    9.3112  -15.8102   23.6613 N   0  0  0  0  0  0  0  0  0  0  0  0
   11.4875  -16.5897   22.9588 C   0  0  0  0  0  0  0  0  0  0  0  0
   12.6373  -17.3692   23.1286 O   0  0  0  0  0  0  0  0  0  0  0  0
   11.5196  -15.7635   22.0442 O   0  0  0  0  0  0  0  0  0  0  0  0
  2  1  1  0
  2  3  1  0
  3  4  2  0
  3 11  1  0
  6  5  1  0
  6  7  2  0
  8  6  1  0
  9  8  1  0
 10 12  1  0
 10  9  1  1
 11 10  1  0
 12 13  2  0
 15 14  1  0
 16 15  2  0
 17 15  1  0
 18 17  1  6
 19 12  1  0
 19 18  1  0
 20 21  1  0
 20 18  1  0
 22 20  2  0
M  END
$$$$
