GQN.pdb
     RDKit          3D

 22 21  0  0  1  0  0  0  0  0999 V2000
    4.0579  -18.9828   21.4230 N   0  0  0  0  0  0  0  0  0  0  0  0
    4.2686  -17.5405   21.3900 C   0  0  0  0  0  0  0  0  0  0  0  0
    5.7204  -17.2416   21.4938 C   0  0  0  0  0  0  0  0  0  0  0  0
    6.6008  -18.1002   21.6850 O   0  0  0  0  0  0  0  0  0  0  0  0
    7.9662  -11.8473   19.4568 N   0  0  0  0  0  0  0  0  0  0  0  0
    7.7260  -13.0186   18.6900 C   0  0  0  0  0  0  0  0  0  0  0  0
    7.6158  -13.0023   17.4539 O   0  0  0  0  0  0  0  0  0  0  0  0
    7.6039  -14.3101   19.4110 C   0  0  0  0  0  0  0  0  0  0  0  0
    7.6274  -14.0820   20.9286 C   0  0  0  0  0  0  0  0  0  0  0  0
    7.4865  -15.4461   21.5637 C   0  0  2  0  0  0  0  0  0  0  0  0
    6.1342  -15.8909   21.3675 N   0  0  0  0  0  0  0  0  0  0  0  0
    7.8992  -15.4528   22.9825 C   0  0  0  0  0  0  0  0  0  0  0  0
    7.1056  -15.1407   23.8986 O   0  0  0  0  0  0  0  0  0  0  0  0
    6.4196  -17.0412   26.4020 N   0  0  0  0  0  0  0  0  0  0  0  0
    7.8456  -17.0220   26.4189 C   0  0  0  0  0  0  0  0  0  0  0  0
    8.4017  -16.7734   27.5099 O   0  0  0  0  0  0  0  0  0  0  0  0
    8.5735  -17.2926   25.1678 C   0  0  0  0  0  0  0  0  0  0  0  0
    9.5150  -16.2438   24.7106 C   0  0  2  0  0  0  0  0  0  0  0  0
    9.2173  -15.8179   23.3293 N   0  0  0  0  0  0  0  0  0  0  0  0
   10.9576  -16.6236   24.7988 C   0  0  0  0  0  0  0  0  0  0  0  0
   11.5014  -17.3378   23.7252 O   0  0  0  0  0  0  0  0  0  0  0  0
   11.7262  -16.3686   25.7285 O   0  0  0  0  0  0  0  0  0  0  0  0
  2  1  1  0
  2  3  1  0
  3  4  2  0
  3 11  1  0
  6  5  1  0
  6  7  2  0
  8  6  1  0
  9  8  1  0
 10 12  1  0
 10  9  1  1
 11 10  1  0
 12 13  2  0
 15 14  1  0
 16 15  2  0
 17 15  1  0
 18 17  1  6
 19 12  1  0
 19 18  1  0
 20 21  1  0
 20 18  1  0
 22 20  2  0
M  END
$$$$
