GQN.pdb
     RDKit          3D

 22 21  0  0  1  0  0  0  0  0999 V2000
    6.8782  -13.2481   19.4254 N   0  0  0  0  0  0  0  0  0  0  0  0
    8.2467  -12.7632   19.2917 C   0  0  0  0  0  0  0  0  0  0  0  0
    9.1964  -13.9009   19.3991 C   0  0  0  0  0  0  0  0  0  0  0  0
    8.8643  -15.0668   19.6805 O   0  0  0  0  0  0  0  0  0  0  0  0
   15.5318  -13.9853   17.3056 N   0  0  0  0  0  0  0  0  0  0  0  0
   14.7420  -15.1655   17.3369 C   0  0  0  0  0  0  0  0  0  0  0  0
   14.8186  -16.0491   16.4687 O   0  0  0  0  0  0  0  0  0  0  0  0
   13.7888  -15.3360   18.4617 C   0  0  0  0  0  0  0  0  0  0  0  0
   12.8132  -14.1526   18.5225 C   0  0  0  0  0  0  0  0  0  0  0  0
   11.6016  -14.6418   19.2820 C   0  0  2  0  0  0  0  0  0  0  0  0
   10.5721  -13.6458   19.1668 N   0  0  0  0  0  0  0  0  0  0  0  0
   11.9172  -14.9905   20.6827 C   0  0  0  0  0  0  0  0  0  0  0  0
   12.3195  -14.1309   21.4988 O   0  0  0  0  0  0  0  0  0  0  0  0
    8.4824  -17.3626   23.6701 N   0  0  0  0  0  0  0  0  0  0  0  0
    9.7749  -16.7604   23.7042 C   0  0  0  0  0  0  0  0  0  0  0  0
    9.8708  -15.6420   24.2530 O   0  0  0  0  0  0  0  0  0  0  0  0
   10.9087  -17.4796   23.0996 C   0  0  0  0  0  0  0  0  0  0  0  0
   12.0017  -16.6457   22.5472 C   0  0  2  0  0  0  0  0  0  0  0  0
   11.7664  -16.3213   21.1268 N   0  0  0  0  0  0  0  0  0  0  0  0
   13.3663  -17.2385   22.6877 C   0  0  0  0  0  0  0  0  0  0  0  0
   14.0783  -17.4994   21.5115 O   0  0  0  0  0  0  0  0  0  0  0  0
   13.9357  -17.5227   23.7436 O   0  0  0  0  0  0  0  0  0  0  0  0
  2  1  1  0
  2  3  1  0
  3  4  2  0
  3 11  1  0
  6  5  1  0
  6  7  2  0
  8  6  1  0
  9  8  1  0
 10 12  1  0
 10  9  1  1
 11 10  1  0
 12 13  2  0
 15 14  1  0
 16 15  2  0
 17 15  1  0
 18 17  1  6
 19 12  1  0
 19 18  1  0
 20 21  1  0
 20 18  1  0
 22 20  2  0
M  END
$$$$
