GQN.pdb
     RDKit          3D

 22 21  0  0  1  0  0  0  0  0999 V2000
    7.6388  -20.5795   23.1046 N   0  0  0  0  0  0  0  0  0  0  0  0
    9.0193  -20.1715   23.3353 C   0  0  0  0  0  0  0  0  0  0  0  0
    9.8118  -21.3303   23.8221 C   0  0  0  0  0  0  0  0  0  0  0  0
    9.3328  -22.4513   24.0723 O   0  0  0  0  0  0  0  0  0  0  0  0
   15.9856  -23.2328   26.2597 N   0  0  0  0  0  0  0  0  0  0  0  0
   15.5569  -22.6467   25.0389 C   0  0  0  0  0  0  0  0  0  0  0  0
   16.1864  -21.7406   24.4704 O   0  0  0  0  0  0  0  0  0  0  0  0
   14.3010  -23.1492   24.4283 C   0  0  0  0  0  0  0  0  0  0  0  0
   13.4417  -21.9797   23.9285 C   0  0  0  0  0  0  0  0  0  0  0  0
   12.0759  -22.1628   24.5492 C   0  0  2  0  0  0  0  0  0  0  0  0
   11.2054  -21.1515   24.0156 N   0  0  0  0  0  0  0  0  0  0  0  0
   12.1237  -22.1667   26.0260 C   0  0  0  0  0  0  0  0  0  0  0  0
   12.6672  -23.0971   26.6629 O   0  0  0  0  0  0  0  0  0  0  0  0
   11.1003  -23.6680   30.7576 N   0  0  0  0  0  0  0  0  0  0  0  0
   10.5633  -22.4994   30.1410 C   0  0  0  0  0  0  0  0  0  0  0  0
    9.9952  -21.6703   30.8835 O   0  0  0  0  0  0  0  0  0  0  0  0
   10.7062  -22.3364   28.6846 C   0  0  0  0  0  0  0  0  0  0  0  0
   11.4942  -21.1692   28.2241 C   0  0  2  0  0  0  0  0  0  0  0  0
   11.5467  -21.1023   26.7507 N   0  0  0  0  0  0  0  0  0  0  0  0
   12.8878  -21.1105   28.7604 C   0  0  0  0  0  0  0  0  0  0  0  0
   13.8573  -20.4894   27.9650 O   0  0  0  0  0  0  0  0  0  0  0  0
   13.2748  -21.5560   29.8429 O   0  0  0  0  0  0  0  0  0  0  0  0
  2  1  1  0
  2  3  1  0
  3  4  2  0
  3 11  1  0
  6  5  1  0
  6  7  2  0
  8  6  1  0
  9  8  1  0
 10 12  1  0
 10  9  1  6
 11 10  1  0
 12 13  2  0
 15 14  1  0
 16 15  2  0
 17 15  1  0
 18 17  1  6
 19 12  1  0
 19 18  1  0
 20 21  1  0
 20 18  1  0
 22 20  2  0
M  END
$$$$
