GQN.pdb
     RDKit          3D

 22 21  0  0  1  0  0  0  0  0999 V2000
    2.4435  -18.5570   20.9759 N   0  0  0  0  0  0  0  0  0  0  0  0
    3.6559  -18.9501   21.6839 C   0  0  0  0  0  0  0  0  0  0  0  0
    4.4927  -17.7521   21.9523 C   0  0  0  0  0  0  0  0  0  0  0  0
    4.3112  -16.6385   21.4271 O   0  0  0  0  0  0  0  0  0  0  0  0
    8.1149  -17.1203   27.0981 N   0  0  0  0  0  0  0  0  0  0  0  0
    8.1198  -15.8473   26.4679 C   0  0  0  0  0  0  0  0  0  0  0  0
    8.4568  -14.8073   27.0556 O   0  0  0  0  0  0  0  0  0  0  0  0
    7.7018  -15.7725   25.0458 C   0  0  0  0  0  0  0  0  0  0  0  0
    6.8646  -17.0020   24.6671 C   0  0  0  0  0  0  0  0  0  0  0  0
    6.4463  -16.8021   23.2287 C   0  0  2  0  0  0  0  0  0  0  0  0
    5.5698  -17.8816   22.8660 N   0  0  0  0  0  0  0  0  0  0  0  0
    7.6026  -16.6633   22.3193 C   0  0  0  0  0  0  0  0  0  0  0  0
    8.2146  -17.6621   21.8782 O   0  0  0  0  0  0  0  0  0  0  0  0
    7.4186  -12.5358   19.2598 N   0  0  0  0  0  0  0  0  0  0  0  0
    8.1322  -13.7702   19.2971 C   0  0  0  0  0  0  0  0  0  0  0  0
    7.8184  -14.6383   18.4548 O   0  0  0  0  0  0  0  0  0  0  0  0
    9.1844  -13.9509   20.3112 C   0  0  0  0  0  0  0  0  0  0  0  0
    9.1988  -15.2494   21.0248 C   0  0  2  0  0  0  0  0  0  0  0  0
    8.0399  -15.3797   21.9292 N   0  0  0  0  0  0  0  0  0  0  0  0
   10.4485  -15.5183   21.7989 C   0  0  0  0  0  0  0  0  0  0  0  0
   11.6566  -15.5110   21.0925 O   0  0  0  0  0  0  0  0  0  0  0  0
   10.5257  -15.7467   23.0079 O   0  0  0  0  0  0  0  0  0  0  0  0
  2  1  1  0
  2  3  1  0
  3  4  2  0
  3 11  1  0
  6  5  1  0
  6  7  2  0
  8  6  1  0
  9  8  1  0
 10 12  1  0
 10  9  1  1
 11 10  1  0
 12 13  2  0
 15 14  1  0
 16 15  2  0
 17 15  1  0
 18 17  1  1
 19 12  1  0
 19 18  1  0
 20 21  1  0
 20 18  1  0
 22 20  2  0
M  END
$$$$
