GQN.pdb
     RDKit          3D

 22 21  0  0  1  0  0  0  0  0999 V2000
   10.6723  -16.2935   13.9105 N   0  0  0  0  0  0  0  0  0  0  0  0
   10.2453  -16.6350   15.2620 C   0  0  0  0  0  0  0  0  0  0  0  0
   10.8234  -15.6689   16.2317 C   0  0  0  0  0  0  0  0  0  0  0  0
   11.8632  -15.0143   16.0334 O   0  0  0  0  0  0  0  0  0  0  0  0
    7.2138  -11.8458   19.9761 N   0  0  0  0  0  0  0  0  0  0  0  0
    7.4859  -13.2110   19.6932 C   0  0  0  0  0  0  0  0  0  0  0  0
    6.7872  -14.1400   20.1282 O   0  0  0  0  0  0  0  0  0  0  0  0
    8.6587  -13.5251   18.8397 C   0  0  0  0  0  0  0  0  0  0  0  0
    9.6101  -14.4850   19.5670 C   0  0  0  0  0  0  0  0  0  0  0  0
   10.7230  -14.7963   18.5931 C   0  0  2  0  0  0  0  0  0  0  0  0
   10.1497  -15.4773   17.4649 N   0  0  0  0  0  0  0  0  0  0  0  0
   11.8296  -15.5464   19.2224 C   0  0  0  0  0  0  0  0  0  0  0  0
   11.8804  -16.7965   19.1845 O   0  0  0  0  0  0  0  0  0  0  0  0
   15.8049  -13.4426   18.3381 N   0  0  0  0  0  0  0  0  0  0  0  0
   15.6753  -14.7657   18.8548 C   0  0  0  0  0  0  0  0  0  0  0  0
   15.9127  -15.7112   18.0731 O   0  0  0  0  0  0  0  0  0  0  0  0
   15.2749  -14.9421   20.2608 C   0  0  0  0  0  0  0  0  0  0  0  0
   13.9720  -15.6065   20.4988 C   0  0  2  0  0  0  0  0  0  0  0  0
   12.8622  -14.8508   19.8862 N   0  0  0  0  0  0  0  0  0  0  0  0
   13.6537  -15.8507   21.9383 C   0  0  0  0  0  0  0  0  0  0  0  0
   14.5626  -16.6168   22.6769 O   0  0  0  0  0  0  0  0  0  0  0  0
   12.6638  -15.4414   22.5488 O   0  0  0  0  0  0  0  0  0  0  0  0
  2  1  1  0
  2  3  1  0
  3  4  2  0
  3 11  1  0
  6  5  1  0
  6  7  2  0
  8  6  1  0
  9  8  1  0
 10 12  1  0
 10  9  1  1
 11 10  1  0
 12 13  2  0
 15 14  1  0
 16 15  2  0
 17 15  1  0
 18 17  1  1
 19 12  1  0
 19 18  1  0
 20 21  1  0
 20 18  1  0
 22 20  2  0
M  END
$$$$
