GQN.pdb
     RDKit          3D

 22 21  0  0  1  0  0  0  0  0999 V2000
    8.2386  -20.3339   19.2098 N   0  0  0  0  0  0  0  0  0  0  0  0
    7.6971  -19.1700   19.9010 C   0  0  0  0  0  0  0  0  0  0  0  0
    8.7430  -18.1207   20.0150 C   0  0  0  0  0  0  0  0  0  0  0  0
    9.9579  -18.3197   19.8332 O   0  0  0  0  0  0  0  0  0  0  0  0
    7.3272  -12.1308   19.6162 N   0  0  0  0  0  0  0  0  0  0  0  0
    7.3921  -13.1259   18.6046 C   0  0  0  0  0  0  0  0  0  0  0  0
    6.9179  -12.9626   17.4693 O   0  0  0  0  0  0  0  0  0  0  0  0
    8.0585  -14.4107   18.9331 C   0  0  0  0  0  0  0  0  0  0  0  0
    8.5010  -14.4253   20.4028 C   0  0  0  0  0  0  0  0  0  0  0  0
    9.2463  -15.7241   20.6072 C   0  0  2  0  0  0  0  0  0  0  0  0
    8.3344  -16.8053   20.3530 N   0  0  0  0  0  0  0  0  0  0  0  0
    9.8847  -15.8044   21.9373 C   0  0  0  0  0  0  0  0  0  0  0  0
    9.2078  -15.8372   22.9897 O   0  0  0  0  0  0  0  0  0  0  0  0
   12.6210  -19.2886   25.0340 N   0  0  0  0  0  0  0  0  0  0  0  0
   12.0547  -17.9804   25.0809 C   0  0  0  0  0  0  0  0  0  0  0  0
   12.1591  -17.3498   26.1546 O   0  0  0  0  0  0  0  0  0  0  0  0
   11.3882  -17.4525   23.8787 C   0  0  0  0  0  0  0  0  0  0  0  0
   11.9167  -16.1795   23.3349 C   0  0  2  0  0  0  0  0  0  0  0  0
   11.2913  -15.8460   22.0404 N   0  0  0  0  0  0  0  0  0  0  0  0
   13.4023  -16.1408   23.1781 C   0  0  0  0  0  0  0  0  0  0  0  0
   13.9184  -16.3346   21.8918 O   0  0  0  0  0  0  0  0  0  0  0  0
   14.2282  -15.9523   24.0738 O   0  0  0  0  0  0  0  0  0  0  0  0
  2  1  1  0
  2  3  1  0
  3  4  2  0
  3 11  1  0
  6  5  1  0
  6  7  2  0
  8  6  1  0
  9  8  1  0
 10 12  1  0
 10  9  1  1
 11 10  1  0
 12 13  2  0
 15 14  1  0
 16 15  2  0
 17 15  1  0
 18 17  1  6
 19 12  1  0
 19 18  1  0
 20 21  1  0
 20 18  1  0
 22 20  2  0
M  END
$$$$
