GQN.pdb
     RDKit          3D

 22 21  0  0  1  0  0  0  0  0999 V2000
   12.4362  -15.2955   16.1271 N   0  0  0  0  0  0  0  0  0  0  0  0
   11.4224  -15.8833   16.9945 C   0  0  0  0  0  0  0  0  0  0  0  0
   11.4891  -15.2591   18.3413 C   0  0  0  0  0  0  0  0  0  0  0  0
   12.5151  -14.7495   18.8274 O   0  0  0  0  0  0  0  0  0  0  0  0
    7.3466  -12.7089   18.1047 N   0  0  0  0  0  0  0  0  0  0  0  0
    7.6581  -13.7877   18.9747 C   0  0  0  0  0  0  0  0  0  0  0  0
    7.4144  -14.9715   18.6920 O   0  0  0  0  0  0  0  0  0  0  0  0
    8.3024  -13.4712   20.2737 C   0  0  0  0  0  0  0  0  0  0  0  0
    8.8315  -14.7507   20.9362 C   0  0  0  0  0  0  0  0  0  0  0  0
   10.2781  -14.8768   20.5173 C   0  0  2  0  0  0  0  0  0  0  0  0
   10.3088  -15.2410   19.1274 N   0  0  0  0  0  0  0  0  0  0  0  0
   11.0351  -15.8091   21.3781 C   0  0  0  0  0  0  0  0  0  0  0  0
   11.2022  -17.0081   21.0596 O   0  0  0  0  0  0  0  0  0  0  0  0
   15.0821  -14.6734   21.0903 N   0  0  0  0  0  0  0  0  0  0  0  0
   14.6399  -15.8023   21.8416 C   0  0  0  0  0  0  0  0  0  0  0  0
   14.8566  -16.9332   21.3562 O   0  0  0  0  0  0  0  0  0  0  0  0
   13.9624  -15.5762   23.1293 C   0  0  0  0  0  0  0  0  0  0  0  0
   12.6115  -16.1662   23.2781 C   0  0  2  0  0  0  0  0  0  0  0  0
   11.5895  -15.3518   22.5923 N   0  0  0  0  0  0  0  0  0  0  0  0
   12.1834  -16.3878   24.6927 C   0  0  0  0  0  0  0  0  0  0  0  0
   11.0121  -15.7505   25.1174 O   0  0  0  0  0  0  0  0  0  0  0  0
   12.7608  -17.0823   25.5319 O   0  0  0  0  0  0  0  0  0  0  0  0
  2  1  1  0
  2  3  1  0
  3  4  2  0
  3 11  1  0
  6  5  1  0
  6  7  2  0
  8  6  1  0
  9  8  1  0
 10 12  1  0
 10  9  1  1
 11 10  1  0
 12 13  2  0
 15 14  1  0
 16 15  2  0
 17 15  1  0
 18 17  1  1
 19 12  1  0
 19 18  1  0
 20 21  1  0
 20 18  1  0
 22 20  2  0
M  END
$$$$
