GQN.pdb
     RDKit          3D

 22 21  0  0  1  0  0  0  0  0999 V2000
   -4.7185  -15.5351   14.5967 N   0  0  0  0  0  0  0  0  0  0  0  0
   -4.7481  -16.9220   15.0457 C   0  0  0  0  0  0  0  0  0  0  0  0
   -4.0811  -17.0370   16.3684 C   0  0  0  0  0  0  0  0  0  0  0  0
   -3.1675  -16.2882   16.7601 O   0  0  0  0  0  0  0  0  0  0  0  0
   -6.9915  -19.2993   21.2160 N   0  0  0  0  0  0  0  0  0  0  0  0
   -6.8761  -17.9347   20.8389 C   0  0  0  0  0  0  0  0  0  0  0  0
   -7.6257  -17.0493   21.2803 O   0  0  0  0  0  0  0  0  0  0  0  0
   -5.8090  -17.5662   19.8755 C   0  0  0  0  0  0  0  0  0  0  0  0
   -5.0115  -18.8090   19.4566 C   0  0  0  0  0  0  0  0  0  0  0  0
   -3.9216  -18.3200   18.5309 C   0  0  2  0  0  0  0  0  0  0  0  0
   -4.5105  -18.0661   17.2449 N   0  0  0  0  0  0  0  0  0  0  0  0
   -2.7745  -19.2493   18.4702 C   0  0  0  0  0  0  0  0  0  0  0  0
   -2.5762  -19.9836   17.4760 O   0  0  0  0  0  0  0  0  0  0  0  0
    2.6890  -19.9245   17.9459 N   0  0  0  0  0  0  0  0  0  0  0  0
    1.4654  -20.5883   18.2563 C   0  0  0  0  0  0  0  0  0  0  0  0
    1.5031  -21.8315   18.3760 O   0  0  0  0  0  0  0  0  0  0  0  0
    0.2428  -19.7835   18.4168 C   0  0  0  0  0  0  0  0  0  0  0  0
   -0.7055  -20.2237   19.4667 C   0  0  2  0  0  0  0  0  0  0  0  0
   -1.8712  -19.3226   19.5517 N   0  0  0  0  0  0  0  0  0  0  0  0
   -0.1036  -20.3647   20.8272 C   0  0  0  0  0  0  0  0  0  0  0  0
    0.1874  -21.6598   21.2706 O   0  0  0  0  0  0  0  0  0  0  0  0
    0.1673  -19.4484   21.6063 O   0  0  0  0  0  0  0  0  0  0  0  0
  2  1  1  0
  2  3  1  0
  3  4  2  0
  3 11  1  0
  6  5  1  0
  6  7  2  0
  8  6  1  0
  9  8  1  0
 10 12  1  0
 10  9  1  1
 11 10  1  0
 12 13  2  0
 15 14  1  0
 16 15  2  0
 17 15  1  0
 18 17  1  6
 19 12  1  0
 19 18  1  0
 20 21  1  0
 20 18  1  0
 22 20  2  0
M  END
$$$$
