GQN.pdb
     RDKit          3D

 22 21  0  0  1  0  0  0  0  0999 V2000
    1.2783  -19.8755   17.6374 N   0  0  0  0  0  0  0  0  0  0  0  0
    0.3937  -20.6300   18.5172 C   0  0  0  0  0  0  0  0  0  0  0  0
    0.8513  -20.4978   19.9246 C   0  0  0  0  0  0  0  0  0  0  0  0
    1.9024  -19.9272   20.2691 O   0  0  0  0  0  0  0  0  0  0  0  0
   -2.8974  -21.2779   25.0046 N   0  0  0  0  0  0  0  0  0  0  0  0
   -1.6624  -20.7712   25.4903 C   0  0  0  0  0  0  0  0  0  0  0  0
   -1.5452  -20.2415   26.6066 O   0  0  0  0  0  0  0  0  0  0  0  0
   -0.4695  -20.8872   24.6149 C   0  0  0  0  0  0  0  0  0  0  0  0
   -0.8897  -20.9430   23.1397 C   0  0  0  0  0  0  0  0  0  0  0  0
    0.3882  -21.0468   22.3395 C   0  0  2  0  0  0  0  0  0  0  0  0
    0.0406  -21.0569   20.9451 N   0  0  0  0  0  0  0  0  0  0  0  0
    1.2118  -22.2062   22.7404 C   0  0  0  0  0  0  0  0  0  0  0  0
    0.8790  -23.3784   22.4540 O   0  0  0  0  0  0  0  0  0  0  0  0
    5.8766  -21.8118   21.6284 N   0  0  0  0  0  0  0  0  0  0  0  0
    4.9946  -22.8440   22.0652 C   0  0  0  0  0  0  0  0  0  0  0  0
    4.5480  -23.6214   21.1948 O   0  0  0  0  0  0  0  0  0  0  0  0
    4.6640  -22.9355   23.4972 C   0  0  0  0  0  0  0  0  0  0  0  0
    3.2392  -23.1643   23.8334 C   0  0  2  0  0  0  0  0  0  0  0  0
    2.4058  -22.0035   23.4644 N   0  0  0  0  0  0  0  0  0  0  0  0
    2.9865  -23.5045   25.2664 C   0  0  0  0  0  0  0  0  0  0  0  0
    3.6631  -24.6102   25.7938 O   0  0  0  0  0  0  0  0  0  0  0  0
    2.2372  -22.9045   26.0401 O   0  0  0  0  0  0  0  0  0  0  0  0
  2  1  1  0
  2  3  1  0
  3  4  2  0
  3 11  1  0
  6  5  1  0
  6  7  2  0
  8  6  1  0
  9  8  1  0
 10 12  1  0
 10  9  1  1
 11 10  1  0
 12 13  2  0
 15 14  1  0
 16 15  2  0
 17 15  1  0
 18 17  1  1
 19 12  1  0
 19 18  1  0
 20 21  1  0
 20 18  1  0
 22 20  2  0
M  END
$$$$
