PGI.pdb
     RDKit          3D

 20 20  0  0  1  0  0  0  0  0999 V2000
   28.1760  -18.6675  -17.3229 N   0  0  0  0  0  0  0  0  0  0  0  0
   28.0365  -17.6127  -18.2770 C   0  0  0  0  0  0  0  0  0  0  0  0
   28.7477  -16.4276  -17.6229 C   0  0  0  0  0  0  0  0  0  0  0  0
   28.4728  -16.6280  -16.1666 C   0  0  0  0  0  0  0  0  0  0  0  0
   28.1236  -18.0923  -16.0310 C   0  0  1  0  0  0  0  0  0  0  0  0
   26.7868  -18.2330  -15.4030 C   0  0  0  0  0  0  0  0  0  0  0  0
   26.6115  -17.7498  -14.2199 O   0  0  0  0  0  0  0  0  0  0  0  0
   25.7212  -18.8771  -16.0721 N   0  0  0  0  0  0  0  0  0  0  0  0
   24.4266  -18.8418  -15.4610 C   0  0  0  0  0  0  0  0  0  0  0  0
   24.1565  -20.0495  -14.6326 C   0  0  0  0  0  0  0  0  0  0  0  0
   23.5157  -21.0383  -15.0508 O   0  0  0  0  0  0  0  0  0  0  0  0
   25.7092  -20.3220   -8.8997 C   0  0  0  0  0  0  0  0  0  0  0  0
   25.1173  -20.0224  -10.2576 C   0  0  0  0  0  0  0  0  0  0  0  0
   25.3130  -21.1106  -11.2439 C   0  0  2  0  0  0  0  0  0  0  0  0
   26.7371  -21.2090  -11.7532 C   0  0  0  0  0  0  0  0  0  0  0  0
   24.3055  -21.1237  -12.3381 C   0  0  2  0  0  0  0  0  0  0  0  0
   24.6491  -20.0716  -13.3179 N   0  0  0  0  0  0  0  0  0  0  0  0
   22.8990  -21.0369  -11.9539 C   0  0  0  0  0  0  0  0  0  0  0  0
   22.1497  -22.1556  -11.5355 O   0  0  0  0  0  0  0  0  0  0  0  0
   22.2431  -19.9692  -11.9633 O   0  0  0  0  0  0  0  0  0  0  0  0
  1  2  1  0
  3  2  1  0
  4  5  1  0
  4  3  1  0
  5  1  1  0
  5  6  1  6
  6  7  2  0
  8  6  1  0
  9 10  1  0
  9  8  1  0
 10 17  1  0
 11 10  2  0
 12 13  1  0
 14 16  1  0
 14 15  1  6
 14 13  1  0
 16 17  1  6
 18 19  1  0
 18 16  1  0
 20 18  2  0
M  END
$$$$
