PGI.pdb
     RDKit          3D

 20 20  0  0  1  0  0  0  0  0999 V2000
   26.2893  -21.7131  -16.3248 N   0  0  0  0  0  0  0  0  0  0  0  0
   25.0445  -22.3978  -16.4795 C   0  0  0  0  0  0  0  0  0  0  0  0
   24.2096  -21.4540  -17.3456 C   0  0  0  0  0  0  0  0  0  0  0  0
   24.6648  -20.0986  -16.9072 C   0  0  0  0  0  0  0  0  0  0  0  0
   26.0161  -20.3257  -16.2693 C   0  0  1  0  0  0  0  0  0  0  0  0
   26.0084  -19.8059  -14.8797 C   0  0  0  0  0  0  0  0  0  0  0  0
   24.8780  -19.4688  -14.3576 O   0  0  0  0  0  0  0  0  0  0  0  0
   27.2017  -19.6783  -14.1329 N   0  0  0  0  0  0  0  0  0  0  0  0
   27.1058  -19.1721  -12.7967 C   0  0  0  0  0  0  0  0  0  0  0  0
   26.7924  -20.2392  -11.8064 C   0  0  0  0  0  0  0  0  0  0  0  0
   26.7502  -21.4542  -12.0982 O   0  0  0  0  0  0  0  0  0  0  0  0
   27.8692  -19.0701   -6.3829 C   0  0  0  0  0  0  0  0  0  0  0  0
   26.9389  -19.2939   -7.5527 C   0  0  0  0  0  0  0  0  0  0  0  0
   27.1820  -20.5674   -8.2698 C   0  0  2  0  0  0  0  0  0  0  0  0
   28.6334  -20.7700   -8.6563 C   0  0  0  0  0  0  0  0  0  0  0  0
   26.2434  -20.8158   -9.3967 C   0  0  2  0  0  0  0  0  0  0  0  0
   26.5325  -19.8541  -10.4813 N   0  0  0  0  0  0  0  0  0  0  0  0
   24.8163  -20.8365   -9.0868 C   0  0  0  0  0  0  0  0  0  0  0  0
   24.2191  -21.8406   -8.2975 O   0  0  0  0  0  0  0  0  0  0  0  0
   24.0068  -19.9704   -9.4930 O   0  0  0  0  0  0  0  0  0  0  0  0
  1  2  1  0
  3  2  1  0
  4  5  1  0
  4  3  1  0
  5  1  1  0
  5  6  1  1
  6  7  2  0
  8  6  1  0
  9 10  1  0
  9  8  1  0
 10 17  1  0
 11 10  2  0
 12 13  1  0
 14 16  1  0
 14 15  1  6
 14 13  1  0
 16 17  1  6
 18 19  1  0
 18 16  1  0
 20 18  2  0
M  END
$$$$
