PGI.pdb
     RDKit          3D

 20 20  0  0  1  0  0  0  0  0999 V2000
   25.0298  -18.8184  -15.7896 N   0  0  0  0  0  0  0  0  0  0  0  0
   24.1462  -18.2083  -14.8465 C   0  0  0  0  0  0  0  0  0  0  0  0
   24.5816  -16.7426  -14.8279 C   0  0  0  0  0  0  0  0  0  0  0  0
   26.0585  -16.8241  -15.0482 C   0  0  0  0  0  0  0  0  0  0  0  0
   26.2867  -18.1768  -15.6828 C   0  0  1  0  0  0  0  0  0  0  0  0
   27.2521  -18.9560  -14.8693 C   0  0  0  0  0  0  0  0  0  0  0  0
   28.3430  -18.3791  -14.4934 O   0  0  0  0  0  0  0  0  0  0  0  0
   26.9969  -20.2980  -14.5060 N   0  0  0  0  0  0  0  0  0  0  0  0
   27.8934  -20.9247  -13.5816 C   0  0  0  0  0  0  0  0  0  0  0  0
   27.2277  -21.2818  -12.2983 C   0  0  0  0  0  0  0  0  0  0  0  0
   27.6120  -22.2179  -11.5640 O   0  0  0  0  0  0  0  0  0  0  0  0
   26.8536  -19.2791   -7.9763 C   0  0  0  0  0  0  0  0  0  0  0  0
   26.6437  -20.2534   -9.1125 C   0  0  0  0  0  0  0  0  0  0  0  0
   25.2664  -20.2411   -9.6586 C   0  0  2  0  0  0  0  0  0  0  0  0
   24.2101  -20.5874   -8.6285 C   0  0  0  0  0  0  0  0  0  0  0  0
   25.1112  -21.0051  -10.9254 C   0  0  2  0  0  0  0  0  0  0  0  0
   26.1140  -20.5252  -11.8998 N   0  0  0  0  0  0  0  0  0  0  0  0
   23.7801  -21.0431  -11.5253 C   0  0  0  0  0  0  0  0  0  0  0  0
   23.4900  -20.4711  -12.7809 O   0  0  0  0  0  0  0  0  0  0  0  0
   22.7897  -21.5831  -10.9795 O   0  0  0  0  0  0  0  0  0  0  0  0
  1  2  1  0
  3  2  1  0
  4  5  1  0
  4  3  1  0
  5  1  1  0
  5  6  1  1
  6  7  2  0
  8  6  1  0
  9 10  1  0
  9  8  1  0
 10 17  1  0
 11 10  2  0
 12 13  1  0
 14 16  1  0
 14 15  1  1
 14 13  1  0
 16 17  1  6
 18 19  1  0
 18 16  1  0
 20 18  2  0
M  END
$$$$
