PGI.pdb
     RDKit          3D

 20 20  0  0  1  0  0  0  0  0999 V2000
   26.9418  -20.7930  -17.4382 N   0  0  0  0  0  0  0  0  0  0  0  0
   27.5689  -19.7690  -18.2132 C   0  0  0  0  0  0  0  0  0  0  0  0
   28.9461  -20.3466  -18.5417 C   0  0  0  0  0  0  0  0  0  0  0  0
   29.2746  -21.1540  -17.3266 C   0  0  0  0  0  0  0  0  0  0  0  0
   27.9436  -21.4240  -16.6631 C   0  0  1  0  0  0  0  0  0  0  0  0
   27.9713  -20.9303  -15.2643 C   0  0  0  0  0  0  0  0  0  0  0  0
   28.8524  -21.4193  -14.4590 O   0  0  0  0  0  0  0  0  0  0  0  0
   27.0620  -19.9479  -14.8103 N   0  0  0  0  0  0  0  0  0  0  0  0
   27.1520  -19.5314  -13.4431 C   0  0  0  0  0  0  0  0  0  0  0  0
   26.3221  -20.3731  -12.5373 C   0  0  0  0  0  0  0  0  0  0  0  0
   25.6170  -21.3239  -12.9399 O   0  0  0  0  0  0  0  0  0  0  0  0
   27.7076  -19.5884   -7.2966 C   0  0  0  0  0  0  0  0  0  0  0  0
   27.3021  -20.3317   -8.5485 C   0  0  0  0  0  0  0  0  0  0  0  0
   25.8445  -20.2988   -8.8129 C   0  0  2  0  0  0  0  0  0  0  0  0
   25.0229  -20.9594   -7.7241 C   0  0  0  0  0  0  0  0  0  0  0  0
   25.4671  -20.7527  -10.1782 C   0  0  2  0  0  0  0  0  0  0  0  0
   26.3373  -20.0783  -11.1645 N   0  0  0  0  0  0  0  0  0  0  0  0
   24.0617  -20.6346  -10.5581 C   0  0  0  0  0  0  0  0  0  0  0  0
   23.5162  -19.4606  -11.1168 O   0  0  0  0  0  0  0  0  0  0  0  0
   23.2272  -21.5593  -10.4209 O   0  0  0  0  0  0  0  0  0  0  0  0
  1  2  1  0
  3  2  1  0
  4  5  1  0
  4  3  1  0
  5  1  1  0
  5  6  1  1
  6  7  2  0
  8  6  1  0
  9 10  1  0
  9  8  1  0
 10 17  1  0
 11 10  2  0
 12 13  1  0
 14 16  1  0
 14 15  1  1
 14 13  1  0
 16 17  1  6
 18 19  1  0
 18 16  1  0
 20 18  2  0
M  END
$$$$
