PGI.pdb
     RDKit          3D

 20 20  0  0  1  0  0  0  0  0999 V2000
   25.2910  -20.2573  -11.7484 N   0  0  0  0  0  0  0  0  0  0  0  0
   24.5790  -21.4524  -11.4213 C   0  0  0  0  0  0  0  0  0  0  0  0
   25.6184  -22.5603  -11.5960 C   0  0  0  0  0  0  0  0  0  0  0  0
   26.4576  -22.0632  -12.7295 C   0  0  0  0  0  0  0  0  0  0  0  0
   26.2173  -20.5715  -12.7711 C   0  0  1  0  0  0  0  0  0  0  0  0
   25.7293  -20.1794  -14.1162 C   0  0  0  0  0  0  0  0  0  0  0  0
   26.5007  -20.3797  -15.1305 O   0  0  0  0  0  0  0  0  0  0  0  0
   24.4527  -19.6005  -14.2983 N   0  0  0  0  0  0  0  0  0  0  0  0
   24.2036  -18.8966  -15.5203 C   0  0  0  0  0  0  0  0  0  0  0  0
   23.7584  -17.4947  -15.2875 C   0  0  0  0  0  0  0  0  0  0  0  0
   23.0692  -17.1489  -14.3034 O   0  0  0  0  0  0  0  0  0  0  0  0
   27.3559  -13.9402  -15.6311 C   0  0  0  0  0  0  0  0  0  0  0  0
   26.0581  -14.6632  -15.3532 C   0  0  0  0  0  0  0  0  0  0  0  0
   24.9447  -14.2456  -16.2371 C   0  0  2  0  0  0  0  0  0  0  0  0
   24.6325  -12.7651  -16.1492 C   0  0  0  0  0  0  0  0  0  0  0  0
   23.7319  -15.0998  -16.1267 C   0  0  2  0  0  0  0  0  0  0  0  0
   24.1352  -16.5186  -16.2239 N   0  0  0  0  0  0  0  0  0  0  0  0
   22.6247  -14.8107  -17.0344 C   0  0  0  0  0  0  0  0  0  0  0  0
   22.5383  -15.3530  -18.3330 O   0  0  0  0  0  0  0  0  0  0  0  0
   21.6645  -14.0617  -16.7390 O   0  0  0  0  0  0  0  0  0  0  0  0
  1  2  1  0
  3  2  1  0
  4  5  1  0
  4  3  1  0
  5  1  1  0
  5  6  1  6
  6  7  2  0
  8  6  1  0
  9 10  1  0
  9  8  1  0
 10 17  1  0
 11 10  2  0
 12 13  1  0
 14 16  1  0
 14 15  1  1
 14 13  1  0
 16 17  1  6
 18 19  1  0
 18 16  1  0
 20 18  2  0
M  END
$$$$
