PGI.pdb
     RDKit          3D

 20 20  0  0  1  0  0  0  0  0999 V2000
   22.5289  -21.0165  -12.4452 N   0  0  0  0  0  0  0  0  0  0  0  0
   21.9264  -19.9166  -13.1304 C   0  0  0  0  0  0  0  0  0  0  0  0
   22.2536  -20.1748  -14.6016 C   0  0  0  0  0  0  0  0  0  0  0  0
   23.6015  -20.8196  -14.5417 C   0  0  0  0  0  0  0  0  0  0  0  0
   23.7177  -21.3564  -13.1336 C   0  0  1  0  0  0  0  0  0  0  0  0
   24.9279  -20.7978  -12.4822 C   0  0  0  0  0  0  0  0  0  0  0  0
   26.0816  -21.0856  -12.9825 O   0  0  0  0  0  0  0  0  0  0  0  0
   24.8357  -19.9683  -11.3414 N   0  0  0  0  0  0  0  0  0  0  0  0
   26.0523  -19.4646  -10.7782 C   0  0  0  0  0  0  0  0  0  0  0  0
   26.5669  -20.3247   -9.6768 C   0  0  0  0  0  0  0  0  0  0  0  0
   26.9465  -21.5036   -9.8481 O   0  0  0  0  0  0  0  0  0  0  0  0
   29.7796  -19.5676   -4.6235 C   0  0  0  0  0  0  0  0  0  0  0  0
   28.7440  -20.4037   -5.3394 C   0  0  0  0  0  0  0  0  0  0  0  0
   28.0964  -19.7040   -6.4735 C   0  0  2  0  0  0  0  0  0  0  0  0
   27.5699  -18.3305   -6.1085 C   0  0  0  0  0  0  0  0  0  0  0  0
   27.0984  -20.5305   -7.2038 C   0  0  2  0  0  0  0  0  0  0  0  0
   26.6257  -19.7778   -8.3849 N   0  0  0  0  0  0  0  0  0  0  0  0
   25.9716  -21.0534   -6.4355 C   0  0  0  0  0  0  0  0  0  0  0  0
   24.6547  -20.5722   -6.5846 O   0  0  0  0  0  0  0  0  0  0  0  0
   26.0782  -21.9671   -5.5846 O   0  0  0  0  0  0  0  0  0  0  0  0
  1  2  1  0
  3  2  1  0
  4  5  1  0
  4  3  1  0
  5  1  1  0
  5  6  1  1
  6  7  2  0
  8  6  1  0
  9 10  1  0
  9  8  1  0
 10 17  1  0
 11 10  2  0
 12 13  1  0
 14 16  1  0
 14 15  1  1
 14 13  1  0
 16 17  1  6
 18 19  1  0
 18 16  1  0
 20 18  2  0
M  END
$$$$
