PGI.pdb
     RDKit          3D

 20 20  0  0  1  0  0  0  0  0999 V2000
   13.4316  -12.3999  -10.8521 N   0  0  0  0  0  0  0  0  0  0  0  0
   12.2412  -11.8400  -10.2937 C   0  0  0  0  0  0  0  0  0  0  0  0
   11.2494  -11.8469  -11.4575 C   0  0  0  0  0  0  0  0  0  0  0  0
   12.1203  -11.5990  -12.6476 C   0  0  0  0  0  0  0  0  0  0  0  0
   13.5121  -11.9862  -12.2031 C   0  0  1  0  0  0  0  0  0  0  0  0
   14.4353  -10.8399  -12.3895 C   0  0  0  0  0  0  0  0  0  0  0  0
   14.5109  -10.2974  -13.5574 O   0  0  0  0  0  0  0  0  0  0  0  0
   15.2186  -10.3422  -11.3233 N   0  0  0  0  0  0  0  0  0  0  0  0
   16.0737   -9.2236  -11.5846 C   0  0  0  0  0  0  0  0  0  0  0  0
   15.3946   -7.9207  -11.3416 C   0  0  0  0  0  0  0  0  0  0  0  0
   14.3815   -7.5478  -11.9723 O   0  0  0  0  0  0  0  0  0  0  0  0
   13.7702   -4.9481   -6.4814 C   0  0  0  0  0  0  0  0  0  0  0  0
   14.3437   -4.7377   -7.8638 C   0  0  0  0  0  0  0  0  0  0  0  0
   14.9174   -5.9658   -8.4620 C   0  0  2  0  0  0  0  0  0  0  0  0
   16.0443   -6.5618   -7.6422 C   0  0  0  0  0  0  0  0  0  0  0  0
   15.2584   -5.8339   -9.9038 C   0  0  2  0  0  0  0  0  0  0  0  0
   15.9239   -7.0747  -10.3538 N   0  0  0  0  0  0  0  0  0  0  0  0
   16.0254   -4.6576  -10.3053 C   0  0  0  0  0  0  0  0  0  0  0  0
   17.4066   -4.7036  -10.5853 O   0  0  0  0  0  0  0  0  0  0  0  0
   15.5255   -3.5158  -10.4342 O   0  0  0  0  0  0  0  0  0  0  0  0
  1  2  1  0
  3  2  1  0
  4  5  1  0
  4  3  1  0
  5  1  1  0
  5  6  1  1
  6  7  2  0
  8  6  1  0
  9 10  1  0
  9  8  1  0
 10 17  1  0
 11 10  2  0
 12 13  1  0
 14 16  1  0
 14 15  1  1
 14 13  1  0
 16 17  1  1
 18 19  1  0
 18 16  1  0
 20 18  2  0
M  END
$$$$
