PGI.pdb
     RDKit          3D

 20 20  0  0  1  0  0  0  0  0999 V2000
   25.8925  -21.0106  -15.4009 N   0  0  0  0  0  0  0  0  0  0  0  0
   24.6685  -21.4671  -14.8215 C   0  0  0  0  0  0  0  0  0  0  0  0
   23.7753  -20.2259  -14.8209 C   0  0  0  0  0  0  0  0  0  0  0  0
   24.7443  -19.1102  -14.5914 C   0  0  0  0  0  0  0  0  0  0  0  0
   26.0893  -19.6691  -14.9956 C   0  0  1  0  0  0  0  0  0  0  0  0
   27.0409  -19.5542  -13.8632 C   0  0  0  0  0  0  0  0  0  0  0  0
   27.1598  -18.4118  -13.2759 O   0  0  0  0  0  0  0  0  0  0  0  0
   27.8049  -20.6602  -13.4261 N   0  0  0  0  0  0  0  0  0  0  0  0
   28.6910  -20.4673  -12.3178 C   0  0  0  0  0  0  0  0  0  0  0  0
   28.1401  -21.0168  -11.0480 C   0  0  0  0  0  0  0  0  0  0  0  0
   28.7752  -21.7981  -10.3067 O   0  0  0  0  0  0  0  0  0  0  0  0
   27.6049  -19.1510   -6.5368 C   0  0  0  0  0  0  0  0  0  0  0  0
   26.8236  -19.4474   -7.7961 C   0  0  0  0  0  0  0  0  0  0  0  0
   26.9695  -20.8433   -8.2708 C   0  0  2  0  0  0  0  0  0  0  0  0
   28.4137  -21.2832   -8.4043 C   0  0  0  0  0  0  0  0  0  0  0  0
   26.1547  -21.1613   -9.4739 C   0  0  2  0  0  0  0  0  0  0  0  0
   26.8428  -20.6340  -10.6712 N   0  0  0  0  0  0  0  0  0  0  0  0
   24.7520  -20.7544   -9.4590 C   0  0  0  0  0  0  0  0  0  0  0  0
   24.1931  -19.8989  -10.4305 O   0  0  0  0  0  0  0  0  0  0  0  0
   23.9319  -21.1278   -8.5882 O   0  0  0  0  0  0  0  0  0  0  0  0
  1  2  1  0
  3  2  1  0
  4  5  1  0
  4  3  1  0
  5  1  1  0
  5  6  1  1
  6  7  2  0
  8  6  1  0
  9 10  1  0
  9  8  1  0
 10 17  1  0
 11 10  2  0
 12 13  1  0
 14 16  1  0
 14 15  1  6
 14 13  1  0
 16 17  1  6
 18 19  1  0
 18 16  1  0
 20 18  2  0
M  END
$$$$
