PGI.pdb
     RDKit          3D

 20 20  0  0  1  0  0  0  0  0999 V2000
   27.0946  -18.5770  -18.2555 N   0  0  0  0  0  0  0  0  0  0  0  0
   27.0937  -17.3039  -18.9048 C   0  0  0  0  0  0  0  0  0  0  0  0
   28.2295  -16.5410  -18.2221 C   0  0  0  0  0  0  0  0  0  0  0  0
   28.1856  -17.0518  -16.8173 C   0  0  0  0  0  0  0  0  0  0  0  0
   27.4553  -18.3724  -16.9024 C   0  0  1  0  0  0  0  0  0  0  0  0
   26.2781  -18.3537  -15.9998 C   0  0  0  0  0  0  0  0  0  0  0  0
   26.4714  -18.1265  -14.7448 O   0  0  0  0  0  0  0  0  0  0  0  0
   24.9703  -18.5763  -16.4878 N   0  0  0  0  0  0  0  0  0  0  0  0
   23.8830  -18.4803  -15.5608 C   0  0  0  0  0  0  0  0  0  0  0  0
   23.7031  -19.7264  -14.7655 C   0  0  0  0  0  0  0  0  0  0  0  0
   23.4512  -20.8376  -15.2802 O   0  0  0  0  0  0  0  0  0  0  0  0
   26.4105  -22.2079  -10.6113 C   0  0  0  0  0  0  0  0  0  0  0  0
   24.9749  -21.7514  -10.4895 C   0  0  0  0  0  0  0  0  0  0  0  0
   24.6635  -20.5489  -11.2971 C   0  0  2  0  0  0  0  0  0  0  0  0
   24.1759  -19.3787  -10.4665 C   0  0  0  0  0  0  0  0  0  0  0  0
   23.7997  -20.8200  -12.4774 C   0  0  2  0  0  0  0  0  0  0  0  0
   23.8239  -19.6413  -13.3691 N   0  0  0  0  0  0  0  0  0  0  0  0
   22.4275  -21.2478  -12.2183 C   0  0  0  0  0  0  0  0  0  0  0  0
   21.3603  -20.3403  -12.0585 O   0  0  0  0  0  0  0  0  0  0  0  0
   22.0840  -22.4486  -12.1165 O   0  0  0  0  0  0  0  0  0  0  0  0
  1  2  1  0
  3  2  1  0
  4  5  1  0
  4  3  1  0
  5  1  1  0
  5  6  1  1
  6  7  2  0
  8  6  1  0
  9 10  1  0
  9  8  1  0
 10 17  1  0
 11 10  2  0
 12 13  1  0
 14 16  1  0
 14 15  1  1
 14 13  1  0
 16 17  1  6
 18 19  1  0
 18 16  1  0
 20 18  2  0
M  END
$$$$
