PGI.pdb
     RDKit          3D

 20 20  0  0  1  0  0  0  0  0999 V2000
   25.6847  -17.8979  -14.6265 N   0  0  0  0  0  0  0  0  0  0  0  0
   26.3630  -16.6964  -14.2541 C   0  0  0  0  0  0  0  0  0  0  0  0
   27.0432  -16.2416  -15.5459 C   0  0  0  0  0  0  0  0  0  0  0  0
   27.3927  -17.5309  -16.2180 C   0  0  0  0  0  0  0  0  0  0  0  0
   26.4761  -18.5591  -15.5957 C   0  0  1  0  0  0  0  0  0  0  0  0
   27.2806  -19.6609  -15.0129 C   0  0  0  0  0  0  0  0  0  0  0  0
   28.0885  -20.3049  -15.7854 O   0  0  0  0  0  0  0  0  0  0  0  0
   27.1767  -20.0079  -13.6466 N   0  0  0  0  0  0  0  0  0  0  0  0
   27.7923  -21.2268  -13.2154 C   0  0  0  0  0  0  0  0  0  0  0  0
   27.6566  -21.4436  -11.7483 C   0  0  0  0  0  0  0  0  0  0  0  0
   28.2153  -22.3819  -11.1395 O   0  0  0  0  0  0  0  0  0  0  0  0
   27.5299  -19.2192   -7.1852 C   0  0  0  0  0  0  0  0  0  0  0  0
   27.3472  -20.1495   -8.3622 C   0  0  0  0  0  0  0  0  0  0  0  0
   25.9392  -20.2768   -8.8056 C   0  0  2  0  0  0  0  0  0  0  0  0
   25.0187  -20.8177   -7.7300 C   0  0  0  0  0  0  0  0  0  0  0  0
   25.7765  -20.9733  -10.1099 C   0  0  2  0  0  0  0  0  0  0  0  0
   26.8604  -20.5456  -11.0195 N   0  0  0  0  0  0  0  0  0  0  0  0
   24.4758  -20.8697  -10.7662 C   0  0  0  0  0  0  0  0  0  0  0  0
   24.2343  -20.0061  -11.8542 O   0  0  0  0  0  0  0  0  0  0  0  0
   23.4711  -21.5344  -10.4211 O   0  0  0  0  0  0  0  0  0  0  0  0
  1  2  1  0
  3  2  1  0
  4  5  1  0
  4  3  1  0
  5  1  1  0
  5  6  1  1
  6  7  2  0
  8  6  1  0
  9 10  1  0
  9  8  1  0
 10 17  1  0
 11 10  2  0
 12 13  1  0
 14 16  1  0
 14 15  1  1
 14 13  1  0
 16 17  1  6
 18 19  1  0
 18 16  1  0
 20 18  2  0
M  END
$$$$
