PGI.pdb
     RDKit          3D

 20 20  0  0  1  0  0  0  0  0999 V2000
   15.6577  -20.0596    3.0523 N   0  0  0  0  0  0  0  0  0  0  0  0
   16.4993  -20.6421    2.0550 C   0  0  0  0  0  0  0  0  0  0  0  0
   16.6567  -22.0942    2.5075 C   0  0  0  0  0  0  0  0  0  0  0  0
   16.6408  -21.9888    3.9992 C   0  0  0  0  0  0  0  0  0  0  0  0
   15.9731  -20.6648    4.2920 C   0  0  1  0  0  0  0  0  0  0  0  0
   16.8707  -19.8228    5.1204 C   0  0  0  0  0  0  0  0  0  0  0  0
   17.3336  -20.3166    6.2186 O   0  0  0  0  0  0  0  0  0  0  0  0
   17.2203  -18.5103    4.7291 N   0  0  0  0  0  0  0  0  0  0  0  0
   17.9414  -17.7010    5.6650 C   0  0  0  0  0  0  0  0  0  0  0  0
   17.4707  -16.2882    5.6749 C   0  0  0  0  0  0  0  0  0  0  0  0
   16.2781  -15.9644    5.8647 O   0  0  0  0  0  0  0  0  0  0  0  0
   21.0461  -12.5688    7.4100 C   0  0  0  0  0  0  0  0  0  0  0  0
   19.7950  -13.3436    7.0655 C   0  0  0  0  0  0  0  0  0  0  0  0
   19.2496  -13.0254    5.7251 C   0  0  2  0  0  0  0  0  0  0  0  0
   19.0357  -11.5417    5.5018 C   0  0  0  0  0  0  0  0  0  0  0  0
   18.0678  -13.8440    5.3431 C   0  0  2  0  0  0  0  0  0  0  0  0
   18.4189  -15.2752    5.4597 N   0  0  0  0  0  0  0  0  0  0  0  0
   17.4495  -13.5641    4.0498 C   0  0  0  0  0  0  0  0  0  0  0  0
   17.7028  -14.3360    2.8974 O   0  0  0  0  0  0  0  0  0  0  0  0
   16.6474  -12.6212    3.8553 O   0  0  0  0  0  0  0  0  0  0  0  0
  1  2  1  0
  3  2  1  0
  4  5  1  0
  4  3  1  0
  5  1  1  0
  5  6  1  6
  6  7  2  0
  8  6  1  0
  9 10  1  0
  9  8  1  0
 10 17  1  0
 11 10  2  0
 12 13  1  0
 14 16  1  0
 14 15  1  1
 14 13  1  0
 16 17  1  6
 18 19  1  0
 18 16  1  0
 20 18  2  0
M  END
$$$$
