CPH.pdb
     RDKit          3D

 24 25  0  0  1  0  0  0  0  0999 V2000
   21.4944  -28.4307  -13.2886 N   0  0  0  0  0  0  0  0  0  0  0  0
   20.4209  -27.5372  -13.6568 C   0  0  1  0  0  0  0  0  0  0  0  0
   19.4478  -28.4083  -14.4677 C   0  0  0  0  0  0  0  0  0  0  0  0
   17.8868  -27.5195  -14.6962 S   0  0  0  0  0  0  0  0  0  0  0  0
   19.7164  -27.0802  -12.3942 C   0  0  0  0  0  0  0  0  0  0  0  0
   19.3173  -28.0438  -11.6825 O   0  0  0  0  0  0  0  0  0  0  0  0
   19.5565  -25.7198  -12.1043 N   0  0  0  0  0  0  0  0  0  0  0  0
   20.5396  -24.7001  -12.5300 C   0  0  0  0  0  0  0  0  0  0  0  0
   19.6214  -23.6438  -13.0799 C   0  0  0  0  0  0  0  0  0  0  0  0
   18.2732  -23.8693  -12.4583 C   0  0  0  0  0  0  0  0  0  0  0  0
   18.6075  -24.9579  -11.3919 C   0  0  1  0  0  0  0  0  0  0  0  0
   17.3861  -25.5656  -10.9126 C   0  0  0  0  0  0  0  0  0  0  0  0
   16.6308  -26.2502  -11.6094 O   0  0  0  0  0  0  0  0  0  0  0  0
   17.0126  -25.3751   -9.5550 N   0  0  0  0  0  0  0  0  0  0  0  0
   15.7680  -25.9355   -9.0191 C   0  0  1  0  0  0  0  0  0  0  0  0
   16.1966  -26.8811   -7.9213 C   0  0  0  0  0  0  0  0  0  0  0  0
   16.9138  -26.2191   -6.8122 C   0  0  0  0  0  0  0  0  0  0  0  0
   18.2095  -25.7581   -6.7677 C   0  0  0  0  0  0  0  0  0  0  0  0
   18.4737  -25.2264   -5.5676 N   0  0  0  0  0  0  0  0  0  0  0  0
   17.3484  -25.3404   -4.8264 C   0  0  0  0  0  0  0  0  0  0  0  0
   16.4080  -25.9412   -5.5830 N   0  0  0  0  0  0  0  0  0  0  0  0
   14.9343  -24.8714   -8.4101 C   0  0  0  0  0  0  0  0  0  0  0  0
   15.3013  -23.6981   -8.2622 O   0  0  0  0  0  0  0  0  0  0  0  0
   13.6383  -25.1844   -7.9619 O   0  0  0  0  0  0  0  0  0  0  0  0
  2  1  1  1
  2  5  1  0
  3  2  1  0
  4  3  1  0
  5  6  2  0
  7 11  1  0
  7  5  1  0
  8  7  1  0
  9 10  1  0
  9  8  1  0
 10 11  1  0
 11 12  1  6
 12 13  2  0
 12 14  1  0
 14 15  1  0
 15 16  1  1
 15 22  1  0
 16 17  1  0
 17 18  2  0
 17 21  1  0
 18 19  1  0
 19 20  1  0
 21 20  2  0
 22 24  1  0
 23 22  2  0
M  END
$$$$
