CPH.pdb
     RDKit          3D

 24 25  0  0  1  0  0  0  0  0999 V2000
   28.9826  -19.0760  -18.0590 N   0  0  0  0  0  0  0  0  0  0  0  0
   28.1006  -17.9345  -18.1326 C   0  0  1  0  0  0  0  0  0  0  0  0
   27.6119  -17.9113  -19.5900 C   0  0  0  0  0  0  0  0  0  0  0  0
   26.3467  -16.6304  -19.7836 S   0  0  0  0  0  0  0  0  0  0  0  0
   26.9074  -18.1854  -17.2313 C   0  0  0  0  0  0  0  0  0  0  0  0
   26.3038  -19.2591  -17.5087 O   0  0  0  0  0  0  0  0  0  0  0  0
   26.5622  -17.2844  -16.2167 N   0  0  0  0  0  0  0  0  0  0  0  0
   27.5720  -16.4726  -15.5033 C   0  0  0  0  0  0  0  0  0  0  0  0
   26.9068  -15.1243  -15.5232 C   0  0  0  0  0  0  0  0  0  0  0  0
   25.4378  -15.3640  -15.7222 C   0  0  0  0  0  0  0  0  0  0  0  0
   25.3600  -16.9155  -15.5784 C   0  0  1  0  0  0  0  0  0  0  0  0
   24.0877  -17.3904  -16.0750 C   0  0  0  0  0  0  0  0  0  0  0  0
   23.6775  -17.2045  -17.2247 O   0  0  0  0  0  0  0  0  0  0  0  0
   23.2395  -18.1205  -15.1995 N   0  0  0  0  0  0  0  0  0  0  0  0
   21.9363  -18.6255  -15.6431 C   0  0  1  0  0  0  0  0  0  0  0  0
   21.4922  -19.5854  -14.5641 C   0  0  0  0  0  0  0  0  0  0  0  0
   20.1994  -20.2421  -14.8473 C   0  0  0  0  0  0  0  0  0  0  0  0
   19.8511  -21.0581  -15.8991 C   0  0  0  0  0  0  0  0  0  0  0  0
   18.5730  -21.4410  -15.7882 N   0  0  0  0  0  0  0  0  0  0  0  0
   18.0850  -20.8739  -14.6616 C   0  0  0  0  0  0  0  0  0  0  0  0
   19.0718  -20.1500  -14.0962 N   0  0  0  0  0  0  0  0  0  0  0  0
   20.9455  -17.5249  -15.7159 C   0  0  0  0  0  0  0  0  0  0  0  0
   20.9545  -16.5299  -14.9790 O   0  0  0  0  0  0  0  0  0  0  0  0
   19.9172  -17.5868  -16.6735 O   0  0  0  0  0  0  0  0  0  0  0  0
  2  1  1  6
  2  5  1  0
  3  2  1  0
  4  3  1  0
  5  6  2  0
  7 11  1  0
  7  5  1  0
  8  7  1  0
  9 10  1  0
  9  8  1  0
 10 11  1  0
 11 12  1  6
 12 13  2  0
 12 14  1  0
 14 15  1  0
 15 16  1  1
 15 22  1  0
 16 17  1  0
 17 18  2  0
 17 21  1  0
 18 19  1  0
 19 20  1  0
 21 20  2  0
 22 24  1  0
 23 22  2  0
M  END
$$$$
