CPH.pdb
     RDKit          3D

 24 25  0  0  1  0  0  0  0  0999 V2000
   18.0441  -13.0233  -16.3323 N   0  0  0  0  0  0  0  0  0  0  0  0
   18.5412  -11.8413  -16.9972 C   0  0  1  0  0  0  0  0  0  0  0  0
   17.2853  -11.1424  -17.5429 C   0  0  0  0  0  0  0  0  0  0  0  0
   16.6558  -12.0588  -18.9722 S   0  0  0  0  0  0  0  0  0  0  0  0
   19.1814  -10.9365  -15.9625 C   0  0  0  0  0  0  0  0  0  0  0  0
   18.3639  -10.5470  -15.0825 O   0  0  0  0  0  0  0  0  0  0  0  0
   20.5400  -10.6046  -16.0299 N   0  0  0  0  0  0  0  0  0  0  0  0
   21.5564  -11.5389  -16.5604 C   0  0  0  0  0  0  0  0  0  0  0  0
   22.3354  -10.6185  -17.4587 C   0  0  0  0  0  0  0  0  0  0  0  0
   22.0830   -9.2190  -16.9762 C   0  0  0  0  0  0  0  0  0  0  0  0
   21.3132   -9.4894  -15.6465 C   0  0  1  0  0  0  0  0  0  0  0  0
   20.6760   -8.2730  -15.1933 C   0  0  0  0  0  0  0  0  0  0  0  0
   19.8418   -7.6403  -15.8478 O   0  0  0  0  0  0  0  0  0  0  0  0
   21.0177   -7.7555  -13.9149 N   0  0  0  0  0  0  0  0  0  0  0  0
   20.4463   -6.4983  -13.4219 C   0  0  1  0  0  0  0  0  0  0  0  0
   20.1808   -6.7299  -11.9526 C   0  0  0  0  0  0  0  0  0  0  0  0
   18.9918   -7.5659  -11.6874 C   0  0  0  0  0  0  0  0  0  0  0  0
   18.1515   -8.1900  -12.5806 C   0  0  0  0  0  0  0  0  0  0  0  0
   17.1840   -8.8470  -11.9289 N   0  0  0  0  0  0  0  0  0  0  0  0
   17.3924   -8.6517  -10.6071 C   0  0  0  0  0  0  0  0  0  0  0  0
   18.4864   -7.8766  -10.4659 N   0  0  0  0  0  0  0  0  0  0  0  0
   21.4280   -5.3939  -13.5434 C   0  0  0  0  0  0  0  0  0  0  0  0
   21.1789   -4.2089  -13.2845 O   0  0  0  0  0  0  0  0  0  0  0  0
   22.7348   -5.6794  -13.9784 O   0  0  0  0  0  0  0  0  0  0  0  0
  2  1  1  1
  2  5  1  0
  3  2  1  0
  4  3  1  0
  5  6  2  0
  7 11  1  0
  7  5  1  0
  8  7  1  0
  9 10  1  0
  9  8  1  0
 10 11  1  0
 11 12  1  6
 12 13  2  0
 12 14  1  0
 14 15  1  0
 15 16  1  1
 15 22  1  0
 16 17  1  0
 17 18  2  0
 17 21  1  0
 18 19  1  0
 19 20  1  0
 21 20  2  0
 22 24  1  0
 23 22  2  0
M  END
$$$$
