CPH.pdb
     RDKit          3D

 24 25  0  0  1  0  0  0  0  0999 V2000
   24.0745  -17.7736  -17.2810 N   0  0  0  0  0  0  0  0  0  0  0  0
   25.2385  -17.6594  -16.4335 C   0  0  1  0  0  0  0  0  0  0  0  0
   24.8182  -16.6851  -15.3210 C   0  0  0  0  0  0  0  0  0  0  0  0
   26.2945  -15.9962  -14.5305 S   0  0  0  0  0  0  0  0  0  0  0  0
   25.5156  -19.0118  -15.8062 C   0  0  0  0  0  0  0  0  0  0  0  0
   24.5564  -19.4265  -15.0976 O   0  0  0  0  0  0  0  0  0  0  0  0
   26.7262  -19.6798  -16.0270 N   0  0  0  0  0  0  0  0  0  0  0  0
   27.5322  -19.4717  -17.2495 C   0  0  0  0  0  0  0  0  0  0  0  0
   28.9036  -19.3157  -16.6531 C   0  0  0  0  0  0  0  0  0  0  0  0
   28.8676  -19.9622  -15.2982 C   0  0  0  0  0  0  0  0  0  0  0  0
   27.4691  -20.6529  -15.3272 C   0  0  1  0  0  0  0  0  0  0  0  0
   27.0891  -21.0466  -13.9887 C   0  0  0  0  0  0  0  0  0  0  0  0
   27.8159  -21.6819  -13.2188 O   0  0  0  0  0  0  0  0  0  0  0  0
   25.8003  -20.6891  -13.5089 N   0  0  0  0  0  0  0  0  0  0  0  0
   25.3983  -20.9590  -12.1248 C   0  0  1  0  0  0  0  0  0  0  0  0
   26.3528  -20.1591  -11.2691 C   0  0  0  0  0  0  0  0  0  0  0  0
   26.0542  -20.2254   -9.8237 C   0  0  0  0  0  0  0  0  0  0  0  0
   25.1155  -20.9852   -9.1641 C   0  0  0  0  0  0  0  0  0  0  0  0
   25.1627  -20.7444   -7.8479 N   0  0  0  0  0  0  0  0  0  0  0  0
   26.1342  -19.8253   -7.6470 C   0  0  0  0  0  0  0  0  0  0  0  0
   26.6703  -19.5145   -8.8443 N   0  0  0  0  0  0  0  0  0  0  0  0
   24.0253  -20.4603  -11.8717 C   0  0  0  0  0  0  0  0  0  0  0  0
   23.4060  -19.7073  -12.6351 O   0  0  0  0  0  0  0  0  0  0  0  0
   23.3571  -20.8502  -10.6970 O   0  0  0  0  0  0  0  0  0  0  0  0
  2  1  1  6
  2  5  1  0
  3  2  1  0
  4  3  1  0
  5  6  2  0
  7 11  1  0
  7  5  1  0
  8  7  1  0
  9 10  1  0
  9  8  1  0
 10 11  1  0
 11 12  1  1
 12 13  2  0
 12 14  1  0
 14 15  1  0
 15 16  1  1
 15 22  1  0
 16 17  1  0
 17 18  2  0
 17 21  1  0
 18 19  1  0
 19 20  1  0
 21 20  2  0
 22 24  1  0
 23 22  2  0
M  END
$$$$
