CPH.pdb
     RDKit          3D

 24 25  0  0  1  0  0  0  0  0999 V2000
   15.7026  -20.3888    2.8470 N   0  0  0  0  0  0  0  0  0  0  0  0
   17.0780  -20.2657    3.2705 C   0  0  1  0  0  0  0  0  0  0  0  0
   17.8022  -19.6364    2.0693 C   0  0  0  0  0  0  0  0  0  0  0  0
   17.9025  -20.8433    0.7231 S   0  0  0  0  0  0  0  0  0  0  0  0
   17.1421  -19.2928    4.4318 C   0  0  0  0  0  0  0  0  0  0  0  0
   16.1973  -18.4554    4.4192 O   0  0  0  0  0  0  0  0  0  0  0  0
   18.1655  -19.3666    5.3846 N   0  0  0  0  0  0  0  0  0  0  0  0
   18.6882  -20.6565    5.8849 C   0  0  0  0  0  0  0  0  0  0  0  0
   20.1684  -20.4026    5.8096 C   0  0  0  0  0  0  0  0  0  0  0  0
   20.3576  -18.9129    5.8150 C   0  0  0  0  0  0  0  0  0  0  0  0
   18.9089  -18.4228    6.1230 C   0  0  1  0  0  0  0  0  0  0  0  0
   18.7978  -17.0102    5.8346 C   0  0  0  0  0  0  0  0  0  0  0  0
   19.4267  -16.4316    4.9434 O   0  0  0  0  0  0  0  0  0  0  0  0
   17.9132  -16.2187    6.6156 N   0  0  0  0  0  0  0  0  0  0  0  0
   17.7767  -14.7764    6.3892 C   0  0  1  0  0  0  0  0  0  0  0  0
   16.2895  -14.5096    6.4021 C   0  0  0  0  0  0  0  0  0  0  0  0
   15.8142  -13.8494    7.6354 C   0  0  0  0  0  0  0  0  0  0  0  0
   16.5419  -13.3696    8.7001 C   0  0  0  0  0  0  0  0  0  0  0  0
   15.7260  -12.8475    9.6244 N   0  0  0  0  0  0  0  0  0  0  0  0
   14.4625  -12.9865    9.1627 C   0  0  0  0  0  0  0  0  0  0  0  0
   14.5208  -13.5927    7.9599 N   0  0  0  0  0  0  0  0  0  0  0  0
   18.3908  -14.0115    7.5011 C   0  0  0  0  0  0  0  0  0  0  0  0
   18.5816  -12.7883    7.4829 O   0  0  0  0  0  0  0  0  0  0  0  0
   18.7929  -14.6918    8.6647 O   0  0  0  0  0  0  0  0  0  0  0  0
  2  1  1  6
  2  5  1  0
  3  2  1  0
  4  3  1  0
  5  6  2  0
  7 11  1  0
  7  5  1  0
  8  7  1  0
  9 10  1  0
  9  8  1  0
 10 11  1  0
 11 12  1  6
 12 13  2  0
 12 14  1  0
 14 15  1  0
 15 16  1  1
 15 22  1  0
 16 17  1  0
 17 18  2  0
 17 21  1  0
 18 19  1  0
 19 20  1  0
 21 20  2  0
 22 24  1  0
 23 22  2  0
M  END
$$$$
