CPH.pdb
     RDKit          3D

 24 25  0  0  1  0  0  0  0  0999 V2000
   18.5138  -14.2090    8.5989 N   0  0  0  0  0  0  0  0  0  0  0  0
   18.5976  -15.6240    8.8766 C   0  0  1  0  0  0  0  0  0  0  0  0
   17.3076  -15.9483    9.6474 C   0  0  0  0  0  0  0  0  0  0  0  0
   17.1976  -17.7354    9.9181 S   0  0  0  0  0  0  0  0  0  0  0  0
   18.5721  -16.3781    7.5613 C   0  0  0  0  0  0  0  0  0  0  0  0
   17.5399  -16.1310    6.8774 O   0  0  0  0  0  0  0  0  0  0  0  0
   19.6126  -17.2425    7.2002 N   0  0  0  0  0  0  0  0  0  0  0  0
   20.9995  -17.0530    7.6780 C   0  0  0  0  0  0  0  0  0  0  0  0
   21.3443  -18.4575    8.0895 C   0  0  0  0  0  0  0  0  0  0  0  0
   20.4126  -19.3721    7.3475 C   0  0  0  0  0  0  0  0  0  0  0  0
   19.7235  -18.3742    6.3661 C   0  0  1  0  0  0  0  0  0  0  0  0
   18.5442  -18.9850    5.7942 C   0  0  0  0  0  0  0  0  0  0  0  0
   17.5715  -19.3673    6.4518 O   0  0  0  0  0  0  0  0  0  0  0  0
   18.4803  -19.1662    4.3863 N   0  0  0  0  0  0  0  0  0  0  0  0
   17.3854  -19.9150    3.7613 C   0  0  1  0  0  0  0  0  0  0  0  0
   17.6109  -19.7834    2.2730 C   0  0  0  0  0  0  0  0  0  0  0  0
   16.6124  -20.5014    1.4543 C   0  0  0  0  0  0  0  0  0  0  0  0
   15.2452  -20.5548    1.6003 C   0  0  0  0  0  0  0  0  0  0  0  0
   14.7050  -21.3265    0.6488 N   0  0  0  0  0  0  0  0  0  0  0  0
   15.7213  -21.7783   -0.1204 C   0  0  0  0  0  0  0  0  0  0  0  0
   16.8726  -21.2769    0.3703 N   0  0  0  0  0  0  0  0  0  0  0  0
   17.4667  -21.3529    4.1134 C   0  0  0  0  0  0  0  0  0  0  0  0
   18.5255  -21.9603    4.3214 O   0  0  0  0  0  0  0  0  0  0  0  0
   16.2815  -22.1020    4.2259 O   0  0  0  0  0  0  0  0  0  0  0  0
  2  1  1  6
  2  5  1  0
  3  2  1  0
  4  3  1  0
  5  6  2  0
  7 11  1  0
  7  5  1  0
  8  7  1  0
  9 10  1  0
  9  8  1  0
 10 11  1  0
 11 12  1  1
 12 13  2  0
 12 14  1  0
 14 15  1  0
 15 16  1  6
 15 22  1  0
 16 17  1  0
 17 18  2  0
 17 21  1  0
 18 19  1  0
 19 20  1  0
 21 20  2  0
 22 24  1  0
 23 22  2  0
M  END
$$$$
