CPH.pdb
     RDKit          3D

 24 25  0  0  1  0  0  0  0  0999 V2000
   17.4332  -15.7723    7.9476 N   0  0  0  0  0  0  0  0  0  0  0  0
   18.3922  -16.7667    8.3696 C   0  0  1  0  0  0  0  0  0  0  0  0
   17.9359  -17.1767    9.7792 C   0  0  0  0  0  0  0  0  0  0  0  0
   19.0890  -18.3971   10.4574 S   0  0  0  0  0  0  0  0  0  0  0  0
   18.2727  -17.9725    7.4579 C   0  0  0  0  0  0  0  0  0  0  0  0
   17.1095  -18.4633    7.4484 O   0  0  0  0  0  0  0  0  0  0  0  0
   19.3721  -18.4435    6.7300 N   0  0  0  0  0  0  0  0  0  0  0  0
   20.5206  -17.5782    6.3842 C   0  0  0  0  0  0  0  0  0  0  0  0
   21.6664  -18.4831    6.7437 C   0  0  0  0  0  0  0  0  0  0  0  0
   21.1358  -19.8878    6.7291 C   0  0  0  0  0  0  0  0  0  0  0  0
   19.7142  -19.6703    6.1244 C   0  0  1  0  0  0  0  0  0  0  0  0
   18.9043  -20.8485    6.3405 C   0  0  0  0  0  0  0  0  0  0  0  0
   18.6401  -21.3156    7.4526 O   0  0  0  0  0  0  0  0  0  0  0  0
   18.3680  -21.5278    5.2136 N   0  0  0  0  0  0  0  0  0  0  0  0
   17.5781  -22.7539    5.3652 C   0  0  1  0  0  0  0  0  0  0  0  0
   16.8367  -22.9147    4.0585 C   0  0  0  0  0  0  0  0  0  0  0  0
   15.9971  -24.1289    3.9964 C   0  0  0  0  0  0  0  0  0  0  0  0
   16.3733  -25.4503    4.0714 C   0  0  0  0  0  0  0  0  0  0  0  0
   15.3020  -26.2463    3.9650 N   0  0  0  0  0  0  0  0  0  0  0  0
   14.2236  -25.4433    3.8200 C   0  0  0  0  0  0  0  0  0  0  0  0
   14.6487  -24.1641    3.8395 N   0  0  0  0  0  0  0  0  0  0  0  0
   18.4646  -23.9296    5.5388 C   0  0  0  0  0  0  0  0  0  0  0  0
   18.0896  -25.0263    5.9746 O   0  0  0  0  0  0  0  0  0  0  0  0
   19.8243  -23.8231    5.1948 O   0  0  0  0  0  0  0  0  0  0  0  0
  2  1  1  6
  2  5  1  0
  3  2  1  0
  4  3  1  0
  5  6  2  0
  7 11  1  0
  7  5  1  0
  8  7  1  0
  9 10  1  0
  9  8  1  0
 10 11  1  0
 11 12  1  1
 12 13  2  0
 12 14  1  0
 14 15  1  0
 15 16  1  6
 15 22  1  0
 16 17  1  0
 17 18  2  0
 17 21  1  0
 18 19  1  0
 19 20  1  0
 21 20  2  0
 22 24  1  0
 23 22  2  0
M  END
$$$$
