CPH.pdb
     RDKit          3D

 24 25  0  0  1  0  0  0  0  0999 V2000
   21.5443   -4.6457  -15.4836 N   0  0  0  0  0  0  0  0  0  0  0  0
   21.6994   -6.0021  -15.0120 C   0  0  1  0  0  0  0  0  0  0  0  0
   21.4044   -5.9282  -13.5050 C   0  0  0  0  0  0  0  0  0  0  0  0
   22.8196   -5.1934  -12.6469 S   0  0  0  0  0  0  0  0  0  0  0  0
   20.6389   -6.8666  -15.6657 C   0  0  0  0  0  0  0  0  0  0  0  0
   19.4698   -6.4261  -15.4830 O   0  0  0  0  0  0  0  0  0  0  0  0
   20.9828   -8.0191  -16.3826 N   0  0  0  0  0  0  0  0  0  0  0  0
   22.2643   -8.1444  -17.1103 C   0  0  0  0  0  0  0  0  0  0  0  0
   22.6930   -9.5199  -16.6800 C   0  0  0  0  0  0  0  0  0  0  0  0
   21.4557  -10.2441  -16.2334 C   0  0  0  0  0  0  0  0  0  0  0  0
   20.3421   -9.2422  -16.6692 C   0  0  1  0  0  0  0  0  0  0  0  0
   19.0937   -9.5872  -16.0263 C   0  0  0  0  0  0  0  0  0  0  0  0
   18.9395   -9.6624  -14.8035 O   0  0  0  0  0  0  0  0  0  0  0  0
   17.9585   -9.8609  -16.8359 N   0  0  0  0  0  0  0  0  0  0  0  0
   16.6835  -10.2821  -16.2466 C   0  0  1  0  0  0  0  0  0  0  0  0
   15.6842  -10.2294  -17.3788 C   0  0  0  0  0  0  0  0  0  0  0  0
   14.3044  -10.5647  -16.9704 C   0  0  0  0  0  0  0  0  0  0  0  0
   13.6511  -10.2739  -15.7949 C   0  0  0  0  0  0  0  0  0  0  0  0
   12.4061  -10.7660  -15.8199 N   0  0  0  0  0  0  0  0  0  0  0  0
   12.2458  -11.3798  -17.0142 C   0  0  0  0  0  0  0  0  0  0  0  0
   13.3960  -11.2556  -17.7064 N   0  0  0  0  0  0  0  0  0  0  0  0
   16.7648  -11.6836  -15.7697 C   0  0  0  0  0  0  0  0  0  0  0  0
   16.2668  -12.0890  -14.7111 O   0  0  0  0  0  0  0  0  0  0  0  0
   17.4451  -12.6372  -16.5484 O   0  0  0  0  0  0  0  0  0  0  0  0
  2  1  1  6
  2  5  1  0
  3  2  1  0
  4  3  1  0
  5  6  2  0
  7 11  1  0
  7  5  1  0
  8  7  1  0
  9 10  1  0
  9  8  1  0
 10 11  1  0
 11 12  1  1
 12 13  2  0
 12 14  1  0
 14 15  1  0
 15 16  1  6
 15 22  1  0
 16 17  1  0
 17 18  2  0
 17 21  1  0
 18 19  1  0
 19 20  1  0
 21 20  2  0
 22 24  1  0
 23 22  2  0
M  END
$$$$
