CPH.pdb
     RDKit          3D

 24 25  0  0  1  0  0  0  0  0999 V2000
   23.6881  -35.0365  -11.8077 N   0  0  0  0  0  0  0  0  0  0  0  0
   23.7310  -34.2596  -10.5908 C   0  0  1  0  0  0  0  0  0  0  0  0
   22.3454  -34.4539   -9.9538 C   0  0  0  0  0  0  0  0  0  0  0  0
   22.2941  -33.6157   -8.3495 S   0  0  0  0  0  0  0  0  0  0  0  0
   24.7715  -34.8629   -9.6673 C   0  0  0  0  0  0  0  0  0  0  0  0
   24.3736  -35.9249   -9.1121 O   0  0  0  0  0  0  0  0  0  0  0  0
   26.0224  -34.2593   -9.4909 N   0  0  0  0  0  0  0  0  0  0  0  0
   26.7198  -33.5511  -10.5861 C   0  0  0  0  0  0  0  0  0  0  0  0
   27.1543  -32.3002   -9.8736 C   0  0  0  0  0  0  0  0  0  0  0  0
   27.1708  -32.6162   -8.4056 C   0  0  0  0  0  0  0  0  0  0  0  0
   26.9382  -34.1587   -8.4233 C   0  0  1  0  0  0  0  0  0  0  0  0
   26.5779  -34.6150   -7.0993 C   0  0  0  0  0  0  0  0  0  0  0  0
   25.5871  -34.2234   -6.4753 O   0  0  0  0  0  0  0  0  0  0  0  0
   27.4041  -35.5763   -6.4571 N   0  0  0  0  0  0  0  0  0  0  0  0
   27.1115  -36.0511   -5.1010 C   0  0  1  0  0  0  0  0  0  0  0  0
   26.0333  -37.0963   -5.2684 C   0  0  0  0  0  0  0  0  0  0  0  0
   25.6507  -37.7636   -4.0069 C   0  0  0  0  0  0  0  0  0  0  0  0
   25.3835  -37.2087   -2.7765 C   0  0  0  0  0  0  0  0  0  0  0  0
   25.0803  -38.1652   -1.8901 N   0  0  0  0  0  0  0  0  0  0  0  0
   25.1498  -39.3476   -2.5426 C   0  0  0  0  0  0  0  0  0  0  0  0
   25.4950  -39.0999   -3.8221 N   0  0  0  0  0  0  0  0  0  0  0  0
   28.3011  -36.7083   -4.5084 C   0  0  0  0  0  0  0  0  0  0  0  0
   29.1872  -37.2693   -5.1667 O   0  0  0  0  0  0  0  0  0  0  0  0
   28.4613  -36.7110   -3.1110 O   0  0  0  0  0  0  0  0  0  0  0  0
  2  1  1  6
  2  5  1  0
  3  2  1  0
  4  3  1  0
  5  6  2  0
  7 11  1  0
  7  5  1  0
  8  7  1  0
  9 10  1  0
  9  8  1  0
 10 11  1  0
 11 12  1  1
 12 13  2  0
 12 14  1  0
 14 15  1  0
 15 16  1  6
 15 22  1  0
 16 17  1  0
 17 18  2  0
 17 21  1  0
 18 19  1  0
 19 20  1  0
 21 20  2  0
 22 24  1  0
 23 22  2  0
M  END
$$$$
