CPH.pdb
     RDKit          3D

 24 25  0  0  1  0  0  0  0  0999 V2000
   26.8135  -19.0408  -18.1608 N   0  0  0  0  0  0  0  0  0  0  0  0
   27.2777  -18.5354  -16.8898 C   0  0  1  0  0  0  0  0  0  0  0  0
   26.7200  -17.1049  -16.8105 C   0  0  0  0  0  0  0  0  0  0  0  0
   27.0754  -16.4067  -15.1780 S   0  0  0  0  0  0  0  0  0  0  0  0
   26.6473  -19.3572  -15.7823 C   0  0  0  0  0  0  0  0  0  0  0  0
   25.3858  -19.3049  -15.7937 O   0  0  0  0  0  0  0  0  0  0  0  0
   27.4343  -20.0759  -14.8742 N   0  0  0  0  0  0  0  0  0  0  0  0
   28.7239  -20.6895  -15.2587 C   0  0  0  0  0  0  0  0  0  0  0  0
   29.5870  -20.2656  -14.1027 C   0  0  0  0  0  0  0  0  0  0  0  0
   28.6649  -19.9544  -12.9591 C   0  0  0  0  0  0  0  0  0  0  0  0
   27.2998  -20.4567  -13.5230 C   0  0  1  0  0  0  0  0  0  0  0  0
   26.2165  -19.9393  -12.7171 C   0  0  0  0  0  0  0  0  0  0  0  0
   26.0324  -18.7400  -12.4882 O   0  0  0  0  0  0  0  0  0  0  0  0
   25.2927  -20.8531  -12.1422 N   0  0  0  0  0  0  0  0  0  0  0  0
   24.2238  -20.3978  -11.2476 C   0  0  1  0  0  0  0  0  0  0  0  0
   22.9383  -20.8541  -11.8975 C   0  0  0  0  0  0  0  0  0  0  0  0
   21.7311  -20.5639  -11.0966 C   0  0  0  0  0  0  0  0  0  0  0  0
   21.3868  -19.4102  -10.4306 C   0  0  0  0  0  0  0  0  0  0  0  0
   20.2071  -19.5617   -9.8158 N   0  0  0  0  0  0  0  0  0  0  0  0
   19.7798  -20.8172  -10.0806 C   0  0  0  0  0  0  0  0  0  0  0  0
   20.7044  -21.4193  -10.8552 N   0  0  0  0  0  0  0  0  0  0  0  0
   24.3307  -21.0594   -9.9251 C   0  0  0  0  0  0  0  0  0  0  0  0
   24.8350  -22.1756   -9.7434 O   0  0  0  0  0  0  0  0  0  0  0  0
   23.8361  -20.4015   -8.7845 O   0  0  0  0  0  0  0  0  0  0  0  0
  2  1  1  6
  2  5  1  0
  3  2  1  0
  4  3  1  0
  5  6  2  0
  7 11  1  0
  7  5  1  0
  8  7  1  0
  9 10  1  0
  9  8  1  0
 10 11  1  0
 11 12  1  1
 12 13  2  0
 12 14  1  0
 14 15  1  0
 15 16  1  6
 15 22  1  0
 16 17  1  0
 17 18  2  0
 17 21  1  0
 18 19  1  0
 19 20  1  0
 21 20  2  0
 22 24  1  0
 23 22  2  0
M  END
$$$$
