CPH.pdb
     RDKit          3D

 24 25  0  0  1  0  0  0  0  0999 V2000
   23.8139  -11.0654  -17.2358 N   0  0  0  0  0  0  0  0  0  0  0  0
   22.9654  -10.4687  -16.2307 C   0  0  1  0  0  0  0  0  0  0  0  0
   23.8851  -10.2595  -15.0166 C   0  0  0  0  0  0  0  0  0  0  0  0
   22.9605   -9.4434  -13.6907 S   0  0  0  0  0  0  0  0  0  0  0  0
   22.5096   -9.1100  -16.7259 C   0  0  0  0  0  0  0  0  0  0  0  0
   23.4174   -8.2352  -16.6549 O   0  0  0  0  0  0  0  0  0  0  0  0
   21.2074   -8.9097  -17.1997 N   0  0  0  0  0  0  0  0  0  0  0  0
   20.4773   -9.9431  -17.9657 C   0  0  0  0  0  0  0  0  0  0  0  0
   19.1401   -9.9026  -17.2793 C   0  0  0  0  0  0  0  0  0  0  0  0
   19.0333   -8.5637  -16.6079 C   0  0  0  0  0  0  0  0  0  0  0  0
   20.2921   -7.8372  -17.1748 C   0  0  1  0  0  0  0  0  0  0  0  0
   20.5680   -6.6526  -16.3927 C   0  0  0  0  0  0  0  0  0  0  0  0
   20.7690   -6.6558  -15.1744 O   0  0  0  0  0  0  0  0  0  0  0  0
   20.6153   -5.3934  -17.0493 N   0  0  0  0  0  0  0  0  0  0  0  0
   20.7812   -4.1455  -16.2974 C   0  0  1  0  0  0  0  0  0  0  0  0
   20.9623   -3.0705  -17.3438 C   0  0  0  0  0  0  0  0  0  0  0  0
   21.1437   -1.7167  -16.7806 C   0  0  0  0  0  0  0  0  0  0  0  0
   22.2678   -1.1501  -16.2249 C   0  0  0  0  0  0  0  0  0  0  0  0
   22.0096    0.1014  -15.8253 N   0  0  0  0  0  0  0  0  0  0  0  0
   20.7140    0.3530  -16.1204 C   0  0  0  0  0  0  0  0  0  0  0  0
   20.1946   -0.7490  -16.6977 N   0  0  0  0  0  0  0  0  0  0  0  0
   19.5552   -3.8331  -15.5244 C   0  0  0  0  0  0  0  0  0  0  0  0
   18.4111   -4.1527  -15.8740 O   0  0  0  0  0  0  0  0  0  0  0  0
   19.6669   -3.1293  -14.3117 O   0  0  0  0  0  0  0  0  0  0  0  0
  2  1  1  6
  2  5  1  0
  3  2  1  0
  4  3  1  0
  5  6  2  0
  7 11  1  0
  7  5  1  0
  8  7  1  0
  9 10  1  0
  9  8  1  0
 10 11  1  0
 11 12  1  1
 12 13  2  0
 12 14  1  0
 14 15  1  0
 15 16  1  6
 15 22  1  0
 16 17  1  0
 17 18  2  0
 17 21  1  0
 18 19  1  0
 19 20  1  0
 21 20  2  0
 22 24  1  0
 23 22  2  0
M  END
$$$$
