EKF.pdb
     RDKit          3D

 30 30  0  0  1  0  0  0  0  0999 V2000
   12.9928  -17.0091   18.2115 N   0  0  0  0  0  0  0  0  0  0  0  0
   12.9481  -17.7925   19.4578 C   0  0  1  0  0  0  0  0  0  0  0  0
   14.2950  -17.8432   20.0851 C   0  0  0  0  0  0  0  0  0  0  0  0
   15.1691  -18.9605   19.5845 C   0  0  0  0  0  0  0  0  0  0  0  0
   16.4714  -19.0300   20.2613 C   0  0  0  0  0  0  0  0  0  0  0  0
   16.9583  -19.9958   20.8641 O   0  0  0  0  0  0  0  0  0  0  0  0
   11.8678  -17.2885   20.3407 C   0  0  0  0  0  0  0  0  0  0  0  0
   11.8312  -16.0632   20.7057 O   0  0  0  0  0  0  0  0  0  0  0  0
   17.2614  -17.8629   20.2220 O   0  0  0  0  0  0  0  0  0  0  0  0
   10.8077  -18.0909   20.8488 N   0  0  0  0  0  0  0  0  0  0  0  0
    9.7067  -17.5079   21.6091 C   0  0  1  0  0  0  0  0  0  0  0  0
    8.4786  -18.3978   21.5479 C   0  0  0  0  0  0  0  0  0  0  0  0
    7.9391  -18.5004   20.1411 C   0  0  0  0  0  0  0  0  0  0  0  0
    6.7108  -19.3852   20.1848 C   0  0  0  0  0  0  0  0  0  0  0  0
    6.0003  -19.3691   18.8285 C   0  0  0  0  0  0  0  0  0  0  0  0
    4.8525  -20.2542   18.8477 N   0  0  0  0  0  0  0  0  0  0  0  0
   10.1481  -17.2876   22.9998 C   0  0  0  0  0  0  0  0  0  0  0  0
   10.9896  -18.0626   23.5013 O   0  0  0  0  0  0  0  0  0  0  0  0
    9.6535  -16.2255   23.7964 N   0  0  0  0  0  0  0  0  0  0  0  0
    9.9938  -16.1150   25.2173 C   0  0  1  0  0  0  0  0  0  0  0  0
    9.7150  -14.7173   25.6650 C   0  0  0  0  0  0  0  0  0  0  0  0
    9.8431  -14.5473   27.1523 C   0  0  0  0  0  0  0  0  0  0  0  0
   10.9765  -14.9633   27.8006 C   0  0  0  0  0  0  0  0  0  0  0  0
   11.0877  -14.7956   29.1576 C   0  0  0  0  0  0  0  0  0  0  0  0
   10.0991  -14.2183   29.9234 C   0  0  0  0  0  0  0  0  0  0  0  0
    8.9604  -13.8048   29.2466 C   0  0  0  0  0  0  0  0  0  0  0  0
    8.8358  -13.9664   27.8884 C   0  0  0  0  0  0  0  0  0  0  0  0
    9.1619  -17.0862   25.9503 C   0  0  0  0  0  0  0  0  0  0  0  0
    7.8137  -17.3057   25.6090 O   0  0  0  0  0  0  0  0  0  0  0  0
    9.6070  -17.7589   26.9043 O   0  0  0  0  0  0  0  0  0  0  0  0
  2  1  1  6
  2  3  1  0
  2  7  1  0
  3  4  1  0
  4  5  1  0
  5  9  1  0
  5  6  2  0
  7  8  2  0
 10  7  1  0
 10 11  1  0
 11 12  1  1
 12 13  1  0
 13 14  1  0
 15 14  1  0
 16 15  1  0
 17 19  1  0
 17 11  1  0
 18 17  2  0
 20 21  1  1
 20 19  1  0
 21 22  1  0
 22 27  2  0
 22 23  1  0
 23 24  2  0
 24 25  1  0
 26 25  2  0
 27 26  1  0
 28 20  1  0
 28 29  1  0
 30 28  2  0
M  END
$$$$
