EKF.pdb
     RDKit          3D

 30 30  0  0  1  0  0  0  0  0999 V2000
    8.7504  -19.3657   21.5378 N   0  0  0  0  0  0  0  0  0  0  0  0
   10.1655  -19.0093   21.3387 C   0  0  1  0  0  0  0  0  0  0  0  0
   10.5955  -19.3521   19.9574 C   0  0  0  0  0  0  0  0  0  0  0  0
    9.4871  -19.3292   18.9406 C   0  0  0  0  0  0  0  0  0  0  0  0
    9.9549  -19.5367   17.5633 C   0  0  0  0  0  0  0  0  0  0  0  0
   10.9421  -20.1847   17.1910 O   0  0  0  0  0  0  0  0  0  0  0  0
   10.3980  -17.5980   21.7318 C   0  0  0  0  0  0  0  0  0  0  0  0
   11.5440  -17.0506   21.5800 O   0  0  0  0  0  0  0  0  0  0  0  0
    9.1935  -18.9287   16.5443 O   0  0  0  0  0  0  0  0  0  0  0  0
    9.4049  -16.7488   22.2962 N   0  0  0  0  0  0  0  0  0  0  0  0
    9.6989  -15.3653   22.6557 C   0  0  1  0  0  0  0  0  0  0  0  0
    8.6680  -14.4231   22.0612 C   0  0  0  0  0  0  0  0  0  0  0  0
    8.5537  -14.6001   20.5658 C   0  0  0  0  0  0  0  0  0  0  0  0
    7.8745  -13.3664   20.0089 C   0  0  0  0  0  0  0  0  0  0  0  0
    7.7161  -13.4910   18.4910 C   0  0  0  0  0  0  0  0  0  0  0  0
    6.9451  -12.3797   17.9696 N   0  0  0  0  0  0  0  0  0  0  0  0
    9.7525  -15.2528   24.1260 C   0  0  0  0  0  0  0  0  0  0  0  0
   10.2365  -14.2224   24.6403 O   0  0  0  0  0  0  0  0  0  0  0  0
    9.2744  -16.2724   24.9855 N   0  0  0  0  0  0  0  0  0  0  0  0
    9.4652  -16.1988   26.4365 C   0  0  1  0  0  0  0  0  0  0  0  0
    8.1553  -15.8624   27.0711 C   0  0  0  0  0  0  0  0  0  0  0  0
    7.7318  -14.4442   26.8127 C   0  0  0  0  0  0  0  0  0  0  0  0
    6.6719  -14.1790   25.9856 C   0  0  0  0  0  0  0  0  0  0  0  0
    6.2873  -12.8811   25.7630 C   0  0  0  0  0  0  0  0  0  0  0  0
    6.9231  -11.8034   26.3385 C   0  0  0  0  0  0  0  0  0  0  0  0
    7.9936  -12.0950   27.1720 C   0  0  0  0  0  0  0  0  0  0  0  0
    8.3892  -13.3896   27.4039 C   0  0  0  0  0  0  0  0  0  0  0  0
    9.9547  -17.5138   26.8876 C   0  0  0  0  0  0  0  0  0  0  0  0
   10.2216  -18.5523   25.9751 O   0  0  0  0  0  0  0  0  0  0  0  0
   10.1563  -17.7722   28.0932 O   0  0  0  0  0  0  0  0  0  0  0  0
  2  1  1  6
  2  3  1  0
  2  7  1  0
  3  4  1  0
  4  5  1  0
  5  9  1  0
  5  6  2  0
  7  8  2  0
 10  7  1  0
 10 11  1  0
 11 12  1  1
 12 13  1  0
 13 14  1  0
 15 14  1  0
 16 15  1  0
 17 19  1  0
 17 11  1  0
 18 17  2  0
 20 21  1  1
 20 19  1  0
 21 22  1  0
 22 27  2  0
 22 23  1  0
 23 24  2  0
 24 25  1  0
 26 25  2  0
 27 26  1  0
 28 20  1  0
 28 29  1  0
 30 28  2  0
M  END
$$$$
