EKF.pdb
     RDKit          3D

 30 30  0  0  1  0  0  0  0  0999 V2000
    8.9717  -19.0292   20.3599 N   0  0  0  0  0  0  0  0  0  0  0  0
   10.3117  -18.4189   20.3293 C   0  0  1  0  0  0  0  0  0  0  0  0
   11.0562  -18.8665   19.1228 C   0  0  0  0  0  0  0  0  0  0  0  0
   10.4962  -18.3533   17.8243 C   0  0  0  0  0  0  0  0  0  0  0  0
   11.1903  -18.8801   16.6413 C   0  0  0  0  0  0  0  0  0  0  0  0
   11.8356  -19.9330   16.5511 O   0  0  0  0  0  0  0  0  0  0  0  0
   10.2078  -16.9477   20.4876 C   0  0  0  0  0  0  0  0  0  0  0  0
   11.2275  -16.2442   20.8058 O   0  0  0  0  0  0  0  0  0  0  0  0
   11.1150  -18.0983   15.4704 O   0  0  0  0  0  0  0  0  0  0  0  0
    9.0069  -16.2048   20.3083 N   0  0  0  0  0  0  0  0  0  0  0  0
    8.9680  -14.7591   20.5041 C   0  0  1  0  0  0  0  0  0  0  0  0
    8.0311  -14.1048   19.5051 C   0  0  0  0  0  0  0  0  0  0  0  0
    8.1919  -14.6973   18.1253 C   0  0  0  0  0  0  0  0  0  0  0  0
    8.0100  -13.5779   17.1218 C   0  0  0  0  0  0  0  0  0  0  0  0
    8.1428  -14.1204   15.6960 C   0  0  0  0  0  0  0  0  0  0  0  0
    7.7600  -13.1083   14.7315 N   0  0  0  0  0  0  0  0  0  0  0  0
    8.5634  -14.4741   21.8942 C   0  0  0  0  0  0  0  0  0  0  0  0
    7.5683  -13.7481   22.1018 O   0  0  0  0  0  0  0  0  0  0  0  0
    9.2617  -14.9936   23.0121 N   0  0  0  0  0  0  0  0  0  0  0  0
    9.1450  -14.3793   24.3373 C   0  0  1  0  0  0  0  0  0  0  0  0
    7.6983  -14.3111   24.7033 C   0  0  0  0  0  0  0  0  0  0  0  0
    7.4645  -13.6346   26.0243 C   0  0  0  0  0  0  0  0  0  0  0  0
    6.8810  -12.3956   26.0728 C   0  0  0  0  0  0  0  0  0  0  0  0
    6.6637  -11.7899   27.2844 C   0  0  0  0  0  0  0  0  0  0  0  0
    7.0082  -12.3721   28.4841 C   0  0  0  0  0  0  0  0  0  0  0  0
    7.5978  -13.6262   28.4115 C   0  0  0  0  0  0  0  0  0  0  0  0
    7.8211  -14.2442   27.2055 C   0  0  0  0  0  0  0  0  0  0  0  0
    9.8963  -15.2217   25.2852 C   0  0  0  0  0  0  0  0  0  0  0  0
   10.4230  -14.6949   26.4800 O   0  0  0  0  0  0  0  0  0  0  0  0
   10.1024  -16.4364   25.0787 O   0  0  0  0  0  0  0  0  0  0  0  0
  2  1  1  6
  2  3  1  0
  2  7  1  0
  3  4  1  0
  4  5  1  0
  5  9  1  0
  5  6  2  0
  7  8  2  0
 10  7  1  0
 10 11  1  0
 11 12  1  6
 12 13  1  0
 13 14  1  0
 15 14  1  0
 16 15  1  0
 17 19  1  0
 17 11  1  0
 18 17  2  0
 20 21  1  1
 20 19  1  0
 21 22  1  0
 22 27  2  0
 22 23  1  0
 23 24  2  0
 24 25  1  0
 26 25  2  0
 27 26  1  0
 28 20  1  0
 28 29  1  0
 30 28  2  0
M  END
$$$$
