EKF.pdb
     RDKit          3D

 30 30  0  0  1  0  0  0  0  0999 V2000
    9.5973  -17.3513   19.8536 N   0  0  0  0  0  0  0  0  0  0  0  0
    8.9918  -16.0833   20.2946 C   0  0  1  0  0  0  0  0  0  0  0  0
    8.0908  -15.5466   19.2408 C   0  0  0  0  0  0  0  0  0  0  0  0
    8.1406  -16.3018   17.9406 C   0  0  0  0  0  0  0  0  0  0  0  0
    7.1360  -15.8530   16.9669 C   0  0  0  0  0  0  0  0  0  0  0  0
    7.3266  -15.2003   15.9320 O   0  0  0  0  0  0  0  0  0  0  0  0
    8.3613  -16.2531   21.6266 C   0  0  0  0  0  0  0  0  0  0  0  0
    7.7348  -15.2898   22.1881 O   0  0  0  0  0  0  0  0  0  0  0  0
    5.7981  -16.2046   17.2390 O   0  0  0  0  0  0  0  0  0  0  0  0
    8.3931  -17.4599   22.3806 N   0  0  0  0  0  0  0  0  0  0  0  0
    7.6901  -17.5825   23.6537 C   0  0  1  0  0  0  0  0  0  0  0  0
    7.2852  -19.0229   23.9095 C   0  0  0  0  0  0  0  0  0  0  0  0
    6.2167  -19.4772   22.9437 C   0  0  0  0  0  0  0  0  0  0  0  0
    6.0125  -20.9631   23.1521 C   0  0  0  0  0  0  0  0  0  0  0  0
    4.8350  -21.4576   22.3073 C   0  0  0  0  0  0  0  0  0  0  0  0
    4.7027  -22.8970   22.4166 N   0  0  0  0  0  0  0  0  0  0  0  0
    8.5545  -17.0628   24.7308 C   0  0  0  0  0  0  0  0  0  0  0  0
    9.7868  -17.2582   24.6700 O   0  0  0  0  0  0  0  0  0  0  0  0
    8.0414  -16.3458   25.8398 N   0  0  0  0  0  0  0  0  0  0  0  0
    8.9082  -15.9255   26.9439 C   0  0  1  0  0  0  0  0  0  0  0  0
    8.3145  -14.7098   27.5774 C   0  0  0  0  0  0  0  0  0  0  0  0
    8.1235  -13.5818   26.6035 C   0  0  0  0  0  0  0  0  0  0  0  0
    6.9794  -12.8281   26.6344 C   0  0  0  0  0  0  0  0  0  0  0  0
    6.8182  -11.7945   25.7468 C   0  0  0  0  0  0  0  0  0  0  0  0
    7.7655  -11.4645   24.8031 C   0  0  0  0  0  0  0  0  0  0  0  0
    8.9157  -12.2409   24.7894 C   0  0  0  0  0  0  0  0  0  0  0  0
    9.0902  -13.2784   25.6723 C   0  0  0  0  0  0  0  0  0  0  0  0
    8.9824  -17.0439   27.9011 C   0  0  0  0  0  0  0  0  0  0  0  0
    8.2935  -18.2512   27.6769 O   0  0  0  0  0  0  0  0  0  0  0  0
    9.6550  -16.9784   28.9518 O   0  0  0  0  0  0  0  0  0  0  0  0
  2  1  1  6
  2  3  1  0
  2  7  1  0
  3  4  1  0
  4  5  1  0
  5  9  1  0
  5  6  2  0
  7  8  2  0
 10  7  1  0
 10 11  1  0
 11 12  1  1
 12 13  1  0
 13 14  1  0
 15 14  1  0
 16 15  1  0
 17 19  1  0
 17 11  1  0
 18 17  2  0
 20 21  1  1
 20 19  1  0
 21 22  1  0
 22 27  2  0
 22 23  1  0
 23 24  2  0
 24 25  1  0
 26 25  2  0
 27 26  1  0
 28 20  1  0
 28 29  1  0
 30 28  2  0
M  END
$$$$
