EKF.pdb
     RDKit          3D

 30 30  0  0  1  0  0  0  0  0999 V2000
    8.5424  -13.1009   18.3704 N   0  0  0  0  0  0  0  0  0  0  0  0
    8.8814  -14.4639   18.8135 C   0  0  1  0  0  0  0  0  0  0  0  0
   10.3497  -14.6832   18.7340 C   0  0  0  0  0  0  0  0  0  0  0  0
   11.1686  -13.6673   19.4825 C   0  0  0  0  0  0  0  0  0  0  0  0
   12.6132  -13.9300   19.4304 C   0  0  0  0  0  0  0  0  0  0  0  0
   13.4197  -13.5472   18.5724 O   0  0  0  0  0  0  0  0  0  0  0  0
    8.2819  -14.7337   20.1433 C   0  0  0  0  0  0  0  0  0  0  0  0
    8.1469  -13.8011   21.0081 O   0  0  0  0  0  0  0  0  0  0  0  0
   13.1471  -14.7083   20.4778 O   0  0  0  0  0  0  0  0  0  0  0  0
    7.8174  -16.0100   20.5693 N   0  0  0  0  0  0  0  0  0  0  0  0
    7.2202  -16.2034   21.8868 C   0  0  1  0  0  0  0  0  0  0  0  0
    6.3650  -17.4572   21.9122 C   0  0  0  0  0  0  0  0  0  0  0  0
    7.1974  -18.6993   21.6996 C   0  0  0  0  0  0  0  0  0  0  0  0
    6.4609  -19.5811   20.7131 C   0  0  0  0  0  0  0  0  0  0  0  0
    7.2696  -20.8513   20.4347 C   0  0  0  0  0  0  0  0  0  0  0  0
    6.6006  -21.6701   19.4430 N   0  0  0  0  0  0  0  0  0  0  0  0
    8.2944  -16.2591   22.8969 C   0  0  0  0  0  0  0  0  0  0  0  0
    9.3449  -16.8820   22.6344 O   0  0  0  0  0  0  0  0  0  0  0  0
    8.1835  -15.6307   24.1617 N   0  0  0  0  0  0  0  0  0  0  0  0
    9.2763  -15.6800   25.1366 C   0  0  1  0  0  0  0  0  0  0  0  0
    9.6350  -14.2811   25.5191 C   0  0  0  0  0  0  0  0  0  0  0  0
    8.4400  -13.4647   25.9226 C   0  0  0  0  0  0  0  0  0  0  0  0
    7.6564  -12.8684   24.9696 C   0  0  0  0  0  0  0  0  0  0  0  0
    6.5622  -12.1323   25.3477 C   0  0  0  0  0  0  0  0  0  0  0  0
    6.1989  -11.9547   26.6643 C   0  0  0  0  0  0  0  0  0  0  0  0
    7.0064  -12.5669   27.6124 C   0  0  0  0  0  0  0  0  0  0  0  0
    8.1046  -13.3068   27.2480 C   0  0  0  0  0  0  0  0  0  0  0  0
    8.7983  -16.4460   26.3017 C   0  0  0  0  0  0  0  0  0  0  0  0
    7.5182  -17.0319   26.3221 O   0  0  0  0  0  0  0  0  0  0  0  0
    9.4989  -16.6132   27.3224 O   0  0  0  0  0  0  0  0  0  0  0  0
  2  1  1  1
  2  3  1  0
  2  7  1  0
  3  4  1  0
  4  5  1  0
  5  9  1  0
  5  6  2  0
  7  8  2  0
 10  7  1  0
 10 11  1  0
 11 12  1  6
 12 13  1  0
 13 14  1  0
 15 14  1  0
 16 15  1  0
 17 19  1  0
 17 11  1  0
 18 17  2  0
 20 21  1  1
 20 19  1  0
 21 22  1  0
 22 27  2  0
 22 23  1  0
 23 24  2  0
 24 25  1  0
 26 25  2  0
 27 26  1  0
 28 20  1  0
 28 29  1  0
 30 28  2  0
M  END
$$$$
