EKF.pdb
     RDKit          3D

 30 30  0  0  1  0  0  0  0  0999 V2000
    6.7053  -19.1874   17.4120 N   0  0  0  0  0  0  0  0  0  0  0  0
    7.8311  -19.0379   18.3496 C   0  0  1  0  0  0  0  0  0  0  0  0
    8.8543  -18.1181   17.7863 C   0  0  0  0  0  0  0  0  0  0  0  0
    9.4157  -18.5543   16.4606 C   0  0  0  0  0  0  0  0  0  0  0  0
   10.3741  -17.5978   15.8901 C   0  0  0  0  0  0  0  0  0  0  0  0
   10.6951  -17.4690   14.7011 O   0  0  0  0  0  0  0  0  0  0  0  0
    7.3304  -18.6645   19.6952 C   0  0  0  0  0  0  0  0  0  0  0  0
    6.3152  -17.8987   19.8327 O   0  0  0  0  0  0  0  0  0  0  0  0
   11.0035  -16.7232   16.7992 O   0  0  0  0  0  0  0  0  0  0  0  0
    7.9111  -19.1055   20.9176 N   0  0  0  0  0  0  0  0  0  0  0  0
    7.3209  -18.7661   22.2085 C   0  0  1  0  0  0  0  0  0  0  0  0
    7.2477  -19.9882   23.1057 C   0  0  0  0  0  0  0  0  0  0  0  0
    6.1786  -20.9501   22.6448 C   0  0  0  0  0  0  0  0  0  0  0  0
    6.2313  -22.1623   23.5509 C   0  0  0  0  0  0  0  0  0  0  0  0
    4.8379  -22.7836   23.6826 C   0  0  0  0  0  0  0  0  0  0  0  0
    4.4553  -23.4356   22.4458 N   0  0  0  0  0  0  0  0  0  0  0  0
    8.1114  -17.6850   22.8279 C   0  0  0  0  0  0  0  0  0  0  0  0
    9.3532  -17.6850   22.6928 O   0  0  0  0  0  0  0  0  0  0  0  0
    7.5162  -16.6388   23.5752 N   0  0  0  0  0  0  0  0  0  0  0  0
    8.3112  -15.5201   24.0885 C   0  0  1  0  0  0  0  0  0  0  0  0
    7.5120  -14.2658   23.9479 C   0  0  0  0  0  0  0  0  0  0  0  0
    7.2625  -13.8936   22.5138 C   0  0  0  0  0  0  0  0  0  0  0  0
    8.1411  -13.0798   21.8478 C   0  0  0  0  0  0  0  0  0  0  0  0
    7.9091  -12.7529   20.5358 C   0  0  0  0  0  0  0  0  0  0  0  0
    6.8152  -13.2081   19.8338 C   0  0  0  0  0  0  0  0  0  0  0  0
    5.9385  -14.0303   20.5276 C   0  0  0  0  0  0  0  0  0  0  0  0
    6.1586  -14.3657   21.8411 C   0  0  0  0  0  0  0  0  0  0  0  0
    8.6157  -15.8032   25.5026 C   0  0  0  0  0  0  0  0  0  0  0  0
    8.0347  -16.8945   26.1761 O   0  0  0  0  0  0  0  0  0  0  0  0
    9.3987  -15.0949   26.1704 O   0  0  0  0  0  0  0  0  0  0  0  0
  2  1  1  6
  2  3  1  0
  2  7  1  0
  3  4  1  0
  4  5  1  0
  5  9  1  0
  5  6  2  0
  7  8  2  0
 10  7  1  0
 10 11  1  0
 11 12  1  1
 12 13  1  0
 13 14  1  0
 15 14  1  0
 16 15  1  0
 17 19  1  0
 17 11  1  0
 18 17  2  0
 20 21  1  1
 20 19  1  0
 21 22  1  0
 22 27  2  0
 22 23  1  0
 23 24  2  0
 24 25  1  0
 26 25  2  0
 27 26  1  0
 28 20  1  0
 28 29  1  0
 30 28  2  0
M  END
$$$$
