EKF.pdb
     RDKit          3D

 30 30  0  0  1  0  0  0  0  0999 V2000
   12.8219  -20.2016   20.6677 N   0  0  0  0  0  0  0  0  0  0  0  0
   12.9497  -18.8326   21.1955 C   0  0  1  0  0  0  0  0  0  0  0  0
   13.9712  -18.0750   20.4255 C   0  0  0  0  0  0  0  0  0  0  0  0
   14.9388  -18.9392   19.6639 C   0  0  0  0  0  0  0  0  0  0  0  0
   15.8962  -18.1709   18.8567 C   0  0  0  0  0  0  0  0  0  0  0  0
   15.6478  -17.2627   18.0524 O   0  0  0  0  0  0  0  0  0  0  0  0
   11.6168  -18.1855   21.2676 C   0  0  0  0  0  0  0  0  0  0  0  0
   11.4895  -16.9197   21.1356 O   0  0  0  0  0  0  0  0  0  0  0  0
   17.2573  -18.5035   19.0133 O   0  0  0  0  0  0  0  0  0  0  0  0
   10.3964  -18.8853   21.4841 N   0  0  0  0  0  0  0  0  0  0  0  0
    9.1341  -18.1773   21.6715 C   0  0  1  0  0  0  0  0  0  0  0  0
    7.9565  -19.1182   21.4927 C   0  0  0  0  0  0  0  0  0  0  0  0
    7.7069  -19.4214   20.0345 C   0  0  0  0  0  0  0  0  0  0  0  0
    6.5430  -20.3874   19.9601 C   0  0  0  0  0  0  0  0  0  0  0  0
    6.2241  -20.7180   18.4993 C   0  0  0  0  0  0  0  0  0  0  0  0
    5.1501  -21.6886   18.4228 N   0  0  0  0  0  0  0  0  0  0  0  0
    9.1295  -17.5505   23.0074 C   0  0  0  0  0  0  0  0  0  0  0  0
    9.6889  -18.1381   23.9572 O   0  0  0  0  0  0  0  0  0  0  0  0
    8.5125  -16.3004   23.2598 N   0  0  0  0  0  0  0  0  0  0  0  0
    8.4689  -15.7296   24.6086 C   0  0  1  0  0  0  0  0  0  0  0  0
    8.1113  -14.2831   24.5007 C   0  0  0  0  0  0  0  0  0  0  0  0
    7.8962  -13.6365   25.8397 C   0  0  0  0  0  0  0  0  0  0  0  0
    8.9496  -13.4556   26.6973 C   0  0  0  0  0  0  0  0  0  0  0  0
    8.7445  -12.8561   27.9141 C   0  0  0  0  0  0  0  0  0  0  0  0
    7.5084  -12.4154   28.3319 C   0  0  0  0  0  0  0  0  0  0  0  0
    6.4562  -12.6089   27.4481 C   0  0  0  0  0  0  0  0  0  0  0  0
    6.6472  -13.2075   26.2268 C   0  0  0  0  0  0  0  0  0  0  0  0
    7.4532  -16.4748   25.3739 C   0  0  0  0  0  0  0  0  0  0  0  0
    6.2285  -16.8567   24.7937 O   0  0  0  0  0  0  0  0  0  0  0  0
    7.6258  -16.8031   26.5668 O   0  0  0  0  0  0  0  0  0  0  0  0
  2  1  1  6
  2  3  1  0
  2  7  1  0
  3  4  1  0
  4  5  1  0
  5  9  1  0
  5  6  2  0
  7  8  2  0
 10  7  1  0
 10 11  1  0
 11 12  1  1
 12 13  1  0
 13 14  1  0
 15 14  1  0
 16 15  1  0
 17 19  1  0
 17 11  1  0
 18 17  2  0
 20 21  1  6
 20 19  1  0
 21 22  1  0
 22 27  2  0
 22 23  1  0
 23 24  2  0
 24 25  1  0
 26 25  2  0
 27 26  1  0
 28 20  1  0
 28 29  1  0
 30 28  2  0
M  END
$$$$
