EKF.pdb
     RDKit          3D

 30 30  0  0  1  0  0  0  0  0999 V2000
    9.1958  -19.1940   20.8137 N   0  0  0  0  0  0  0  0  0  0  0  0
   10.4814  -18.5621   20.4718 C   0  0  1  0  0  0  0  0  0  0  0  0
   11.0304  -19.1506   19.2218 C   0  0  0  0  0  0  0  0  0  0  0  0
    9.9848  -19.6185   18.2467 C   0  0  0  0  0  0  0  0  0  0  0  0
   10.4983  -20.5724   17.2543 C   0  0  0  0  0  0  0  0  0  0  0  0
    9.8717  -21.1160   16.3350 O   0  0  0  0  0  0  0  0  0  0  0  0
   10.3375  -17.0857   20.4550 C   0  0  0  0  0  0  0  0  0  0  0  0
   11.3298  -16.3289   20.1751 O   0  0  0  0  0  0  0  0  0  0  0  0
   11.8631  -20.9109   17.3575 O   0  0  0  0  0  0  0  0  0  0  0  0
    9.1260  -16.3949   20.7396 N   0  0  0  0  0  0  0  0  0  0  0  0
    9.0176  -14.9482   20.5814 C   0  0  1  0  0  0  0  0  0  0  0  0
    7.7845  -14.5850   19.7743 C   0  0  0  0  0  0  0  0  0  0  0  0
    8.0248  -14.7493   18.2924 C   0  0  0  0  0  0  0  0  0  0  0  0
    8.3100  -13.3769   17.7194 C   0  0  0  0  0  0  0  0  0  0  0  0
    8.4120  -13.4529   16.1934 C   0  0  0  0  0  0  0  0  0  0  0  0
    7.5113  -14.4637   15.6755 N   0  0  0  0  0  0  0  0  0  0  0  0
    8.9965  -14.3200   21.9164 C   0  0  0  0  0  0  0  0  0  0  0  0
    8.8114  -13.0879   22.0064 O   0  0  0  0  0  0  0  0  0  0  0  0
    9.1787  -15.0615   23.1098 N   0  0  0  0  0  0  0  0  0  0  0  0
    8.9979  -14.4445   24.4265 C   0  0  1  0  0  0  0  0  0  0  0  0
    7.6376  -13.8294   24.4799 C   0  0  0  0  0  0  0  0  0  0  0  0
    7.3565  -13.1542   25.7923 C   0  0  0  0  0  0  0  0  0  0  0  0
    6.9541  -13.8899   26.8761 C   0  0  0  0  0  0  0  0  0  0  0  0
    6.7084  -13.2653   28.0725 C   0  0  0  0  0  0  0  0  0  0  0  0
    6.8468  -11.9064   28.2491 C   0  0  0  0  0  0  0  0  0  0  0  0
    7.2547  -11.1810   27.1387 C   0  0  0  0  0  0  0  0  0  0  0  0
    7.5043  -11.7934   25.9349 C   0  0  0  0  0  0  0  0  0  0  0  0
    9.1437  -15.5062   25.4385 C   0  0  0  0  0  0  0  0  0  0  0  0
    9.2760  -16.8591   25.0717 O   0  0  0  0  0  0  0  0  0  0  0  0
    9.1571  -15.2619   26.6636 O   0  0  0  0  0  0  0  0  0  0  0  0
  2  1  1  6
  2  3  1  0
  2  7  1  0
  3  4  1  0
  4  5  1  0
  5  9  1  0
  5  6  2  0
  7  8  2  0
 10  7  1  0
 10 11  1  0
 11 12  1  1
 12 13  1  0
 13 14  1  0
 15 14  1  0
 16 15  1  0
 17 19  1  0
 17 11  1  0
 18 17  2  0
 20 21  1  6
 20 19  1  0
 21 22  1  0
 22 27  2  0
 22 23  1  0
 23 24  2  0
 24 25  1  0
 26 25  2  0
 27 26  1  0
 28 20  1  0
 28 29  1  0
 30 28  2  0
M  END
$$$$
