EKF.pdb
     RDKit          3D

 30 30  0  0  1  0  0  0  0  0999 V2000
    6.4768  -19.1863   24.9804 N   0  0  0  0  0  0  0  0  0  0  0  0
    7.3880  -19.6667   23.9278 C   0  0  1  0  0  0  0  0  0  0  0  0
    6.6801  -20.6095   23.0221 C   0  0  0  0  0  0  0  0  0  0  0  0
    5.3670  -20.0958   22.4977 C   0  0  0  0  0  0  0  0  0  0  0  0
    4.5273  -21.1436   21.9013 C   0  0  0  0  0  0  0  0  0  0  0  0
    3.3909  -21.0204   21.4252 O   0  0  0  0  0  0  0  0  0  0  0  0
    8.0364  -18.5182   23.2488 C   0  0  0  0  0  0  0  0  0  0  0  0
    9.1789  -18.6425   22.6873 O   0  0  0  0  0  0  0  0  0  0  0  0
    5.0758  -22.4418   21.8652 O   0  0  0  0  0  0  0  0  0  0  0  0
    7.4708  -17.2150   23.1612 N   0  0  0  0  0  0  0  0  0  0  0  0
    8.2943  -16.0435   22.8797 C   0  0  1  0  0  0  0  0  0  0  0  0
    7.5528  -15.0653   21.9867 C   0  0  0  0  0  0  0  0  0  0  0  0
    8.4999  -14.3181   21.0782 C   0  0  0  0  0  0  0  0  0  0  0  0
    7.6655  -13.5921   20.0438 C   0  0  0  0  0  0  0  0  0  0  0  0
    8.5742  -12.9005   19.0236 C   0  0  0  0  0  0  0  0  0  0  0  0
    7.7814  -12.2375   18.0072 N   0  0  0  0  0  0  0  0  0  0  0  0
    8.6915  -15.4187   24.1561 C   0  0  0  0  0  0  0  0  0  0  0  0
    8.1981  -14.3159   24.4735 O   0  0  0  0  0  0  0  0  0  0  0  0
    9.6164  -16.0220   25.0437 N   0  0  0  0  0  0  0  0  0  0  0  0
    9.9852  -15.3845   26.3105 C   0  0  1  0  0  0  0  0  0  0  0  0
    8.7444  -15.1761   27.1160 C   0  0  0  0  0  0  0  0  0  0  0  0
    8.0145  -13.9169   26.7433 C   0  0  0  0  0  0  0  0  0  0  0  0
    8.6094  -12.6951   26.9192 C   0  0  0  0  0  0  0  0  0  0  0  0
    7.9381  -11.5515   26.5675 C   0  0  0  0  0  0  0  0  0  0  0  0
    6.6681  -11.5637   26.0346 C   0  0  0  0  0  0  0  0  0  0  0  0
    6.0848  -12.8114   25.8654 C   0  0  0  0  0  0  0  0  0  0  0  0
    6.7454  -13.9642   26.2131 C   0  0  0  0  0  0  0  0  0  0  0  0
   10.9263  -16.2832   27.0028 C   0  0  0  0  0  0  0  0  0  0  0  0
   11.3145  -17.5151   26.4424 O   0  0  0  0  0  0  0  0  0  0  0  0
   11.4235  -16.0001   28.1133 O   0  0  0  0  0  0  0  0  0  0  0  0
  2  1  1  1
  2  3  1  0
  2  7  1  0
  3  4  1  0
  4  5  1  0
  5  9  1  0
  5  6  2  0
  7  8  2  0
 10  7  1  0
 10 11  1  0
 11 12  1  6
 12 13  1  0
 13 14  1  0
 15 14  1  0
 16 15  1  0
 17 19  1  0
 17 11  1  0
 18 17  2  0
 20 21  1  1
 20 19  1  0
 21 22  1  0
 22 27  2  0
 22 23  1  0
 23 24  2  0
 24 25  1  0
 26 25  2  0
 27 26  1  0
 28 20  1  0
 28 29  1  0
 30 28  2  0
M  END
$$$$
