EKF.pdb
     RDKit          3D

 30 30  0  0  1  0  0  0  0  0999 V2000
   12.6620  -18.6473   18.5486 N   0  0  0  0  0  0  0  0  0  0  0  0
   12.1189  -19.0168   19.8667 C   0  0  1  0  0  0  0  0  0  0  0  0
   13.2229  -19.3389   20.8089 C   0  0  0  0  0  0  0  0  0  0  0  0
   14.4972  -18.5821   20.5509 C   0  0  0  0  0  0  0  0  0  0  0  0
   15.5807  -18.9306   21.4801 C   0  0  0  0  0  0  0  0  0  0  0  0
   16.6936  -19.3966   21.2014 O   0  0  0  0  0  0  0  0  0  0  0  0
   11.1772  -17.9742   20.3428 C   0  0  0  0  0  0  0  0  0  0  0  0
   11.3292  -16.7475   20.0141 O   0  0  0  0  0  0  0  0  0  0  0  0
   15.3274  -18.7104   22.8494 O   0  0  0  0  0  0  0  0  0  0  0  0
   10.0558  -18.2292   21.1815 N   0  0  0  0  0  0  0  0  0  0  0  0
    9.0178  -17.2254   21.3933 C   0  0  1  0  0  0  0  0  0  0  0  0
    7.6493  -17.8758   21.4832 C   0  0  0  0  0  0  0  0  0  0  0  0
    7.1520  -18.3090   20.1245 C   0  0  0  0  0  0  0  0  0  0  0  0
    5.7892  -18.9410   20.3155 C   0  0  0  0  0  0  0  0  0  0  0  0
    5.2476  -19.4428   18.9740 C   0  0  0  0  0  0  0  0  0  0  0  0
    4.0021  -20.1590   19.1669 N   0  0  0  0  0  0  0  0  0  0  0  0
    9.3347  -16.4578   22.6130 C   0  0  0  0  0  0  0  0  0  0  0  0
    8.7538  -15.3707   22.8161 O   0  0  0  0  0  0  0  0  0  0  0  0
   10.2775  -16.9056   23.5710 N   0  0  0  0  0  0  0  0  0  0  0  0
   10.6288  -16.0885   24.7355 C   0  0  1  0  0  0  0  0  0  0  0  0
    9.4772  -16.0982   25.6871 C   0  0  0  0  0  0  0  0  0  0  0  0
    9.7433  -15.2959   26.9292 C   0  0  0  0  0  0  0  0  0  0  0  0
   10.1038  -15.9229   28.0932 C   0  0  0  0  0  0  0  0  0  0  0  0
   10.3533  -15.1808   29.2198 C   0  0  0  0  0  0  0  0  0  0  0  0
   10.2590  -13.8071   29.2466 C   0  0  0  0  0  0  0  0  0  0  0  0
    9.8924  -13.1931   28.0573 C   0  0  0  0  0  0  0  0  0  0  0  0
    9.6398  -13.9236   26.9220 C   0  0  0  0  0  0  0  0  0  0  0  0
   11.8318  -16.6808   25.3474 C   0  0  0  0  0  0  0  0  0  0  0  0
   12.4574  -17.8138   24.7930 O   0  0  0  0  0  0  0  0  0  0  0  0
   12.3537  -16.2116   26.3809 O   0  0  0  0  0  0  0  0  0  0  0  0
  2  1  1  6
  2  3  1  0
  2  7  1  0
  3  4  1  0
  4  5  1  0
  5  9  1  0
  5  6  2  0
  7  8  2  0
 10  7  1  0
 10 11  1  0
 11 12  1  1
 12 13  1  0
 13 14  1  0
 15 14  1  0
 16 15  1  0
 17 19  1  0
 17 11  1  0
 18 17  2  0
 20 21  1  1
 20 19  1  0
 21 22  1  0
 22 27  2  0
 22 23  1  0
 23 24  2  0
 24 25  1  0
 26 25  2  0
 27 26  1  0
 28 20  1  0
 28 29  1  0
 30 28  2  0
M  END
$$$$
