EKF.pdb
     RDKit          3D

 30 30  0  0  1  0  0  0  0  0999 V2000
    6.2511  -20.8497   22.8910 N   0  0  0  0  0  0  0  0  0  0  0  0
    6.0576  -19.5972   23.6412 C   0  0  1  0  0  0  0  0  0  0  0  0
    6.2307  -19.8355   25.0984 C   0  0  0  0  0  0  0  0  0  0  0  0
    5.8396  -21.2159   25.5505 C   0  0  0  0  0  0  0  0  0  0  0  0
    5.9225  -21.3982   27.0061 C   0  0  0  0  0  0  0  0  0  0  0  0
    5.6359  -22.4114   27.6576 O   0  0  0  0  0  0  0  0  0  0  0  0
    6.9155  -18.5258   23.0785 C   0  0  0  0  0  0  0  0  0  0  0  0
    8.1883  -18.5683   23.1975 O   0  0  0  0  0  0  0  0  0  0  0  0
    6.3814  -20.2927   27.7512 O   0  0  0  0  0  0  0  0  0  0  0  0
    6.4226  -17.3885   22.3787 N   0  0  0  0  0  0  0  0  0  0  0  0
    7.2950  -16.2730   22.0258 C   0  0  1  0  0  0  0  0  0  0  0  0
    6.5393  -15.2315   21.2208 C   0  0  0  0  0  0  0  0  0  0  0  0
    7.4518  -14.1207   20.7578 C   0  0  0  0  0  0  0  0  0  0  0  0
    7.2542  -13.9575   19.2653 C   0  0  0  0  0  0  0  0  0  0  0  0
    8.0796  -12.7752   18.7498 C   0  0  0  0  0  0  0  0  0  0  0  0
    7.6771  -12.4263   17.4017 N   0  0  0  0  0  0  0  0  0  0  0  0
    7.8615  -15.6978   23.2609 C   0  0  0  0  0  0  0  0  0  0  0  0
    7.1199  -15.0423   24.0229 O   0  0  0  0  0  0  0  0  0  0  0  0
    9.2220  -15.8591   23.6217 N   0  0  0  0  0  0  0  0  0  0  0  0
    9.7538  -15.2946   24.8649 C   0  0  1  0  0  0  0  0  0  0  0  0
    9.0196  -15.9031   26.0149 C   0  0  0  0  0  0  0  0  0  0  0  0
    9.4399  -15.3327   27.3397 C   0  0  0  0  0  0  0  0  0  0  0  0
    8.9272  -14.1376   27.7719 C   0  0  0  0  0  0  0  0  0  0  0  0
    9.3105  -13.6294   28.9871 C   0  0  0  0  0  0  0  0  0  0  0  0
   10.2042  -14.2691   29.8171 C   0  0  0  0  0  0  0  0  0  0  0  0
   10.7110  -15.4773   29.3596 C   0  0  0  0  0  0  0  0  0  0  0  0
   10.3359  -15.9978   28.1453 C   0  0  0  0  0  0  0  0  0  0  0  0
   11.1913  -15.6156   24.9195 C   0  0  0  0  0  0  0  0  0  0  0  0
   11.6489  -16.9470   24.9070 O   0  0  0  0  0  0  0  0  0  0  0  0
   12.0702  -14.7297   24.9792 O   0  0  0  0  0  0  0  0  0  0  0  0
  2  1  1  6
  2  3  1  0
  2  7  1  0
  3  4  1  0
  4  5  1  0
  5  9  1  0
  5  6  2  0
  7  8  2  0
 10  7  1  0
 10 11  1  0
 11 12  1  1
 12 13  1  0
 13 14  1  0
 15 14  1  0
 16 15  1  0
 17 19  1  0
 17 11  1  0
 18 17  2  0
 20 21  1  1
 20 19  1  0
 21 22  1  0
 22 27  2  0
 22 23  1  0
 23 24  2  0
 24 25  1  0
 26 25  2  0
 27 26  1  0
 28 20  1  0
 28 29  1  0
 30 28  2  0
M  END
$$$$
