EKF.pdb
     RDKit          3D

 30 30  0  0  1  0  0  0  0  0999 V2000
   10.4938  -17.8000   17.9523 N   0  0  0  0  0  0  0  0  0  0  0  0
   10.3196  -18.7241   19.0857 C   0  0  1  0  0  0  0  0  0  0  0  0
   11.5573  -19.5197   19.2990 C   0  0  0  0  0  0  0  0  0  0  0  0
   12.8289  -18.7201   19.2166 C   0  0  0  0  0  0  0  0  0  0  0  0
   14.0401  -19.5296   19.4073 C   0  0  0  0  0  0  0  0  0  0  0  0
   15.0956  -19.4724   18.7625 O   0  0  0  0  0  0  0  0  0  0  0  0
    9.8400  -17.9854   20.2794 C   0  0  0  0  0  0  0  0  0  0  0  0
   10.2731  -16.8122   20.5478 O   0  0  0  0  0  0  0  0  0  0  0  0
   13.9996  -20.4838   20.4444 O   0  0  0  0  0  0  0  0  0  0  0  0
    8.8875  -18.4931   21.2073 N   0  0  0  0  0  0  0  0  0  0  0  0
    8.3623  -17.6673   22.2900 C   0  0  1  0  0  0  0  0  0  0  0  0
    6.9319  -18.0547   22.6183 C   0  0  0  0  0  0  0  0  0  0  0  0
    5.9877  -17.6851   21.4991 C   0  0  0  0  0  0  0  0  0  0  0  0
    4.7540  -18.5527   21.6352 C   0  0  0  0  0  0  0  0  0  0  0  0
    3.7340  -18.1935   20.5510 C   0  0  0  0  0  0  0  0  0  0  0  0
    2.5648  -19.0442   20.6541 N   0  0  0  0  0  0  0  0  0  0  0  0
    9.2439  -17.8007   23.4658 C   0  0  0  0  0  0  0  0  0  0  0  0
    9.0461  -18.7342   24.2719 O   0  0  0  0  0  0  0  0  0  0  0  0
   10.3135  -16.9074   23.7207 N   0  0  0  0  0  0  0  0  0  0  0  0
   10.5059  -16.3050   25.0425 C   0  0  1  0  0  0  0  0  0  0  0  0
    9.6057  -15.1185   25.1593 C   0  0  0  0  0  0  0  0  0  0  0  0
    9.6110  -14.5186   26.5367 C   0  0  0  0  0  0  0  0  0  0  0  0
    8.4688  -13.9664   27.0547 C   0  0  0  0  0  0  0  0  0  0  0  0
    8.4815  -13.4290   28.3168 C   0  0  0  0  0  0  0  0  0  0  0  0
    9.6062  -13.4130   29.1116 C   0  0  0  0  0  0  0  0  0  0  0  0
   10.7513  -13.9769   28.5672 C   0  0  0  0  0  0  0  0  0  0  0  0
   10.7527  -14.5186   27.3051 C   0  0  0  0  0  0  0  0  0  0  0  0
   10.1734  -17.3284   26.0499 C   0  0  0  0  0  0  0  0  0  0  0  0
    8.9765  -18.0668   25.9813 O   0  0  0  0  0  0  0  0  0  0  0  0
   10.9305  -17.5908   27.0084 O   0  0  0  0  0  0  0  0  0  0  0  0
  2  1  1  6
  2  3  1  0
  2  7  1  0
  3  4  1  0
  4  5  1  0
  5  9  1  0
  5  6  2  0
  7  8  2  0
 10  7  1  0
 10 11  1  0
 11 12  1  1
 12 13  1  0
 13 14  1  0
 15 14  1  0
 16 15  1  0
 17 19  1  0
 17 11  1  0
 18 17  2  0
 20 21  1  6
 20 19  1  0
 21 22  1  0
 22 27  2  0
 22 23  1  0
 23 24  2  0
 24 25  1  0
 26 25  2  0
 27 26  1  0
 28 20  1  0
 28 29  1  0
 30 28  2  0
M  END
$$$$
