EKF.pdb
     RDKit          3D

 30 30  0  0  1  0  0  0  0  0999 V2000
    9.9680  -17.3709   18.7353 N   0  0  0  0  0  0  0  0  0  0  0  0
   10.0393  -18.2598   19.9074 C   0  0  1  0  0  0  0  0  0  0  0  0
   11.4499  -18.6397   20.1830 C   0  0  0  0  0  0  0  0  0  0  0  0
   12.4142  -18.2760   19.0872 C   0  0  0  0  0  0  0  0  0  0  0  0
   13.7791  -18.0266   19.5705 C   0  0  0  0  0  0  0  0  0  0  0  0
   14.4675  -17.0120   19.3977 O   0  0  0  0  0  0  0  0  0  0  0  0
    9.3217  -17.6523   21.0549 C   0  0  0  0  0  0  0  0  0  0  0  0
    9.5296  -16.4370   21.3950 O   0  0  0  0  0  0  0  0  0  0  0  0
   14.3780  -19.0607   20.3186 O   0  0  0  0  0  0  0  0  0  0  0  0
    8.3687  -18.3388   21.8589 N   0  0  0  0  0  0  0  0  0  0  0  0
    7.6700  -17.6702   22.9519 C   0  0  1  0  0  0  0  0  0  0  0  0
    6.5230  -18.5242   23.4610 C   0  0  0  0  0  0  0  0  0  0  0  0
    5.5624  -18.8792   22.3511 C   0  0  0  0  0  0  0  0  0  0  0  0
    4.6334  -19.9540   22.8755 C   0  0  0  0  0  0  0  0  0  0  0  0
    3.6951  -20.4295   21.7627 C   0  0  0  0  0  0  0  0  0  0  0  0
    2.8644  -21.5206   22.2327 N   0  0  0  0  0  0  0  0  0  0  0  0
    8.6370  -17.3658   24.0241 C   0  0  0  0  0  0  0  0  0  0  0  0
    9.5869  -18.1509   24.2279 O   0  0  0  0  0  0  0  0  0  0  0  0
    8.5323  -16.2113   24.8386 N   0  0  0  0  0  0  0  0  0  0  0  0
    9.5518  -15.8896   25.8407 C   0  0  1  0  0  0  0  0  0  0  0  0
    9.6352  -14.4039   25.9731 C   0  0  0  0  0  0  0  0  0  0  0  0
    8.2944  -13.7645   26.1982 C   0  0  0  0  0  0  0  0  0  0  0  0
    7.9458  -13.3093   27.4428 C   0  0  0  0  0  0  0  0  0  0  0  0
    6.7226  -12.7189   27.6363 C   0  0  0  0  0  0  0  0  0  0  0  0
    5.8030  -12.5546   26.6243 C   0  0  0  0  0  0  0  0  0  0  0  0
    6.1766  -13.0230   25.3726 C   0  0  0  0  0  0  0  0  0  0  0  0
    7.3979  -13.6159   25.1647 C   0  0  0  0  0  0  0  0  0  0  0  0
    9.1406  -16.5162   27.1099 C   0  0  0  0  0  0  0  0  0  0  0  0
    9.9562  -16.4602   28.2562 O   0  0  0  0  0  0  0  0  0  0  0  0
    8.0562  -17.1243   27.2323 O   0  0  0  0  0  0  0  0  0  0  0  0
  2  1  1  6
  2  3  1  0
  2  7  1  0
  3  4  1  0
  4  5  1  0
  5  9  1  0
  5  6  2  0
  7  8  2  0
 10  7  1  0
 10 11  1  0
 11 12  1  1
 12 13  1  0
 13 14  1  0
 15 14  1  0
 16 15  1  0
 17 19  1  0
 17 11  1  0
 18 17  2  0
 20 21  1  1
 20 19  1  0
 21 22  1  0
 22 27  2  0
 22 23  1  0
 23 24  2  0
 24 25  1  0
 26 25  2  0
 27 26  1  0
 28 20  1  0
 28 29  1  0
 30 28  2  0
M  END
$$$$
