EKF.pdb
     RDKit          3D

 30 30  0  0  1  0  0  0  0  0999 V2000
    8.3720  -13.3246   18.8029 N   0  0  0  0  0  0  0  0  0  0  0  0
    8.9926  -14.5754   19.2713 C   0  0  1  0  0  0  0  0  0  0  0  0
   10.4743  -14.4548   19.2559 C   0  0  0  0  0  0  0  0  0  0  0  0
   11.0465  -14.0267   17.9321 C   0  0  0  0  0  0  0  0  0  0  0  0
   12.4253  -14.4864   17.7169 C   0  0  0  0  0  0  0  0  0  0  0  0
   13.3906  -14.3626   18.4825 O   0  0  0  0  0  0  0  0  0  0  0  0
    8.4133  -14.9766   20.5767 C   0  0  0  0  0  0  0  0  0  0  0  0
    8.1712  -14.1100   21.4858 O   0  0  0  0  0  0  0  0  0  0  0  0
   12.6832  -15.1458   16.4977 O   0  0  0  0  0  0  0  0  0  0  0  0
    8.0846  -16.3155   20.9306 N   0  0  0  0  0  0  0  0  0  0  0  0
    7.5165  -16.6422   22.2346 C   0  0  1  0  0  0  0  0  0  0  0  0
    6.9425  -18.0474   22.2358 C   0  0  0  0  0  0  0  0  0  0  0  0
    6.5378  -18.4787   23.6254 C   0  0  0  0  0  0  0  0  0  0  0  0
    5.9443  -19.8679   23.5193 C   0  0  0  0  0  0  0  0  0  0  0  0
    5.9201  -20.5380   24.8959 C   0  0  0  0  0  0  0  0  0  0  0  0
    7.2702  -20.7572   25.3760 N   0  0  0  0  0  0  0  0  0  0  0  0
    8.5595  -16.4815   23.2659 C   0  0  0  0  0  0  0  0  0  0  0  0
    9.7049  -16.9297   23.0482 O   0  0  0  0  0  0  0  0  0  0  0  0
    8.3142  -15.8350   24.5025 N   0  0  0  0  0  0  0  0  0  0  0  0
    9.3847  -15.6303   25.4819 C   0  0  1  0  0  0  0  0  0  0  0  0
    9.5287  -14.1639   25.7284 C   0  0  0  0  0  0  0  0  0  0  0  0
    8.2449  -13.5203   26.1698 C   0  0  0  0  0  0  0  0  0  0  0  0
    7.3275  -13.1003   25.2425 C   0  0  0  0  0  0  0  0  0  0  0  0
    6.1543  -12.5218   25.6559 C   0  0  0  0  0  0  0  0  0  0  0  0
    5.8398  -12.3347   26.9836 C   0  0  0  0  0  0  0  0  0  0  0  0
    6.7829  -12.7669   27.9052 C   0  0  0  0  0  0  0  0  0  0  0  0
    7.9615  -13.3479   27.5055 C   0  0  0  0  0  0  0  0  0  0  0  0
    9.0024  -16.3436   26.7138 C   0  0  0  0  0  0  0  0  0  0  0  0
    7.7809  -17.0367   26.8137 O   0  0  0  0  0  0  0  0  0  0  0  0
    9.7366  -16.3693   27.7242 O   0  0  0  0  0  0  0  0  0  0  0  0
  2  1  1  1
  2  3  1  0
  2  7  1  0
  3  4  1  0
  4  5  1  0
  5  9  1  0
  5  6  2  0
  7  8  2  0
 10  7  1  0
 10 11  1  0
 11 12  1  6
 12 13  1  0
 13 14  1  0
 15 14  1  0
 16 15  1  0
 17 19  1  0
 17 11  1  0
 18 17  2  0
 20 21  1  1
 20 19  1  0
 21 22  1  0
 22 27  2  0
 22 23  1  0
 23 24  2  0
 24 25  1  0
 26 25  2  0
 27 26  1  0
 28 20  1  0
 28 29  1  0
 30 28  2  0
M  END
$$$$
