EKF.pdb
     RDKit          3D

 30 30  0  0  1  0  0  0  0  0999 V2000
    9.3239  -19.0159   19.7886 N   0  0  0  0  0  0  0  0  0  0  0  0
    8.3874  -18.5667   20.8327 C   0  0  1  0  0  0  0  0  0  0  0  0
    8.2330  -19.6158   21.8747 C   0  0  0  0  0  0  0  0  0  0  0  0
    9.4568  -19.8307   22.7227 C   0  0  0  0  0  0  0  0  0  0  0  0
    9.3221  -20.9467   23.6688 C   0  0  0  0  0  0  0  0  0  0  0  0
    9.4512  -20.9126   24.8998 O   0  0  0  0  0  0  0  0  0  0  0  0
    8.7921  -17.2345   21.3445 C   0  0  0  0  0  0  0  0  0  0  0  0
   10.0240  -16.8949   21.3997 O   0  0  0  0  0  0  0  0  0  0  0  0
    9.0094  -22.2046   23.1141 O   0  0  0  0  0  0  0  0  0  0  0  0
    7.8819  -16.2430   21.8074 N   0  0  0  0  0  0  0  0  0  0  0  0
    8.3298  -14.8971   22.1507 C   0  0  1  0  0  0  0  0  0  0  0  0
    7.2985  -13.8635   21.7361 C   0  0  0  0  0  0  0  0  0  0  0  0
    6.9032  -14.0262   20.2876 C   0  0  0  0  0  0  0  0  0  0  0  0
    7.9988  -13.4117   19.4419 C   0  0  0  0  0  0  0  0  0  0  0  0
    7.6475  -13.5298   17.9561 C   0  0  0  0  0  0  0  0  0  0  0  0
    8.6477  -12.8644   17.1449 N   0  0  0  0  0  0  0  0  0  0  0  0
    8.6048  -14.8381   23.5993 C   0  0  0  0  0  0  0  0  0  0  0  0
    8.4891  -13.7472   24.1968 O   0  0  0  0  0  0  0  0  0  0  0  0
    8.9977  -15.9757   24.3467 N   0  0  0  0  0  0  0  0  0  0  0  0
    9.1814  -15.9084   25.7988 C   0  0  1  0  0  0  0  0  0  0  0  0
    7.8765  -15.5399   26.4259 C   0  0  0  0  0  0  0  0  0  0  0  0
    7.6448  -14.0558   26.4558 C   0  0  0  0  0  0  0  0  0  0  0  0
    6.4091  -13.5428   26.1596 C   0  0  0  0  0  0  0  0  0  0  0  0
    6.2054  -12.1867   26.1983 C   0  0  0  0  0  0  0  0  0  0  0  0
    7.1982  -11.2902   26.5260 C   0  0  0  0  0  0  0  0  0  0  0  0
    8.4414  -11.8313   26.8219 C   0  0  0  0  0  0  0  0  0  0  0  0
    8.6593  -13.1869   26.7872 C   0  0  0  0  0  0  0  0  0  0  0  0
    9.6350  -17.2358   26.2514 C   0  0  0  0  0  0  0  0  0  0  0  0
    9.9548  -17.4838   27.5999 O   0  0  0  0  0  0  0  0  0  0  0  0
    9.7581  -18.2009   25.4677 O   0  0  0  0  0  0  0  0  0  0  0  0
  2  1  1  6
  2  3  1  0
  2  7  1  0
  3  4  1  0
  4  5  1  0
  5  9  1  0
  5  6  2  0
  7  8  2  0
 10  7  1  0
 10 11  1  0
 11 12  1  1
 12 13  1  0
 13 14  1  0
 15 14  1  0
 16 15  1  0
 17 19  1  0
 17 11  1  0
 18 17  2  0
 20 21  1  1
 20 19  1  0
 21 22  1  0
 22 27  2  0
 22 23  1  0
 23 24  2  0
 24 25  1  0
 26 25  2  0
 27 26  1  0
 28 20  1  0
 28 29  1  0
 30 28  2  0
M  END
$$$$
