EKF.pdb
     RDKit          3D

 30 30  0  0  1  0  0  0  0  0999 V2000
    5.8196  -20.3594   22.5840 N   0  0  0  0  0  0  0  0  0  0  0  0
    5.8520  -19.2058   23.4989 C   0  0  1  0  0  0  0  0  0  0  0  0
    6.0688  -19.6611   24.8975 C   0  0  0  0  0  0  0  0  0  0  0  0
    6.5888  -21.0677   25.0168 C   0  0  0  0  0  0  0  0  0  0  0  0
    6.2420  -21.7114   26.2912 C   0  0  0  0  0  0  0  0  0  0  0  0
    5.5814  -21.2335   27.2232 O   0  0  0  0  0  0  0  0  0  0  0  0
    6.8242  -18.1955   23.0145 C   0  0  0  0  0  0  0  0  0  0  0  0
    8.0835  -18.3709   23.1541 O   0  0  0  0  0  0  0  0  0  0  0  0
    6.7146  -23.0264   26.4784 O   0  0  0  0  0  0  0  0  0  0  0  0
    6.4623  -16.9779   22.3724 N   0  0  0  0  0  0  0  0  0  0  0  0
    7.4563  -15.9565   22.0582 C   0  0  1  0  0  0  0  0  0  0  0  0
    6.8296  -14.8171   21.2752 C   0  0  0  0  0  0  0  0  0  0  0  0
    7.8181  -14.1935   20.3188 C   0  0  0  0  0  0  0  0  0  0  0  0
    7.1020  -13.9651   19.0041 C   0  0  0  0  0  0  0  0  0  0  0  0
    8.0640  -13.3615   17.9771 C   0  0  0  0  0  0  0  0  0  0  0  0
    7.4000  -13.1924   16.6996 N   0  0  0  0  0  0  0  0  0  0  0  0
    8.0675  -15.4799   23.3139 C   0  0  0  0  0  0  0  0  0  0  0  0
    7.4194  -14.7076   24.0515 O   0  0  0  0  0  0  0  0  0  0  0  0
    9.3688  -15.8644   23.7212 N   0  0  0  0  0  0  0  0  0  0  0  0
   10.0081  -15.2670   24.8966 C   0  0  1  0  0  0  0  0  0  0  0  0
    9.1296  -15.4965   26.0829 C   0  0  0  0  0  0  0  0  0  0  0  0
    9.6808  -14.8867   27.3405 C   0  0  0  0  0  0  0  0  0  0  0  0
    9.5758  -13.5379   27.5584 C   0  0  0  0  0  0  0  0  0  0  0  0
   10.0743  -12.9918   28.7140 C   0  0  0  0  0  0  0  0  0  0  0  0
   10.6898  -13.7423   29.6910 C   0  0  0  0  0  0  0  0  0  0  0  0
   10.7856  -15.1055   29.4496 C   0  0  0  0  0  0  0  0  0  0  0  0
   10.2907  -15.6655   28.2973 C   0  0  0  0  0  0  0  0  0  0  0  0
   11.3188  -15.9188   25.0689 C   0  0  0  0  0  0  0  0  0  0  0  0
   12.4417  -15.2034   25.5268 O   0  0  0  0  0  0  0  0  0  0  0  0
   11.4990  -17.1296   24.8195 O   0  0  0  0  0  0  0  0  0  0  0  0
  2  1  1  6
  2  3  1  0
  2  7  1  0
  3  4  1  0
  4  5  1  0
  5  9  1  0
  5  6  2  0
  7  8  2  0
 10  7  1  0
 10 11  1  0
 11 12  1  1
 12 13  1  0
 13 14  1  0
 15 14  1  0
 16 15  1  0
 17 19  1  0
 17 11  1  0
 18 17  2  0
 20 21  1  1
 20 19  1  0
 21 22  1  0
 22 27  2  0
 22 23  1  0
 23 24  2  0
 24 25  1  0
 26 25  2  0
 27 26  1  0
 28 20  1  0
 28 29  1  0
 30 28  2  0
M  END
$$$$
