EKF.pdb
     RDKit          3D

 30 30  0  0  1  0  0  0  0  0999 V2000
    7.0653  -19.4836   22.4803 N   0  0  0  0  0  0  0  0  0  0  0  0
    8.1986  -19.2266   21.5755 C   0  0  1  0  0  0  0  0  0  0  0  0
    8.0421  -20.0033   20.3175 C   0  0  0  0  0  0  0  0  0  0  0  0
    6.7424  -19.7625   19.5991 C   0  0  0  0  0  0  0  0  0  0  0  0
    6.1617  -20.9817   19.0202 C   0  0  0  0  0  0  0  0  0  0  0  0
    6.5969  -22.1380   19.1027 O   0  0  0  0  0  0  0  0  0  0  0  0
    8.3830  -17.7667   21.3880 C   0  0  0  0  0  0  0  0  0  0  0  0
    9.3060  -17.3098   20.6296 O   0  0  0  0  0  0  0  0  0  0  0  0
    4.9701  -20.8201   18.2842 O   0  0  0  0  0  0  0  0  0  0  0  0
    7.5805  -16.7705   22.0122 N   0  0  0  0  0  0  0  0  0  0  0  0
    8.0103  -15.3775   22.0808 C   0  0  1  0  0  0  0  0  0  0  0  0
    6.8816  -14.4447   21.6810 C   0  0  0  0  0  0  0  0  0  0  0  0
    7.4095  -13.1474   21.1161 C   0  0  0  0  0  0  0  0  0  0  0  0
    7.8803  -13.4209   19.7030 C   0  0  0  0  0  0  0  0  0  0  0  0
    8.3974  -12.1309   19.0601 C   0  0  0  0  0  0  0  0  0  0  0  0
    8.7427  -12.3607   17.6711 N   0  0  0  0  0  0  0  0  0  0  0  0
    8.4929  -15.0912   23.4456 C   0  0  0  0  0  0  0  0  0  0  0  0
    8.0327  -14.1055   24.0596 O   0  0  0  0  0  0  0  0  0  0  0  0
    9.4639  -15.8937   24.0938 N   0  0  0  0  0  0  0  0  0  0  0  0
    9.9298  -15.5831   25.4479 C   0  0  1  0  0  0  0  0  0  0  0  0
    8.7463  -15.5377   26.3584 C   0  0  0  0  0  0  0  0  0  0  0  0
    8.0464  -14.2085   26.3355 C   0  0  0  0  0  0  0  0  0  0  0  0
    6.7168  -14.1327   26.0126 C   0  0  0  0  0  0  0  0  0  0  0  0
    6.0845  -12.9153   26.0030 C   0  0  0  0  0  0  0  0  0  0  0  0
    6.7277  -11.7360   26.3071 C   0  0  0  0  0  0  0  0  0  0  0  0
    8.0735  -11.8360   26.6308 C   0  0  0  0  0  0  0  0  0  0  0  0
    8.7190  -13.0482   26.6444 C   0  0  0  0  0  0  0  0  0  0  0  0
   10.8709  -16.6445   25.8484 C   0  0  0  0  0  0  0  0  0  0  0  0
   11.5936  -16.5704   27.0544 O   0  0  0  0  0  0  0  0  0  0  0  0
   11.0738  -17.6560   25.1439 O   0  0  0  0  0  0  0  0  0  0  0  0
  2  1  1  1
  2  3  1  0
  2  7  1  0
  3  4  1  0
  4  5  1  0
  5  9  1  0
  5  6  2  0
  7  8  2  0
 10  7  1  0
 10 11  1  0
 11 12  1  1
 12 13  1  0
 13 14  1  0
 15 14  1  0
 16 15  1  0
 17 19  1  0
 17 11  1  0
 18 17  2  0
 20 21  1  1
 20 19  1  0
 21 22  1  0
 22 27  2  0
 22 23  1  0
 23 24  2  0
 24 25  1  0
 26 25  2  0
 27 26  1  0
 28 20  1  0
 28 29  1  0
 30 28  2  0
M  END
$$$$
