AND.pdb
     RDKit          3D

 22 21  0  0  1  0  0  0  0  0999 V2000
    7.3397  -12.7610   19.2855 C   0  0  0  0  0  0  0  0  0  0  0  0
    8.3278  -13.8824   19.4506 C   0  0  2  0  0  0  0  0  0  0  0  0
    8.1714  -14.7796   18.3100 N   0  0  0  0  0  0  0  0  0  0  0  0
    8.1486  -14.6560   20.6880 C   0  0  0  0  0  0  0  0  0  0  0  0
    8.2051  -14.0501   21.7994 O   0  0  0  0  0  0  0  0  0  0  0  0
    4.7172  -16.4018   21.7886 N   0  0  0  0  0  0  0  0  0  0  0  0
    5.3923  -17.5347   21.3047 C   0  0  0  0  0  0  0  0  0  0  0  0
    4.7219  -18.3030   20.5217 O   0  0  0  0  0  0  0  0  0  0  0  0
    6.7626  -17.9485   21.5784 C   0  0  0  0  0  0  0  0  0  0  0  0
    7.6937  -16.8227   21.8725 C   0  0  2  0  0  0  0  0  0  0  0  0
    7.9182  -16.0470   20.6559 N   0  0  0  0  0  0  0  0  0  0  0  0
    9.0442  -17.3547   22.2892 C   0  0  0  0  0  0  0  0  0  0  0  0
    9.5115  -18.3710   21.7470 O   0  0  0  0  0  0  0  0  0  0  0  0
    9.8004  -16.7099   23.3014 N   0  0  0  0  0  0  0  0  0  0  0  0
   11.0605  -17.2700   23.7357 C   0  0  1  0  0  0  0  0  0  0  0  0
   12.1104  -16.1625   23.7709 C   0  0  0  0  0  0  0  0  0  0  0  0
   12.9651  -16.1960   22.5659 C   0  0  0  0  0  0  0  0  0  0  0  0
   14.1347  -15.7305   22.5843 O   0  0  0  0  0  0  0  0  0  0  0  0
   10.9487  -17.9220   25.0635 C   0  0  0  0  0  0  0  0  0  0  0  0
   11.7734  -18.8185   25.3658 O   0  0  0  0  0  0  0  0  0  0  0  0
   12.5156  -16.7403   21.3697 O   0  0  0  0  0  0  0  0  0  0  0  0
    9.9584  -17.5537   25.9538 O   0  0  0  0  0  0  0  0  0  0  0  0
  2  1  1  6
  2  3  1  0
  4  2  1  0
  4 11  1  0
  5  4  2  0
  7  8  2  0
  7  6  1  0
  9  7  1  0
 10 11  1  0
 10  9  1  6
 10 12  1  0
 12 13  2  0
 12 14  1  0
 14 15  1  0
 15 16  1  1
 16 17  1  0
 17 21  1  0
 18 17  2  0
 19 22  1  0
 19 15  1  0
 20 19  2  0
M  END
$$$$
