AND.pdb
     RDKit          3D

 22 21  0  0  1  0  0  0  0  0999 V2000
    7.1762  -12.9446   18.6470 C   0  0  0  0  0  0  0  0  0  0  0  0
    8.0890  -14.0810   19.0166 C   0  0  2  0  0  0  0  0  0  0  0  0
    7.3293  -15.3196   18.8789 N   0  0  0  0  0  0  0  0  0  0  0  0
    8.6154  -13.9998   20.3871 C   0  0  0  0  0  0  0  0  0  0  0  0
    9.4673  -13.1027   20.6608 O   0  0  0  0  0  0  0  0  0  0  0  0
    8.2589  -14.1802   26.0922 N   0  0  0  0  0  0  0  0  0  0  0  0
    8.1479  -15.1792   25.1108 C   0  0  0  0  0  0  0  0  0  0  0  0
    8.5029  -16.3633   25.4640 O   0  0  0  0  0  0  0  0  0  0  0  0
    7.6773  -15.0414   23.7384 C   0  0  0  0  0  0  0  0  0  0  0  0
    8.7653  -14.8845   22.7321 C   0  0  2  0  0  0  0  0  0  0  0  0
    8.1911  -14.8965   21.3895 N   0  0  0  0  0  0  0  0  0  0  0  0
    9.7122  -16.0590   22.7968 C   0  0  0  0  0  0  0  0  0  0  0  0
    9.3587  -17.1727   22.3725 O   0  0  0  0  0  0  0  0  0  0  0  0
   11.0148  -15.9155   23.3399 N   0  0  0  0  0  0  0  0  0  0  0  0
   11.9170  -17.0447   23.3734 C   0  0  1  0  0  0  0  0  0  0  0  0
   13.3109  -16.5789   22.9607 C   0  0  0  0  0  0  0  0  0  0  0  0
   14.1992  -17.7270   22.6840 C   0  0  0  0  0  0  0  0  0  0  0  0
   14.2651  -18.7045   23.4748 O   0  0  0  0  0  0  0  0  0  0  0  0
   11.9577  -17.6819   24.7124 C   0  0  0  0  0  0  0  0  0  0  0  0
   11.5662  -17.0221   25.7057 O   0  0  0  0  0  0  0  0  0  0  0  0
   14.9935  -17.7749   21.5456 O   0  0  0  0  0  0  0  0  0  0  0  0
   12.4163  -18.9759   24.8689 O   0  0  0  0  0  0  0  0  0  0  0  0
  2  1  1  1
  2  3  1  0
  4  2  1  0
  4 11  1  0
  5  4  2  0
  7  8  2  0
  7  6  1  0
  9  7  1  0
 10 11  1  0
 10  9  1  1
 10 12  1  0
 12 13  2  0
 12 14  1  0
 14 15  1  0
 15 16  1  1
 16 17  1  0
 17 21  1  0
 18 17  2  0
 19 22  1  0
 19 15  1  0
 20 19  2  0
M  END
$$$$
