AND.pdb
     RDKit          3D

 22 21  0  0  1  0  0  0  0  0999 V2000
    9.1488  -17.9787   15.9931 C   0  0  0  0  0  0  0  0  0  0  0  0
    9.0081  -18.2791   17.4597 C   0  0  2  0  0  0  0  0  0  0  0  0
    7.6046  -18.5888   17.7138 N   0  0  0  0  0  0  0  0  0  0  0  0
    9.4129  -17.1699   18.3359 C   0  0  0  0  0  0  0  0  0  0  0  0
   10.5968  -16.7263   18.2504 O   0  0  0  0  0  0  0  0  0  0  0  0
    7.5505  -12.2266   19.5130 N   0  0  0  0  0  0  0  0  0  0  0  0
    7.6515  -13.6212   19.3772 C   0  0  0  0  0  0  0  0  0  0  0  0
    7.6060  -14.0790   18.1768 O   0  0  0  0  0  0  0  0  0  0  0  0
    7.8041  -14.6173   20.4302 C   0  0  0  0  0  0  0  0  0  0  0  0
    8.9275  -15.5715   20.2104 C   0  0  2  0  0  0  0  0  0  0  0  0
    8.5130  -16.5997   19.2600 N   0  0  0  0  0  0  0  0  0  0  0  0
    9.2607  -16.2932   21.4944 C   0  0  0  0  0  0  0  0  0  0  0  0
    8.4693  -17.1265   21.9681 O   0  0  0  0  0  0  0  0  0  0  0  0
   10.4750  -16.0354   22.1808 N   0  0  0  0  0  0  0  0  0  0  0  0
   11.2087  -17.1204   22.7930 C   0  0  1  0  0  0  0  0  0  0  0  0
   11.6034  -18.1244   21.7130 C   0  0  0  0  0  0  0  0  0  0  0  0
   12.3522  -19.2618   22.2869 C   0  0  0  0  0  0  0  0  0  0  0  0
   11.8042  -20.3824   22.4574 O   0  0  0  0  0  0  0  0  0  0  0  0
   12.4099  -16.6378   23.5174 C   0  0  0  0  0  0  0  0  0  0  0  0
   12.7243  -17.1918   24.5988 O   0  0  0  0  0  0  0  0  0  0  0  0
   13.6849  -19.1420   22.6595 O   0  0  0  0  0  0  0  0  0  0  0  0
   13.1714  -15.5995   23.0162 O   0  0  0  0  0  0  0  0  0  0  0  0
  2  1  1  6
  2  3  1  0
  4  2  1  0
  4 11  1  0
  5  4  2  0
  7  8  2  0
  7  6  1  0
  9  7  1  0
 10 11  1  0
 10  9  1  1
 10 12  1  0
 12 13  2  0
 12 14  1  0
 14 15  1  0
 15 16  1  6
 16 17  1  0
 17 21  1  0
 18 17  2  0
 19 22  1  0
 19 15  1  0
 20 19  2  0
M  END
$$$$
