AND.pdb
     RDKit          3D

 22 21  0  0  1  0  0  0  0  0999 V2000
    7.8662  -13.0300   16.6532 C   0  0  0  0  0  0  0  0  0  0  0  0
    8.7792  -14.1581   17.0468 C   0  0  2  0  0  0  0  0  0  0  0  0
    7.9759  -15.3752   17.1068 N   0  0  0  0  0  0  0  0  0  0  0  0
    9.4395  -13.9635   18.3460 C   0  0  0  0  0  0  0  0  0  0  0  0
   10.3286  -13.0667   18.4498 O   0  0  0  0  0  0  0  0  0  0  0  0
    7.1063  -13.2674   21.1700 N   0  0  0  0  0  0  0  0  0  0  0  0
    7.5550  -14.3520   21.9419 C   0  0  0  0  0  0  0  0  0  0  0  0
    6.7509  -14.7706   22.8534 O   0  0  0  0  0  0  0  0  0  0  0  0
    8.8213  -15.0659   21.8370 C   0  0  0  0  0  0  0  0  0  0  0  0
    9.7259  -14.5519   20.7701 C   0  0  2  0  0  0  0  0  0  0  0  0
    9.1017  -14.7523   19.4653 N   0  0  0  0  0  0  0  0  0  0  0  0
   11.0126  -15.3423   20.7484 C   0  0  0  0  0  0  0  0  0  0  0  0
   10.9971  -16.5569   20.4844 O   0  0  0  0  0  0  0  0  0  0  0  0
   12.2555  -14.7184   21.0277 N   0  0  0  0  0  0  0  0  0  0  0  0
   13.4726  -15.4984   21.0460 C   0  0  1  0  0  0  0  0  0  0  0  0
   14.6201  -14.6407   20.5188 C   0  0  0  0  0  0  0  0  0  0  0  0
   14.4331  -14.3160   19.0894 C   0  0  0  0  0  0  0  0  0  0  0  0
   14.1339  -15.2081   18.2529 O   0  0  0  0  0  0  0  0  0  0  0  0
   13.7852  -16.0056   22.4046 C   0  0  0  0  0  0  0  0  0  0  0  0
   13.0726  -15.6295   23.3668 O   0  0  0  0  0  0  0  0  0  0  0  0
   14.5785  -13.0196   18.6124 O   0  0  0  0  0  0  0  0  0  0  0  0
   14.8387  -16.8751   22.6124 O   0  0  0  0  0  0  0  0  0  0  0  0
  2  1  1  1
  2  3  1  0
  4  2  1  0
  4 11  1  0
  5  4  2  0
  7  8  2  0
  7  6  1  0
  9  7  1  0
 10 11  1  0
 10  9  1  1
 10 12  1  0
 12 13  2  0
 12 14  1  0
 14 15  1  0
 15 16  1  1
 16 17  1  0
 17 21  1  0
 18 17  2  0
 19 22  1  0
 19 15  1  0
 20 19  2  0
M  END
$$$$
