AND.pdb
     RDKit          3D

 22 21  0  0  1  0  0  0  0  0999 V2000
    8.2063  -15.9273   14.8162 C   0  0  0  0  0  0  0  0  0  0  0  0
    9.1204  -15.9651   16.0095 C   0  0  2  0  0  0  0  0  0  0  0  0
    8.4816  -16.7923   17.0284 N   0  0  0  0  0  0  0  0  0  0  0  0
    9.4031  -14.6418   16.5847 C   0  0  0  0  0  0  0  0  0  0  0  0
   10.0713  -13.8101   15.9011 O   0  0  0  0  0  0  0  0  0  0  0  0
    6.2124  -13.6932   20.5071 N   0  0  0  0  0  0  0  0  0  0  0  0
    7.5523  -13.3787   20.2257 C   0  0  0  0  0  0  0  0  0  0  0  0
    8.4363  -13.9528   20.9617 O   0  0  0  0  0  0  0  0  0  0  0  0
    8.0676  -12.4818   19.1990 C   0  0  0  0  0  0  0  0  0  0  0  0
    9.2654  -13.0004   18.4798 C   0  0  2  0  0  0  0  0  0  0  0  0
    8.9469  -14.2894   17.8718 N   0  0  0  0  0  0  0  0  0  0  0  0
   10.3901  -13.2594   19.4537 C   0  0  0  0  0  0  0  0  0  0  0  0
   10.8370  -12.3351   20.1545 O   0  0  0  0  0  0  0  0  0  0  0  0
   10.9551  -14.5537   19.5865 N   0  0  0  0  0  0  0  0  0  0  0  0
   12.0742  -14.7708   20.4758 C   0  0  1  0  0  0  0  0  0  0  0  0
   11.8338  -16.0500   21.2733 C   0  0  0  0  0  0  0  0  0  0  0  0
   12.9772  -16.3515   22.1595 C   0  0  0  0  0  0  0  0  0  0  0  0
   13.9611  -15.5703   22.2413 O   0  0  0  0  0  0  0  0  0  0  0  0
   13.3595  -14.8516   19.7395 C   0  0  0  0  0  0  0  0  0  0  0  0
   14.3854  -14.3516   20.2617 O   0  0  0  0  0  0  0  0  0  0  0  0
   13.0129  -17.5031   22.9352 O   0  0  0  0  0  0  0  0  0  0  0  0
   13.4317  -15.4642   18.5031 O   0  0  0  0  0  0  0  0  0  0  0  0
  2  1  1  6
  2  3  1  0
  4  2  1  0
  4 11  1  0
  5  4  2  0
  7  8  2  0
  7  6  1  0
  9  7  1  0
 10 11  1  0
 10  9  1  1
 10 12  1  0
 12 13  2  0
 12 14  1  0
 14 15  1  0
 15 16  1  6
 16 17  1  0
 17 21  1  0
 18 17  2  0
 19 22  1  0
 19 15  1  0
 20 19  2  0
M  END
$$$$
