AND.pdb
     RDKit          3D

 22 21  0  0  1  0  0  0  0  0999 V2000
    7.7258  -12.4825   18.8217 C   0  0  0  0  0  0  0  0  0  0  0  0
    8.0707  -13.8524   19.3367 C   0  0  2  0  0  0  0  0  0  0  0  0
    6.8859  -14.6914   19.1865 N   0  0  0  0  0  0  0  0  0  0  0  0
    8.4866  -13.8707   20.7468 C   0  0  0  0  0  0  0  0  0  0  0  0
    9.6693  -13.5215   21.0382 O   0  0  0  0  0  0  0  0  0  0  0  0
    6.0813  -13.4631   26.4228 N   0  0  0  0  0  0  0  0  0  0  0  0
    6.9929  -13.8508   25.4267 C   0  0  0  0  0  0  0  0  0  0  0  0
    8.2040  -14.0461   25.8113 O   0  0  0  0  0  0  0  0  0  0  0  0
    6.7364  -14.0621   24.0077 C   0  0  0  0  0  0  0  0  0  0  0  0
    7.9667  -14.2097   23.1798 C   0  0  2  0  0  0  0  0  0  0  0  0
    7.5984  -14.2675   21.7679 N   0  0  0  0  0  0  0  0  0  0  0  0
    8.6538  -15.5180   23.4908 C   0  0  0  0  0  0  0  0  0  0  0  0
    8.0881  -16.5968   23.2432 O   0  0  0  0  0  0  0  0  0  0  0  0
    9.9492  -15.5412   24.0683 N   0  0  0  0  0  0  0  0  0  0  0  0
   10.6255  -16.8003   24.2864 C   0  0  1  0  0  0  0  0  0  0  0  0
   12.0000  -16.7467   23.6245 C   0  0  0  0  0  0  0  0  0  0  0  0
   12.7503  -18.0004   23.8459 C   0  0  0  0  0  0  0  0  0  0  0  0
   12.1610  -19.0612   24.1809 O   0  0  0  0  0  0  0  0  0  0  0  0
   10.7562  -17.1163   25.7299 C   0  0  0  0  0  0  0  0  0  0  0  0
   10.9001  -16.1710   26.5429 O   0  0  0  0  0  0  0  0  0  0  0  0
   14.1296  -18.0597   23.6936 O   0  0  0  0  0  0  0  0  0  0  0  0
   10.7210  -18.4234   26.1762 O   0  0  0  0  0  0  0  0  0  0  0  0
  2  1  1  1
  2  3  1  0
  4  2  1  0
  4 11  1  0
  5  4  2  0
  7  8  2  0
  7  6  1  0
  9  7  1  0
 10 11  1  0
 10  9  1  1
 10 12  1  0
 12 13  2  0
 12 14  1  0
 14 15  1  0
 15 16  1  1
 16 17  1  0
 17 21  1  0
 18 17  2  0
 19 22  1  0
 19 15  1  0
 20 19  2  0
M  END
$$$$
