AND.pdb
     RDKit          3D

 22 21  0  0  1  0  0  0  0  0999 V2000
    8.1126  -12.3179   20.0583 C   0  0  0  0  0  0  0  0  0  0  0  0
    8.4034  -13.0126   18.7569 C   0  0  2  0  0  0  0  0  0  0  0  0
    7.1605  -13.6233   18.2955 N   0  0  0  0  0  0  0  0  0  0  0  0
    9.4338  -14.0567   18.8569 C   0  0  0  0  0  0  0  0  0  0  0  0
    9.0696  -15.2689   18.9171 O   0  0  0  0  0  0  0  0  0  0  0  0
   14.1522  -16.4563   17.2478 N   0  0  0  0  0  0  0  0  0  0  0  0
   14.0890  -15.2933   18.0333 C   0  0  0  0  0  0  0  0  0  0  0  0
   15.1096  -15.0557   18.7779 O   0  0  0  0  0  0  0  0  0  0  0  0
   13.0085  -14.3181   18.1084 C   0  0  0  0  0  0  0  0  0  0  0  0
   11.8435  -14.7586   18.9266 C   0  0  2  0  0  0  0  0  0  0  0  0
   10.8058  -13.7320   18.8872 N   0  0  0  0  0  0  0  0  0  0  0  0
   12.2440  -14.8987   20.3759 C   0  0  0  0  0  0  0  0  0  0  0  0
   12.6468  -13.9100   21.0127 O   0  0  0  0  0  0  0  0  0  0  0  0
   12.1696  -16.1529   21.0343 N   0  0  0  0  0  0  0  0  0  0  0  0
   12.5535  -16.2688   22.4233 C   0  0  1  0  0  0  0  0  0  0  0  0
   11.3842  -16.8486   23.2149 C   0  0  0  0  0  0  0  0  0  0  0  0
   11.7341  -17.0183   24.6406 C   0  0  0  0  0  0  0  0  0  0  0  0
   12.8645  -16.6780   25.0783 O   0  0  0  0  0  0  0  0  0  0  0  0
   13.7642  -17.1086   22.5954 C   0  0  0  0  0  0  0  0  0  0  0  0
   14.2725  -17.2058   23.7388 O   0  0  0  0  0  0  0  0  0  0  0  0
   10.8347  -17.5568   25.5517 O   0  0  0  0  0  0  0  0  0  0  0  0
   14.3255  -17.7729   21.5217 O   0  0  0  0  0  0  0  0  0  0  0  0
  2  1  1  1
  2  3  1  0
  4  2  1  0
  4 11  1  0
  5  4  2  0
  7  8  2  0
  7  6  1  0
  9  7  1  0
 10 11  1  0
 10  9  1  6
 10 12  1  0
 12 13  2  0
 12 14  1  0
 14 15  1  0
 15 16  1  1
 16 17  1  0
 17 21  1  0
 18 17  2  0
 19 22  1  0
 19 15  1  0
 20 19  2  0
M  END
$$$$
