AND.pdb
     RDKit          3D

 22 21  0  0  1  0  0  0  0  0999 V2000
    7.4684  -12.7369   18.6625 C   0  0  0  0  0  0  0  0  0  0  0  0
    8.6654  -13.6350   18.5155 C   0  0  2  0  0  0  0  0  0  0  0  0
    8.1825  -14.9504   18.1070 N   0  0  0  0  0  0  0  0  0  0  0  0
    9.4531  -13.7832   19.7482 C   0  0  0  0  0  0  0  0  0  0  0  0
   10.0889  -12.7800   20.1897 O   0  0  0  0  0  0  0  0  0  0  0  0
   10.7452  -17.6516   24.3385 N   0  0  0  0  0  0  0  0  0  0  0  0
   10.4245  -16.4024   23.7816 C   0  0  0  0  0  0  0  0  0  0  0  0
   10.8512  -15.3708   24.4192 O   0  0  0  0  0  0  0  0  0  0  0  0
    9.6679  -16.1284   22.5665 C   0  0  0  0  0  0  0  0  0  0  0  0
   10.3459  -15.1967   21.6215 C   0  0  2  0  0  0  0  0  0  0  0  0
    9.5109  -15.0120   20.4379 N   0  0  0  0  0  0  0  0  0  0  0  0
   11.6429  -15.7971   21.1337 C   0  0  0  0  0  0  0  0  0  0  0  0
   11.6847  -16.9842   20.7673 O   0  0  0  0  0  0  0  0  0  0  0  0
   12.8309  -15.0236   21.0851 N   0  0  0  0  0  0  0  0  0  0  0  0
   14.0896  -15.6451   20.7392 C   0  0  1  0  0  0  0  0  0  0  0  0
   14.9451  -14.6406   19.9716 C   0  0  0  0  0  0  0  0  0  0  0  0
   14.4561  -14.4677   18.5878 C   0  0  0  0  0  0  0  0  0  0  0  0
   13.8730  -15.4046   17.9817 O   0  0  0  0  0  0  0  0  0  0  0  0
   14.8135  -16.1348   21.9379 C   0  0  0  0  0  0  0  0  0  0  0  0
   14.3140  -15.9265   23.0703 O   0  0  0  0  0  0  0  0  0  0  0  0
   14.6184  -13.2704   17.9028 O   0  0  0  0  0  0  0  0  0  0  0  0
   16.0142  -16.8075   21.8161 O   0  0  0  0  0  0  0  0  0  0  0  0
  2  1  1  1
  2  3  1  0
  4  2  1  0
  4 11  1  0
  5  4  2  0
  7  8  2  0
  7  6  1  0
  9  7  1  0
 10 11  1  0
 10  9  1  1
 10 12  1  0
 12 13  2  0
 12 14  1  0
 14 15  1  0
 15 16  1  1
 16 17  1  0
 17 21  1  0
 18 17  2  0
 19 22  1  0
 19 15  1  0
 20 19  2  0
M  END
$$$$
