AND.pdb
     RDKit          3D

 22 21  0  0  1  0  0  0  0  0999 V2000
    8.4254  -19.4164   18.2080 C   0  0  0  0  0  0  0  0  0  0  0  0
    8.2070  -17.9420   18.0094 C   0  0  2  0  0  0  0  0  0  0  0  0
    8.9124  -17.5515   16.7928 N   0  0  0  0  0  0  0  0  0  0  0  0
    8.6920  -17.1133   19.1230 C   0  0  0  0  0  0  0  0  0  0  0  0
    9.9151  -16.7835   19.1498 O   0  0  0  0  0  0  0  0  0  0  0  0
    8.7034  -14.0918   23.5770 N   0  0  0  0  0  0  0  0  0  0  0  0
    7.4794  -14.7253   23.3047 C   0  0  0  0  0  0  0  0  0  0  0  0
    6.5086  -14.4497   24.1010 O   0  0  0  0  0  0  0  0  0  0  0  0
    7.1708  -15.6574   22.2276 C   0  0  0  0  0  0  0  0  0  0  0  0
    8.2979  -15.8928   21.2815 C   0  0  2  0  0  0  0  0  0  0  0  0
    7.8253  -16.6858   20.1501 N   0  0  0  0  0  0  0  0  0  0  0  0
    9.3792  -16.7100   21.9475 C   0  0  0  0  0  0  0  0  0  0  0  0
   10.1964  -17.3463   21.2602 O   0  0  0  0  0  0  0  0  0  0  0  0
    9.4822  -16.7677   23.3611 N   0  0  0  0  0  0  0  0  0  0  0  0
   10.7567  -17.0410   23.9866 C   0  0  1  0  0  0  0  0  0  0  0  0
   11.8114  -16.1118   23.3914 C   0  0  0  0  0  0  0  0  0  0  0  0
   13.1255  -16.7816   23.3005 C   0  0  0  0  0  0  0  0  0  0  0  0
   13.2571  -17.9990   23.5931 O   0  0  0  0  0  0  0  0  0  0  0  0
   10.6962  -16.8814   25.4603 C   0  0  0  0  0  0  0  0  0  0  0  0
   11.0712  -17.8347   26.1854 O   0  0  0  0  0  0  0  0  0  0  0  0
   14.2634  -16.0991   22.8901 O   0  0  0  0  0  0  0  0  0  0  0  0
   10.2371  -15.7087   26.0288 O   0  0  0  0  0  0  0  0  0  0  0  0
  2  1  1  1
  2  3  1  0
  4  2  1  0
  4 11  1  0
  5  4  2  0
  7  8  2  0
  7  6  1  0
  9  7  1  0
 10 11  1  0
 10  9  1  1
 10 12  1  0
 12 13  2  0
 12 14  1  0
 14 15  1  0
 15 16  1  6
 16 17  1  0
 17 21  1  0
 18 17  2  0
 19 22  1  0
 19 15  1  0
 20 19  2  0
M  END
$$$$
