AND.pdb
     RDKit          3D

 22 21  0  0  1  0  0  0  0  0999 V2000
    8.1027  -12.7829   20.4623 C   0  0  0  0  0  0  0  0  0  0  0  0
    8.7276  -13.3938   19.2386 C   0  0  2  0  0  0  0  0  0  0  0  0
    7.6456  -13.8438   18.3687 N   0  0  0  0  0  0  0  0  0  0  0  0
    9.6077  -14.5358   19.5270 C   0  0  0  0  0  0  0  0  0  0  0  0
    9.1850  -15.7064   19.2893 O   0  0  0  0  0  0  0  0  0  0  0  0
   13.6674  -13.8895   17.6234 N   0  0  0  0  0  0  0  0  0  0  0  0
   13.4239  -15.0114   18.4330 C   0  0  0  0  0  0  0  0  0  0  0  0
   13.3986  -16.1486   17.8338 O   0  0  0  0  0  0  0  0  0  0  0  0
   13.1979  -15.0482   19.8723 C   0  0  0  0  0  0  0  0  0  0  0  0
   11.8214  -15.4635   20.2642 C   0  0  2  0  0  0  0  0  0  0  0  0
   10.9004  -14.3490   20.0590 N   0  0  0  0  0  0  0  0  0  0  0  0
   11.7712  -15.7865   21.7386 C   0  0  0  0  0  0  0  0  0  0  0  0
   11.9316  -14.8879   22.5824 O   0  0  0  0  0  0  0  0  0  0  0  0
   11.5424  -17.1129   22.1863 N   0  0  0  0  0  0  0  0  0  0  0  0
   11.5304  -17.4109   23.6010 C   0  0  1  0  0  0  0  0  0  0  0  0
   10.4074  -18.4037   23.8898 C   0  0  0  0  0  0  0  0  0  0  0  0
   10.3901  -18.7931   25.3152 C   0  0  0  0  0  0  0  0  0  0  0  0
   11.1959  -18.2851   26.1385 O   0  0  0  0  0  0  0  0  0  0  0  0
   12.8323  -17.9501   24.0647 C   0  0  0  0  0  0  0  0  0  0  0  0
   13.4848  -18.6951   23.2938 O   0  0  0  0  0  0  0  0  0  0  0  0
    9.4884  -19.7302   25.8028 O   0  0  0  0  0  0  0  0  0  0  0  0
   13.3217  -17.6416   25.3194 O   0  0  0  0  0  0  0  0  0  0  0  0
  2  1  1  1
  2  3  1  0
  4  2  1  0
  4 11  1  0
  5  4  2  0
  7  8  2  0
  7  6  1  0
  9  7  1  0
 10 11  1  0
 10  9  1  1
 10 12  1  0
 12 13  2  0
 12 14  1  0
 14 15  1  0
 15 16  1  6
 16 17  1  0
 17 21  1  0
 18 17  2  0
 19 22  1  0
 19 15  1  0
 20 19  2  0
M  END
$$$$
