AND.pdb
     RDKit          3D

 22 21  0  0  1  0  0  0  0  0999 V2000
    8.3071  -14.5660   17.4132 C   0  0  0  0  0  0  0  0  0  0  0  0
    7.8709  -13.8194   18.6433 C   0  0  2  0  0  0  0  0  0  0  0  0
    7.8514  -12.3979   18.3129 N   0  0  0  0  0  0  0  0  0  0  0  0
    8.7490  -14.0221   19.8051 C   0  0  0  0  0  0  0  0  0  0  0  0
    9.6765  -13.1864   20.0215 O   0  0  0  0  0  0  0  0  0  0  0  0
   10.6093  -15.9044   24.4841 N   0  0  0  0  0  0  0  0  0  0  0  0
    9.4601  -16.5550   24.0051 C   0  0  0  0  0  0  0  0  0  0  0  0
    8.9683  -17.4693   24.7633 O   0  0  0  0  0  0  0  0  0  0  0  0
    8.7519  -16.3211   22.7529 C   0  0  0  0  0  0  0  0  0  0  0  0
    9.3774  -15.2869   21.8811 C   0  0  2  0  0  0  0  0  0  0  0  0
    8.5760  -15.1212   20.6717 N   0  0  0  0  0  0  0  0  0  0  0  0
   10.7425  -15.7431   21.4238 C   0  0  0  0  0  0  0  0  0  0  0  0
   10.8493  -16.6143   20.5434 O   0  0  0  0  0  0  0  0  0  0  0  0
   11.9215  -15.1906   21.9865 N   0  0  0  0  0  0  0  0  0  0  0  0
   13.2206  -15.6409   21.5395 C   0  0  1  0  0  0  0  0  0  0  0  0
   14.0170  -14.4392   21.0377 C   0  0  0  0  0  0  0  0  0  0  0  0
   15.3424  -14.8495   20.5291 C   0  0  0  0  0  0  0  0  0  0  0  0
   15.4524  -15.7237   19.6298 O   0  0  0  0  0  0  0  0  0  0  0  0
   13.9633  -16.3441   22.6140 C   0  0  0  0  0  0  0  0  0  0  0  0
   13.6292  -16.1447   23.8072 O   0  0  0  0  0  0  0  0  0  0  0  0
   16.5153  -14.2899   21.0194 O   0  0  0  0  0  0  0  0  0  0  0  0
   15.0031  -17.2028   22.3130 O   0  0  0  0  0  0  0  0  0  0  0  0
  2  1  1  6
  2  3  1  0
  4  2  1  0
  4 11  1  0
  5  4  2  0
  7  8  2  0
  7  6  1  0
  9  7  1  0
 10 11  1  0
 10  9  1  1
 10 12  1  0
 12 13  2  0
 12 14  1  0
 14 15  1  0
 15 16  1  1
 16 17  1  0
 17 21  1  0
 18 17  2  0
 19 22  1  0
 19 15  1  0
 20 19  2  0
M  END
$$$$
