AND.pdb
     RDKit          3D

 22 21  0  0  1  0  0  0  0  0999 V2000
    7.8680  -15.1521   18.8871 C   0  0  0  0  0  0  0  0  0  0  0  0
    7.7290  -13.7951   19.5195 C   0  0  2  0  0  0  0  0  0  0  0  0
    8.4972  -12.8518   18.7130 N   0  0  0  0  0  0  0  0  0  0  0  0
    8.2121  -13.7328   20.9068 C   0  0  0  0  0  0  0  0  0  0  0  0
    9.4321  -13.4619   21.1160 O   0  0  0  0  0  0  0  0  0  0  0  0
    6.2354  -13.1266   26.7717 N   0  0  0  0  0  0  0  0  0  0  0  0
    7.0718  -13.3696   25.6695 C   0  0  0  0  0  0  0  0  0  0  0  0
    8.3311  -13.4415   25.9182 O   0  0  0  0  0  0  0  0  0  0  0  0
    6.6895  -13.5531   24.2752 C   0  0  0  0  0  0  0  0  0  0  0  0
    7.8161  -13.9358   23.3779 C   0  0  2  0  0  0  0  0  0  0  0  0
    7.3470  -13.9683   21.9955 N   0  0  0  0  0  0  0  0  0  0  0  0
    8.2880  -15.3345   23.6966 C   0  0  0  0  0  0  0  0  0  0  0  0
    7.5437  -16.3086   23.4909 O   0  0  0  0  0  0  0  0  0  0  0  0
    9.5808  -15.5623   24.2340 N   0  0  0  0  0  0  0  0  0  0  0  0
    9.9916  -16.8999   24.5977 C   0  0  1  0  0  0  0  0  0  0  0  0
   11.4434  -17.1061   24.1735 C   0  0  0  0  0  0  0  0  0  0  0  0
   11.5490  -17.3310   22.7168 C   0  0  0  0  0  0  0  0  0  0  0  0
   10.6551  -17.9563   22.0882 O   0  0  0  0  0  0  0  0  0  0  0  0
    9.8346  -17.1518   26.0512 C   0  0  0  0  0  0  0  0  0  0  0  0
   10.0715  -18.3027   26.4922 O   0  0  0  0  0  0  0  0  0  0  0  0
   12.6329  -16.8637   21.9848 O   0  0  0  0  0  0  0  0  0  0  0  0
    9.4359  -16.1431   26.9072 O   0  0  0  0  0  0  0  0  0  0  0  0
  2  1  1  6
  2  3  1  0
  4  2  1  0
  4 11  1  0
  5  4  2  0
  7  8  2  0
  7  6  1  0
  9  7  1  0
 10 11  1  0
 10  9  1  1
 10 12  1  0
 12 13  2  0
 12 14  1  0
 14 15  1  0
 15 16  1  1
 16 17  1  0
 17 21  1  0
 18 17  2  0
 19 22  1  0
 19 15  1  0
 20 19  2  0
M  END
$$$$
