LQY.pdb
     RDKit          3D

 30 30  0  0  1  0  0  0  0  0999 V2000
   16.0676  -12.6696  -17.1801 C   0  0  0  0  0  0  0  0  0  0  0  0
   15.9615  -12.7985  -15.6908 C   0  0  2  0  0  0  0  0  0  0  0  0
   14.6686  -13.4977  -15.3220 C   0  0  0  0  0  0  0  0  0  0  0  0
   16.0243  -11.4716  -14.9756 C   0  0  0  0  0  0  0  0  0  0  0  0
   17.2632  -10.7100  -15.3647 C   0  0  2  0  0  0  0  0  0  0  0  0
   18.4357  -11.4500  -14.9528 N   0  0  0  0  0  0  0  0  0  0  0  0
   17.3210   -9.3630  -14.8123 C   0  0  0  0  0  0  0  0  0  0  0  0
   16.3030   -8.6253  -14.9032 O   0  0  0  0  0  0  0  0  0  0  0  0
   17.7375   -5.4116  -10.9663 N   0  0  0  0  0  0  0  0  0  0  0  0
   17.6086   -6.7630  -10.5080 C   0  0  0  0  0  0  0  0  0  0  0  0
   16.8925   -7.0305   -9.5139 O   0  0  0  0  0  0  0  0  0  0  0  0
   18.3142   -7.8716  -11.1938 C   0  0  0  0  0  0  0  0  0  0  0  0
   19.1200   -7.3314  -12.3237 C   0  0  0  0  0  0  0  0  0  0  0  0
   18.4184   -7.4658  -13.6630 C   0  0  2  0  0  0  0  0  0  0  0  0
   18.4549   -8.8032  -14.1665 N   0  0  0  0  0  0  0  0  0  0  0  0
   18.9574   -6.4782  -14.6466 C   0  0  0  0  0  0  0  0  0  0  0  0
   19.9197   -6.7546  -15.4181 O   0  0  0  0  0  0  0  0  0  0  0  0
   20.1158   -1.5802  -21.5118 O   0  0  0  0  0  0  0  0  0  0  0  0
   19.7212   -2.3902  -20.4483 C   0  0  0  0  0  0  0  0  0  0  0  0
   18.4053   -2.4050  -20.0108 C   0  0  0  0  0  0  0  0  0  0  0  0
   18.0029   -3.2063  -18.9547 C   0  0  0  0  0  0  0  0  0  0  0  0
   18.9250   -4.0009  -18.3296 C   0  0  0  0  0  0  0  0  0  0  0  0
   18.6017   -4.8864  -17.2044 C   0  0  0  0  0  0  0  0  0  0  0  0
   18.8468   -4.2855  -15.8454 C   0  0  2  0  0  0  0  0  0  0  0  0
   18.4221   -5.1685  -14.7753 N   0  0  0  0  0  0  0  0  0  0  0  0
   18.0660   -3.0299  -15.7223 C   0  0  0  0  0  0  0  0  0  0  0  0
   18.4927   -1.8022  -16.1748 O   0  0  0  0  0  0  0  0  0  0  0  0
   20.2411   -3.9817  -18.7723 C   0  0  0  0  0  0  0  0  0  0  0  0
   20.6474   -3.1875  -19.8214 C   0  0  0  0  0  0  0  0  0  0  0  0
   16.9399   -3.0982  -15.1664 O   0  0  0  0  0  0  0  0  0  0  0  0
  2  1  1  6
  2  3  1  0
  4  2  1  0
  5  6  1  1
  5  4  1  0
  7  8  2  0
  7  5  1  0
  9 10  1  0
 10 12  1  0
 11 10  2  0
 12 13  1  0
 14 15  1  0
 14 13  1  1
 15  7  1  0
 16 14  1  0
 17 16  2  0
 19 29  2  0
 19 18  1  0
 20 19  1  0
 21 22  1  0
 21 20  2  0
 22 28  2  0
 24 23  1  6
 23 22  1  0
 24 25  1  0
 25 16  1  0
 26 27  1  0
 26 24  1  0
 28 29  1  0
 30 26  2  0
M  END
$$$$
