LQY.pdb
     RDKit          3D

 30 30  0  0  1  0  0  0  0  0999 V2000
   25.2366  -34.7592  -11.5809 C   0  0  0  0  0  0  0  0  0  0  0  0
   25.3932  -33.2703  -11.6481 C   0  0  2  0  0  0  0  0  0  0  0  0
   26.5391  -32.9110  -12.5724 C   0  0  0  0  0  0  0  0  0  0  0  0
   25.6331  -32.6386  -10.2992 C   0  0  0  0  0  0  0  0  0  0  0  0
   24.4968  -32.9359   -9.3574 C   0  0  2  0  0  0  0  0  0  0  0  0
   23.4843  -31.9104   -9.4816 N   0  0  0  0  0  0  0  0  0  0  0  0
   24.9050  -33.0480   -7.9632 C   0  0  0  0  0  0  0  0  0  0  0  0
   25.0235  -31.9962   -7.2788 O   0  0  0  0  0  0  0  0  0  0  0  0
   22.4359  -36.1302   -3.5947 N   0  0  0  0  0  0  0  0  0  0  0  0
   23.5495  -35.5655   -2.8921 C   0  0  0  0  0  0  0  0  0  0  0  0
   23.5805  -35.5760   -1.6384 O   0  0  0  0  0  0  0  0  0  0  0  0
   24.6859  -34.9588   -3.6253 C   0  0  0  0  0  0  0  0  0  0  0  0
   24.4178  -34.9992   -5.0896 C   0  0  0  0  0  0  0  0  0  0  0  0
   25.4853  -34.2893   -5.9025 C   0  0  2  0  0  0  0  0  0  0  0  0
   25.1856  -34.2718   -7.3001 N   0  0  0  0  0  0  0  0  0  0  0  0
   26.8361  -34.8644   -5.6228 C   0  0  0  0  0  0  0  0  0  0  0  0
   27.3952  -35.6807   -6.4093 O   0  0  0  0  0  0  0  0  0  0  0  0
   35.0573  -36.5114   -3.4191 O   0  0  0  0  0  0  0  0  0  0  0  0
   33.8126  -35.9624   -3.7226 C   0  0  0  0  0  0  0  0  0  0  0  0
   33.3368  -35.9457   -5.0250 C   0  0  0  0  0  0  0  0  0  0  0  0
   32.1012  -35.4024   -5.3371 C   0  0  0  0  0  0  0  0  0  0  0  0
   31.3333  -34.8703   -4.3373 C   0  0  0  0  0  0  0  0  0  0  0  0
   30.0112  -34.2732   -4.5613 C   0  0  0  0  0  0  0  0  0  0  0  0
   28.8532  -35.1539   -4.1721 C   0  0  2  0  0  0  0  0  0  0  0  0
   27.5749  -34.5293   -4.4564 N   0  0  0  0  0  0  0  0  0  0  0  0
   28.9081  -35.4100   -2.7118 C   0  0  0  0  0  0  0  0  0  0  0  0
   27.9860  -34.9388   -1.8052 O   0  0  0  0  0  0  0  0  0  0  0  0
   31.8152  -34.8899   -3.0350 C   0  0  0  0  0  0  0  0  0  0  0  0
   33.0425  -35.4284   -2.7183 C   0  0  0  0  0  0  0  0  0  0  0  0
   29.8631  -36.1048   -2.2793 O   0  0  0  0  0  0  0  0  0  0  0  0
  2  1  1  1
  2  3  1  0
  4  2  1  0
  5  6  1  1
  5  4  1  0
  7  8  2  0
  7  5  1  0
  9 10  1  0
 10 12  1  0
 11 10  2  0
 12 13  1  0
 14 15  1  0
 14 13  1  1
 15  7  1  0
 16 14  1  0
 17 16  2  0
 19 29  2  0
 19 18  1  0
 20 19  1  0
 21 22  1  0
 21 20  2  0
 22 28  2  0
 24 23  1  1
 23 22  1  0
 24 25  1  0
 25 16  1  0
 26 27  1  0
 26 24  1  0
 28 29  1  0
 30 26  2  0
M  END
$$$$
