LQY.pdb
     RDKit          3D

 30 30  0  0  1  0  0  0  0  0999 V2000
   22.4929  -16.4476  -16.6234 C   0  0  0  0  0  0  0  0  0  0  0  0
   22.4007  -17.8150  -17.2297 C   0  0  2  0  0  0  0  0  0  0  0  0
   21.1366  -17.9306  -18.0575 C   0  0  0  0  0  0  0  0  0  0  0  0
   22.4189  -18.9204  -16.2031 C   0  0  0  0  0  0  0  0  0  0  0  0
   23.6584  -18.8426  -15.3522 C   0  0  2  0  0  0  0  0  0  0  0  0
   24.8138  -18.6362  -16.1977 N   0  0  0  0  0  0  0  0  0  0  0  0
   23.8717  -20.0180  -14.5182 C   0  0  0  0  0  0  0  0  0  0  0  0
   22.9302  -20.4192  -13.7822 O   0  0  0  0  0  0  0  0  0  0  0  0
   24.1891  -25.2389  -13.7938 N   0  0  0  0  0  0  0  0  0  0  0  0
   24.0775  -24.6723  -15.1050 C   0  0  0  0  0  0  0  0  0  0  0  0
   23.2274  -25.1110  -15.9159 O   0  0  0  0  0  0  0  0  0  0  0  0
   24.9590  -23.5600  -15.5330 C   0  0  0  0  0  0  0  0  0  0  0  0
   25.7899  -23.1068  -14.3833 C   0  0  0  0  0  0  0  0  0  0  0  0
   25.1799  -21.9288  -13.6454 C   0  0  2  0  0  0  0  0  0  0  0  0
   25.0793  -20.7631  -14.4666 N   0  0  0  0  0  0  0  0  0  0  0  0
   25.9161  -21.6601  -12.3729 C   0  0  0  0  0  0  0  0  0  0  0  0
   27.1785  -21.6222  -12.3217 O   0  0  0  0  0  0  0  0  0  0  0  0
   29.8942  -19.2085   -5.2674 O   0  0  0  0  0  0  0  0  0  0  0  0
   29.1540  -19.4145   -6.4303 C   0  0  0  0  0  0  0  0  0  0  0  0
   28.0357  -18.6442   -6.7118 C   0  0  0  0  0  0  0  0  0  0  0  0
   27.2933  -18.8409   -7.8648 C   0  0  0  0  0  0  0  0  0  0  0  0
   27.6722  -19.8173   -8.7453 C   0  0  0  0  0  0  0  0  0  0  0  0
   26.9564  -20.1048   -9.9942 C   0  0  0  0  0  0  0  0  0  0  0  0
   25.9802  -21.2481   -9.9064 C   0  0  2  0  0  0  0  0  0  0  0  0
   25.2432  -21.4306  -11.1428 N   0  0  0  0  0  0  0  0  0  0  0  0
   24.9919  -20.9612   -8.8377 C   0  0  0  0  0  0  0  0  0  0  0  0
   23.8299  -20.2479   -9.0253 O   0  0  0  0  0  0  0  0  0  0  0  0
   28.7929  -20.5854   -8.4578 C   0  0  0  0  0  0  0  0  0  0  0  0
   29.5352  -20.3949   -7.3136 C   0  0  0  0  0  0  0  0  0  0  0  0
   25.2377  -21.4017   -7.6856 O   0  0  0  0  0  0  0  0  0  0  0  0
  2  1  1  1
  2  3  1  0
  4  2  1  0
  5  6  1  6
  5  4  1  0
  7  8  2  0
  7  5  1  0
  9 10  1  0
 10 12  1  0
 11 10  2  0
 12 13  1  0
 14 15  1  0
 14 13  1  6
 15  7  1  0
 16 14  1  0
 17 16  2  0
 19 29  2  0
 19 18  1  0
 20 19  1  0
 21 22  1  0
 21 20  2  0
 22 28  2  0
 24 23  1  6
 23 22  1  0
 24 25  1  0
 25 16  1  0
 26 27  1  0
 26 24  1  0
 28 29  1  0
 30 26  2  0
M  END
$$$$
