LQY.pdb
     RDKit          3D

 30 30  0  0  1  0  0  0  0  0999 V2000
   30.2542  -19.9111  -19.4827 C   0  0  0  0  0  0  0  0  0  0  0  0
   29.8928  -18.5020  -19.8428 C   0  0  2  0  0  0  0  0  0  0  0  0
   31.0170  -17.5631  -19.4538 C   0  0  0  0  0  0  0  0  0  0  0  0
   28.6144  -18.0341  -19.1927 C   0  0  0  0  0  0  0  0  0  0  0  0
   27.5010  -19.0201  -19.4263 C   0  0  2  0  0  0  0  0  0  0  0  0
   27.0420  -18.9169  -20.7941 N   0  0  0  0  0  0  0  0  0  0  0  0
   26.3710  -18.8536  -18.5218 C   0  0  0  0  0  0  0  0  0  0  0  0
   26.2026  -17.7381  -17.9595 O   0  0  0  0  0  0  0  0  0  0  0  0
   21.4691  -17.8198  -17.1257 N   0  0  0  0  0  0  0  0  0  0  0  0
   21.7965  -17.7901  -18.5202 C   0  0  0  0  0  0  0  0  0  0  0  0
   21.3773  -16.8612  -19.2510 O   0  0  0  0  0  0  0  0  0  0  0  0
   22.6340  -18.8503  -19.1299 C   0  0  0  0  0  0  0  0  0  0  0  0
   22.9772  -19.8723  -18.1025 C   0  0  0  0  0  0  0  0  0  0  0  0
   24.2893  -19.5796  -17.3975 C   0  0  2  0  0  0  0  0  0  0  0  0
   25.4250  -19.8676  -18.2165 N   0  0  0  0  0  0  0  0  0  0  0  0
   24.3523  -20.2811  -16.0795 C   0  0  0  0  0  0  0  0  0  0  0  0
   24.7468  -21.4772  -15.9728 O   0  0  0  0  0  0  0  0  0  0  0  0
   24.9531  -21.4952   -7.3503 O   0  0  0  0  0  0  0  0  0  0  0  0
   24.9593  -20.9966   -8.6519 C   0  0  0  0  0  0  0  0  0  0  0  0
   26.0627  -21.1620   -9.4756 C   0  0  0  0  0  0  0  0  0  0  0  0
   26.0790  -20.6703  -10.7707 C   0  0  0  0  0  0  0  0  0  0  0  0
   24.9814  -20.0067  -11.2475 C   0  0  0  0  0  0  0  0  0  0  0  0
   24.8966  -19.4497  -12.6029 C   0  0  0  0  0  0  0  0  0  0  0  0
   24.1477  -20.3097  -13.5866 C   0  0  2  0  0  0  0  0  0  0  0  0
   23.9730  -19.6475  -14.8657 N   0  0  0  0  0  0  0  0  0  0  0  0
   22.7962  -20.5990  -13.0473 C   0  0  0  0  0  0  0  0  0  0  0  0
   22.4889  -21.6883  -12.2643 O   0  0  0  0  0  0  0  0  0  0  0  0
   23.8797  -19.8443  -10.4179 C   0  0  0  0  0  0  0  0  0  0  0  0
   23.8572  -20.3306   -9.1297 C   0  0  0  0  0  0  0  0  0  0  0  0
   21.8737  -19.7913  -13.3276 O   0  0  0  0  0  0  0  0  0  0  0  0
  2  1  1  1
  2  3  1  0
  4  2  1  0
  5  6  1  6
  5  4  1  0
  7  8  2  0
  7  5  1  0
  9 10  1  0
 10 12  1  0
 11 10  2  0
 12 13  1  0
 14 15  1  0
 14 13  1  6
 15  7  1  0
 16 14  1  0
 17 16  2  0
 19 29  2  0
 19 18  1  0
 20 19  1  0
 21 22  1  0
 21 20  2  0
 22 28  2  0
 24 23  1  1
 23 22  1  0
 24 25  1  0
 25 16  1  0
 26 27  1  0
 26 24  1  0
 28 29  1  0
 30 26  2  0
M  END
$$$$
