LQY.pdb
     RDKit          3D

 30 30  0  0  1  0  0  0  0  0999 V2000
   28.9429  -16.9726  -16.5252 C   0  0  0  0  0  0  0  0  0  0  0  0
   27.5860  -16.4443  -16.8793 C   0  0  2  0  0  0  0  0  0  0  0  0
   27.3125  -15.1645  -16.1150 C   0  0  0  0  0  0  0  0  0  0  0  0
   26.4766  -17.4286  -16.6027 C   0  0  0  0  0  0  0  0  0  0  0  0
   26.7607  -18.7551  -17.2555 C   0  0  2  0  0  0  0  0  0  0  0  0
   26.8936  -18.5729  -18.6842 N   0  0  0  0  0  0  0  0  0  0  0  0
   25.7489  -19.7688  -16.9880 C   0  0  0  0  0  0  0  0  0  0  0  0
   24.5428  -19.5045  -17.2417 O   0  0  0  0  0  0  0  0  0  0  0  0
   24.4636  -26.5485  -14.5406 N   0  0  0  0  0  0  0  0  0  0  0  0
   24.7891  -25.7109  -15.6566 C   0  0  0  0  0  0  0  0  0  0  0  0
   25.5196  -26.1406  -16.5809 O   0  0  0  0  0  0  0  0  0  0  0  0
   24.2732  -24.3241  -15.7456 C   0  0  0  0  0  0  0  0  0  0  0  0
   25.3992  -23.3852  -16.0069 C   0  0  0  0  0  0  0  0  0  0  0  0
   24.9471  -21.9400  -16.1120 C   0  0  2  0  0  0  0  0  0  0  0  0
   26.0177  -21.0566  -16.4538 N   0  0  0  0  0  0  0  0  0  0  0  0
   24.2395  -21.5128  -14.8669 C   0  0  0  0  0  0  0  0  0  0  0  0
   24.8257  -21.4484  -13.7490 O   0  0  0  0  0  0  0  0  0  0  0  0
   26.4268  -20.8902   -8.8223 O   0  0  0  0  0  0  0  0  0  0  0  0
   25.5039  -20.5876   -9.8221 C   0  0  0  0  0  0  0  0  0  0  0  0
   24.1455  -20.5344   -9.5487 C   0  0  0  0  0  0  0  0  0  0  0  0
   23.2201  -20.2345  -10.5351 C   0  0  0  0  0  0  0  0  0  0  0  0
   23.6569  -19.9853  -11.8077 C   0  0  0  0  0  0  0  0  0  0  0  0
   22.7603  -19.6571  -12.9226 C   0  0  0  0  0  0  0  0  0  0  0  0
   22.1714  -20.8525  -13.6242 C   0  0  2  0  0  0  0  0  0  0  0  0
   22.8651  -21.1529  -14.8627 N   0  0  0  0  0  0  0  0  0  0  0  0
   20.7562  -20.5662  -13.9654 C   0  0  0  0  0  0  0  0  0  0  0  0
   20.2414  -20.6050  -15.2411 O   0  0  0  0  0  0  0  0  0  0  0  0
   25.0185  -20.0401  -12.0752 C   0  0  0  0  0  0  0  0  0  0  0  0
   25.9433  -20.3376  -11.0993 C   0  0  0  0  0  0  0  0  0  0  0  0
   19.9798  -20.2688  -13.0216 O   0  0  0  0  0  0  0  0  0  0  0  0
  2  1  1  1
  2  3  1  0
  4  2  1  0
  5  6  1  6
  5  4  1  0
  7  8  2  0
  7  5  1  0
  9 10  1  0
 10 12  1  0
 11 10  2  0
 12 13  1  0
 14 15  1  0
 14 13  1  1
 15  7  1  0
 16 14  1  0
 17 16  2  0
 19 29  2  0
 19 18  1  0
 20 19  1  0
 21 22  1  0
 21 20  2  0
 22 28  2  0
 24 23  1  6
 23 22  1  0
 24 25  1  0
 25 16  1  0
 26 27  1  0
 26 24  1  0
 28 29  1  0
 30 26  2  0
M  END
$$$$
