LQY.pdb
     RDKit          3D

 30 30  0  0  1  0  0  0  0  0999 V2000
   32.3178  -26.8711  -17.7781 C   0  0  0  0  0  0  0  0  0  0  0  0
   32.6188  -25.4177  -17.9852 C   0  0  2  0  0  0  0  0  0  0  0  0
   34.1142  -25.1828  -17.9133 C   0  0  0  0  0  0  0  0  0  0  0  0
   31.9319  -24.5222  -16.9841 C   0  0  0  0  0  0  0  0  0  0  0  0
   30.4355  -24.6532  -17.0845 C   0  0  2  0  0  0  0  0  0  0  0  0
   30.0751  -25.0756  -18.4201 N   0  0  0  0  0  0  0  0  0  0  0  0
   29.7163  -23.4305  -16.7519 C   0  0  0  0  0  0  0  0  0  0  0  0
   29.9405  -22.8771  -15.6418 O   0  0  0  0  0  0  0  0  0  0  0  0
   28.4039  -18.4543  -20.0014 N   0  0  0  0  0  0  0  0  0  0  0  0
   27.8016  -18.1533  -18.7367 C   0  0  0  0  0  0  0  0  0  0  0  0
   27.3949  -16.9935  -18.4874 O   0  0  0  0  0  0  0  0  0  0  0  0
   27.6453  -19.1991  -17.6980 C   0  0  0  0  0  0  0  0  0  0  0  0
   28.2652  -20.4694  -18.1668 C   0  0  0  0  0  0  0  0  0  0  0  0
   28.0987  -21.6060  -17.1746 C   0  0  2  0  0  0  0  0  0  0  0  0
   28.7639  -22.7994  -17.5950 N   0  0  0  0  0  0  0  0  0  0  0  0
   26.6537  -21.8419  -16.8746 C   0  0  0  0  0  0  0  0  0  0  0  0
   25.9604  -22.6772  -17.5220 O   0  0  0  0  0  0  0  0  0  0  0  0
   18.7060  -21.3914  -12.9415 O   0  0  0  0  0  0  0  0  0  0  0  0
   20.0643  -21.3029  -13.2413 C   0  0  0  0  0  0  0  0  0  0  0  0
   20.8786  -22.4248  -13.2070 C   0  0  0  0  0  0  0  0  0  0  0  0
   22.2298  -22.3475  -13.5032 C   0  0  0  0  0  0  0  0  0  0  0  0
   22.7726  -21.1366  -13.8372 C   0  0  0  0  0  0  0  0  0  0  0  0
   24.1898  -20.9477  -14.1695 C   0  0  0  0  0  0  0  0  0  0  0  0
   24.5765  -21.4151  -15.5479 C   0  0  2  0  0  0  0  0  0  0  0  0
   25.9705  -21.1424  -15.8439 N   0  0  0  0  0  0  0  0  0  0  0  0
   23.7588  -20.6917  -16.5525 C   0  0  0  0  0  0  0  0  0  0  0  0
   22.6150  -21.1937  -17.1303 O   0  0  0  0  0  0  0  0  0  0  0  0
   21.9520  -20.0168  -13.8698 C   0  0  0  0  0  0  0  0  0  0  0  0
   20.6083  -20.0869  -13.5764 C   0  0  0  0  0  0  0  0  0  0  0  0
   24.1412  -19.5436  -16.8951 O   0  0  0  0  0  0  0  0  0  0  0  0
  2  1  1  1
  2  3  1  0
  4  2  1  0
  5  6  1  6
  5  4  1  0
  7  8  2  0
  7  5  1  0
  9 10  1  0
 10 12  1  0
 11 10  2  0
 12 13  1  0
 14 15  1  0
 14 13  1  6
 15  7  1  0
 16 14  1  0
 17 16  2  0
 19 29  2  0
 19 18  1  0
 20 19  1  0
 21 22  1  0
 21 20  2  0
 22 28  2  0
 24 23  1  1
 23 22  1  0
 24 25  1  0
 25 16  1  0
 26 27  1  0
 26 24  1  0
 28 29  1  0
 30 26  2  0
M  END
$$$$
