LQY.pdb
     RDKit          3D

 30 30  0  0  1  0  0  0  0  0999 V2000
   28.3837  -17.5252  -16.2010 C   0  0  0  0  0  0  0  0  0  0  0  0
   27.3483  -17.9902  -17.1795 C   0  0  2  0  0  0  0  0  0  0  0  0
   26.9610  -16.8532  -18.1036 C   0  0  0  0  0  0  0  0  0  0  0  0
   26.1054  -18.5289  -16.5153 C   0  0  0  0  0  0  0  0  0  0  0  0
   26.4190  -19.7599  -15.7073 C   0  0  2  0  0  0  0  0  0  0  0  0
   26.9595  -20.7835  -16.5747 N   0  0  0  0  0  0  0  0  0  0  0  0
   25.2728  -20.2935  -14.9832 C   0  0  0  0  0  0  0  0  0  0  0  0
   24.3937  -20.9312  -15.6229 O   0  0  0  0  0  0  0  0  0  0  0  0
   24.5648  -20.9966   -8.7738 N   0  0  0  0  0  0  0  0  0  0  0  0
   25.6446  -21.3765   -9.6354 C   0  0  0  0  0  0  0  0  0  0  0  0
   26.7586  -21.6940   -9.1549 O   0  0  0  0  0  0  0  0  0  0  0  0
   25.4726  -21.4035  -11.1075 C   0  0  0  0  0  0  0  0  0  0  0  0
   24.1103  -20.9182  -11.4630 C   0  0  0  0  0  0  0  0  0  0  0  0
   23.9215  -20.7400  -12.9586 C   0  0  2  0  0  0  0  0  0  0  0  0
   25.0623  -20.1501  -13.5863 N   0  0  0  0  0  0  0  0  0  0  0  0
   22.6649  -19.9852  -13.2492 C   0  0  0  0  0  0  0  0  0  0  0  0
   22.5654  -18.7417  -13.0461 O   0  0  0  0  0  0  0  0  0  0  0  0
   21.7394  -21.5347  -20.1670 O   0  0  0  0  0  0  0  0  0  0  0  0
   21.4848  -20.8849  -18.9605 C   0  0  0  0  0  0  0  0  0  0  0  0
   22.5213  -20.4017  -18.1760 C   0  0  0  0  0  0  0  0  0  0  0  0
   22.2789  -19.7545  -16.9753 C   0  0  0  0  0  0  0  0  0  0  0  0
   20.9876  -19.5885  -16.5544 C   0  0  0  0  0  0  0  0  0  0  0  0
   20.6237  -18.9164  -15.3011 C   0  0  0  0  0  0  0  0  0  0  0  0
   20.3364  -19.8474  -14.1528 C   0  0  2  0  0  0  0  0  0  0  0  0
   21.5051  -20.6181  -13.7716 N   0  0  0  0  0  0  0  0  0  0  0  0
   19.2829  -20.8093  -14.5603 C   0  0  0  0  0  0  0  0  0  0  0  0
   19.4656  -22.1706  -14.6482 O   0  0  0  0  0  0  0  0  0  0  0  0
   19.9540  -20.0745  -17.3443 C   0  0  0  0  0  0  0  0  0  0  0  0
   20.1882  -20.7187  -18.5387 C   0  0  0  0  0  0  0  0  0  0  0  0
   18.1492  -20.3439  -14.8430 O   0  0  0  0  0  0  0  0  0  0  0  0
  2  1  1  1
  2  3  1  0
  4  2  1  0
  5  6  1  6
  5  4  1  0
  7  8  2  0
  7  5  1  0
  9 10  1  0
 10 12  1  0
 11 10  2  0
 12 13  1  0
 14 15  1  0
 14 13  1  1
 15  7  1  0
 16 14  1  0
 17 16  2  0
 19 29  2  0
 19 18  1  0
 20 19  1  0
 21 22  1  0
 21 20  2  0
 22 28  2  0
 24 23  1  6
 23 22  1  0
 24 25  1  0
 25 16  1  0
 26 27  1  0
 26 24  1  0
 28 29  1  0
 30 26  2  0
M  END
$$$$
