LQY.pdb
     RDKit          3D

 30 30  0  0  1  0  0  0  0  0999 V2000
   28.9540  -17.0706  -16.5210 C   0  0  0  0  0  0  0  0  0  0  0  0
   27.5945  -16.5112  -16.2301 C   0  0  2  0  0  0  0  0  0  0  0  0
   27.6416  -14.9966  -16.2529 C   0  0  0  0  0  0  0  0  0  0  0  0
   27.0385  -16.9658  -14.9034 C   0  0  0  0  0  0  0  0  0  0  0  0
   27.0794  -18.4665  -14.7898 C   0  0  2  0  0  0  0  0  0  0  0  0
   26.5647  -19.0581  -16.0052 N   0  0  0  0  0  0  0  0  0  0  0  0
   26.3423  -18.9882  -13.6465 C   0  0  0  0  0  0  0  0  0  0  0  0
   26.0402  -18.2020  -12.7088 O   0  0  0  0  0  0  0  0  0  0  0  0
   23.7529  -23.1550  -15.0984 N   0  0  0  0  0  0  0  0  0  0  0  0
   24.7097  -23.7827  -14.2362 C   0  0  0  0  0  0  0  0  0  0  0  0
   25.2599  -24.8576  -14.5745 O   0  0  0  0  0  0  0  0  0  0  0  0
   25.0705  -23.1805  -12.9306 C   0  0  0  0  0  0  0  0  0  0  0  0
   24.2628  -21.9501  -12.7046 C   0  0  0  0  0  0  0  0  0  0  0  0
   25.1174  -20.7350  -12.3924 C   0  0  2  0  0  0  0  0  0  0  0  0
   25.9283  -20.3387  -13.5009 N   0  0  0  0  0  0  0  0  0  0  0  0
   25.9245  -20.9571  -11.1544 C   0  0  0  0  0  0  0  0  0  0  0  0
   27.0366  -21.5573  -11.1756 O   0  0  0  0  0  0  0  0  0  0  0  0
   29.6965  -20.0297   -3.3161 O   0  0  0  0  0  0  0  0  0  0  0  0
   29.0298  -19.8939   -4.5326 C   0  0  0  0  0  0  0  0  0  0  0  0
   27.8161  -19.2278   -4.6123 C   0  0  0  0  0  0  0  0  0  0  0  0
   27.1455  -19.0874   -5.8163 C   0  0  0  0  0  0  0  0  0  0  0  0
   27.6934  -19.6180   -6.9524 C   0  0  0  0  0  0  0  0  0  0  0  0
   27.0656  -19.5229   -8.2758 C   0  0  0  0  0  0  0  0  0  0  0  0
   26.2887  -20.7451   -8.6887 C   0  0  2  0  0  0  0  0  0  0  0  0
   25.4921  -20.5076   -9.8778 N   0  0  0  0  0  0  0  0  0  0  0  0
   25.3568  -21.1192   -7.5965 C   0  0  0  0  0  0  0  0  0  0  0  0
   23.9852  -21.0549   -7.6894 O   0  0  0  0  0  0  0  0  0  0  0  0
   28.9090  -20.2839   -6.8662 C   0  0  0  0  0  0  0  0  0  0  0  0
   29.5806  -20.4269   -5.6725 C   0  0  0  0  0  0  0  0  0  0  0  0
   25.8596  -21.5212   -6.5160 O   0  0  0  0  0  0  0  0  0  0  0  0
  2  1  1  1
  2  3  1  0
  4  2  1  0
  5  6  1  6
  5  4  1  0
  7  8  2  0
  7  5  1  0
  9 10  1  0
 10 12  1  0
 11 10  2  0
 12 13  1  0
 14 15  1  0
 14 13  1  6
 15  7  1  0
 16 14  1  0
 17 16  2  0
 19 29  2  0
 19 18  1  0
 20 19  1  0
 21 22  1  0
 21 20  2  0
 22 28  2  0
 24 23  1  1
 23 22  1  0
 24 25  1  0
 25 16  1  0
 26 27  1  0
 26 24  1  0
 28 29  1  0
 30 26  2  0
M  END
$$$$
