LQY.pdb
     RDKit          3D

 30 30  0  0  1  0  0  0  0  0999 V2000
   19.8076  -15.2622  -15.7036 C   0  0  0  0  0  0  0  0  0  0  0  0
   19.3948  -15.3512  -17.1415 C   0  0  2  0  0  0  0  0  0  0  0  0
   20.6122  -15.5670  -18.0178 C   0  0  0  0  0  0  0  0  0  0  0  0
   18.6540  -14.1278  -17.6217 C   0  0  0  0  0  0  0  0  0  0  0  0
   17.4325  -13.8745  -16.7790 C   0  0  2  0  0  0  0  0  0  0  0  0
   16.4169  -14.8558  -17.0914 N   0  0  0  0  0  0  0  0  0  0  0  0
   16.8785  -12.5362  -16.9369 C   0  0  0  0  0  0  0  0  0  0  0  0
   16.5429  -12.1500  -18.0889 O   0  0  0  0  0  0  0  0  0  0  0  0
   13.3485   -9.4132  -13.5875 N   0  0  0  0  0  0  0  0  0  0  0  0
   13.4241  -10.8171  -13.8635 C   0  0  0  0  0  0  0  0  0  0  0  0
   12.8538  -11.6434  -13.1121 O   0  0  0  0  0  0  0  0  0  0  0  0
   14.1740  -11.3244  -15.0372 C   0  0  0  0  0  0  0  0  0  0  0  0
   14.6958  -10.1791  -15.8332 C   0  0  0  0  0  0  0  0  0  0  0  0
   16.1780  -10.3014  -16.1372 C   0  0  2  0  0  0  0  0  0  0  0  0
   16.6823  -11.6132  -15.8758 N   0  0  0  0  0  0  0  0  0  0  0  0
   16.9561   -9.2453  -15.4212 C   0  0  0  0  0  0  0  0  0  0  0  0
   17.6222   -9.4934  -14.3760 O   0  0  0  0  0  0  0  0  0  0  0  0
   22.5281   -2.8530  -13.6036 O   0  0  0  0  0  0  0  0  0  0  0  0
   21.7072   -3.8447  -14.1378 C   0  0  0  0  0  0  0  0  0  0  0  0
   20.9136   -3.5950  -15.2472 C   0  0  0  0  0  0  0  0  0  0  0  0
   20.0943   -4.5737  -15.7858 C   0  0  0  0  0  0  0  0  0  0  0  0
   20.0678   -5.8146  -15.2098 C   0  0  0  0  0  0  0  0  0  0  0  0
   19.2373   -6.9197  -15.7034 C   0  0  0  0  0  0  0  0  0  0  0  0
   17.8174   -6.9071  -15.2019 C   0  0  2  0  0  0  0  0  0  0  0  0
   16.9952   -7.8981  -15.8706 N   0  0  0  0  0  0  0  0  0  0  0  0
   17.2191   -5.5768  -15.4729 C   0  0  0  0  0  0  0  0  0  0  0  0
   17.2477   -4.5183  -14.5937 O   0  0  0  0  0  0  0  0  0  0  0  0
   20.8648   -6.0585  -14.0989 C   0  0  0  0  0  0  0  0  0  0  0  0
   21.6813   -5.0900  -13.5588 C   0  0  0  0  0  0  0  0  0  0  0  0
   16.6490   -5.4111  -16.5817 O   0  0  0  0  0  0  0  0  0  0  0  0
  2  1  1  1
  2  3  1  0
  4  2  1  0
  5  6  1  6
  5  4  1  0
  7  8  2  0
  7  5  1  0
  9 10  1  0
 10 12  1  0
 11 10  2  0
 12 13  1  0
 14 15  1  0
 14 13  1  1
 15  7  1  0
 16 14  1  0
 17 16  2  0
 19 29  2  0
 19 18  1  0
 20 19  1  0
 21 22  1  0
 21 20  2  0
 22 28  2  0
 24 23  1  6
 23 22  1  0
 24 25  1  0
 25 16  1  0
 26 27  1  0
 26 24  1  0
 28 29  1  0
 30 26  2  0
M  END
$$$$
