LQY.pdb
     RDKit          3D

 30 30  0  0  1  0  0  0  0  0999 V2000
   19.2368  -12.1782  -21.6545 C   0  0  0  0  0  0  0  0  0  0  0  0
   18.0137  -12.5246  -20.8609 C   0  0  2  0  0  0  0  0  0  0  0  0
   16.7726  -12.3225  -21.7068 C   0  0  0  0  0  0  0  0  0  0  0  0
   17.8818  -11.7168  -19.5935 C   0  0  0  0  0  0  0  0  0  0  0  0
   19.1236  -11.8336  -18.7506 C   0  0  2  0  0  0  0  0  0  0  0  0
   19.0814  -13.0661  -17.9947 N   0  0  0  0  0  0  0  0  0  0  0  0
   19.3221  -10.7132  -17.8406 C   0  0  0  0  0  0  0  0  0  0  0  0
   18.4734  -10.5127  -16.9304 O   0  0  0  0  0  0  0  0  0  0  0  0
   20.9498   -9.3071  -13.8483 N   0  0  0  0  0  0  0  0  0  0  0  0
   21.5047   -7.9967  -14.0152 C   0  0  0  0  0  0  0  0  0  0  0  0
   21.5786   -7.2100  -13.0414 O   0  0  0  0  0  0  0  0  0  0  0  0
   22.0021   -7.5413  -15.3352 C   0  0  0  0  0  0  0  0  0  0  0  0
   21.8927   -8.6503  -16.3230 C   0  0  0  0  0  0  0  0  0  0  0  0
   20.5196   -8.7324  -16.9649 C   0  0  2  0  0  0  0  0  0  0  0  0
   20.4168   -9.8107  -17.8978 N   0  0  0  0  0  0  0  0  0  0  0  0
   20.1386   -7.4220  -17.5740 C   0  0  0  0  0  0  0  0  0  0  0  0
   20.5480   -7.0670  -18.7159 O   0  0  0  0  0  0  0  0  0  0  0  0
   16.2643    0.1077  -19.7952 O   0  0  0  0  0  0  0  0  0  0  0  0
   16.5793   -1.1209  -19.2170 C   0  0  0  0  0  0  0  0  0  0  0  0
   16.6397   -1.2681  -17.8394 C   0  0  0  0  0  0  0  0  0  0  0  0
   16.9518   -2.4847  -17.2549 C   0  0  0  0  0  0  0  0  0  0  0  0
   17.2061   -3.5651  -18.0552 C   0  0  0  0  0  0  0  0  0  0  0  0
   17.5436   -4.8963  -17.5367 C   0  0  0  0  0  0  0  0  0  0  0  0
   19.0199   -5.1869  -17.4735 C   0  0  2  0  0  0  0  0  0  0  0  0
   19.2934   -6.4946  -16.9075 N   0  0  0  0  0  0  0  0  0  0  0  0
   19.6757   -4.1798  -16.6035 C   0  0  0  0  0  0  0  0  0  0  0  0
   19.9948   -2.9010  -16.9995 O   0  0  0  0  0  0  0  0  0  0  0  0
   17.1441   -3.4113  -19.4339 C   0  0  0  0  0  0  0  0  0  0  0  0
   16.8344   -2.2048  -20.0212 C   0  0  0  0  0  0  0  0  0  0  0  0
   19.9563   -4.5233  -15.4266 O   0  0  0  0  0  0  0  0  0  0  0  0
  2  1  1  6
  2  3  1  0
  4  2  1  0
  5  6  1  1
  5  4  1  0
  7  8  2  0
  7  5  1  0
  9 10  1  0
 10 12  1  0
 11 10  2  0
 12 13  1  0
 14 15  1  0
 14 13  1  6
 15  7  1  0
 16 14  1  0
 17 16  2  0
 19 29  2  0
 19 18  1  0
 20 19  1  0
 21 22  1  0
 21 20  2  0
 22 28  2  0
 24 23  1  1
 23 22  1  0
 24 25  1  0
 25 16  1  0
 26 27  1  0
 26 24  1  0
 28 29  1  0
 30 26  2  0
M  END
$$$$
