LQY.pdb
     RDKit          3D

 30 30  0  0  1  0  0  0  0  0999 V2000
   27.1886  -20.2692  -24.0367 C   0  0  0  0  0  0  0  0  0  0  0  0
   27.6756  -19.6751  -22.7500 C   0  0  2  0  0  0  0  0  0  0  0  0
   28.3409  -20.7429  -21.9052 C   0  0  0  0  0  0  0  0  0  0  0  0
   26.5777  -19.0247  -21.9451 C   0  0  0  0  0  0  0  0  0  0  0  0
   25.8864  -17.9542  -22.7467 C   0  0  2  0  0  0  0  0  0  0  0  0
   26.8656  -17.0119  -23.2420 N   0  0  0  0  0  0  0  0  0  0  0  0
   24.8571  -17.2386  -22.0042 C   0  0  0  0  0  0  0  0  0  0  0  0
   24.0913  -17.8914  -21.2451 O   0  0  0  0  0  0  0  0  0  0  0  0
   23.8683  -10.9919  -21.2279 N   0  0  0  0  0  0  0  0  0  0  0  0
   22.8286  -11.6033  -20.4546 C   0  0  0  0  0  0  0  0  0  0  0  0
   22.0416  -10.8982  -19.7792 O   0  0  0  0  0  0  0  0  0  0  0  0
   22.6585  -13.0757  -20.4340 C   0  0  0  0  0  0  0  0  0  0  0  0
   23.7379  -13.7173  -21.2346 C   0  0  0  0  0  0  0  0  0  0  0  0
   23.5925  -15.2261  -21.3149 C   0  0  2  0  0  0  0  0  0  0  0  0
   24.6429  -15.8363  -22.0683 N   0  0  0  0  0  0  0  0  0  0  0  0
   22.2397  -15.6031  -21.8260 C   0  0  0  0  0  0  0  0  0  0  0  0
   21.9620  -15.5995  -23.0591 O   0  0  0  0  0  0  0  0  0  0  0  0
   19.4827  -20.6389  -16.7299 O   0  0  0  0  0  0  0  0  0  0  0  0
   19.5681  -19.9558  -17.9419 C   0  0  0  0  0  0  0  0  0  0  0  0
   20.7628  -19.8900  -18.6429 C   0  0  0  0  0  0  0  0  0  0  0  0
   20.8582  -19.2137  -19.8482 C   0  0  0  0  0  0  0  0  0  0  0  0
   19.7483  -18.5969  -20.3581 C   0  0  0  0  0  0  0  0  0  0  0  0
   19.7427  -17.8573  -21.6261 C   0  0  0  0  0  0  0  0  0  0  0  0
   19.8824  -16.3649  -21.4800 C   0  0  2  0  0  0  0  0  0  0  0  0
   21.1828  -15.9885  -20.9582 N   0  0  0  0  0  0  0  0  0  0  0  0
   18.8602  -15.8734  -20.5236 C   0  0  0  0  0  0  0  0  0  0  0  0
   19.1478  -15.2266  -19.3434 O   0  0  0  0  0  0  0  0  0  0  0  0
   18.5549  -18.6663  -19.6515 C   0  0  0  0  0  0  0  0  0  0  0  0
   18.4534  -19.3369  -18.4530 C   0  0  0  0  0  0  0  0  0  0  0  0
   17.6518  -16.0633  -20.8163 O   0  0  0  0  0  0  0  0  0  0  0  0
  2  1  1  6
  2  3  1  0
  4  2  1  0
  5  6  1  1
  5  4  1  0
  7  8  2  0
  7  5  1  0
  9 10  1  0
 10 12  1  0
 11 10  2  0
 12 13  1  0
 14 15  1  0
 14 13  1  6
 15  7  1  0
 16 14  1  0
 17 16  2  0
 19 29  2  0
 19 18  1  0
 20 19  1  0
 21 22  1  0
 21 20  2  0
 22 28  2  0
 24 23  1  1
 23 22  1  0
 24 25  1  0
 25 16  1  0
 26 27  1  0
 26 24  1  0
 28 29  1  0
 30 26  2  0
M  END
$$$$
