LQY.pdb
     RDKit          3D

 30 30  0  0  1  0  0  0  0  0999 V2000
   22.8635  -14.5164  -14.2218 C   0  0  0  0  0  0  0  0  0  0  0  0
   22.2809  -14.5898  -15.6006 C   0  0  2  0  0  0  0  0  0  0  0  0
   22.9767  -15.6731  -16.4001 C   0  0  0  0  0  0  0  0  0  0  0  0
   22.3752  -13.2859  -16.3535 C   0  0  0  0  0  0  0  0  0  0  0  0
   21.1237  -13.0352  -17.1519 C   0  0  2  0  0  0  0  0  0  0  0  0
   21.1545  -13.8276  -18.3616 N   0  0  0  0  0  0  0  0  0  0  0  0
   20.9180  -11.6342  -17.4951 C   0  0  0  0  0  0  0  0  0  0  0  0
   21.7339  -11.0742  -18.2759 O   0  0  0  0  0  0  0  0  0  0  0  0
   17.3783  -11.4587  -18.4860 N   0  0  0  0  0  0  0  0  0  0  0  0
   17.9825  -10.8857  -19.6520 C   0  0  0  0  0  0  0  0  0  0  0  0
   17.8477  -11.4345  -20.7715 O   0  0  0  0  0  0  0  0  0  0  0  0
   18.7772   -9.6375  -19.5642 C   0  0  0  0  0  0  0  0  0  0  0  0
   18.6509   -9.0566  -18.1988 C   0  0  0  0  0  0  0  0  0  0  0  0
   19.8085   -9.4316  -17.2912 C   0  0  2  0  0  0  0  0  0  0  0  0
   19.8507  -10.8327  -17.0109 N   0  0  0  0  0  0  0  0  0  0  0  0
   19.7946   -8.6075  -16.0445 C   0  0  0  0  0  0  0  0  0  0  0  0
   19.2262   -8.9995  -14.9859 O   0  0  0  0  0  0  0  0  0  0  0  0
   20.4396   -4.8878   -8.5492 O   0  0  0  0  0  0  0  0  0  0  0  0
   20.6308   -5.4455   -9.8122 C   0  0  0  0  0  0  0  0  0  0  0  0
   21.5210   -4.8832  -10.7147 C   0  0  0  0  0  0  0  0  0  0  0  0
   21.7183   -5.4298  -11.9723 C   0  0  0  0  0  0  0  0  0  0  0  0
   21.0190   -6.5497  -12.3316 C   0  0  0  0  0  0  0  0  0  0  0  0
   21.1561   -7.2068  -13.6370 C   0  0  0  0  0  0  0  0  0  0  0  0
   20.3862   -6.5492  -14.7519 C   0  0  2  0  0  0  0  0  0  0  0  0
   20.4191   -7.3334  -15.9722 N   0  0  0  0  0  0  0  0  0  0  0  0
   20.9987   -5.2319  -15.0531 C   0  0  0  0  0  0  0  0  0  0  0  0
   20.9866   -4.1553  -14.1959 O   0  0  0  0  0  0  0  0  0  0  0  0
   20.1291   -7.1082  -11.4234 C   0  0  0  0  0  0  0  0  0  0  0  0
   19.9284   -6.5698  -10.1719 C   0  0  0  0  0  0  0  0  0  0  0  0
   21.5653   -5.0959  -16.1677 O   0  0  0  0  0  0  0  0  0  0  0  0
  2  1  1  1
  2  3  1  0
  4  2  1  0
  5  6  1  6
  5  4  1  0
  7  8  2  0
  7  5  1  0
  9 10  1  0
 10 12  1  0
 11 10  2  0
 12 13  1  0
 14 15  1  0
 14 13  1  1
 15  7  1  0
 16 14  1  0
 17 16  2  0
 19 29  2  0
 19 18  1  0
 20 19  1  0
 21 22  1  0
 21 20  2  0
 22 28  2  0
 24 23  1  1
 23 22  1  0
 24 25  1  0
 25 16  1  0
 26 27  1  0
 26 24  1  0
 28 29  1  0
 30 26  2  0
M  END
$$$$
