LQY.pdb
     RDKit          3D

 30 30  0  0  1  0  0  0  0  0999 V2000
   27.9188  -19.1637   -5.8486 C   0  0  0  0  0  0  0  0  0  0  0  0
   28.0461  -19.9911   -7.0916 C   0  0  2  0  0  0  0  0  0  0  0  0
   29.4776  -19.9634   -7.5881 C   0  0  0  0  0  0  0  0  0  0  0  0
   27.1317  -19.5362   -8.2019 C   0  0  0  0  0  0  0  0  0  0  0  0
   26.4702  -20.7127   -8.8688 C   0  0  2  0  0  0  0  0  0  0  0  0
   27.4472  -21.7560   -9.0903 N   0  0  0  0  0  0  0  0  0  0  0  0
   25.8193  -20.3822  -10.1297 C   0  0  0  0  0  0  0  0  0  0  0  0
   25.1192  -19.3361  -10.1957 O   0  0  0  0  0  0  0  0  0  0  0  0
   27.3483  -22.0352  -15.9798 N   0  0  0  0  0  0  0  0  0  0  0  0
   27.9755  -21.0374  -15.1652 C   0  0  0  0  0  0  0  0  0  0  0  0
   29.0879  -20.5591  -15.4912 O   0  0  0  0  0  0  0  0  0  0  0  0
   27.3288  -20.5487  -13.9242 C   0  0  0  0  0  0  0  0  0  0  0  0
   25.9975  -21.1964  -13.7629 C   0  0  0  0  0  0  0  0  0  0  0  0
   25.2658  -20.7336  -12.5161 C   0  0  2  0  0  0  0  0  0  0  0  0
   25.9120  -21.1597  -11.3142 N   0  0  0  0  0  0  0  0  0  0  0  0
   23.8295  -21.1441  -12.5598 C   0  0  0  0  0  0  0  0  0  0  0  0
   23.4314  -22.2486  -12.0916 O   0  0  0  0  0  0  0  0  0  0  0  0
   15.1875  -21.3880  -11.7960 O   0  0  0  0  0  0  0  0  0  0  0  0
   16.5532  -21.1102  -11.8177 C   0  0  0  0  0  0  0  0  0  0  0  0
   17.4770  -22.0267  -11.3385 C   0  0  0  0  0  0  0  0  0  0  0  0
   18.8364  -21.7603  -11.3556 C   0  0  0  0  0  0  0  0  0  0  0  0
   19.2770  -20.5657  -11.8567 C   0  0  0  0  0  0  0  0  0  0  0  0
   20.6938  -20.1872  -11.9216 C   0  0  0  0  0  0  0  0  0  0  0  0
   21.4292  -20.7209  -13.1225 C   0  0  2  0  0  0  0  0  0  0  0  0
   22.8233  -20.3189  -13.1299 N   0  0  0  0  0  0  0  0  0  0  0  0
   20.8037  -20.1797  -14.3542 C   0  0  0  0  0  0  0  0  0  0  0  0
   19.7648  -20.7816  -15.0269 O   0  0  0  0  0  0  0  0  0  0  0  0
   18.3471  -19.6519  -12.3350 C   0  0  0  0  0  0  0  0  0  0  0  0
   16.9946  -19.9107  -12.3209 C   0  0  0  0  0  0  0  0  0  0  0  0
   21.2573  -19.0985  -14.8093 O   0  0  0  0  0  0  0  0  0  0  0  0
  2  1  1  1
  2  3  1  0
  4  2  1  0
  5  6  1  6
  5  4  1  0
  7  8  2  0
  7  5  1  0
  9 10  1  0
 10 12  1  0
 11 10  2  0
 12 13  1  0
 14 15  1  0
 14 13  1  6
 15  7  1  0
 16 14  1  0
 17 16  2  0
 19 29  2  0
 19 18  1  0
 20 19  1  0
 21 22  1  0
 21 20  2  0
 22 28  2  0
 24 23  1  1
 23 22  1  0
 24 25  1  0
 25 16  1  0
 26 27  1  0
 26 24  1  0
 28 29  1  0
 30 26  2  0
M  END
$$$$
