CNW.pdb
     RDKit          3D

 29 30  0  0  1  0  0  0  0  0999 V2000
    6.9878  -15.8901   18.8494 N   0  0  0  0  0  0  0  0  0  0  0  0
    8.0061  -15.3409   19.7073 C   0  0  1  0  0  0  0  0  0  0  0  0
    7.5094  -14.1621   20.5152 C   0  0  0  0  0  0  0  0  0  0  0  0
    6.2905  -14.6516   21.7447 S   0  0  0  0  0  0  0  0  0  0  0  0
    8.5993  -16.3884   20.5680 C   0  0  0  0  0  0  0  0  0  0  0  0
    7.9583  -17.4567   20.7220 O   0  0  0  0  0  0  0  0  0  0  0  0
   12.0589  -20.1260   22.1675 N   0  0  0  0  0  0  0  0  0  0  0  0
   12.3323  -18.7409   22.4281 C   0  0  0  0  0  0  0  0  0  0  0  0
   13.1036  -18.4847   23.3653 O   0  0  0  0  0  0  0  0  0  0  0  0
   11.6587  -17.7829   21.5443 C   0  0  0  0  0  0  0  0  0  0  0  0
   10.4417  -17.1383   22.1004 C   0  0  2  0  0  0  0  0  0  0  0  0
    9.8552  -16.1703   21.1920 N   0  0  0  0  0  0  0  0  0  0  0  0
   10.6579  -16.5051   23.4269 C   0  0  0  0  0  0  0  0  0  0  0  0
   11.2111  -15.3818   23.4747 O   0  0  0  0  0  0  0  0  0  0  0  0
   10.2712  -17.1010   24.6539 N   0  0  0  0  0  0  0  0  0  0  0  0
   10.4306  -16.4637   25.9585 C   0  0  1  0  0  0  0  0  0  0  0  0
   10.0478  -15.0263   25.9025 C   0  0  0  0  0  0  0  0  0  0  0  0
    8.6155  -14.7494   25.7912 C   0  0  0  0  0  0  0  0  0  0  0  0
    7.6042  -15.6577   25.4880 C   0  0  0  0  0  0  0  0  0  0  0  0
    6.4298  -15.0042   25.4513 N   0  0  0  0  0  0  0  0  0  0  0  0
    6.6200  -13.6851   25.7210 C   0  0  0  0  0  0  0  0  0  0  0  0
    5.7737  -12.6178   25.8208 C   0  0  0  0  0  0  0  0  0  0  0  0
    6.3201  -11.3967   26.1370 C   0  0  0  0  0  0  0  0  0  0  0  0
    7.6572  -11.1997   26.3546 C   0  0  0  0  0  0  0  0  0  0  0  0
    8.4995  -12.2846   26.2500 C   0  0  0  0  0  0  0  0  0  0  0  0
    7.9936  -13.5341   25.9329 C   0  0  0  0  0  0  0  0  0  0  0  0
    9.9234  -17.2599   27.0751 C   0  0  0  0  0  0  0  0  0  0  0  0
    9.2766  -18.3354   26.9391 O   0  0  0  0  0  0  0  0  0  0  0  0
   10.1518  -16.8432   28.3739 O   0  0  0  0  0  0  0  0  0  0  0  0
  2  5  1  0
  2  1  1  1
  3  2  1  0
  4  3  1  0
  5  6  2  0
  7  8  1  0
  8 10  1  0
  9  8  2  0
 11 10  1  6
 12 11  1  0
 12  5  1  0
 13 11  1  0
 13 14  2  0
 15 13  1  0
 16 15  1  0
 16 27  1  0
 16 17  1  6
 18 17  1  0
 19 18  2  0
 20 21  1  0
 20 19  1  0
 21 26  2  0
 22 21  1  0
 22 23  2  0
 23 24  1  0
 24 25  2  0
 26 18  1  0
 26 25  1  0
 27 28  2  0
 27 29  1  0
M  END
$$$$
