CNW.pdb
     RDKit          3D

 29 30  0  0  1  0  0  0  0  0999 V2000
    8.8159  -13.9784   20.6174 N   0  0  0  0  0  0  0  0  0  0  0  0
    7.7750  -14.9386   20.8803 C   0  0  1  0  0  0  0  0  0  0  0  0
    6.8190  -15.0900   19.7174 C   0  0  0  0  0  0  0  0  0  0  0  0
    6.6662  -13.5702   18.7667 S   0  0  0  0  0  0  0  0  0  0  0  0
    8.3435  -16.2391   21.2994 C   0  0  0  0  0  0  0  0  0  0  0  0
    7.5463  -17.1696   21.5722 O   0  0  0  0  0  0  0  0  0  0  0  0
   10.6190  -19.4072   19.2520 N   0  0  0  0  0  0  0  0  0  0  0  0
   11.3080  -18.2114   19.6477 C   0  0  0  0  0  0  0  0  0  0  0  0
   11.6463  -17.4304   18.7452 O   0  0  0  0  0  0  0  0  0  0  0  0
   11.5321  -18.0544   21.0891 C   0  0  0  0  0  0  0  0  0  0  0  0
   10.3505  -17.6307   21.8828 C   0  0  2  0  0  0  0  0  0  0  0  0
    9.7502  -16.4068   21.3848 N   0  0  0  0  0  0  0  0  0  0  0  0
   10.6296  -17.4900   23.3353 C   0  0  0  0  0  0  0  0  0  0  0  0
   11.4671  -18.2572   23.8644 O   0  0  0  0  0  0  0  0  0  0  0  0
    9.9995  -16.5298   24.1666 N   0  0  0  0  0  0  0  0  0  0  0  0
   10.2028  -16.4388   25.6102 C   0  0  1  0  0  0  0  0  0  0  0  0
    9.8514  -15.0835   26.1159 C   0  0  0  0  0  0  0  0  0  0  0  0
    8.4412  -14.7076   26.0119 C   0  0  0  0  0  0  0  0  0  0  0  0
    7.3697  -15.5399   25.6979 C   0  0  0  0  0  0  0  0  0  0  0  0
    6.2428  -14.8070   25.6733 N   0  0  0  0  0  0  0  0  0  0  0  0
    6.5233  -13.5081   25.9616 C   0  0  0  0  0  0  0  0  0  0  0  0
    5.7524  -12.3869   26.0787 C   0  0  0  0  0  0  0  0  0  0  0  0
    6.3816  -11.2109   26.4113 C   0  0  0  0  0  0  0  0  0  0  0  0
    7.7293  -11.1091   26.6288 C   0  0  0  0  0  0  0  0  0  0  0  0
    8.4951  -12.2475   26.5066 C   0  0  0  0  0  0  0  0  0  0  0  0
    7.9043  -13.4547   26.1726 C   0  0  0  0  0  0  0  0  0  0  0  0
    9.7033  -17.5937   26.3549 C   0  0  0  0  0  0  0  0  0  0  0  0
    9.9747  -17.8242   27.5660 O   0  0  0  0  0  0  0  0  0  0  0  0
    8.8758  -18.5079   25.7285 O   0  0  0  0  0  0  0  0  0  0  0  0
  2  5  1  0
  2  1  1  6
  3  2  1  0
  4  3  1  0
  5  6  2  0
  7  8  1  0
  8 10  1  0
  9  8  2  0
 11 10  1  6
 12 11  1  0
 12  5  1  0
 13 11  1  0
 13 14  2  0
 15 13  1  0
 16 15  1  0
 16 27  1  0
 16 17  1  1
 18 17  1  0
 19 18  2  0
 20 21  1  0
 20 19  1  0
 21 26  2  0
 22 21  1  0
 22 23  2  0
 23 24  1  0
 24 25  2  0
 26 18  1  0
 26 25  1  0
 27 28  2  0
 27 29  1  0
M  END
$$$$
