CNW.pdb
     RDKit          3D

 29 30  0  0  1  0  0  0  0  0999 V2000
    7.5916  -14.5356   18.3448 N   0  0  0  0  0  0  0  0  0  0  0  0
    8.2804  -14.1503   19.5496 C   0  0  1  0  0  0  0  0  0  0  0  0
    7.7171  -12.8858   20.1601 C   0  0  0  0  0  0  0  0  0  0  0  0
    8.5963  -12.4082   21.6554 S   0  0  0  0  0  0  0  0  0  0  0  0
    8.3148  -15.2645   20.5229 C   0  0  0  0  0  0  0  0  0  0  0  0
    7.2659  -15.9339   20.6890 O   0  0  0  0  0  0  0  0  0  0  0  0
   12.2135  -16.9398   19.9827 N   0  0  0  0  0  0  0  0  0  0  0  0
   11.9200  -17.2865   21.3446 C   0  0  0  0  0  0  0  0  0  0  0  0
   12.8437  -17.1790   22.1657 O   0  0  0  0  0  0  0  0  0  0  0  0
   10.5466  -17.7317   21.6053 C   0  0  0  0  0  0  0  0  0  0  0  0
    9.6197  -16.6933   22.1233 C   0  0  2  0  0  0  0  0  0  0  0  0
    9.5077  -15.5494   21.2372 N   0  0  0  0  0  0  0  0  0  0  0  0
    9.9551  -16.2273   23.4936 C   0  0  0  0  0  0  0  0  0  0  0  0
   10.7645  -15.2800   23.6260 O   0  0  0  0  0  0  0  0  0  0  0  0
    9.4084  -16.7953   24.6720 N   0  0  0  0  0  0  0  0  0  0  0  0
    9.9450  -16.5727   26.0121 C   0  0  1  0  0  0  0  0  0  0  0  0
    8.8545  -16.2908   26.9855 C   0  0  0  0  0  0  0  0  0  0  0  0
    7.7150  -15.5330   26.4679 C   0  0  0  0  0  0  0  0  0  0  0  0
    6.5932  -16.0403   25.8170 C   0  0  0  0  0  0  0  0  0  0  0  0
    5.7912  -15.0177   25.4724 N   0  0  0  0  0  0  0  0  0  0  0  0
    6.3387  -13.8388   25.8719 C   0  0  0  0  0  0  0  0  0  0  0  0
    5.9308  -12.5386   25.7824 C   0  0  0  0  0  0  0  0  0  0  0  0
    6.7457  -11.5745   26.3267 C   0  0  0  0  0  0  0  0  0  0  0  0
    7.9340  -11.8509   26.9477 C   0  0  0  0  0  0  0  0  0  0  0  0
    8.3337  -13.1664   27.0302 C   0  0  0  0  0  0  0  0  0  0  0  0
    7.5450  -14.1713   26.4954 C   0  0  0  0  0  0  0  0  0  0  0  0
   10.9777  -17.5301   26.4057 C   0  0  0  0  0  0  0  0  0  0  0  0
   11.2900  -18.5495   25.7299 O   0  0  0  0  0  0  0  0  0  0  0  0
   11.6801  -17.3364   27.5813 O   0  0  0  0  0  0  0  0  0  0  0  0
  2  5  1  0
  2  1  1  6
  3  2  1  0
  4  3  1  0
  5  6  2  0
  7  8  1  0
  8 10  1  0
  9  8  2  0
 11 10  1  6
 12 11  1  0
 12  5  1  0
 13 11  1  0
 13 14  2  0
 15 13  1  0
 16 15  1  0
 16 27  1  0
 16 17  1  1
 18 17  1  0
 19 18  2  0
 20 21  1  0
 20 19  1  0
 21 26  2  0
 22 21  1  0
 22 23  2  0
 23 24  1  0
 24 25  2  0
 26 18  1  0
 26 25  1  0
 27 28  2  0
 27 29  1  0
M  END
$$$$
