CNW.pdb
     RDKit          3D

 29 30  0  0  1  0  0  0  0  0999 V2000
    7.5105  -19.8080   22.8596 N   0  0  0  0  0  0  0  0  0  0  0  0
    8.8439  -20.2548   22.5483 C   0  0  1  0  0  0  0  0  0  0  0  0
    8.9070  -21.0314   21.2514 C   0  0  0  0  0  0  0  0  0  0  0  0
    7.5196  -22.1630   21.0738 S   0  0  0  0  0  0  0  0  0  0  0  0
    9.8006  -19.1259   22.5619 C   0  0  0  0  0  0  0  0  0  0  0  0
   11.0106  -19.3768   22.3409 O   0  0  0  0  0  0  0  0  0  0  0  0
   10.7316  -16.8371   20.2234 N   0  0  0  0  0  0  0  0  0  0  0  0
   10.0287  -15.6579   20.6436 C   0  0  0  0  0  0  0  0  0  0  0  0
    9.6673  -14.8703   19.7559 O   0  0  0  0  0  0  0  0  0  0  0  0
    9.8196  -15.5239   22.0896 C   0  0  0  0  0  0  0  0  0  0  0  0
   10.2530  -16.6811   22.9135 C   0  0  2  0  0  0  0  0  0  0  0  0
    9.3428  -17.8077   22.8206 N   0  0  0  0  0  0  0  0  0  0  0  0
   10.4776  -16.3423   24.3425 C   0  0  0  0  0  0  0  0  0  0  0  0
   11.3054  -15.4453   24.6256 O   0  0  0  0  0  0  0  0  0  0  0  0
    9.8042  -16.9788   25.4157 N   0  0  0  0  0  0  0  0  0  0  0  0
   10.1133  -16.7512   26.8250 C   0  0  1  0  0  0  0  0  0  0  0  0
    8.9370  -16.1950   27.5480 C   0  0  0  0  0  0  0  0  0  0  0  0
    7.9505  -15.4969   26.7233 C   0  0  0  0  0  0  0  0  0  0  0  0
    6.9876  -16.0708   25.8970 C   0  0  0  0  0  0  0  0  0  0  0  0
    6.2978  -15.0908   25.2877 N   0  0  0  0  0  0  0  0  0  0  0  0
    6.7666  -13.8759   25.6791 C   0  0  0  0  0  0  0  0  0  0  0  0
    6.4111  -12.5925   25.3761 C   0  0  0  0  0  0  0  0  0  0  0  0
    7.1057  -11.5760   25.9873 C   0  0  0  0  0  0  0  0  0  0  0  0
    8.1261  -11.7844   26.8759 C   0  0  0  0  0  0  0  0  0  0  0  0
    8.4748  -13.0837   27.1719 C   0  0  0  0  0  0  0  0  0  0  0  0
    7.8030  -14.1399   26.5796 C   0  0  0  0  0  0  0  0  0  0  0  0
   10.8449  -17.8477   27.4578 C   0  0  0  0  0  0  0  0  0  0  0  0
   11.1370  -18.9298   26.8770 O   0  0  0  0  0  0  0  0  0  0  0  0
   11.2635  -17.7253   28.7703 O   0  0  0  0  0  0  0  0  0  0  0  0
  2  5  1  0
  2  1  1  6
  3  2  1  0
  4  3  1  0
  5  6  2  0
  7  8  1  0
  8 10  1  0
  9  8  2  0
 11 10  1  6
 12 11  1  0
 12  5  1  0
 13 11  1  0
 13 14  2  0
 15 13  1  0
 16 15  1  0
 16 27  1  0
 16 17  1  1
 18 17  1  0
 19 18  2  0
 20 21  1  0
 20 19  1  0
 21 26  2  0
 22 21  1  0
 22 23  2  0
 23 24  1  0
 24 25  2  0
 26 18  1  0
 26 25  1  0
 27 28  2  0
 27 29  1  0
M  END
$$$$
