CNW.pdb
     RDKit          3D

 29 30  0  0  1  0  0  0  0  0999 V2000
    7.3942  -16.5484   19.7985 N   0  0  0  0  0  0  0  0  0  0  0  0
    8.1064  -15.6181   20.6363 C   0  0  1  0  0  0  0  0  0  0  0  0
    7.2086  -14.9507   21.6549 C   0  0  0  0  0  0  0  0  0  0  0  0
    7.0696  -15.9151   23.1673 S   0  0  0  0  0  0  0  0  0  0  0  0
    9.2774  -16.2624   21.2718 C   0  0  0  0  0  0  0  0  0  0  0  0
    9.2511  -17.5075   21.4292 O   0  0  0  0  0  0  0  0  0  0  0  0
   14.7132  -16.7182   21.2714 N   0  0  0  0  0  0  0  0  0  0  0  0
   14.1172  -15.7855   22.1858 C   0  0  0  0  0  0  0  0  0  0  0  0
   14.7491  -15.5294   23.2221 O   0  0  0  0  0  0  0  0  0  0  0  0
   12.8167  -15.2407   21.7803 C   0  0  0  0  0  0  0  0  0  0  0  0
   11.6352  -16.0758   22.1152 C   0  0  2  0  0  0  0  0  0  0  0  0
   10.3852  -15.4771   21.6846 N   0  0  0  0  0  0  0  0  0  0  0  0
   11.5453  -16.4279   23.5558 C   0  0  0  0  0  0  0  0  0  0  0  0
   12.4728  -17.0939   24.0717 O   0  0  0  0  0  0  0  0  0  0  0  0
   10.4627  -16.0511   24.3902 N   0  0  0  0  0  0  0  0  0  0  0  0
   10.4075  -16.3127   25.8262 C   0  0  1  0  0  0  0  0  0  0  0  0
    9.8727  -15.1360   26.5646 C   0  0  0  0  0  0  0  0  0  0  0  0
    8.4350  -14.8981   26.4340 C   0  0  0  0  0  0  0  0  0  0  0  0
    7.4408  -15.8497   26.2206 C   0  0  0  0  0  0  0  0  0  0  0  0
    6.2539  -15.2250   26.1284 N   0  0  0  0  0  0  0  0  0  0  0  0
    6.4191  -13.8831   26.2738 C   0  0  0  0  0  0  0  0  0  0  0  0
    5.5525  -12.8276   26.2777 C   0  0  0  0  0  0  0  0  0  0  0  0
    6.0759  -11.5722   26.4771 C   0  0  0  0  0  0  0  0  0  0  0  0
    7.4095  -11.3303   26.6700 C   0  0  0  0  0  0  0  0  0  0  0  0
    8.2723  -12.4039   26.6629 C   0  0  0  0  0  0  0  0  0  0  0  0
    7.7900  -13.6869   26.4651 C   0  0  0  0  0  0  0  0  0  0  0  0
    9.8764  -17.6309   26.1703 C   0  0  0  0  0  0  0  0  0  0  0  0
    9.8693  -18.1060   27.3398 O   0  0  0  0  0  0  0  0  0  0  0  0
    9.3358  -18.4320   25.1810 O   0  0  0  0  0  0  0  0  0  0  0  0
  2  5  1  0
  2  1  1  1
  3  2  1  0
  4  3  1  0
  5  6  2  0
  7  8  1  0
  8 10  1  0
  9  8  2  0
 11 10  1  1
 12 11  1  0
 12  5  1  0
 13 11  1  0
 13 14  2  0
 15 13  1  0
 16 15  1  0
 16 27  1  0
 16 17  1  1
 18 17  1  0
 19 18  2  0
 20 21  1  0
 20 19  1  0
 21 26  2  0
 22 21  1  0
 22 23  2  0
 23 24  1  0
 24 25  2  0
 26 18  1  0
 26 25  1  0
 27 28  2  0
 27 29  1  0
M  END
$$$$
