CNW.pdb
     RDKit          3D

 29 30  0  0  1  0  0  0  0  0999 V2000
    7.3207  -16.5778   20.0545 N   0  0  0  0  0  0  0  0  0  0  0  0
    8.2720  -15.7179   20.7104 C   0  0  1  0  0  0  0  0  0  0  0  0
    7.6345  -14.8567   21.7786 C   0  0  0  0  0  0  0  0  0  0  0  0
    6.8396  -15.8432   23.0560 S   0  0  0  0  0  0  0  0  0  0  0  0
    9.4160  -16.4942   21.2383 C   0  0  0  0  0  0  0  0  0  0  0  0
    9.2823  -17.7373   21.3507 O   0  0  0  0  0  0  0  0  0  0  0  0
   13.4761  -17.5185   19.8668 N   0  0  0  0  0  0  0  0  0  0  0  0
   13.4241  -16.1543   20.3114 C   0  0  0  0  0  0  0  0  0  0  0  0
   13.6913  -15.2779   19.4752 O   0  0  0  0  0  0  0  0  0  0  0  0
   13.0570  -15.9580   21.7183 C   0  0  0  0  0  0  0  0  0  0  0  0
   11.7608  -16.5512   22.1350 C   0  0  2  0  0  0  0  0  0  0  0  0
   10.6181  -15.8329   21.6015 N   0  0  0  0  0  0  0  0  0  0  0  0
   11.6160  -16.6887   23.6073 C   0  0  0  0  0  0  0  0  0  0  0  0
   12.5263  -17.2607   24.2508 O   0  0  0  0  0  0  0  0  0  0  0  0
   10.4991  -16.2060   24.3350 N   0  0  0  0  0  0  0  0  0  0  0  0
   10.3577  -16.3168   25.7846 C   0  0  1  0  0  0  0  0  0  0  0  0
    9.7845  -15.0708   26.3634 C   0  0  0  0  0  0  0  0  0  0  0  0
    8.3444  -14.8851   26.1830 C   0  0  0  0  0  0  0  0  0  0  0  0
    7.3908  -15.8740   25.9545 C   0  0  0  0  0  0  0  0  0  0  0  0
    6.1868  -15.2924   25.8137 N   0  0  0  0  0  0  0  0  0  0  0  0
    6.3012  -13.9435   25.9411 C   0  0  0  0  0  0  0  0  0  0  0  0
    5.3995  -12.9187   25.8991 C   0  0  0  0  0  0  0  0  0  0  0  0
    5.8729  -11.6429   26.0934 C   0  0  0  0  0  0  0  0  0  0  0  0
    7.1904  -11.3517   26.3244 C   0  0  0  0  0  0  0  0  0  0  0  0
    8.0893  -12.3947   26.3634 C   0  0  0  0  0  0  0  0  0  0  0  0
    7.6578  -13.6967   26.1726 C   0  0  0  0  0  0  0  0  0  0  0  0
    9.8021  -17.5932   26.2319 C   0  0  0  0  0  0  0  0  0  0  0  0
    9.2243  -18.4176   25.4703 O   0  0  0  0  0  0  0  0  0  0  0  0
    9.9019  -17.9556   27.5629 O   0  0  0  0  0  0  0  0  0  0  0  0
  2  5  1  0
  2  1  1  1
  3  2  1  0
  4  3  1  0
  5  6  2  0
  7  8  1  0
  8 10  1  0
  9  8  2  0
 11 10  1  1
 12 11  1  0
 12  5  1  0
 13 11  1  0
 13 14  2  0
 15 13  1  0
 16 15  1  0
 16 27  1  0
 16 17  1  6
 18 17  1  0
 19 18  2  0
 20 21  1  0
 20 19  1  0
 21 26  2  0
 22 21  1  0
 22 23  2  0
 23 24  1  0
 24 25  2  0
 26 18  1  0
 26 25  1  0
 27 28  2  0
 27 29  1  0
M  END
$$$$
