CNW.pdb
     RDKit          3D

 29 30  0  0  1  0  0  0  0  0999 V2000
    6.9762  -19.7793   19.5763 N   0  0  0  0  0  0  0  0  0  0  0  0
    7.0796  -18.9192   20.7271 C   0  0  1  0  0  0  0  0  0  0  0  0
    7.1553  -19.6937   22.0246 C   0  0  0  0  0  0  0  0  0  0  0  0
    7.0162  -18.6196   23.4612 S   0  0  0  0  0  0  0  0  0  0  0  0
    8.2073  -17.9716   20.5841 C   0  0  0  0  0  0  0  0  0  0  0  0
    9.3081  -18.4226   20.1833 O   0  0  0  0  0  0  0  0  0  0  0  0
    8.6072  -15.2762   18.2183 N   0  0  0  0  0  0  0  0  0  0  0  0
    8.3828  -14.1249   19.0463 C   0  0  0  0  0  0  0  0  0  0  0  0
    7.9394  -13.1083   18.4907 O   0  0  0  0  0  0  0  0  0  0  0  0
    8.7086  -14.2907   20.4672 C   0  0  0  0  0  0  0  0  0  0  0  0
    9.1297  -15.6546   20.8771 C   0  0  2  0  0  0  0  0  0  0  0  0
    8.0280  -16.5991   20.8976 N   0  0  0  0  0  0  0  0  0  0  0  0
    9.8376  -15.6909   22.1828 C   0  0  0  0  0  0  0  0  0  0  0  0
   10.9946  -15.2151   22.2538 O   0  0  0  0  0  0  0  0  0  0  0  0
    9.2766  -16.2361   23.3653 N   0  0  0  0  0  0  0  0  0  0  0  0
    9.9345  -16.2117   24.6692 C   0  0  1  0  0  0  0  0  0  0  0  0
    9.6215  -14.9551   25.4033 C   0  0  0  0  0  0  0  0  0  0  0  0
    8.2058  -14.7125   25.6818 C   0  0  0  0  0  0  0  0  0  0  0  0
    7.1662  -15.6373   25.6222 C   0  0  0  0  0  0  0  0  0  0  0  0
    6.0125  -15.0139   25.9186 N   0  0  0  0  0  0  0  0  0  0  0  0
    6.2441  -13.6990   26.1762 C   0  0  0  0  0  0  0  0  0  0  0  0
    5.4357  -12.6577   26.5329 C   0  0  0  0  0  0  0  0  0  0  0  0
    6.0249  -11.4329   26.7384 C   0  0  0  0  0  0  0  0  0  0  0  0
    7.3685  -11.2076   26.6044 C   0  0  0  0  0  0  0  0  0  0  0  0
    8.1722  -12.2665   26.2435 C   0  0  0  0  0  0  0  0  0  0  0  0
    7.6223  -13.5186   26.0255 C   0  0  0  0  0  0  0  0  0  0  0  0
    9.8414  -17.4713   25.4058 C   0  0  0  0  0  0  0  0  0  0  0  0
    9.1231  -18.4463   25.0496 O   0  0  0  0  0  0  0  0  0  0  0  0
   10.5753  -17.6433   26.5654 O   0  0  0  0  0  0  0  0  0  0  0  0
  2  5  1  0
  2  1  1  6
  3  2  1  0
  4  3  1  0
  5  6  2  0
  7  8  1  0
  8 10  1  0
  9  8  2  0
 11 10  1  1
 12 11  1  0
 12  5  1  0
 13 11  1  0
 13 14  2  0
 15 13  1  0
 16 15  1  0
 16 27  1  0
 16 17  1  1
 18 17  1  0
 19 18  2  0
 20 21  1  0
 20 19  1  0
 21 26  2  0
 22 21  1  0
 22 23  2  0
 23 24  1  0
 24 25  2  0
 26 18  1  0
 26 25  1  0
 27 28  2  0
 27 29  1  0
M  END
$$$$
