CNW.pdb
     RDKit          3D

 29 30  0  0  1  0  0  0  0  0999 V2000
    7.4341  -15.3119   17.5373 N   0  0  0  0  0  0  0  0  0  0  0  0
    8.3247  -14.8734   18.5809 C   0  0  1  0  0  0  0  0  0  0  0  0
    8.0281  -13.4630   19.0414 C   0  0  0  0  0  0  0  0  0  0  0  0
    9.0520  -12.9798   20.4396 S   0  0  0  0  0  0  0  0  0  0  0  0
    8.3353  -15.8309   19.7093 C   0  0  0  0  0  0  0  0  0  0  0  0
    7.2376  -16.3095   20.0857 O   0  0  0  0  0  0  0  0  0  0  0  0
   12.8785  -18.4255   20.8813 N   0  0  0  0  0  0  0  0  0  0  0  0
   11.6309  -18.0974   20.2510 C   0  0  0  0  0  0  0  0  0  0  0  0
   11.6843  -17.6339   19.1016 O   0  0  0  0  0  0  0  0  0  0  0  0
   10.4281  -18.3524   21.0514 C   0  0  0  0  0  0  0  0  0  0  0  0
    9.6255  -17.1549   21.4086 C   0  0  2  0  0  0  0  0  0  0  0  0
    9.5606  -16.1824   20.3333 N   0  0  0  0  0  0  0  0  0  0  0  0
   10.0791  -16.4855   22.6550 C   0  0  0  0  0  0  0  0  0  0  0  0
   10.7330  -15.4207   22.5627 O   0  0  0  0  0  0  0  0  0  0  0  0
    9.8131  -16.9838   23.9554 N   0  0  0  0  0  0  0  0  0  0  0  0
   10.1265  -16.2637   25.1870 C   0  0  1  0  0  0  0  0  0  0  0  0
    9.6227  -14.8641   25.1318 C   0  0  0  0  0  0  0  0  0  0  0  0
    8.2311  -14.6684   25.5391 C   0  0  0  0  0  0  0  0  0  0  0  0
    7.2026  -15.6065   25.4974 C   0  0  0  0  0  0  0  0  0  0  0  0
    6.0685  -15.0273   25.9285 N   0  0  0  0  0  0  0  0  0  0  0  0
    6.3026  -13.7293   26.2592 C   0  0  0  0  0  0  0  0  0  0  0  0
    5.5119  -12.7309   26.7523 C   0  0  0  0  0  0  0  0  0  0  0  0
    6.0994  -11.5123   26.9963 C   0  0  0  0  0  0  0  0  0  0  0  0
    7.4247  -11.2528   26.7716 C   0  0  0  0  0  0  0  0  0  0  0  0
    8.2105  -12.2684   26.2734 C   0  0  0  0  0  0  0  0  0  0  0  0
    7.6615  -13.5127   26.0120 C   0  0  0  0  0  0  0  0  0  0  0  0
    9.8722  -17.0310   26.4054 C   0  0  0  0  0  0  0  0  0  0  0  0
   10.2140  -16.6550   27.5610 O   0  0  0  0  0  0  0  0  0  0  0  0
    9.2143  -18.2450   26.3265 O   0  0  0  0  0  0  0  0  0  0  0  0
  2  5  1  0
  2  1  1  6
  3  2  1  0
  4  3  1  0
  5  6  2  0
  7  8  1  0
  8 10  1  0
  9  8  2  0
 11 10  1  6
 12 11  1  0
 12  5  1  0
 13 11  1  0
 13 14  2  0
 15 13  1  0
 16 15  1  0
 16 27  1  0
 16 17  1  1
 18 17  1  0
 19 18  2  0
 20 21  1  0
 20 19  1  0
 21 26  2  0
 22 21  1  0
 22 23  2  0
 23 24  1  0
 24 25  2  0
 26 18  1  0
 26 25  1  0
 27 28  2  0
 27 29  1  0
M  END
$$$$
