CNW.pdb
     RDKit          3D

 29 30  0  0  1  0  0  0  0  0999 V2000
    6.0209  -18.8059   22.4049 N   0  0  0  0  0  0  0  0  0  0  0  0
    6.8319  -18.8050   21.2146 C   0  0  1  0  0  0  0  0  0  0  0  0
    6.0036  -18.7726   19.9489 C   0  0  0  0  0  0  0  0  0  0  0  0
    7.0144  -18.9787   18.4750 S   0  0  0  0  0  0  0  0  0  0  0  0
    7.8280  -17.7112   21.2496 C   0  0  0  0  0  0  0  0  0  0  0  0
    7.9237  -16.9694   20.2414 O   0  0  0  0  0  0  0  0  0  0  0  0
   12.5562  -16.4723   20.3487 N   0  0  0  0  0  0  0  0  0  0  0  0
   11.7433  -15.7025   21.2475 C   0  0  0  0  0  0  0  0  0  0  0  0
   12.2968  -14.7707   21.8512 O   0  0  0  0  0  0  0  0  0  0  0  0
   10.3388  -16.1150   21.3457 C   0  0  0  0  0  0  0  0  0  0  0  0
   10.0564  -17.2196   22.2975 C   0  0  2  0  0  0  0  0  0  0  0  0
    8.6412  -17.5252   22.3978 N   0  0  0  0  0  0  0  0  0  0  0  0
   10.6110  -16.9896   23.6565 C   0  0  0  0  0  0  0  0  0  0  0  0
   11.8537  -16.9064   23.7933 O   0  0  0  0  0  0  0  0  0  0  0  0
    9.8105  -16.8565   24.8191 N   0  0  0  0  0  0  0  0  0  0  0  0
   10.3478  -16.6985   26.1681 C   0  0  1  0  0  0  0  0  0  0  0  0
    9.3893  -15.9709   27.0444 C   0  0  0  0  0  0  0  0  0  0  0  0
    8.2062  -15.4219   26.3814 C   0  0  0  0  0  0  0  0  0  0  0  0
    7.2122  -16.1310   25.7115 C   0  0  0  0  0  0  0  0  0  0  0  0
    6.3158  -15.2600   25.2162 N   0  0  0  0  0  0  0  0  0  0  0  0
    6.6758  -13.9876   25.5327 C   0  0  0  0  0  0  0  0  0  0  0  0
    6.1138  -12.7669   25.2893 C   0  0  0  0  0  0  0  0  0  0  0  0
    6.7544  -11.6577   25.7882 C   0  0  0  0  0  0  0  0  0  0  0  0
    7.9163  -11.7158   26.5098 C   0  0  0  0  0  0  0  0  0  0  0  0
    8.4727  -12.9532   26.7473 C   0  0  0  0  0  0  0  0  0  0  0  0
    7.8625  -14.0983   26.2635 C   0  0  0  0  0  0  0  0  0  0  0  0
   10.9772  -17.9053   26.7026 C   0  0  0  0  0  0  0  0  0  0  0  0
   11.5984  -17.9507   27.8005 O   0  0  0  0  0  0  0  0  0  0  0  0
   10.9030  -19.0894   25.9919 O   0  0  0  0  0  0  0  0  0  0  0  0
  2  5  1  0
  2  1  1  1
  3  2  1  0
  4  3  1  0
  5  6  2  0
  7  8  1  0
  8 10  1  0
  9  8  2  0
 11 10  1  6
 12 11  1  0
 12  5  1  0
 13 11  1  0
 13 14  2  0
 15 13  1  0
 16 15  1  0
 16 27  1  0
 16 17  1  1
 18 17  1  0
 19 18  2  0
 20 21  1  0
 20 19  1  0
 21 26  2  0
 22 21  1  0
 22 23  2  0
 23 24  1  0
 24 25  2  0
 26 18  1  0
 26 25  1  0
 27 28  2  0
 27 29  1  0
M  END
$$$$
