CNW.pdb
     RDKit          3D

 29 30  0  0  1  0  0  0  0  0999 V2000
    7.8072  -14.3645   17.7531 N   0  0  0  0  0  0  0  0  0  0  0  0
    8.4813  -14.2203   19.0178 C   0  0  1  0  0  0  0  0  0  0  0  0
    8.1246  -12.9289   19.7207 C   0  0  0  0  0  0  0  0  0  0  0  0
    8.9839  -11.5154   19.0132 S   0  0  0  0  0  0  0  0  0  0  0  0
    8.2512  -15.3998   19.8814 C   0  0  0  0  0  0  0  0  0  0  0  0
    7.2540  -16.1224   19.6379 O   0  0  0  0  0  0  0  0  0  0  0  0
    9.0314  -19.4312   22.8079 N   0  0  0  0  0  0  0  0  0  0  0  0
    9.1374  -19.4395   21.3762 C   0  0  0  0  0  0  0  0  0  0  0  0
    9.1635  -20.5474   20.8188 O   0  0  0  0  0  0  0  0  0  0  0  0
    9.2030  -18.1209   20.7361 C   0  0  0  0  0  0  0  0  0  0  0  0
    9.1184  -16.9548   21.6521 C   0  0  2  0  0  0  0  0  0  0  0  0
    9.1427  -15.6860   20.9480 N   0  0  0  0  0  0  0  0  0  0  0  0
   10.1607  -16.9538   22.7108 C   0  0  0  0  0  0  0  0  0  0  0  0
   11.3204  -16.5841   22.4134 O   0  0  0  0  0  0  0  0  0  0  0  0
    9.9194  -17.3492   24.0508 N   0  0  0  0  0  0  0  0  0  0  0  0
   10.1450  -16.4899   25.2102 C   0  0  1  0  0  0  0  0  0  0  0  0
    9.5165  -15.1544   25.0171 C   0  0  0  0  0  0  0  0  0  0  0  0
    8.1698  -14.9955   25.5666 C   0  0  0  0  0  0  0  0  0  0  0  0
    7.1727  -15.9648   25.6430 C   0  0  0  0  0  0  0  0  0  0  0  0
    6.0723  -15.4145   26.1852 N   0  0  0  0  0  0  0  0  0  0  0  0
    6.2988  -14.1057   26.4762 C   0  0  0  0  0  0  0  0  0  0  0  0
    5.5331  -13.1252   27.0396 C   0  0  0  0  0  0  0  0  0  0  0  0
    6.1042  -11.8862   27.2080 C   0  0  0  0  0  0  0  0  0  0  0  0
    7.3897  -11.5897   26.8424 C   0  0  0  0  0  0  0  0  0  0  0  0
    8.1506  -12.5877   26.2747 C   0  0  0  0  0  0  0  0  0  0  0  0
    7.6167  -13.8513   26.0851 C   0  0  0  0  0  0  0  0  0  0  0  0
    9.9413  -17.1586   26.4944 C   0  0  0  0  0  0  0  0  0  0  0  0
   10.3291  -16.6936   27.6021 O   0  0  0  0  0  0  0  0  0  0  0  0
    9.2825  -18.3739   26.5378 O   0  0  0  0  0  0  0  0  0  0  0  0
  2  5  1  0
  2  1  1  6
  3  2  1  0
  4  3  1  0
  5  6  2  0
  7  8  1  0
  8 10  1  0
  9  8  2  0
 11 10  1  6
 12 11  1  0
 12  5  1  0
 13 11  1  0
 13 14  2  0
 15 13  1  0
 16 15  1  0
 16 27  1  0
 16 17  1  6
 18 17  1  0
 19 18  2  0
 20 21  1  0
 20 19  1  0
 21 26  2  0
 22 21  1  0
 22 23  2  0
 23 24  1  0
 24 25  2  0
 26 18  1  0
 26 25  1  0
 27 28  2  0
 27 29  1  0
M  END
$$$$
