CNW.pdb
     RDKit          3D

 29 30  0  0  1  0  0  0  0  0999 V2000
    6.9059  -16.0016   19.4601 N   0  0  0  0  0  0  0  0  0  0  0  0
    7.7584  -15.2625   20.3554 C   0  0  1  0  0  0  0  0  0  0  0  0
    7.0508  -14.0850   20.9895 C   0  0  0  0  0  0  0  0  0  0  0  0
    8.1730  -13.0632   21.9556 S   0  0  0  0  0  0  0  0  0  0  0  0
    8.3647  -16.1529   21.3701 C   0  0  0  0  0  0  0  0  0  0  0  0
    7.6215  -16.9899   21.9383 O   0  0  0  0  0  0  0  0  0  0  0  0
   11.4597  -19.1104   20.5382 N   0  0  0  0  0  0  0  0  0  0  0  0
   11.9082  -17.7717   20.7991 C   0  0  0  0  0  0  0  0  0  0  0  0
   12.3637  -17.1322   19.8386 O   0  0  0  0  0  0  0  0  0  0  0  0
   11.7726  -17.3150   22.1867 C   0  0  0  0  0  0  0  0  0  0  0  0
   10.3988  -16.9437   22.6118 C   0  0  2  0  0  0  0  0  0  0  0  0
    9.7461  -16.0457   21.6770 N   0  0  0  0  0  0  0  0  0  0  0  0
   10.3354  -16.3667   23.9794 C   0  0  0  0  0  0  0  0  0  0  0  0
   10.8701  -15.2528   24.1881 O   0  0  0  0  0  0  0  0  0  0  0  0
    9.6992  -17.0065   25.0730 N   0  0  0  0  0  0  0  0  0  0  0  0
    9.8980  -16.6287   26.4698 C   0  0  1  0  0  0  0  0  0  0  0  0
    8.5954  -16.3999   27.1532 C   0  0  0  0  0  0  0  0  0  0  0  0
    7.6250  -15.5833   26.4238 C   0  0  0  0  0  0  0  0  0  0  0  0
    6.6247  -16.0319   25.5649 C   0  0  0  0  0  0  0  0  0  0  0  0
    5.9662  -14.9686   25.0717 N   0  0  0  0  0  0  0  0  0  0  0  0
    6.4923  -13.8191   25.5726 C   0  0  0  0  0  0  0  0  0  0  0  0
    6.1858  -12.4986   25.4073 C   0  0  0  0  0  0  0  0  0  0  0  0
    6.9329  -11.5775   26.1023 C   0  0  0  0  0  0  0  0  0  0  0  0
    7.9588  -11.9152   26.9435 C   0  0  0  0  0  0  0  0  0  0  0  0
    8.2577  -13.2506   27.1004 C   0  0  0  0  0  0  0  0  0  0  0  0
    7.5320  -14.2139   26.4198 C   0  0  0  0  0  0  0  0  0  0  0  0
   10.8999  -17.4339   27.1668 C   0  0  0  0  0  0  0  0  0  0  0  0
   11.4389  -18.4666   26.6804 O   0  0  0  0  0  0  0  0  0  0  0  0
   11.3107  -17.0692   28.4361 O   0  0  0  0  0  0  0  0  0  0  0  0
  2  5  1  0
  2  1  1  1
  3  2  1  0
  4  3  1  0
  5  6  2  0
  7  8  1  0
  8 10  1  0
  9  8  2  0
 11 10  1  6
 12 11  1  0
 12  5  1  0
 13 11  1  0
 13 14  2  0
 15 13  1  0
 16 15  1  0
 16 27  1  0
 16 17  1  1
 18 17  1  0
 19 18  2  0
 20 21  1  0
 20 19  1  0
 21 26  2  0
 22 21  1  0
 22 23  2  0
 23 24  1  0
 24 25  2  0
 26 18  1  0
 26 25  1  0
 27 28  2  0
 27 29  1  0
M  END
$$$$
