CNW.pdb
     RDKit          3D

 29 30  0  0  1  0  0  0  0  0999 V2000
    7.3251  -21.2517   22.6335 N   0  0  0  0  0  0  0  0  0  0  0  0
    7.2853  -19.8179   22.7641 C   0  0  1  0  0  0  0  0  0  0  0  0
    6.3892  -19.3636   23.8954 C   0  0  0  0  0  0  0  0  0  0  0  0
    6.9450  -19.9868   25.4890 S   0  0  0  0  0  0  0  0  0  0  0  0
    8.6492  -19.2558   22.8816 C   0  0  0  0  0  0  0  0  0  0  0  0
    9.6199  -20.0500   22.8293 O   0  0  0  0  0  0  0  0  0  0  0  0
   12.1745  -15.8875   20.6833 N   0  0  0  0  0  0  0  0  0  0  0  0
   11.5691  -15.5181   21.9316 C   0  0  0  0  0  0  0  0  0  0  0  0
   12.2321  -14.7908   22.6867 O   0  0  0  0  0  0  0  0  0  0  0  0
   10.2228  -16.0516   22.1674 C   0  0  0  0  0  0  0  0  0  0  0  0
   10.1480  -17.2477   23.0447 C   0  0  2  0  0  0  0  0  0  0  0  0
    8.8314  -17.8583   23.0490 N   0  0  0  0  0  0  0  0  0  0  0  0
   10.5777  -16.9872   24.4428 C   0  0  0  0  0  0  0  0  0  0  0  0
   11.7993  -16.8391   24.6794 O   0  0  0  0  0  0  0  0  0  0  0  0
    9.6797  -16.8943   25.5360 N   0  0  0  0  0  0  0  0  0  0  0  0
   10.0981  -16.7499   26.9280 C   0  0  1  0  0  0  0  0  0  0  0  0
    9.1253  -15.9260   27.6967 C   0  0  0  0  0  0  0  0  0  0  0  0
    8.0449  -15.3196   26.9185 C   0  0  0  0  0  0  0  0  0  0  0  0
    7.0073  -15.9787   26.2639 C   0  0  0  0  0  0  0  0  0  0  0  0
    6.2408  -15.0686   25.6380 N   0  0  0  0  0  0  0  0  0  0  0  0
    6.7303  -13.8182   25.8521 C   0  0  0  0  0  0  0  0  0  0  0  0
    6.3244  -12.5738   25.4624 C   0  0  0  0  0  0  0  0  0  0  0  0
    7.0652  -11.4974   25.8891 C   0  0  0  0  0  0  0  0  0  0  0  0
    8.1786  -11.6101   26.6776 C   0  0  0  0  0  0  0  0  0  0  0  0
    8.5772  -12.8711   27.0628 C   0  0  0  0  0  0  0  0  0  0  0  0
    7.8618  -13.9849   26.6562 C   0  0  0  0  0  0  0  0  0  0  0  0
   10.5704  -17.9916   27.5387 C   0  0  0  0  0  0  0  0  0  0  0  0
   10.5464  -19.1151   26.9638 O   0  0  0  0  0  0  0  0  0  0  0  0
   11.0868  -17.9716   28.8216 O   0  0  0  0  0  0  0  0  0  0  0  0
  2  5  1  0
  2  1  1  1
  3  2  1  0
  4  3  1  0
  5  6  2  0
  7  8  1  0
  8 10  1  0
  9  8  2  0
 11 10  1  6
 12 11  1  0
 12  5  1  0
 13 11  1  0
 13 14  2  0
 15 13  1  0
 16 15  1  0
 16 27  1  0
 16 17  1  1
 18 17  1  0
 19 18  2  0
 20 21  1  0
 20 19  1  0
 21 26  2  0
 22 21  1  0
 22 23  2  0
 23 24  1  0
 24 25  2  0
 26 18  1  0
 26 25  1  0
 27 28  2  0
 27 29  1  0
M  END
$$$$
