WPW.pdb
     RDKit          3D

 36 40  0  0  1  0  0  0  0  0999 V2000
   22.5950  -20.9294  -15.1700 N   0  0  0  0  0  0  0  0  0  0  0  0
   23.5677  -19.8927  -14.8786 C   0  0  1  0  0  0  0  0  0  0  0  0
   22.8828  -18.8173  -14.0737 C   0  0  0  0  0  0  0  0  0  0  0  0
   21.7277  -18.3125  -14.8554 C   0  0  0  0  0  0  0  0  0  0  0  0
   20.3780  -18.5736  -14.5789 C   0  0  0  0  0  0  0  0  0  0  0  0
   19.6250  -17.9139  -15.4708 N   0  0  0  0  0  0  0  0  0  0  0  0
   20.3850  -17.2235  -16.3339 C   0  0  0  0  0  0  0  0  0  0  0  0
   20.0764  -16.4125  -17.4166 C   0  0  0  0  0  0  0  0  0  0  0  0
   21.1119  -15.8476  -18.1212 C   0  0  0  0  0  0  0  0  0  0  0  0
   22.4256  -16.0771  -17.7668 C   0  0  0  0  0  0  0  0  0  0  0  0
   22.6983  -16.8882  -16.6846 C   0  0  0  0  0  0  0  0  0  0  0  0
   21.7048  -17.4753  -15.9468 C   0  0  0  0  0  0  0  0  0  0  0  0
   24.7814  -20.4404  -14.2579 C   0  0  0  0  0  0  0  0  0  0  0  0
   24.6422  -21.3920  -13.4489 O   0  0  0  0  0  0  0  0  0  0  0  0
   26.0497  -19.9411  -14.5411 N   0  0  0  0  0  0  0  0  0  0  0  0
   26.4044  -18.9519  -15.5344 C   0  0  0  0  0  0  0  0  0  0  0  0
   27.8130  -19.4018  -15.9914 C   0  0  0  0  0  0  0  0  0  0  0  0
   28.4181  -19.7272  -14.6451 C   0  0  0  0  0  0  0  0  0  0  0  0
   27.2723  -20.3496  -13.8783 C   0  0  1  0  0  0  0  0  0  0  0  0
   27.3036  -19.9976  -12.4459 C   0  0  0  0  0  0  0  0  0  0  0  0
   26.5869  -19.0356  -12.0437 O   0  0  0  0  0  0  0  0  0  0  0  0
   28.0792  -20.6514  -11.4557 N   0  0  0  0  0  0  0  0  0  0  0  0
   28.0768  -20.2868  -10.0413 C   0  0  1  0  0  0  0  0  0  0  0  0
   26.7094  -20.1413   -9.5066 C   0  0  0  0  0  0  0  0  0  0  0  0
   26.6628  -20.3143   -8.0443 C   0  0  0  0  0  0  0  0  0  0  0  0
   25.8532  -21.2044   -7.3216 C   0  0  0  0  0  0  0  0  0  0  0  0
   26.0448  -21.0569   -6.0075 N   0  0  0  0  0  0  0  0  0  0  0  0
   26.9742  -20.0791   -5.8313 C   0  0  0  0  0  0  0  0  0  0  0  0
   27.5294  -19.5679   -4.6712 C   0  0  0  0  0  0  0  0  0  0  0  0
   28.4820  -18.5839   -4.7721 C   0  0  0  0  0  0  0  0  0  0  0  0
   28.8904  -18.1015   -6.0078 C   0  0  0  0  0  0  0  0  0  0  0  0
   28.3292  -18.6190   -7.1499 C   0  0  0  0  0  0  0  0  0  0  0  0
   27.3643  -19.6131   -7.0670 C   0  0  0  0  0  0  0  0  0  0  0  0
   28.9479  -21.1185   -9.2461 C   0  0  0  0  0  0  0  0  0  0  0  0
   28.9328  -22.5001   -9.1663 O   0  0  0  0  0  0  0  0  0  0  0  0
   29.8350  -20.5401   -8.5229 O   0  0  0  0  0  0  0  0  0  0  0  0
  2  1  1  1
  2  3  1  0
  3  4  1  0
  4  5  2  0
  5  6  1  0
  7  8  2  0
  7  6  1  0
  9  8  1  0
 10  9  2  0
 11 10  1  0
 11 12  2  0
 12  4  1  0
 12  7  1  0
 13  2  1  0
 13 14  2  0
 15 13  1  0
 16 15  1  0
 17 18  1  0
 17 16  1  0
 18 19  1  0
 19 15  1  0
 19 20  1  1
 20 22  1  0
 21 20  2  0
 22 23  1  0
 23 34  1  0
 23 24  1  1
 24 25  1  0
 25 26  2  0
 26 27  1  0
 28 29  2  0
 28 27  1  0
 30 29  1  0
 31 30  2  0
 32 31  1  0
 32 33  2  0
 33 25  1  0
 33 28  1  0
 34 36  2  0
 34 35  1  0
M  END
$$$$
