WPW.pdb
     RDKit          3D

 36 40  0  0  1  0  0  0  0  0999 V2000
   27.6381  -19.7980  -10.7056 N   0  0  0  0  0  0  0  0  0  0  0  0
   26.5369  -20.7288  -10.5421 C   0  0  1  0  0  0  0  0  0  0  0  0
   25.9344  -20.5100   -9.1773 C   0  0  0  0  0  0  0  0  0  0  0  0
   26.9785  -19.9399   -8.2913 C   0  0  0  0  0  0  0  0  0  0  0  0
   27.9010  -18.9469   -8.6506 C   0  0  0  0  0  0  0  0  0  0  0  0
   28.6528  -18.6561   -7.5793 N   0  0  0  0  0  0  0  0  0  0  0  0
   28.2942  -19.3937   -6.5179 C   0  0  0  0  0  0  0  0  0  0  0  0
   28.7699  -19.4599   -5.2160 C   0  0  0  0  0  0  0  0  0  0  0  0
   28.1798  -20.3517   -4.3534 C   0  0  0  0  0  0  0  0  0  0  0  0
   27.1421  -21.1629   -4.7646 C   0  0  0  0  0  0  0  0  0  0  0  0
   26.6925  -21.0721   -6.0658 C   0  0  0  0  0  0  0  0  0  0  0  0
   27.2435  -20.1998   -6.9667 C   0  0  0  0  0  0  0  0  0  0  0  0
   25.5794  -20.6438  -11.6531 C   0  0  0  0  0  0  0  0  0  0  0  0
   25.1475  -19.5050  -11.9629 O   0  0  0  0  0  0  0  0  0  0  0  0
   25.1527  -21.7693  -12.3525 N   0  0  0  0  0  0  0  0  0  0  0  0
   25.5981  -23.1341  -12.1796 C   0  0  0  0  0  0  0  0  0  0  0  0
   25.5148  -23.7153  -13.6117 C   0  0  0  0  0  0  0  0  0  0  0  0
   24.1796  -23.1460  -14.0329 C   0  0  0  0  0  0  0  0  0  0  0  0
   24.1686  -21.7646  -13.4167 C   0  0  1  0  0  0  0  0  0  0  0  0
   22.8222  -21.3672  -12.9630 C   0  0  0  0  0  0  0  0  0  0  0  0
   22.3772  -21.8596  -11.8857 O   0  0  0  0  0  0  0  0  0  0  0  0
   21.9609  -20.4648  -13.6364 N   0  0  0  0  0  0  0  0  0  0  0  0
   20.6393  -20.0774  -13.1500 C   0  0  1  0  0  0  0  0  0  0  0  0
   20.4389  -18.6162  -13.1873 C   0  0  0  0  0  0  0  0  0  0  0  0
   20.6951  -18.0538  -14.5246 C   0  0  0  0  0  0  0  0  0  0  0  0
   19.7952  -17.9789  -15.5992 C   0  0  0  0  0  0  0  0  0  0  0  0
   20.3850  -17.4463  -16.6733 N   0  0  0  0  0  0  0  0  0  0  0  0
   21.6723  -17.1589  -16.3397 C   0  0  0  0  0  0  0  0  0  0  0  0
   22.6849  -16.5820  -17.0860 C   0  0  0  0  0  0  0  0  0  0  0  0
   23.9071  -16.3763  -16.4946 C   0  0  0  0  0  0  0  0  0  0  0  0
   24.1369  -16.7350  -15.1735 C   0  0  0  0  0  0  0  0  0  0  0  0
   23.1215  -17.3071  -14.4464 C   0  0  0  0  0  0  0  0  0  0  0  0
   21.8802  -17.5235  -15.0281 C   0  0  0  0  0  0  0  0  0  0  0  0
   19.5741  -20.8458  -13.7481 C   0  0  0  0  0  0  0  0  0  0  0  0
   18.3039  -21.0448  -13.2358 O   0  0  0  0  0  0  0  0  0  0  0  0
   19.8053  -21.4204  -14.8710 O   0  0  0  0  0  0  0  0  0  0  0  0
  2  1  1  6
  2  3  1  0
  3  4  1  0
  4  5  2  0
  5  6  1  0
  7  8  2  0
  7  6  1  0
  9  8  1  0
 10  9  2  0
 11 10  1  0
 11 12  2  0
 12  4  1  0
 12  7  1  0
 13  2  1  0
 13 14  2  0
 15 13  1  0
 16 15  1  0
 17 18  1  0
 17 16  1  0
 18 19  1  0
 19 15  1  0
 19 20  1  1
 20 22  1  0
 21 20  2  0
 22 23  1  0
 23 34  1  0
 23 24  1  6
 24 25  1  0
 25 26  2  0
 26 27  1  0
 28 29  2  0
 28 27  1  0
 30 29  1  0
 31 30  2  0
 32 31  1  0
 32 33  2  0
 33 25  1  0
 33 28  1  0
 34 36  2  0
 34 35  1  0
M  END
$$$$
