WPW.pdb
     RDKit          3D

 36 40  0  0  1  0  0  0  0  0999 V2000
   24.0844  -18.1982  -15.3406 N   0  0  0  0  0  0  0  0  0  0  0  0
   25.4093  -18.3554  -14.7699 C   0  0  1  0  0  0  0  0  0  0  0  0
   25.7957  -17.0550  -14.1117 C   0  0  0  0  0  0  0  0  0  0  0  0
   26.3284  -16.1439  -15.1539 C   0  0  0  0  0  0  0  0  0  0  0  0
   25.7596  -14.9210  -15.5376 C   0  0  0  0  0  0  0  0  0  0  0  0
   26.5425  -14.3611  -16.4709 N   0  0  0  0  0  0  0  0  0  0  0  0
   27.6057  -15.1328  -16.7416 C   0  0  0  0  0  0  0  0  0  0  0  0
   28.6703  -14.9906  -17.6202 C   0  0  0  0  0  0  0  0  0  0  0  0
   29.6112  -15.9907  -17.6679 C   0  0  0  0  0  0  0  0  0  0  0  0
   29.5057  -17.1091  -16.8666 C   0  0  0  0  0  0  0  0  0  0  0  0
   28.4350  -17.2196  -16.0036 C   0  0  0  0  0  0  0  0  0  0  0  0
   27.4695  -16.2521  -15.9146 C   0  0  0  0  0  0  0  0  0  0  0  0
   25.4910  -19.5315  -13.8932 C   0  0  0  0  0  0  0  0  0  0  0  0
   24.4838  -19.8067  -13.1938 O   0  0  0  0  0  0  0  0  0  0  0  0
   26.6311  -20.3275  -13.8240 N   0  0  0  0  0  0  0  0  0  0  0  0
   27.7433  -20.3538  -14.7476 C   0  0  0  0  0  0  0  0  0  0  0  0
   28.1907  -21.8352  -14.7171 C   0  0  0  0  0  0  0  0  0  0  0  0
   28.1228  -22.0840  -13.2278 C   0  0  0  0  0  0  0  0  0  0  0  0
   26.9010  -21.3069  -12.7901 C   0  0  1  0  0  0  0  0  0  0  0  0
   27.0702  -20.7093  -11.4519 C   0  0  0  0  0  0  0  0  0  0  0  0
   28.1243  -20.0519  -11.2119 O   0  0  0  0  0  0  0  0  0  0  0  0
   26.1410  -20.8051  -10.3855 N   0  0  0  0  0  0  0  0  0  0  0  0
   26.4679  -21.3216   -9.0590 C   0  0  1  0  0  0  0  0  0  0  0  0
   27.8132  -20.9076   -8.6166 C   0  0  0  0  0  0  0  0  0  0  0  0
   27.7599  -19.9033   -7.5401 C   0  0  0  0  0  0  0  0  0  0  0  0
   27.1577  -18.6365   -7.5919 C   0  0  0  0  0  0  0  0  0  0  0  0
   27.3427  -17.9781   -6.4441 N   0  0  0  0  0  0  0  0  0  0  0  0
   28.0617  -18.7829   -5.6157 C   0  0  0  0  0  0  0  0  0  0  0  0
   28.4943  -18.5763   -4.3174 C   0  0  0  0  0  0  0  0  0  0  0  0
   29.1940  -19.5756   -3.6869 C   0  0  0  0  0  0  0  0  0  0  0  0
   29.4693  -20.7759   -4.3272 C   0  0  0  0  0  0  0  0  0  0  0  0
   29.0334  -20.9651   -5.6162 C   0  0  0  0  0  0  0  0  0  0  0  0
   28.3258  -19.9658   -6.2694 C   0  0  0  0  0  0  0  0  0  0  0  0
   25.4202  -21.0913   -8.0935 C   0  0  0  0  0  0  0  0  0  0  0  0
   25.3997  -21.5081   -6.7739 O   0  0  0  0  0  0  0  0  0  0  0  0
   24.3844  -20.4387   -8.4754 O   0  0  0  0  0  0  0  0  0  0  0  0
  2  1  1  1
  2  3  1  0
  3  4  1  0
  4  5  2  0
  5  6  1  0
  7  8  2  0
  7  6  1  0
  9  8  1  0
 10  9  2  0
 11 10  1  0
 11 12  2  0
 12  4  1  0
 12  7  1  0
 13  2  1  0
 13 14  2  0
 15 13  1  0
 16 15  1  0
 17 18  1  0
 17 16  1  0
 18 19  1  0
 19 15  1  0
 19 20  1  1
 20 22  1  0
 21 20  2  0
 22 23  1  0
 23 34  1  0
 23 24  1  1
 24 25  1  0
 25 26  2  0
 26 27  1  0
 28 29  2  0
 28 27  1  0
 30 29  1  0
 31 30  2  0
 32 31  1  0
 32 33  2  0
 33 25  1  0
 33 28  1  0
 34 36  2  0
 34 35  1  0
M  END
$$$$
