WPW.pdb
     RDKit          3D

 36 40  0  0  1  0  0  0  0  0999 V2000
   23.2387  -19.3272  -17.2863 N   0  0  0  0  0  0  0  0  0  0  0  0
   24.1255  -18.6271  -16.3758 C   0  0  1  0  0  0  0  0  0  0  0  0
   23.2794  -17.8607  -15.3908 C   0  0  0  0  0  0  0  0  0  0  0  0
   22.8470  -16.5948  -16.0317 C   0  0  0  0  0  0  0  0  0  0  0  0
   21.6982  -16.4290  -16.8185 C   0  0  0  0  0  0  0  0  0  0  0  0
   21.6145  -15.1418  -17.1842 N   0  0  0  0  0  0  0  0  0  0  0  0
   22.6383  -14.4282  -16.6924 C   0  0  0  0  0  0  0  0  0  0  0  0
   22.9877  -13.0896  -16.8001 C   0  0  0  0  0  0  0  0  0  0  0  0
   24.1334  -12.6648  -16.1720 C   0  0  0  0  0  0  0  0  0  0  0  0
   24.9200  -13.5408  -15.4524 C   0  0  0  0  0  0  0  0  0  0  0  0
   24.5442  -14.8654  -15.3646 C   0  0  0  0  0  0  0  0  0  0  0  0
   23.4116  -15.3419  -15.9698 C   0  0  0  0  0  0  0  0  0  0  0  0
   25.1066  -19.5330  -15.7630 C   0  0  0  0  0  0  0  0  0  0  0  0
   24.7344  -20.7056  -15.5064 O   0  0  0  0  0  0  0  0  0  0  0  0
   26.4064  -19.1301  -15.4697 N   0  0  0  0  0  0  0  0  0  0  0  0
   27.1555  -18.0576  -16.0856 C   0  0  0  0  0  0  0  0  0  0  0  0
   28.6115  -18.5816  -16.0527 C   0  0  0  0  0  0  0  0  0  0  0  0
   28.6411  -19.1433  -14.6499 C   0  0  0  0  0  0  0  0  0  0  0  0
   27.2640  -19.7444  -14.4755 C   0  0  1  0  0  0  0  0  0  0  0  0
   26.7595  -19.5923  -13.0975 C   0  0  0  0  0  0  0  0  0  0  0  0
   26.0710  -18.5691  -12.8150 O   0  0  0  0  0  0  0  0  0  0  0  0
   26.9793  -20.5061  -12.0363 N   0  0  0  0  0  0  0  0  0  0  0  0
   26.3534  -20.3988  -10.7209 C   0  0  1  0  0  0  0  0  0  0  0  0
   24.8813  -20.3523  -10.8074 C   0  0  0  0  0  0  0  0  0  0  0  0
   24.3282  -21.5231  -11.5100 C   0  0  0  0  0  0  0  0  0  0  0  0
   24.9358  -22.7776  -11.6747 C   0  0  0  0  0  0  0  0  0  0  0  0
   24.1613  -23.5855  -12.4046 N   0  0  0  0  0  0  0  0  0  0  0  0
   23.0371  -22.8945  -12.7355 C   0  0  0  0  0  0  0  0  0  0  0  0
   21.9246  -23.2855  -13.4600 C   0  0  0  0  0  0  0  0  0  0  0  0
   20.8993  -22.3883  -13.6326 C   0  0  0  0  0  0  0  0  0  0  0  0
   20.9636  -21.1099  -13.0959 C   0  0  0  0  0  0  0  0  0  0  0  0
   22.0751  -20.7371  -12.3798 C   0  0  0  0  0  0  0  0  0  0  0  0
   23.1213  -21.6303  -12.1962 C   0  0  0  0  0  0  0  0  0  0  0  0
   26.8700  -21.3576   -9.7740 C   0  0  0  0  0  0  0  0  0  0  0  0
   27.7372  -22.4031  -10.0391 O   0  0  0  0  0  0  0  0  0  0  0  0
   26.4964  -21.2556   -8.5515 O   0  0  0  0  0  0  0  0  0  0  0  0
  2  1  1  6
  2  3  1  0
  3  4  1  0
  4  5  2  0
  5  6  1  0
  7  8  2  0
  7  6  1  0
  9  8  1  0
 10  9  2  0
 11 10  1  0
 11 12  2  0
 12  4  1  0
 12  7  1  0
 13  2  1  0
 13 14  2  0
 15 13  1  0
 16 15  1  0
 17 18  1  0
 17 16  1  0
 18 19  1  0
 19 15  1  0
 19 20  1  1
 20 22  1  0
 21 20  2  0
 22 23  1  0
 23 34  1  0
 23 24  1  6
 24 25  1  0
 25 26  2  0
 26 27  1  0
 28 29  2  0
 28 27  1  0
 30 29  1  0
 31 30  2  0
 32 31  1  0
 32 33  2  0
 33 25  1  0
 33 28  1  0
 34 36  2  0
 34 35  1  0
M  END
$$$$
