WPW.pdb
     RDKit          3D

 36 40  0  0  1  0  0  0  0  0999 V2000
   23.4214  -21.1609  -16.4349 N   0  0  0  0  0  0  0  0  0  0  0  0
   23.2484  -22.4763  -15.8470 C   0  0  1  0  0  0  0  0  0  0  0  0
   24.2731  -22.6417  -14.7534 C   0  0  0  0  0  0  0  0  0  0  0  0
   25.6132  -22.7466  -15.3805 C   0  0  0  0  0  0  0  0  0  0  0  0
   26.4425  -21.6680  -15.7199 C   0  0  0  0  0  0  0  0  0  0  0  0
   27.5877  -22.1524  -16.2213 N   0  0  0  0  0  0  0  0  0  0  0  0
   27.5816  -23.4936  -16.2420 C   0  0  0  0  0  0  0  0  0  0  0  0
   28.5119  -24.4307  -16.6682 C   0  0  0  0  0  0  0  0  0  0  0  0
   28.1881  -25.7618  -16.5632 C   0  0  0  0  0  0  0  0  0  0  0  0
   26.9719  -26.1623  -16.0490 C   0  0  0  0  0  0  0  0  0  0  0  0
   26.0692  -25.2052  -15.6338 C   0  0  0  0  0  0  0  0  0  0  0  0
   26.3410  -23.8651  -15.7145 C   0  0  0  0  0  0  0  0  0  0  0  0
   21.8607  -22.7079  -15.4237 C   0  0  0  0  0  0  0  0  0  0  0  0
   21.3558  -21.8906  -14.6134 O   0  0  0  0  0  0  0  0  0  0  0  0
   21.1126  -23.7851  -15.8905 N   0  0  0  0  0  0  0  0  0  0  0  0
   21.4274  -24.6617  -16.9966 C   0  0  0  0  0  0  0  0  0  0  0  0
   20.0349  -25.0150  -17.5726 C   0  0  0  0  0  0  0  0  0  0  0  0
   19.2887  -25.2637  -16.2819 C   0  0  0  0  0  0  0  0  0  0  0  0
   19.8434  -24.2180  -15.3401 C   0  0  1  0  0  0  0  0  0  0  0  0
   19.9486  -24.7147  -13.9549 C   0  0  0  0  0  0  0  0  0  0  0  0
   21.0797  -25.0928  -13.5322 O   0  0  0  0  0  0  0  0  0  0  0  0
   18.8765  -24.8103  -13.0324 N   0  0  0  0  0  0  0  0  0  0  0  0
   18.9998  -25.3714  -11.6895 C   0  0  1  0  0  0  0  0  0  0  0  0
   19.8741  -24.5568  -10.8242 C   0  0  0  0  0  0  0  0  0  0  0  0
   19.3954  -23.1692  -10.6988 C   0  0  0  0  0  0  0  0  0  0  0  0
   18.1923  -22.7368  -10.1195 C   0  0  0  0  0  0  0  0  0  0  0  0
   18.0687  -21.4103  -10.2213 N   0  0  0  0  0  0  0  0  0  0  0  0
   19.1729  -20.9389  -10.8611 C   0  0  0  0  0  0  0  0  0  0  0  0
   19.5338  -19.6444  -11.1916 C   0  0  0  0  0  0  0  0  0  0  0  0
   20.7337  -19.4341  -11.8256 C   0  0  0  0  0  0  0  0  0  0  0  0
   21.5791  -20.4906  -12.1350 C   0  0  0  0  0  0  0  0  0  0  0  0
   21.2060  -21.7697  -11.8006 C   0  0  0  0  0  0  0  0  0  0  0  0
   19.9964  -22.0012  -11.1607 C   0  0  0  0  0  0  0  0  0  0  0  0
   17.7252  -25.7129  -11.1051 C   0  0  0  0  0  0  0  0  0  0  0  0
   16.4768  -25.2930  -11.5301 O   0  0  0  0  0  0  0  0  0  0  0  0
   17.7217  -26.4808  -10.0780 O   0  0  0  0  0  0  0  0  0  0  0  0
  2  1  1  1
  2  3  1  0
  3  4  1  0
  4  5  2  0
  5  6  1  0
  7  8  2  0
  7  6  1  0
  9  8  1  0
 10  9  2  0
 11 10  1  0
 11 12  2  0
 12  4  1  0
 12  7  1  0
 13  2  1  0
 13 14  2  0
 15 13  1  0
 16 15  1  0
 17 18  1  0
 17 16  1  0
 18 19  1  0
 19 15  1  0
 19 20  1  1
 20 22  1  0
 21 20  2  0
 22 23  1  0
 23 34  1  0
 23 24  1  1
 24 25  1  0
 25 26  2  0
 26 27  1  0
 28 29  2  0
 28 27  1  0
 30 29  1  0
 31 30  2  0
 32 31  1  0
 32 33  2  0
 33 25  1  0
 33 28  1  0
 34 36  2  0
 34 35  1  0
M  END
$$$$
