WPW.pdb
     RDKit          3D

 36 40  0  0  1  0  0  0  0  0999 V2000
   26.4418  -20.2561  -16.8487 N   0  0  0  0  0  0  0  0  0  0  0  0
   26.4891  -19.7843  -15.4772 C   0  0  1  0  0  0  0  0  0  0  0  0
   25.9782  -18.3660  -15.4494 C   0  0  0  0  0  0  0  0  0  0  0  0
   26.7823  -17.5608  -16.4009 C   0  0  0  0  0  0  0  0  0  0  0  0
   26.2695  -16.6551  -17.3406 C   0  0  0  0  0  0  0  0  0  0  0  0
   27.2964  -16.0851  -17.9873 N   0  0  0  0  0  0  0  0  0  0  0  0
   28.4722  -16.5520  -17.5416 C   0  0  0  0  0  0  0  0  0  0  0  0
   29.7860  -16.2809  -17.8964 C   0  0  0  0  0  0  0  0  0  0  0  0
   30.7882  -16.9538  -17.2403 C   0  0  0  0  0  0  0  0  0  0  0  0
   30.5024  -17.8761  -16.2545 C   0  0  0  0  0  0  0  0  0  0  0  0
   29.1854  -18.1223  -15.9252 C   0  0  0  0  0  0  0  0  0  0  0  0
   28.1478  -17.4790  -16.5462 C   0  0  0  0  0  0  0  0  0  0  0  0
   25.7982  -20.7003  -14.5596 C   0  0  0  0  0  0  0  0  0  0  0  0
   24.8823  -21.4180  -15.0346 O   0  0  0  0  0  0  0  0  0  0  0  0
   26.1293  -20.7884  -13.2103 N   0  0  0  0  0  0  0  0  0  0  0  0
   27.3133  -20.2734  -12.5593 C   0  0  0  0  0  0  0  0  0  0  0  0
   27.5758  -21.3073  -11.4379 C   0  0  0  0  0  0  0  0  0  0  0  0
   26.1620  -21.4944  -10.9373 C   0  0  0  0  0  0  0  0  0  0  0  0
   25.3263  -21.4440  -12.1972 C   0  0  1  0  0  0  0  0  0  0  0  0
   24.0220  -20.7911  -11.9754 C   0  0  0  0  0  0  0  0  0  0  0  0
   24.0067  -19.5864  -11.5888 O   0  0  0  0  0  0  0  0  0  0  0  0
   22.7557  -21.4012  -12.1591 N   0  0  0  0  0  0  0  0  0  0  0  0
   21.4817  -20.7009  -12.0181 C   0  0  1  0  0  0  0  0  0  0  0  0
   21.4492  -19.4440  -12.7901 C   0  0  0  0  0  0  0  0  0  0  0  0
   21.6337  -19.6732  -14.2336 C   0  0  0  0  0  0  0  0  0  0  0  0
   21.4127  -20.8674  -14.9372 C   0  0  0  0  0  0  0  0  0  0  0  0
   21.7259  -20.7205  -16.2278 N   0  0  0  0  0  0  0  0  0  0  0  0
   22.1553  -19.4421  -16.4072 C   0  0  0  0  0  0  0  0  0  0  0  0
   22.5732  -18.7888  -17.5535 C   0  0  0  0  0  0  0  0  0  0  0  0
   22.9381  -17.4678  -17.4657 C   0  0  0  0  0  0  0  0  0  0  0  0
   22.8933  -16.7875  -16.2566 C   0  0  0  0  0  0  0  0  0  0  0  0
   22.4767  -17.4505  -15.1278 C   0  0  0  0  0  0  0  0  0  0  0  0
   22.1053  -18.7859  -15.1976 C   0  0  0  0  0  0  0  0  0  0  0  0
   20.3423  -21.5624  -12.2240 C   0  0  0  0  0  0  0  0  0  0  0  0
   20.3529  -22.8437  -12.7471 O   0  0  0  0  0  0  0  0  0  0  0  0
   19.1846  -21.1147  -11.9016 O   0  0  0  0  0  0  0  0  0  0  0  0
  2  1  1  6
  2  3  1  0
  3  4  1  0
  4  5  2  0
  5  6  1  0
  7  8  2  0
  7  6  1  0
  9  8  1  0
 10  9  2  0
 11 10  1  0
 11 12  2  0
 12  4  1  0
 12  7  1  0
 13  2  1  0
 13 14  2  0
 15 13  1  0
 16 15  1  0
 17 18  1  0
 17 16  1  0
 18 19  1  0
 19 15  1  0
 19 20  1  1
 20 22  1  0
 21 20  2  0
 22 23  1  0
 23 34  1  0
 23 24  1  6
 24 25  1  0
 25 26  2  0
 26 27  1  0
 28 29  2  0
 28 27  1  0
 30 29  1  0
 31 30  2  0
 32 31  1  0
 32 33  2  0
 33 25  1  0
 33 28  1  0
 34 36  2  0
 34 35  1  0
M  END
$$$$
