WPW.pdb
     RDKit          3D

 36 40  0  0  1  0  0  0  0  0999 V2000
   25.1220  -19.3823  -19.9854 N   0  0  0  0  0  0  0  0  0  0  0  0
   24.4635  -18.6253  -18.9371 C   0  0  1  0  0  0  0  0  0  0  0  0
   22.9766  -18.8418  -19.0632 C   0  0  0  0  0  0  0  0  0  0  0  0
   22.3823  -17.6428  -19.7030 C   0  0  0  0  0  0  0  0  0  0  0  0
   22.4706  -17.3150  -21.0635 C   0  0  0  0  0  0  0  0  0  0  0  0
   21.7749  -16.1888  -21.2764 N   0  0  0  0  0  0  0  0  0  0  0  0
   21.2227  -15.7354  -20.1411 C   0  0  0  0  0  0  0  0  0  0  0  0
   20.4383  -14.6271  -19.8554 C   0  0  0  0  0  0  0  0  0  0  0  0
   20.0343  -14.4346  -18.5563 C   0  0  0  0  0  0  0  0  0  0  0  0
   20.3960  -15.3159  -17.5581 C   0  0  0  0  0  0  0  0  0  0  0  0
   21.1764  -16.4084  -17.8757 C   0  0  0  0  0  0  0  0  0  0  0  0
   21.6055  -16.6489  -19.1540 C   0  0  0  0  0  0  0  0  0  0  0  0
   25.0151  -18.9336  -17.6108 C   0  0  0  0  0  0  0  0  0  0  0  0
   25.2673  -20.1371  -17.3512 O   0  0  0  0  0  0  0  0  0  0  0  0
   25.2592  -17.9457  -16.6608 N   0  0  0  0  0  0  0  0  0  0  0  0
   25.3921  -16.5233  -16.8846 C   0  0  0  0  0  0  0  0  0  0  0  0
   26.4265  -16.0944  -15.8161 C   0  0  0  0  0  0  0  0  0  0  0  0
   25.8996  -16.8747  -14.6338 C   0  0  0  0  0  0  0  0  0  0  0  0
   25.4418  -18.1817  -15.2423 C   0  0  1  0  0  0  0  0  0  0  0  0
   24.2349  -18.7125  -14.5804 C   0  0  0  0  0  0  0  0  0  0  0  0
   23.1025  -18.4230  -15.0648 O   0  0  0  0  0  0  0  0  0  0  0  0
   24.2253  -19.5352  -13.4260 N   0  0  0  0  0  0  0  0  0  0  0  0
   23.0165  -20.1080  -12.8392 C   0  0  1  0  0  0  0  0  0  0  0  0
   22.3620  -21.0725  -13.7437 C   0  0  0  0  0  0  0  0  0  0  0  0
   23.1855  -22.2737  -13.9656 C   0  0  0  0  0  0  0  0  0  0  0  0
   23.7747  -23.0899  -12.9874 C   0  0  0  0  0  0  0  0  0  0  0  0
   24.4886  -24.0667  -13.5544 N   0  0  0  0  0  0  0  0  0  0  0  0
   24.3898  -23.9229  -14.9036 C   0  0  0  0  0  0  0  0  0  0  0  0
   24.9246  -24.6840  -15.9283 C   0  0  0  0  0  0  0  0  0  0  0  0
   24.6484  -24.3320  -17.2267 C   0  0  0  0  0  0  0  0  0  0  0  0
   23.8490  -23.2361  -17.5208 C   0  0  0  0  0  0  0  0  0  0  0  0
   23.3262  -22.4906  -16.4922 C   0  0  0  0  0  0  0  0  0  0  0  0
   23.5957  -22.8308  -15.1740 C   0  0  0  0  0  0  0  0  0  0  0  0
   23.2196  -20.5882  -11.4934 C   0  0  0  0  0  0  0  0  0  0  0  0
   24.4298  -20.7436  -10.8402 O   0  0  0  0  0  0  0  0  0  0  0  0
   22.1853  -20.9185  -10.8111 O   0  0  0  0  0  0  0  0  0  0  0  0
  2  1  1  6
  2  3  1  0
  3  4  1  0
  4  5  2  0
  5  6  1  0
  7  8  2  0
  7  6  1  0
  9  8  1  0
 10  9  2  0
 11 10  1  0
 11 12  2  0
 12  4  1  0
 12  7  1  0
 13  2  1  0
 13 14  2  0
 15 13  1  0
 16 15  1  0
 17 18  1  0
 17 16  1  0
 18 19  1  0
 19 15  1  0
 19 20  1  1
 20 22  1  0
 21 20  2  0
 22 23  1  0
 23 34  1  0
 23 24  1  6
 24 25  1  0
 25 26  2  0
 26 27  1  0
 28 29  2  0
 28 27  1  0
 30 29  1  0
 31 30  2  0
 32 31  1  0
 32 33  2  0
 33 25  1  0
 33 28  1  0
 34 36  2  0
 34 35  1  0
M  END
$$$$
