WPW.pdb
     RDKit          3D

 36 40  0  0  1  0  0  0  0  0999 V2000
   23.3966  -17.2784  -15.8721 N   0  0  0  0  0  0  0  0  0  0  0  0
   23.8530  -18.5972  -15.4746 C   0  0  1  0  0  0  0  0  0  0  0  0
   25.1943  -18.8448  -16.1174 C   0  0  0  0  0  0  0  0  0  0  0  0
   25.0223  -18.7992  -17.5901 C   0  0  0  0  0  0  0  0  0  0  0  0
   25.3889  -17.7317  -18.4222 C   0  0  0  0  0  0  0  0  0  0  0  0
   25.1234  -18.0708  -19.6919 N   0  0  0  0  0  0  0  0  0  0  0  0
   24.5987  -19.3029  -19.7675 C   0  0  0  0  0  0  0  0  0  0  0  0
   24.1619  -20.0739  -20.8353 C   0  0  0  0  0  0  0  0  0  0  0  0
   23.6522  -21.3219  -20.5697 C   0  0  0  0  0  0  0  0  0  0  0  0
   23.5737  -21.8012  -19.2782 C   0  0  0  0  0  0  0  0  0  0  0  0
   24.0170  -21.0093  -18.2389 C   0  0  0  0  0  0  0  0  0  0  0  0
   24.5351  -19.7586  -18.4471 C   0  0  0  0  0  0  0  0  0  0  0  0
   23.8350  -18.7653  -14.0152 C   0  0  0  0  0  0  0  0  0  0  0  0
   24.2614  -17.8129  -13.3148 O   0  0  0  0  0  0  0  0  0  0  0  0
   23.3664  -19.9271  -13.4079 N   0  0  0  0  0  0  0  0  0  0  0  0
   22.7875  -21.0849  -14.0522 C   0  0  0  0  0  0  0  0  0  0  0  0
   21.7489  -21.5807  -13.0173 C   0  0  0  0  0  0  0  0  0  0  0  0
   22.5717  -21.4461  -11.7566 C   0  0  0  0  0  0  0  0  0  0  0  0
   23.3651  -20.1778  -11.9802 C   0  0  1  0  0  0  0  0  0  0  0  0
   24.7200  -20.2584  -11.4020 C   0  0  0  0  0  0  0  0  0  0  0  0
   25.7085  -20.3450  -12.1871 O   0  0  0  0  0  0  0  0  0  0  0  0
   25.0248  -20.2477  -10.0176 N   0  0  0  0  0  0  0  0  0  0  0  0
   26.0390  -21.0954   -9.3962 C   0  0  1  0  0  0  0  0  0  0  0  0
   27.3686  -20.4560   -9.3863 C   0  0  0  0  0  0  0  0  0  0  0  0
   27.5481  -19.5641   -8.2277 C   0  0  0  0  0  0  0  0  0  0  0  0
   27.0644  -18.2545   -8.0833 C   0  0  0  0  0  0  0  0  0  0  0  0
   27.4562  -17.7318   -6.9177 N   0  0  0  0  0  0  0  0  0  0  0  0
   28.1982  -18.6708   -6.2708 C   0  0  0  0  0  0  0  0  0  0  0  0
   28.8120  -18.6312   -5.0310 C   0  0  0  0  0  0  0  0  0  0  0  0
   29.4915  -19.7417   -4.5940 C   0  0  0  0  0  0  0  0  0  0  0  0
   29.5693  -20.8896   -5.3704 C   0  0  0  0  0  0  0  0  0  0  0  0
   28.9551  -20.9127   -6.5990 C   0  0  0  0  0  0  0  0  0  0  0  0
   28.2649  -19.7992   -7.0572 C   0  0  0  0  0  0  0  0  0  0  0  0
   25.6197  -21.6304   -8.1232 C   0  0  0  0  0  0  0  0  0  0  0  0
   24.4702  -21.3067   -7.4236 O   0  0  0  0  0  0  0  0  0  0  0  0
   26.3782  -22.4948   -7.5557 O   0  0  0  0  0  0  0  0  0  0  0  0
  2  1  1  1
  2  3  1  0
  3  4  1  0
  4  5  2  0
  5  6  1  0
  7  8  2  0
  7  6  1  0
  9  8  1  0
 10  9  2  0
 11 10  1  0
 11 12  2  0
 12  4  1  0
 12  7  1  0
 13  2  1  0
 13 14  2  0
 15 13  1  0
 16 15  1  0
 17 18  1  0
 17 16  1  0
 18 19  1  0
 19 15  1  0
 19 20  1  6
 20 22  1  0
 21 20  2  0
 22 23  1  0
 23 34  1  0
 23 24  1  1
 24 25  1  0
 25 26  2  0
 26 27  1  0
 28 29  2  0
 28 27  1  0
 30 29  1  0
 31 30  2  0
 32 31  1  0
 32 33  2  0
 33 25  1  0
 33 28  1  0
 34 36  2  0
 34 35  1  0
M  END
$$$$
