WPW.pdb
     RDKit          3D

 36 40  0  0  1  0  0  0  0  0999 V2000
   25.1597  -19.7823  -16.1817 N   0  0  0  0  0  0  0  0  0  0  0  0
   26.1016  -19.4398  -15.1323 C   0  0  1  0  0  0  0  0  0  0  0  0
   25.8480  -18.0118  -14.7200 C   0  0  0  0  0  0  0  0  0  0  0  0
   26.1356  -17.1324  -15.8794 C   0  0  0  0  0  0  0  0  0  0  0  0
   25.1977  -16.3371  -16.5534 C   0  0  0  0  0  0  0  0  0  0  0  0
   25.8333  -15.6500  -17.5133 N   0  0  0  0  0  0  0  0  0  0  0  0
   27.1441  -15.9339  -17.5290 C   0  0  0  0  0  0  0  0  0  0  0  0
   28.1913  -15.4933  -18.3257 C   0  0  0  0  0  0  0  0  0  0  0  0
   29.4463  -15.9988  -18.0871 C   0  0  0  0  0  0  0  0  0  0  0  0
   29.6661  -16.9206  -17.0841 C   0  0  0  0  0  0  0  0  0  0  0  0
   28.6033  -17.3378  -16.3095 C   0  0  0  0  0  0  0  0  0  0  0  0
   27.3323  -16.8654  -16.5032 C   0  0  0  0  0  0  0  0  0  0  0  0
   26.0673  -20.4092  -14.0289 C   0  0  0  0  0  0  0  0  0  0  0  0
   25.0100  -21.0690  -13.8670 O   0  0  0  0  0  0  0  0  0  0  0  0
   27.1541  -20.6078  -13.1817 N   0  0  0  0  0  0  0  0  0  0  0  0
   28.5318  -20.2366  -13.4160 C   0  0  0  0  0  0  0  0  0  0  0  0
   29.3244  -21.3560  -12.6987 C   0  0  0  0  0  0  0  0  0  0  0  0
   28.5186  -21.4519  -11.4236 C   0  0  0  0  0  0  0  0  0  0  0  0
   27.0920  -21.2533  -11.8854 C   0  0  1  0  0  0  0  0  0  0  0  0
   26.2861  -20.5062  -10.9010 C   0  0  0  0  0  0  0  0  0  0  0  0
   26.1934  -19.2503  -11.0236 O   0  0  0  0  0  0  0  0  0  0  0  0
   25.5904  -21.0769   -9.8056 N   0  0  0  0  0  0  0  0  0  0  0  0
   24.7624  -20.3142   -8.8749 C   0  0  1  0  0  0  0  0  0  0  0  0
   23.7338  -19.5170   -9.5701 C   0  0  0  0  0  0  0  0  0  0  0  0
   22.6756  -20.3606  -10.1521 C   0  0  0  0  0  0  0  0  0  0  0  0
   21.8609  -21.2837   -9.4780 C   0  0  0  0  0  0  0  0  0  0  0  0
   21.0403  -21.9019  -10.3322 N   0  0  0  0  0  0  0  0  0  0  0  0
   21.2883  -21.4088  -11.5757 C   0  0  0  0  0  0  0  0  0  0  0  0
   20.6975  -21.7041  -12.7919 C   0  0  0  0  0  0  0  0  0  0  0  0
   21.1232  -21.0353  -13.9133 C   0  0  0  0  0  0  0  0  0  0  0  0
   22.1261  -20.0783  -13.8432 C   0  0  0  0  0  0  0  0  0  0  0  0
   22.7028  -19.7972  -12.6285 C   0  0  0  0  0  0  0  0  0  0  0  0
   22.2860  -20.4640  -11.4849 C   0  0  0  0  0  0  0  0  0  0  0  0
   24.2655  -21.1140   -7.7812 C   0  0  0  0  0  0  0  0  0  0  0  0
   24.4376  -22.4756   -7.6021 O   0  0  0  0  0  0  0  0  0  0  0  0
   23.5840  -20.5258   -6.8680 O   0  0  0  0  0  0  0  0  0  0  0  0
  2  1  1  6
  2  3  1  0
  3  4  1  0
  4  5  2  0
  5  6  1  0
  7  8  2  0
  7  6  1  0
  9  8  1  0
 10  9  2  0
 11 10  1  0
 11 12  2  0
 12  4  1  0
 12  7  1  0
 13  2  1  0
 13 14  2  0
 15 13  1  0
 16 15  1  0
 17 18  1  0
 17 16  1  0
 18 19  1  0
 19 15  1  0
 19 20  1  1
 20 22  1  0
 21 20  2  0
 22 23  1  0
 23 34  1  0
 23 24  1  6
 24 25  1  0
 25 26  2  0
 26 27  1  0
 28 29  2  0
 28 27  1  0
 30 29  1  0
 31 30  2  0
 32 31  1  0
 32 33  2  0
 33 25  1  0
 33 28  1  0
 34 36  2  0
 34 35  1  0
M  END
$$$$
