WPW.pdb
     RDKit          3D

 36 40  0  0  1  0  0  0  0  0999 V2000
   28.3562  -22.7242  -18.0560 N   0  0  0  0  0  0  0  0  0  0  0  0
   27.4433  -21.7445  -17.4971 C   0  0  1  0  0  0  0  0  0  0  0  0
   26.0339  -22.1946  -17.7880 C   0  0  0  0  0  0  0  0  0  0  0  0
   25.4346  -21.2525  -18.7644 C   0  0  0  0  0  0  0  0  0  0  0  0
   25.3695  -21.4462  -20.1517 C   0  0  0  0  0  0  0  0  0  0  0  0
   24.7194  -20.4081  -20.6968 N   0  0  0  0  0  0  0  0  0  0  0  0
   24.3422  -19.5240  -19.7612 C   0  0  0  0  0  0  0  0  0  0  0  0
   23.6661  -18.3143  -19.8302 C   0  0  0  0  0  0  0  0  0  0  0  0
   23.4411  -17.6282  -18.6612 C   0  0  0  0  0  0  0  0  0  0  0  0
   23.8738  -18.1234  -17.4481 C   0  0  0  0  0  0  0  0  0  0  0  0
   24.5429  -19.3295  -17.4141 C   0  0  0  0  0  0  0  0  0  0  0  0
   24.7926  -20.0551  -18.5486 C   0  0  0  0  0  0  0  0  0  0  0  0
   27.7209  -21.4855  -16.0778 C   0  0  0  0  0  0  0  0  0  0  0  0
   28.0840  -22.4580  -15.3693 O   0  0  0  0  0  0  0  0  0  0  0  0
   27.5946  -20.2179  -15.5164 N   0  0  0  0  0  0  0  0  0  0  0  0
   27.2851  -18.9806  -16.1977 C   0  0  0  0  0  0  0  0  0  0  0  0
   28.0777  -17.9258  -15.3885 C   0  0  0  0  0  0  0  0  0  0  0  0
   27.7640  -18.4007  -13.9883 C   0  0  0  0  0  0  0  0  0  0  0  0
   27.7708  -19.9083  -14.1114 C   0  0  1  0  0  0  0  0  0  0  0  0
   26.7601  -20.5431  -13.2441 C   0  0  0  0  0  0  0  0  0  0  0  0
   25.6715  -20.9254  -13.7636 O   0  0  0  0  0  0  0  0  0  0  0  0
   26.8977  -20.7699  -11.8516 N   0  0  0  0  0  0  0  0  0  0  0  0
   25.9205  -21.4897  -11.0390 C   0  0  1  0  0  0  0  0  0  0  0  0
   26.4738  -21.8954   -9.7328 C   0  0  0  0  0  0  0  0  0  0  0  0
   26.5064  -20.7791   -8.7719 C   0  0  0  0  0  0  0  0  0  0  0  0
   25.6554  -19.6634   -8.7397 C   0  0  0  0  0  0  0  0  0  0  0  0
   26.0054  -18.8304   -7.7555 N   0  0  0  0  0  0  0  0  0  0  0  0
   27.0817  -19.3680   -7.1204 C   0  0  0  0  0  0  0  0  0  0  0  0
   27.8026  -18.9088   -6.0319 C   0  0  0  0  0  0  0  0  0  0  0  0
   28.8479  -19.6665   -5.5640 C   0  0  0  0  0  0  0  0  0  0  0  0
   29.1865  -20.8728   -6.1614 C   0  0  0  0  0  0  0  0  0  0  0  0
   28.4614  -21.3144   -7.2414 C   0  0  0  0  0  0  0  0  0  0  0  0
   27.4024  -20.5612   -7.7285 C   0  0  0  0  0  0  0  0  0  0  0  0
   24.6452  -20.8178  -10.9692 C   0  0  0  0  0  0  0  0  0  0  0  0
   24.3824  -19.4980  -11.2923 O   0  0  0  0  0  0  0  0  0  0  0  0
   23.6329  -21.4914  -10.5617 O   0  0  0  0  0  0  0  0  0  0  0  0
  2  1  1  1
  2  3  1  0
  3  4  1  0
  4  5  2  0
  5  6  1  0
  7  8  2  0
  7  6  1  0
  9  8  1  0
 10  9  2  0
 11 10  1  0
 11 12  2  0
 12  4  1  0
 12  7  1  0
 13  2  1  0
 13 14  2  0
 15 13  1  0
 16 15  1  0
 17 18  1  0
 17 16  1  0
 18 19  1  0
 19 15  1  0
 19 20  1  1
 20 22  1  0
 21 20  2  0
 22 23  1  0
 23 34  1  0
 23 24  1  1
 24 25  1  0
 25 26  2  0
 26 27  1  0
 28 29  2  0
 28 27  1  0
 30 29  1  0
 31 30  2  0
 32 31  1  0
 32 33  2  0
 33 25  1  0
 33 28  1  0
 34 36  2  0
 34 35  1  0
M  END
$$$$
