ESG.pdb
     RDKit          3D

 20 19  0  0  1  0  0  0  0  0999 V2000
    8.0520  -17.4741   15.7517 N   0  0  0  0  0  0  0  0  0  0  0  0
    7.2304  -17.2922   16.9723 C   0  0  1  0  0  0  0  0  0  0  0  0
    6.8677  -18.6401   17.5277 C   0  0  0  0  0  0  0  0  0  0  0  0
    8.0887  -19.4805   17.7248 C   0  0  0  0  0  0  0  0  0  0  0  0
    7.6850  -20.8312   18.1843 C   0  0  0  0  0  0  0  0  0  0  0  0
    7.7699  -21.1465   19.3795 O   0  0  0  0  0  0  0  0  0  0  0  0
    8.0506  -16.5349   17.9617 C   0  0  0  0  0  0  0  0  0  0  0  0
    9.2869  -16.6133   18.0403 O   0  0  0  0  0  0  0  0  0  0  0  0
    7.2079  -21.7244   17.2068 O   0  0  0  0  0  0  0  0  0  0  0  0
    8.0807  -12.8642   21.1752 O   0  0  0  0  0  0  0  0  0  0  0  0
    7.3529  -13.7454   20.3879 C   0  0  0  0  0  0  0  0  0  0  0  0
    8.2112  -14.8434   19.7912 C   0  0  2  0  0  0  0  0  0  0  0  0
    7.4171  -15.6454   18.9052 N   0  0  0  0  0  0  0  0  0  0  0  0
    8.8420  -15.6016   20.8821 C   0  0  0  0  0  0  0  0  0  0  0  0
    8.1784  -16.5355   21.3989 O   0  0  0  0  0  0  0  0  0  0  0  0
   10.1541  -15.3408   21.3855 N   0  0  0  0  0  0  0  0  0  0  0  0
   10.7152  -16.1739   22.4434 C   0  0  0  0  0  0  0  0  0  0  0  0
   12.0128  -15.6225   22.8665 C   0  0  0  0  0  0  0  0  0  0  0  0
   12.8864  -15.0498   21.9492 O   0  0  0  0  0  0  0  0  0  0  0  0
   12.3833  -15.6491   24.0852 O   0  0  0  0  0  0  0  0  0  0  0  0
  2  3  1  0
  2  1  1  6
  4  3  1  0
  5  6  2  0
  5  4  1  0
  7  2  1  0
  7  8  2  0
  9  5  1  0
 10 11  1  0
 12 11  1  1
 12 13  1  0
 13  7  1  0
 14 12  1  0
 14 16  1  0
 15 14  2  0
 17 16  1  0
 18 17  1  0
 19 18  1  0
 20 18  2  0
M  END
$$$$
