ESG.pdb
     RDKit          3D

 20 19  0  0  1  0  0  0  0  0999 V2000
    7.5659  -18.0391   17.7922 N   0  0  0  0  0  0  0  0  0  0  0  0
    9.0368  -17.8562   17.8197 C   0  0  1  0  0  0  0  0  0  0  0  0
    9.5018  -17.3970   16.4670 C   0  0  0  0  0  0  0  0  0  0  0  0
    8.3503  -17.2786   15.5205 C   0  0  0  0  0  0  0  0  0  0  0  0
    8.8568  -16.9117   14.1761 C   0  0  0  0  0  0  0  0  0  0  0  0
    8.3277  -15.9993   13.5260 O   0  0  0  0  0  0  0  0  0  0  0  0
    9.3452  -16.8187   18.8462 C   0  0  0  0  0  0  0  0  0  0  0  0
   10.4913  -16.4150   19.0997 O   0  0  0  0  0  0  0  0  0  0  0  0
    9.9535  -17.6432   13.6830 O   0  0  0  0  0  0  0  0  0  0  0  0
    6.4012  -15.4905   21.6972 O   0  0  0  0  0  0  0  0  0  0  0  0
    7.3167  -14.6125   21.1341 C   0  0  0  0  0  0  0  0  0  0  0  0
    8.5876  -15.3032   20.6801 C   0  0  2  0  0  0  0  0  0  0  0  0
    8.2835  -16.2176   19.6171 N   0  0  0  0  0  0  0  0  0  0  0  0
    9.2312  -15.9306   21.8441 C   0  0  0  0  0  0  0  0  0  0  0  0
    9.0846  -17.1703   21.9900 O   0  0  0  0  0  0  0  0  0  0  0  0
   10.0066  -15.2195   22.8116 N   0  0  0  0  0  0  0  0  0  0  0  0
   10.5495  -15.9142   23.9739 C   0  0  0  0  0  0  0  0  0  0  0  0
   11.8810  -16.4504   23.6477 C   0  0  0  0  0  0  0  0  0  0  0  0
   13.0322  -15.9154   24.2142 O   0  0  0  0  0  0  0  0  0  0  0  0
   12.0285  -17.4218   22.8366 O   0  0  0  0  0  0  0  0  0  0  0  0
  2  3  1  0
  2  1  1  6
  4  3  1  0
  5  6  2  0
  5  4  1  0
  7  2  1  0
  7  8  2  0
  9  5  1  0
 10 11  1  0
 12 11  1  1
 12 13  1  0
 13  7  1  0
 14 12  1  0
 14 16  1  0
 15 14  2  0
 17 16  1  0
 18 17  1  0
 19 18  1  0
 20 18  2  0
M  END
$$$$
