ESG.pdb
     RDKit          3D

 20 19  0  0  1  0  0  0  0  0999 V2000
    8.3537  -14.0211   20.7074 N   0  0  0  0  0  0  0  0  0  0  0  0
    7.3675  -14.3791   21.7548 C   0  0  1  0  0  0  0  0  0  0  0  0
    7.0819  -15.8521   21.6801 C   0  0  0  0  0  0  0  0  0  0  0  0
    8.2138  -16.5812   21.0295 C   0  0  0  0  0  0  0  0  0  0  0  0
    7.9113  -18.0325   21.0031 C   0  0  0  0  0  0  0  0  0  0  0  0
    6.8232  -18.4613   21.4120 O   0  0  0  0  0  0  0  0  0  0  0  0
    7.9685  -14.0409   23.0776 C   0  0  0  0  0  0  0  0  0  0  0  0
    9.1818  -14.1200   23.3270 O   0  0  0  0  0  0  0  0  0  0  0  0
    8.9098  -18.8860   20.4975 O   0  0  0  0  0  0  0  0  0  0  0  0
    5.5178  -13.2641   26.5034 O   0  0  0  0  0  0  0  0  0  0  0  0
    6.7054  -12.5730   26.3080 C   0  0  0  0  0  0  0  0  0  0  0  0
    7.6982  -13.3432   25.4596 C   0  0  2  0  0  0  0  0  0  0  0  0
    7.1326  -13.5902   24.1643 N   0  0  0  0  0  0  0  0  0  0  0  0
    8.0981  -14.5608   26.1807 C   0  0  0  0  0  0  0  0  0  0  0  0
    7.5579  -15.6424   25.8371 O   0  0  0  0  0  0  0  0  0  0  0  0
    9.0564  -14.5866   27.2409 N   0  0  0  0  0  0  0  0  0  0  0  0
    9.4162  -15.8492   27.8767 C   0  0  0  0  0  0  0  0  0  0  0  0
   10.3728  -15.5951   28.9664 C   0  0  0  0  0  0  0  0  0  0  0  0
   10.9067  -16.6377   29.7149 O   0  0  0  0  0  0  0  0  0  0  0  0
   10.7463  -14.4139   29.2640 O   0  0  0  0  0  0  0  0  0  0  0  0
  2  3  1  0
  2  1  1  6
  4  3  1  0
  5  6  2  0
  5  4  1  0
  7  2  1  0
  7  8  2  0
  9  5  1  0
 10 11  1  0
 12 11  1  1
 12 13  1  0
 13  7  1  0
 14 12  1  0
 14 16  1  0
 15 14  2  0
 17 16  1  0
 18 17  1  0
 19 18  1  0
 20 18  2  0
M  END
$$$$
