ESG.pdb
     RDKit          3D

 20 19  0  0  1  0  0  0  0  0999 V2000
    6.6097  -20.0423   24.2836 N   0  0  0  0  0  0  0  0  0  0  0  0
    6.4817  -18.5695   24.3954 C   0  0  1  0  0  0  0  0  0  0  0  0
    6.9548  -18.1353   25.7534 C   0  0  0  0  0  0  0  0  0  0  0  0
    8.0948  -18.9850   26.2165 C   0  0  0  0  0  0  0  0  0  0  0  0
    8.4949  -18.5667   27.5816 C   0  0  0  0  0  0  0  0  0  0  0  0
    7.9055  -17.6434   28.1606 O   0  0  0  0  0  0  0  0  0  0  0  0
    7.3364  -17.9588   23.3363 C   0  0  0  0  0  0  0  0  0  0  0  0
    8.3020  -18.5338   22.8092 O   0  0  0  0  0  0  0  0  0  0  0  0
    9.5640  -19.2620   28.1772 O   0  0  0  0  0  0  0  0  0  0  0  0
    5.9929  -14.7847   21.2903 O   0  0  0  0  0  0  0  0  0  0  0  0
    7.3668  -14.6854   21.4589 C   0  0  0  0  0  0  0  0  0  0  0  0
    7.9873  -15.9676   21.9780 C   0  0  2  0  0  0  0  0  0  0  0  0
    7.0665  -16.6229   22.8619 N   0  0  0  0  0  0  0  0  0  0  0  0
    9.2866  -15.6542   22.5917 C   0  0  0  0  0  0  0  0  0  0  0  0
    9.2785  -15.1644   23.7491 O   0  0  0  0  0  0  0  0  0  0  0  0
   10.5474  -15.8714   21.9545 N   0  0  0  0  0  0  0  0  0  0  0  0
   11.7897  -15.6362   22.6823 C   0  0  0  0  0  0  0  0  0  0  0  0
   12.9345  -15.8551   21.7832 C   0  0  0  0  0  0  0  0  0  0  0  0
   14.1893  -15.3319   22.0732 O   0  0  0  0  0  0  0  0  0  0  0  0
   12.8191  -16.5299   20.7087 O   0  0  0  0  0  0  0  0  0  0  0  0
  2  3  1  0
  2  1  1  1
  4  3  1  0
  5  6  2  0
  5  4  1  0
  7  2  1  0
  7  8  2  0
  9  5  1  0
 10 11  1  0
 12 11  1  1
 12 13  1  0
 13  7  1  0
 14 12  1  0
 14 16  1  0
 15 14  2  0
 17 16  1  0
 18 17  1  0
 19 18  1  0
 20 18  2  0
M  END
$$$$
