ESG.pdb
     RDKit          3D

 20 19  0  0  1  0  0  0  0  0999 V2000
    9.9934  -16.2136   19.2316 N   0  0  0  0  0  0  0  0  0  0  0  0
    9.2837  -16.8174   20.3847 C   0  0  1  0  0  0  0  0  0  0  0  0
    9.2822  -18.3121   20.2348 C   0  0  0  0  0  0  0  0  0  0  0  0
   10.6727  -18.8296   20.0487 C   0  0  0  0  0  0  0  0  0  0  0  0
   10.6419  -20.3113   20.0016 C   0  0  0  0  0  0  0  0  0  0  0  0
    9.5693  -20.9265   20.0803 O   0  0  0  0  0  0  0  0  0  0  0  0
   10.0185  -16.4281   21.6232 C   0  0  0  0  0  0  0  0  0  0  0  0
   11.1706  -15.9661   21.6281 O   0  0  0  0  0  0  0  0  0  0  0  0
   11.8763  -20.9738   19.8654 O   0  0  0  0  0  0  0  0  0  0  0  0
    7.9343  -15.6074   25.0926 O   0  0  0  0  0  0  0  0  0  0  0  0
    9.2133  -15.1325   24.8379 C   0  0  0  0  0  0  0  0  0  0  0  0
   10.0760  -16.1392   24.1025 C   0  0  2  0  0  0  0  0  0  0  0  0
    9.3971  -16.5779   22.9171 N   0  0  0  0  0  0  0  0  0  0  0  0
   10.4321  -17.2269   25.0261 C   0  0  0  0  0  0  0  0  0  0  0  0
    9.7803  -18.2981   24.9397 O   0  0  0  0  0  0  0  0  0  0  0  0
   11.4665  -17.1382   26.0084 N   0  0  0  0  0  0  0  0  0  0  0  0
   11.7943  -18.2927   26.8378 C   0  0  0  0  0  0  0  0  0  0  0  0
   11.0781  -18.1951   28.1202 C   0  0  0  0  0  0  0  0  0  0  0  0
   11.3343  -19.0832   29.1584 O   0  0  0  0  0  0  0  0  0  0  0  0
   10.1991  -17.2961   28.3265 O   0  0  0  0  0  0  0  0  0  0  0  0
  2  3  1  0
  2  1  1  6
  4  3  1  0
  5  6  2  0
  5  4  1  0
  7  2  1  0
  7  8  2  0
  9  5  1  0
 10 11  1  0
 12 11  1  1
 12 13  1  0
 13  7  1  0
 14 12  1  0
 14 16  1  0
 15 14  2  0
 17 16  1  0
 18 17  1  0
 19 18  1  0
 20 18  2  0
M  END
$$$$
