ESG.pdb
     RDKit          3D

 20 19  0  0  1  0  0  0  0  0999 V2000
    9.9534  -17.9308   17.7047 N   0  0  0  0  0  0  0  0  0  0  0  0
    9.4942  -18.0408   19.1100 C   0  0  1  0  0  0  0  0  0  0  0  0
    9.5626  -19.4787   19.5397 C   0  0  0  0  0  0  0  0  0  0  0  0
    9.3262  -20.3924   18.3799 C   0  0  0  0  0  0  0  0  0  0  0  0
    9.4036  -21.7996   18.8409 C   0  0  0  0  0  0  0  0  0  0  0  0
    9.6414  -22.0664   20.0272 O   0  0  0  0  0  0  0  0  0  0  0  0
   10.4058  -17.2117   19.9507 C   0  0  0  0  0  0  0  0  0  0  0  0
   11.5716  -16.9268   19.6336 O   0  0  0  0  0  0  0  0  0  0  0  0
    9.1968  -22.8024   17.8752 O   0  0  0  0  0  0  0  0  0  0  0  0
    9.2489  -15.8300   23.8562 O   0  0  0  0  0  0  0  0  0  0  0  0
   10.0197  -15.0607   22.9958 C   0  0  0  0  0  0  0  0  0  0  0  0
   10.8346  -15.8997   22.0312 C   0  0  2  0  0  0  0  0  0  0  0  0
    9.9535  -16.6859   21.2162 N   0  0  0  0  0  0  0  0  0  0  0  0
   11.8103  -16.6918   22.7949 C   0  0  0  0  0  0  0  0  0  0  0  0
   11.4307  -17.8020   23.2456 O   0  0  0  0  0  0  0  0  0  0  0  0
   13.1535  -16.2769   23.0533 N   0  0  0  0  0  0  0  0  0  0  0  0
   14.0021  -17.0503   23.9532 C   0  0  0  0  0  0  0  0  0  0  0  0
   15.3154  -16.3961   24.0728 C   0  0  0  0  0  0  0  0  0  0  0  0
   16.3039  -16.9102   24.9040 O   0  0  0  0  0  0  0  0  0  0  0  0
   15.5949  -15.3374   23.4214 O   0  0  0  0  0  0  0  0  0  0  0  0
  2  3  1  0
  2  1  1  6
  4  3  1  0
  5  6  2  0
  5  4  1  0
  7  2  1  0
  7  8  2  0
  9  5  1  0
 10 11  1  0
 12 11  1  1
 12 13  1  0
 13  7  1  0
 14 12  1  0
 14 16  1  0
 15 14  2  0
 17 16  1  0
 18 17  1  0
 19 18  1  0
 20 18  2  0
M  END
$$$$
