ESG.pdb
     RDKit          3D

 20 19  0  0  1  0  0  0  0  0999 V2000
   12.3847  -23.5051   27.8745 N   0  0  0  0  0  0  0  0  0  0  0  0
   11.7979  -22.2516   27.3431 C   0  0  1  0  0  0  0  0  0  0  0  0
   11.6115  -21.2776   28.4715 C   0  0  0  0  0  0  0  0  0  0  0  0
   12.6782  -21.4501   29.5051 C   0  0  0  0  0  0  0  0  0  0  0  0
   12.4132  -20.5340   30.6405 C   0  0  0  0  0  0  0  0  0  0  0  0
   13.1355  -20.5458   31.6471 O   0  0  0  0  0  0  0  0  0  0  0  0
   12.7508  -21.6953   26.3392 C   0  0  0  0  0  0  0  0  0  0  0  0
   13.9742  -21.9042   26.3562 O   0  0  0  0  0  0  0  0  0  0  0  0
   11.3143  -19.6632   30.5180 O   0  0  0  0  0  0  0  0  0  0  0  0
   11.3642  -19.1700   23.2068 O   0  0  0  0  0  0  0  0  0  0  0  0
   12.4572  -20.0042   23.0182 C   0  0  0  0  0  0  0  0  0  0  0  0
   13.1906  -20.3093   24.3096 C   0  0  2  0  0  0  0  0  0  0  0  0
   12.2720  -20.8590   25.2649 N   0  0  0  0  0  0  0  0  0  0  0  0
   13.8747  -19.0911   24.7687 C   0  0  0  0  0  0  0  0  0  0  0  0
   13.3908  -18.4936   25.7629 O   0  0  0  0  0  0  0  0  0  0  0  0
   15.0474  -18.5507   24.1557 N   0  0  0  0  0  0  0  0  0  0  0  0
   15.5701  -17.2569   24.5810 C   0  0  0  0  0  0  0  0  0  0  0  0
   16.7119  -16.8847   23.7297 C   0  0  0  0  0  0  0  0  0  0  0  0
   17.3086  -15.6333   23.8304 O   0  0  0  0  0  0  0  0  0  0  0  0
   17.1949  -17.6927   22.8711 O   0  0  0  0  0  0  0  0  0  0  0  0
  2  3  1  0
  2  1  1  1
  4  3  1  0
  5  6  2  0
  5  4  1  0
  7  2  1  0
  7  8  2  0
  9  5  1  0
 10 11  1  0
 12 11  1  6
 12 13  1  0
 13  7  1  0
 14 12  1  0
 14 16  1  0
 15 14  2  0
 17 16  1  0
 18 17  1  0
 19 18  1  0
 20 18  2  0
M  END
$$$$
