ESG.pdb
     RDKit          3D

 20 19  0  0  1  0  0  0  0  0999 V2000
   14.9501  -13.5588   15.9401 N   0  0  0  0  0  0  0  0  0  0  0  0
   14.4055  -14.7926   16.5558 C   0  0  1  0  0  0  0  0  0  0  0  0
   15.4042  -15.9038   16.3994 C   0  0  0  0  0  0  0  0  0  0  0  0
   16.7877  -15.3579   16.2444 C   0  0  0  0  0  0  0  0  0  0  0  0
   17.7355  -16.4781   16.0310 C   0  0  0  0  0  0  0  0  0  0  0  0
   18.5069  -16.8368   16.9318 O   0  0  0  0  0  0  0  0  0  0  0  0
   14.1739  -14.5126   18.0026 C   0  0  0  0  0  0  0  0  0  0  0  0
   14.9989  -13.9490   18.7392 O   0  0  0  0  0  0  0  0  0  0  0  0
   17.7146  -17.1036   14.7703 O   0  0  0  0  0  0  0  0  0  0  0  0
   10.4338  -15.4475   19.9470 O   0  0  0  0  0  0  0  0  0  0  0  0
   11.2276  -14.3480   20.2422 C   0  0  0  0  0  0  0  0  0  0  0  0
   12.7032  -14.6138   20.0177 C   0  0  2  0  0  0  0  0  0  0  0  0
   12.9337  -14.9001   18.6308 N   0  0  0  0  0  0  0  0  0  0  0  0
   13.1396  -15.6813   20.9302 C   0  0  0  0  0  0  0  0  0  0  0  0
   12.8759  -16.8664   20.6050 O   0  0  0  0  0  0  0  0  0  0  0  0
   13.8396  -15.4526   22.1552 N   0  0  0  0  0  0  0  0  0  0  0  0
   14.1299  -16.5635   23.0551 C   0  0  0  0  0  0  0  0  0  0  0  0
   14.9781  -16.0904   24.1613 C   0  0  0  0  0  0  0  0  0  0  0  0
   15.2694  -16.9081   25.2470 O   0  0  0  0  0  0  0  0  0  0  0  0
   15.4758  -14.9176   24.1656 O   0  0  0  0  0  0  0  0  0  0  0  0
  2  3  1  0
  2  1  1  6
  4  3  1  0
  5  6  2  0
  5  4  1  0
  7  2  1  0
  7  8  2  0
  9  5  1  0
 10 11  1  0
 12 11  1  6
 12 13  1  0
 13  7  1  0
 14 12  1  0
 14 16  1  0
 15 14  2  0
 17 16  1  0
 18 17  1  0
 19 18  1  0
 20 18  2  0
M  END
$$$$
