ESG.pdb
     RDKit          3D

 20 19  0  0  1  0  0  0  0  0999 V2000
    8.4578  -16.8290   16.4945 N   0  0  0  0  0  0  0  0  0  0  0  0
    8.5563  -17.4920   17.8169 C   0  0  1  0  0  0  0  0  0  0  0  0
    9.5555  -18.6107   17.7342 C   0  0  0  0  0  0  0  0  0  0  0  0
    9.1149  -19.6460   16.7495 C   0  0  0  0  0  0  0  0  0  0  0  0
   10.1163  -20.7387   16.7060 C   0  0  0  0  0  0  0  0  0  0  0  0
   10.0822  -21.6637   17.5295 O   0  0  0  0  0  0  0  0  0  0  0  0
    9.0126  -16.4701   18.8031 C   0  0  0  0  0  0  0  0  0  0  0  0
    9.9657  -15.6987   18.6097 O   0  0  0  0  0  0  0  0  0  0  0  0
   11.0943  -20.6715   15.6960 O   0  0  0  0  0  0  0  0  0  0  0  0
    6.6756  -15.2759   22.1062 O   0  0  0  0  0  0  0  0  0  0  0  0
    7.7395  -14.5522   21.5860 C   0  0  0  0  0  0  0  0  0  0  0  0
    8.8559  -15.4399   21.0720 C   0  0  2  0  0  0  0  0  0  0  0  0
    8.3396  -16.3299   20.0720 N   0  0  0  0  0  0  0  0  0  0  0  0
    9.4865  -16.1215   22.2125 C   0  0  0  0  0  0  0  0  0  0  0  0
    8.8440  -17.0531   22.7591 O   0  0  0  0  0  0  0  0  0  0  0  0
   10.7760  -15.7894   22.7318 N   0  0  0  0  0  0  0  0  0  0  0  0
   11.2555  -16.4092   23.9623 C   0  0  0  0  0  0  0  0  0  0  0  0
   12.5912  -15.8836   24.2887 C   0  0  0  0  0  0  0  0  0  0  0  0
   13.2416  -16.2462   25.4625 O   0  0  0  0  0  0  0  0  0  0  0  0
   13.1998  -15.0791   23.5105 O   0  0  0  0  0  0  0  0  0  0  0  0
  2  3  1  0
  2  1  1  6
  4  3  1  0
  5  6  2  0
  5  4  1  0
  7  2  1  0
  7  8  2  0
  9  5  1  0
 10 11  1  0
 12 11  1  1
 12 13  1  0
 13  7  1  0
 14 12  1  0
 14 16  1  0
 15 14  2  0
 17 16  1  0
 18 17  1  0
 19 18  1  0
 20 18  2  0
M  END
$$$$
