ESG.pdb
     RDKit          3D

 20 19  0  0  1  0  0  0  0  0999 V2000
    7.7978  -13.0000   17.7259 N   0  0  0  0  0  0  0  0  0  0  0  0
    7.7278  -14.2701   18.4873 C   0  0  1  0  0  0  0  0  0  0  0  0
    8.2226  -15.3926   17.6201 C   0  0  0  0  0  0  0  0  0  0  0  0
    8.1495  -15.0196   16.1739 C   0  0  0  0  0  0  0  0  0  0  0  0
    8.5660  -16.1781   15.3474 C   0  0  0  0  0  0  0  0  0  0  0  0
    7.8026  -16.6587   14.4982 O   0  0  0  0  0  0  0  0  0  0  0  0
    8.6017  -14.1274   19.6878 C   0  0  0  0  0  0  0  0  0  0  0  0
    9.7118  -13.5721   19.6736 O   0  0  0  0  0  0  0  0  0  0  0  0
    9.8546  -16.6968   15.5745 O   0  0  0  0  0  0  0  0  0  0  0  0
    7.3603  -15.5884   23.5086 O   0  0  0  0  0  0  0  0  0  0  0  0
    8.2315  -14.5168   23.3714 C   0  0  0  0  0  0  0  0  0  0  0  0
    9.0533  -14.5895   22.0995 C   0  0  2  0  0  0  0  0  0  0  0  0
    8.1773  -14.6489   20.9647 N   0  0  0  0  0  0  0  0  0  0  0  0
    9.9844  -15.7236   22.1974 C   0  0  0  0  0  0  0  0  0  0  0  0
    9.6115  -16.8235   21.7168 O   0  0  0  0  0  0  0  0  0  0  0  0
   11.2772  -15.6498   22.8024 N   0  0  0  0  0  0  0  0  0  0  0  0
   12.1155  -16.8401   22.8942 C   0  0  0  0  0  0  0  0  0  0  0  0
   13.3848  -16.4968   23.5561 C   0  0  0  0  0  0  0  0  0  0  0  0
   14.3633  -17.4580   23.7817 O   0  0  0  0  0  0  0  0  0  0  0  0
   13.6338  -15.3097   23.9462 O   0  0  0  0  0  0  0  0  0  0  0  0
  2  3  1  0
  2  1  1  6
  4  3  1  0
  5  6  2  0
  5  4  1  0
  7  2  1  0
  7  8  2  0
  9  5  1  0
 10 11  1  0
 12 11  1  1
 12 13  1  0
 13  7  1  0
 14 12  1  0
 14 16  1  0
 15 14  2  0
 17 16  1  0
 18 17  1  0
 19 18  1  0
 20 18  2  0
M  END
$$$$
