ESG.pdb
     RDKit          3D

 20 19  0  0  1  0  0  0  0  0999 V2000
    8.9607  -17.1884   15.9384 N   0  0  0  0  0  0  0  0  0  0  0  0
    8.2030  -17.4385   17.1878 C   0  0  1  0  0  0  0  0  0  0  0  0
    8.2091  -18.9118   17.4815 C   0  0  0  0  0  0  0  0  0  0  0  0
    9.1090  -19.6393   16.5346 C   0  0  0  0  0  0  0  0  0  0  0  0
    9.0903  -21.0869   16.8551 C   0  0  0  0  0  0  0  0  0  0  0  0
   10.1219  -21.6700   17.2170 O   0  0  0  0  0  0  0  0  0  0  0  0
    8.8839  -16.6948   18.2871 C   0  0  0  0  0  0  0  0  0  0  0  0
   10.1058  -16.4793   18.3236 O   0  0  0  0  0  0  0  0  0  0  0  0
    7.8582  -21.7553   16.7283 O   0  0  0  0  0  0  0  0  0  0  0  0
    6.7751  -15.4499   21.8307 O   0  0  0  0  0  0  0  0  0  0  0  0
    7.7807  -14.6827   21.2596 C   0  0  0  0  0  0  0  0  0  0  0  0
    8.7839  -15.5148   20.4852 C   0  0  2  0  0  0  0  0  0  0  0  0
    8.1217  -16.1748   19.3968 N   0  0  0  0  0  0  0  0  0  0  0  0
    9.4642  -16.4288   21.4151 C   0  0  0  0  0  0  0  0  0  0  0  0
    8.9426  -17.5562   21.6061 O   0  0  0  0  0  0  0  0  0  0  0  0
   10.6732  -16.1130   22.1090 N   0  0  0  0  0  0  0  0  0  0  0  0
   11.2295  -17.0483   23.0805 C   0  0  0  0  0  0  0  0  0  0  0  0
   12.5002  -16.5177   23.6009 C   0  0  0  0  0  0  0  0  0  0  0  0
   13.1899  -17.1669   24.6183 O   0  0  0  0  0  0  0  0  0  0  0  0
   13.0144  -15.4469   23.1401 O   0  0  0  0  0  0  0  0  0  0  0  0
  2  3  1  0
  2  1  1  6
  4  3  1  0
  5  6  2  0
  5  4  1  0
  7  2  1  0
  7  8  2  0
  9  5  1  0
 10 11  1  0
 12 11  1  1
 12 13  1  0
 13  7  1  0
 14 12  1  0
 14 16  1  0
 15 14  2  0
 17 16  1  0
 18 17  1  0
 19 18  1  0
 20 18  2  0
M  END
$$$$
