ESG.pdb
     RDKit          3D

 20 19  0  0  1  0  0  0  0  0999 V2000
    6.8499  -20.2168   19.4982 N   0  0  0  0  0  0  0  0  0  0  0  0
    8.2587  -19.7954   19.6866 C   0  0  1  0  0  0  0  0  0  0  0  0
    8.8730  -19.5149   18.3447 C   0  0  0  0  0  0  0  0  0  0  0  0
    7.9463  -18.7067   17.4939 C   0  0  0  0  0  0  0  0  0  0  0  0
    8.5709  -18.4791   16.1685 C   0  0  0  0  0  0  0  0  0  0  0  0
    8.6445  -17.3390   15.6891 O   0  0  0  0  0  0  0  0  0  0  0  0
    8.2537  -18.5558   20.5164 C   0  0  0  0  0  0  0  0  0  0  0  0
    9.2782  -17.9297   20.8314 O   0  0  0  0  0  0  0  0  0  0  0  0
    9.0681  -19.6089   15.4921 O   0  0  0  0  0  0  0  0  0  0  0  0
    4.7475  -16.2764   21.4089 O   0  0  0  0  0  0  0  0  0  0  0  0
    6.0646  -15.8440   21.4753 C   0  0  0  0  0  0  0  0  0  0  0  0
    7.0138  -16.9280   21.9470 C   0  0  2  0  0  0  0  0  0  0  0  0
    7.0102  -18.0116   21.0066 N   0  0  0  0  0  0  0  0  0  0  0  0
    6.6460  -17.3214   23.3155 C   0  0  0  0  0  0  0  0  0  0  0  0
    5.4255  -17.4922   23.5619 O   0  0  0  0  0  0  0  0  0  0  0  0
    7.5869  -17.5187   24.3732 N   0  0  0  0  0  0  0  0  0  0  0  0
    7.1334  -17.9546   25.6894 C   0  0  0  0  0  0  0  0  0  0  0  0
    8.2699  -17.9550   26.6250 C   0  0  0  0  0  0  0  0  0  0  0  0
    8.0896  -18.2173   27.9782 O   0  0  0  0  0  0  0  0  0  0  0  0
    9.4578  -17.7158   26.2315 O   0  0  0  0  0  0  0  0  0  0  0  0
  2  3  1  0
  2  1  1  6
  4  3  1  0
  5  6  2  0
  5  4  1  0
  7  2  1  0
  7  8  2  0
  9  5  1  0
 10 11  1  0
 12 11  1  6
 12 13  1  0
 13  7  1  0
 14 12  1  0
 14 16  1  0
 15 14  2  0
 17 16  1  0
 18 17  1  0
 19 18  1  0
 20 18  2  0
M  END
$$$$
