ESG.pdb
     RDKit          3D

 20 19  0  0  1  0  0  0  0  0999 V2000
    7.6705  -13.0992   16.6940 N   0  0  0  0  0  0  0  0  0  0  0  0
    7.9375  -14.4309   17.2883 C   0  0  1  0  0  0  0  0  0  0  0  0
    8.9162  -15.1704   16.4210 C   0  0  0  0  0  0  0  0  0  0  0  0
    8.3035  -15.5139   15.1009 C   0  0  0  0  0  0  0  0  0  0  0  0
    9.3107  -16.2011   14.2572 C   0  0  0  0  0  0  0  0  0  0  0  0
   10.4326  -16.4761   14.7053 O   0  0  0  0  0  0  0  0  0  0  0  0
    8.5186  -14.2133   18.6448 C   0  0  0  0  0  0  0  0  0  0  0  0
    9.4578  -13.4362   18.8789 O   0  0  0  0  0  0  0  0  0  0  0  0
    8.9326  -16.5197   12.9394 O   0  0  0  0  0  0  0  0  0  0  0  0
    6.8626  -16.0503   22.1574 O   0  0  0  0  0  0  0  0  0  0  0  0
    7.5820  -14.8635   22.1603 C   0  0  0  0  0  0  0  0  0  0  0  0
    8.6303  -14.8115   21.0663 C   0  0  2  0  0  0  0  0  0  0  0  0
    7.9934  -14.9243   19.7855 N   0  0  0  0  0  0  0  0  0  0  0  0
    9.6418  -15.8470   21.3254 C   0  0  0  0  0  0  0  0  0  0  0  0
    9.6451  -16.8555   20.5753 O   0  0  0  0  0  0  0  0  0  0  0  0
   10.6129  -15.7752   22.3717 N   0  0  0  0  0  0  0  0  0  0  0  0
   11.5394  -16.8802   22.5926 C   0  0  0  0  0  0  0  0  0  0  0  0
   12.3639  -16.5998   23.7794 C   0  0  0  0  0  0  0  0  0  0  0  0
   13.2567  -17.5425   24.2761 O   0  0  0  0  0  0  0  0  0  0  0  0
   12.2907  -15.4864   24.3945 O   0  0  0  0  0  0  0  0  0  0  0  0
  2  3  1  0
  2  1  1  6
  4  3  1  0
  5  6  2  0
  5  4  1  0
  7  2  1  0
  7  8  2  0
  9  5  1  0
 10 11  1  0
 12 11  1  1
 12 13  1  0
 13  7  1  0
 14 12  1  0
 14 16  1  0
 15 14  2  0
 17 16  1  0
 18 17  1  0
 19 18  1  0
 20 18  2  0
M  END
$$$$
