WVC.pdb
     RDKit          3D

 28 29  0  0  1  0  0  0  0  0999 V2000
   25.2682  -18.0840  -19.5182 N   0  0  0  0  0  0  0  0  0  0  0  0
   24.6321  -17.9835  -18.2203 C   0  0  1  0  0  0  0  0  0  0  0  0
   23.1349  -18.0464  -18.4001 C   0  0  0  0  0  0  0  0  0  0  0  0
   22.5894  -16.6937  -18.7721 C   0  0  0  0  0  0  0  0  0  0  0  0
   22.5407  -16.1707  -20.0379 C   0  0  0  0  0  0  0  0  0  0  0  0
   21.9850  -14.9510  -19.9431 N   0  0  0  0  0  0  0  0  0  0  0  0
   21.6742  -14.6635  -18.6814 C   0  0  0  0  0  0  0  0  0  0  0  0
   21.0929  -13.5418  -18.1122 C   0  0  0  0  0  0  0  0  0  0  0  0
   20.8857  -13.5176  -16.7610 C   0  0  0  0  0  0  0  0  0  0  0  0
   21.2490  -14.5909  -15.9776 C   0  0  0  0  0  0  0  0  0  0  0  0
   21.8322  -15.7097  -16.5685 C   0  0  0  0  0  0  0  0  0  0  0  0
   22.0487  -15.7510  -17.9323 C   0  0  0  0  0  0  0  0  0  0  0  0
   25.1425  -18.9700  -17.2606 C   0  0  0  0  0  0  0  0  0  0  0  0
   25.1510  -20.1839  -17.6417 O   0  0  0  0  0  0  0  0  0  0  0  0
   27.5335  -20.3739  -13.1841 C   0  0  0  0  0  0  0  0  0  0  0  0
   27.1863  -19.3253  -14.1968 C   0  0  2  0  0  0  0  0  0  0  0  0
   26.9549  -18.0178  -13.4701 C   0  0  0  0  0  0  0  0  0  0  0  0
   25.9286  -19.7094  -14.9817 C   0  0  2  0  0  0  0  0  0  0  0  0
   25.6201  -18.7086  -15.9698 N   0  0  0  0  0  0  0  0  0  0  0  0
   24.8382  -19.9797  -14.0439 C   0  0  0  0  0  0  0  0  0  0  0  0
   24.1227  -19.0531  -13.6287 O   0  0  0  0  0  0  0  0  0  0  0  0
   24.5871  -21.2961  -13.6009 N   0  0  0  0  0  0  0  0  0  0  0  0
   23.5205  -21.6837  -12.7089 C   0  0  1  0  0  0  0  0  0  0  0  0
   23.0850  -23.1012  -12.8500 C   0  0  0  0  0  0  0  0  0  0  0  0
   24.4848  -24.2483  -12.9302 S   0  0  0  0  0  0  0  0  0  0  0  0
   23.8760  -21.3547  -11.2915 C   0  0  0  0  0  0  0  0  0  0  0  0
   25.0791  -21.2120  -10.9973 O   0  0  0  0  0  0  0  0  0  0  0  0
   22.9080  -21.2080  -10.3156 O   0  0  0  0  0  0  0  0  0  0  0  0
  2  1  1  6
  2  3  1  0
  2 13  1  0
  3  4  1  0
  4  5  2  0
  5  6  1  0
  7  6  1  0
  8  7  2  0
  9  8  1  0
 10 11  1  0
 10  9  2  0
 11 12  2  0
 12  4  1  0
 12  7  1  0
 13 19  1  0
 13 14  2  0
 16 15  1  1
 16 17  1  0
 18 16  1  0
 18 19  1  6
 20 18  1  0
 20 21  2  0
 22 20  1  0
 23 22  1  0
 23 24  1  1
 24 25  1  0
 26 23  1  0
 27 26  2  0
 28 26  1  0
M  END
$$$$
