WVC.pdb
     RDKit          3D

 28 29  0  0  1  0  0  0  0  0999 V2000
   27.5337  -21.3695  -17.6001 N   0  0  0  0  0  0  0  0  0  0  0  0
   27.2483  -22.0641  -16.3610 C   0  0  1  0  0  0  0  0  0  0  0  0
   28.5098  -22.7305  -15.8688 C   0  0  0  0  0  0  0  0  0  0  0  0
   28.7104  -24.0555  -16.5543 C   0  0  0  0  0  0  0  0  0  0  0  0
   29.8127  -24.4216  -17.2816 C   0  0  0  0  0  0  0  0  0  0  0  0
   29.6011  -25.6736  -17.7214 N   0  0  0  0  0  0  0  0  0  0  0  0
   28.4195  -26.1305  -17.3139 C   0  0  0  0  0  0  0  0  0  0  0  0
   27.7848  -27.3450  -17.5193 C   0  0  0  0  0  0  0  0  0  0  0  0
   26.5485  -27.5464  -16.9713 C   0  0  0  0  0  0  0  0  0  0  0  0
   25.9431  -26.5580  -16.2269 C   0  0  0  0  0  0  0  0  0  0  0  0
   26.5973  -25.3435  -16.0316 C   0  0  0  0  0  0  0  0  0  0  0  0
   27.8469  -25.1232  -16.5781 C   0  0  0  0  0  0  0  0  0  0  0  0
   26.6208  -21.1972  -15.3564 C   0  0  0  0  0  0  0  0  0  0  0  0
   26.9992  -19.9827  -15.3358 O   0  0  0  0  0  0  0  0  0  0  0  0
   22.7365  -21.3731  -14.0668 C   0  0  0  0  0  0  0  0  0  0  0  0
   23.6799  -20.2208  -13.8995 C   0  0  2  0  0  0  0  0  0  0  0  0
   23.8033  -19.5080  -15.2291 C   0  0  0  0  0  0  0  0  0  0  0  0
   25.0603  -20.6983  -13.4395 C   0  0  2  0  0  0  0  0  0  0  0  0
   25.6489  -21.5731  -14.4199 N   0  0  0  0  0  0  0  0  0  0  0  0
   24.9472  -21.2868  -12.1044 C   0  0  0  0  0  0  0  0  0  0  0  0
   24.4491  -22.4148  -11.9554 O   0  0  0  0  0  0  0  0  0  0  0  0
   25.4031  -20.5795  -10.9713 N   0  0  0  0  0  0  0  0  0  0  0  0
   25.3341  -21.0562   -9.6105 C   0  0  1  0  0  0  0  0  0  0  0  0
   26.2219  -20.3315   -8.6589 C   0  0  0  0  0  0  0  0  0  0  0  0
   25.6756  -18.6293   -8.3657 S   0  0  0  0  0  0  0  0  0  0  0  0
   23.9145  -21.0771   -9.1332 C   0  0  0  0  0  0  0  0  0  0  0  0
   23.0635  -20.4226   -9.7672 O   0  0  0  0  0  0  0  0  0  0  0  0
   23.5344  -21.7991   -8.0173 O   0  0  0  0  0  0  0  0  0  0  0  0
  2  1  1  6
  2  3  1  0
  2 13  1  0
  3  4  1  0
  4  5  2  0
  5  6  1  0
  7  6  1  0
  8  7  2  0
  9  8  1  0
 10 11  1  0
 10  9  2  0
 11 12  2  0
 12  4  1  0
 12  7  1  0
 13 19  1  0
 13 14  2  0
 16 15  1  6
 16 17  1  0
 18 16  1  0
 18 19  1  6
 20 18  1  0
 20 21  2  0
 22 20  1  0
 23 22  1  0
 23 24  1  1
 24 25  1  0
 26 23  1  0
 27 26  2  0
 28 26  1  0
M  END
$$$$
