WVC.pdb
     RDKit          3D

 28 29  0  0  1  0  0  0  0  0999 V2000
   27.2370  -19.5361  -16.6265 N   0  0  0  0  0  0  0  0  0  0  0  0
   26.2866  -18.9965  -15.6751 C   0  0  1  0  0  0  0  0  0  0  0  0
   25.3171  -18.0985  -16.4040 C   0  0  0  0  0  0  0  0  0  0  0  0
   26.0203  -16.8751  -16.9279 C   0  0  0  0  0  0  0  0  0  0  0  0
   26.2077  -16.5639  -18.2493 C   0  0  0  0  0  0  0  0  0  0  0  0
   26.8733  -15.3973  -18.2926 N   0  0  0  0  0  0  0  0  0  0  0  0
   27.1230  -14.9432  -17.0668 C   0  0  0  0  0  0  0  0  0  0  0  0
   27.7710  -13.8005  -16.6259 C   0  0  0  0  0  0  0  0  0  0  0  0
   27.8852  -13.5820  -15.2810 C   0  0  0  0  0  0  0  0  0  0  0  0
   27.3645  -14.4831  -14.3786 C   0  0  0  0  0  0  0  0  0  0  0  0
   26.7165  -15.6262  -14.8415 C   0  0  0  0  0  0  0  0  0  0  0  0
   26.5922  -15.8627  -16.1969 C   0  0  0  0  0  0  0  0  0  0  0  0
   25.6260  -20.0386  -14.8801 C   0  0  0  0  0  0  0  0  0  0  0  0
   25.4434  -21.1608  -15.4511 O   0  0  0  0  0  0  0  0  0  0  0  0
   25.1772  -20.2326  -10.5756 C   0  0  0  0  0  0  0  0  0  0  0  0
   25.1216  -21.3485  -11.5743 C   0  0  2  0  0  0  0  0  0  0  0  0
   26.5388  -21.7672  -11.9018 C   0  0  0  0  0  0  0  0  0  0  0  0
   24.4038  -20.9102  -12.8541 C   0  0  2  0  0  0  0  0  0  0  0  0
   25.1775  -19.9209  -13.5581 N   0  0  0  0  0  0  0  0  0  0  0  0
   23.0446  -20.4811  -12.5223 C   0  0  0  0  0  0  0  0  0  0  0  0
   22.7738  -19.2728  -12.4240 O   0  0  0  0  0  0  0  0  0  0  0  0
   22.0262  -21.4352  -12.3105 N   0  0  0  0  0  0  0  0  0  0  0  0
   20.7223  -21.4103  -12.9292 C   0  0  1  0  0  0  0  0  0  0  0  0
   20.7372  -21.6165  -14.4044 C   0  0  0  0  0  0  0  0  0  0  0  0
   19.4964  -20.6069  -15.2547 S   0  0  0  0  0  0  0  0  0  0  0  0
   19.7994  -22.3731  -12.2473 C   0  0  0  0  0  0  0  0  0  0  0  0
   20.1882  -23.5437  -12.0662 O   0  0  0  0  0  0  0  0  0  0  0  0
   18.5406  -21.9935  -11.8202 O   0  0  0  0  0  0  0  0  0  0  0  0
  2  1  1  6
  2  3  1  0
  2 13  1  0
  3  4  1  0
  4  5  2  0
  5  6  1  0
  7  6  1  0
  8  7  2  0
  9  8  1  0
 10 11  1  0
 10  9  2  0
 11 12  2  0
 12  4  1  0
 12  7  1  0
 13 19  1  0
 13 14  2  0
 16 15  1  1
 16 17  1  0
 18 16  1  0
 18 19  1  1
 20 18  1  0
 20 21  2  0
 22 20  1  0
 23 22  1  0
 23 24  1  6
 24 25  1  0
 26 23  1  0
 27 26  2  0
 28 26  1  0
M  END
$$$$
