WVC.pdb
     RDKit          3D

 28 29  0  0  1  0  0  0  0  0999 V2000
   20.9309  -19.2113  -14.0108 N   0  0  0  0  0  0  0  0  0  0  0  0
   22.3571  -19.3656  -13.8071 C   0  0  1  0  0  0  0  0  0  0  0  0
   22.6527  -20.8069  -13.4706 C   0  0  0  0  0  0  0  0  0  0  0  0
   22.6562  -21.0121  -11.9794 C   0  0  0  0  0  0  0  0  0  0  0  0
   21.5737  -21.3674  -11.2178 C   0  0  0  0  0  0  0  0  0  0  0  0
   21.9931  -21.4482   -9.9438 N   0  0  0  0  0  0  0  0  0  0  0  0
   23.2894  -21.1630   -9.8479 C   0  0  0  0  0  0  0  0  0  0  0  0
   24.1411  -21.1193   -8.7556 C   0  0  0  0  0  0  0  0  0  0  0  0
   25.4534  -20.7901   -8.9527 C   0  0  0  0  0  0  0  0  0  0  0  0
   25.9218  -20.5063  -10.2166 C   0  0  0  0  0  0  0  0  0  0  0  0
   25.0500  -20.5556  -11.3022 C   0  0  0  0  0  0  0  0  0  0  0  0
   23.7210  -20.8864  -11.1211 C   0  0  0  0  0  0  0  0  0  0  0  0
   23.1492  -18.8594  -14.9344 C   0  0  0  0  0  0  0  0  0  0  0  0
   22.5623  -18.7999  -16.0617 O   0  0  0  0  0  0  0  0  0  0  0  0
   26.9384  -16.0366  -16.4444 C   0  0  0  0  0  0  0  0  0  0  0  0
   26.1734  -16.7317  -15.3594 C   0  0  2  0  0  0  0  0  0  0  0  0
   27.1582  -17.4710  -14.4793 C   0  0  0  0  0  0  0  0  0  0  0  0
   25.1597  -17.7200  -15.9433 C   0  0  2  0  0  0  0  0  0  0  0  0
   24.4840  -18.4361  -14.8928 N   0  0  0  0  0  0  0  0  0  0  0  0
   25.8312  -18.5809  -16.9177 C   0  0  0  0  0  0  0  0  0  0  0  0
   26.5058  -19.5522  -16.5377 O   0  0  0  0  0  0  0  0  0  0  0  0
   25.7197  -18.3176  -18.2999 N   0  0  0  0  0  0  0  0  0  0  0  0
   26.2891  -19.1289  -19.3492 C   0  0  1  0  0  0  0  0  0  0  0  0
   25.5817  -19.0293  -20.6564 C   0  0  0  0  0  0  0  0  0  0  0  0
   25.3732  -17.3135  -21.1990 S   0  0  0  0  0  0  0  0  0  0  0  0
   27.7537  -18.8497  -19.4923 C   0  0  0  0  0  0  0  0  0  0  0  0
   28.1727  -17.7096  -19.2109 O   0  0  0  0  0  0  0  0  0  0  0  0
   28.6388  -19.8195  -19.9248 O   0  0  0  0  0  0  0  0  0  0  0  0
  2  1  1  6
  2  3  1  0
  2 13  1  0
  3  4  1  0
  4  5  2  0
  5  6  1  0
  7  6  1  0
  8  7  2  0
  9  8  1  0
 10 11  1  0
 10  9  2  0
 11 12  2  0
 12  4  1  0
 12  7  1  0
 13 19  1  0
 13 14  2  0
 16 15  1  6
 16 17  1  0
 18 16  1  0
 18 19  1  1
 20 18  1  0
 20 21  2  0
 22 20  1  0
 23 22  1  0
 23 24  1  6
 24 25  1  0
 26 23  1  0
 27 26  2  0
 28 26  1  0
M  END
$$$$
