WVC.pdb
     RDKit          3D

 28 29  0  0  1  0  0  0  0  0999 V2000
   22.5926  -19.7704  -13.4221 N   0  0  0  0  0  0  0  0  0  0  0  0
   21.3242  -20.0031  -12.7615 C   0  0  1  0  0  0  0  0  0  0  0  0
   20.2423  -20.1335  -13.8058 C   0  0  0  0  0  0  0  0  0  0  0  0
   20.1887  -18.9016  -14.6689 C   0  0  0  0  0  0  0  0  0  0  0  0
   20.3894  -17.6152  -14.2411 C   0  0  0  0  0  0  0  0  0  0  0  0
   20.2575  -16.8147  -15.3123 N   0  0  0  0  0  0  0  0  0  0  0  0
   19.9824  -17.5209  -16.4063 C   0  0  0  0  0  0  0  0  0  0  0  0
   19.7665  -17.1328  -17.7189 C   0  0  0  0  0  0  0  0  0  0  0  0
   19.4985  -18.0911  -18.6566 C   0  0  0  0  0  0  0  0  0  0  0  0
   19.4439  -19.4212  -18.3025 C   0  0  0  0  0  0  0  0  0  0  0  0
   19.6638  -19.7915  -16.9776 C   0  0  0  0  0  0  0  0  0  0  0  0
   19.9358  -18.8363  -16.0173 C   0  0  0  0  0  0  0  0  0  0  0  0
   21.3696  -21.1360  -11.8293 C   0  0  0  0  0  0  0  0  0  0  0  0
   22.3441  -21.9433  -11.9611 O   0  0  0  0  0  0  0  0  0  0  0  0
   21.5885  -21.9263   -7.3217 C   0  0  0  0  0  0  0  0  0  0  0  0
   21.7727  -21.5490   -8.7603 C   0  0  2  0  0  0  0  0  0  0  0  0
   21.6567  -20.0445   -8.8779 C   0  0  0  0  0  0  0  0  0  0  0  0
   20.7192  -22.2191   -9.6471 C   0  0  2  0  0  0  0  0  0  0  0  0
   20.4489  -21.4162  -10.8112 N   0  0  0  0  0  0  0  0  0  0  0  0
   19.5351  -22.5243   -8.8432 C   0  0  0  0  0  0  0  0  0  0  0  0
   18.6503  -21.6682   -8.6782 O   0  0  0  0  0  0  0  0  0  0  0  0
   19.3849  -23.7946   -8.2466 N   0  0  0  0  0  0  0  0  0  0  0  0
   18.1903  -24.2680   -7.5890 C   0  0  1  0  0  0  0  0  0  0  0  0
   17.5682  -25.4613   -8.2277 C   0  0  0  0  0  0  0  0  0  0  0  0
   16.0854  -26.0196   -7.3494 S   0  0  0  0  0  0  0  0  0  0  0  0
   18.4486  -24.4949   -6.1311 C   0  0  0  0  0  0  0  0  0  0  0  0
   19.5813  -24.8800   -5.7801 O   0  0  0  0  0  0  0  0  0  0  0  0
   17.4677  -24.2881   -5.1792 O   0  0  0  0  0  0  0  0  0  0  0  0
  2  1  1  6
  2  3  1  0
  2 13  1  0
  3  4  1  0
  4  5  2  0
  5  6  1  0
  7  6  1  0
  8  7  2  0
  9  8  1  0
 10 11  1  0
 10  9  2  0
 11 12  2  0
 12  4  1  0
 12  7  1  0
 13 19  1  0
 13 14  2  0
 16 15  1  1
 16 17  1  0
 18 16  1  0
 18 19  1  6
 20 18  1  0
 20 21  2  0
 22 20  1  0
 23 22  1  0
 23 24  1  6
 24 25  1  0
 26 23  1  0
 27 26  2  0
 28 26  1  0
M  END
$$$$
