WVC.pdb
     RDKit          3D

 28 29  0  0  1  0  0  0  0  0999 V2000
   13.7606   -8.1069  -12.0090 N   0  0  0  0  0  0  0  0  0  0  0  0
   14.6016   -7.7274  -10.8918 C   0  0  1  0  0  0  0  0  0  0  0  0
   15.0139   -8.9706  -10.1420 C   0  0  0  0  0  0  0  0  0  0  0  0
   13.8053   -9.6925   -9.6094 C   0  0  0  0  0  0  0  0  0  0  0  0
   13.4456  -10.9804   -9.9094 C   0  0  0  0  0  0  0  0  0  0  0  0
   12.3147  -11.2451   -9.2336 N   0  0  0  0  0  0  0  0  0  0  0  0
   11.9295  -10.1934   -8.5149 C   0  0  0  0  0  0  0  0  0  0  0  0
   10.8434  -10.0036   -7.6755 C   0  0  0  0  0  0  0  0  0  0  0  0
   10.6918   -8.7959   -7.0527 C   0  0  0  0  0  0  0  0  0  0  0  0
   11.6038   -7.7838   -7.2560 C   0  0  0  0  0  0  0  0  0  0  0  0
   12.6893   -7.9940   -8.1037 C   0  0  0  0  0  0  0  0  0  0  0  0
   12.8578   -9.2080   -8.7411 C   0  0  0  0  0  0  0  0  0  0  0  0
   15.7379   -6.8906  -11.2958 C   0  0  0  0  0  0  0  0  0  0  0  0
   16.2256   -7.1110  -12.4501 O   0  0  0  0  0  0  0  0  0  0  0  0
   17.9714   -4.1689   -8.7051 C   0  0  0  0  0  0  0  0  0  0  0  0
   17.5524   -3.8009  -10.0960 C   0  0  2  0  0  0  0  0  0  0  0  0
   16.2185   -3.0894  -10.0203 C   0  0  0  0  0  0  0  0  0  0  0  0
   17.4253   -5.0433  -10.9824 C   0  0  2  0  0  0  0  0  0  0  0  0
   16.3376   -5.8757  -10.5388 N   0  0  0  0  0  0  0  0  0  0  0  0
   18.7171   -5.7284  -11.0410 C   0  0  0  0  0  0  0  0  0  0  0  0
   19.0115   -6.5873  -10.1933 O   0  0  0  0  0  0  0  0  0  0  0  0
   19.6427   -5.4214  -12.0613 N   0  0  0  0  0  0  0  0  0  0  0  0
   20.8839   -6.1201  -12.2954 C   0  0  1  0  0  0  0  0  0  0  0  0
   20.7254   -7.5681  -12.6074 C   0  0  0  0  0  0  0  0  0  0  0  0
   22.3143   -8.3904  -12.8919 S   0  0  0  0  0  0  0  0  0  0  0  0
   21.6933   -5.4163  -13.3409 C   0  0  0  0  0  0  0  0  0  0  0  0
   21.0989   -4.9092  -14.3126 O   0  0  0  0  0  0  0  0  0  0  0  0
   23.0692   -5.3192  -13.2504 O   0  0  0  0  0  0  0  0  0  0  0  0
  2  1  1  6
  2  3  1  0
  2 13  1  0
  3  4  1  0
  4  5  2  0
  5  6  1  0
  7  6  1  0
  8  7  2  0
  9  8  1  0
 10 11  1  0
 10  9  2  0
 11 12  2  0
 12  4  1  0
 12  7  1  0
 13 19  1  0
 13 14  2  0
 16 15  1  1
 16 17  1  0
 18 16  1  0
 18 19  1  1
 20 18  1  0
 20 21  2  0
 22 20  1  0
 23 22  1  0
 23 24  1  6
 24 25  1  0
 26 23  1  0
 27 26  2  0
 28 26  1  0
M  END
$$$$
