WVC.pdb
     RDKit          3D

 28 29  0  0  1  0  0  0  0  0999 V2000
   27.5369  -19.2481  -16.4888 N   0  0  0  0  0  0  0  0  0  0  0  0
   26.4589  -18.7932  -15.6341 C   0  0  1  0  0  0  0  0  0  0  0  0
   25.4887  -17.9806  -16.4564 C   0  0  0  0  0  0  0  0  0  0  0  0
   26.1382  -16.7119  -16.9402 C   0  0  0  0  0  0  0  0  0  0  0  0
   26.2865  -16.3378  -18.2502 C   0  0  0  0  0  0  0  0  0  0  0  0
   26.9106  -15.1478  -18.2558 N   0  0  0  0  0  0  0  0  0  0  0  0
   27.1707  -14.7382  -17.0166 C   0  0  0  0  0  0  0  0  0  0  0  0
   27.7884  -13.5933  -16.5391 C   0  0  0  0  0  0  0  0  0  0  0  0
   27.9237  -13.4288  -15.1886 C   0  0  0  0  0  0  0  0  0  0  0  0
   27.4537  -14.3856  -14.3161 C   0  0  0  0  0  0  0  0  0  0  0  0
   26.8355  -15.5300  -14.8155 C   0  0  0  0  0  0  0  0  0  0  0  0
   26.6904  -15.7123  -16.1772 C   0  0  0  0  0  0  0  0  0  0  0  0
   25.8183  -19.8891  -14.8973 C   0  0  0  0  0  0  0  0  0  0  0  0
   25.7579  -21.0141  -15.4884 O   0  0  0  0  0  0  0  0  0  0  0  0
   24.7444  -19.9019  -10.6844 C   0  0  0  0  0  0  0  0  0  0  0  0
   24.9922  -21.1017  -11.5474 C   0  0  2  0  0  0  0  0  0  0  0  0
   26.4791  -21.3847  -11.5561 C   0  0  0  0  0  0  0  0  0  0  0  0
   24.5034  -20.8638  -12.9790 C   0  0  2  0  0  0  0  0  0  0  0  0
   25.2678  -19.8200  -13.6108 N   0  0  0  0  0  0  0  0  0  0  0  0
   23.0603  -20.6215  -12.9623 C   0  0  0  0  0  0  0  0  0  0  0  0
   22.6183  -19.4719  -12.8006 O   0  0  0  0  0  0  0  0  0  0  0  0
   22.1546  -21.6909  -13.1300 N   0  0  0  0  0  0  0  0  0  0  0  0
   20.7210  -21.5576  -13.2338 C   0  0  1  0  0  0  0  0  0  0  0  0
   20.0473  -22.6861  -13.9350 C   0  0  0  0  0  0  0  0  0  0  0  0
   20.6631  -24.3012  -13.3927 S   0  0  0  0  0  0  0  0  0  0  0  0
   20.1182  -21.3077  -11.8855 C   0  0  0  0  0  0  0  0  0  0  0  0
   20.7839  -21.5992  -10.8724 O   0  0  0  0  0  0  0  0  0  0  0  0
   18.8539  -20.7668  -11.7446 O   0  0  0  0  0  0  0  0  0  0  0  0
  2  1  1  6
  2  3  1  0
  2 13  1  0
  3  4  1  0
  4  5  2  0
  5  6  1  0
  7  6  1  0
  8  7  2  0
  9  8  1  0
 10 11  1  0
 10  9  2  0
 11 12  2  0
 12  4  1  0
 12  7  1  0
 13 19  1  0
 13 14  2  0
 16 15  1  1
 16 17  1  0
 18 16  1  0
 18 19  1  1
 20 18  1  0
 20 21  2  0
 22 20  1  0
 23 22  1  0
 23 24  1  1
 24 25  1  0
 26 23  1  0
 27 26  2  0
 28 26  1  0
M  END
$$$$
