WVC.pdb
     RDKit          3D

 28 29  0  0  1  0  0  0  0  0999 V2000
   26.6222  -21.2062  -12.4669 N   0  0  0  0  0  0  0  0  0  0  0  0
   25.5955  -21.1818  -11.4448 C   0  0  1  0  0  0  0  0  0  0  0  0
   25.9492  -20.1345  -10.4172 C   0  0  0  0  0  0  0  0  0  0  0  0
   27.2386  -20.4866   -9.7250 C   0  0  0  0  0  0  0  0  0  0  0  0
   28.2588  -21.2276  -10.2618 C   0  0  0  0  0  0  0  0  0  0  0  0
   29.2225  -21.3119   -9.3291 N   0  0  0  0  0  0  0  0  0  0  0  0
   28.8736  -20.6632   -8.2207 C   0  0  0  0  0  0  0  0  0  0  0  0
   29.5360  -20.4804   -7.0174 C   0  0  0  0  0  0  0  0  0  0  0  0
   28.9282  -19.7538   -6.0314 C   0  0  0  0  0  0  0  0  0  0  0  0
   27.6775  -19.2120   -6.2306 C   0  0  0  0  0  0  0  0  0  0  0  0
   27.0276  -19.4069   -7.4475 C   0  0  0  0  0  0  0  0  0  0  0  0
   27.6271  -20.1383   -8.4545 C   0  0  0  0  0  0  0  0  0  0  0  0
   24.2465  -21.0171  -11.9996 C   0  0  0  0  0  0  0  0  0  0  0  0
   23.7513  -19.8460  -11.9549 O   0  0  0  0  0  0  0  0  0  0  0  0
   22.9641  -20.4889  -14.9866 C   0  0  0  0  0  0  0  0  0  0  0  0
   22.1081  -21.6501  -14.5810 C   0  0  2  0  0  0  0  0  0  0  0  0
   20.6961  -21.3935  -15.0621 C   0  0  0  0  0  0  0  0  0  0  0  0
   22.1101  -21.8343  -13.0607 C   0  0  2  0  0  0  0  0  0  0  0  0
   23.4518  -22.0188  -12.5722 N   0  0  0  0  0  0  0  0  0  0  0  0
   21.1902  -22.9154  -12.7044 C   0  0  0  0  0  0  0  0  0  0  0  0
   21.3205  -24.0427  -13.2093 O   0  0  0  0  0  0  0  0  0  0  0  0
   20.1452  -22.6893  -11.7830 N   0  0  0  0  0  0  0  0  0  0  0  0
   19.1086  -23.6379  -11.4527 C   0  0  1  0  0  0  0  0  0  0  0  0
   19.2624  -24.2767  -10.1158 C   0  0  0  0  0  0  0  0  0  0  0  0
   18.6966  -23.2044   -8.7697 S   0  0  0  0  0  0  0  0  0  0  0  0
   17.7561  -23.0145  -11.6136 C   0  0  0  0  0  0  0  0  0  0  0  0
   16.7527  -23.7541  -11.5864 O   0  0  0  0  0  0  0  0  0  0  0  0
   17.6009  -21.6522  -11.7894 O   0  0  0  0  0  0  0  0  0  0  0  0
  2  1  1  6
  2  3  1  0
  2 13  1  0
  3  4  1  0
  4  5  2  0
  5  6  1  0
  7  6  1  0
  8  7  2  0
  9  8  1  0
 10 11  1  0
 10  9  2  0
 11 12  2  0
 12  4  1  0
 12  7  1  0
 13 19  1  0
 13 14  2  0
 16 15  1  1
 16 17  1  0
 18 16  1  0
 18 19  1  6
 20 18  1  0
 20 21  2  0
 22 20  1  0
 23 22  1  0
 23 24  1  1
 24 25  1  0
 26 23  1  0
 27 26  2  0
 28 26  1  0
M  END
$$$$
