WVC.pdb
     RDKit          3D

 28 29  0  0  1  0  0  0  0  0999 V2000
   22.4155  -20.0914  -17.7429 N   0  0  0  0  0  0  0  0  0  0  0  0
   22.8622  -19.2274  -16.6690 C   0  0  1  0  0  0  0  0  0  0  0  0
   21.6592  -18.7301  -15.9052 C   0  0  0  0  0  0  0  0  0  0  0  0
   20.8645  -17.7629  -16.7410 C   0  0  0  0  0  0  0  0  0  0  0  0
   21.2454  -16.4881  -17.0696 C   0  0  0  0  0  0  0  0  0  0  0  0
   20.2650  -15.9617  -17.8228 N   0  0  0  0  0  0  0  0  0  0  0  0
   19.2738  -16.8329  -17.9950 C   0  0  0  0  0  0  0  0  0  0  0  0
   18.0766  -16.7361  -18.6860 C   0  0  0  0  0  0  0  0  0  0  0  0
   17.2296  -17.8093  -18.6955 C   0  0  0  0  0  0  0  0  0  0  0  0
   17.5606  -18.9685  -18.0290 C   0  0  0  0  0  0  0  0  0  0  0  0
   18.7689  -19.0465  -17.3399 C   0  0  0  0  0  0  0  0  0  0  0  0
   19.6366  -17.9716  -17.3199 C   0  0  0  0  0  0  0  0  0  0  0  0
   23.8708  -19.8625  -15.8123 C   0  0  0  0  0  0  0  0  0  0  0  0
   23.5626  -20.9897  -15.3092 O   0  0  0  0  0  0  0  0  0  0  0  0
   27.7141  -18.0894  -14.8063 C   0  0  0  0  0  0  0  0  0  0  0  0
   27.5033  -19.5684  -14.9229 C   0  0  2  0  0  0  0  0  0  0  0  0
   27.8074  -19.9833  -16.3464 C   0  0  0  0  0  0  0  0  0  0  0  0
   26.0632  -19.9515  -14.5699 C   0  0  2  0  0  0  0  0  0  0  0  0
   25.1361  -19.3521  -15.4942 N   0  0  0  0  0  0  0  0  0  0  0  0
   25.8062  -19.6222  -13.1673 C   0  0  0  0  0  0  0  0  0  0  0  0
   25.5101  -18.4615  -12.8388 O   0  0  0  0  0  0  0  0  0  0  0  0
   25.8916  -20.6197  -12.1724 N   0  0  0  0  0  0  0  0  0  0  0  0
   25.6618  -20.4096  -10.7629 C   0  0  1  0  0  0  0  0  0  0  0  0
   24.3185  -19.8560  -10.4343 C   0  0  0  0  0  0  0  0  0  0  0  0
   22.9831  -21.0256  -10.7958 S   0  0  0  0  0  0  0  0  0  0  0  0
   25.9453  -21.6624   -9.9924 C   0  0  0  0  0  0  0  0  0  0  0  0
   26.2096  -22.7036  -10.6253 O   0  0  0  0  0  0  0  0  0  0  0  0
   25.9200  -21.6862   -8.6105 O   0  0  0  0  0  0  0  0  0  0  0  0
  2  1  1  6
  2  3  1  0
  2 13  1  0
  3  4  1  0
  4  5  2  0
  5  6  1  0
  7  6  1  0
  8  7  2  0
  9  8  1  0
 10 11  1  0
 10  9  2  0
 11 12  2  0
 12  4  1  0
 12  7  1  0
 13 19  1  0
 13 14  2  0
 16 15  1  6
 16 17  1  0
 18 16  1  0
 18 19  1  6
 20 18  1  0
 20 21  2  0
 22 20  1  0
 23 22  1  0
 23 24  1  6
 24 25  1  0
 26 23  1  0
 27 26  2  0
 28 26  1  0
M  END
$$$$
