WVC.pdb
     RDKit          3D

 28 29  0  0  1  0  0  0  0  0999 V2000
   27.8884  -20.1931   -9.8155 N   0  0  0  0  0  0  0  0  0  0  0  0
   26.5575  -20.7350   -9.6299 C   0  0  1  0  0  0  0  0  0  0  0  0
   25.9603  -20.1525   -8.3722 C   0  0  0  0  0  0  0  0  0  0  0  0
   27.0393  -19.5946   -7.4832 C   0  0  0  0  0  0  0  0  0  0  0  0
   27.7214  -18.4242   -7.6904 C   0  0  0  0  0  0  0  0  0  0  0  0
   28.5921  -18.2865   -6.6762 N   0  0  0  0  0  0  0  0  0  0  0  0
   28.5043  -19.3084   -5.8282 C   0  0  0  0  0  0  0  0  0  0  0  0
   29.1909  -19.5918   -4.6583 C   0  0  0  0  0  0  0  0  0  0  0  0
   28.8890  -20.7368   -3.9748 C   0  0  0  0  0  0  0  0  0  0  0  0
   27.9179  -21.5953   -4.4413 C   0  0  0  0  0  0  0  0  0  0  0  0
   27.2386  -21.2930   -5.6195 C   0  0  0  0  0  0  0  0  0  0  0  0
   27.5310  -20.1403   -6.3227 C   0  0  0  0  0  0  0  0  0  0  0  0
   25.7042  -20.5605  -10.8114 C   0  0  0  0  0  0  0  0  0  0  0  0
   25.4636  -19.3633  -11.1685 O   0  0  0  0  0  0  0  0  0  0  0  0
   25.0821  -23.4399  -13.8632 C   0  0  0  0  0  0  0  0  0  0  0  0
   24.8938  -21.9584  -13.9868 C   0  0  2  0  0  0  0  0  0  0  0  0
   26.2466  -21.3237  -14.2283 C   0  0  0  0  0  0  0  0  0  0  0  0
   24.2677  -21.3726  -12.7180 C   0  0  2  0  0  0  0  0  0  0  0  0
   25.1297  -21.5787  -11.5833 N   0  0  0  0  0  0  0  0  0  0  0  0
   22.9189  -21.9152  -12.5506 C   0  0  0  0  0  0  0  0  0  0  0  0
   22.7556  -23.1048  -12.2324 O   0  0  0  0  0  0  0  0  0  0  0  0
   21.7887  -21.0932  -12.7483 N   0  0  0  0  0  0  0  0  0  0  0  0
   20.4165  -21.5206  -12.6148 C   0  0  1  0  0  0  0  0  0  0  0  0
   19.6443  -20.7925  -11.5694 C   0  0  0  0  0  0  0  0  0  0  0  0
   19.9785  -19.0121  -11.5795 S   0  0  0  0  0  0  0  0  0  0  0  0
   19.7225  -21.4795  -13.9415 C   0  0  0  0  0  0  0  0  0  0  0  0
   20.2495  -20.8344  -14.8692 O   0  0  0  0  0  0  0  0  0  0  0  0
   18.5242  -22.1349  -14.1546 O   0  0  0  0  0  0  0  0  0  0  0  0
  2  1  1  6
  2  3  1  0
  2 13  1  0
  3  4  1  0
  4  5  2  0
  5  6  1  0
  7  6  1  0
  8  7  2  0
  9  8  1  0
 10 11  1  0
 10  9  2  0
 11 12  2  0
 12  4  1  0
 12  7  1  0
 13 19  1  0
 13 14  2  0
 16 15  1  1
 16 17  1  0
 18 16  1  0
 18 19  1  1
 20 18  1  0
 20 21  2  0
 22 20  1  0
 23 22  1  0
 23 24  1  1
 24 25  1  0
 26 23  1  0
 27 26  2  0
 28 26  1  0
M  END
$$$$
