WVC.pdb
     RDKit          3D

 28 29  0  0  1  0  0  0  0  0999 V2000
   24.5885  -18.7959  -17.0245 N   0  0  0  0  0  0  0  0  0  0  0  0
   24.5087  -18.4550  -15.6185 C   0  0  1  0  0  0  0  0  0  0  0  0
   23.2334  -17.6870  -15.3703 C   0  0  0  0  0  0  0  0  0  0  0  0
   23.2400  -16.3896  -16.1335 C   0  0  0  0  0  0  0  0  0  0  0  0
   22.3353  -16.0220  -17.0950 C   0  0  0  0  0  0  0  0  0  0  0  0
   22.6885  -14.7995  -17.5267 N   0  0  0  0  0  0  0  0  0  0  0  0
   23.7736  -14.3630  -16.8920 C   0  0  0  0  0  0  0  0  0  0  0  0
   24.4881  -13.1807  -17.0023 C   0  0  0  0  0  0  0  0  0  0  0  0
   25.5858  -12.9946  -16.2088 C   0  0  0  0  0  0  0  0  0  0  0  0
   25.9757  -13.9665  -15.3138 C   0  0  0  0  0  0  0  0  0  0  0  0
   25.2444  -15.1484  -15.2175 C   0  0  0  0  0  0  0  0  0  0  0  0
   24.1327  -15.3530  -16.0117 C   0  0  0  0  0  0  0  0  0  0  0  0
   24.6620  -19.6225  -14.7422 C   0  0  0  0  0  0  0  0  0  0  0  0
   24.0940  -20.6966  -15.1197 O   0  0  0  0  0  0  0  0  0  0  0  0
   27.3718  -20.1678  -11.2851 C   0  0  0  0  0  0  0  0  0  0  0  0
   26.7360  -21.1843  -12.1840 C   0  0  2  0  0  0  0  0  0  0  0  0
   27.5977  -21.3346  -13.4193 C   0  0  0  0  0  0  0  0  0  0  0  0
   25.3224  -20.7571  -12.5893 C   0  0  2  0  0  0  0  0  0  0  0  0
   25.3700  -19.6719  -13.5343 N   0  0  0  0  0  0  0  0  0  0  0  0
   24.5418  -20.4679  -11.3857 C   0  0  0  0  0  0  0  0  0  0  0  0
   24.3755  -19.2951  -11.0118 O   0  0  0  0  0  0  0  0  0  0  0  0
   23.9692  -21.5180  -10.6364 N   0  0  0  0  0  0  0  0  0  0  0  0
   23.1071  -21.3480   -9.4912 C   0  0  1  0  0  0  0  0  0  0  0  0
   21.9290  -20.4690   -9.7330 C   0  0  0  0  0  0  0  0  0  0  0  0
   20.8112  -20.4062   -8.3088 S   0  0  0  0  0  0  0  0  0  0  0  0
   22.6979  -22.6792   -8.9401 C   0  0  0  0  0  0  0  0  0  0  0  0
   22.5884  -22.8038   -7.7044 O   0  0  0  0  0  0  0  0  0  0  0  0
   22.4423  -23.7589   -9.7647 O   0  0  0  0  0  0  0  0  0  0  0  0
  2  1  1  6
  2  3  1  0
  2 13  1  0
  3  4  1  0
  4  5  2  0
  5  6  1  0
  7  6  1  0
  8  7  2  0
  9  8  1  0
 10 11  1  0
 10  9  2  0
 11 12  2  0
 12  4  1  0
 12  7  1  0
 13 19  1  0
 13 14  2  0
 16 15  1  1
 16 17  1  0
 18 16  1  0
 18 19  1  6
 20 18  1  0
 20 21  2  0
 22 20  1  0
 23 22  1  0
 23 24  1  6
 24 25  1  0
 26 23  1  0
 27 26  2  0
 28 26  1  0
M  END
$$$$
