WVC.pdb
     RDKit          3D

 28 29  0  0  1  0  0  0  0  0999 V2000
   23.2641  -19.6428  -15.2832 N   0  0  0  0  0  0  0  0  0  0  0  0
   22.0345  -19.5082  -14.5287 C   0  0  1  0  0  0  0  0  0  0  0  0
   20.8696  -19.4782  -15.4880 C   0  0  0  0  0  0  0  0  0  0  0  0
   20.8545  -18.1872  -16.2617 C   0  0  0  0  0  0  0  0  0  0  0  0
   21.4169  -17.9867  -17.4952 C   0  0  0  0  0  0  0  0  0  0  0  0
   21.1839  -16.7078  -17.8354 N   0  0  0  0  0  0  0  0  0  0  0  0
   20.5006  -16.0765  -16.8838 C   0  0  0  0  0  0  0  0  0  0  0  0
   20.0416  -14.7720  -16.7954 C   0  0  0  0  0  0  0  0  0  0  0  0
   19.3526  -14.3873  -15.6789 C   0  0  0  0  0  0  0  0  0  0  0  0
   19.1182  -15.2819  -14.6579 C   0  0  0  0  0  0  0  0  0  0  0  0
   19.5878  -16.5892  -14.7653 C   0  0  0  0  0  0  0  0  0  0  0  0
   20.2858  -16.9947  -15.8864 C   0  0  0  0  0  0  0  0  0  0  0  0
   21.8970  -20.5277  -13.4817 C   0  0  0  0  0  0  0  0  0  0  0  0
   21.9137  -21.7415  -13.8628 O   0  0  0  0  0  0  0  0  0  0  0  0
   22.0317  -19.6881   -9.2485 C   0  0  0  0  0  0  0  0  0  0  0  0
   22.5039  -20.9627   -9.8793 C   0  0  2  0  0  0  0  0  0  0  0  0
   23.9477  -20.7825  -10.2967 C   0  0  0  0  0  0  0  0  0  0  0  0
   21.6542  -21.3231  -11.1013 C   0  0  2  0  0  0  0  0  0  0  0  0
   21.7495  -20.2979  -12.1076 N   0  0  0  0  0  0  0  0  0  0  0  0
   20.2860  -21.6117  -10.6695 C   0  0  0  0  0  0  0  0  0  0  0  0
   19.4808  -20.6864  -10.4739 O   0  0  0  0  0  0  0  0  0  0  0  0
   19.8659  -22.9445  -10.4709 N   0  0  0  0  0  0  0  0  0  0  0  0
   18.5532  -23.3443  -10.0232 C   0  0  1  0  0  0  0  0  0  0  0  0
   18.0317  -24.5798  -10.6719 C   0  0  0  0  0  0  0  0  0  0  0  0
   16.4561  -25.1204   -9.9599 S   0  0  0  0  0  0  0  0  0  0  0  0
   18.5173  -23.4487   -8.5295 C   0  0  0  0  0  0  0  0  0  0  0  0
   19.5575  -23.7872   -7.9312 O   0  0  0  0  0  0  0  0  0  0  0  0
   17.3676  -23.1802   -7.8104 O   0  0  0  0  0  0  0  0  0  0  0  0
  2  1  1  6
  2  3  1  0
  2 13  1  0
  3  4  1  0
  4  5  2  0
  5  6  1  0
  7  6  1  0
  8  7  2  0
  9  8  1  0
 10 11  1  0
 10  9  2  0
 11 12  2  0
 12  4  1  0
 12  7  1  0
 13 19  1  0
 13 14  2  0
 16 15  1  6
 16 17  1  0
 18 16  1  0
 18 19  1  6
 20 18  1  0
 20 21  2  0
 22 20  1  0
 23 22  1  0
 23 24  1  6
 24 25  1  0
 26 23  1  0
 27 26  2  0
 28 26  1  0
M  END
$$$$
