WVC.pdb
     RDKit          3D

 28 29  0  0  1  0  0  0  0  0999 V2000
   23.9255  -19.2189  -17.5664 N   0  0  0  0  0  0  0  0  0  0  0  0
   24.3227  -18.7291  -16.2618 C   0  0  1  0  0  0  0  0  0  0  0  0
   23.1348  -18.0749  -15.5995 C   0  0  0  0  0  0  0  0  0  0  0  0
   22.8285  -16.7523  -16.2496 C   0  0  0  0  0  0  0  0  0  0  0  0
   21.7164  -16.4665  -16.9977 C   0  0  0  0  0  0  0  0  0  0  0  0
   21.8207  -15.1863  -17.3922 N   0  0  0  0  0  0  0  0  0  0  0  0
   22.9427  -14.6349  -16.9360 C   0  0  0  0  0  0  0  0  0  0  0  0
   23.4654  -13.3602  -17.0850 C   0  0  0  0  0  0  0  0  0  0  0  0
   24.6622  -13.0628  -16.4946 C   0  0  0  0  0  0  0  0  0  0  0  0
   25.3379  -14.0147  -15.7634 C   0  0  0  0  0  0  0  0  0  0  0  0
   24.7961  -15.2908  -15.6250 C   0  0  0  0  0  0  0  0  0  0  0  0
   23.5879  -15.6084  -16.2149 C   0  0  0  0  0  0  0  0  0  0  0  0
   24.9498  -19.7660  -15.4335 C   0  0  0  0  0  0  0  0  0  0  0  0
   24.3759  -20.9012  -15.4107 O   0  0  0  0  0  0  0  0  0  0  0  0
   28.6212  -19.2556  -13.1282 C   0  0  0  0  0  0  0  0  0  0  0  0
   28.0202  -20.5853  -13.4696 C   0  0  2  0  0  0  0  0  0  0  0  0
   28.5986  -21.0456  -14.7905 C   0  0  0  0  0  0  0  0  0  0  0  0
   26.4955  -20.4917  -13.5782 C   0  0  2  0  0  0  0  0  0  0  0  0
   26.1148  -19.6304  -14.6673 N   0  0  0  0  0  0  0  0  0  0  0  0
   25.9428  -20.0964  -12.2820 C   0  0  0  0  0  0  0  0  0  0  0  0
   25.6034  -18.9193  -12.0767 O   0  0  0  0  0  0  0  0  0  0  0  0
   25.7890  -21.0480  -11.2511 N   0  0  0  0  0  0  0  0  0  0  0  0
   25.2903  -20.7651   -9.9264 C   0  0  1  0  0  0  0  0  0  0  0  0
   23.9375  -21.3223   -9.6463 C   0  0  0  0  0  0  0  0  0  0  0  0
   23.4450  -21.1017   -7.9169 S   0  0  0  0  0  0  0  0  0  0  0  0
   26.2857  -21.1869   -8.8896 C   0  0  0  0  0  0  0  0  0  0  0  0
   26.9898  -22.1911   -9.1142 O   0  0  0  0  0  0  0  0  0  0  0  0
   26.4369  -20.4931   -7.7036 O   0  0  0  0  0  0  0  0  0  0  0  0
  2  1  1  6
  2  3  1  0
  2 13  1  0
  3  4  1  0
  4  5  2  0
  5  6  1  0
  7  6  1  0
  8  7  2  0
  9  8  1  0
 10 11  1  0
 10  9  2  0
 11 12  2  0
 12  4  1  0
 12  7  1  0
 13 19  1  0
 13 14  2  0
 16 15  1  6
 16 17  1  0
 18 16  1  0
 18 19  1  6
 20 18  1  0
 20 21  2  0
 22 20  1  0
 23 22  1  0
 23 24  1  1
 24 25  1  0
 26 23  1  0
 27 26  2  0
 28 26  1  0
M  END
$$$$
