WVC.pdb
     RDKit          3D

 28 29  0  0  1  0  0  0  0  0999 V2000
   23.5214  -19.0731  -17.3655 N   0  0  0  0  0  0  0  0  0  0  0  0
   24.0070  -18.5151  -16.1196 C   0  0  1  0  0  0  0  0  0  0  0  0
   22.9166  -17.6770  -15.4980 C   0  0  0  0  0  0  0  0  0  0  0  0
   22.8353  -16.3321  -16.1691 C   0  0  0  0  0  0  0  0  0  0  0  0
   21.8014  -15.8895  -16.9522 C   0  0  0  0  0  0  0  0  0  0  0  0
   22.1122  -14.6459  -17.3555 N   0  0  0  0  0  0  0  0  0  0  0  0
   23.2926  -14.2670  -16.8717 C   0  0  0  0  0  0  0  0  0  0  0  0
   24.0090  -13.0898  -17.0173 C   0  0  0  0  0  0  0  0  0  0  0  0
   25.2206  -12.9714  -16.3949 C   0  0  0  0  0  0  0  0  0  0  0  0
   25.7215  -14.0056  -15.6352 C   0  0  0  0  0  0  0  0  0  0  0  0
   24.9863  -15.1814  -15.5009 C   0  0  0  0  0  0  0  0  0  0  0  0
   23.7603  -15.3179  -16.1229 C   0  0  0  0  0  0  0  0  0  0  0  0
   24.5421  -19.5363  -15.2111 C   0  0  0  0  0  0  0  0  0  0  0  0
   23.8159  -20.5628  -15.0169 O   0  0  0  0  0  0  0  0  0  0  0  0
   28.5217  -19.5227  -13.3797 C   0  0  0  0  0  0  0  0  0  0  0  0
   27.6931  -20.7348  -13.6792 C   0  0  2  0  0  0  0  0  0  0  0  0
   27.9896  -21.1778  -15.0959 C   0  0  0  0  0  0  0  0  0  0  0  0
   26.1987  -20.4328  -13.5348 C   0  0  2  0  0  0  0  0  0  0  0  0
   25.7701  -19.4934  -14.5382 N   0  0  0  0  0  0  0  0  0  0  0  0
   25.9227  -20.0084  -12.1617 C   0  0  0  0  0  0  0  0  0  0  0  0
   26.1306  -18.8343  -11.8134 O   0  0  0  0  0  0  0  0  0  0  0  0
   25.4169  -20.9280  -11.2180 N   0  0  0  0  0  0  0  0  0  0  0  0
   25.0209  -20.6015   -9.8689 C   0  0  1  0  0  0  0  0  0  0  0  0
   23.7694  -21.2707   -9.4160 C   0  0  0  0  0  0  0  0  0  0  0  0
   22.3796  -20.9661  -10.5374 S   0  0  0  0  0  0  0  0  0  0  0  0
   26.1514  -20.8441   -8.9167 C   0  0  0  0  0  0  0  0  0  0  0  0
   27.0661  -21.6172   -9.2632 O   0  0  0  0  0  0  0  0  0  0  0  0
   26.1995  -20.2349   -7.6767 O   0  0  0  0  0  0  0  0  0  0  0  0
  2  1  1  6
  2  3  1  0
  2 13  1  0
  3  4  1  0
  4  5  2  0
  5  6  1  0
  7  6  1  0
  8  7  2  0
  9  8  1  0
 10 11  1  0
 10  9  2  0
 11 12  2  0
 12  4  1  0
 12  7  1  0
 13 19  1  0
 13 14  2  0
 16 15  1  6
 16 17  1  0
 18 16  1  0
 18 19  1  6
 20 18  1  0
 20 21  2  0
 22 20  1  0
 23 22  1  0
 23 24  1  1
 24 25  1  0
 26 23  1  0
 27 26  2  0
 28 26  1  0
M  END
$$$$
