GWR.pdb
     RDKit          3D

 30 31  0  0  1  0  0  0  0  0999 V2000
   11.0422  -16.8764   18.3447 N   0  0  0  0  0  0  0  0  0  0  0  0
   10.5495  -17.6542   19.4492 C   0  0  0  0  0  0  0  0  0  0  0  0
   10.3617  -16.8199   20.6722 C   0  0  0  0  0  0  0  0  0  0  0  0
   11.1728  -15.8822   20.8843 O   0  0  0  0  0  0  0  0  0  0  0  0
    9.3223  -17.0304   21.5998 N   0  0  0  0  0  0  0  0  0  0  0  0
    9.1513  -16.2462   22.8164 C   0  0  1  0  0  0  0  0  0  0  0  0
    7.7373  -15.8943   23.0675 C   0  0  0  0  0  0  0  0  0  0  0  0
    7.4434  -14.5237   23.4709 C   0  0  0  0  0  0  0  0  0  0  0  0
    7.1903  -13.4762   22.5659 C   0  0  0  0  0  0  0  0  0  0  0  0
    6.9419  -12.3802   23.2763 N   0  0  0  0  0  0  0  0  0  0  0  0
    7.0123  -12.6236   24.6115 C   0  0  0  0  0  0  0  0  0  0  0  0
    6.8409  -11.8232   25.7139 C   0  0  0  0  0  0  0  0  0  0  0  0
    6.9808  -12.3455   26.9665 C   0  0  0  0  0  0  0  0  0  0  0  0
    7.2931  -13.6712   27.1167 C   0  0  0  0  0  0  0  0  0  0  0  0
    7.4595  -14.4517   26.0028 C   0  0  0  0  0  0  0  0  0  0  0  0
    7.3297  -13.9798   24.7062 C   0  0  0  0  0  0  0  0  0  0  0  0
    9.8781  -16.8683   23.9212 C   0  0  0  0  0  0  0  0  0  0  0  0
   10.2245  -18.0960   23.8007 O   0  0  0  0  0  0  0  0  0  0  0  0
   10.5677  -18.5770   30.3849 N   0  0  0  0  0  0  0  0  0  0  0  0
   11.6226  -17.8875   31.0666 C   0  0  0  0  0  0  0  0  0  0  0  0
   12.4552  -18.5560   31.8173 N   0  0  0  0  0  0  0  0  0  0  0  0
   11.6933  -16.4968   30.8761 N   0  0  0  0  0  0  0  0  0  0  0  0
   10.9356  -15.9306   29.7229 C   0  0  0  0  0  0  0  0  0  0  0  0
   11.7389  -16.2914   28.5223 C   0  0  0  0  0  0  0  0  0  0  0  0
   11.2696  -15.9061   27.1976 C   0  0  0  0  0  0  0  0  0  0  0  0
   11.0846  -16.9131   26.1178 C   0  0  2  0  0  0  0  0  0  0  0  0
   10.2246  -16.1889   25.1065 N   0  0  0  0  0  0  0  0  0  0  0  0
   10.2085  -18.0164   26.5308 C   0  0  0  0  0  0  0  0  0  0  0  0
    8.8067  -17.8022   26.5031 O   0  0  0  0  0  0  0  0  0  0  0  0
   10.6186  -19.1109   26.9011 O   0  0  0  0  0  0  0  0  0  0  0  0
  1  2  1  0
  2  3  1  0
  3  4  2  0
  5  6  1  0
  5  3  1  0
  6  7  1  1
  7  8  1  0
  8 16  1  0
  9 10  1  0
  9  8  2  0
 10 11  1  0
 11 16  2  0
 11 12  1  0
 12 13  2  0
 13 14  1  0
 15 14  2  0
 16 15  1  0
 17  6  1  0
 17 18  2  0
 20 19  1  0
 21 20  2  0
 22 20  1  0
 23 22  1  0
 24 23  1  0
 24 25  1  0
 26 27  1  0
 26 25  1  1
 27 17  1  0
 28 26  1  0
 29 28  1  0
 30 28  2  0
M  END
$$$$
