GWR.pdb
     RDKit          3D

 30 31  0  0  1  0  0  0  0  0999 V2000
    8.9171  -13.1356   17.9035 N   0  0  0  0  0  0  0  0  0  0  0  0
    8.4486  -14.3324   18.5484 C   0  0  0  0  0  0  0  0  0  0  0  0
    8.6533  -14.2803   20.0258 C   0  0  0  0  0  0  0  0  0  0  0  0
    9.6625  -13.6724   20.4664 O   0  0  0  0  0  0  0  0  0  0  0  0
    7.7734  -14.8775   20.9500 N   0  0  0  0  0  0  0  0  0  0  0  0
    7.9942  -14.8838   22.3907 C   0  0  1  0  0  0  0  0  0  0  0  0
    6.7334  -14.7754   23.1557 C   0  0  0  0  0  0  0  0  0  0  0  0
    6.8322  -14.6271   24.6034 C   0  0  0  0  0  0  0  0  0  0  0  0
    6.8531  -15.7085   25.5037 C   0  0  0  0  0  0  0  0  0  0  0  0
    6.9717  -15.2102   26.7306 N   0  0  0  0  0  0  0  0  0  0  0  0
    7.0320  -13.8526   26.7148 C   0  0  0  0  0  0  0  0  0  0  0  0
    7.1484  -12.9144   27.7104 C   0  0  0  0  0  0  0  0  0  0  0  0
    7.1790  -11.5865   27.3985 C   0  0  0  0  0  0  0  0  0  0  0  0
    7.0927  -11.1963   26.0878 C   0  0  0  0  0  0  0  0  0  0  0  0
    6.9772  -12.1495   25.1102 C   0  0  0  0  0  0  0  0  0  0  0  0
    6.9416  -13.5116   25.3639 C   0  0  0  0  0  0  0  0  0  0  0  0
    8.8907  -15.9785   22.7565 C   0  0  0  0  0  0  0  0  0  0  0  0
    8.7416  -17.1047   22.1641 O   0  0  0  0  0  0  0  0  0  0  0  0
   17.0479  -15.7889   20.7143 N   0  0  0  0  0  0  0  0  0  0  0  0
   16.5788  -15.9279   22.0611 C   0  0  0  0  0  0  0  0  0  0  0  0
   17.2510  -15.3877   23.0409 N   0  0  0  0  0  0  0  0  0  0  0  0
   15.3916  -16.6576   22.2432 N   0  0  0  0  0  0  0  0  0  0  0  0
   14.6967  -16.5064   23.5543 C   0  0  0  0  0  0  0  0  0  0  0  0
   13.3996  -17.2175   23.3849 C   0  0  0  0  0  0  0  0  0  0  0  0
   12.1594  -16.4541   23.3340 C   0  0  0  0  0  0  0  0  0  0  0  0
   10.8865  -17.0070   23.8709 C   0  0  2  0  0  0  0  0  0  0  0  0
    9.9138  -15.8592   23.7187 N   0  0  0  0  0  0  0  0  0  0  0  0
   10.9275  -17.1826   25.3279 C   0  0  0  0  0  0  0  0  0  0  0  0
   10.3776  -16.1578   26.1397 O   0  0  0  0  0  0  0  0  0  0  0  0
   11.4123  -18.1623   25.8834 O   0  0  0  0  0  0  0  0  0  0  0  0
  1  2  1  0
  2  3  1  0
  3  4  2  0
  5  6  1  0
  5  3  1  0
  6  7  1  1
  7  8  1  0
  8 16  1  0
  9 10  1  0
  9  8  2  0
 10 11  1  0
 11 16  2  0
 11 12  1  0
 12 13  2  0
 13 14  1  0
 15 14  2  0
 16 15  1  0
 17  6  1  0
 17 18  2  0
 20 19  1  0
 21 20  2  0
 22 20  1  0
 23 22  1  0
 24 23  1  0
 24 25  1  0
 26 27  1  0
 26 25  1  1
 27 17  1  0
 28 26  1  0
 29 28  1  0
 30 28  2  0
M  END
$$$$
