GWR.pdb
     RDKit          3D

 30 31  0  0  1  0  0  0  0  0999 V2000
    5.6628  -19.9339   24.0169 N   0  0  0  0  0  0  0  0  0  0  0  0
    6.1049  -18.9790   24.9971 C   0  0  0  0  0  0  0  0  0  0  0  0
    7.2648  -18.1790   24.5051 C   0  0  0  0  0  0  0  0  0  0  0  0
    7.7386  -18.4510   23.3722 O   0  0  0  0  0  0  0  0  0  0  0  0
    7.8544  -17.1357   25.2461 N   0  0  0  0  0  0  0  0  0  0  0  0
    8.9444  -16.3054   24.7494 C   0  0  1  0  0  0  0  0  0  0  0  0
    8.8524  -14.9084   25.2254 C   0  0  0  0  0  0  0  0  0  0  0  0
    7.7362  -14.1025   24.7435 C   0  0  0  0  0  0  0  0  0  0  0  0
    6.6489  -13.7082   25.5451 C   0  0  0  0  0  0  0  0  0  0  0  0
    5.8377  -12.9722   24.7916 N   0  0  0  0  0  0  0  0  0  0  0  0
    6.3118  -12.8447   23.5243 C   0  0  0  0  0  0  0  0  0  0  0  0
    5.8331  -12.1972   22.4121 C   0  0  0  0  0  0  0  0  0  0  0  0
    6.5314  -12.2428   21.2409 C   0  0  0  0  0  0  0  0  0  0  0  0
    7.7109  -12.9377   21.1820 C   0  0  0  0  0  0  0  0  0  0  0  0
    8.1702  -13.5764   22.3040 C   0  0  0  0  0  0  0  0  0  0  0  0
    7.5073  -13.5658   23.5211 C   0  0  0  0  0  0  0  0  0  0  0  0
   10.2236  -16.9832   24.9499 C   0  0  0  0  0  0  0  0  0  0  0  0
   10.4237  -17.5768   26.0675 O   0  0  0  0  0  0  0  0  0  0  0  0
   13.4809  -23.3020   23.1982 N   0  0  0  0  0  0  0  0  0  0  0  0
   14.8099  -22.7665   23.2008 C   0  0  0  0  0  0  0  0  0  0  0  0
   15.7277  -23.3053   22.4451 N   0  0  0  0  0  0  0  0  0  0  0  0
   15.0442  -21.6646   24.0412 N   0  0  0  0  0  0  0  0  0  0  0  0
   13.8478  -20.9429   24.5631 C   0  0  0  0  0  0  0  0  0  0  0  0
   13.4772  -19.9854   23.4847 C   0  0  0  0  0  0  0  0  0  0  0  0
   12.3503  -19.0820   23.6778 C   0  0  0  0  0  0  0  0  0  0  0  0
   12.5250  -17.7516   24.3210 C   0  0  2  0  0  0  0  0  0  0  0  0
   11.2438  -17.0253   23.9782 N   0  0  0  0  0  0  0  0  0  0  0  0
   13.5337  -16.9322   23.6379 C   0  0  0  0  0  0  0  0  0  0  0  0
   13.0834  -15.9135   22.7597 O   0  0  0  0  0  0  0  0  0  0  0  0
   14.7426  -17.0795   23.7804 O   0  0  0  0  0  0  0  0  0  0  0  0
  1  2  1  0
  2  3  1  0
  3  4  2  0
  5  6  1  0
  5  3  1  0
  6  7  1  1
  7  8  1  0
  8 16  1  0
  9 10  1  0
  9  8  2  0
 10 11  1  0
 11 16  2  0
 11 12  1  0
 12 13  2  0
 13 14  1  0
 15 14  2  0
 16 15  1  0
 17  6  1  0
 17 18  2  0
 20 19  1  0
 21 20  2  0
 22 20  1  0
 23 22  1  0
 24 23  1  0
 24 25  1  0
 26 27  1  0
 26 25  1  6
 27 17  1  0
 28 26  1  0
 29 28  1  0
 30 28  2  0
M  END
$$$$
