GWR.pdb
     RDKit          3D

 30 31  0  0  1  0  0  0  0  0999 V2000
    7.1537  -20.4459   25.1294 N   0  0  0  0  0  0  0  0  0  0  0  0
    7.8156  -19.2454   25.5637 C   0  0  0  0  0  0  0  0  0  0  0  0
    7.9511  -18.2568   24.4540 C   0  0  0  0  0  0  0  0  0  0  0  0
    7.4991  -18.5663   23.3217 O   0  0  0  0  0  0  0  0  0  0  0  0
    8.5594  -16.9958   24.6117 N   0  0  0  0  0  0  0  0  0  0  0  0
    8.7681  -16.0549   23.5183 C   0  0  1  0  0  0  0  0  0  0  0  0
    8.7180  -14.6470   23.9674 C   0  0  0  0  0  0  0  0  0  0  0  0
    7.6621  -14.2730   24.9016 C   0  0  0  0  0  0  0  0  0  0  0  0
    6.7338  -15.1820   25.4420 C   0  0  0  0  0  0  0  0  0  0  0  0
    5.9379  -14.5053   26.2644 N   0  0  0  0  0  0  0  0  0  0  0  0
    6.2724  -13.1890   26.3128 C   0  0  0  0  0  0  0  0  0  0  0  0
    5.7511  -12.1207   27.0000 C   0  0  0  0  0  0  0  0  0  0  0  0
    6.2963  -10.8791   26.8496 C   0  0  0  0  0  0  0  0  0  0  0  0
    7.3651  -10.7057   26.0097 C   0  0  0  0  0  0  0  0  0  0  0  0
    7.8695  -11.7857   25.3339 C   0  0  0  0  0  0  0  0  0  0  0  0
    7.3602  -13.0699   25.4457 C   0  0  0  0  0  0  0  0  0  0  0  0
    9.9341  -16.4507   22.7310 C   0  0  0  0  0  0  0  0  0  0  0  0
   11.0941  -16.3061   23.2553 O   0  0  0  0  0  0  0  0  0  0  0  0
   14.9068  -21.6991   19.5153 N   0  0  0  0  0  0  0  0  0  0  0  0
   15.6342  -20.8456   20.4072 C   0  0  0  0  0  0  0  0  0  0  0  0
   16.8953  -20.5958   20.1815 N   0  0  0  0  0  0  0  0  0  0  0  0
   14.9211  -20.3185   21.4975 N   0  0  0  0  0  0  0  0  0  0  0  0
   13.4337  -20.2965   21.3885 C   0  0  0  0  0  0  0  0  0  0  0  0
   13.0526  -18.8779   21.6320 C   0  0  0  0  0  0  0  0  0  0  0  0
   11.6455  -18.4991   21.6355 C   0  0  0  0  0  0  0  0  0  0  0  0
   11.1322  -17.4169   20.7526 C   0  0  2  0  0  0  0  0  0  0  0  0
    9.8502  -16.9892   21.4311 N   0  0  0  0  0  0  0  0  0  0  0  0
   10.6418  -17.9327   19.4685 C   0  0  0  0  0  0  0  0  0  0  0  0
   11.5474  -17.9791   18.3779 O   0  0  0  0  0  0  0  0  0  0  0  0
    9.4942  -18.3227   19.2836 O   0  0  0  0  0  0  0  0  0  0  0  0
  1  2  1  0
  2  3  1  0
  3  4  2  0
  5  6  1  0
  5  3  1  0
  6  7  1  1
  7  8  1  0
  8 16  1  0
  9 10  1  0
  9  8  2  0
 10 11  1  0
 11 16  2  0
 11 12  1  0
 12 13  2  0
 13 14  1  0
 15 14  2  0
 16 15  1  0
 17  6  1  0
 17 18  2  0
 20 19  1  0
 21 20  2  0
 22 20  1  0
 23 22  1  0
 24 23  1  0
 24 25  1  0
 26 27  1  0
 26 25  1  1
 27 17  1  0
 28 26  1  0
 29 28  1  0
 30 28  2  0
M  END
$$$$
