GWR.pdb
     RDKit          3D

 30 31  0  0  1  0  0  0  0  0999 V2000
    5.1120  -18.4127   20.9991 N   0  0  0  0  0  0  0  0  0  0  0  0
    5.7903  -18.5298   22.2617 C   0  0  0  0  0  0  0  0  0  0  0  0
    6.8465  -17.4874   22.4201 C   0  0  0  0  0  0  0  0  0  0  0  0
    7.0678  -16.7117   21.4550 O   0  0  0  0  0  0  0  0  0  0  0  0
    7.6070  -17.3296   23.5956 N   0  0  0  0  0  0  0  0  0  0  0  0
    8.6365  -16.3116   23.7635 C   0  0  1  0  0  0  0  0  0  0  0  0
    8.7523  -15.8510   25.1639 C   0  0  0  0  0  0  0  0  0  0  0  0
    7.6482  -15.0714   25.7123 C   0  0  0  0  0  0  0  0  0  0  0  0
    6.4207  -15.6268   26.1185 C   0  0  0  0  0  0  0  0  0  0  0  0
    5.6640  -14.6373   26.5832 N   0  0  0  0  0  0  0  0  0  0  0  0
    6.3073  -13.4421   26.5154 C   0  0  0  0  0  0  0  0  0  0  0  0
    5.9399  -12.1661   26.8646 C   0  0  0  0  0  0  0  0  0  0  0  0
    6.8062  -11.1291   26.6755 C   0  0  0  0  0  0  0  0  0  0  0  0
    8.0426  -11.3691   26.1357 C   0  0  0  0  0  0  0  0  0  0  0  0
    8.3886  -12.6504   25.7946 C   0  0  0  0  0  0  0  0  0  0  0  0
    7.5536  -13.7437   25.9631 C   0  0  0  0  0  0  0  0  0  0  0  0
    9.8725  -16.7345   23.1083 C   0  0  0  0  0  0  0  0  0  0  0  0
   10.2540  -17.9477   23.2642 O   0  0  0  0  0  0  0  0  0  0  0  0
    8.5825  -15.1267   17.1801 N   0  0  0  0  0  0  0  0  0  0  0  0
    8.8437  -13.8553   17.7870 C   0  0  0  0  0  0  0  0  0  0  0  0
    7.9081  -12.9455   17.8150 N   0  0  0  0  0  0  0  0  0  0  0  0
   10.1271  -13.6664   18.3278 N   0  0  0  0  0  0  0  0  0  0  0  0
   11.1027  -14.7829   18.1656 C   0  0  0  0  0  0  0  0  0  0  0  0
   10.9378  -15.6166   19.3883 C   0  0  0  0  0  0  0  0  0  0  0  0
   11.9998  -15.6531   20.3853 C   0  0  0  0  0  0  0  0  0  0  0  0
   11.8737  -16.4707   21.6222 C   0  0  2  0  0  0  0  0  0  0  0  0
   10.6616  -15.8828   22.3092 N   0  0  0  0  0  0  0  0  0  0  0  0
   12.9417  -16.1855   22.5884 C   0  0  0  0  0  0  0  0  0  0  0  0
   14.1957  -16.8225   22.4049 O   0  0  0  0  0  0  0  0  0  0  0  0
   12.8114  -15.4312   23.5462 O   0  0  0  0  0  0  0  0  0  0  0  0
  1  2  1  0
  2  3  1  0
  3  4  2  0
  5  6  1  0
  5  3  1  0
  6  7  1  1
  7  8  1  0
  8 16  1  0
  9 10  1  0
  9  8  2  0
 10 11  1  0
 11 16  2  0
 11 12  1  0
 12 13  2  0
 13 14  1  0
 15 14  2  0
 16 15  1  0
 17  6  1  0
 17 18  2  0
 20 19  1  0
 21 20  2  0
 22 20  1  0
 23 22  1  0
 24 23  1  0
 24 25  1  0
 26 27  1  0
 26 25  1  6
 27 17  1  0
 28 26  1  0
 29 28  1  0
 30 28  2  0
M  END
$$$$
