GWR.pdb
     RDKit          3D

 30 31  0  0  1  0  0  0  0  0999 V2000
    5.6351  -20.8646   23.3917 N   0  0  0  0  0  0  0  0  0  0  0  0
    5.4116  -19.7175   24.2296 C   0  0  0  0  0  0  0  0  0  0  0  0
    6.3015  -18.5790   23.8565 C   0  0  0  0  0  0  0  0  0  0  0  0
    6.1389  -18.0393   22.7320 O   0  0  0  0  0  0  0  0  0  0  0  0
    7.3132  -18.0796   24.7002 N   0  0  0  0  0  0  0  0  0  0  0  0
    8.1478  -16.9307   24.3718 C   0  0  1  0  0  0  0  0  0  0  0  0
    8.4384  -16.0880   25.5515 C   0  0  0  0  0  0  0  0  0  0  0  0
    7.3805  -15.2037   26.0273 C   0  0  0  0  0  0  0  0  0  0  0  0
    6.2791  -15.6363   26.7889 C   0  0  0  0  0  0  0  0  0  0  0  0
    5.5339  -14.5698   27.0630 N   0  0  0  0  0  0  0  0  0  0  0  0
    6.0661  -13.4383   26.5307 C   0  0  0  0  0  0  0  0  0  0  0  0
    5.6640  -12.1255   26.5427 C   0  0  0  0  0  0  0  0  0  0  0  0
    6.4083  -11.1765   25.9048 C   0  0  0  0  0  0  0  0  0  0  0  0
    7.5571  -11.5416   25.2531 C   0  0  0  0  0  0  0  0  0  0  0  0
    7.9398  -12.8573   25.2540 C   0  0  0  0  0  0  0  0  0  0  0  0
    7.2274  -13.8655   25.8840 C   0  0  0  0  0  0  0  0  0  0  0  0
    9.2944  -17.3555   23.5712 C   0  0  0  0  0  0  0  0  0  0  0  0
    9.9192  -18.4161   23.9265 O   0  0  0  0  0  0  0  0  0  0  0  0
   10.9174  -15.4523   16.1675 N   0  0  0  0  0  0  0  0  0  0  0  0
   12.1071  -16.2450   16.0717 C   0  0  0  0  0  0  0  0  0  0  0  0
   13.0478  -15.9041   15.2335 N   0  0  0  0  0  0  0  0  0  0  0  0
   12.1847  -17.3698   16.9108 N   0  0  0  0  0  0  0  0  0  0  0  0
   11.0691  -17.5712   17.8802 C   0  0  0  0  0  0  0  0  0  0  0  0
   11.5431  -16.9453   19.1454 C   0  0  0  0  0  0  0  0  0  0  0  0
   10.6023  -16.7184   20.2348 C   0  0  0  0  0  0  0  0  0  0  0  0
   10.8187  -17.3123   21.5819 C   0  0  2  0  0  0  0  0  0  0  0  0
    9.7439  -16.6662   22.4268 N   0  0  0  0  0  0  0  0  0  0  0  0
   12.0464  -16.8174   22.2169 C   0  0  0  0  0  0  0  0  0  0  0  0
   13.2255  -17.5949   22.0869 O   0  0  0  0  0  0  0  0  0  0  0  0
   12.1105  -15.7728   22.8556 O   0  0  0  0  0  0  0  0  0  0  0  0
  1  2  1  0
  2  3  1  0
  3  4  2  0
  5  6  1  0
  5  3  1  0
  6  7  1  1
  7  8  1  0
  8 16  1  0
  9 10  1  0
  9  8  2  0
 10 11  1  0
 11 16  2  0
 11 12  1  0
 12 13  2  0
 13 14  1  0
 15 14  2  0
 16 15  1  0
 17  6  1  0
 17 18  2  0
 20 19  1  0
 21 20  2  0
 22 20  1  0
 23 22  1  0
 24 23  1  0
 24 25  1  0
 26 27  1  0
 26 25  1  6
 27 17  1  0
 28 26  1  0
 29 28  1  0
 30 28  2  0
M  END
$$$$
