GWR.pdb
     RDKit          3D

 30 31  0  0  1  0  0  0  0  0999 V2000
    3.6993  -19.5385   22.0206 N   0  0  0  0  0  0  0  0  0  0  0  0
    4.6742  -19.6768   23.0687 C   0  0  0  0  0  0  0  0  0  0  0  0
    5.4080  -18.4004   23.3125 C   0  0  0  0  0  0  0  0  0  0  0  0
    5.4361  -17.5439   22.3918 O   0  0  0  0  0  0  0  0  0  0  0  0
    6.0699  -18.1078   24.5214 N   0  0  0  0  0  0  0  0  0  0  0  0
    6.8380  -16.8904   24.7500 C   0  0  1  0  0  0  0  0  0  0  0  0
    6.9117  -16.5296   26.1821 C   0  0  0  0  0  0  0  0  0  0  0  0
    7.6437  -15.3190   26.5371 C   0  0  0  0  0  0  0  0  0  0  0  0
    9.0247  -15.2869   26.8056 C   0  0  0  0  0  0  0  0  0  0  0  0
    9.3554  -14.0267   27.0704 N   0  0  0  0  0  0  0  0  0  0  0  0
    8.2779  -13.2016   26.9976 C   0  0  0  0  0  0  0  0  0  0  0  0
    8.1255  -11.8506   27.1892 C   0  0  0  0  0  0  0  0  0  0  0  0
    6.8959  -11.2751   27.0529 C   0  0  0  0  0  0  0  0  0  0  0  0
    5.8166  -12.0527   26.7244 C   0  0  0  0  0  0  0  0  0  0  0  0
    5.9915  -13.3989   26.5376 C   0  0  0  0  0  0  0  0  0  0  0  0
    7.2139  -14.0405   26.6609 C   0  0  0  0  0  0  0  0  0  0  0  0
    8.1046  -16.9519   24.0236 C   0  0  0  0  0  0  0  0  0  0  0  0
    8.6432  -18.1007   23.8452 O   0  0  0  0  0  0  0  0  0  0  0  0
    7.3841  -12.7899   18.0002 N   0  0  0  0  0  0  0  0  0  0  0  0
    8.1028  -13.8842   17.4181 C   0  0  0  0  0  0  0  0  0  0  0  0
    7.5854  -14.5394   16.4147 N   0  0  0  0  0  0  0  0  0  0  0  0
    9.3535  -14.1887   17.9823 N   0  0  0  0  0  0  0  0  0  0  0  0
    9.6856  -13.5422   19.2848 C   0  0  0  0  0  0  0  0  0  0  0  0
   10.0809  -14.6644   20.1799 C   0  0  0  0  0  0  0  0  0  0  0  0
    9.3692  -14.8717   21.4345 C   0  0  0  0  0  0  0  0  0  0  0  0
    9.6984  -16.0114   22.3329 C   0  0  2  0  0  0  0  0  0  0  0  0
    8.7602  -15.8179   23.5030 N   0  0  0  0  0  0  0  0  0  0  0  0
   11.0138  -15.8578   22.9665 C   0  0  0  0  0  0  0  0  0  0  0  0
   12.1653  -16.1654   22.1976 O   0  0  0  0  0  0  0  0  0  0  0  0
   11.1744  -15.4821   24.1225 O   0  0  0  0  0  0  0  0  0  0  0  0
  1  2  1  0
  2  3  1  0
  3  4  2  0
  5  6  1  0
  5  3  1  0
  6  7  1  1
  7  8  1  0
  8 16  1  0
  9 10  1  0
  9  8  2  0
 10 11  1  0
 11 16  2  0
 11 12  1  0
 12 13  2  0
 13 14  1  0
 15 14  2  0
 16 15  1  0
 17  6  1  0
 17 18  2  0
 20 19  1  0
 21 20  2  0
 22 20  1  0
 23 22  1  0
 24 23  1  0
 24 25  1  0
 26 27  1  0
 26 25  1  6
 27 17  1  0
 28 26  1  0
 29 28  1  0
 30 28  2  0
M  END
$$$$
