GWR.pdb
     RDKit          3D

 30 31  0  0  1  0  0  0  0  0999 V2000
    8.4214  -19.3324   19.6598 N   0  0  0  0  0  0  0  0  0  0  0  0
    7.7698  -18.5765   20.6951 C   0  0  0  0  0  0  0  0  0  0  0  0
    8.6414  -17.4802   21.2105 C   0  0  0  0  0  0  0  0  0  0  0  0
    9.8286  -17.4197   20.7996 O   0  0  0  0  0  0  0  0  0  0  0  0
    8.2008  -16.5112   22.1335 N   0  0  0  0  0  0  0  0  0  0  0  0
    9.0047  -15.3716   22.5571 C   0  0  1  0  0  0  0  0  0  0  0  0
    8.1797  -14.1894   22.8859 C   0  0  0  0  0  0  0  0  0  0  0  0
    7.4129  -14.2242   24.1262 C   0  0  0  0  0  0  0  0  0  0  0  0
    6.7762  -15.3765   24.6234 C   0  0  0  0  0  0  0  0  0  0  0  0
    6.1947  -15.0517   25.7740 N   0  0  0  0  0  0  0  0  0  0  0  0
    6.3998  -13.7450   26.0862 C   0  0  0  0  0  0  0  0  0  0  0  0
    6.0020  -12.9676   27.1457 C   0  0  0  0  0  0  0  0  0  0  0  0
    6.3564  -11.6511   27.1988 C   0  0  0  0  0  0  0  0  0  0  0  0
    7.1101  -11.1112   26.1898 C   0  0  0  0  0  0  0  0  0  0  0  0
    7.4963  -11.9053   25.1421 C   0  0  0  0  0  0  0  0  0  0  0  0
    7.1688  -13.2476   25.0324 C   0  0  0  0  0  0  0  0  0  0  0  0
    9.9794  -15.7908   23.5622 C   0  0  0  0  0  0  0  0  0  0  0  0
   10.9547  -15.0020   23.8233 O   0  0  0  0  0  0  0  0  0  0  0  0
    9.6695  -20.5996   30.0733 N   0  0  0  0  0  0  0  0  0  0  0  0
   10.9326  -20.0546   30.4742 C   0  0  0  0  0  0  0  0  0  0  0  0
   11.5948  -20.6057   31.4548 N   0  0  0  0  0  0  0  0  0  0  0  0
   11.3881  -18.9303   29.7645 N   0  0  0  0  0  0  0  0  0  0  0  0
   10.4336  -18.2995   28.8076 C   0  0  0  0  0  0  0  0  0  0  0  0
   10.9190  -18.7041   27.4594 C   0  0  0  0  0  0  0  0  0  0  0  0
   10.2509  -18.1942   26.2689 C   0  0  0  0  0  0  0  0  0  0  0  0
   10.9545  -17.3032   25.3071 C   0  0  2  0  0  0  0  0  0  0  0  0
    9.8996  -17.0106   24.2639 N   0  0  0  0  0  0  0  0  0  0  0  0
   11.9686  -18.0205   24.5245 C   0  0  0  0  0  0  0  0  0  0  0  0
   13.3343  -17.7897   24.8300 O   0  0  0  0  0  0  0  0  0  0  0  0
   11.7034  -18.8049   23.6203 O   0  0  0  0  0  0  0  0  0  0  0  0
  1  2  1  0
  2  3  1  0
  3  4  2  0
  5  6  1  0
  5  3  1  0
  6  7  1  1
  7  8  1  0
  8 16  1  0
  9 10  1  0
  9  8  2  0
 10 11  1  0
 11 16  2  0
 11 12  1  0
 12 13  2  0
 13 14  1  0
 15 14  2  0
 16 15  1  0
 17  6  1  0
 17 18  2  0
 20 19  1  0
 21 20  2  0
 22 20  1  0
 23 22  1  0
 24 23  1  0
 24 25  1  0
 26 27  1  0
 26 25  1  1
 27 17  1  0
 28 26  1  0
 29 28  1  0
 30 28  2  0
M  END
$$$$
