GWR.pdb
     RDKit          3D

 30 31  0  0  1  0  0  0  0  0999 V2000
    4.4156  -20.5172   23.6795 N   0  0  0  0  0  0  0  0  0  0  0  0
    5.8275  -20.2450   23.6817 C   0  0  0  0  0  0  0  0  0  0  0  0
    6.1095  -18.7878   23.5256 C   0  0  0  0  0  0  0  0  0  0  0  0
    5.3371  -18.1053   22.8047 O   0  0  0  0  0  0  0  0  0  0  0  0
    7.1965  -18.1398   24.1448 N   0  0  0  0  0  0  0  0  0  0  0  0
    7.4987  -16.7241   23.9754 C   0  0  1  0  0  0  0  0  0  0  0  0
    7.9805  -16.0960   25.2244 C   0  0  0  0  0  0  0  0  0  0  0  0
    7.1996  -14.9914   25.7701 C   0  0  0  0  0  0  0  0  0  0  0  0
    5.9180  -15.1386   26.3324 C   0  0  0  0  0  0  0  0  0  0  0  0
    5.5177  -13.9395   26.7442 N   0  0  0  0  0  0  0  0  0  0  0  0
    6.4539  -12.9868   26.4932 C   0  0  0  0  0  0  0  0  0  0  0  0
    6.4918  -11.6344   26.7276 C   0  0  0  0  0  0  0  0  0  0  0  0
    7.5844  -10.9065   26.3561 C   0  0  0  0  0  0  0  0  0  0  0  0
    8.6410  -11.5326   25.7487 C   0  0  0  0  0  0  0  0  0  0  0  0
    8.5821  -12.8832   25.5246 C   0  0  0  0  0  0  0  0  0  0  0  0
    7.5018  -13.6756   25.8795 C   0  0  0  0  0  0  0  0  0  0  0  0
    8.3196  -16.5251   22.7827 C   0  0  0  0  0  0  0  0  0  0  0  0
    9.2297  -17.3892   22.5250 O   0  0  0  0  0  0  0  0  0  0  0  0
    6.9872  -14.0761   14.7924 N   0  0  0  0  0  0  0  0  0  0  0  0
    8.3761  -13.7386   14.8923 C   0  0  0  0  0  0  0  0  0  0  0  0
    9.0649  -13.4995   13.8097 N   0  0  0  0  0  0  0  0  0  0  0  0
    8.9206  -13.6856   16.1869 N   0  0  0  0  0  0  0  0  0  0  0  0
    8.0125  -14.0283   17.3194 C   0  0  0  0  0  0  0  0  0  0  0  0
    8.8616  -13.9202   18.5378 C   0  0  0  0  0  0  0  0  0  0  0  0
    8.3243  -14.3261   19.8300 C   0  0  0  0  0  0  0  0  0  0  0  0
    8.8899  -15.4831   20.5755 C   0  0  2  0  0  0  0  0  0  0  0  0
    8.1586  -15.4394   21.8983 N   0  0  0  0  0  0  0  0  0  0  0  0
   10.2805  -15.2534   20.9866 C   0  0  0  0  0  0  0  0  0  0  0  0
   10.5121  -14.5151   22.1753 O   0  0  0  0  0  0  0  0  0  0  0  0
   11.2529  -15.6601   20.3602 O   0  0  0  0  0  0  0  0  0  0  0  0
  1  2  1  0
  2  3  1  0
  3  4  2  0
  5  6  1  0
  5  3  1  0
  6  7  1  1
  7  8  1  0
  8 16  1  0
  9 10  1  0
  9  8  2  0
 10 11  1  0
 11 16  2  0
 11 12  1  0
 12 13  2  0
 13 14  1  0
 15 14  2  0
 16 15  1  0
 17  6  1  0
 17 18  2  0
 20 19  1  0
 21 20  2  0
 22 20  1  0
 23 22  1  0
 24 23  1  0
 24 25  1  0
 26 27  1  0
 26 25  1  6
 27 17  1  0
 28 26  1  0
 29 28  1  0
 30 28  2  0
M  END
$$$$
