GWR.pdb
     RDKit          3D

 30 31  0  0  1  0  0  0  0  0999 V2000
    6.6620  -15.0999   19.9271 N   0  0  0  0  0  0  0  0  0  0  0  0
    6.7303  -16.0607   20.9947 C   0  0  0  0  0  0  0  0  0  0  0  0
    7.8540  -15.7665   21.9317 C   0  0  0  0  0  0  0  0  0  0  0  0
    8.7450  -14.9606   21.5592 O   0  0  0  0  0  0  0  0  0  0  0  0
    7.9661  -16.3462   23.2110 N   0  0  0  0  0  0  0  0  0  0  0  0
    9.0277  -16.0235   24.1561 C   0  0  1  0  0  0  0  0  0  0  0  0
    8.5362  -15.9311   25.5476 C   0  0  0  0  0  0  0  0  0  0  0  0
    7.4767  -14.9684   25.8275 C   0  0  0  0  0  0  0  0  0  0  0  0
    6.1192  -15.3128   25.9646 C   0  0  0  0  0  0  0  0  0  0  0  0
    5.4455  -14.1991   26.2354 N   0  0  0  0  0  0  0  0  0  0  0  0
    6.2678  -13.1184   26.2895 C   0  0  0  0  0  0  0  0  0  0  0  0
    6.0391  -11.7857   26.5278 C   0  0  0  0  0  0  0  0  0  0  0  0
    7.0775  -10.9007   26.5152 C   0  0  0  0  0  0  0  0  0  0  0  0
    8.3473  -11.3499   26.2634 C   0  0  0  0  0  0  0  0  0  0  0  0
    8.5529  -12.6842   26.0284 C   0  0  0  0  0  0  0  0  0  0  0  0
    7.5402  -13.6305   26.0288 C   0  0  0  0  0  0  0  0  0  0  0  0
   10.1846  -16.8863   23.9255 C   0  0  0  0  0  0  0  0  0  0  0  0
    9.9785  -18.1387   23.7505 O   0  0  0  0  0  0  0  0  0  0  0  0
   14.4131  -13.4169   19.0446 N   0  0  0  0  0  0  0  0  0  0  0  0
   14.3523  -14.7554   18.5371 C   0  0  0  0  0  0  0  0  0  0  0  0
   14.4833  -14.9700   17.2562 N   0  0  0  0  0  0  0  0  0  0  0  0
   14.1497  -15.7785   19.4792 N   0  0  0  0  0  0  0  0  0  0  0  0
   14.0878  -15.3766   20.9143 C   0  0  0  0  0  0  0  0  0  0  0  0
   13.9754  -16.6568   21.6663 C   0  0  0  0  0  0  0  0  0  0  0  0
   13.7241  -16.6309   23.1014 C   0  0  0  0  0  0  0  0  0  0  0  0
   12.6229  -17.4256   23.7097 C   0  0  2  0  0  0  0  0  0  0  0  0
   11.5117  -16.4138   23.8777 N   0  0  0  0  0  0  0  0  0  0  0  0
   12.9096  -17.7993   25.1003 C   0  0  0  0  0  0  0  0  0  0  0  0
   13.7590  -18.9115   25.3312 O   0  0  0  0  0  0  0  0  0  0  0  0
   12.4548  -17.2076   26.0731 O   0  0  0  0  0  0  0  0  0  0  0  0
  1  2  1  0
  2  3  1  0
  3  4  2  0
  5  6  1  0
  5  3  1  0
  6  7  1  1
  7  8  1  0
  8 16  1  0
  9 10  1  0
  9  8  2  0
 10 11  1  0
 11 16  2  0
 11 12  1  0
 12 13  2  0
 13 14  1  0
 15 14  2  0
 16 15  1  0
 17  6  1  0
 17 18  2  0
 20 19  1  0
 21 20  2  0
 22 20  1  0
 23 22  1  0
 24 23  1  0
 24 25  1  0
 26 27  1  0
 26 25  1  1
 27 17  1  0
 28 26  1  0
 29 28  1  0
 30 28  2  0
M  END
$$$$
