GWR.pdb
     RDKit          3D

 30 31  0  0  1  0  0  0  0  0999 V2000
    7.1406  -14.3281   19.8903 N   0  0  0  0  0  0  0  0  0  0  0  0
    7.2126  -15.4490   20.7883 C   0  0  0  0  0  0  0  0  0  0  0  0
    8.1509  -15.1910   21.9197 C   0  0  0  0  0  0  0  0  0  0  0  0
    8.9369  -14.2131   21.8309 O   0  0  0  0  0  0  0  0  0  0  0  0
    8.1997  -15.9877   23.0808 N   0  0  0  0  0  0  0  0  0  0  0  0
    9.1037  -15.7383   24.1966 C   0  0  1  0  0  0  0  0  0  0  0  0
    8.4263  -15.8441   25.5068 C   0  0  0  0  0  0  0  0  0  0  0  0
    7.3312  -14.9195   25.7779 C   0  0  0  0  0  0  0  0  0  0  0  0
    5.9804  -15.3051   25.8604 C   0  0  0  0  0  0  0  0  0  0  0  0
    5.2667  -14.2187   26.1393 N   0  0  0  0  0  0  0  0  0  0  0  0
    6.0556  -13.1176   26.2505 C   0  0  0  0  0  0  0  0  0  0  0  0
    5.7812  -11.7991   26.5178 C   0  0  0  0  0  0  0  0  0  0  0  0
    6.7937  -10.8857   26.5640 C   0  0  0  0  0  0  0  0  0  0  0  0
    8.0833  -11.2921   26.3421 C   0  0  0  0  0  0  0  0  0  0  0  0
    8.3344  -12.6129   26.0773 C   0  0  0  0  0  0  0  0  0  0  0  0
    7.3499  -13.5866   26.0180 C   0  0  0  0  0  0  0  0  0  0  0  0
   10.3326  -16.5114   24.0298 C   0  0  0  0  0  0  0  0  0  0  0  0
   11.1680  -16.5345   25.0009 O   0  0  0  0  0  0  0  0  0  0  0  0
   10.9197  -21.8686   17.7008 N   0  0  0  0  0  0  0  0  0  0  0  0
   11.5747  -21.5820   18.9424 C   0  0  0  0  0  0  0  0  0  0  0  0
   11.9641  -22.5619   19.7116 N   0  0  0  0  0  0  0  0  0  0  0  0
   11.7602  -20.2252   19.2591 N   0  0  0  0  0  0  0  0  0  0  0  0
   13.1538  -19.7810   19.5507 C   0  0  0  0  0  0  0  0  0  0  0  0
   13.1216  -19.3235   20.9673 C   0  0  0  0  0  0  0  0  0  0  0  0
   11.9530  -18.6125   21.4696 C   0  0  0  0  0  0  0  0  0  0  0  0
   11.9248  -18.0411   22.8432 C   0  0  2  0  0  0  0  0  0  0  0  0
   10.6436  -17.2380   22.8627 N   0  0  0  0  0  0  0  0  0  0  0  0
   12.9420  -16.9997   23.0330 C   0  0  0  0  0  0  0  0  0  0  0  0
   12.6849  -15.7102   22.5012 O   0  0  0  0  0  0  0  0  0  0  0  0
   14.0021  -17.1810   23.6219 O   0  0  0  0  0  0  0  0  0  0  0  0
  1  2  1  0
  2  3  1  0
  3  4  2  0
  5  6  1  0
  5  3  1  0
  6  7  1  1
  7  8  1  0
  8 16  1  0
  9 10  1  0
  9  8  2  0
 10 11  1  0
 11 16  2  0
 11 12  1  0
 12 13  2  0
 13 14  1  0
 15 14  2  0
 16 15  1  0
 17  6  1  0
 17 18  2  0
 20 19  1  0
 21 20  2  0
 22 20  1  0
 23 22  1  0
 24 23  1  0
 24 25  1  0
 26 27  1  0
 26 25  1  6
 27 17  1  0
 28 26  1  0
 29 28  1  0
 30 28  2  0
M  END
$$$$
