GWR.pdb
     RDKit          3D

 30 31  0  0  1  0  0  0  0  0999 V2000
    4.2896  -18.2610   21.6916 N   0  0  0  0  0  0  0  0  0  0  0  0
    5.3720  -18.6453   22.5568 C   0  0  0  0  0  0  0  0  0  0  0  0
    6.3536  -17.5361   22.7396 C   0  0  0  0  0  0  0  0  0  0  0  0
    6.3266  -16.5765   21.9270 O   0  0  0  0  0  0  0  0  0  0  0  0
    7.3077  -17.5109   23.7760 N   0  0  0  0  0  0  0  0  0  0  0  0
    8.3119  -16.4655   23.9271 C   0  0  1  0  0  0  0  0  0  0  0  0
    8.4070  -15.9701   25.3170 C   0  0  0  0  0  0  0  0  0  0  0  0
    7.3323  -15.1122   25.8036 C   0  0  0  0  0  0  0  0  0  0  0  0
    6.0635  -15.5846   26.1874 C   0  0  0  0  0  0  0  0  0  0  0  0
    5.3499  -14.5394   26.5949 N   0  0  0  0  0  0  0  0  0  0  0  0
    6.0615  -13.3846   26.5093 C   0  0  0  0  0  0  0  0  0  0  0  0
    5.7561  -12.0790   26.8048 C   0  0  0  0  0  0  0  0  0  0  0  0
    6.6849  -11.0987   26.6105 C   0  0  0  0  0  0  0  0  0  0  0  0
    7.9218  -11.4251   26.1193 C   0  0  0  0  0  0  0  0  0  0  0  0
    8.2053  -12.7345   25.8314 C   0  0  0  0  0  0  0  0  0  0  0  0
    7.3052  -13.7735   26.0081 C   0  0  0  0  0  0  0  0  0  0  0  0
    9.5621  -16.8743   23.2900 C   0  0  0  0  0  0  0  0  0  0  0  0
    9.9646  -18.0777   23.4670 O   0  0  0  0  0  0  0  0  0  0  0  0
    7.6316  -13.1726   18.6297 N   0  0  0  0  0  0  0  0  0  0  0  0
    8.4269  -13.7875   17.6087 C   0  0  0  0  0  0  0  0  0  0  0  0
    8.2398  -13.4641   16.3580 N   0  0  0  0  0  0  0  0  0  0  0  0
    9.3837  -14.7252   18.0336 N   0  0  0  0  0  0  0  0  0  0  0  0
    9.9632  -14.5339   19.3946 C   0  0  0  0  0  0  0  0  0  0  0  0
   10.9903  -15.6037   19.5276 C   0  0  0  0  0  0  0  0  0  0  0  0
   11.8417  -15.6436   20.7095 C   0  0  0  0  0  0  0  0  0  0  0  0
   11.5759  -16.5925   21.8244 C   0  0  2  0  0  0  0  0  0  0  0  0
   10.3431  -16.0193   22.4865 N   0  0  0  0  0  0  0  0  0  0  0  0
   12.5754  -16.4869   22.8945 C   0  0  0  0  0  0  0  0  0  0  0  0
   13.8613  -17.0393   22.6641 O   0  0  0  0  0  0  0  0  0  0  0  0
   12.3620  -15.9517   23.9768 O   0  0  0  0  0  0  0  0  0  0  0  0
  1  2  1  0
  2  3  1  0
  3  4  2  0
  5  6  1  0
  5  3  1  0
  6  7  1  1
  7  8  1  0
  8 16  1  0
  9 10  1  0
  9  8  2  0
 10 11  1  0
 11 16  2  0
 11 12  1  0
 12 13  2  0
 13 14  1  0
 15 14  2  0
 16 15  1  0
 17  6  1  0
 17 18  2  0
 20 19  1  0
 21 20  2  0
 22 20  1  0
 23 22  1  0
 24 23  1  0
 24 25  1  0
 26 27  1  0
 26 25  1  6
 27 17  1  0
 28 26  1  0
 29 28  1  0
 30 28  2  0
M  END
$$$$
