GWR.pdb
     RDKit          3D

 30 31  0  0  1  0  0  0  0  0999 V2000
    5.5928  -21.2977   21.9790 N   0  0  0  0  0  0  0  0  0  0  0  0
    5.7707  -20.7554   23.2989 C   0  0  0  0  0  0  0  0  0  0  0  0
    6.5225  -19.4665   23.2700 C   0  0  0  0  0  0  0  0  0  0  0  0
    7.3609  -19.2863   22.3498 O   0  0  0  0  0  0  0  0  0  0  0  0
    6.3399  -18.4433   24.2211 N   0  0  0  0  0  0  0  0  0  0  0  0
    7.1244  -17.2152   24.2501 C   0  0  1  0  0  0  0  0  0  0  0  0
    6.3555  -16.0662   24.7746 C   0  0  0  0  0  0  0  0  0  0  0  0
    6.9277  -14.7355   24.6029 C   0  0  0  0  0  0  0  0  0  0  0  0
    7.5743  -14.3043   23.4298 C   0  0  0  0  0  0  0  0  0  0  0  0
    7.9481  -13.0420   23.6154 N   0  0  0  0  0  0  0  0  0  0  0  0
    7.5927  -12.5918   24.8476 C   0  0  0  0  0  0  0  0  0  0  0  0
    7.7623  -11.3864   25.4828 C   0  0  0  0  0  0  0  0  0  0  0  0
    7.2979  -11.2119   26.7538 C   0  0  0  0  0  0  0  0  0  0  0  0
    6.6628  -12.2456   27.3908 C   0  0  0  0  0  0  0  0  0  0  0  0
    6.5043  -13.4399   26.7380 C   0  0  0  0  0  0  0  0  0  0  0  0
    6.9527  -13.6774   25.4483 C   0  0  0  0  0  0  0  0  0  0  0  0
    8.4275  -17.4661   24.8622 C   0  0  0  0  0  0  0  0  0  0  0  0
    8.4729  -18.2168   25.8996 O   0  0  0  0  0  0  0  0  0  0  0  0
   14.0624  -17.8029   19.3050 N   0  0  0  0  0  0  0  0  0  0  0  0
   14.3858  -18.9195   20.1427 C   0  0  0  0  0  0  0  0  0  0  0  0
   15.0593  -19.9244   19.6525 N   0  0  0  0  0  0  0  0  0  0  0  0
   13.9438  -18.8569   21.4754 N   0  0  0  0  0  0  0  0  0  0  0  0
   13.0698  -17.7068   21.8470 C   0  0  0  0  0  0  0  0  0  0  0  0
   12.8891  -17.8232   23.3203 C   0  0  0  0  0  0  0  0  0  0  0  0
   11.9624  -16.9321   24.0062 C   0  0  0  0  0  0  0  0  0  0  0  0
   10.9327  -17.4571   24.9435 C   0  0  2  0  0  0  0  0  0  0  0  0
    9.6357  -16.9338   24.3686 N   0  0  0  0  0  0  0  0  0  0  0  0
   10.9794  -16.7905   26.2507 C   0  0  0  0  0  0  0  0  0  0  0  0
   11.8222  -17.3399   27.2507 O   0  0  0  0  0  0  0  0  0  0  0  0
   10.3299  -15.7885   26.5290 O   0  0  0  0  0  0  0  0  0  0  0  0
  1  2  1  0
  2  3  1  0
  3  4  2  0
  5  6  1  0
  5  3  1  0
  6  7  1  1
  7  8  1  0
  8 16  1  0
  9 10  1  0
  9  8  2  0
 10 11  1  0
 11 16  2  0
 11 12  1  0
 12 13  2  0
 13 14  1  0
 15 14  2  0
 16 15  1  0
 17  6  1  0
 17 18  2  0
 20 19  1  0
 21 20  2  0
 22 20  1  0
 23 22  1  0
 24 23  1  0
 24 25  1  0
 26 27  1  0
 26 25  1  6
 27 17  1  0
 28 26  1  0
 29 28  1  0
 30 28  2  0
M  END
$$$$
