GWR.pdb
     RDKit          3D

 30 31  0  0  1  0  0  0  0  0999 V2000
   11.0190  -16.2897   19.9461 N   0  0  0  0  0  0  0  0  0  0  0  0
   10.0124  -17.1074   20.5675 C   0  0  0  0  0  0  0  0  0  0  0  0
    9.8941  -16.8236   22.0278 C   0  0  0  0  0  0  0  0  0  0  0  0
   10.8639  -16.2715   22.6081 O   0  0  0  0  0  0  0  0  0  0  0  0
    8.7514  -17.1433   22.7876 N   0  0  0  0  0  0  0  0  0  0  0  0
    8.6371  -16.8996   24.2200 C   0  0  1  0  0  0  0  0  0  0  0  0
    7.3625  -16.2428   24.5812 C   0  0  0  0  0  0  0  0  0  0  0  0
    7.2227  -14.8238   24.2737 C   0  0  0  0  0  0  0  0  0  0  0  0
    7.1972  -14.3025   22.9668 C   0  0  0  0  0  0  0  0  0  0  0  0
    7.0372  -12.9860   23.0604 N   0  0  0  0  0  0  0  0  0  0  0  0
    6.9530  -12.5837   24.3558 C   0  0  0  0  0  0  0  0  0  0  0  0
    6.7934  -11.3510   24.9391 C   0  0  0  0  0  0  0  0  0  0  0  0
    6.7474  -11.2385   26.2981 C   0  0  0  0  0  0  0  0  0  0  0  0
    6.8615  -12.3614   27.0751 C   0  0  0  0  0  0  0  0  0  0  0  0
    7.0199  -13.5815   26.4719 C   0  0  0  0  0  0  0  0  0  0  0  0
    7.0731  -13.7598   25.0985 C   0  0  0  0  0  0  0  0  0  0  0  0
    8.9858  -18.1080   24.9644 C   0  0  0  0  0  0  0  0  0  0  0  0
    8.5421  -19.2307   24.5351 O   0  0  0  0  0  0  0  0  0  0  0  0
   14.0283  -18.9496   31.1676 N   0  0  0  0  0  0  0  0  0  0  0  0
   13.5689  -17.9540   30.2453 C   0  0  0  0  0  0  0  0  0  0  0  0
   13.1242  -16.8114   30.6929 N   0  0  0  0  0  0  0  0  0  0  0  0
   13.6292  -18.2831   28.8803 N   0  0  0  0  0  0  0  0  0  0  0  0
   13.6091  -19.7329   28.5304 C   0  0  0  0  0  0  0  0  0  0  0  0
   12.5680  -19.8576   27.4733 C   0  0  0  0  0  0  0  0  0  0  0  0
   11.3198  -19.1162   27.5988 C   0  0  0  0  0  0  0  0  0  0  0  0
   10.1401  -19.4355   26.7499 C   0  0  2  0  0  0  0  0  0  0  0  0
    9.7891  -18.1051   26.1226 N   0  0  0  0  0  0  0  0  0  0  0  0
    8.9422  -19.7233   27.5483 C   0  0  0  0  0  0  0  0  0  0  0  0
    8.8013  -21.0241   28.0960 O   0  0  0  0  0  0  0  0  0  0  0  0
    8.0552  -18.9053   27.7665 O   0  0  0  0  0  0  0  0  0  0  0  0
  1  2  1  0
  2  3  1  0
  3  4  2  0
  5  6  1  0
  5  3  1  0
  6  7  1  6
  7  8  1  0
  8 16  1  0
  9 10  1  0
  9  8  2  0
 10 11  1  0
 11 16  2  0
 11 12  1  0
 12 13  2  0
 13 14  1  0
 15 14  2  0
 16 15  1  0
 17  6  1  0
 17 18  2  0
 20 19  1  0
 21 20  2  0
 22 20  1  0
 23 22  1  0
 24 23  1  0
 24 25  1  0
 26 27  1  0
 26 25  1  1
 27 17  1  0
 28 26  1  0
 29 28  1  0
 30 28  2  0
M  END
$$$$
