GWR.pdb
     RDKit          3D

 30 31  0  0  1  0  0  0  0  0999 V2000
    5.3008  -17.8852   20.5315 N   0  0  0  0  0  0  0  0  0  0  0  0
    5.7476  -18.2221   21.8562 C   0  0  0  0  0  0  0  0  0  0  0  0
    6.8064  -17.2866   22.3367 C   0  0  0  0  0  0  0  0  0  0  0  0
    7.2005  -16.3816   21.5572 O   0  0  0  0  0  0  0  0  0  0  0  0
    7.3857  -17.3671   23.6185 N   0  0  0  0  0  0  0  0  0  0  0  0
    8.5331  -16.5732   24.0400 C   0  0  1  0  0  0  0  0  0  0  0  0
    8.4547  -16.1785   25.4629 C   0  0  0  0  0  0  0  0  0  0  0  0
    7.4201  -15.2233   25.8431 C   0  0  0  0  0  0  0  0  0  0  0  0
    6.1165  -15.5892   26.2267 C   0  0  0  0  0  0  0  0  0  0  0  0
    5.4551  -14.4747   26.5235 N   0  0  0  0  0  0  0  0  0  0  0  0
    6.2349  -13.3732   26.3628 C   0  0  0  0  0  0  0  0  0  0  0  0
    5.9989  -12.0320   26.5385 C   0  0  0  0  0  0  0  0  0  0  0  0
    6.9881  -11.1255   26.2908 C   0  0  0  0  0  0  0  0  0  0  0  0
    8.2158  -11.5616   25.8662 C   0  0  0  0  0  0  0  0  0  0  0  0
    8.4295  -12.9046   25.6978 C   0  0  0  0  0  0  0  0  0  0  0  0
    7.4660  -13.8726   25.9337 C   0  0  0  0  0  0  0  0  0  0  0  0
    9.7731  -17.2123   23.6044 C   0  0  0  0  0  0  0  0  0  0  0  0
    9.9158  -18.4664   23.8246 O   0  0  0  0  0  0  0  0  0  0  0  0
   11.8956  -16.2125   16.6044 N   0  0  0  0  0  0  0  0  0  0  0  0
   12.1154  -17.6194   16.7641 C   0  0  0  0  0  0  0  0  0  0  0  0
   12.6119  -18.3144   15.7772 N   0  0  0  0  0  0  0  0  0  0  0  0
   11.7720  -18.1739   18.0090 N   0  0  0  0  0  0  0  0  0  0  0  0
   11.4357  -17.2214   19.1065 C   0  0  0  0  0  0  0  0  0  0  0  0
   12.5910  -17.2925   20.0430 C   0  0  0  0  0  0  0  0  0  0  0  0
   12.5211  -16.6094   21.3283 C   0  0  0  0  0  0  0  0  0  0  0  0
   12.0463  -17.3089   22.5528 C   0  0  2  0  0  0  0  0  0  0  0  0
   10.8151  -16.5256   22.9492 N   0  0  0  0  0  0  0  0  0  0  0  0
   12.9343  -17.0852   23.7004 C   0  0  0  0  0  0  0  0  0  0  0  0
   14.1341  -17.8382   23.7730 O   0  0  0  0  0  0  0  0  0  0  0  0
   12.6973  -16.2876   24.6009 O   0  0  0  0  0  0  0  0  0  0  0  0
  1  2  1  0
  2  3  1  0
  3  4  2  0
  5  6  1  0
  5  3  1  0
  6  7  1  1
  7  8  1  0
  8 16  1  0
  9 10  1  0
  9  8  2  0
 10 11  1  0
 11 16  2  0
 11 12  1  0
 12 13  2  0
 13 14  1  0
 15 14  2  0
 16 15  1  0
 17  6  1  0
 17 18  2  0
 20 19  1  0
 21 20  2  0
 22 20  1  0
 23 22  1  0
 24 23  1  0
 24 25  1  0
 26 27  1  0
 26 25  1  6
 27 17  1  0
 28 26  1  0
 29 28  1  0
 30 28  2  0
M  END
$$$$
