AHG.pdb
     RDKit          3D

 20 20  0  0  1  0  0  0  0  0999 V2000
   21.8727  -11.0399  -19.2862 C   0  0  0  0  0  0  0  0  0  0  0  0
   22.7756  -10.2948  -18.3286 C   0  0  2  0  0  0  0  0  0  0  0  0
   23.5339  -11.1890  -17.4879 N   0  0  0  0  0  0  0  0  0  0  0  0
   21.8984   -9.4555  -17.4485 C   0  0  0  0  0  0  0  0  0  0  0  0
   21.0981   -8.6119  -17.9568 O   0  0  0  0  0  0  0  0  0  0  0  0
   21.9243   -9.5660  -16.0329 N   0  0  0  0  0  0  0  0  0  0  0  0
   20.9871   -8.7703  -15.2054 C   0  0  1  0  0  0  0  0  0  0  0  0
   20.2896   -9.7526  -14.3140 C   0  0  0  0  0  0  0  0  0  0  0  0
   19.1482  -10.4618  -14.8959 C   0  0  0  0  0  0  0  0  0  0  0  0
   18.6259  -10.3271  -16.1686 C   0  0  0  0  0  0  0  0  0  0  0  0
   17.5722  -11.1513  -16.3343 N   0  0  0  0  0  0  0  0  0  0  0  0
   17.4149  -11.8133  -15.1780 C   0  0  0  0  0  0  0  0  0  0  0  0
   18.3557  -11.4062  -14.3094 N   0  0  0  0  0  0  0  0  0  0  0  0
   21.6994   -7.6866  -14.5258 C   0  0  0  0  0  0  0  0  0  0  0  0
   22.7842   -7.9639  -13.9293 O   0  0  0  0  0  0  0  0  0  0  0  0
   21.2960   -6.3311  -14.4660 N   0  0  0  0  0  0  0  0  0  0  0  0
   22.1060   -5.3344  -13.7599 C   0  0  0  0  0  0  0  0  0  0  0  0
   21.4847   -3.9989  -13.8221 C   0  0  0  0  0  0  0  0  0  0  0  0
   20.4641   -3.7159  -14.5001 O   0  0  0  0  0  0  0  0  0  0  0  0
   22.0596   -2.9751  -13.0836 O   0  0  0  0  0  0  0  0  0  0  0  0
  2  1  1  6
  2  4  1  0
  2  3  1  0
  4  5  2  0
  6  7  1  0
  6  4  1  0
  7  8  1  1
  9  8  1  0
 10  9  2  0
 11 10  1  0
 12 11  1  0
 12 13  2  0
 13  9  1  0
 14 15  2  0
 14  7  1  0
 16 14  1  0
 17 16  1  0
 18 17  1  0
 19 18  2  0
 20 18  1  0
M  END
$$$$
