AHG.pdb
     RDKit          3D

 20 20  0  0  1  0  0  0  0  0999 V2000
   19.8283  -10.3753  -18.6345 C   0  0  0  0  0  0  0  0  0  0  0  0
   21.2293  -10.9307  -18.5067 C   0  0  2  0  0  0  0  0  0  0  0  0
   21.2412  -12.3726  -18.4602 N   0  0  0  0  0  0  0  0  0  0  0  0
   21.7984  -10.4159  -17.2183 C   0  0  0  0  0  0  0  0  0  0  0  0
   21.3897  -10.8737  -16.1076 O   0  0  0  0  0  0  0  0  0  0  0  0
   22.8018   -9.4114  -17.1855 N   0  0  0  0  0  0  0  0  0  0  0  0
   23.2576   -8.8546  -15.8900 C   0  0  1  0  0  0  0  0  0  0  0  0
   24.7542   -8.8185  -15.9615 C   0  0  0  0  0  0  0  0  0  0  0  0
   25.4392  -10.1112  -15.8976 C   0  0  0  0  0  0  0  0  0  0  0  0
   24.8721  -11.3661  -15.7786 C   0  0  0  0  0  0  0  0  0  0  0  0
   25.8296  -12.3146  -15.7527 N   0  0  0  0  0  0  0  0  0  0  0  0
   27.0061  -11.6776  -15.8543 C   0  0  0  0  0  0  0  0  0  0  0  0
   26.7817  -10.3557  -15.9416 N   0  0  0  0  0  0  0  0  0  0  0  0
   22.6009   -7.5732  -15.6253 C   0  0  0  0  0  0  0  0  0  0  0  0
   22.3449   -6.8159  -16.6105 O   0  0  0  0  0  0  0  0  0  0  0  0
   22.2107   -7.0814  -14.3566 N   0  0  0  0  0  0  0  0  0  0  0  0
   21.4046   -5.8633  -14.2359 C   0  0  0  0  0  0  0  0  0  0  0  0
   22.1867   -4.6665  -14.5951 C   0  0  0  0  0  0  0  0  0  0  0  0
   21.7078   -3.6321  -15.1264 O   0  0  0  0  0  0  0  0  0  0  0  0
   23.5487   -4.6720  -14.3322 O   0  0  0  0  0  0  0  0  0  0  0  0
  2  1  1  1
  2  4  1  0
  2  3  1  0
  4  5  2  0
  6  7  1  0
  6  4  1  0
  7  8  1  6
  9  8  1  0
 10  9  2  0
 11 10  1  0
 12 11  1  0
 12 13  2  0
 13  9  1  0
 14 15  2  0
 14  7  1  0
 16 14  1  0
 17 16  1  0
 18 17  1  0
 19 18  2  0
 20 18  1  0
M  END
$$$$
