AHG.pdb
     RDKit          3D

 20 20  0  0  1  0  0  0  0  0999 V2000
   24.2113  -21.0387   -8.8463 C   0  0  0  0  0  0  0  0  0  0  0  0
   25.6842  -20.9921   -9.1870 C   0  0  2  0  0  0  0  0  0  0  0  0
   26.4421  -20.2312   -8.2237 N   0  0  0  0  0  0  0  0  0  0  0  0
   25.8133  -20.3198  -10.5211 C   0  0  0  0  0  0  0  0  0  0  0  0
   26.0278  -19.0711  -10.5927 O   0  0  0  0  0  0  0  0  0  0  0  0
   25.7032  -21.0383  -11.7412 N   0  0  0  0  0  0  0  0  0  0  0  0
   25.8905  -20.3423  -13.0361 C   0  0  1  0  0  0  0  0  0  0  0  0
   27.1353  -20.9207  -13.6377 C   0  0  0  0  0  0  0  0  0  0  0  0
   28.3663  -20.7640  -12.8603 C   0  0  0  0  0  0  0  0  0  0  0  0
   29.0967  -21.7485  -12.2219 C   0  0  0  0  0  0  0  0  0  0  0  0
   30.1716  -21.2139  -11.6086 N   0  0  0  0  0  0  0  0  0  0  0  0
   30.1359  -19.8944  -11.8489 C   0  0  0  0  0  0  0  0  0  0  0  0
   29.0565  -19.6154  -12.5989 N   0  0  0  0  0  0  0  0  0  0  0  0
   24.6795  -20.4474  -13.8522 C   0  0  0  0  0  0  0  0  0  0  0  0
   24.0953  -21.5718  -13.9161 O   0  0  0  0  0  0  0  0  0  0  0  0
   24.0778  -19.4011  -14.5917 N   0  0  0  0  0  0  0  0  0  0  0  0
   22.8627  -19.6355  -15.3770 C   0  0  0  0  0  0  0  0  0  0  0  0
   21.6514  -19.3592  -14.5834 C   0  0  0  0  0  0  0  0  0  0  0  0
   21.1734  -20.1332  -13.7150 O   0  0  0  0  0  0  0  0  0  0  0  0
   20.9843  -18.1630  -14.8030 O   0  0  0  0  0  0  0  0  0  0  0  0
  2  1  1  1
  2  4  1  0
  2  3  1  0
  4  5  2  0
  6  7  1  0
  6  4  1  0
  7  8  1  6
  9  8  1  0
 10  9  2  0
 11 10  1  0
 12 11  1  0
 12 13  2  0
 13  9  1  0
 14 15  2  0
 14  7  1  0
 16 14  1  0
 17 16  1  0
 18 17  1  0
 19 18  2  0
 20 18  1  0
M  END
$$$$
