AHG.pdb
     RDKit          3D

 20 20  0  0  1  0  0  0  0  0999 V2000
   23.4699  -11.7684  -14.2910 C   0  0  0  0  0  0  0  0  0  0  0  0
   23.0578  -11.6709  -15.7430 C   0  0  2  0  0  0  0  0  0  0  0  0
   23.8908  -12.4783  -16.6007 N   0  0  0  0  0  0  0  0  0  0  0  0
   23.2109  -10.2375  -16.1558 C   0  0  0  0  0  0  0  0  0  0  0  0
   24.3085   -9.8222  -16.6386 O   0  0  0  0  0  0  0  0  0  0  0  0
   22.1531   -9.2987  -16.0268 N   0  0  0  0  0  0  0  0  0  0  0  0
   22.2984   -7.9309  -16.5782 C   0  0  1  0  0  0  0  0  0  0  0  0
   21.3126   -7.8339  -17.7029 C   0  0  0  0  0  0  0  0  0  0  0  0
   21.6081   -8.6291  -18.8965 C   0  0  0  0  0  0  0  0  0  0  0  0
   22.7171   -8.5458  -19.7173 C   0  0  0  0  0  0  0  0  0  0  0  0
   22.6304   -9.4451  -20.7178 N   0  0  0  0  0  0  0  0  0  0  0  0
   21.4746  -10.1041  -20.5449 C   0  0  0  0  0  0  0  0  0  0  0  0
   20.8548   -9.6214  -19.4549 N   0  0  0  0  0  0  0  0  0  0  0  0
   22.1539   -6.9339  -15.5159 C   0  0  0  0  0  0  0  0  0  0  0  0
   21.2945   -7.1464  -14.6071 O   0  0  0  0  0  0  0  0  0  0  0  0
   22.8914   -5.7319  -15.3930 N   0  0  0  0  0  0  0  0  0  0  0  0
   22.7105   -4.8518  -14.2351 C   0  0  0  0  0  0  0  0  0  0  0  0
   21.5062   -4.0145  -14.3827 C   0  0  0  0  0  0  0  0  0  0  0  0
   20.7238   -4.0541  -15.3665 O   0  0  0  0  0  0  0  0  0  0  0  0
   21.2061   -3.1159  -13.3695 O   0  0  0  0  0  0  0  0  0  0  0  0
  2  1  1  1
  2  4  1  0
  2  3  1  0
  4  5  2  0
  6  7  1  0
  6  4  1  0
  7  8  1  6
  9  8  1  0
 10  9  2  0
 11 10  1  0
 12 11  1  0
 12 13  2  0
 13  9  1  0
 14 15  2  0
 14  7  1  0
 16 14  1  0
 17 16  1  0
 18 17  1  0
 19 18  2  0
 20 18  1  0
M  END
$$$$
