AHG.pdb
     RDKit          3D

 20 20  0  0  1  0  0  0  0  0999 V2000
   11.8837  -11.0498  -13.6887 C   0  0  0  0  0  0  0  0  0  0  0  0
   12.7510  -12.1611  -14.2370 C   0  0  2  0  0  0  0  0  0  0  0  0
   12.6871  -13.3523  -13.4257 N   0  0  0  0  0  0  0  0  0  0  0  0
   14.1667  -11.6667  -14.2326 C   0  0  0  0  0  0  0  0  0  0  0  0
   14.8506  -11.6877  -13.1639 O   0  0  0  0  0  0  0  0  0  0  0  0
   14.7927  -11.1624  -15.4033 N   0  0  0  0  0  0  0  0  0  0  0  0
   16.2192  -10.7618  -15.3726 C   0  0  1  0  0  0  0  0  0  0  0  0
   16.9201  -11.6613  -16.3451 C   0  0  0  0  0  0  0  0  0  0  0  0
   17.0875  -13.0570  -15.9351 C   0  0  0  0  0  0  0  0  0  0  0  0
   18.1191  -13.6056  -15.1966 C   0  0  0  0  0  0  0  0  0  0  0  0
   17.9211  -14.9275  -15.0213 N   0  0  0  0  0  0  0  0  0  0  0  0
   16.7707  -15.2306  -15.6416 C   0  0  0  0  0  0  0  0  0  0  0  0
   16.2636  -14.1149  -16.1925 N   0  0  0  0  0  0  0  0  0  0  0  0
   16.3519   -9.3254  -15.6229 C   0  0  0  0  0  0  0  0  0  0  0  0
   15.6403   -8.8079  -16.5370 O   0  0  0  0  0  0  0  0  0  0  0  0
   17.2086   -8.4336  -14.9342 N   0  0  0  0  0  0  0  0  0  0  0  0
   17.1943   -6.9976  -15.2271 C   0  0  0  0  0  0  0  0  0  0  0  0
   18.1597   -6.2699  -14.3834 C   0  0  0  0  0  0  0  0  0  0  0  0
   18.8848   -6.8022  -13.5046 O   0  0  0  0  0  0  0  0  0  0  0  0
   18.2844   -4.9004  -14.5644 O   0  0  0  0  0  0  0  0  0  0  0  0
  2  1  1  1
  2  4  1  0
  2  3  1  0
  4  5  2  0
  6  7  1  0
  6  4  1  0
  7  8  1  6
  9  8  1  0
 10  9  2  0
 11 10  1  0
 12 11  1  0
 12 13  2  0
 13  9  1  0
 14 15  2  0
 14  7  1  0
 16 14  1  0
 17 16  1  0
 18 17  1  0
 19 18  2  0
 20 18  1  0
M  END
$$$$
