AHG.pdb
     RDKit          3D

 20 20  0  0  1  0  0  0  0  0999 V2000
   23.9090  -15.6443  -19.3517 C   0  0  0  0  0  0  0  0  0  0  0  0
   25.0565  -16.3320  -18.6461 C   0  0  2  0  0  0  0  0  0  0  0  0
   26.0926  -16.7413  -19.5628 N   0  0  0  0  0  0  0  0  0  0  0  0
   24.5038  -17.5596  -17.9855 C   0  0  0  0  0  0  0  0  0  0  0  0
   24.1662  -18.5659  -18.6810 O   0  0  0  0  0  0  0  0  0  0  0  0
   24.3371  -17.6480  -16.5780 N   0  0  0  0  0  0  0  0  0  0  0  0
   23.9876  -18.9433  -15.9483 C   0  0  1  0  0  0  0  0  0  0  0  0
   25.1295  -19.2793  -15.0378 C   0  0  0  0  0  0  0  0  0  0  0  0
   26.3017  -19.8936  -15.6648 C   0  0  0  0  0  0  0  0  0  0  0  0
   26.5105  -20.1448  -17.0079 C   0  0  0  0  0  0  0  0  0  0  0  0
   27.7135  -20.7229  -17.1969 N   0  0  0  0  0  0  0  0  0  0  0  0
   28.2776  -20.8443  -15.9856 C   0  0  0  0  0  0  0  0  0  0  0  0
   27.4379  -20.3495  -15.0606 N   0  0  0  0  0  0  0  0  0  0  0  0
   22.6696  -18.8645  -15.3157 C   0  0  0  0  0  0  0  0  0  0  0  0
   22.4022  -17.8431  -14.6123 O   0  0  0  0  0  0  0  0  0  0  0  0
   21.6386  -19.8297  -15.4115 N   0  0  0  0  0  0  0  0  0  0  0  0
   20.3132  -19.5759  -14.8397 C   0  0  0  0  0  0  0  0  0  0  0  0
   20.1424  -20.2763  -13.5538 C   0  0  0  0  0  0  0  0  0  0  0  0
   19.0887  -20.2644  -12.8674 O   0  0  0  0  0  0  0  0  0  0  0  0
   21.2146  -21.0029  -13.0572 O   0  0  0  0  0  0  0  0  0  0  0  0
  2  1  1  6
  2  4  1  0
  2  3  1  0
  4  5  2  0
  6  7  1  0
  6  4  1  0
  7  8  1  1
  9  8  1  0
 10  9  2  0
 11 10  1  0
 12 11  1  0
 12 13  2  0
 13  9  1  0
 14 15  2  0
 14  7  1  0
 16 14  1  0
 17 16  1  0
 18 17  1  0
 19 18  2  0
 20 18  1  0
M  END
$$$$
