AHG.pdb
     RDKit          3D

 20 20  0  0  1  0  0  0  0  0999 V2000
   20.0857   -7.8242  -19.2707 C   0  0  0  0  0  0  0  0  0  0  0  0
   20.9722   -8.9493  -18.7849 C   0  0  2  0  0  0  0  0  0  0  0  0
   20.2869  -10.2187  -18.7792 N   0  0  0  0  0  0  0  0  0  0  0  0
   21.3723   -8.6266  -17.3762 C   0  0  0  0  0  0  0  0  0  0  0  0
   20.5737   -8.8484  -16.4152 O   0  0  0  0  0  0  0  0  0  0  0  0
   22.6398   -8.0688  -17.0614 N   0  0  0  0  0  0  0  0  0  0  0  0
   23.0559   -7.9131  -15.6476 C   0  0  1  0  0  0  0  0  0  0  0  0
   24.3751   -8.6139  -15.5275 C   0  0  0  0  0  0  0  0  0  0  0  0
   24.3438  -10.0759  -15.6044 C   0  0  0  0  0  0  0  0  0  0  0  0
   23.2401  -10.8930  -15.7617 C   0  0  0  0  0  0  0  0  0  0  0  0
   23.6133  -12.1880  -15.7878 N   0  0  0  0  0  0  0  0  0  0  0  0
   24.9476  -12.2076  -15.6485 C   0  0  0  0  0  0  0  0  0  0  0  0
   25.3944  -10.9453  -15.5378 N   0  0  0  0  0  0  0  0  0  0  0  0
   23.0474   -6.4998  -15.2654 C   0  0  0  0  0  0  0  0  0  0  0  0
   23.7328   -5.6874  -15.9581 O   0  0  0  0  0  0  0  0  0  0  0  0
   22.3364   -5.9325  -14.1809 N   0  0  0  0  0  0  0  0  0  0  0  0
   22.3629   -4.4878  -13.9357 C   0  0  0  0  0  0  0  0  0  0  0  0
   21.3130   -3.7953  -14.7047 C   0  0  0  0  0  0  0  0  0  0  0  0
   21.4251   -3.4356  -15.9046 O   0  0  0  0  0  0  0  0  0  0  0  0
   20.1125   -3.5163  -14.0684 O   0  0  0  0  0  0  0  0  0  0  0  0
  2  1  1  1
  2  4  1  0
  2  3  1  0
  4  5  2  0
  6  7  1  0
  6  4  1  0
  7  8  1  6
  9  8  1  0
 10  9  2  0
 11 10  1  0
 12 11  1  0
 12 13  2  0
 13  9  1  0
 14 15  2  0
 14  7  1  0
 16 14  1  0
 17 16  1  0
 18 17  1  0
 19 18  2  0
 20 18  1  0
M  END
$$$$
