AHG.pdb
     RDKit          3D

 20 20  0  0  1  0  0  0  0  0999 V2000
   21.9293  -20.9177  -15.0864 C   0  0  0  0  0  0  0  0  0  0  0  0
   22.3976  -21.1692  -13.6704 C   0  0  2  0  0  0  0  0  0  0  0  0
   21.4646  -20.6673  -12.6911 N   0  0  0  0  0  0  0  0  0  0  0  0
   23.6976  -20.4429  -13.4939 C   0  0  0  0  0  0  0  0  0  0  0  0
   23.7141  -19.1826  -13.3468 O   0  0  0  0  0  0  0  0  0  0  0  0
   24.9451  -21.1217  -13.4838 N   0  0  0  0  0  0  0  0  0  0  0  0
   26.2025  -20.3681  -13.2664 C   0  0  1  0  0  0  0  0  0  0  0  0
   26.8665  -21.0080  -12.0850 C   0  0  0  0  0  0  0  0  0  0  0  0
   26.2065  -20.8253  -10.7906 C   0  0  0  0  0  0  0  0  0  0  0  0
   26.1069  -19.6650  -10.0462 C   0  0  0  0  0  0  0  0  0  0  0  0
   25.4229  -19.8938   -8.9074 N   0  0  0  0  0  0  0  0  0  0  0  0
   25.0832  -21.1918   -8.9159 C   0  0  0  0  0  0  0  0  0  0  0  0
   25.5490  -21.7585  -10.0416 N   0  0  0  0  0  0  0  0  0  0  0  0
   26.9932  -20.3277  -14.4979 C   0  0  0  0  0  0  0  0  0  0  0  0
   27.5959  -21.3844  -14.8582 O   0  0  0  0  0  0  0  0  0  0  0  0
   27.1567  -19.2083  -15.3486 N   0  0  0  0  0  0  0  0  0  0  0  0
   27.9110  -19.3171  -16.6005 C   0  0  0  0  0  0  0  0  0  0  0  0
   27.8486  -18.0632  -17.3733 C   0  0  0  0  0  0  0  0  0  0  0  0
   26.8168  -17.6250  -17.9432 O   0  0  0  0  0  0  0  0  0  0  0  0
   29.0053  -17.3058  -17.4855 O   0  0  0  0  0  0  0  0  0  0  0  0
  2  1  1  6
  2  4  1  0
  2  3  1  0
  4  5  2  0
  6  7  1  0
  6  4  1  0
  7  8  1  1
  9  8  1  0
 10  9  2  0
 11 10  1  0
 12 11  1  0
 12 13  2  0
 13  9  1  0
 14 15  2  0
 14  7  1  0
 16 14  1  0
 17 16  1  0
 18 17  1  0
 19 18  2  0
 20 18  1  0
M  END
$$$$
