AHG.pdb
     RDKit          3D

 20 20  0  0  1  0  0  0  0  0999 V2000
   14.9195  -24.8880   -2.2024 C   0  0  0  0  0  0  0  0  0  0  0  0
   14.2585  -23.5281   -2.1675 C   0  0  2  0  0  0  0  0  0  0  0  0
   14.3159  -22.8618   -3.4458 N   0  0  0  0  0  0  0  0  0  0  0  0
   15.0053  -22.6935   -1.1703 C   0  0  0  0  0  0  0  0  0  0  0  0
   16.1514  -22.2279   -1.4531 O   0  0  0  0  0  0  0  0  0  0  0  0
   14.4722  -22.3931    0.1112 N   0  0  0  0  0  0  0  0  0  0  0  0
   15.2093  -21.4985    1.0346 C   0  0  1  0  0  0  0  0  0  0  0  0
   14.2203  -20.4661    1.4840 C   0  0  0  0  0  0  0  0  0  0  0  0
   14.6998  -19.4901    2.4647 C   0  0  0  0  0  0  0  0  0  0  0  0
   15.6280  -18.4837    2.2749 C   0  0  0  0  0  0  0  0  0  0  0  0
   15.8091  -17.7893    3.4161 N   0  0  0  0  0  0  0  0  0  0  0  0
   15.0042  -18.3427    4.3360 C   0  0  0  0  0  0  0  0  0  0  0  0
   14.3351  -19.3635    3.7743 N   0  0  0  0  0  0  0  0  0  0  0  0
   15.8472  -22.2761    2.0985 C   0  0  0  0  0  0  0  0  0  0  0  0
   15.2947  -23.3581    2.4640 O   0  0  0  0  0  0  0  0  0  0  0  0
   17.0443  -21.9401    2.7752 N   0  0  0  0  0  0  0  0  0  0  0  0
   17.6138  -22.8337    3.7877 C   0  0  0  0  0  0  0  0  0  0  0  0
   17.0984  -22.5164    5.1319 C   0  0  0  0  0  0  0  0  0  0  0  0
   16.2589  -21.6138    5.3812 O   0  0  0  0  0  0  0  0  0  0  0  0
   17.5668  -23.2608    6.2045 O   0  0  0  0  0  0  0  0  0  0  0  0
  2  1  1  6
  2  4  1  0
  2  3  1  0
  4  5  2  0
  6  7  1  0
  6  4  1  0
  7  8  1  1
  9  8  1  0
 10  9  2  0
 11 10  1  0
 12 11  1  0
 12 13  2  0
 13  9  1  0
 14 15  2  0
 14  7  1  0
 16 14  1  0
 17 16  1  0
 18 17  1  0
 19 18  2  0
 20 18  1  0
M  END
$$$$
