AHG.pdb
     RDKit          3D

 20 20  0  0  1  0  0  0  0  0999 V2000
   25.9700  -20.6336   -9.1807 C   0  0  0  0  0  0  0  0  0  0  0  0
   26.3088  -21.2848  -10.5031 C   0  0  2  0  0  0  0  0  0  0  0  0
   27.7071  -21.1526  -10.8327 N   0  0  0  0  0  0  0  0  0  0  0  0
   25.5098  -20.5867  -11.5628 C   0  0  0  0  0  0  0  0  0  0  0  0
   25.7546  -19.3773  -11.8590 O   0  0  0  0  0  0  0  0  0  0  0  0
   24.4628  -21.2368  -12.2685 N   0  0  0  0  0  0  0  0  0  0  0  0
   23.7250  -20.5199  -13.3353 C   0  0  1  0  0  0  0  0  0  0  0  0
   24.0545  -21.2313  -14.6126 C   0  0  0  0  0  0  0  0  0  0  0  0
   25.3991  -21.0131  -15.1498 C   0  0  0  0  0  0  0  0  0  0  0  0
   26.2358  -19.9354  -14.9284 C   0  0  0  0  0  0  0  0  0  0  0  0
   27.3956  -20.0950  -15.5968 N   0  0  0  0  0  0  0  0  0  0  0  0
   27.3089  -21.2665  -16.2450 C   0  0  0  0  0  0  0  0  0  0  0  0
   26.1149  -21.8242  -15.9828 N   0  0  0  0  0  0  0  0  0  0  0  0
   22.3020  -20.4333  -13.0024 C   0  0  0  0  0  0  0  0  0  0  0  0
   21.8031  -21.3361  -12.2636 O   0  0  0  0  0  0  0  0  0  0  0  0
   21.4054  -19.4233  -13.4263 N   0  0  0  0  0  0  0  0  0  0  0  0
   19.9915  -19.4611  -13.0422 C   0  0  0  0  0  0  0  0  0  0  0  0
   19.2953  -20.5959  -13.6754 C   0  0  0  0  0  0  0  0  0  0  0  0
   19.1159  -20.7240  -14.9136 O   0  0  0  0  0  0  0  0  0  0  0  0
   18.7993  -21.5988  -12.8556 O   0  0  0  0  0  0  0  0  0  0  0  0
  2  1  1  1
  2  4  1  0
  2  3  1  0
  4  5  2  0
  6  7  1  0
  6  4  1  0
  7  8  1  6
  9  8  1  0
 10  9  2  0
 11 10  1  0
 12 11  1  0
 12 13  2  0
 13  9  1  0
 14 15  2  0
 14  7  1  0
 16 14  1  0
 17 16  1  0
 18 17  1  0
 19 18  2  0
 20 18  1  0
M  END
$$$$
