AHG.pdb
     RDKit          3D

 20 20  0  0  1  0  0  0  0  0999 V2000
   22.7991  -14.3870  -17.4390 C   0  0  0  0  0  0  0  0  0  0  0  0
   22.5092  -13.0143  -18.0039 C   0  0  2  0  0  0  0  0  0  0  0  0
   23.1655  -12.7970  -19.2702 N   0  0  0  0  0  0  0  0  0  0  0  0
   23.0355  -12.0078  -17.0248 C   0  0  0  0  0  0  0  0  0  0  0  0
   22.7211  -12.0809  -15.7975 O   0  0  0  0  0  0  0  0  0  0  0  0
   23.8934  -10.9477  -17.4211 N   0  0  0  0  0  0  0  0  0  0  0  0
   24.2945   -9.9080  -16.4442 C   0  0  1  0  0  0  0  0  0  0  0  0
   25.7757   -9.7439  -16.6029 C   0  0  0  0  0  0  0  0  0  0  0  0
   26.6001  -10.8984  -16.2396 C   0  0  0  0  0  0  0  0  0  0  0  0
   26.1820  -12.1073  -15.7159 C   0  0  0  0  0  0  0  0  0  0  0  0
   27.2366  -12.9219  -15.5125 N   0  0  0  0  0  0  0  0  0  0  0  0
   28.3275  -12.2447  -15.9018 C   0  0  0  0  0  0  0  0  0  0  0  0
   27.9553  -11.0301  -16.3393 N   0  0  0  0  0  0  0  0  0  0  0  0
   23.4951   -8.6958  -16.6312 C   0  0  0  0  0  0  0  0  0  0  0  0
   23.3393   -8.2565  -17.8112 O   0  0  0  0  0  0  0  0  0  0  0  0
   22.8615   -7.9477  -15.6100 N   0  0  0  0  0  0  0  0  0  0  0  0
   22.0798   -6.7495  -15.9283 C   0  0  0  0  0  0  0  0  0  0  0  0
   21.3940   -6.2253  -14.7332 C   0  0  0  0  0  0  0  0  0  0  0  0
   21.3801   -6.7919  -13.6105 O   0  0  0  0  0  0  0  0  0  0  0  0
   20.7130   -5.0221  -14.8449 O   0  0  0  0  0  0  0  0  0  0  0  0
  2  1  1  1
  2  4  1  0
  2  3  1  0
  4  5  2  0
  6  7  1  0
  6  4  1  0
  7  8  1  6
  9  8  1  0
 10  9  2  0
 11 10  1  0
 12 11  1  0
 12 13  2  0
 13  9  1  0
 14 15  2  0
 14  7  1  0
 16 14  1  0
 17 16  1  0
 18 17  1  0
 19 18  2  0
 20 18  1  0
M  END
$$$$
