PEK.pdb
     RDKit          3D

 26 26  0  0  1  0  0  0  0  0999 V2000
    7.6425  -13.3588   19.6245 N   0  0  0  0  0  0  0  0  0  0  0  0
    8.9038  -12.8436   19.1655 C   0  0  0  0  0  0  0  0  0  0  0  0
    9.1105  -13.4863   17.8171 C   0  0  0  0  0  0  0  0  0  0  0  0
    8.1657  -14.6311   17.7284 C   0  0  0  0  0  0  0  0  0  0  0  0
    7.5448  -14.6780   19.1012 C   0  0  1  0  0  0  0  0  0  0  0  0
    8.3209  -15.6385   19.9315 C   0  0  0  0  0  0  0  0  0  0  0  0
    8.5467  -16.8265   19.5114 O   0  0  0  0  0  0  0  0  0  0  0  0
    8.8625  -15.3342   21.2191 N   0  0  0  0  0  0  0  0  0  0  0  0
    9.5793  -16.2784   21.9894 C   0  0  1  0  0  0  0  0  0  0  0  0
   10.4851  -17.2279   21.3434 C   0  0  0  0  0  0  0  0  0  0  0  0
   11.1210  -18.2897   22.1560 C   0  0  0  0  0  0  0  0  0  0  0  0
   12.0887  -19.1360   21.4217 C   0  0  0  0  0  0  0  0  0  0  0  0
   12.2067  -20.3496   21.7116 O   0  0  0  0  0  0  0  0  0  0  0  0
   10.0125  -15.7883   23.3522 C   0  0  0  0  0  0  0  0  0  0  0  0
   11.0988  -15.2307   23.5314 O   0  0  0  0  0  0  0  0  0  0  0  0
   12.8735  -18.6029   20.4087 O   0  0  0  0  0  0  0  0  0  0  0  0
    9.1198  -16.0015   24.4285 N   0  0  0  0  0  0  0  0  0  0  0  0
    9.2576  -15.6474   25.7752 C   0  0  1  0  0  0  0  0  0  0  0  0
    8.2061  -14.8847   26.4725 C   0  0  0  0  0  0  0  0  0  0  0  0
    7.8955  -13.5225   25.9981 C   0  0  0  0  0  0  0  0  0  0  0  0
    6.6290  -12.9429   26.5043 C   0  0  0  0  0  0  0  0  0  0  0  0
    6.4326  -11.4767   26.1991 C   0  0  0  0  0  0  0  0  0  0  0  0
    5.2065  -10.9595   26.6946 N   0  0  0  0  0  0  0  0  0  0  0  0
    9.6439  -16.7920   26.6723 C   0  0  0  0  0  0  0  0  0  0  0  0
    9.8551  -16.5961   27.8642 O   0  0  0  0  0  0  0  0  0  0  0  0
    9.7641  -18.0684   26.1593 O   0  0  0  0  0  0  0  0  0  0  0  0
  2  1  1  0
  3  2  1  0
  4  5  1  0
  4  3  1  0
  5  1  1  0
  5  6  1  1
  6  8  1  0
  7  6  2  0
  8  9  1  0
  9 14  1  0
  9 10  1  6
 11 10  1  0
 12 11  1  0
 13 12  2  0
 14 15  2  0
 14 17  1  0
 16 12  1  0
 17 18  1  0
 18 24  1  0
 18 19  1  1
 20 19  1  0
 21 20  1  0
 22 21  1  0
 23 22  1  0
 24 25  2  0
 24 26  1  0
M  END
$$$$
