PEK.pdb
     RDKit          3D

 26 26  0  0  1  0  0  0  0  0999 V2000
    9.2379  -13.8522   18.3156 N   0  0  0  0  0  0  0  0  0  0  0  0
    7.9183  -14.2466   17.9034 C   0  0  0  0  0  0  0  0  0  0  0  0
    6.9954  -13.2806   18.6026 C   0  0  0  0  0  0  0  0  0  0  0  0
    7.7820  -12.6274   19.6822 C   0  0  0  0  0  0  0  0  0  0  0  0
    9.1015  -13.3551   19.6415 C   0  0  1  0  0  0  0  0  0  0  0  0
    9.0496  -14.4705   20.6251 C   0  0  0  0  0  0  0  0  0  0  0  0
    8.6268  -14.2676   21.8163 O   0  0  0  0  0  0  0  0  0  0  0  0
    9.4496  -15.8132   20.3408 N   0  0  0  0  0  0  0  0  0  0  0  0
    9.4989  -16.8219   21.3301 C   0  0  1  0  0  0  0  0  0  0  0  0
    9.5211  -18.2339   20.9490 C   0  0  0  0  0  0  0  0  0  0  0  0
   10.5718  -18.7181   20.0251 C   0  0  0  0  0  0  0  0  0  0  0  0
   10.6955  -20.1913   19.9452 C   0  0  0  0  0  0  0  0  0  0  0  0
    9.9443  -20.8431   19.1828 O   0  0  0  0  0  0  0  0  0  0  0  0
   10.3024  -16.4661   22.5600 C   0  0  0  0  0  0  0  0  0  0  0  0
   11.3951  -15.8975   22.4850 O   0  0  0  0  0  0  0  0  0  0  0  0
   11.6382  -20.8676   20.7069 O   0  0  0  0  0  0  0  0  0  0  0  0
    9.7527  -16.8195   23.8146 N   0  0  0  0  0  0  0  0  0  0  0  0
   10.2737  -16.6160   25.0972 C   0  0  1  0  0  0  0  0  0  0  0  0
    9.4318  -16.0842   26.1845 C   0  0  0  0  0  0  0  0  0  0  0  0
   10.0243  -15.9493   27.5290 C   0  0  0  0  0  0  0  0  0  0  0  0
    9.8697  -14.6197   28.1649 C   0  0  0  0  0  0  0  0  0  0  0  0
   10.5067  -14.4876   29.5281 C   0  0  0  0  0  0  0  0  0  0  0  0
   10.3613  -13.1928   30.0925 N   0  0  0  0  0  0  0  0  0  0  0  0
   11.0164  -17.8017   25.6510 C   0  0  0  0  0  0  0  0  0  0  0  0
   12.0348  -17.6358   26.3137 O   0  0  0  0  0  0  0  0  0  0  0  0
   10.5570  -19.0826   25.4157 O   0  0  0  0  0  0  0  0  0  0  0  0
  2  1  1  0
  3  2  1  0
  4  5  1  0
  4  3  1  0
  5  1  1  0
  5  6  1  1
  6  8  1  0
  7  6  2  0
  8  9  1  0
  9 14  1  0
  9 10  1  6
 11 10  1  0
 12 11  1  0
 13 12  2  0
 14 15  2  0
 14 17  1  0
 16 12  1  0
 17 18  1  0
 18 24  1  0
 18 19  1  1
 20 19  1  0
 21 20  1  0
 22 21  1  0
 23 22  1  0
 24 25  2  0
 24 26  1  0
M  END
$$$$
