PEK.pdb
     RDKit          3D

 26 26  0  0  1  0  0  0  0  0999 V2000
    9.2589  -14.4491   17.7512 N   0  0  0  0  0  0  0  0  0  0  0  0
    7.9080  -14.8046   17.4112 C   0  0  0  0  0  0  0  0  0  0  0  0
    7.0758  -13.6405   17.8871 C   0  0  0  0  0  0  0  0  0  0  0  0
    7.9215  -12.8507   18.8209 C   0  0  0  0  0  0  0  0  0  0  0  0
    9.1728  -13.6820   18.9461 C   0  0  1  0  0  0  0  0  0  0  0  0
    9.0294  -14.5644   20.1357 C   0  0  0  0  0  0  0  0  0  0  0  0
    8.2575  -14.2330   21.1016 O   0  0  0  0  0  0  0  0  0  0  0  0
    9.7114  -15.8100   20.3003 N   0  0  0  0  0  0  0  0  0  0  0  0
    9.6381  -16.5702   21.4899 C   0  0  1  0  0  0  0  0  0  0  0  0
   10.1191  -17.9513   21.5182 C   0  0  0  0  0  0  0  0  0  0  0  0
    9.8563  -18.7853   22.7130 C   0  0  0  0  0  0  0  0  0  0  0  0
   10.3884  -20.1647   22.6348 C   0  0  0  0  0  0  0  0  0  0  0  0
   10.7811  -20.6240   21.5369 O   0  0  0  0  0  0  0  0  0  0  0  0
    9.8481  -15.7808   22.7618 C   0  0  0  0  0  0  0  0  0  0  0  0
   10.9501  -15.3183   23.0696 O   0  0  0  0  0  0  0  0  0  0  0  0
   10.4604  -20.9638   23.7672 O   0  0  0  0  0  0  0  0  0  0  0  0
    8.7236  -15.5956   23.5996 N   0  0  0  0  0  0  0  0  0  0  0  0
    8.6176  -14.8665   24.7892 C   0  0  1  0  0  0  0  0  0  0  0  0
    7.3882  -14.1220   25.1180 C   0  0  0  0  0  0  0  0  0  0  0  0
    7.3428  -13.3664   26.3845 C   0  0  0  0  0  0  0  0  0  0  0  0
    6.2682  -12.3509   26.4844 C   0  0  0  0  0  0  0  0  0  0  0  0
    6.2911  -11.5213   27.7465 C   0  0  0  0  0  0  0  0  0  0  0  0
    5.2635  -10.5425   27.7935 N   0  0  0  0  0  0  0  0  0  0  0  0
    9.0090  -15.6411   26.0184 C   0  0  0  0  0  0  0  0  0  0  0  0
    9.2441  -15.0526   27.0683 O   0  0  0  0  0  0  0  0  0  0  0  0
    9.1069  -17.0178   25.9717 O   0  0  0  0  0  0  0  0  0  0  0  0
  2  1  1  0
  3  2  1  0
  4  5  1  0
  4  3  1  0
  5  1  1  0
  5  6  1  1
  6  8  1  0
  7  6  2  0
  8  9  1  0
  9 14  1  0
  9 10  1  6
 11 10  1  0
 12 11  1  0
 13 12  2  0
 14 15  2  0
 14 17  1  0
 16 12  1  0
 17 18  1  0
 18 24  1  0
 18 19  1  1
 20 19  1  0
 21 20  1  0
 22 21  1  0
 23 22  1  0
 24 25  2  0
 24 26  1  0
M  END
$$$$
