PEK.pdb
     RDKit          3D

 26 26  0  0  1  0  0  0  0  0999 V2000
    9.2565  -14.5039   17.7786 N   0  0  0  0  0  0  0  0  0  0  0  0
    7.8757  -14.7888   17.4974 C   0  0  0  0  0  0  0  0  0  0  0  0
    7.1181  -13.6271   18.0893 C   0  0  0  0  0  0  0  0  0  0  0  0
    8.0453  -12.9273   19.0176 C   0  0  0  0  0  0  0  0  0  0  0  0
    9.2678  -13.8092   19.0201 C   0  0  1  0  0  0  0  0  0  0  0  0
    9.1565  -14.7576   20.1613 C   0  0  0  0  0  0  0  0  0  0  0  0
    8.2226  -14.6261   21.0270 O   0  0  0  0  0  0  0  0  0  0  0  0
   10.0444  -15.8555   20.3846 N   0  0  0  0  0  0  0  0  0  0  0  0
   10.0477  -16.6042   21.5838 C   0  0  1  0  0  0  0  0  0  0  0  0
   10.7383  -17.8918   21.6521 C   0  0  0  0  0  0  0  0  0  0  0  0
   10.6266  -18.7092   22.8816 C   0  0  0  0  0  0  0  0  0  0  0  0
   11.4496  -19.9399   22.8842 C   0  0  0  0  0  0  0  0  0  0  0  0
   10.9481  -21.0303   22.5233 O   0  0  0  0  0  0  0  0  0  0  0  0
   10.0841  -15.7772   22.8486 C   0  0  0  0  0  0  0  0  0  0  0  0
   11.0294  -15.0294   23.1135 O   0  0  0  0  0  0  0  0  0  0  0  0
   12.7785  -19.9052   23.2828 O   0  0  0  0  0  0  0  0  0  0  0  0
    8.9853  -15.8989   23.7311 N   0  0  0  0  0  0  0  0  0  0  0  0
    8.7314  -15.2170   24.9263 C   0  0  1  0  0  0  0  0  0  0  0  0
    7.4578  -14.5058   25.1404 C   0  0  0  0  0  0  0  0  0  0  0  0
    7.2400  -13.8304   26.4340 C   0  0  0  0  0  0  0  0  0  0  0  0
    6.3803  -12.6241   26.3881 C   0  0  0  0  0  0  0  0  0  0  0  0
    6.1958  -11.9226   27.7130 C   0  0  0  0  0  0  0  0  0  0  0  0
    5.3131  -10.8126   27.6424 N   0  0  0  0  0  0  0  0  0  0  0  0
    8.9981  -16.0309   26.1635 C   0  0  0  0  0  0  0  0  0  0  0  0
    9.0528  -17.2541   26.0960 O   0  0  0  0  0  0  0  0  0  0  0  0
    9.1816  -15.4063   27.3813 O   0  0  0  0  0  0  0  0  0  0  0  0
  2  1  1  0
  3  2  1  0
  4  5  1  0
  4  3  1  0
  5  1  1  0
  5  6  1  1
  6  8  1  0
  7  6  2  0
  8  9  1  0
  9 14  1  0
  9 10  1  6
 11 10  1  0
 12 11  1  0
 13 12  2  0
 14 15  2  0
 14 17  1  0
 16 12  1  0
 17 18  1  0
 18 24  1  0
 18 19  1  6
 20 19  1  0
 21 20  1  0
 22 21  1  0
 23 22  1  0
 24 25  2  0
 24 26  1  0
M  END
$$$$
