PEK.pdb
     RDKit          3D

 26 26  0  0  1  0  0  0  0  0999 V2000
    9.0483  -13.9380   17.8946 N   0  0  0  0  0  0  0  0  0  0  0  0
    7.7410  -14.5049   17.7039 C   0  0  0  0  0  0  0  0  0  0  0  0
    6.8342  -13.6753   18.5776 C   0  0  0  0  0  0  0  0  0  0  0  0
    7.7030  -12.9269   19.5242 C   0  0  0  0  0  0  0  0  0  0  0  0
    9.0798  -13.4698   19.2376 C   0  0  1  0  0  0  0  0  0  0  0  0
    9.3471  -14.5864   20.1841 C   0  0  0  0  0  0  0  0  0  0  0  0
    8.9829  -14.5021   21.4085 O   0  0  0  0  0  0  0  0  0  0  0  0
   10.0064  -15.8036   19.8269 N   0  0  0  0  0  0  0  0  0  0  0  0
   10.3176  -16.8096   20.7701 C   0  0  1  0  0  0  0  0  0  0  0  0
   10.6516  -18.1632   20.3275 C   0  0  0  0  0  0  0  0  0  0  0  0
    9.7174  -18.8836   19.4328 C   0  0  0  0  0  0  0  0  0  0  0  0
   10.2104  -20.1922   18.9467 C   0  0  0  0  0  0  0  0  0  0  0  0
   10.9598  -20.2467   17.9436 O   0  0  0  0  0  0  0  0  0  0  0  0
   11.0567  -16.3239   21.9960 C   0  0  0  0  0  0  0  0  0  0  0  0
   12.0918  -15.6570   21.9137 O   0  0  0  0  0  0  0  0  0  0  0  0
    9.8536  -21.3694   19.5895 O   0  0  0  0  0  0  0  0  0  0  0  0
   10.5158  -16.6721   23.2558 N   0  0  0  0  0  0  0  0  0  0  0  0
   10.9539  -16.3144   24.5357 C   0  0  1  0  0  0  0  0  0  0  0  0
    9.9979  -15.8993   25.5784 C   0  0  0  0  0  0  0  0  0  0  0  0
   10.5259  -15.5119   26.9006 C   0  0  0  0  0  0  0  0  0  0  0  0
    9.5099  -15.1074   27.9008 C   0  0  0  0  0  0  0  0  0  0  0  0
   10.0703  -14.5882   29.2039 C   0  0  0  0  0  0  0  0  0  0  0  0
    9.0749  -14.0828   30.0813 N   0  0  0  0  0  0  0  0  0  0  0  0
   11.8888  -17.3125   25.1633 C   0  0  0  0  0  0  0  0  0  0  0  0
   12.6055  -16.9798   26.1012 O   0  0  0  0  0  0  0  0  0  0  0  0
   11.9464  -18.6074   24.6870 O   0  0  0  0  0  0  0  0  0  0  0  0
  2  1  1  0
  3  2  1  0
  4  5  1  0
  4  3  1  0
  5  1  1  0
  5  6  1  1
  6  8  1  0
  7  6  2  0
  8  9  1  0
  9 14  1  0
  9 10  1  6
 11 10  1  0
 12 11  1  0
 13 12  2  0
 14 15  2  0
 14 17  1  0
 16 12  1  0
 17 18  1  0
 18 24  1  0
 18 19  1  1
 20 19  1  0
 21 20  1  0
 22 21  1  0
 23 22  1  0
 24 25  2  0
 24 26  1  0
M  END
$$$$
