PEK.pdb
     RDKit          3D

 26 26  0  0  1  0  0  0  0  0999 V2000
    7.8722  -14.4567   18.5664 N   0  0  0  0  0  0  0  0  0  0  0  0
    6.9866  -13.8123   19.4977 C   0  0  0  0  0  0  0  0  0  0  0  0
    7.7554  -12.6107   19.9865 C   0  0  0  0  0  0  0  0  0  0  0  0
    9.1807  -12.8247   19.6210 C   0  0  0  0  0  0  0  0  0  0  0  0
    9.1888  -14.2201   19.0506 C   0  0  1  0  0  0  0  0  0  0  0  0
    9.5321  -15.1689   20.1442 C   0  0  0  0  0  0  0  0  0  0  0  0
    8.6800  -15.4411   21.0600 O   0  0  0  0  0  0  0  0  0  0  0  0
   10.7912  -15.8351   20.2658 N   0  0  0  0  0  0  0  0  0  0  0  0
   11.0603  -16.7815   21.2808 C   0  0  1  0  0  0  0  0  0  0  0  0
   11.6082  -18.0951   20.9434 C   0  0  0  0  0  0  0  0  0  0  0  0
   11.3495  -18.6646   19.6014 C   0  0  0  0  0  0  0  0  0  0  0  0
   12.0177  -19.9593   19.3386 C   0  0  0  0  0  0  0  0  0  0  0  0
   12.4050  -20.2414   18.1805 O   0  0  0  0  0  0  0  0  0  0  0  0
   11.5388  -16.1920   22.5879 C   0  0  0  0  0  0  0  0  0  0  0  0
   12.5804  -15.5346   22.6660 O   0  0  0  0  0  0  0  0  0  0  0  0
   12.2245  -20.8731   20.3626 O   0  0  0  0  0  0  0  0  0  0  0  0
   10.7433  -16.4303   23.7330 N   0  0  0  0  0  0  0  0  0  0  0  0
   10.9747  -16.0617   25.0629 C   0  0  1  0  0  0  0  0  0  0  0  0
    9.9584  -15.3243   25.8356 C   0  0  0  0  0  0  0  0  0  0  0  0
   10.3188  -14.8322   27.1790 C   0  0  0  0  0  0  0  0  0  0  0  0
    9.2674  -14.0569   27.8787 C   0  0  0  0  0  0  0  0  0  0  0  0
    9.6743  -13.5005   29.2228 C   0  0  0  0  0  0  0  0  0  0  0  0
    8.6098  -12.8607   29.9111 N   0  0  0  0  0  0  0  0  0  0  0  0
   11.4631  -17.1876   25.9336 C   0  0  0  0  0  0  0  0  0  0  0  0
   12.2987  -16.9740   26.8053 O   0  0  0  0  0  0  0  0  0  0  0  0
   10.9747  -18.4670   25.7560 O   0  0  0  0  0  0  0  0  0  0  0  0
  2  1  1  0
  3  2  1  0
  4  5  1  0
  4  3  1  0
  5  1  1  0
  5  6  1  1
  6  8  1  0
  7  6  2  0
  8  9  1  0
  9 14  1  0
  9 10  1  6
 11 10  1  0
 12 11  1  0
 13 12  2  0
 14 15  2  0
 14 17  1  0
 16 12  1  0
 17 18  1  0
 18 24  1  0
 18 19  1  1
 20 19  1  0
 21 20  1  0
 22 21  1  0
 23 22  1  0
 24 25  2  0
 24 26  1  0
M  END
$$$$
