PEK.pdb
     RDKit          3D

 26 26  0  0  1  0  0  0  0  0999 V2000
    7.4427  -15.7001   19.9430 N   0  0  0  0  0  0  0  0  0  0  0  0
    6.5567  -15.9835   21.0391 C   0  0  0  0  0  0  0  0  0  0  0  0
    6.6796  -14.7867   21.9482 C   0  0  0  0  0  0  0  0  0  0  0  0
    7.9077  -14.0531   21.5426 C   0  0  0  0  0  0  0  0  0  0  0  0
    8.5170  -14.9469   20.4927 C   0  0  1  0  0  0  0  0  0  0  0  0
    9.5068  -15.8381   21.1563 C   0  0  0  0  0  0  0  0  0  0  0  0
    9.1159  -16.8311   21.8634 O   0  0  0  0  0  0  0  0  0  0  0  0
   10.9241  -15.6735   21.0675 N   0  0  0  0  0  0  0  0  0  0  0  0
   11.8370  -16.5760   21.6597 C   0  0  1  0  0  0  0  0  0  0  0  0
   13.1699  -16.7646   21.0875 C   0  0  0  0  0  0  0  0  0  0  0  0
   14.0129  -17.8826   21.5688 C   0  0  0  0  0  0  0  0  0  0  0  0
   15.3566  -17.9555   20.9515 C   0  0  0  0  0  0  0  0  0  0  0  0
   16.3643  -18.1673   21.6659 O   0  0  0  0  0  0  0  0  0  0  0  0
   11.7563  -16.6634   23.1666 C   0  0  0  0  0  0  0  0  0  0  0  0
   11.6695  -15.6573   23.8760 O   0  0  0  0  0  0  0  0  0  0  0  0
   15.5196  -17.7925   19.5829 O   0  0  0  0  0  0  0  0  0  0  0  0
   11.7914  -17.9557   23.7409 N   0  0  0  0  0  0  0  0  0  0  0  0
   11.7232  -18.3267   25.0883 C   0  0  1  0  0  0  0  0  0  0  0  0
   11.0774  -19.5870   25.4984 C   0  0  0  0  0  0  0  0  0  0  0  0
   11.1120  -19.9615   26.9251 C   0  0  0  0  0  0  0  0  0  0  0  0
   10.5347  -21.2867   27.2520 C   0  0  0  0  0  0  0  0  0  0  0  0
   10.4187  -21.5844   28.7283 C   0  0  0  0  0  0  0  0  0  0  0  0
    9.8617  -22.8616   29.0013 N   0  0  0  0  0  0  0  0  0  0  0  0
   13.0400  -18.2472   25.8122 C   0  0  0  0  0  0  0  0  0  0  0  0
   13.0763  -18.3285   27.0352 O   0  0  0  0  0  0  0  0  0  0  0  0
   14.2142  -18.0812   25.1046 O   0  0  0  0  0  0  0  0  0  0  0  0
  2  1  1  0
  3  2  1  0
  4  5  1  0
  4  3  1  0
  5  1  1  0
  5  6  1  1
  6  8  1  0
  7  6  2  0
  8  9  1  0
  9 14  1  0
  9 10  1  1
 11 10  1  0
 12 11  1  0
 13 12  2  0
 14 15  2  0
 14 17  1  0
 16 12  1  0
 17 18  1  0
 18 24  1  0
 18 19  1  6
 20 19  1  0
 21 20  1  0
 22 21  1  0
 23 22  1  0
 24 25  2  0
 24 26  1  0
M  END
$$$$
