PEK.pdb
     RDKit          3D

 26 26  0  0  1  0  0  0  0  0999 V2000
    8.8493  -21.7268   21.0364 N   0  0  0  0  0  0  0  0  0  0  0  0
    7.9619  -20.7103   20.5405 C   0  0  0  0  0  0  0  0  0  0  0  0
    8.6501  -20.1685   19.3130 C   0  0  0  0  0  0  0  0  0  0  0  0
   10.0674  -20.6140   19.3734 C   0  0  0  0  0  0  0  0  0  0  0  0
   10.1645  -21.2871   20.7187 C   0  0  1  0  0  0  0  0  0  0  0  0
   10.6438  -20.2846   21.7084 C   0  0  0  0  0  0  0  0  0  0  0  0
   10.7111  -19.0447   21.3972 O   0  0  0  0  0  0  0  0  0  0  0  0
   11.0545  -20.6018   23.0405 N   0  0  0  0  0  0  0  0  0  0  0  0
   11.6523  -19.6538   23.9022 C   0  0  1  0  0  0  0  0  0  0  0  0
   11.6496  -19.8625   25.3500 C   0  0  0  0  0  0  0  0  0  0  0  0
   12.1050  -18.7703   26.2398 C   0  0  0  0  0  0  0  0  0  0  0  0
   12.0049  -19.0676   27.6867 C   0  0  0  0  0  0  0  0  0  0  0  0
   12.2766  -18.1807   28.5294 O   0  0  0  0  0  0  0  0  0  0  0  0
   12.8819  -18.9748   23.3439 C   0  0  0  0  0  0  0  0  0  0  0  0
   13.9277  -19.5927   23.1260 O   0  0  0  0  0  0  0  0  0  0  0  0
   11.6111  -20.3230   28.1286 O   0  0  0  0  0  0  0  0  0  0  0  0
   12.7911  -17.5872   23.0841 N   0  0  0  0  0  0  0  0  0  0  0  0
   13.7193  -16.7402   22.4687 C   0  0  1  0  0  0  0  0  0  0  0  0
   13.2844  -15.6864   21.5338 C   0  0  0  0  0  0  0  0  0  0  0  0
   14.3167  -14.9280   20.8016 C   0  0  0  0  0  0  0  0  0  0  0  0
   13.9332  -14.4737   19.4441 C   0  0  0  0  0  0  0  0  0  0  0  0
   15.0570  -13.8748   18.6317 C   0  0  0  0  0  0  0  0  0  0  0  0
   14.6206  -13.2972   17.4102 N   0  0  0  0  0  0  0  0  0  0  0  0
   14.6988  -16.1106   23.4218 C   0  0  0  0  0  0  0  0  0  0  0  0
   14.4091  -15.9814   24.6064 O   0  0  0  0  0  0  0  0  0  0  0  0
   15.9281  -15.6740   22.9689 O   0  0  0  0  0  0  0  0  0  0  0  0
  2  1  1  0
  3  2  1  0
  4  5  1  0
  4  3  1  0
  5  1  1  0
  5  6  1  1
  6  8  1  0
  7  6  2  0
  8  9  1  0
  9 14  1  0
  9 10  1  1
 11 10  1  0
 12 11  1  0
 13 12  2  0
 14 15  2  0
 14 17  1  0
 16 12  1  0
 17 18  1  0
 18 24  1  0
 18 19  1  1
 20 19  1  0
 21 20  1  0
 22 21  1  0
 23 22  1  0
 24 25  2  0
 24 26  1  0
M  END
$$$$
