PEK.pdb
     RDKit          3D

 26 26  0  0  1  0  0  0  0  0999 V2000
    9.3626  -14.3843   17.6073 N   0  0  0  0  0  0  0  0  0  0  0  0
    8.0583  -14.8202   17.1884 C   0  0  0  0  0  0  0  0  0  0  0  0
    7.1273  -13.7205   17.6331 C   0  0  0  0  0  0  0  0  0  0  0  0
    7.8676  -12.8939   18.6228 C   0  0  0  0  0  0  0  0  0  0  0  0
    9.1618  -13.6448   18.8059 C   0  0  1  0  0  0  0  0  0  0  0  0
    9.0119  -14.5548   19.9736 C   0  0  0  0  0  0  0  0  0  0  0  0
    8.3100  -14.2041   20.9851 O   0  0  0  0  0  0  0  0  0  0  0  0
    9.6124  -15.8488   20.0676 N   0  0  0  0  0  0  0  0  0  0  0  0
    9.5370  -16.6435   21.2343 C   0  0  1  0  0  0  0  0  0  0  0  0
    9.9522  -18.0457   21.2044 C   0  0  0  0  0  0  0  0  0  0  0  0
    9.6855  -18.9052   22.3801 C   0  0  0  0  0  0  0  0  0  0  0  0
   10.2268  -20.2794   22.2785 C   0  0  0  0  0  0  0  0  0  0  0  0
   11.3668  -20.4700   21.7941 O   0  0  0  0  0  0  0  0  0  0  0  0
    9.8208  -15.9071   22.5235 C   0  0  0  0  0  0  0  0  0  0  0  0
   10.9204  -15.3976   22.7568 O   0  0  0  0  0  0  0  0  0  0  0  0
    9.4863  -21.3690   22.7150 O   0  0  0  0  0  0  0  0  0  0  0  0
    8.7698  -15.8290   23.4670 N   0  0  0  0  0  0  0  0  0  0  0  0
    8.6762  -15.0474   24.6239 C   0  0  1  0  0  0  0  0  0  0  0  0
    7.5140  -14.1709   24.8577 C   0  0  0  0  0  0  0  0  0  0  0  0
    7.4953  -13.3406   26.0772 C   0  0  0  0  0  0  0  0  0  0  0  0
    6.3230  -12.4457   26.2229 C   0  0  0  0  0  0  0  0  0  0  0  0
    6.3592  -11.5403   27.4314 C   0  0  0  0  0  0  0  0  0  0  0  0
    5.1784  -10.7676   27.5893 N   0  0  0  0  0  0  0  0  0  0  0  0
    8.9204  -15.8094   25.8982 C   0  0  0  0  0  0  0  0  0  0  0  0
    8.7404  -17.0219   25.9349 O   0  0  0  0  0  0  0  0  0  0  0  0
    9.3471  -15.1488   27.0333 O   0  0  0  0  0  0  0  0  0  0  0  0
  2  1  1  0
  3  2  1  0
  4  5  1  0
  4  3  1  0
  5  1  1  0
  5  6  1  1
  6  8  1  0
  7  6  2  0
  8  9  1  0
  9 14  1  0
  9 10  1  6
 11 10  1  0
 12 11  1  0
 13 12  2  0
 14 15  2  0
 14 17  1  0
 16 12  1  0
 17 18  1  0
 18 24  1  0
 18 19  1  1
 20 19  1  0
 21 20  1  0
 22 21  1  0
 23 22  1  0
 24 25  2  0
 24 26  1  0
M  END
$$$$
