PEK.pdb
     RDKit          3D

 26 26  0  0  1  0  0  0  0  0999 V2000
    9.3842  -14.3204   17.8422 N   0  0  0  0  0  0  0  0  0  0  0  0
    8.1364  -14.9064   17.4341 C   0  0  0  0  0  0  0  0  0  0  0  0
    7.0885  -13.9118   17.8659 C   0  0  0  0  0  0  0  0  0  0  0  0
    7.7329  -12.9925   18.8409 C   0  0  0  0  0  0  0  0  0  0  0  0
    9.1036  -13.5904   19.0305 C   0  0  1  0  0  0  0  0  0  0  0  0
    9.0590  -14.4940   20.2119 C   0  0  0  0  0  0  0  0  0  0  0  0
    8.3100  -14.2187   21.2129 O   0  0  0  0  0  0  0  0  0  0  0  0
    9.8162  -15.7007   20.3309 N   0  0  0  0  0  0  0  0  0  0  0  0
    9.8383  -16.4758   21.5130 C   0  0  1  0  0  0  0  0  0  0  0  0
   10.4268  -17.8149   21.5107 C   0  0  0  0  0  0  0  0  0  0  0  0
   10.2856  -18.6700   22.7112 C   0  0  0  0  0  0  0  0  0  0  0  0
   10.9912  -19.9692   22.6328 C   0  0  0  0  0  0  0  0  0  0  0  0
   10.3761  -20.9952   22.2590 O   0  0  0  0  0  0  0  0  0  0  0  0
   10.0239  -15.6846   22.7876 C   0  0  0  0  0  0  0  0  0  0  0  0
   11.0681  -15.0738   23.0316 O   0  0  0  0  0  0  0  0  0  0  0  0
   12.3340  -20.0701   22.9688 O   0  0  0  0  0  0  0  0  0  0  0  0
    8.9467  -15.6758   23.7043 N   0  0  0  0  0  0  0  0  0  0  0  0
    8.7919  -14.9326   24.8797 C   0  0  1  0  0  0  0  0  0  0  0  0
    7.5969  -14.0975   25.0997 C   0  0  0  0  0  0  0  0  0  0  0  0
    7.5194  -13.2948   26.3353 C   0  0  0  0  0  0  0  0  0  0  0  0
    6.3207  -12.4329   26.4631 C   0  0  0  0  0  0  0  0  0  0  0  0
    6.2773  -11.5830   27.7110 C   0  0  0  0  0  0  0  0  0  0  0  0
    5.0524  -10.8828   27.8710 N   0  0  0  0  0  0  0  0  0  0  0  0
    9.0167  -15.7253   26.1388 C   0  0  0  0  0  0  0  0  0  0  0  0
    9.0891  -15.1540   27.2215 O   0  0  0  0  0  0  0  0  0  0  0  0
    9.1440  -17.0992   26.0829 O   0  0  0  0  0  0  0  0  0  0  0  0
  2  1  1  0
  3  2  1  0
  4  5  1  0
  4  3  1  0
  5  1  1  0
  5  6  1  1
  6  8  1  0
  7  6  2  0
  8  9  1  0
  9 14  1  0
  9 10  1  6
 11 10  1  0
 12 11  1  0
 13 12  2  0
 14 15  2  0
 14 17  1  0
 16 12  1  0
 17 18  1  0
 18 24  1  0
 18 19  1  1
 20 19  1  0
 21 20  1  0
 22 21  1  0
 23 22  1  0
 24 25  2  0
 24 26  1  0
M  END
$$$$
