PEK.pdb
     RDKit          3D

 26 26  0  0  1  0  0  0  0  0999 V2000
    8.7265  -14.4928   17.7943 N   0  0  0  0  0  0  0  0  0  0  0  0
    7.2959  -14.4017   17.9040 C   0  0  0  0  0  0  0  0  0  0  0  0
    7.0533  -13.1411   18.6951 C   0  0  0  0  0  0  0  0  0  0  0  0
    8.3428  -12.7724   19.3372 C   0  0  0  0  0  0  0  0  0  0  0  0
    9.2476  -13.9274   18.9912 C   0  0  1  0  0  0  0  0  0  0  0  0
    9.1987  -14.9090   20.1084 C   0  0  0  0  0  0  0  0  0  0  0  0
    8.2267  -14.8981   20.9414 O   0  0  0  0  0  0  0  0  0  0  0  0
   10.1908  -15.9114   20.3426 N   0  0  0  0  0  0  0  0  0  0  0  0
   10.3215  -16.5832   21.5796 C   0  0  1  0  0  0  0  0  0  0  0  0
   11.1781  -17.7631   21.6957 C   0  0  0  0  0  0  0  0  0  0  0  0
   10.9187  -18.9345   20.8281 C   0  0  0  0  0  0  0  0  0  0  0  0
   12.0553  -19.8745   20.7001 C   0  0  0  0  0  0  0  0  0  0  0  0
   12.5033  -20.1661   19.5666 O   0  0  0  0  0  0  0  0  0  0  0  0
   10.2778  -15.6873   22.7964 C   0  0  0  0  0  0  0  0  0  0  0  0
   10.8108  -14.5743   22.8080 O   0  0  0  0  0  0  0  0  0  0  0  0
   12.6379  -20.4423   21.8246 O   0  0  0  0  0  0  0  0  0  0  0  0
    9.6018  -16.1804   23.9369 N   0  0  0  0  0  0  0  0  0  0  0  0
    9.2229  -15.5038   25.1016 C   0  0  1  0  0  0  0  0  0  0  0  0
    8.1246  -14.5203   25.0867 C   0  0  0  0  0  0  0  0  0  0  0  0
    7.7860  -13.8273   26.3444 C   0  0  0  0  0  0  0  0  0  0  0  0
    6.6381  -12.8929   26.2701 C   0  0  0  0  0  0  0  0  0  0  0  0
    6.3029  -12.1913   27.5650 C   0  0  0  0  0  0  0  0  0  0  0  0
    5.1417  -11.3786   27.4789 N   0  0  0  0  0  0  0  0  0  0  0  0
    8.9959  -16.4041   26.2857 C   0  0  0  0  0  0  0  0  0  0  0  0
    8.5774  -17.5449   26.1206 O   0  0  0  0  0  0  0  0  0  0  0  0
    9.2559  -15.9514   27.5641 O   0  0  0  0  0  0  0  0  0  0  0  0
  2  1  1  0
  3  2  1  0
  4  5  1  0
  4  3  1  0
  5  1  1  0
  5  6  1  1
  6  8  1  0
  7  6  2  0
  8  9  1  0
  9 14  1  0
  9 10  1  6
 11 10  1  0
 12 11  1  0
 13 12  2  0
 14 15  2  0
 14 17  1  0
 16 12  1  0
 17 18  1  0
 18 24  1  0
 18 19  1  6
 20 19  1  0
 21 20  1  0
 22 21  1  0
 23 22  1  0
 24 25  2  0
 24 26  1  0
M  END
$$$$
