GFP.pdb
     RDKit          3D

 23 24  0  0  1  0  0  0  0  0999 V2000
    4.3450  -20.3449   22.9731 N   0  0  0  0  0  0  0  0  0  0  0  0
    5.6035  -20.1042   23.6542 C   0  0  0  0  0  0  0  0  0  0  0  0
    5.7610  -18.6227   23.7770 C   0  0  0  0  0  0  0  0  0  0  0  0
    5.2661  -17.8228   22.9112 O   0  0  0  0  0  0  0  0  0  0  0  0
    6.4572  -18.0139   24.8422 N   0  0  0  0  0  0  0  0  0  0  0  0
    6.8255  -16.6065   24.8872 C   0  0  1  0  0  0  0  0  0  0  0  0
    6.9231  -16.1509   26.3181 C   0  0  0  0  0  0  0  0  0  0  0  0
    7.0615  -14.7034   26.4912 C   0  0  0  0  0  0  0  0  0  0  0  0
    8.2708  -14.0363   26.5720 C   0  0  0  0  0  0  0  0  0  0  0  0
    8.2960  -12.6852   26.7371 C   0  0  0  0  0  0  0  0  0  0  0  0
    7.1392  -11.9044   26.8333 C   0  0  0  0  0  0  0  0  0  0  0  0
    5.9408  -12.5817   26.7512 C   0  0  0  0  0  0  0  0  0  0  0  0
    5.9124  -13.9458   26.5844 C   0  0  0  0  0  0  0  0  0  0  0  0
    8.0163  -16.3370   24.0651 C   0  0  0  0  0  0  0  0  0  0  0  0
    9.0218  -17.0725   24.2147 O   0  0  0  0  0  0  0  0  0  0  0  0
    8.1113  -15.2860   23.0935 N   0  0  0  0  0  0  0  0  0  0  0  0
    7.0862  -14.2666   22.8615 C   0  0  0  0  0  0  0  0  0  0  0  0
    7.3817  -13.7808   21.4424 C   0  0  0  0  0  0  0  0  0  0  0  0
    8.9094  -13.7474   21.5192 C   0  0  0  0  0  0  0  0  0  0  0  0
    9.2034  -15.0580   22.1772 C   0  0  1  0  0  0  0  0  0  0  0  0
   10.5039  -14.9418   22.9134 C   0  0  0  0  0  0  0  0  0  0  0  0
   10.5594  -14.9009   24.2877 O   0  0  0  0  0  0  0  0  0  0  0  0
   11.5686  -14.8803   22.2615 O   0  0  0  0  0  0  0  0  0  0  0  0
  1  2  1  0
  2  3  1  0
  3  4  2  0
  5  6  1  0
  5  3  1  0
  6 14  1  0
  6  7  1  1
  8  9  2  0
  8  7  1  0
 10  9  1  0
 11 10  2  0
 12 11  1  0
 12 13  2  0
 13  8  1  0
 14 15  2  0
 14 16  1  0
 16 20  1  0
 16 17  1  0
 17 18  1  0
 19 18  1  0
 20 19  1  0
 21 22  1  0
 20 21  1  1
 23 21  2  0
M  END
$$$$
