GFP.pdb
     RDKit          3D

 23 24  0  0  1  0  0  0  0  0999 V2000
    4.7691  -20.5774   22.9112 N   0  0  0  0  0  0  0  0  0  0  0  0
    5.7183  -20.2537   23.9600 C   0  0  0  0  0  0  0  0  0  0  0  0
    5.8862  -18.7683   23.9583 C   0  0  0  0  0  0  0  0  0  0  0  0
    5.3395  -18.0338   23.0662 O   0  0  0  0  0  0  0  0  0  0  0  0
    6.6491  -18.0843   24.9279 N   0  0  0  0  0  0  0  0  0  0  0  0
    6.9470  -16.6603   24.8866 C   0  0  1  0  0  0  0  0  0  0  0  0
    7.0614  -16.1229   26.2876 C   0  0  0  0  0  0  0  0  0  0  0  0
    7.1321  -14.6631   26.3790 C   0  0  0  0  0  0  0  0  0  0  0  0
    6.0326  -13.8234   26.3680 C   0  0  0  0  0  0  0  0  0  0  0  0
    6.2017  -12.4753   26.4544 C   0  0  0  0  0  0  0  0  0  0  0  0
    7.4571  -11.8665   26.5569 C   0  0  0  0  0  0  0  0  0  0  0  0
    8.5443  -12.7148   26.5668 C   0  0  0  0  0  0  0  0  0  0  0  0
    8.3766  -14.0763   26.4797 C   0  0  0  0  0  0  0  0  0  0  0  0
    8.0991  -16.3782   24.0151 C   0  0  0  0  0  0  0  0  0  0  0  0
    9.1273  -17.0864   24.1399 O   0  0  0  0  0  0  0  0  0  0  0  0
    8.1318  -15.3441   23.0216 N   0  0  0  0  0  0  0  0  0  0  0  0
    7.0750  -14.3525   22.8118 C   0  0  0  0  0  0  0  0  0  0  0  0
    7.3036  -13.8874   21.3735 C   0  0  0  0  0  0  0  0  0  0  0  0
    8.8319  -13.8182   21.3893 C   0  0  0  0  0  0  0  0  0  0  0  0
    9.1816  -15.1091   22.0590 C   0  0  1  0  0  0  0  0  0  0  0  0
   10.5068  -14.9498   22.7409 C   0  0  0  0  0  0  0  0  0  0  0  0
   10.6124  -14.8530   24.1095 O   0  0  0  0  0  0  0  0  0  0  0  0
   11.5461  -14.9036   22.0479 O   0  0  0  0  0  0  0  0  0  0  0  0
  1  2  1  0
  2  3  1  0
  3  4  2  0
  5  6  1  0
  5  3  1  0
  6 14  1  0
  6  7  1  1
  8  9  2  0
  8  7  1  0
 10  9  1  0
 11 10  2  0
 12 11  1  0
 12 13  2  0
 13  8  1  0
 14 15  2  0
 14 16  1  0
 16 20  1  0
 16 17  1  0
 17 18  1  0
 19 18  1  0
 20 19  1  0
 21 22  1  0
 20 21  1  1
 23 21  2  0
M  END
$$$$
