GFP.pdb
     RDKit          3D

 23 24  0  0  1  0  0  0  0  0999 V2000
    4.9447  -20.7626   23.6328 N   0  0  0  0  0  0  0  0  0  0  0  0
    5.4863  -20.1974   24.8546 C   0  0  0  0  0  0  0  0  0  0  0  0
    5.6065  -18.7227   24.6416 C   0  0  0  0  0  0  0  0  0  0  0  0
    4.5886  -17.9519   24.7052 O   0  0  0  0  0  0  0  0  0  0  0  0
    6.8348  -18.0889   24.3596 N   0  0  0  0  0  0  0  0  0  0  0  0
    7.0714  -16.6585   24.4869 C   0  0  1  0  0  0  0  0  0  0  0  0
    7.1375  -16.2805   25.9421 C   0  0  0  0  0  0  0  0  0  0  0  0
    7.2003  -14.8400   26.1978 C   0  0  0  0  0  0  0  0  0  0  0  0
    6.0945  -14.0238   26.3566 C   0  0  0  0  0  0  0  0  0  0  0  0
    6.2561  -12.6919   26.5880 C   0  0  0  0  0  0  0  0  0  0  0  0
    7.5097  -12.0775   26.6781 C   0  0  0  0  0  0  0  0  0  0  0  0
    8.6032  -12.9023   26.5179 C   0  0  0  0  0  0  0  0  0  0  0  0
    8.4430  -14.2474   26.2842 C   0  0  0  0  0  0  0  0  0  0  0  0
    8.2255  -16.2315   23.6793 C   0  0  0  0  0  0  0  0  0  0  0  0
    9.3258  -16.8057   23.8634 O   0  0  0  0  0  0  0  0  0  0  0  0
    8.1832  -15.1982   22.6853 N   0  0  0  0  0  0  0  0  0  0  0  0
    7.1042  -14.2187   22.5427 C   0  0  0  0  0  0  0  0  0  0  0  0
    7.2355  -13.7527   21.0927 C   0  0  0  0  0  0  0  0  0  0  0  0
    8.7609  -13.6665   21.0111 C   0  0  0  0  0  0  0  0  0  0  0  0
    9.1670  -14.9526   21.6577 C   0  0  1  0  0  0  0  0  0  0  0  0
   10.5311  -14.7778   22.2538 C   0  0  0  0  0  0  0  0  0  0  0  0
   11.6717  -14.8320   21.4859 O   0  0  0  0  0  0  0  0  0  0  0  0
   10.6367  -14.5771   23.4830 O   0  0  0  0  0  0  0  0  0  0  0  0
  1  2  1  0
  2  3  1  0
  3  4  2  0
  5  6  1  0
  5  3  1  0
  6 14  1  0
  6  7  1  1
  8  9  2  0
  8  7  1  0
 10  9  1  0
 11 10  2  0
 12 11  1  0
 12 13  2  0
 13  8  1  0
 14 15  2  0
 14 16  1  0
 16 20  1  0
 16 17  1  0
 17 18  1  0
 19 18  1  0
 20 19  1  0
 21 22  1  0
 20 21  1  1
 23 21  2  0
M  END
$$$$
