GFP.pdb
     RDKit          3D

 23 24  0  0  1  0  0  0  0  0999 V2000
    4.9683  -20.4228   22.5283 N   0  0  0  0  0  0  0  0  0  0  0  0
    5.4650  -20.1081   23.8549 C   0  0  0  0  0  0  0  0  0  0  0  0
    5.6803  -18.6297   23.9049 C   0  0  0  0  0  0  0  0  0  0  0  0
    5.0924  -17.8397   23.0897 O   0  0  0  0  0  0  0  0  0  0  0  0
    6.5354  -18.0132   24.8423 N   0  0  0  0  0  0  0  0  0  0  0  0
    6.8608  -16.5947   24.8513 C   0  0  1  0  0  0  0  0  0  0  0  0
    6.8481  -16.0779   26.2646 C   0  0  0  0  0  0  0  0  0  0  0  0
    7.0865  -14.6387   26.3919 C   0  0  0  0  0  0  0  0  0  0  0  0
    8.3373  -14.0594   26.5101 C   0  0  0  0  0  0  0  0  0  0  0  0
    8.4562  -12.7083   26.6273 C   0  0  0  0  0  0  0  0  0  0  0  0
    7.3581  -11.8415   26.6358 C   0  0  0  0  0  0  0  0  0  0  0  0
    6.1175  -12.4318   26.5172 C   0  0  0  0  0  0  0  0  0  0  0  0
    5.9946  -13.7958   26.3989 C   0  0  0  0  0  0  0  0  0  0  0  0
    8.0969  -16.3231   24.0998 C   0  0  0  0  0  0  0  0  0  0  0  0
    9.1067  -17.0279   24.3403 O   0  0  0  0  0  0  0  0  0  0  0  0
    8.2322  -15.3028   23.1006 N   0  0  0  0  0  0  0  0  0  0  0  0
    7.2598  -14.2352   22.8588 C   0  0  0  0  0  0  0  0  0  0  0  0
    7.5572  -13.8009   21.4235 C   0  0  0  0  0  0  0  0  0  0  0  0
    9.0856  -13.8487   21.4759 C   0  0  0  0  0  0  0  0  0  0  0  0
    9.3195  -15.1568   22.1622 C   0  0  1  0  0  0  0  0  0  0  0  0
   10.6365  -15.0936   22.8750 C   0  0  0  0  0  0  0  0  0  0  0  0
   10.7167  -14.9594   24.2422 O   0  0  0  0  0  0  0  0  0  0  0  0
   11.6924  -15.1647   22.2098 O   0  0  0  0  0  0  0  0  0  0  0  0
  1  2  1  0
  2  3  1  0
  3  4  2  0
  5  6  1  0
  5  3  1  0
  6 14  1  0
  6  7  1  1
  8  9  2  0
  8  7  1  0
 10  9  1  0
 11 10  2  0
 12 11  1  0
 12 13  2  0
 13  8  1  0
 14 15  2  0
 14 16  1  0
 16 20  1  0
 16 17  1  0
 17 18  1  0
 19 18  1  0
 20 19  1  0
 21 22  1  0
 20 21  1  1
 23 21  2  0
M  END
$$$$
