GFP.pdb
     RDKit          3D

 23 24  0  0  1  0  0  0  0  0999 V2000
    4.2212  -19.9578   23.2478 N   0  0  0  0  0  0  0  0  0  0  0  0
    5.3154  -19.6932   24.1636 C   0  0  0  0  0  0  0  0  0  0  0  0
    5.6908  -18.2559   23.9968 C   0  0  0  0  0  0  0  0  0  0  0  0
    5.1206  -17.5115   23.1279 O   0  0  0  0  0  0  0  0  0  0  0  0
    6.6866  -17.6307   24.7762 N   0  0  0  0  0  0  0  0  0  0  0  0
    7.1795  -16.2797   24.5527 C   0  0  1  0  0  0  0  0  0  0  0  0
    7.7542  -15.7291   25.8299 C   0  0  0  0  0  0  0  0  0  0  0  0
    7.3681  -14.3486   26.1293 C   0  0  0  0  0  0  0  0  0  0  0  0
    8.2490  -13.2831   26.1832 C   0  0  0  0  0  0  0  0  0  0  0  0
    7.7930  -12.0337   26.4740 C   0  0  0  0  0  0  0  0  0  0  0  0
    6.4469  -11.7508   26.7298 C   0  0  0  0  0  0  0  0  0  0  0  0
    5.5799  -12.8216   26.6728 C   0  0  0  0  0  0  0  0  0  0  0  0
    6.0376  -14.0841   26.3795 C   0  0  0  0  0  0  0  0  0  0  0  0
    8.0793  -16.2225   23.3893 C   0  0  0  0  0  0  0  0  0  0  0  0
    8.9178  -17.1438   23.2394 O   0  0  0  0  0  0  0  0  0  0  0  0
    8.0659  -15.1812   22.4027 N   0  0  0  0  0  0  0  0  0  0  0  0
    7.1411  -14.0461   22.3977 C   0  0  0  0  0  0  0  0  0  0  0  0
    7.1503  -13.5857   20.9399 C   0  0  0  0  0  0  0  0  0  0  0  0
    8.6466  -13.7331   20.6568 C   0  0  0  0  0  0  0  0  0  0  0  0
    8.9317  -15.0751   21.2524 C   0  0  1  0  0  0  0  0  0  0  0  0
   10.3729  -15.1197   21.6617 C   0  0  0  0  0  0  0  0  0  0  0  0
   11.3772  -15.3786   20.7572 O   0  0  0  0  0  0  0  0  0  0  0  0
   10.6723  -14.9160   22.8581 O   0  0  0  0  0  0  0  0  0  0  0  0
  1  2  1  0
  2  3  1  0
  3  4  2  0
  5  6  1  0
  5  3  1  0
  6 14  1  0
  6  7  1  1
  8  9  2  0
  8  7  1  0
 10  9  1  0
 11 10  2  0
 12 11  1  0
 12 13  2  0
 13  8  1  0
 14 15  2  0
 14 16  1  0
 16 20  1  0
 16 17  1  0
 17 18  1  0
 19 18  1  0
 20 19  1  0
 21 22  1  0
 20 21  1  1
 23 21  2  0
M  END
$$$$
