GFP.pdb
     RDKit          3D

 23 24  0  0  1  0  0  0  0  0999 V2000
    3.8907  -19.7867   22.1492 N   0  0  0  0  0  0  0  0  0  0  0  0
    4.8114  -19.7525   23.2703 C   0  0  0  0  0  0  0  0  0  0  0  0
    5.3008  -18.3455   23.3950 C   0  0  0  0  0  0  0  0  0  0  0  0
    4.9144  -17.4287   22.5923 O   0  0  0  0  0  0  0  0  0  0  0  0
    6.2104  -17.9384   24.3935 N   0  0  0  0  0  0  0  0  0  0  0  0
    6.7261  -16.5848   24.5348 C   0  0  1  0  0  0  0  0  0  0  0  0
    6.8771  -16.2467   25.9934 C   0  0  0  0  0  0  0  0  0  0  0  0
    6.9782  -14.8147   26.2822 C   0  0  0  0  0  0  0  0  0  0  0  0
    5.9019  -13.9464   26.3252 C   0  0  0  0  0  0  0  0  0  0  0  0
    6.0986  -12.6275   26.5994 C   0  0  0  0  0  0  0  0  0  0  0  0
    7.3607  -12.0777   26.8484 C   0  0  0  0  0  0  0  0  0  0  0  0
    8.4246  -12.9540   26.8026 C   0  0  0  0  0  0  0  0  0  0  0  0
    8.2289  -14.2861   26.5259 C   0  0  0  0  0  0  0  0  0  0  0  0
    7.9355  -16.3837   23.7203 C   0  0  0  0  0  0  0  0  0  0  0  0
    8.8678  -17.2169   23.8234 O   0  0  0  0  0  0  0  0  0  0  0  0
    8.1270  -15.2951   22.8060 N   0  0  0  0  0  0  0  0  0  0  0  0
    7.1981  -14.1768   22.6311 C   0  0  0  0  0  0  0  0  0  0  0  0
    7.5396  -13.6445   21.2393 C   0  0  0  0  0  0  0  0  0  0  0  0
    9.0639  -13.7526   21.3142 C   0  0  0  0  0  0  0  0  0  0  0  0
    9.2373  -15.1175   21.9006 C   0  0  1  0  0  0  0  0  0  0  0  0
   10.5412  -15.1582   22.6388 C   0  0  0  0  0  0  0  0  0  0  0  0
   10.6023  -15.0675   24.0105 O   0  0  0  0  0  0  0  0  0  0  0  0
   11.6036  -15.2779   21.9911 O   0  0  0  0  0  0  0  0  0  0  0  0
  1  2  1  0
  2  3  1  0
  3  4  2  0
  5  6  1  0
  5  3  1  0
  6 14  1  0
  6  7  1  1
  8  9  2  0
  8  7  1  0
 10  9  1  0
 11 10  2  0
 12 11  1  0
 12 13  2  0
 13  8  1  0
 14 15  2  0
 14 16  1  0
 16 20  1  0
 16 17  1  0
 17 18  1  0
 19 18  1  0
 20 19  1  0
 21 22  1  0
 20 21  1  1
 23 21  2  0
M  END
$$$$
