GFP.pdb
     RDKit          3D

 23 24  0  0  1  0  0  0  0  0999 V2000
    4.7202  -20.1194   22.3672 N   0  0  0  0  0  0  0  0  0  0  0  0
    5.4214  -19.9097   23.6202 C   0  0  0  0  0  0  0  0  0  0  0  0
    5.8320  -18.4728   23.6594 C   0  0  0  0  0  0  0  0  0  0  0  0
    5.6952  -17.7095   22.6431 O   0  0  0  0  0  0  0  0  0  0  0  0
    6.3910  -17.8688   24.8051 N   0  0  0  0  0  0  0  0  0  0  0  0
    6.8771  -16.4980   24.8587 C   0  0  1  0  0  0  0  0  0  0  0  0
    6.6239  -15.9206   26.2252 C   0  0  0  0  0  0  0  0  0  0  0  0
    6.8396  -14.4759   26.3285 C   0  0  0  0  0  0  0  0  0  0  0  0
    5.8684  -13.5199   26.0899 C   0  0  0  0  0  0  0  0  0  0  0  0
    6.1680  -12.1972   26.2087 C   0  0  0  0  0  0  0  0  0  0  0  0
    7.4364  -11.7293   26.5684 C   0  0  0  0  0  0  0  0  0  0  0  0
    8.3949  -12.6924   26.8034 C   0  0  0  0  0  0  0  0  0  0  0  0
    8.0952  -14.0287   26.6841 C   0  0  0  0  0  0  0  0  0  0  0  0
    8.2695  -16.4039   24.3909 C   0  0  0  0  0  0  0  0  0  0  0  0
    9.1274  -17.1500   24.9215 O   0  0  0  0  0  0  0  0  0  0  0  0
    8.7216  -15.5142   23.3605 N   0  0  0  0  0  0  0  0  0  0  0  0
    7.9280  -14.4243   22.7894 C   0  0  0  0  0  0  0  0  0  0  0  0
    8.5886  -14.1753   21.4334 C   0  0  0  0  0  0  0  0  0  0  0  0
   10.0525  -14.3092   21.8575 C   0  0  0  0  0  0  0  0  0  0  0  0
   10.0064  -15.5423   22.7027 C   0  0  1  0  0  0  0  0  0  0  0  0
   11.1209  -15.4780   23.7028 C   0  0  0  0  0  0  0  0  0  0  0  0
   10.8838  -15.2694   25.0421 O   0  0  0  0  0  0  0  0  0  0  0  0
   12.2994  -15.6176   23.3103 O   0  0  0  0  0  0  0  0  0  0  0  0
  1  2  1  0
  2  3  1  0
  3  4  2  0
  5  6  1  0
  5  3  1  0
  6 14  1  0
  6  7  1  1
  8  9  2  0
  8  7  1  0
 10  9  1  0
 11 10  2  0
 12 11  1  0
 12 13  2  0
 13  8  1  0
 14 15  2  0
 14 16  1  0
 16 20  1  0
 16 17  1  0
 17 18  1  0
 19 18  1  0
 20 19  1  0
 21 22  1  0
 20 21  1  1
 23 21  2  0
M  END
$$$$
