GFP.pdb
     RDKit          3D

 23 24  0  0  1  0  0  0  0  0999 V2000
    4.5870  -20.2773   23.4786 N   0  0  0  0  0  0  0  0  0  0  0  0
    5.5952  -19.9055   24.4538 C   0  0  0  0  0  0  0  0  0  0  0  0
    5.8532  -18.4428   24.2840 C   0  0  0  0  0  0  0  0  0  0  0  0
    5.2549  -17.7574   23.3860 O   0  0  0  0  0  0  0  0  0  0  0  0
    6.7622  -17.7283   25.0922 N   0  0  0  0  0  0  0  0  0  0  0  0
    7.2072  -16.3684   24.8261 C   0  0  1  0  0  0  0  0  0  0  0  0
    7.7536  -15.7551   26.0871 C   0  0  0  0  0  0  0  0  0  0  0  0
    7.3843  -14.3535   26.2955 C   0  0  0  0  0  0  0  0  0  0  0  0
    8.2828  -13.3017   26.3183 C   0  0  0  0  0  0  0  0  0  0  0  0
    7.8414  -12.0303   26.5232 C   0  0  0  0  0  0  0  0  0  0  0  0
    6.4935  -11.7105   26.7184 C   0  0  0  0  0  0  0  0  0  0  0  0
    5.6087  -12.7679   26.6933 C   0  0  0  0  0  0  0  0  0  0  0  0
    6.0516  -14.0526   26.4866 C   0  0  0  0  0  0  0  0  0  0  0  0
    8.1115  -16.3172   23.6659 C   0  0  0  0  0  0  0  0  0  0  0  0
    8.9685  -17.2247   23.5387 O   0  0  0  0  0  0  0  0  0  0  0  0
    8.0828  -15.2965   22.6584 N   0  0  0  0  0  0  0  0  0  0  0  0
    7.1390  -14.1775   22.6285 C   0  0  0  0  0  0  0  0  0  0  0  0
    7.1438  -13.7467   21.1617 C   0  0  0  0  0  0  0  0  0  0  0  0
    8.6430  -13.8746   20.8844 C   0  0  0  0  0  0  0  0  0  0  0  0
    8.9493  -15.1993   21.5078 C   0  0  1  0  0  0  0  0  0  0  0  0
   10.3901  -15.2112   21.9206 C   0  0  0  0  0  0  0  0  0  0  0  0
   10.7693  -15.0895   23.2378 O   0  0  0  0  0  0  0  0  0  0  0  0
   11.2731  -15.3352   21.0446 O   0  0  0  0  0  0  0  0  0  0  0  0
  1  2  1  0
  2  3  1  0
  3  4  2  0
  5  6  1  0
  5  3  1  0
  6 14  1  0
  6  7  1  1
  8  9  2  0
  8  7  1  0
 10  9  1  0
 11 10  2  0
 12 11  1  0
 12 13  2  0
 13  8  1  0
 14 15  2  0
 14 16  1  0
 16 20  1  0
 16 17  1  0
 17 18  1  0
 19 18  1  0
 20 19  1  0
 21 22  1  0
 20 21  1  1
 23 21  2  0
M  END
$$$$
