GFP.pdb
     RDKit          3D

 23 24  0  0  1  0  0  0  0  0999 V2000
    4.3524  -20.4884   22.9824 N   0  0  0  0  0  0  0  0  0  0  0  0
    5.4123  -20.2255   23.9380 C   0  0  0  0  0  0  0  0  0  0  0  0
    5.6264  -18.7463   23.9617 C   0  0  0  0  0  0  0  0  0  0  0  0
    5.0562  -17.9737   23.1178 O   0  0  0  0  0  0  0  0  0  0  0  0
    6.4611  -18.1099   24.9043 N   0  0  0  0  0  0  0  0  0  0  0  0
    6.8109  -16.6975   24.8729 C   0  0  1  0  0  0  0  0  0  0  0  0
    6.9670  -16.1800   26.2774 C   0  0  0  0  0  0  0  0  0  0  0  0
    7.1877  -14.7357   26.3761 C   0  0  0  0  0  0  0  0  0  0  0  0
    8.4323  -14.1315   26.3742 C   0  0  0  0  0  0  0  0  0  0  0  0
    8.5347  -12.7777   26.4744 C   0  0  0  0  0  0  0  0  0  0  0  0
    7.4253  -11.9324   26.5825 C   0  0  0  0  0  0  0  0  0  0  0  0
    6.1910  -12.5473   26.5832 C   0  0  0  0  0  0  0  0  0  0  0  0
    6.0847  -13.9141   26.4822 C   0  0  0  0  0  0  0  0  0  0  0  0
    7.9590  -16.4488   23.9862 C   0  0  0  0  0  0  0  0  0  0  0  0
    8.9723  -17.1791   24.1053 O   0  0  0  0  0  0  0  0  0  0  0  0
    8.0037  -15.4237   22.9838 N   0  0  0  0  0  0  0  0  0  0  0  0
    6.9672  -14.4104   22.7773 C   0  0  0  0  0  0  0  0  0  0  0  0
    7.1899  -13.9621   21.3328 C   0  0  0  0  0  0  0  0  0  0  0  0
    8.7195  -13.9272   21.3312 C   0  0  0  0  0  0  0  0  0  0  0  0
    9.0477  -15.2202   22.0077 C   0  0  1  0  0  0  0  0  0  0  0  0
   10.3837  -15.0852   22.6736 C   0  0  0  0  0  0  0  0  0  0  0  0
   11.5593  -15.1360   21.9602 O   0  0  0  0  0  0  0  0  0  0  0  0
   10.4326  -14.9220   23.9119 O   0  0  0  0  0  0  0  0  0  0  0  0
  1  2  1  0
  2  3  1  0
  3  4  2  0
  5  6  1  0
  5  3  1  0
  6 14  1  0
  6  7  1  1
  8  9  2  0
  8  7  1  0
 10  9  1  0
 11 10  2  0
 12 11  1  0
 12 13  2  0
 13  8  1  0
 14 15  2  0
 14 16  1  0
 16 20  1  0
 16 17  1  0
 17 18  1  0
 19 18  1  0
 20 19  1  0
 21 22  1  0
 20 21  1  1
 23 21  2  0
M  END
$$$$
