GFP.pdb
     RDKit          3D

 23 24  0  0  1  0  0  0  0  0999 V2000
    4.2656  -20.2999   22.7517 N   0  0  0  0  0  0  0  0  0  0  0  0
    5.4589  -20.1218   23.5579 C   0  0  0  0  0  0  0  0  0  0  0  0
    5.6910  -18.6502   23.6810 C   0  0  0  0  0  0  0  0  0  0  0  0
    5.1622  -17.8186   22.8668 O   0  0  0  0  0  0  0  0  0  0  0  0
    6.4987  -18.0858   24.6906 N   0  0  0  0  0  0  0  0  0  0  0  0
    6.8622  -16.6784   24.7631 C   0  0  1  0  0  0  0  0  0  0  0  0
    6.9125  -16.2386   26.2015 C   0  0  0  0  0  0  0  0  0  0  0  0
    6.9775  -14.7887   26.3960 C   0  0  0  0  0  0  0  0  0  0  0  0
    5.8750  -13.9540   26.4390 C   0  0  0  0  0  0  0  0  0  0  0  0
    6.0386  -12.6148   26.6212 C   0  0  0  0  0  0  0  0  0  0  0  0
    7.2914  -12.0106   26.7724 C   0  0  0  0  0  0  0  0  0  0  0  0
    8.3816  -12.8538   26.7276 C   0  0  0  0  0  0  0  0  0  0  0  0
    8.2193  -14.2064   26.5438 C   0  0  0  0  0  0  0  0  0  0  0  0
    8.0782  -16.3974   23.9829 C   0  0  0  0  0  0  0  0  0  0  0  0
    9.0520  -17.1805   24.0959 O   0  0  0  0  0  0  0  0  0  0  0  0
    8.2321  -15.2840   23.0918 N   0  0  0  0  0  0  0  0  0  0  0  0
    7.3055  -14.1542   22.9975 C   0  0  0  0  0  0  0  0  0  0  0  0
    7.5796  -13.5839   21.6059 C   0  0  0  0  0  0  0  0  0  0  0  0
    9.1048  -13.7053   21.5988 C   0  0  0  0  0  0  0  0  0  0  0  0
    9.2960  -15.0881   22.1358 C   0  0  1  0  0  0  0  0  0  0  0  0
   10.6357  -15.1600   22.8042 C   0  0  0  0  0  0  0  0  0  0  0  0
   10.7633  -15.1879   24.1741 O   0  0  0  0  0  0  0  0  0  0  0  0
   11.6667  -15.1956   22.0984 O   0  0  0  0  0  0  0  0  0  0  0  0
  1  2  1  0
  2  3  1  0
  3  4  2  0
  5  6  1  0
  5  3  1  0
  6 14  1  0
  6  7  1  1
  8  9  2  0
  8  7  1  0
 10  9  1  0
 11 10  2  0
 12 11  1  0
 12 13  2  0
 13  8  1  0
 14 15  2  0
 14 16  1  0
 16 20  1  0
 16 17  1  0
 17 18  1  0
 19 18  1  0
 20 19  1  0
 21 22  1  0
 20 21  1  1
 23 21  2  0
M  END
$$$$
