GFP.pdb
     RDKit          3D

 23 24  0  0  1  0  0  0  0  0999 V2000
    4.4351  -20.4180   22.7966 N   0  0  0  0  0  0  0  0  0  0  0  0
    5.3794  -20.1467   23.8646 C   0  0  0  0  0  0  0  0  0  0  0  0
    5.6115  -18.6700   23.8819 C   0  0  0  0  0  0  0  0  0  0  0  0
    5.0498  -17.8941   23.0355 O   0  0  0  0  0  0  0  0  0  0  0  0
    6.4551  -18.0401   24.8208 N   0  0  0  0  0  0  0  0  0  0  0  0
    6.7865  -16.6229   24.8089 C   0  0  1  0  0  0  0  0  0  0  0  0
    6.8531  -16.1034   26.2197 C   0  0  0  0  0  0  0  0  0  0  0  0
    6.9916  -14.6498   26.3304 C   0  0  0  0  0  0  0  0  0  0  0  0
    5.9357  -13.7568   26.2877 C   0  0  0  0  0  0  0  0  0  0  0  0
    6.1670  -12.4196   26.3959 C   0  0  0  0  0  0  0  0  0  0  0  0
    7.4459  -11.8745   26.5526 C   0  0  0  0  0  0  0  0  0  0  0  0
    8.4891  -12.7754   26.5936 C   0  0  0  0  0  0  0  0  0  0  0  0
    8.2584  -14.1261   26.4846 C   0  0  0  0  0  0  0  0  0  0  0  0
    7.9810  -16.3581   23.9906 C   0  0  0  0  0  0  0  0  0  0  0  0
    8.9976  -17.0705   24.1733 O   0  0  0  0  0  0  0  0  0  0  0  0
    8.0678  -15.3366   22.9873 N   0  0  0  0  0  0  0  0  0  0  0  0
    7.0446  -14.3190   22.7395 C   0  0  0  0  0  0  0  0  0  0  0  0
    7.3229  -13.8765   21.3029 C   0  0  0  0  0  0  0  0  0  0  0  0
    8.8517  -13.8490   21.3579 C   0  0  0  0  0  0  0  0  0  0  0  0
    9.1483  -15.1412   22.0500 C   0  0  1  0  0  0  0  0  0  0  0  0
   10.4593  -15.0105   22.7647 C   0  0  0  0  0  0  0  0  0  0  0  0
   11.6604  -15.0718   22.0958 O   0  0  0  0  0  0  0  0  0  0  0  0
   10.4630  -14.8410   24.0031 O   0  0  0  0  0  0  0  0  0  0  0  0
  1  2  1  0
  2  3  1  0
  3  4  2  0
  5  6  1  0
  5  3  1  0
  6 14  1  0
  6  7  1  1
  8  9  2  0
  8  7  1  0
 10  9  1  0
 11 10  2  0
 12 11  1  0
 12 13  2  0
 13  8  1  0
 14 15  2  0
 14 16  1  0
 16 20  1  0
 16 17  1  0
 17 18  1  0
 19 18  1  0
 20 19  1  0
 21 22  1  0
 20 21  1  1
 23 21  2  0
M  END
$$$$
