GFP.pdb
     RDKit          3D

 23 24  0  0  1  0  0  0  0  0999 V2000
    4.5485  -20.6965   23.5472 N   0  0  0  0  0  0  0  0  0  0  0  0
    5.8903  -20.2898   23.9212 C   0  0  0  0  0  0  0  0  0  0  0  0
    5.8942  -18.7966   23.9904 C   0  0  0  0  0  0  0  0  0  0  0  0
    5.2243  -18.0864   23.1652 O   0  0  0  0  0  0  0  0  0  0  0  0
    6.6275  -18.0783   24.9581 N   0  0  0  0  0  0  0  0  0  0  0  0
    6.9053  -16.6514   24.8884 C   0  0  1  0  0  0  0  0  0  0  0  0
    6.9710  -16.0766   26.2777 C   0  0  0  0  0  0  0  0  0  0  0  0
    7.1502  -14.6243   26.3311 C   0  0  0  0  0  0  0  0  0  0  0  0
    8.3777  -13.9874   26.3724 C   0  0  0  0  0  0  0  0  0  0  0  0
    8.4410  -12.6285   26.4244 C   0  0  0  0  0  0  0  0  0  0  0  0
    7.3067  -11.8097   26.4391 C   0  0  0  0  0  0  0  0  0  0  0  0
    6.0899  -12.4571   26.3975 C   0  0  0  0  0  0  0  0  0  0  0  0
    6.0230  -13.8291   26.3450 C   0  0  0  0  0  0  0  0  0  0  0  0
    8.0780  -16.3737   24.0434 C   0  0  0  0  0  0  0  0  0  0  0  0
    9.1025  -17.0818   24.1958 O   0  0  0  0  0  0  0  0  0  0  0  0
    8.1349  -15.3440   23.0464 N   0  0  0  0  0  0  0  0  0  0  0  0
    7.0944  -14.3384   22.8226 C   0  0  0  0  0  0  0  0  0  0  0  0
    7.3434  -13.8821   21.3849 C   0  0  0  0  0  0  0  0  0  0  0  0
    8.8724  -13.8345   21.4153 C   0  0  0  0  0  0  0  0  0  0  0  0
    9.1973  -15.1276   22.0931 C   0  0  1  0  0  0  0  0  0  0  0  0
   10.5180  -14.9844   22.7873 C   0  0  0  0  0  0  0  0  0  0  0  0
   11.7061  -14.9741   22.0931 O   0  0  0  0  0  0  0  0  0  0  0  0
   10.5421  -14.8712   24.0319 O   0  0  0  0  0  0  0  0  0  0  0  0
  1  2  1  0
  2  3  1  0
  3  4  2  0
  5  6  1  0
  5  3  1  0
  6 14  1  0
  6  7  1  1
  8  9  2  0
  8  7  1  0
 10  9  1  0
 11 10  2  0
 12 11  1  0
 12 13  2  0
 13  8  1  0
 14 15  2  0
 14 16  1  0
 16 20  1  0
 16 17  1  0
 17 18  1  0
 19 18  1  0
 20 19  1  0
 21 22  1  0
 20 21  1  1
 23 21  2  0
M  END
$$$$
