GFP.pdb
     RDKit          3D

 23 24  0  0  1  0  0  0  0  0999 V2000
    4.5961  -20.4740   22.8608 N   0  0  0  0  0  0  0  0  0  0  0  0
    5.5054  -20.1853   23.9542 C   0  0  0  0  0  0  0  0  0  0  0  0
    5.7350  -18.7082   23.9573 C   0  0  0  0  0  0  0  0  0  0  0  0
    5.2220  -17.9492   23.0658 O   0  0  0  0  0  0  0  0  0  0  0  0
    6.5228  -18.0593   24.9311 N   0  0  0  0  0  0  0  0  0  0  0  0
    6.8628  -16.6444   24.9056 C   0  0  1  0  0  0  0  0  0  0  0  0
    6.9494  -16.1158   26.3119 C   0  0  0  0  0  0  0  0  0  0  0  0
    6.9848  -14.6555   26.4155 C   0  0  0  0  0  0  0  0  0  0  0  0
    5.8641  -13.8445   26.4391 C   0  0  0  0  0  0  0  0  0  0  0  0
    6.0004  -12.4933   26.5343 C   0  0  0  0  0  0  0  0  0  0  0  0
    7.2419  -11.8532   26.6123 C   0  0  0  0  0  0  0  0  0  0  0  0
    8.3505  -12.6730   26.5877 C   0  0  0  0  0  0  0  0  0  0  0  0
    8.2158  -14.0376   26.4916 C   0  0  0  0  0  0  0  0  0  0  0  0
    8.0489  -16.3925   24.0713 C   0  0  0  0  0  0  0  0  0  0  0  0
    9.0479  -17.1377   24.2165 O   0  0  0  0  0  0  0  0  0  0  0  0
    8.1465  -15.3484   23.0925 N   0  0  0  0  0  0  0  0  0  0  0  0
    7.1924  -14.2473   22.9467 C   0  0  0  0  0  0  0  0  0  0  0  0
    7.4042  -13.7810   21.5063 C   0  0  0  0  0  0  0  0  0  0  0  0
    8.9305  -13.8733   21.4518 C   0  0  0  0  0  0  0  0  0  0  0  0
    9.1711  -15.2066   22.0855 C   0  0  1  0  0  0  0  0  0  0  0  0
   10.5349  -15.2009   22.7071 C   0  0  0  0  0  0  0  0  0  0  0  0
   10.7111  -15.1657   24.0714 O   0  0  0  0  0  0  0  0  0  0  0  0
   11.5414  -15.2288   21.9664 O   0  0  0  0  0  0  0  0  0  0  0  0
  1  2  1  0
  2  3  1  0
  3  4  2  0
  5  6  1  0
  5  3  1  0
  6 14  1  0
  6  7  1  1
  8  9  2  0
  8  7  1  0
 10  9  1  0
 11 10  2  0
 12 11  1  0
 12 13  2  0
 13  8  1  0
 14 15  2  0
 14 16  1  0
 16 20  1  0
 16 17  1  0
 17 18  1  0
 19 18  1  0
 20 19  1  0
 21 22  1  0
 20 21  1  1
 23 21  2  0
M  END
$$$$
