PCL.pdb
     RDKit          3D

 22 22  0  0  1  0  0  0  0  0999 V2000
    8.6925  -15.1586   18.8117 N   0  0  0  0  0  0  0  0  0  0  0  0
    8.9881  -14.5505   17.5230 C   0  0  0  0  0  0  0  0  0  0  0  0
    7.9274  -13.4544   17.4750 C   0  0  0  0  0  0  0  0  0  0  0  0
    7.8390  -12.9549   18.9169 C   0  0  0  0  0  0  0  0  0  0  0  0
    8.5736  -14.0037   19.6796 C   0  0  1  0  0  0  0  0  0  0  0  0
    7.9934  -14.3798   20.9684 C   0  0  0  0  0  0  0  0  0  0  0  0
    7.7924  -13.4262   21.7992 O   0  0  0  0  0  0  0  0  0  0  0  0
    7.6659  -15.7200   21.2963 N   0  0  0  0  0  0  0  0  0  0  0  0
    7.0584  -16.0036   22.5745 C   0  0  1  0  0  0  0  0  0  0  0  0
    6.7825  -17.5093   22.6300 C   0  0  0  0  0  0  0  0  0  0  0  0
    8.3108  -18.4288   22.8926 S   0  0  0  0  0  0  0  0  0  0  0  0
    7.9356  -15.5950   23.7024 C   0  0  0  0  0  0  0  0  0  0  0  0
    9.1783  -15.5542   23.5950 O   0  0  0  0  0  0  0  0  0  0  0  0
    5.5835  -12.0908   27.1948 C   0  0  0  0  0  0  0  0  0  0  0  0
    6.6028  -12.7657   26.3465 C   0  0  1  0  0  0  0  0  0  0  0  0
    7.4828  -11.6501   25.7598 C   0  0  0  0  0  0  0  0  0  0  0  0
    7.4082  -13.8467   26.9273 C   0  0  0  0  0  0  0  0  0  0  0  0
    8.2033  -14.7502   26.0846 C   0  0  2  0  0  0  0  0  0  0  0  0
    7.3739  -15.2347   24.9510 N   0  0  0  0  0  0  0  0  0  0  0  0
    8.8999  -15.8761   26.6612 C   0  0  0  0  0  0  0  0  0  0  0  0
   10.0910  -15.6144   27.3923 O   0  0  0  0  0  0  0  0  0  0  0  0
    8.5831  -17.0855   26.5992 O   0  0  0  0  0  0  0  0  0  0  0  0
  1  5  1  0
  2  3  1  0
  2  1  1  0
  3  4  1  0
  5  4  1  0
  6  8  1  0
  5  6  1  1
  7  6  2  0
  9 10  1  6
  9  8  1  0
 10 11  1  0
 12  9  1  0
 12 19  1  0
 13 12  2  0
 15 16  1  1
 15 14  1  0
 17 15  1  0
 18 19  1  0
 18 17  1  1
 20 21  1  0
 20 18  1  0
 22 20  2  0
M  END
$$$$
