PCL.pdb
     RDKit          3D

 22 22  0  0  1  0  0  0  0  0999 V2000
    8.5222  -15.0666   18.9244 N   0  0  0  0  0  0  0  0  0  0  0  0
    8.6653  -14.3615   17.6594 C   0  0  0  0  0  0  0  0  0  0  0  0
    7.5265  -13.3514   17.7656 C   0  0  0  0  0  0  0  0  0  0  0  0
    7.5201  -12.9470   19.2397 C   0  0  0  0  0  0  0  0  0  0  0  0
    8.3902  -13.9783   19.8729 C   0  0  1  0  0  0  0  0  0  0  0  0
    7.9471  -14.4748   21.1751 C   0  0  0  0  0  0  0  0  0  0  0  0
    7.7453  -13.5912   22.0798 O   0  0  0  0  0  0  0  0  0  0  0  0
    7.7472  -15.8538   21.4387 N   0  0  0  0  0  0  0  0  0  0  0  0
    7.2362  -16.2573   22.7270 C   0  0  1  0  0  0  0  0  0  0  0  0
    7.1362  -17.7858   22.7251 C   0  0  0  0  0  0  0  0  0  0  0  0
    6.5446  -18.3885   24.3179 S   0  0  0  0  0  0  0  0  0  0  0  0
    8.1131  -15.7962   23.8347 C   0  0  0  0  0  0  0  0  0  0  0  0
    9.3556  -15.9029   23.7853 O   0  0  0  0  0  0  0  0  0  0  0  0
    6.2207  -11.7577   27.0389 C   0  0  0  0  0  0  0  0  0  0  0  0
    7.1049  -12.6682   26.2623 C   0  0  1  0  0  0  0  0  0  0  0  0
    8.1435  -11.7722   25.5681 C   0  0  0  0  0  0  0  0  0  0  0  0
    7.7353  -13.8027   26.9481 C   0  0  0  0  0  0  0  0  0  0  0  0
    8.3643  -14.8994   26.1996 C   0  0  2  0  0  0  0  0  0  0  0  0
    7.5514  -15.2133   24.9960 N   0  0  0  0  0  0  0  0  0  0  0  0
    8.7130  -16.1372   26.8566 C   0  0  0  0  0  0  0  0  0  0  0  0
    9.8967  -16.1586   27.6441 O   0  0  0  0  0  0  0  0  0  0  0  0
    8.0920  -17.2235   26.8220 O   0  0  0  0  0  0  0  0  0  0  0  0
  1  5  1  0
  2  3  1  0
  2  1  1  0
  3  4  1  0
  5  4  1  0
  6  8  1  0
  5  6  1  1
  7  6  2  0
  9 10  1  6
  9  8  1  0
 10 11  1  0
 12  9  1  0
 12 19  1  0
 13 12  2  0
 15 16  1  1
 15 14  1  0
 17 15  1  0
 18 19  1  0
 18 17  1  1
 20 21  1  0
 20 18  1  0
 22 20  2  0
M  END
$$$$
