PCL.pdb
     RDKit          3D

 22 22  0  0  1  0  0  0  0  0999 V2000
    7.4556  -14.9763   18.6194 N   0  0  0  0  0  0  0  0  0  0  0  0
    7.9113  -14.0388   17.6039 C   0  0  0  0  0  0  0  0  0  0  0  0
    7.9022  -12.7343   18.3957 C   0  0  0  0  0  0  0  0  0  0  0  0
    8.3766  -13.1393   19.7912 C   0  0  0  0  0  0  0  0  0  0  0  0
    8.2818  -14.6264   19.7578 C   0  0  1  0  0  0  0  0  0  0  0  0
    7.7826  -15.2615   20.9770 C   0  0  0  0  0  0  0  0  0  0  0  0
    6.5099  -15.3448   21.0923 O   0  0  0  0  0  0  0  0  0  0  0  0
    8.6452  -15.7621   21.9851 N   0  0  0  0  0  0  0  0  0  0  0  0
    8.0774  -16.2442   23.2216 C   0  0  1  0  0  0  0  0  0  0  0  0
    8.3927  -17.7398   23.3215 C   0  0  0  0  0  0  0  0  0  0  0  0
    7.9462  -18.3789   24.9470 S   0  0  0  0  0  0  0  0  0  0  0  0
    8.6253  -15.5189   24.3972 C   0  0  0  0  0  0  0  0  0  0  0  0
    9.8426  -15.2704   24.5150 O   0  0  0  0  0  0  0  0  0  0  0  0
    5.5694  -11.6738   26.9881 C   0  0  0  0  0  0  0  0  0  0  0  0
    6.6904  -12.4748   26.4260 C   0  0  1  0  0  0  0  0  0  0  0  0
    7.7576  -11.4650   25.9737 C   0  0  0  0  0  0  0  0  0  0  0  0
    7.2693  -13.5535   27.2359 C   0  0  0  0  0  0  0  0  0  0  0  0
    8.2771  -14.4705   26.6864 C   0  0  2  0  0  0  0  0  0  0  0  0
    7.7647  -15.0828   25.4332 N   0  0  0  0  0  0  0  0  0  0  0  0
    8.8545  -15.5102   27.5055 C   0  0  0  0  0  0  0  0  0  0  0  0
    9.8095  -15.1269   28.4867 O   0  0  0  0  0  0  0  0  0  0  0  0
    8.6174  -16.7385   27.4629 O   0  0  0  0  0  0  0  0  0  0  0  0
  1  5  1  0
  2  3  1  0
  2  1  1  0
  3  4  1  0
  5  4  1  0
  6  8  1  0
  5  6  1  1
  7  6  2  0
  9 10  1  1
  9  8  1  0
 10 11  1  0
 12  9  1  0
 12 19  1  0
 13 12  2  0
 15 16  1  1
 15 14  1  0
 17 15  1  0
 18 19  1  0
 18 17  1  1
 20 21  1  0
 20 18  1  0
 22 20  2  0
M  END
$$$$
