PCL.pdb
     RDKit          3D

 22 22  0  0  1  0  0  0  0  0999 V2000
    8.7580  -14.9172   19.1549 N   0  0  0  0  0  0  0  0  0  0  0  0
    8.8522  -14.1597   17.9158 C   0  0  0  0  0  0  0  0  0  0  0  0
    7.6927  -13.1830   18.0900 C   0  0  0  0  0  0  0  0  0  0  0  0
    7.7143  -12.8370   19.5787 C   0  0  0  0  0  0  0  0  0  0  0  0
    8.6244  -13.8705   20.1488 C   0  0  1  0  0  0  0  0  0  0  0  0
    8.2265  -14.4285   21.4408 C   0  0  0  0  0  0  0  0  0  0  0  0
    8.1023  -13.5942   22.4043 O   0  0  0  0  0  0  0  0  0  0  0  0
    7.9877  -15.8131   21.6334 N   0  0  0  0  0  0  0  0  0  0  0  0
    7.6553  -16.2929   22.9536 C   0  0  1  0  0  0  0  0  0  0  0  0
    7.1474  -17.7307   22.8071 C   0  0  0  0  0  0  0  0  0  0  0  0
    8.4953  -18.8411   22.3600 S   0  0  0  0  0  0  0  0  0  0  0  0
    8.8274  -16.2472   23.8660 C   0  0  0  0  0  0  0  0  0  0  0  0
    9.9989  -16.1968   23.4388 O   0  0  0  0  0  0  0  0  0  0  0  0
   11.1326  -13.6257   28.0787 C   0  0  0  0  0  0  0  0  0  0  0  0
    9.9623  -14.4954   28.3758 C   0  0  1  0  0  0  0  0  0  0  0  0
    9.1162  -13.7401   29.4136 C   0  0  0  0  0  0  0  0  0  0  0  0
    9.1443  -14.9914   27.2625 C   0  0  0  0  0  0  0  0  0  0  0  0
    9.7125  -15.8514   26.2155 C   0  0  2  0  0  0  0  0  0  0  0  0
    8.6420  -16.2599   25.2694 N   0  0  0  0  0  0  0  0  0  0  0  0
   10.4934  -17.0163   26.5597 C   0  0  0  0  0  0  0  0  0  0  0  0
    9.7967  -18.2296   26.8136 O   0  0  0  0  0  0  0  0  0  0  0  0
   11.7377  -17.0993   26.6669 O   0  0  0  0  0  0  0  0  0  0  0  0
  1  5  1  0
  2  3  1  0
  2  1  1  0
  3  4  1  0
  5  4  1  0
  6  8  1  0
  5  6  1  1
  7  6  2  0
  9 10  1  6
  9  8  1  0
 10 11  1  0
 12  9  1  0
 12 19  1  0
 13 12  2  0
 15 16  1  1
 15 14  1  0
 17 15  1  0
 18 19  1  0
 18 17  1  1
 20 21  1  0
 20 18  1  0
 22 20  2  0
M  END
$$$$
