PCL.pdb
     RDKit          3D

 22 22  0  0  1  0  0  0  0  0999 V2000
    8.4192  -15.2735   19.0357 N   0  0  0  0  0  0  0  0  0  0  0  0
    8.6030  -14.5944   17.7618 C   0  0  0  0  0  0  0  0  0  0  0  0
    7.5976  -13.4546   17.8986 C   0  0  0  0  0  0  0  0  0  0  0  0
    7.6894  -13.0481   19.3693 C   0  0  0  0  0  0  0  0  0  0  0  0
    8.4505  -14.1745   19.9805 C   0  0  1  0  0  0  0  0  0  0  0  0
    7.9952  -14.6105   21.3001 C   0  0  0  0  0  0  0  0  0  0  0  0
    7.8237  -13.6895   22.1732 O   0  0  0  0  0  0  0  0  0  0  0  0
    7.7527  -15.9723   21.6126 N   0  0  0  0  0  0  0  0  0  0  0  0
    7.1862  -16.3097   22.8966 C   0  0  1  0  0  0  0  0  0  0  0  0
    7.0279  -17.8325   22.9449 C   0  0  0  0  0  0  0  0  0  0  0  0
    6.2986  -18.3489   24.5107 S   0  0  0  0  0  0  0  0  0  0  0  0
    8.0445  -15.8416   24.0159 C   0  0  0  0  0  0  0  0  0  0  0  0
    9.2880  -15.9427   23.9852 O   0  0  0  0  0  0  0  0  0  0  0  0
    5.6233  -12.0271   27.0807 C   0  0  0  0  0  0  0  0  0  0  0  0
    6.6919  -12.7355   26.3255 C   0  0  1  0  0  0  0  0  0  0  0  0
    7.5399  -11.6443   25.6522 C   0  0  0  0  0  0  0  0  0  0  0  0
    7.5260  -13.7186   27.0272 C   0  0  0  0  0  0  0  0  0  0  0  0
    8.2808  -14.7461   26.2972 C   0  0  2  0  0  0  0  0  0  0  0  0
    7.4630  -15.2581   25.1672 N   0  0  0  0  0  0  0  0  0  0  0  0
    8.8613  -15.8704   26.9933 C   0  0  0  0  0  0  0  0  0  0  0  0
    9.8884  -15.6048   27.9400 O   0  0  0  0  0  0  0  0  0  0  0  0
    8.5702  -17.0813   26.8681 O   0  0  0  0  0  0  0  0  0  0  0  0
  1  5  1  0
  2  3  1  0
  2  1  1  0
  3  4  1  0
  5  4  1  0
  6  8  1  0
  5  6  1  1
  7  6  2  0
  9 10  1  6
  9  8  1  0
 10 11  1  0
 12  9  1  0
 12 19  1  0
 13 12  2  0
 15 16  1  1
 15 14  1  0
 17 15  1  0
 18 19  1  0
 18 17  1  1
 20 21  1  0
 20 18  1  0
 22 20  2  0
M  END
$$$$
