PCL.pdb
     RDKit          3D

 22 22  0  0  1  0  0  0  0  0999 V2000
    8.5303  -15.2082   18.9204 N   0  0  0  0  0  0  0  0  0  0  0  0
    8.7072  -14.5107   17.6556 C   0  0  0  0  0  0  0  0  0  0  0  0
    7.6312  -13.4347   17.7704 C   0  0  0  0  0  0  0  0  0  0  0  0
    7.6582  -13.0333   19.2451 C   0  0  0  0  0  0  0  0  0  0  0  0
    8.4693  -14.1158   19.8713 C   0  0  1  0  0  0  0  0  0  0  0  0
    8.0056  -14.5873   21.1756 C   0  0  0  0  0  0  0  0  0  0  0  0
    7.8752  -13.6968   22.0866 O   0  0  0  0  0  0  0  0  0  0  0  0
    7.7123  -15.9504   21.4345 N   0  0  0  0  0  0  0  0  0  0  0  0
    7.1275  -16.3160   22.7025 C   0  0  1  0  0  0  0  0  0  0  0  0
    6.9127  -17.8326   22.6911 C   0  0  0  0  0  0  0  0  0  0  0  0
    6.1357  -18.3787   24.2234 S   0  0  0  0  0  0  0  0  0  0  0  0
    7.9970  -15.9238   23.8420 C   0  0  0  0  0  0  0  0  0  0  0  0
    9.2248  -16.1476   23.8471 O   0  0  0  0  0  0  0  0  0  0  0  0
    7.1739  -12.2372   24.8945 C   0  0  0  0  0  0  0  0  0  0  0  0
    7.4647  -12.4252   26.3416 C   0  0  1  0  0  0  0  0  0  0  0  0
    6.4122  -11.6035   27.1034 C   0  0  0  0  0  0  0  0  0  0  0  0
    7.5801  -13.7889   26.8722 C   0  0  0  0  0  0  0  0  0  0  0  0
    8.2764  -14.8467   26.1272 C   0  0  2  0  0  0  0  0  0  0  0  0
    7.4451  -15.2741   24.9723 N   0  0  0  0  0  0  0  0  0  0  0  0
    8.7685  -16.0244   26.8026 C   0  0  0  0  0  0  0  0  0  0  0  0
    9.9506  -15.8956   27.5822 O   0  0  0  0  0  0  0  0  0  0  0  0
    8.2765  -17.1753   26.7907 O   0  0  0  0  0  0  0  0  0  0  0  0
  1  5  1  0
  2  3  1  0
  2  1  1  0
  3  4  1  0
  5  4  1  0
  6  8  1  0
  5  6  1  1
  7  6  2  0
  9 10  1  6
  9  8  1  0
 10 11  1  0
 12  9  1  0
 12 19  1  0
 13 12  2  0
 15 16  1  1
 15 14  1  0
 17 15  1  0
 18 19  1  0
 18 17  1  1
 20 21  1  0
 20 18  1  0
 22 20  2  0
M  END
$$$$
