PCL.pdb
     RDKit          3D

 22 22  0  0  1  0  0  0  0  0999 V2000
    7.6856  -17.6599   21.3498 N   0  0  0  0  0  0  0  0  0  0  0  0
    7.5204  -18.4511   20.1396 C   0  0  0  0  0  0  0  0  0  0  0  0
    7.3982  -17.3479   19.0923 C   0  0  0  0  0  0  0  0  0  0  0  0
    8.3794  -16.2742   19.5625 C   0  0  0  0  0  0  0  0  0  0  0  0
    8.6959  -16.6979   20.9560 C   0  0  1  0  0  0  0  0  0  0  0  0
    8.8016  -15.6225   21.9414 C   0  0  0  0  0  0  0  0  0  0  0  0
    9.7623  -14.7924   21.7735 O   0  0  0  0  0  0  0  0  0  0  0  0
    7.8999  -15.4913   23.0280 N   0  0  0  0  0  0  0  0  0  0  0  0
    8.0648  -14.3938   23.9510 C   0  0  1  0  0  0  0  0  0  0  0  0
    6.7369  -14.2115   24.6925 C   0  0  0  0  0  0  0  0  0  0  0  0
    6.8580  -12.8777   25.8993 S   0  0  0  0  0  0  0  0  0  0  0  0
    9.1668  -14.6478   24.9152 C   0  0  0  0  0  0  0  0  0  0  0  0
   10.0659  -13.8096   25.1306 O   0  0  0  0  0  0  0  0  0  0  0  0
    8.4889  -13.7890   28.9153 C   0  0  0  0  0  0  0  0  0  0  0  0
    9.6836  -14.2041   28.1314 C   0  0  1  0  0  0  0  0  0  0  0  0
   10.8884  -13.4995   28.7759 C   0  0  0  0  0  0  0  0  0  0  0  0
    9.9359  -15.6352   27.9243 C   0  0  0  0  0  0  0  0  0  0  0  0
   10.3047  -16.1672   26.6054 C   0  0  2  0  0  0  0  0  0  0  0  0
    9.2263  -15.8697   25.6275 N   0  0  0  0  0  0  0  0  0  0  0  0
   10.7009  -17.5472   26.4500 C   0  0  0  0  0  0  0  0  0  0  0  0
   11.8996  -17.9681   27.0884 O   0  0  0  0  0  0  0  0  0  0  0  0
   10.1103  -18.4454   25.8088 O   0  0  0  0  0  0  0  0  0  0  0  0
  1  5  1  0
  2  3  1  0
  2  1  1  0
  3  4  1  0
  5  4  1  0
  6  8  1  0
  5  6  1  1
  7  6  2  0
  9 10  1  1
  9  8  1  0
 10 11  1  0
 12  9  1  0
 12 19  1  0
 13 12  2  0
 15 16  1  1
 15 14  1  0
 17 15  1  0
 18 19  1  0
 18 17  1  1
 20 21  1  0
 20 18  1  0
 22 20  2  0
M  END
$$$$
