PCL.pdb
     RDKit          3D

 22 22  0  0  1  0  0  0  0  0999 V2000
    8.6481  -15.3019   18.6629 N   0  0  0  0  0  0  0  0  0  0  0  0
    8.8559  -14.5928   17.4092 C   0  0  0  0  0  0  0  0  0  0  0  0
    7.6318  -13.6818   17.3907 C   0  0  0  0  0  0  0  0  0  0  0  0
    7.4464  -13.2731   18.8519 C   0  0  0  0  0  0  0  0  0  0  0  0
    8.3329  -14.2246   19.5801 C   0  0  1  0  0  0  0  0  0  0  0  0
    7.8065  -14.7511   20.8389 C   0  0  0  0  0  0  0  0  0  0  0  0
    7.4409  -13.8838   21.7072 O   0  0  0  0  0  0  0  0  0  0  0  0
    7.7001  -16.1409   21.1001 N   0  0  0  0  0  0  0  0  0  0  0  0
    7.1019  -16.5807   22.3379 C   0  0  1  0  0  0  0  0  0  0  0  0
    7.1860  -18.1098   22.3730 C   0  0  0  0  0  0  0  0  0  0  0  0
    6.5463  -18.7484   23.9327 S   0  0  0  0  0  0  0  0  0  0  0  0
    7.7896  -15.9961   23.5185 C   0  0  0  0  0  0  0  0  0  0  0  0
    9.0313  -16.0193   23.6415 O   0  0  0  0  0  0  0  0  0  0  0  0
    8.3989  -11.6241   26.7489 C   0  0  0  0  0  0  0  0  0  0  0  0
    7.1715  -12.4380   26.9618 C   0  0  1  0  0  0  0  0  0  0  0  0
    6.0346  -11.4402   27.2358 C   0  0  0  0  0  0  0  0  0  0  0  0
    6.7928  -13.4312   25.9496 C   0  0  0  0  0  0  0  0  0  0  0  0
    7.6744  -14.5564   25.6100 C   0  0  2  0  0  0  0  0  0  0  0  0
    7.0402  -15.3865   24.5534 N   0  0  0  0  0  0  0  0  0  0  0  0
    8.1855  -15.4310   26.6392 C   0  0  0  0  0  0  0  0  0  0  0  0
    7.4569  -16.6190   26.9210 O   0  0  0  0  0  0  0  0  0  0  0  0
    9.2144  -15.2750   27.3347 O   0  0  0  0  0  0  0  0  0  0  0  0
  1  5  1  0
  2  3  1  0
  2  1  1  0
  3  4  1  0
  5  4  1  0
  6  8  1  0
  5  6  1  1
  7  6  2  0
  9 10  1  1
  9  8  1  0
 10 11  1  0
 12  9  1  0
 12 19  1  0
 13 12  2  0
 15 16  1  6
 15 14  1  0
 17 15  1  0
 18 19  1  0
 18 17  1  1
 20 21  1  0
 20 18  1  0
 22 20  2  0
M  END
$$$$
