PCL.pdb
     RDKit          3D

 22 22  0  0  1  0  0  0  0  0999 V2000
    8.6803  -15.2761   18.9666 N   0  0  0  0  0  0  0  0  0  0  0  0
    8.9744  -14.6256   17.6985 C   0  0  0  0  0  0  0  0  0  0  0  0
    7.8668  -13.5769   17.6524 C   0  0  0  0  0  0  0  0  0  0  0  0
    7.7266  -13.1156   19.1030 C   0  0  0  0  0  0  0  0  0  0  0  0
    8.4920  -14.1483   19.8575 C   0  0  1  0  0  0  0  0  0  0  0  0
    7.9031  -14.5798   21.1248 C   0  0  0  0  0  0  0  0  0  0  0  0
    7.6464  -13.6561   21.9738 O   0  0  0  0  0  0  0  0  0  0  0  0
    7.6257  -15.9401   21.4137 N   0  0  0  0  0  0  0  0  0  0  0  0
    7.0531  -16.2853   22.6930 C   0  0  1  0  0  0  0  0  0  0  0  0
    6.8120  -17.7980   22.6971 C   0  0  0  0  0  0  0  0  0  0  0  0
    6.1051  -18.3271   24.2689 S   0  0  0  0  0  0  0  0  0  0  0  0
    7.9458  -15.8992   23.8166 C   0  0  0  0  0  0  0  0  0  0  0  0
    9.1849  -16.0357   23.7563 O   0  0  0  0  0  0  0  0  0  0  0  0
    5.9499  -11.8974   26.9600 C   0  0  0  0  0  0  0  0  0  0  0  0
    6.8819  -12.7625   26.1873 C   0  0  1  0  0  0  0  0  0  0  0  0
    7.8569  -11.8139   25.4710 C   0  0  0  0  0  0  0  0  0  0  0  0
    7.5873  -13.8460   26.8823 C   0  0  0  0  0  0  0  0  0  0  0  0
    8.2578  -14.9242   26.1431 C   0  0  2  0  0  0  0  0  0  0  0  0
    7.4039  -15.3565   25.0065 N   0  0  0  0  0  0  0  0  0  0  0  0
    8.7430  -16.0990   26.8286 C   0  0  0  0  0  0  0  0  0  0  0  0
    9.8005  -15.9306   27.7640 O   0  0  0  0  0  0  0  0  0  0  0  0
    8.3430  -17.2784   26.7029 O   0  0  0  0  0  0  0  0  0  0  0  0
  1  5  1  0
  2  3  1  0
  2  1  1  0
  3  4  1  0
  5  4  1  0
  6  8  1  0
  5  6  1  1
  7  6  2  0
  9 10  1  6
  9  8  1  0
 10 11  1  0
 12  9  1  0
 12 19  1  0
 13 12  2  0
 15 16  1  1
 15 14  1  0
 17 15  1  0
 18 19  1  0
 18 17  1  1
 20 21  1  0
 20 18  1  0
 22 20  2  0
M  END
$$$$
