PCL.pdb
     RDKit          3D

 22 22  0  0  1  0  0  0  0  0999 V2000
    8.8146  -14.8532   18.8686 N   0  0  0  0  0  0  0  0  0  0  0  0
    9.0231  -14.1468   17.6136 C   0  0  0  0  0  0  0  0  0  0  0  0
    7.7860  -13.2540   17.5799 C   0  0  0  0  0  0  0  0  0  0  0  0
    7.5816  -12.8415   19.0375 C   0  0  0  0  0  0  0  0  0  0  0  0
    8.4754  -13.7765   19.7780 C   0  0  1  0  0  0  0  0  0  0  0  0
    7.9455  -14.3050   21.0345 C   0  0  0  0  0  0  0  0  0  0  0  0
    7.5473  -13.4394   21.8902 O   0  0  0  0  0  0  0  0  0  0  0  0
    7.8700  -15.6947   21.3067 N   0  0  0  0  0  0  0  0  0  0  0  0
    7.3134  -16.1365   22.5631 C   0  0  1  0  0  0  0  0  0  0  0  0
    7.2523  -17.6667   22.5276 C   0  0  0  0  0  0  0  0  0  0  0  0
    8.8021  -18.3808   23.1092 S   0  0  0  0  0  0  0  0  0  0  0  0
    8.1287  -15.6765   23.7172 C   0  0  0  0  0  0  0  0  0  0  0  0
    9.3616  -15.5028   23.6310 O   0  0  0  0  0  0  0  0  0  0  0  0
    5.8742  -11.8059   26.8704 C   0  0  0  0  0  0  0  0  0  0  0  0
    6.8391  -12.6691   26.1370 C   0  0  1  0  0  0  0  0  0  0  0  0
    7.9556  -11.7387   25.6360 C   0  0  0  0  0  0  0  0  0  0  0  0
    7.3800  -13.8584   26.8062 C   0  0  0  0  0  0  0  0  0  0  0  0
    8.2553  -14.8048   26.1014 C   0  0  2  0  0  0  0  0  0  0  0  0
    7.5169  -15.4187   24.9675 N   0  0  0  0  0  0  0  0  0  0  0  0
    8.9460  -15.8488   26.8215 C   0  0  0  0  0  0  0  0  0  0  0  0
    8.4416  -17.1737   26.7130 O   0  0  0  0  0  0  0  0  0  0  0  0
    9.9585  -15.7360   27.5488 O   0  0  0  0  0  0  0  0  0  0  0  0
  1  5  1  0
  2  3  1  0
  2  1  1  0
  3  4  1  0
  5  4  1  0
  6  8  1  0
  5  6  1  1
  7  6  2  0
  9 10  1  6
  9  8  1  0
 10 11  1  0
 12  9  1  0
 12 19  1  0
 13 12  2  0
 15 16  1  1
 15 14  1  0
 17 15  1  0
 18 19  1  0
 18 17  1  1
 20 21  1  0
 20 18  1  0
 22 20  2  0
M  END
$$$$
