PCL.pdb
     RDKit          3D

 22 22  0  0  1  0  0  0  0  0999 V2000
    8.6123  -15.1321   19.3007 N   0  0  0  0  0  0  0  0  0  0  0  0
    8.8164  -14.4209   18.0476 C   0  0  0  0  0  0  0  0  0  0  0  0
    7.7276  -13.3560   18.1437 C   0  0  0  0  0  0  0  0  0  0  0  0
    7.7116  -12.9685   19.6222 C   0  0  0  0  0  0  0  0  0  0  0  0
    8.5158  -14.0495   20.2597 C   0  0  1  0  0  0  0  0  0  0  0  0
    8.0218  -14.5377   21.5468 C   0  0  0  0  0  0  0  0  0  0  0  0
    7.8583  -13.6571   22.4620 O   0  0  0  0  0  0  0  0  0  0  0  0
    7.7353  -15.9059   21.7852 N   0  0  0  0  0  0  0  0  0  0  0  0
    7.3026  -16.3157   23.0999 C   0  0  1  0  0  0  0  0  0  0  0  0
    6.7195  -17.7266   22.9745 C   0  0  0  0  0  0  0  0  0  0  0  0
    6.1858  -18.3418   24.5828 S   0  0  0  0  0  0  0  0  0  0  0  0
    8.4231  -16.3024   24.0760 C   0  0  0  0  0  0  0  0  0  0  0  0
    9.5925  -16.5889   23.7472 O   0  0  0  0  0  0  0  0  0  0  0  0
   11.0368  -13.7319   28.1922 C   0  0  0  0  0  0  0  0  0  0  0  0
    9.7957  -14.4724   28.5464 C   0  0  1  0  0  0  0  0  0  0  0  0
    9.0866  -13.6354   29.6234 C   0  0  0  0  0  0  0  0  0  0  0  0
    8.8763  -14.8728   27.4744 C   0  0  0  0  0  0  0  0  0  0  0  0
    9.2933  -15.7953   26.4097 C   0  0  2  0  0  0  0  0  0  0  0  0
    8.1889  -15.9580   25.4290 N   0  0  0  0  0  0  0  0  0  0  0  0
    9.8231  -17.1003   26.7286 C   0  0  0  0  0  0  0  0  0  0  0  0
   11.2362  -17.2576   26.7367 O   0  0  0  0  0  0  0  0  0  0  0  0
    9.1828  -18.1394   27.0063 O   0  0  0  0  0  0  0  0  0  0  0  0
  1  5  1  0
  2  3  1  0
  2  1  1  0
  3  4  1  0
  5  4  1  0
  6  8  1  0
  5  6  1  1
  7  6  2  0
  9 10  1  6
  9  8  1  0
 10 11  1  0
 12  9  1  0
 12 19  1  0
 13 12  2  0
 15 16  1  1
 15 14  1  0
 17 15  1  0
 18 19  1  0
 18 17  1  1
 20 21  1  0
 20 18  1  0
 22 20  2  0
M  END
$$$$
