PCL.pdb
     RDKit          3D

 22 22  0  0  1  0  0  0  0  0999 V2000
    8.0868  -15.1957   17.7994 N   0  0  0  0  0  0  0  0  0  0  0  0
    8.2392  -14.0964   16.8580 C   0  0  0  0  0  0  0  0  0  0  0  0
    7.7736  -12.9217   17.7137 C   0  0  0  0  0  0  0  0  0  0  0  0
    8.3103  -13.2387   19.1094 C   0  0  0  0  0  0  0  0  0  0  0  0
    8.7138  -14.6689   18.9955 C   0  0  1  0  0  0  0  0  0  0  0  0
    8.4140  -15.5107   20.1532 C   0  0  0  0  0  0  0  0  0  0  0  0
    7.9382  -16.6726   19.9011 O   0  0  0  0  0  0  0  0  0  0  0  0
    8.6314  -15.0803   21.4869 N   0  0  0  0  0  0  0  0  0  0  0  0
    8.4427  -16.0174   22.5684 C   0  0  1  0  0  0  0  0  0  0  0  0
    9.3074  -17.2461   22.2702 C   0  0  0  0  0  0  0  0  0  0  0  0
    9.2391  -18.4211   23.6357 S   0  0  0  0  0  0  0  0  0  0  0  0
    8.8166  -15.4257   23.8794 C   0  0  0  0  0  0  0  0  0  0  0  0
    9.9963  -15.1331   24.1627 O   0  0  0  0  0  0  0  0  0  0  0  0
    7.6889  -11.4404   25.9281 C   0  0  0  0  0  0  0  0  0  0  0  0
    7.0060  -12.3357   26.9009 C   0  0  1  0  0  0  0  0  0  0  0  0
    5.6024  -11.7471   27.1169 C   0  0  0  0  0  0  0  0  0  0  0  0
    6.9565  -13.7769   26.6270 C   0  0  0  0  0  0  0  0  0  0  0  0
    8.1378  -14.5094   26.1509 C   0  0  2  0  0  0  0  0  0  0  0  0
    7.8261  -15.1740   24.8590 N   0  0  0  0  0  0  0  0  0  0  0  0
    8.8136  -15.4567   27.0060 C   0  0  0  0  0  0  0  0  0  0  0  0
    8.5806  -16.8404   26.7760 O   0  0  0  0  0  0  0  0  0  0  0  0
    9.5992  -15.2117   27.9491 O   0  0  0  0  0  0  0  0  0  0  0  0
  1  5  1  0
  2  3  1  0
  2  1  1  0
  3  4  1  0
  5  4  1  0
  6  8  1  0
  5  6  1  1
  7  6  2  0
  9 10  1  6
  9  8  1  0
 10 11  1  0
 12  9  1  0
 12 19  1  0
 13 12  2  0
 15 16  1  6
 15 14  1  0
 17 15  1  0
 18 19  1  0
 18 17  1  1
 20 21  1  0
 20 18  1  0
 22 20  2  0
M  END
$$$$
