APK.pdb
     RDKit          3D

 22 22  0  0  1  0  0  0  0  0999 V2000
    7.7357  -16.6967   16.0939 C   0  0  0  0  0  0  0  0  0  0  0  0
    8.3368  -15.3142   15.9176 C   0  0  2  0  0  0  0  0  0  0  0  0
    9.1748  -15.3944   14.7297 N   0  0  0  0  0  0  0  0  0  0  0  0
    9.1604  -14.9252   17.0896 C   0  0  0  0  0  0  0  0  0  0  0  0
   10.4151  -14.9815   16.9651 O   0  0  0  0  0  0  0  0  0  0  0  0
    8.6286  -14.5026   18.3147 N   0  0  0  0  0  0  0  0  0  0  0  0
    7.2433  -14.4315   18.6707 C   0  0  0  0  0  0  0  0  0  0  0  0
    7.2164  -13.0687   19.3780 C   0  0  0  0  0  0  0  0  0  0  0  0
    8.5794  -12.9056   19.9689 C   0  0  0  0  0  0  0  0  0  0  0  0
    9.3850  -14.0653   19.4484 C   0  0  1  0  0  0  0  0  0  0  0  0
    9.5924  -15.1306   20.4667 C   0  0  0  0  0  0  0  0  0  0  0  0
    8.7180  -16.0340   20.5195 O   0  0  0  0  0  0  0  0  0  0  0  0
   10.6709  -15.1827   21.3420 N   0  0  0  0  0  0  0  0  0  0  0  0
   11.0824  -16.4718   22.0447 C   0  0  1  0  0  0  0  0  0  0  0  0
   12.5159  -16.6503   21.7780 C   0  0  0  0  0  0  0  0  0  0  0  0
   13.2602  -17.7682   22.3211 C   0  0  0  0  0  0  0  0  0  0  0  0
   14.7045  -17.9670   22.1275 C   0  0  0  0  0  0  0  0  0  0  0  0
   15.2615  -19.2690   22.5983 C   0  0  0  0  0  0  0  0  0  0  0  0
   16.6444  -19.3720   22.1732 N   0  0  0  0  0  0  0  0  0  0  0  0
   10.6612  -16.2933   23.4407 C   0  0  0  0  0  0  0  0  0  0  0  0
   10.1676  -15.0275   23.8786 O   0  0  0  0  0  0  0  0  0  0  0  0
   10.6904  -17.1587   24.3118 O   0  0  0  0  0  0  0  0  0  0  0  0
  2  3  1  0
  2  1  1  1
  4  2  1  0
  5  4  2  0
  6  7  1  0
  6  4  1  0
  8  7  1  0
  9 10  1  0
  9  8  1  0
 10  6  1  0
 10 11  1  1
 11 13  1  0
 12 11  2  0
 13 14  1  0
 14 20  1  0
 14 15  1  1
 16 15  1  0
 17 16  1  0
 18 17  1  0
 19 18  1  0
 20 21  1  0
 22 20  2  0
M  END
$$$$
