APK.pdb
     RDKit          3D

 22 22  0  0  1  0  0  0  0  0999 V2000
    5.9479  -15.4614   21.2821 C   0  0  0  0  0  0  0  0  0  0  0  0
    6.8439  -14.2363   21.2813 C   0  0  2  0  0  0  0  0  0  0  0  0
    7.4532  -14.1912   19.9598 N   0  0  0  0  0  0  0  0  0  0  0  0
    7.9001  -14.3337   22.3197 C   0  0  0  0  0  0  0  0  0  0  0  0
    9.0862  -14.5174   21.9297 O   0  0  0  0  0  0  0  0  0  0  0  0
    7.6569  -14.2338   23.6956 N   0  0  0  0  0  0  0  0  0  0  0  0
    6.3878  -14.0458   24.3319 C   0  0  0  0  0  0  0  0  0  0  0  0
    6.7659  -12.9898   25.3808 C   0  0  0  0  0  0  0  0  0  0  0  0
    8.2015  -13.2522   25.7030 C   0  0  0  0  0  0  0  0  0  0  0  0
    8.6462  -14.3082   24.7273 C   0  0  1  0  0  0  0  0  0  0  0  0
    8.7559  -15.6582   25.3442 C   0  0  0  0  0  0  0  0  0  0  0  0
    7.6774  -16.2791   25.5304 O   0  0  0  0  0  0  0  0  0  0  0  0
    9.9532  -16.2572   25.7177 N   0  0  0  0  0  0  0  0  0  0  0  0
   10.0365  -17.7300   26.1034 C   0  0  1  0  0  0  0  0  0  0  0  0
   10.9482  -18.3605   25.1395 C   0  0  0  0  0  0  0  0  0  0  0  0
   10.7112  -18.2996   23.7117 C   0  0  0  0  0  0  0  0  0  0  0  0
   11.6644  -18.7761   22.6982 C   0  0  0  0  0  0  0  0  0  0  0  0
   11.2851  -18.5446   21.2735 C   0  0  0  0  0  0  0  0  0  0  0  0
   12.3942  -18.9290   20.4215 N   0  0  0  0  0  0  0  0  0  0  0  0
   10.4284  -17.7292   27.5192 C   0  0  0  0  0  0  0  0  0  0  0  0
   10.2874  -18.9176   28.2972 O   0  0  0  0  0  0  0  0  0  0  0  0
   10.8858  -16.7687   28.1331 O   0  0  0  0  0  0  0  0  0  0  0  0
  2  3  1  0
  2  1  1  6
  4  2  1  0
  5  4  2  0
  6  7  1  0
  6  4  1  0
  8  7  1  0
  9 10  1  0
  9  8  1  0
 10  6  1  0
 10 11  1  1
 11 13  1  0
 12 11  2  0
 13 14  1  0
 14 20  1  0
 14 15  1  6
 16 15  1  0
 17 16  1  0
 18 17  1  0
 19 18  1  0
 20 21  1  0
 22 20  2  0
M  END
$$$$
