APK.pdb
     RDKit          3D

 22 22  0  0  1  0  0  0  0  0999 V2000
    6.9846  -17.9395   18.6357 C   0  0  0  0  0  0  0  0  0  0  0  0
    7.8530  -16.8785   17.9846 C   0  0  2  0  0  0  0  0  0  0  0  0
    8.7087  -17.5883   17.0445 N   0  0  0  0  0  0  0  0  0  0  0  0
    8.6864  -16.1673   18.9860 C   0  0  0  0  0  0  0  0  0  0  0  0
    9.9086  -16.4749   19.0518 O   0  0  0  0  0  0  0  0  0  0  0  0
    8.1974  -15.1826   19.8541 N   0  0  0  0  0  0  0  0  0  0  0  0
    6.8657  -14.6572   19.8937 C   0  0  0  0  0  0  0  0  0  0  0  0
    7.1711  -13.1599   20.0454 C   0  0  0  0  0  0  0  0  0  0  0  0
    8.4694  -13.0963   20.7830 C   0  0  0  0  0  0  0  0  0  0  0  0
    8.9498  -14.5196   20.8753 C   0  0  1  0  0  0  0  0  0  0  0  0
    8.7575  -15.1097   22.2280 C   0  0  0  0  0  0  0  0  0  0  0  0
    7.6589  -15.6865   22.4373 O   0  0  0  0  0  0  0  0  0  0  0  0
    9.6998  -15.0605   23.2486 N   0  0  0  0  0  0  0  0  0  0  0  0
   10.1155  -16.3034   24.0279 C   0  0  1  0  0  0  0  0  0  0  0  0
   10.6267  -17.2617   23.0388 C   0  0  0  0  0  0  0  0  0  0  0  0
   11.1308  -18.5633   23.4262 C   0  0  0  0  0  0  0  0  0  0  0  0
   11.6000  -19.5809   22.4738 C   0  0  0  0  0  0  0  0  0  0  0  0
   12.0394  -20.8815   23.0592 C   0  0  0  0  0  0  0  0  0  0  0  0
   12.4902  -21.7518   21.9901 N   0  0  0  0  0  0  0  0  0  0  0  0
   11.0462  -15.8136   25.0535 C   0  0  0  0  0  0  0  0  0  0  0  0
   10.9753  -16.3286   26.3829 O   0  0  0  0  0  0  0  0  0  0  0  0
   11.9199  -14.9680   24.8798 O   0  0  0  0  0  0  0  0  0  0  0  0
  2  3  1  0
  2  1  1  1
  4  2  1  0
  5  4  2  0
  6  7  1  0
  6  4  1  0
  8  7  1  0
  9 10  1  0
  9  8  1  0
 10  6  1  0
 10 11  1  1
 11 13  1  0
 12 11  2  0
 13 14  1  0
 14 20  1  0
 14 15  1  6
 16 15  1  0
 17 16  1  0
 18 17  1  0
 19 18  1  0
 20 21  1  0
 22 20  2  0
M  END
$$$$
