APK.pdb
     RDKit          3D

 22 22  0  0  1  0  0  0  0  0999 V2000
    6.7312  -17.9015   18.6963 C   0  0  0  0  0  0  0  0  0  0  0  0
    7.4083  -16.8328   17.8578 C   0  0  2  0  0  0  0  0  0  0  0  0
    8.0017  -17.5324   16.7272 N   0  0  0  0  0  0  0  0  0  0  0  0
    8.4655  -16.1277   18.6248 C   0  0  0  0  0  0  0  0  0  0  0  0
    9.6663  -16.4079   18.3558 O   0  0  0  0  0  0  0  0  0  0  0  0
    8.2080  -15.1773   19.6211 N   0  0  0  0  0  0  0  0  0  0  0  0
    6.9298  -14.6524   19.9975 C   0  0  0  0  0  0  0  0  0  0  0  0
    7.2780  -13.1625   20.1282 C   0  0  0  0  0  0  0  0  0  0  0  0
    8.7154  -13.1292   20.5362 C   0  0  0  0  0  0  0  0  0  0  0  0
    9.1892  -14.5555   20.4573 C   0  0  1  0  0  0  0  0  0  0  0  0
    9.3192  -15.1978   21.7935 C   0  0  0  0  0  0  0  0  0  0  0  0
    8.2915  -15.7668   22.2447 O   0  0  0  0  0  0  0  0  0  0  0  0
   10.4832  -15.2043   22.5531 N   0  0  0  0  0  0  0  0  0  0  0  0
   10.9964  -16.4660   23.2382 C   0  0  1  0  0  0  0  0  0  0  0  0
   11.1877  -17.4651   22.1785 C   0  0  0  0  0  0  0  0  0  0  0  0
   11.7083  -18.7872   22.4604 C   0  0  0  0  0  0  0  0  0  0  0  0
   10.9585  -19.8321   23.1737 C   0  0  0  0  0  0  0  0  0  0  0  0
   11.6493  -21.1445   23.3403 C   0  0  0  0  0  0  0  0  0  0  0  0
   10.8956  -21.9591   24.2741 N   0  0  0  0  0  0  0  0  0  0  0  0
   12.1792  -16.0323   23.9939 C   0  0  0  0  0  0  0  0  0  0  0  0
   12.4045  -16.5326   25.3116 O   0  0  0  0  0  0  0  0  0  0  0  0
   13.0347  -15.2475   23.5928 O   0  0  0  0  0  0  0  0  0  0  0  0
  2  3  1  0
  2  1  1  1
  4  2  1  0
  5  4  2  0
  6  7  1  0
  6  4  1  0
  8  7  1  0
  9 10  1  0
  9  8  1  0
 10  6  1  0
 10 11  1  1
 11 13  1  0
 12 11  2  0
 13 14  1  0
 14 20  1  0
 14 15  1  6
 16 15  1  0
 17 16  1  0
 18 17  1  0
 19 18  1  0
 20 21  1  0
 22 20  2  0
M  END
$$$$
