APK.pdb
     RDKit          3D

 22 22  0  0  1  0  0  0  0  0999 V2000
    6.1113  -14.6469   21.6541 C   0  0  0  0  0  0  0  0  0  0  0  0
    7.4129  -13.8997   21.8805 C   0  0  2  0  0  0  0  0  0  0  0  0
    8.3147  -14.3457   20.8281 N   0  0  0  0  0  0  0  0  0  0  0  0
    7.9960  -14.2123   23.2092 C   0  0  0  0  0  0  0  0  0  0  0  0
    9.0808  -14.8567   23.2331 O   0  0  0  0  0  0  0  0  0  0  0  0
    7.4155  -13.8356   24.4272 N   0  0  0  0  0  0  0  0  0  0  0  0
    6.1922  -13.1133   24.6085 C   0  0  0  0  0  0  0  0  0  0  0  0
    6.6217  -12.1265   25.7039 C   0  0  0  0  0  0  0  0  0  0  0  0
    7.6779  -12.8403   26.4839 C   0  0  0  0  0  0  0  0  0  0  0  0
    7.9453  -14.1136   25.7275 C   0  0  1  0  0  0  0  0  0  0  0  0
    7.3352  -15.3090   26.3707 C   0  0  0  0  0  0  0  0  0  0  0  0
    6.1159  -15.5121   26.1347 O   0  0  0  0  0  0  0  0  0  0  0  0
    8.0192  -16.1922   27.1977 N   0  0  0  0  0  0  0  0  0  0  0  0
    7.7628  -17.6950   27.1664 C   0  0  1  0  0  0  0  0  0  0  0  0
    7.8696  -18.1049   25.7599 C   0  0  0  0  0  0  0  0  0  0  0  0
    7.7807  -19.4946   25.3606 C   0  0  0  0  0  0  0  0  0  0  0  0
    7.7678  -19.9499   23.9623 C   0  0  0  0  0  0  0  0  0  0  0  0
    7.7118  -21.4258   23.7482 C   0  0  0  0  0  0  0  0  0  0  0  0
    7.8055  -21.7002   22.3270 N   0  0  0  0  0  0  0  0  0  0  0  0
    8.7236  -18.2630   28.1216 C   0  0  0  0  0  0  0  0  0  0  0  0
    8.3036  -19.2750   29.0364 O   0  0  0  0  0  0  0  0  0  0  0  0
    9.9056  -17.9439   28.2209 O   0  0  0  0  0  0  0  0  0  0  0  0
  2  3  1  0
  2  1  1  6
  4  2  1  0
  5  4  2  0
  6  7  1  0
  6  4  1  0
  8  7  1  0
  9 10  1  0
  9  8  1  0
 10  6  1  0
 10 11  1  1
 11 13  1  0
 12 11  2  0
 13 14  1  0
 14 20  1  0
 14 15  1  6
 16 15  1  0
 17 16  1  0
 18 17  1  0
 19 18  1  0
 20 21  1  0
 22 20  2  0
M  END
$$$$
