APK.pdb
     RDKit          3D

 22 22  0  0  1  0  0  0  0  0999 V2000
    5.3764  -17.3230   19.9765 C   0  0  0  0  0  0  0  0  0  0  0  0
    6.6571  -16.9046   19.2776 C   0  0  2  0  0  0  0  0  0  0  0  0
    7.2144  -18.1231   18.7078 N   0  0  0  0  0  0  0  0  0  0  0  0
    7.6257  -16.3049   20.2291 C   0  0  0  0  0  0  0  0  0  0  0  0
    8.6486  -16.9825   20.5247 O   0  0  0  0  0  0  0  0  0  0  0  0
    7.4701  -15.0406   20.8119 N   0  0  0  0  0  0  0  0  0  0  0  0
    6.3369  -14.1732   20.6918 C   0  0  0  0  0  0  0  0  0  0  0  0
    7.0477  -12.8305   20.4683 C   0  0  0  0  0  0  0  0  0  0  0  0
    8.3500  -12.9499   21.1917 C   0  0  0  0  0  0  0  0  0  0  0  0
    8.4267  -14.3819   21.6483 C   0  0  1  0  0  0  0  0  0  0  0  0
    8.1502  -14.5424   23.1018 C   0  0  0  0  0  0  0  0  0  0  0  0
    7.1342  -13.9494   23.5484 O   0  0  0  0  0  0  0  0  0  0  0  0
    8.9321  -15.2919   23.9730 N   0  0  0  0  0  0  0  0  0  0  0  0
    8.4483  -15.6798   25.3660 C   0  0  1  0  0  0  0  0  0  0  0  0
    7.2509  -16.5087   25.1735 C   0  0  0  0  0  0  0  0  0  0  0  0
    7.2862  -17.7336   24.4010 C   0  0  0  0  0  0  0  0  0  0  0  0
    6.1262  -18.6158   24.2036 C   0  0  0  0  0  0  0  0  0  0  0  0
    6.3453  -19.8125   23.3393 C   0  0  0  0  0  0  0  0  0  0  0  0
    5.1247  -20.5950   23.2986 N   0  0  0  0  0  0  0  0  0  0  0  0
    9.6136  -16.2974   26.0132 C   0  0  0  0  0  0  0  0  0  0  0  0
   10.8231  -16.4788   25.2773 O   0  0  0  0  0  0  0  0  0  0  0  0
    9.6589  -16.6928   27.1752 O   0  0  0  0  0  0  0  0  0  0  0  0
  2  3  1  0
  2  1  1  1
  4  2  1  0
  5  4  2  0
  6  7  1  0
  6  4  1  0
  8  7  1  0
  9 10  1  0
  9  8  1  0
 10  6  1  0
 10 11  1  1
 11 13  1  0
 12 11  2  0
 13 14  1  0
 14 20  1  0
 14 15  1  6
 16 15  1  0
 17 16  1  0
 18 17  1  0
 19 18  1  0
 20 21  1  0
 22 20  2  0
M  END
$$$$
