APK.pdb
     RDKit          3D

 22 22  0  0  1  0  0  0  0  0999 V2000
    6.2220  -14.8991   22.0114 C   0  0  0  0  0  0  0  0  0  0  0  0
    7.2233  -13.7621   22.1045 C   0  0  2  0  0  0  0  0  0  0  0  0
    8.0638  -13.8758   20.9212 N   0  0  0  0  0  0  0  0  0  0  0  0
    8.0577  -13.8704   23.3273 C   0  0  0  0  0  0  0  0  0  0  0  0
    9.2462  -14.2717   23.1885 O   0  0  0  0  0  0  0  0  0  0  0  0
    7.6049  -13.5550   24.6147 N   0  0  0  0  0  0  0  0  0  0  0  0
    6.3096  -13.0595   24.9720 C   0  0  0  0  0  0  0  0  0  0  0  0
    6.7063  -11.9666   25.9752 C   0  0  0  0  0  0  0  0  0  0  0  0
    7.9805  -12.4442   26.5933 C   0  0  0  0  0  0  0  0  0  0  0  0
    8.3640  -13.6782   25.8218 C   0  0  1  0  0  0  0  0  0  0  0  0
    8.0885  -14.9366   26.5671 C   0  0  0  0  0  0  0  0  0  0  0  0
    7.0497  -15.5666   26.2394 O   0  0  0  0  0  0  0  0  0  0  0  0
    8.8940  -15.4430   27.5804 N   0  0  0  0  0  0  0  0  0  0  0  0
    9.6137  -16.7809   27.4509 C   0  0  1  0  0  0  0  0  0  0  0  0
   10.4169  -16.7029   26.2234 C   0  0  0  0  0  0  0  0  0  0  0  0
   10.5469  -17.8303   25.3230 C   0  0  0  0  0  0  0  0  0  0  0  0
   11.3773  -17.8226   24.1092 C   0  0  0  0  0  0  0  0  0  0  0  0
   11.3068  -19.0424   23.2524 C   0  0  0  0  0  0  0  0  0  0  0  0
   12.2285  -18.8932   22.1424 N   0  0  0  0  0  0  0  0  0  0  0  0
   10.3235  -16.9540   28.7254 C   0  0  0  0  0  0  0  0  0  0  0  0
   10.3246  -18.2266   29.3719 O   0  0  0  0  0  0  0  0  0  0  0  0
   10.9449  -16.0782   29.3216 O   0  0  0  0  0  0  0  0  0  0  0  0
  2  3  1  0
  2  1  1  1
  4  2  1  0
  5  4  2  0
  6  7  1  0
  6  4  1  0
  8  7  1  0
  9 10  1  0
  9  8  1  0
 10  6  1  0
 10 11  1  1
 11 13  1  0
 12 11  2  0
 13 14  1  0
 14 20  1  0
 14 15  1  6
 16 15  1  0
 17 16  1  0
 18 17  1  0
 19 18  1  0
 20 21  1  0
 22 20  2  0
M  END
$$$$
