APK.pdb
     RDKit          3D

 22 22  0  0  1  0  0  0  0  0999 V2000
    6.7214  -15.1579   25.4160 C   0  0  0  0  0  0  0  0  0  0  0  0
    6.1635  -16.0178   24.2966 C   0  0  2  0  0  0  0  0  0  0  0  0
    5.7258  -17.2550   24.9273 N   0  0  0  0  0  0  0  0  0  0  0  0
    7.1952  -16.3130   23.2711 C   0  0  0  0  0  0  0  0  0  0  0  0
    7.5923  -17.5067   23.1700 O   0  0  0  0  0  0  0  0  0  0  0  0
    7.7477  -15.3503   22.4167 N   0  0  0  0  0  0  0  0  0  0  0  0
    7.4439  -13.9510   22.3889 C   0  0  0  0  0  0  0  0  0  0  0  0
    7.3451  -13.7267   20.8729 C   0  0  0  0  0  0  0  0  0  0  0  0
    8.2741  -14.7279   20.2660 C   0  0  0  0  0  0  0  0  0  0  0  0
    8.7331  -15.5945   21.4076 C   0  0  1  0  0  0  0  0  0  0  0  0
   10.1202  -15.2848   21.8493 C   0  0  0  0  0  0  0  0  0  0  0  0
   10.2714  -14.2375   22.5302 O   0  0  0  0  0  0  0  0  0  0  0  0
   11.2313  -16.0678   21.5588 N   0  0  0  0  0  0  0  0  0  0  0  0
   12.1667  -16.5822   22.6474 C   0  0  1  0  0  0  0  0  0  0  0  0
   11.3173  -17.2481   23.6439 C   0  0  0  0  0  0  0  0  0  0  0  0
   11.8797  -17.9616   24.7722 C   0  0  0  0  0  0  0  0  0  0  0  0
   11.0767  -18.5799   25.8380 C   0  0  0  0  0  0  0  0  0  0  0  0
   11.8360  -19.2686   26.9226 C   0  0  0  0  0  0  0  0  0  0  0  0
   10.8978  -19.7834   27.9017 N   0  0  0  0  0  0  0  0  0  0  0  0
   13.1609  -17.3984   21.9378 C   0  0  0  0  0  0  0  0  0  0  0  0
   14.5515  -17.1108   22.0823 O   0  0  0  0  0  0  0  0  0  0  0  0
   12.9100  -18.3466   21.1985 O   0  0  0  0  0  0  0  0  0  0  0  0
  2  3  1  0
  2  1  1  1
  4  2  1  0
  5  4  2  0
  6  7  1  0
  6  4  1  0
  8  7  1  0
  9 10  1  0
  9  8  1  0
 10  6  1  0
 10 11  1  1
 11 13  1  0
 12 11  2  0
 13 14  1  0
 14 20  1  0
 14 15  1  1
 16 15  1  0
 17 16  1  0
 18 17  1  0
 19 18  1  0
 20 21  1  0
 22 20  2  0
M  END
$$$$
