APK.pdb
     RDKit          3D

 22 22  0  0  1  0  0  0  0  0999 V2000
    7.2027  -12.8139   25.7801 C   0  0  0  0  0  0  0  0  0  0  0  0
    6.3296  -13.8577   25.1080 C   0  0  2  0  0  0  0  0  0  0  0  0
    5.6381  -14.5502   26.1859 N   0  0  0  0  0  0  0  0  0  0  0  0
    7.1408  -14.8248   24.3270 C   0  0  0  0  0  0  0  0  0  0  0  0
    7.1774  -16.0186   24.7348 O   0  0  0  0  0  0  0  0  0  0  0  0
    7.8612  -14.4904   23.1731 N   0  0  0  0  0  0  0  0  0  0  0  0
    8.1176  -13.1734   22.6723 C   0  0  0  0  0  0  0  0  0  0  0  0
    7.8481  -13.3964   21.1771 C   0  0  0  0  0  0  0  0  0  0  0  0
    8.1999  -14.8266   20.9232 C   0  0  0  0  0  0  0  0  0  0  0  0
    8.4838  -15.4176   22.2779 C   0  0  1  0  0  0  0  0  0  0  0  0
    9.9377  -15.6027   22.5364 C   0  0  0  0  0  0  0  0  0  0  0  0
   10.6069  -14.5586   22.7499 O   0  0  0  0  0  0  0  0  0  0  0  0
   10.5828  -16.8337   22.5545 N   0  0  0  0  0  0  0  0  0  0  0  0
   12.0200  -16.9881   23.0398 C   0  0  1  0  0  0  0  0  0  0  0  0
   12.0458  -18.1893   23.8851 C   0  0  0  0  0  0  0  0  0  0  0  0
   11.3755  -18.2343   25.1685 C   0  0  0  0  0  0  0  0  0  0  0  0
   11.2602  -19.4455   25.9947 C   0  0  0  0  0  0  0  0  0  0  0  0
   10.5796  -19.2842   27.3130 C   0  0  0  0  0  0  0  0  0  0  0  0
   10.5286  -20.5719   27.9784 N   0  0  0  0  0  0  0  0  0  0  0  0
   12.8342  -16.9920   21.8170 C   0  0  0  0  0  0  0  0  0  0  0  0
   14.1814  -16.5221   21.8578 O   0  0  0  0  0  0  0  0  0  0  0  0
   12.4605  -17.3748   20.7113 O   0  0  0  0  0  0  0  0  0  0  0  0
  2  3  1  0
  2  1  1  1
  4  2  1  0
  5  4  2  0
  6  7  1  0
  6  4  1  0
  8  7  1  0
  9 10  1  0
  9  8  1  0
 10  6  1  0
 10 11  1  1
 11 13  1  0
 12 11  2  0
 13 14  1  0
 14 20  1  0
 14 15  1  6
 16 15  1  0
 17 16  1  0
 18 17  1  0
 19 18  1  0
 20 21  1  0
 22 20  2  0
M  END
$$$$
