APK.pdb
     RDKit          3D

 22 22  0  0  1  0  0  0  0  0999 V2000
    4.6504  -17.2327   20.5735 C   0  0  0  0  0  0  0  0  0  0  0  0
    5.4612  -16.7439   19.3871 C   0  0  2  0  0  0  0  0  0  0  0  0
    5.5195  -17.8635   18.4582 N   0  0  0  0  0  0  0  0  0  0  0  0
    6.8349  -16.3524   19.7908 C   0  0  0  0  0  0  0  0  0  0  0  0
    7.7747  -17.1450   19.5057 O   0  0  0  0  0  0  0  0  0  0  0  0
    7.1442  -15.1635   20.4638 N   0  0  0  0  0  0  0  0  0  0  0  0
    6.2212  -14.1612   20.9050 C   0  0  0  0  0  0  0  0  0  0  0  0
    6.9775  -12.8934   20.4820 C   0  0  0  0  0  0  0  0  0  0  0  0
    8.4255  -13.2558   20.5576 C   0  0  0  0  0  0  0  0  0  0  0  0
    8.4561  -14.7334   20.8416 C   0  0  1  0  0  0  0  0  0  0  0  0
    8.7950  -15.0448   22.2569 C   0  0  0  0  0  0  0  0  0  0  0  0
    7.9794  -14.6482   23.1293 O   0  0  0  0  0  0  0  0  0  0  0  0
    9.9341  -15.7318   22.6600 N   0  0  0  0  0  0  0  0  0  0  0  0
   10.1822  -16.1042   24.1176 C   0  0  1  0  0  0  0  0  0  0  0  0
   10.0609  -17.5660   24.1988 C   0  0  0  0  0  0  0  0  0  0  0  0
    9.1640  -18.3069   23.3356 C   0  0  0  0  0  0  0  0  0  0  0  0
    9.1360  -19.7744   23.2433 C   0  0  0  0  0  0  0  0  0  0  0  0
    8.1469  -20.3580   22.2903 C   0  0  0  0  0  0  0  0  0  0  0  0
    8.2767  -21.8026   22.3014 N   0  0  0  0  0  0  0  0  0  0  0  0
   11.4824  -15.5043   24.4458 C   0  0  0  0  0  0  0  0  0  0  0  0
   12.3491  -15.0680   23.3990 O   0  0  0  0  0  0  0  0  0  0  0  0
   11.9232  -15.3307   25.5790 O   0  0  0  0  0  0  0  0  0  0  0  0
  2  3  1  0
  2  1  1  1
  4  2  1  0
  5  4  2  0
  6  7  1  0
  6  4  1  0
  8  7  1  0
  9 10  1  0
  9  8  1  0
 10  6  1  0
 10 11  1  1
 11 13  1  0
 12 11  2  0
 13 14  1  0
 14 20  1  0
 14 15  1  6
 16 15  1  0
 17 16  1  0
 18 17  1  0
 19 18  1  0
 20 21  1  0
 22 20  2  0
M  END
$$$$
