FVK.pdb
     RDKit          3D

 28 28  0  0  1  0  0  0  0  0999 V2000
    9.2800  -16.0382   22.1229 N   0  0  0  0  0  0  0  0  0  0  0  0
    8.9259  -15.2491   23.2622 C   0  0  1  0  0  0  0  0  0  0  0  0
    7.4142  -15.2670   23.3874 C   0  0  0  0  0  0  0  0  0  0  0  0
    7.0404  -14.0791   24.2022 C   0  0  0  0  0  0  0  0  0  0  0  0
    6.3135  -14.2411   25.3646 C   0  0  0  0  0  0  0  0  0  0  0  0
    5.9478  -13.1543   26.1490 C   0  0  0  0  0  0  0  0  0  0  0  0
    6.3148  -11.8925   25.7638 C   0  0  0  0  0  0  0  0  0  0  0  0
    7.0399  -11.7353   24.6036 C   0  0  0  0  0  0  0  0  0  0  0  0
    7.4124  -12.8005   23.8118 C   0  0  0  0  0  0  0  0  0  0  0  0
    9.5731  -15.7546   24.5166 C   0  0  0  0  0  0  0  0  0  0  0  0
   10.1316  -16.8735   24.4943 O   0  0  0  0  0  0  0  0  0  0  0  0
   10.2924  -13.0217   27.6185 C   0  0  0  0  0  0  0  0  0  0  0  0
    9.9427  -14.4706   28.0150 C   0  0  2  0  0  0  0  0  0  0  0  0
   10.6481  -14.7327   29.3004 C   0  0  0  0  0  0  0  0  0  0  0  0
   10.3353  -15.3709   26.8684 C   0  0  2  0  0  0  0  0  0  0  0  0
    9.5494  -14.9783   25.6962 N   0  0  0  0  0  0  0  0  0  0  0  0
   10.1367  -16.7996   27.0976 C   0  0  0  0  0  0  0  0  0  0  0  0
    9.0002  -17.2087   27.5046 O   0  0  0  0  0  0  0  0  0  0  0  0
   11.0950  -17.8323   26.9133 N   0  0  0  0  0  0  0  0  0  0  0  0
   10.9255  -19.1905   27.2940 C   0  0  1  0  0  0  0  0  0  0  0  0
   11.5201  -20.2179   26.4049 C   0  0  0  0  0  0  0  0  0  0  0  0
   11.2704  -19.9433   24.9398 C   0  0  0  0  0  0  0  0  0  0  0  0
   12.4596  -20.2754   24.0989 C   0  0  0  0  0  0  0  0  0  0  0  0
   12.2937  -19.8853   22.6480 C   0  0  0  0  0  0  0  0  0  0  0  0
   13.4673  -20.1991   21.8835 N   0  0  0  0  0  0  0  0  0  0  0  0
   11.2769  -19.4853   28.7191 C   0  0  0  0  0  0  0  0  0  0  0  0
   11.9049  -18.5093   29.4532 O   0  0  0  0  0  0  0  0  0  0  0  0
   11.0064  -20.5795   29.2242 O   0  0  0  0  0  0  0  0  0  0  0  0
  2 10  1  0
  2  1  1  6
  3  2  1  0
  4  3  1  0
  4  9  2  0
  5  4  1  0
  6  5  2  0
  6  7  1  0
  7  8  2  0
  8  9  1  0
 10 11  2  0
 13 12  1  6
 14 13  1  0
 15 13  1  0
 15 16  1  6
 16 10  1  0
 17 18  2  0
 17 15  1  0
 19 17  1  0
 20 21  1  6
 20 19  1  0
 21 22  1  0
 23 22  1  0
 23 24  1  0
 24 25  1  0
 26 27  1  0
 26 20  1  0
 28 26  2  0
M  END
$$$$
