FVK.pdb
     RDKit          3D

 28 28  0  0  1  0  0  0  0  0999 V2000
    5.9758  -18.0196   25.2747 N   0  0  0  0  0  0  0  0  0  0  0  0
    6.3854  -16.6518   25.1888 C   0  0  1  0  0  0  0  0  0  0  0  0
    6.8709  -16.2255   26.5612 C   0  0  0  0  0  0  0  0  0  0  0  0
    6.8053  -14.7390   26.5933 C   0  0  0  0  0  0  0  0  0  0  0  0
    5.5808  -14.1020   26.5680 C   0  0  0  0  0  0  0  0  0  0  0  0
    5.4831  -12.7165   26.5968 C   0  0  0  0  0  0  0  0  0  0  0  0
    6.6248  -11.9623   26.6515 C   0  0  0  0  0  0  0  0  0  0  0  0
    7.8443  -12.6018   26.6766 C   0  0  0  0  0  0  0  0  0  0  0  0
    7.9622  -13.9750   26.6488 C   0  0  0  0  0  0  0  0  0  0  0  0
    7.4541  -16.4511   24.1565 C   0  0  0  0  0  0  0  0  0  0  0  0
    8.4115  -17.2551   24.1204 O   0  0  0  0  0  0  0  0  0  0  0  0
    8.8091  -14.0566   20.0349 C   0  0  0  0  0  0  0  0  0  0  0  0
    7.8844  -14.1017   21.2684 C   0  0  2  0  0  0  0  0  0  0  0  0
    7.9957  -12.7680   21.9218 C   0  0  0  0  0  0  0  0  0  0  0  0
    8.3070  -15.2746   22.1199 C   0  0  2  0  0  0  0  0  0  0  0  0
    7.3757  -15.3741   23.2462 N   0  0  0  0  0  0  0  0  0  0  0  0
    9.6657  -15.2051   22.6515 C   0  0  0  0  0  0  0  0  0  0  0  0
    9.8686  -14.5963   23.7528 O   0  0  0  0  0  0  0  0  0  0  0  0
   10.8373  -15.7575   22.0674 N   0  0  0  0  0  0  0  0  0  0  0  0
   12.0662  -15.9838   22.7434 C   0  0  1  0  0  0  0  0  0  0  0  0
   11.9935  -16.6455   24.0686 C   0  0  0  0  0  0  0  0  0  0  0  0
   11.5638  -18.0919   23.9808 C   0  0  0  0  0  0  0  0  0  0  0  0
   11.4142  -18.7129   25.3312 C   0  0  0  0  0  0  0  0  0  0  0  0
   10.8630  -20.1196   25.2847 C   0  0  0  0  0  0  0  0  0  0  0  0
   10.7983  -20.7007   26.5955 N   0  0  0  0  0  0  0  0  0  0  0  0
   13.1253  -16.6326   21.9075 C   0  0  0  0  0  0  0  0  0  0  0  0
   14.4186  -16.6257   22.3692 O   0  0  0  0  0  0  0  0  0  0  0  0
   12.8429  -17.1640   20.8288 O   0  0  0  0  0  0  0  0  0  0  0  0
  2 10  1  0
  2  1  1  1
  3  2  1  0
  4  3  1  0
  4  9  2  0
  5  4  1  0
  6  5  2  0
  6  7  1  0
  7  8  2  0
  8  9  1  0
 10 11  2  0
 13 12  1  6
 14 13  1  0
 15 13  1  0
 15 16  1  1
 16 10  1  0
 17 18  2  0
 17 15  1  0
 19 17  1  0
 20 21  1  1
 20 19  1  0
 21 22  1  0
 23 22  1  0
 23 24  1  0
 24 25  1  0
 26 27  1  0
 26 20  1  0
 28 26  2  0
M  END
$$$$
