FVK.pdb
     RDKit          3D

 28 28  0  0  1  0  0  0  0  0999 V2000
    5.4903  -17.4549   25.2444 N   0  0  0  0  0  0  0  0  0  0  0  0
    6.2308  -16.2624   24.9692 C   0  0  1  0  0  0  0  0  0  0  0  0
    7.0939  -15.9623   26.1799 C   0  0  0  0  0  0  0  0  0  0  0  0
    7.0241  -14.4919   26.3987 C   0  0  0  0  0  0  0  0  0  0  0  0
    5.8028  -13.8827   26.6058 C   0  0  0  0  0  0  0  0  0  0  0  0
    5.7013  -12.5127   26.8132 C   0  0  0  0  0  0  0  0  0  0  0  0
    6.8361  -11.7462   26.8129 C   0  0  0  0  0  0  0  0  0  0  0  0
    8.0525  -12.3579   26.6059 C   0  0  0  0  0  0  0  0  0  0  0  0
    8.1740  -13.7153   26.3983 C   0  0  0  0  0  0  0  0  0  0  0  0
    7.0694  -16.3965   23.7336 C   0  0  0  0  0  0  0  0  0  0  0  0
    7.5373  -17.5201   23.4455 O   0  0  0  0  0  0  0  0  0  0  0  0
    6.4792  -14.0637   20.5056 C   0  0  0  0  0  0  0  0  0  0  0  0
    7.9700  -14.1427   20.8929 C   0  0  2  0  0  0  0  0  0  0  0  0
    8.7352  -14.1028   19.6157 C   0  0  0  0  0  0  0  0  0  0  0  0
    8.1660  -15.3880   21.7237 C   0  0  2  0  0  0  0  0  0  0  0  0
    7.3222  -15.2733   22.9157 N   0  0  0  0  0  0  0  0  0  0  0  0
    9.5379  -15.6439   22.1545 C   0  0  0  0  0  0  0  0  0  0  0  0
    9.9953  -15.0186   23.1666 O   0  0  0  0  0  0  0  0  0  0  0  0
   10.4629  -16.5433   21.5592 N   0  0  0  0  0  0  0  0  0  0  0  0
   11.6441  -17.0371   22.1752 C   0  0  1  0  0  0  0  0  0  0  0  0
   11.5410  -18.3357   22.8841 C   0  0  0  0  0  0  0  0  0  0  0  0
   12.8639  -18.8077   23.4421 C   0  0  0  0  0  0  0  0  0  0  0  0
   12.7272  -20.0927   24.1915 C   0  0  0  0  0  0  0  0  0  0  0  0
   14.0306  -20.5841   24.7786 C   0  0  0  0  0  0  0  0  0  0  0  0
   13.8537  -21.8203   25.4860 N   0  0  0  0  0  0  0  0  0  0  0  0
   12.8537  -17.0331   21.2931 C   0  0  0  0  0  0  0  0  0  0  0  0
   13.3844  -18.2388   20.9051 O   0  0  0  0  0  0  0  0  0  0  0  0
   13.3616  -15.9706   20.9205 O   0  0  0  0  0  0  0  0  0  0  0  0
  2 10  1  0
  2  1  1  1
  3  2  1  0
  4  3  1  0
  4  9  2  0
  5  4  1  0
  6  5  2  0
  6  7  1  0
  7  8  2  0
  8  9  1  0
 10 11  2  0
 13 12  1  6
 14 13  1  0
 15 13  1  0
 15 16  1  1
 16 10  1  0
 17 18  2  0
 17 15  1  0
 19 17  1  0
 20 21  1  6
 20 19  1  0
 21 22  1  0
 23 22  1  0
 23 24  1  0
 24 25  1  0
 26 27  1  0
 26 20  1  0
 28 26  2  0
M  END
$$$$
