FVK.pdb
     RDKit          3D

 28 28  0  0  1  0  0  0  0  0999 V2000
    5.6626  -17.4596   25.8034 N   0  0  0  0  0  0  0  0  0  0  0  0
    6.3244  -16.2341   25.4776 C   0  0  1  0  0  0  0  0  0  0  0  0
    7.1663  -15.8293   26.6728 C   0  0  0  0  0  0  0  0  0  0  0  0
    6.9642  -14.3668   26.8602 C   0  0  0  0  0  0  0  0  0  0  0  0
    8.0527  -13.5185   26.8908 C   0  0  0  0  0  0  0  0  0  0  0  0
    7.9002  -12.1485   27.0640 C   0  0  0  0  0  0  0  0  0  0  0  0
    6.6434  -11.6241   27.2078 C   0  0  0  0  0  0  0  0  0  0  0  0
    5.5601  -12.4739   27.1766 C   0  0  0  0  0  0  0  0  0  0  0  0
    5.6906  -13.8356   27.0059 C   0  0  0  0  0  0  0  0  0  0  0  0
    7.1701  -16.3645   24.2464 C   0  0  0  0  0  0  0  0  0  0  0  0
    7.7554  -17.4490   24.0330 O   0  0  0  0  0  0  0  0  0  0  0  0
    8.6246  -14.3765   19.9533 C   0  0  0  0  0  0  0  0  0  0  0  0
    7.7986  -14.2237   21.2468 C   0  0  2  0  0  0  0  0  0  0  0  0
    8.1535  -12.8927   21.8131 C   0  0  0  0  0  0  0  0  0  0  0  0
    8.1073  -15.4055   22.1342 C   0  0  2  0  0  0  0  0  0  0  0  0
    7.2992  -15.2810   23.3497 N   0  0  0  0  0  0  0  0  0  0  0  0
    9.5075  -15.5460   22.5254 C   0  0  0  0  0  0  0  0  0  0  0  0
   10.0429  -14.6398   23.2442 O   0  0  0  0  0  0  0  0  0  0  0  0
   10.3816  -16.6149   22.1898 N   0  0  0  0  0  0  0  0  0  0  0  0
   11.7447  -16.7163   22.5771 C   0  0  1  0  0  0  0  0  0  0  0  0
   12.1815  -18.0029   23.1716 C   0  0  0  0  0  0  0  0  0  0  0  0
   11.4822  -18.3162   24.4743 C   0  0  0  0  0  0  0  0  0  0  0  0
   11.9138  -19.6306   25.0377 C   0  0  0  0  0  0  0  0  0  0  0  0
   11.2190  -19.9832   26.3331 C   0  0  0  0  0  0  0  0  0  0  0  0
   11.5620  -21.3072   26.7682 N   0  0  0  0  0  0  0  0  0  0  0  0
   12.7225  -16.2809   21.5304 C   0  0  0  0  0  0  0  0  0  0  0  0
   12.2753  -16.1270   20.2411 O   0  0  0  0  0  0  0  0  0  0  0  0
   13.9035  -16.0627   21.8193 O   0  0  0  0  0  0  0  0  0  0  0  0
  2 10  1  0
  2  1  1  1
  3  2  1  0
  4  3  1  0
  4  9  2  0
  5  4  1  0
  6  5  2  0
  6  7  1  0
  7  8  2  0
  8  9  1  0
 10 11  2  0
 13 12  1  6
 14 13  1  0
 15 13  1  0
 15 16  1  1
 16 10  1  0
 17 18  2  0
 17 15  1  0
 19 17  1  0
 20 21  1  6
 20 19  1  0
 21 22  1  0
 23 22  1  0
 23 24  1  0
 24 25  1  0
 26 27  1  0
 26 20  1  0
 28 26  2  0
M  END
$$$$
