FVK.pdb
     RDKit          3D

 28 28  0  0  1  0  0  0  0  0999 V2000
    5.7681  -17.5101   25.5963 N   0  0  0  0  0  0  0  0  0  0  0  0
    6.2994  -16.2293   25.2455 C   0  0  1  0  0  0  0  0  0  0  0  0
    7.0780  -15.7072   26.4380 C   0  0  0  0  0  0  0  0  0  0  0  0
    6.8712  -14.2338   26.4697 C   0  0  0  0  0  0  0  0  0  0  0  0
    5.6087  -13.7190   26.6858 C   0  0  0  0  0  0  0  0  0  0  0  0
    5.3800  -12.3491   26.7215 C   0  0  0  0  0  0  0  0  0  0  0  0
    6.4281  -11.4870   26.5386 C   0  0  0  0  0  0  0  0  0  0  0  0
    7.6860  -12.0046   26.3232 C   0  0  0  0  0  0  0  0  0  0  0  0
    7.9332  -13.3603   26.2843 C   0  0  0  0  0  0  0  0  0  0  0  0
    7.1697  -16.2988   24.0266 C   0  0  0  0  0  0  0  0  0  0  0  0
    7.8874  -17.3094   23.8591 O   0  0  0  0  0  0  0  0  0  0  0  0
    8.4669  -14.2625   19.7024 C   0  0  0  0  0  0  0  0  0  0  0  0
    7.6370  -14.1482   20.9974 C   0  0  2  0  0  0  0  0  0  0  0  0
    7.9189  -12.7962   21.5551 C   0  0  0  0  0  0  0  0  0  0  0  0
    8.0129  -15.3058   21.8906 C   0  0  2  0  0  0  0  0  0  0  0  0
    7.1747  -15.2415   23.0903 N   0  0  0  0  0  0  0  0  0  0  0  0
    9.4118  -15.3455   22.3089 C   0  0  0  0  0  0  0  0  0  0  0  0
    9.7890  -14.6078   23.2774 O   0  0  0  0  0  0  0  0  0  0  0  0
   10.4461  -16.1402   21.7453 N   0  0  0  0  0  0  0  0  0  0  0  0
   11.6301  -16.5476   22.4167 C   0  0  1  0  0  0  0  0  0  0  0  0
   11.5860  -17.8468   23.1304 C   0  0  0  0  0  0  0  0  0  0  0  0
   12.8563  -18.1415   23.8944 C   0  0  0  0  0  0  0  0  0  0  0  0
   12.8108  -19.4785   24.5590 C   0  0  0  0  0  0  0  0  0  0  0  0
   14.0232  -19.7618   25.4162 C   0  0  0  0  0  0  0  0  0  0  0  0
   13.8725  -20.9869   26.1487 N   0  0  0  0  0  0  0  0  0  0  0  0
   12.8746  -16.4632   21.5889 C   0  0  0  0  0  0  0  0  0  0  0  0
   14.0635  -16.1929   22.2209 O   0  0  0  0  0  0  0  0  0  0  0  0
   12.8343  -16.6349   20.3663 O   0  0  0  0  0  0  0  0  0  0  0  0
  2 10  1  0
  2  1  1  1
  3  2  1  0
  4  3  1  0
  4  9  2  0
  5  4  1  0
  6  5  2  0
  6  7  1  0
  7  8  2  0
  8  9  1  0
 10 11  2  0
 13 12  1  6
 14 13  1  0
 15 13  1  0
 15 16  1  1
 16 10  1  0
 17 18  2  0
 17 15  1  0
 19 17  1  0
 20 21  1  6
 20 19  1  0
 21 22  1  0
 23 22  1  0
 23 24  1  0
 24 25  1  0
 26 27  1  0
 26 20  1  0
 28 26  2  0
M  END
$$$$
