FVK.pdb
     RDKit          3D

 28 28  0  0  1  0  0  0  0  0999 V2000
    6.0118  -17.1843   26.0214 N   0  0  0  0  0  0  0  0  0  0  0  0
    6.6860  -16.0320   25.5078 C   0  0  1  0  0  0  0  0  0  0  0  0
    7.7401  -15.6220   26.5186 C   0  0  0  0  0  0  0  0  0  0  0  0
    7.4656  -14.2016   26.8677 C   0  0  0  0  0  0  0  0  0  0  0  0
    6.2090  -13.6702   26.6575 C   0  0  0  0  0  0  0  0  0  0  0  0
    5.9183  -12.3485   26.9720 C   0  0  0  0  0  0  0  0  0  0  0  0
    6.8977  -11.5520   27.5025 C   0  0  0  0  0  0  0  0  0  0  0  0
    8.1499  -12.0861   27.7107 C   0  0  0  0  0  0  0  0  0  0  0  0
    8.4581  -13.3946   27.4053 C   0  0  0  0  0  0  0  0  0  0  0  0
    7.3034  -16.2957   24.1672 C   0  0  0  0  0  0  0  0  0  0  0  0
    7.5917  -17.4736   23.8610 O   0  0  0  0  0  0  0  0  0  0  0  0
    6.4810  -14.1432   20.8654 C   0  0  0  0  0  0  0  0  0  0  0  0
    7.9981  -14.2618   21.1162 C   0  0  2  0  0  0  0  0  0  0  0  0
    8.6392  -14.3213   19.7732 C   0  0  0  0  0  0  0  0  0  0  0  0
    8.2281  -15.4678   21.9949 C   0  0  2  0  0  0  0  0  0  0  0  0
    7.5520  -15.2314   23.2727 N   0  0  0  0  0  0  0  0  0  0  0  0
    9.6272  -15.7866   22.2671 C   0  0  0  0  0  0  0  0  0  0  0  0
   10.2716  -15.0759   23.1063 O   0  0  0  0  0  0  0  0  0  0  0  0
   10.3890  -16.8368   21.6877 N   0  0  0  0  0  0  0  0  0  0  0  0
   11.6863  -17.2396   22.1039 C   0  0  1  0  0  0  0  0  0  0  0  0
   11.7933  -18.5399   22.8090 C   0  0  0  0  0  0  0  0  0  0  0  0
   13.2108  -18.8751   23.2123 C   0  0  0  0  0  0  0  0  0  0  0  0
   13.2837  -20.1480   23.9907 C   0  0  0  0  0  0  0  0  0  0  0  0
   14.6786  -20.4752   24.4726 C   0  0  0  0  0  0  0  0  0  0  0  0
   14.7097  -21.7250   25.1777 N   0  0  0  0  0  0  0  0  0  0  0  0
   12.7364  -17.1487   21.0408 C   0  0  0  0  0  0  0  0  0  0  0  0
   13.9850  -16.6971   21.3917 O   0  0  0  0  0  0  0  0  0  0  0  0
   12.4873  -17.4743   19.8757 O   0  0  0  0  0  0  0  0  0  0  0  0
  2 10  1  0
  2  1  1  1
  3  2  1  0
  4  3  1  0
  4  9  2  0
  5  4  1  0
  6  5  2  0
  6  7  1  0
  7  8  2  0
  8  9  1  0
 10 11  2  0
 13 12  1  6
 14 13  1  0
 15 13  1  0
 15 16  1  1
 16 10  1  0
 17 18  2  0
 17 15  1  0
 19 17  1  0
 20 21  1  6
 20 19  1  0
 21 22  1  0
 23 22  1  0
 23 24  1  0
 24 25  1  0
 26 27  1  0
 26 20  1  0
 28 26  2  0
M  END
$$$$
