FVK.pdb
     RDKit          3D

 28 28  0  0  1  0  0  0  0  0999 V2000
    5.7830  -17.2473   25.5012 N   0  0  0  0  0  0  0  0  0  0  0  0
    6.4947  -16.0683   25.1145 C   0  0  1  0  0  0  0  0  0  0  0  0
    7.2440  -15.5585   26.3310 C   0  0  0  0  0  0  0  0  0  0  0  0
    6.9701  -14.0984   26.4188 C   0  0  0  0  0  0  0  0  0  0  0  0
    5.7030  -13.6523   26.7369 C   0  0  0  0  0  0  0  0  0  0  0  0
    5.4126  -12.2967   26.8274 C   0  0  0  0  0  0  0  0  0  0  0  0
    6.4028  -11.3794   26.5965 C   0  0  0  0  0  0  0  0  0  0  0  0
    7.6654  -11.8287   26.2794 C   0  0  0  0  0  0  0  0  0  0  0  0
    7.9735  -13.1690   26.1848 C   0  0  0  0  0  0  0  0  0  0  0  0
    7.4355  -16.3299   23.9768 C   0  0  0  0  0  0  0  0  0  0  0  0
    8.0418  -17.4233   23.9394 O   0  0  0  0  0  0  0  0  0  0  0  0
    8.2526  -13.3321   20.9554 C   0  0  0  0  0  0  0  0  0  0  0  0
    7.9949  -14.8225   20.6538 C   0  0  2  0  0  0  0  0  0  0  0  0
    6.5357  -14.9466   20.3821 C   0  0  0  0  0  0  0  0  0  0  0  0
    8.5033  -15.6258   21.8266 C   0  0  2  0  0  0  0  0  0  0  0  0
    7.6289  -15.3576   22.9709 N   0  0  0  0  0  0  0  0  0  0  0  0
    9.8807  -15.3483   22.2257 C   0  0  0  0  0  0  0  0  0  0  0  0
   10.0987  -14.4837   23.1364 O   0  0  0  0  0  0  0  0  0  0  0  0
   11.0561  -15.9507   21.7017 N   0  0  0  0  0  0  0  0  0  0  0  0
   12.0387  -16.6383   22.4635 C   0  0  1  0  0  0  0  0  0  0  0  0
   11.5574  -17.6966   23.3843 C   0  0  0  0  0  0  0  0  0  0  0  0
   12.6766  -18.3611   24.1525 C   0  0  0  0  0  0  0  0  0  0  0  0
   12.1678  -19.4162   25.0795 C   0  0  0  0  0  0  0  0  0  0  0  0
   13.2509  -20.0351   25.9332 C   0  0  0  0  0  0  0  0  0  0  0  0
   12.7129  -21.0150   26.8334 N   0  0  0  0  0  0  0  0  0  0  0  0
   13.2002  -17.1458   21.6669 C   0  0  0  0  0  0  0  0  0  0  0  0
   14.4696  -16.8629   22.1081 O   0  0  0  0  0  0  0  0  0  0  0  0
   13.0218  -17.8056   20.6380 O   0  0  0  0  0  0  0  0  0  0  0  0
  2 10  1  0
  2  1  1  1
  3  2  1  0
  4  3  1  0
  4  9  2  0
  5  4  1  0
  6  5  2  0
  6  7  1  0
  7  8  2  0
  8  9  1  0
 10 11  2  0
 13 12  1  1
 14 13  1  0
 15 13  1  0
 15 16  1  1
 16 10  1  0
 17 18  2  0
 17 15  1  0
 19 17  1  0
 20 21  1  6
 20 19  1  0
 21 22  1  0
 23 22  1  0
 23 24  1  0
 24 25  1  0
 26 27  1  0
 26 20  1  0
 28 26  2  0
M  END
$$$$
