FVK.pdb
     RDKit          3D

 28 28  0  0  1  0  0  0  0  0999 V2000
    5.8383  -17.4459   25.8543 N   0  0  0  0  0  0  0  0  0  0  0  0
    6.3918  -16.1886   25.4560 C   0  0  1  0  0  0  0  0  0  0  0  0
    7.1925  -15.6433   26.6233 C   0  0  0  0  0  0  0  0  0  0  0  0
    6.9222  -14.1809   26.6788 C   0  0  0  0  0  0  0  0  0  0  0  0
    5.6234  -13.7226   26.7724 C   0  0  0  0  0  0  0  0  0  0  0  0
    5.3353  -12.3646   26.8263 C   0  0  0  0  0  0  0  0  0  0  0  0
    6.3601  -11.4572   26.7860 C   0  0  0  0  0  0  0  0  0  0  0  0
    7.6543  -11.9185   26.6927 C   0  0  0  0  0  0  0  0  0  0  0  0
    7.9607  -13.2615   26.6380 C   0  0  0  0  0  0  0  0  0  0  0  0
    7.2485  -16.3163   24.2322 C   0  0  0  0  0  0  0  0  0  0  0  0
    7.8442  -17.3969   24.0273 O   0  0  0  0  0  0  0  0  0  0  0  0
    8.4792  -14.3843   19.8443 C   0  0  0  0  0  0  0  0  0  0  0  0
    7.7844  -14.1848   21.2067 C   0  0  2  0  0  0  0  0  0  0  0  0
    8.2950  -12.8954   21.7502 C   0  0  0  0  0  0  0  0  0  0  0  0
    8.0715  -15.4008   22.0541 C   0  0  2  0  0  0  0  0  0  0  0  0
    7.3762  -15.2349   23.3327 N   0  0  0  0  0  0  0  0  0  0  0  0
    9.4837  -15.6539   22.3282 C   0  0  0  0  0  0  0  0  0  0  0  0
   10.1096  -14.8747   23.1191 O   0  0  0  0  0  0  0  0  0  0  0  0
   10.2775  -16.7073   21.7998 N   0  0  0  0  0  0  0  0  0  0  0  0
   11.6410  -16.9497   22.1171 C   0  0  1  0  0  0  0  0  0  0  0  0
   11.9790  -18.2900   22.6544 C   0  0  0  0  0  0  0  0  0  0  0  0
   11.5015  -18.4920   24.0741 C   0  0  0  0  0  0  0  0  0  0  0  0
   11.7598  -19.8815   24.5578 C   0  0  0  0  0  0  0  0  0  0  0  0
   11.1876  -20.1530   25.9303 C   0  0  0  0  0  0  0  0  0  0  0  0
   11.3335  -21.5334   26.2952 N   0  0  0  0  0  0  0  0  0  0  0  0
   12.6068  -16.5759   21.0361 C   0  0  0  0  0  0  0  0  0  0  0  0
   12.1750  -16.6095   19.7328 O   0  0  0  0  0  0  0  0  0  0  0  0
   13.7644  -16.2427   21.3092 O   0  0  0  0  0  0  0  0  0  0  0  0
  2 10  1  0
  2  1  1  1
  3  2  1  0
  4  3  1  0
  4  9  2  0
  5  4  1  0
  6  5  2  0
  6  7  1  0
  7  8  2  0
  8  9  1  0
 10 11  2  0
 13 12  1  6
 14 13  1  0
 15 13  1  0
 15 16  1  1
 16 10  1  0
 17 18  2  0
 17 15  1  0
 19 17  1  0
 20 21  1  6
 20 19  1  0
 21 22  1  0
 23 22  1  0
 23 24  1  0
 24 25  1  0
 26 27  1  0
 26 20  1  0
 28 26  2  0
M  END
$$$$
