FVK.pdb
     RDKit          3D

 28 28  0  0  1  0  0  0  0  0999 V2000
    7.1623  -17.7656   26.8728 N   0  0  0  0  0  0  0  0  0  0  0  0
    6.6458  -16.8627   25.8910 C   0  0  1  0  0  0  0  0  0  0  0  0
    6.4020  -15.5284   26.5701 C   0  0  0  0  0  0  0  0  0  0  0  0
    7.7195  -15.0655   27.0847 C   0  0  0  0  0  0  0  0  0  0  0  0
    7.9725  -15.0766   28.4417 C   0  0  0  0  0  0  0  0  0  0  0  0
    9.1911  -14.6516   28.9560 C   0  0  0  0  0  0  0  0  0  0  0  0
   10.1656  -14.2111   28.1008 C   0  0  0  0  0  0  0  0  0  0  0  0
    9.9092  -14.2017   26.7477 C   0  0  0  0  0  0  0  0  0  0  0  0
    8.7070  -14.6192   26.2179 C   0  0  0  0  0  0  0  0  0  0  0  0
    7.5776  -16.7086   24.7266 C   0  0  0  0  0  0  0  0  0  0  0  0
    8.4404  -17.5922   24.5280 O   0  0  0  0  0  0  0  0  0  0  0  0
    6.2371  -14.6948   21.4461 C   0  0  0  0  0  0  0  0  0  0  0  0
    7.7009  -14.3726   21.8094 C   0  0  2  0  0  0  0  0  0  0  0  0
    8.4046  -14.1216   20.5209 C   0  0  0  0  0  0  0  0  0  0  0  0
    8.2387  -15.5240   22.6245 C   0  0  2  0  0  0  0  0  0  0  0  0
    7.4783  -15.5863   23.8750 N   0  0  0  0  0  0  0  0  0  0  0  0
    9.6597  -15.4482   22.9538 C   0  0  0  0  0  0  0  0  0  0  0  0
   10.1209  -14.3733   23.4600 O   0  0  0  0  0  0  0  0  0  0  0  0
   10.6308  -16.4696   22.7725 N   0  0  0  0  0  0  0  0  0  0  0  0
   11.9950  -16.3868   23.1603 C   0  0  1  0  0  0  0  0  0  0  0  0
   12.3076  -16.6584   24.5844 C   0  0  0  0  0  0  0  0  0  0  0  0
   12.1152  -18.1090   24.9624 C   0  0  0  0  0  0  0  0  0  0  0  0
   11.4514  -18.2562   26.2924 C   0  0  0  0  0  0  0  0  0  0  0  0
   11.2747  -19.6963   26.7165 C   0  0  0  0  0  0  0  0  0  0  0  0
   12.2202  -20.0634   27.7321 N   0  0  0  0  0  0  0  0  0  0  0  0
   12.9391  -17.1434   22.2785 C   0  0  0  0  0  0  0  0  0  0  0  0
   14.2887  -16.9832   22.4753 O   0  0  0  0  0  0  0  0  0  0  0  0
   12.5148  -17.8962   21.3959 O   0  0  0  0  0  0  0  0  0  0  0  0
  2 10  1  0
  2  1  1  1
  3  2  1  0
  4  3  1  0
  4  9  2  0
  5  4  1  0
  6  5  2  0
  6  7  1  0
  7  8  2  0
  8  9  1  0
 10 11  2  0
 13 12  1  6
 14 13  1  0
 15 13  1  0
 15 16  1  1
 16 10  1  0
 17 18  2  0
 17 15  1  0
 19 17  1  0
 20 21  1  1
 20 19  1  0
 21 22  1  0
 23 22  1  0
 23 24  1  0
 24 25  1  0
 26 27  1  0
 26 20  1  0
 28 26  2  0
M  END
$$$$
