FVK.pdb
     RDKit          3D

 28 28  0  0  1  0  0  0  0  0999 V2000
    5.6406  -18.0989   25.3644 N   0  0  0  0  0  0  0  0  0  0  0  0
    6.3161  -16.8426   25.2567 C   0  0  1  0  0  0  0  0  0  0  0  0
    7.1719  -16.6680   26.4968 C   0  0  0  0  0  0  0  0  0  0  0  0
    7.3958  -15.2055   26.6572 C   0  0  0  0  0  0  0  0  0  0  0  0
    6.3182  -14.3540   26.7965 C   0  0  0  0  0  0  0  0  0  0  0  0
    6.4910  -12.9839   26.9481 C   0  0  0  0  0  0  0  0  0  0  0  0
    7.7573  -12.4626   26.9602 C   0  0  0  0  0  0  0  0  0  0  0  0
    8.8295  -13.3155   26.8210 C   0  0  0  0  0  0  0  0  0  0  0  0
    8.6789  -14.6774   26.6694 C   0  0  0  0  0  0  0  0  0  0  0  0
    7.1508  -16.7604   24.0140 C   0  0  0  0  0  0  0  0  0  0  0  0
    7.5458  -17.8230   23.4855 O   0  0  0  0  0  0  0  0  0  0  0  0
    8.5241  -13.9811   20.1858 C   0  0  0  0  0  0  0  0  0  0  0  0
    7.7638  -14.1023   21.5222 C   0  0  2  0  0  0  0  0  0  0  0  0
    8.1096  -12.8867   22.3102 C   0  0  0  0  0  0  0  0  0  0  0  0
    8.1530  -15.4153   22.1577 C   0  0  2  0  0  0  0  0  0  0  0  0
    7.4811  -15.5056   23.4562 N   0  0  0  0  0  0  0  0  0  0  0  0
    9.5855  -15.6096   22.3668 C   0  0  0  0  0  0  0  0  0  0  0  0
   10.3717  -15.5401   21.3661 O   0  0  0  0  0  0  0  0  0  0  0  0
   10.2367  -15.8761   23.6012 N   0  0  0  0  0  0  0  0  0  0  0  0
   11.6286  -16.1093   23.7644 C   0  0  1  0  0  0  0  0  0  0  0  0
   12.0532  -16.8108   25.0001 C   0  0  0  0  0  0  0  0  0  0  0  0
   11.1122  -16.5800   26.1601 C   0  0  0  0  0  0  0  0  0  0  0  0
   11.5420  -17.3212   27.3837 C   0  0  0  0  0  0  0  0  0  0  0  0
   10.6388  -17.0870   28.5730 C   0  0  0  0  0  0  0  0  0  0  0  0
   11.1365  -17.7459   29.7469 N   0  0  0  0  0  0  0  0  0  0  0  0
   12.3000  -16.7219   22.5747 C   0  0  0  0  0  0  0  0  0  0  0  0
   11.6615  -17.7453   21.9182 O   0  0  0  0  0  0  0  0  0  0  0  0
   13.4012  -16.3153   22.1905 O   0  0  0  0  0  0  0  0  0  0  0  0
  2 10  1  0
  2  1  1  1
  3  2  1  0
  4  3  1  0
  4  9  2  0
  5  4  1  0
  6  5  2  0
  6  7  1  0
  7  8  2  0
  8  9  1  0
 10 11  2  0
 13 12  1  6
 14 13  1  0
 15 13  1  0
 15 16  1  1
 16 10  1  0
 17 18  2  0
 17 15  1  0
 19 17  1  0
 20 21  1  1
 20 19  1  0
 21 22  1  0
 23 22  1  0
 23 24  1  0
 24 25  1  0
 26 27  1  0
 26 20  1  0
 28 26  2  0
M  END
$$$$
