FVK.pdb
     RDKit          3D

 28 28  0  0  1  0  0  0  0  0999 V2000
   10.2815  -15.6812   21.5627 N   0  0  0  0  0  0  0  0  0  0  0  0
    9.2612  -14.9844   22.2835 C   0  0  1  0  0  0  0  0  0  0  0  0
    7.9198  -15.4102   21.7174 C   0  0  0  0  0  0  0  0  0  0  0  0
    7.5475  -14.3949   20.6950 C   0  0  0  0  0  0  0  0  0  0  0  0
    6.7095  -13.3512   21.0328 C   0  0  0  0  0  0  0  0  0  0  0  0
    6.3417  -12.3862   20.1035 C   0  0  0  0  0  0  0  0  0  0  0  0
    6.8192  -12.4688   18.8227 C   0  0  0  0  0  0  0  0  0  0  0  0
    7.6550  -13.5115   18.4899 C   0  0  0  0  0  0  0  0  0  0  0  0
    8.0314  -14.4787   19.3972 C   0  0  0  0  0  0  0  0  0  0  0  0
    9.3313  -15.2557   23.7564 C   0  0  0  0  0  0  0  0  0  0  0  0
   10.0837  -16.1685   24.1629 O   0  0  0  0  0  0  0  0  0  0  0  0
    6.4016  -13.9694   26.3940 C   0  0  0  0  0  0  0  0  0  0  0  0
    7.8516  -13.6239   26.7901 C   0  0  2  0  0  0  0  0  0  0  0  0
    8.0590  -12.1986   26.4106 C   0  0  0  0  0  0  0  0  0  0  0  0
    8.7651  -14.6129   26.1071 C   0  0  2  0  0  0  0  0  0  0  0  0
    8.5611  -14.4927   24.6614 N   0  0  0  0  0  0  0  0  0  0  0  0
    8.5694  -16.0103   26.4844 C   0  0  0  0  0  0  0  0  0  0  0  0
    7.5005  -16.3425   27.0941 O   0  0  0  0  0  0  0  0  0  0  0  0
    9.4614  -17.0897   26.2434 N   0  0  0  0  0  0  0  0  0  0  0  0
    9.8517  -18.0647   27.2002 C   0  0  1  0  0  0  0  0  0  0  0  0
   10.9668  -18.9674   26.8248 C   0  0  0  0  0  0  0  0  0  0  0  0
   10.4919  -20.3144   26.3303 C   0  0  0  0  0  0  0  0  0  0  0  0
   11.3419  -20.8315   25.2160 C   0  0  0  0  0  0  0  0  0  0  0  0
   10.8909  -22.1768   24.6947 C   0  0  0  0  0  0  0  0  0  0  0  0
   11.1819  -23.2257   25.6302 N   0  0  0  0  0  0  0  0  0  0  0  0
   10.0735  -17.5277   28.5800 C   0  0  0  0  0  0  0  0  0  0  0  0
    9.4343  -18.1393   29.6305 O   0  0  0  0  0  0  0  0  0  0  0  0
   10.8158  -16.5590   28.7703 O   0  0  0  0  0  0  0  0  0  0  0  0
  2 10  1  0
  2  1  1  6
  3  2  1  0
  4  3  1  0
  4  9  2  0
  5  4  1  0
  6  5  2  0
  6  7  1  0
  7  8  2  0
  8  9  1  0
 10 11  2  0
 13 12  1  6
 14 13  1  0
 15 13  1  0
 15 16  1  6
 16 10  1  0
 17 18  2  0
 17 15  1  0
 19 17  1  0
 20 21  1  6
 20 19  1  0
 21 22  1  0
 23 22  1  0
 23 24  1  0
 24 25  1  0
 26 27  1  0
 26 20  1  0
 28 26  2  0
M  END
$$$$
