FVK.pdb
     RDKit          3D

 28 28  0  0  1  0  0  0  0  0999 V2000
    5.9092  -17.9882   25.5681 N   0  0  0  0  0  0  0  0  0  0  0  0
    6.3105  -16.6289   25.3748 C   0  0  1  0  0  0  0  0  0  0  0  0
    6.8365  -16.1075   26.6986 C   0  0  0  0  0  0  0  0  0  0  0  0
    6.7961  -14.6221   26.6175 C   0  0  0  0  0  0  0  0  0  0  0  0
    7.9717  -13.9039   26.5300 C   0  0  0  0  0  0  0  0  0  0  0  0
    7.9705  -12.5168   26.4528 C   0  0  0  0  0  0  0  0  0  0  0  0
    6.7783  -11.8432   26.4635 C   0  0  0  0  0  0  0  0  0  0  0  0
    5.6077  -12.5635   26.5509 C   0  0  0  0  0  0  0  0  0  0  0  0
    5.5879  -13.9397   26.6283 C   0  0  0  0  0  0  0  0  0  0  0  0
    7.3458  -16.4983   24.2983 C   0  0  0  0  0  0  0  0  0  0  0  0
    8.2419  -17.3674   24.2195 O   0  0  0  0  0  0  0  0  0  0  0  0
    6.4333  -14.6699   20.7794 C   0  0  0  0  0  0  0  0  0  0  0  0
    7.7953  -14.2329   21.3563 C   0  0  2  0  0  0  0  0  0  0  0  0
    8.6798  -13.9741   20.1863 C   0  0  0  0  0  0  0  0  0  0  0  0
    8.2682  -15.3164   22.2954 C   0  0  2  0  0  0  0  0  0  0  0  0
    7.3047  -15.4138   23.3946 N   0  0  0  0  0  0  0  0  0  0  0  0
    9.5975  -15.1143   22.8659 C   0  0  0  0  0  0  0  0  0  0  0  0
    9.7319  -14.3238   23.8566 O   0  0  0  0  0  0  0  0  0  0  0  0
   10.8094  -15.7175   22.4341 N   0  0  0  0  0  0  0  0  0  0  0  0
   11.8480  -16.1803   23.2860 C   0  0  1  0  0  0  0  0  0  0  0  0
   11.4486  -17.0317   24.4328 C   0  0  0  0  0  0  0  0  0  0  0  0
   12.6268  -17.5016   25.2547 C   0  0  0  0  0  0  0  0  0  0  0  0
   12.2144  -18.4573   26.3261 C   0  0  0  0  0  0  0  0  0  0  0  0
   13.3541  -18.8723   27.2283 C   0  0  0  0  0  0  0  0  0  0  0  0
   12.8932  -19.6954   28.3100 N   0  0  0  0  0  0  0  0  0  0  0  0
   13.0084  -16.8000   22.5715 C   0  0  0  0  0  0  0  0  0  0  0  0
   14.2757  -16.3832   22.8978 O   0  0  0  0  0  0  0  0  0  0  0  0
   12.8313  -17.6675   21.7103 O   0  0  0  0  0  0  0  0  0  0  0  0
  2 10  1  0
  2  1  1  1
  3  2  1  0
  4  3  1  0
  4  9  2  0
  5  4  1  0
  6  5  2  0
  6  7  1  0
  7  8  2  0
  8  9  1  0
 10 11  2  0
 13 12  1  6
 14 13  1  0
 15 13  1  0
 15 16  1  1
 16 10  1  0
 17 18  2  0
 17 15  1  0
 19 17  1  0
 20 21  1  1
 20 19  1  0
 21 22  1  0
 23 22  1  0
 23 24  1  0
 24 25  1  0
 26 27  1  0
 26 20  1  0
 28 26  2  0
M  END
$$$$
