FVK.pdb
     RDKit          3D

 28 28  0  0  1  0  0  0  0  0999 V2000
    5.7200  -17.3679   25.7912 N   0  0  0  0  0  0  0  0  0  0  0  0
    6.4086  -16.1847   25.3764 C   0  0  1  0  0  0  0  0  0  0  0  0
    7.1961  -15.6655   26.5643 C   0  0  0  0  0  0  0  0  0  0  0  0
    6.9274  -14.2041   26.6474 C   0  0  0  0  0  0  0  0  0  0  0  0
    7.9788  -13.3126   26.7205 C   0  0  0  0  0  0  0  0  0  0  0  0
    7.7640  -11.9423   26.7991 C   0  0  0  0  0  0  0  0  0  0  0  0
    6.4819  -11.4613   26.8044 C   0  0  0  0  0  0  0  0  0  0  0  0
    5.4358  -12.3541   26.7313 C   0  0  0  0  0  0  0  0  0  0  0  0
    5.6282  -13.7169   26.6527 C   0  0  0  0  0  0  0  0  0  0  0  0
    7.3109  -16.4427   24.2071 C   0  0  0  0  0  0  0  0  0  0  0  0
    7.8274  -17.5755   24.0867 O   0  0  0  0  0  0  0  0  0  0  0  0
    8.6834  -13.2936   21.6600 C   0  0  0  0  0  0  0  0  0  0  0  0
    8.0768  -14.5821   21.0680 C   0  0  2  0  0  0  0  0  0  0  0  0
    6.6422  -14.2833   20.8017 C   0  0  0  0  0  0  0  0  0  0  0  0
    8.3314  -15.7041   22.0456 C   0  0  2  0  0  0  0  0  0  0  0  0
    7.5685  -15.4233   23.2642 N   0  0  0  0  0  0  0  0  0  0  0  0
    9.7298  -15.9073   22.4153 C   0  0  0  0  0  0  0  0  0  0  0  0
   10.2919  -15.0691   23.1937 O   0  0  0  0  0  0  0  0  0  0  0  0
   10.5747  -16.9703   21.9969 N   0  0  0  0  0  0  0  0  0  0  0  0
   11.9499  -17.1074   22.3260 C   0  0  1  0  0  0  0  0  0  0  0  0
   12.3779  -18.4052   22.9022 C   0  0  0  0  0  0  0  0  0  0  0  0
   11.6860  -18.7259   24.2070 C   0  0  0  0  0  0  0  0  0  0  0  0
   12.0560  -20.0804   24.7170 C   0  0  0  0  0  0  0  0  0  0  0  0
   10.9964  -21.1269   24.4579 C   0  0  0  0  0  0  0  0  0  0  0  0
   11.4489  -22.4356   24.8357 N   0  0  0  0  0  0  0  0  0  0  0  0
   12.8934  -16.6971   21.2383 C   0  0  0  0  0  0  0  0  0  0  0  0
   14.2384  -16.6713   21.5145 O   0  0  0  0  0  0  0  0  0  0  0  0
   12.4729  -16.3912   20.1180 O   0  0  0  0  0  0  0  0  0  0  0  0
  2 10  1  0
  2  1  1  1
  3  2  1  0
  4  3  1  0
  4  9  2  0
  5  4  1  0
  6  5  2  0
  6  7  1  0
  7  8  2  0
  8  9  1  0
 10 11  2  0
 13 12  1  1
 14 13  1  0
 15 13  1  0
 15 16  1  1
 16 10  1  0
 17 18  2  0
 17 15  1  0
 19 17  1  0
 20 21  1  6
 20 19  1  0
 21 22  1  0
 23 22  1  0
 23 24  1  0
 24 25  1  0
 26 27  1  0
 26 20  1  0
 28 26  2  0
M  END
$$$$
