FVK.pdb
     RDKit          3D

 28 28  0  0  1  0  0  0  0  0999 V2000
    6.0834  -17.4018   25.7491 N   0  0  0  0  0  0  0  0  0  0  0  0
    6.6222  -16.1624   25.2807 C   0  0  1  0  0  0  0  0  0  0  0  0
    7.3676  -15.5154   26.4325 C   0  0  0  0  0  0  0  0  0  0  0  0
    6.9074  -14.1016   26.4971 C   0  0  0  0  0  0  0  0  0  0  0  0
    7.8142  -13.0732   26.3371 C   0  0  0  0  0  0  0  0  0  0  0  0
    7.4190  -11.7424   26.3915 C   0  0  0  0  0  0  0  0  0  0  0  0
    6.1011  -11.4401   26.6084 C   0  0  0  0  0  0  0  0  0  0  0  0
    5.1997  -12.4691   26.7675 C   0  0  0  0  0  0  0  0  0  0  0  0
    5.5720  -13.7955   26.7169 C   0  0  0  0  0  0  0  0  0  0  0  0
    7.5251  -16.3551   24.0993 C   0  0  0  0  0  0  0  0  0  0  0  0
    8.2385  -17.3814   24.0509 O   0  0  0  0  0  0  0  0  0  0  0  0
    8.1464  -13.2674   21.1708 C   0  0  0  0  0  0  0  0  0  0  0  0
    7.8211  -14.7207   20.7696 C   0  0  2  0  0  0  0  0  0  0  0  0
    6.3476  -14.7752   20.5593 C   0  0  0  0  0  0  0  0  0  0  0  0
    8.3522  -15.6286   21.8526 C   0  0  2  0  0  0  0  0  0  0  0  0
    7.5649  -15.3937   23.0655 N   0  0  0  0  0  0  0  0  0  0  0  0
    9.7647  -15.4530   22.1803 C   0  0  0  0  0  0  0  0  0  0  0  0
   10.0844  -14.6939   23.1530 O   0  0  0  0  0  0  0  0  0  0  0  0
   10.8720  -16.0509   21.5204 N   0  0  0  0  0  0  0  0  0  0  0  0
   11.9338  -16.7461   22.1589 C   0  0  1  0  0  0  0  0  0  0  0  0
   11.5604  -17.8581   23.0664 C   0  0  0  0  0  0  0  0  0  0  0  0
   12.7581  -18.5247   23.7032 C   0  0  0  0  0  0  0  0  0  0  0  0
   12.3587  -19.6464   24.6054 C   0  0  0  0  0  0  0  0  0  0  0  0
   13.5333  -20.3229   25.2744 C   0  0  0  0  0  0  0  0  0  0  0  0
   13.1030  -21.3783   26.1467 N   0  0  0  0  0  0  0  0  0  0  0  0
   13.0309  -17.1852   21.2398 C   0  0  0  0  0  0  0  0  0  0  0  0
   12.6887  -17.7686   20.0446 O   0  0  0  0  0  0  0  0  0  0  0  0
   14.2163  -17.0246   21.5475 O   0  0  0  0  0  0  0  0  0  0  0  0
  2 10  1  0
  2  1  1  1
  3  2  1  0
  4  3  1  0
  4  9  2  0
  5  4  1  0
  6  5  2  0
  6  7  1  0
  7  8  2  0
  8  9  1  0
 10 11  2  0
 13 12  1  1
 14 13  1  0
 15 13  1  0
 15 16  1  1
 16 10  1  0
 17 18  2  0
 17 15  1  0
 19 17  1  0
 20 21  1  6
 20 19  1  0
 21 22  1  0
 23 22  1  0
 23 24  1  0
 24 25  1  0
 26 27  1  0
 26 20  1  0
 28 26  2  0
M  END
$$$$
