MFI.pdb
     RDKit          3D

 28 28  0  0  1  0  0  0  0  0999 V2000
    6.5682  -21.8418   25.1392 C   0  0  0  0  0  0  0  0  0  0  0  0
    6.8686  -22.5255   23.4861 S   0  0  0  0  0  0  0  0  0  0  0  0
    7.1278  -21.1918   22.2715 C   0  0  0  0  0  0  0  0  0  0  0  0
    7.3889  -19.8728   22.9698 C   0  0  0  0  0  0  0  0  0  0  0  0
    7.6235  -18.8349   21.8961 C   0  0  2  0  0  0  0  0  0  0  0  0
    8.2852  -19.5202   20.8032 N   0  0  0  0  0  0  0  0  0  0  0  0
    8.4730  -17.7305   22.3439 C   0  0  0  0  0  0  0  0  0  0  0  0
    9.6843  -17.8936   22.5433 O   0  0  0  0  0  0  0  0  0  0  0  0
    7.9781  -16.4029   22.5809 N   0  0  0  0  0  0  0  0  0  0  0  0
    8.0819  -15.7029   23.8169 C   0  0  1  0  0  0  0  0  0  0  0  0
    6.8264  -15.2107   24.4152 C   0  0  0  0  0  0  0  0  0  0  0  0
    6.8018  -13.9571   25.1135 C   0  0  0  0  0  0  0  0  0  0  0  0
    7.7266  -12.9741   24.7447 C   0  0  0  0  0  0  0  0  0  0  0  0
    7.7980  -11.7414   25.3412 C   0  0  0  0  0  0  0  0  0  0  0  0
    6.9141  -11.4534   26.3569 C   0  0  0  0  0  0  0  0  0  0  0  0
    5.9748  -12.4131   26.7523 C   0  0  0  0  0  0  0  0  0  0  0  0
    5.9360  -13.6346   26.1301 C   0  0  0  0  0  0  0  0  0  0  0  0
    8.9966  -16.3697   24.7892 C   0  0  0  0  0  0  0  0  0  0  0  0
    9.7644  -17.2509   24.3272 O   0  0  0  0  0  0  0  0  0  0  0  0
   10.2624  -13.1091   29.0715 C   0  0  0  0  0  0  0  0  0  0  0  0
   10.4265  -13.9308   27.7952 C   0  0  0  0  0  0  0  0  0  0  0  0
   10.3135  -15.4041   28.1241 C   0  0  2  0  0  0  0  0  0  0  0  0
   11.4037  -15.8499   29.0400 C   0  0  0  0  0  0  0  0  0  0  0  0
   10.2451  -16.2893   26.9225 C   0  0  2  0  0  0  0  0  0  0  0  0
    9.0150  -16.0445   26.1549 N   0  0  0  0  0  0  0  0  0  0  0  0
   10.1883  -17.7025   27.3614 C   0  0  0  0  0  0  0  0  0  0  0  0
   11.3059  -18.4620   27.6996 O   0  0  0  0  0  0  0  0  0  0  0  0
    9.0731  -18.3246   27.4565 O   0  0  0  0  0  0  0  0  0  0  0  0
  2  1  1  0
  3  2  1  0
  4  3  1  0
  5  4  1  0
  5  6  1  6
  7  8  2  0
  7  5  1  0
  9  7  1  0
 10  9  1  0
 11 12  1  0
 10 11  1  1
 12 13  2  0
 13 14  1  0
 15 14  2  0
 16 15  1  0
 17 12  1  0
 17 16  2  0
 18 10  1  0
 18 19  2  0
 20 21  1  0
 21 22  1  0
 22 23  1  6
 24 22  1  0
 24 25  1  1
 25 18  1  0
 26 24  1  0
 27 26  1  0
 28 26  2  0
M  END
$$$$
