MFI.pdb
     RDKit          3D

 28 28  0  0  1  0  0  0  0  0999 V2000
   13.3242  -20.9511   21.8357 C   0  0  0  0  0  0  0  0  0  0  0  0
   11.7026  -21.3891   21.1508 S   0  0  0  0  0  0  0  0  0  0  0  0
   10.9415  -19.9556   20.3221 C   0  0  0  0  0  0  0  0  0  0  0  0
   11.4726  -18.6584   20.8973 C   0  0  0  0  0  0  0  0  0  0  0  0
   10.5457  -17.5535   20.4442 C   0  0  2  0  0  0  0  0  0  0  0  0
   11.2197  -16.8762   19.3539 N   0  0  0  0  0  0  0  0  0  0  0  0
   10.2578  -16.5801   21.4985 C   0  0  0  0  0  0  0  0  0  0  0  0
   11.0624  -15.6810   21.7779 O   0  0  0  0  0  0  0  0  0  0  0  0
    9.0475  -16.5925   22.2722 N   0  0  0  0  0  0  0  0  0  0  0  0
    8.7427  -15.6811   23.3233 C   0  0  1  0  0  0  0  0  0  0  0  0
    7.3364  -15.2543   23.4527 C   0  0  0  0  0  0  0  0  0  0  0  0
    6.9756  -14.2312   24.3922 C   0  0  0  0  0  0  0  0  0  0  0  0
    7.2104  -12.8969   24.0428 C   0  0  0  0  0  0  0  0  0  0  0  0
    6.9089  -11.8373   24.8592 C   0  0  0  0  0  0  0  0  0  0  0  0
    6.3452  -12.0973   26.0883 C   0  0  0  0  0  0  0  0  0  0  0  0
    6.0960  -13.4204   26.4713 C   0  0  0  0  0  0  0  0  0  0  0  0
    6.4122  -14.4525   25.6255 C   0  0  0  0  0  0  0  0  0  0  0  0
    9.3865  -16.0486   24.6183 C   0  0  0  0  0  0  0  0  0  0  0  0
    9.5236  -17.2761   24.8509 O   0  0  0  0  0  0  0  0  0  0  0  0
   10.7233  -14.0806   30.2648 C   0  0  0  0  0  0  0  0  0  0  0  0
   11.2189  -14.9203   29.0898 C   0  0  0  0  0  0  0  0  0  0  0  0
   10.4642  -14.5315   27.8365 C   0  0  2  0  0  0  0  0  0  0  0  0
    9.0380  -14.2060   28.1301 C   0  0  0  0  0  0  0  0  0  0  0  0
   10.5551  -15.5398   26.7377 C   0  0  2  0  0  0  0  0  0  0  0  0
    9.8244  -15.0883   25.5442 N   0  0  0  0  0  0  0  0  0  0  0  0
    9.9041  -16.7961   27.1746 C   0  0  0  0  0  0  0  0  0  0  0  0
    8.6966  -17.2691   26.6663 O   0  0  0  0  0  0  0  0  0  0  0  0
   10.4315  -17.5403   28.0734 O   0  0  0  0  0  0  0  0  0  0  0  0
  2  1  1  0
  3  2  1  0
  4  3  1  0
  5  4  1  0
  5  6  1  6
  7  8  2  0
  7  5  1  0
  9  7  1  0
 10  9  1  0
 11 12  1  0
 10 11  1  1
 12 13  2  0
 13 14  1  0
 15 14  2  0
 16 15  1  0
 17 12  1  0
 17 16  2  0
 18 10  1  0
 18 19  2  0
 20 21  1  0
 21 22  1  0
 22 23  1  1
 24 22  1  0
 24 25  1  6
 25 18  1  0
 26 24  1  0
 27 26  1  0
 28 26  2  0
M  END
$$$$
