MFI.pdb
     RDKit          3D

 28 28  0  0  1  0  0  0  0  0999 V2000
   12.3452  -21.7070   21.8768 C   0  0  0  0  0  0  0  0  0  0  0  0
   12.7980  -21.2183   20.1896 S   0  0  0  0  0  0  0  0  0  0  0  0
   11.8810  -19.7285   19.6792 C   0  0  0  0  0  0  0  0  0  0  0  0
   11.5204  -18.8813   20.8825 C   0  0  0  0  0  0  0  0  0  0  0  0
   10.6500  -17.7481   20.3892 C   0  0  2  0  0  0  0  0  0  0  0  0
   11.3867  -17.1025   19.3205 N   0  0  0  0  0  0  0  0  0  0  0  0
   10.3582  -16.7577   21.4264 C   0  0  0  0  0  0  0  0  0  0  0  0
   11.1367  -15.8225   21.6570 O   0  0  0  0  0  0  0  0  0  0  0  0
    9.1734  -16.7936   22.2380 N   0  0  0  0  0  0  0  0  0  0  0  0
    8.8628  -15.8609   23.2686 C   0  0  1  0  0  0  0  0  0  0  0  0
    7.4544  -15.4381   23.3869 C   0  0  0  0  0  0  0  0  0  0  0  0
    7.0785  -14.4376   24.3447 C   0  0  0  0  0  0  0  0  0  0  0  0
    7.5916  -13.1453   24.1900 C   0  0  0  0  0  0  0  0  0  0  0  0
    7.3040  -12.1106   25.0428 C   0  0  0  0  0  0  0  0  0  0  0  0
    6.4664  -12.3537   26.1082 C   0  0  0  0  0  0  0  0  0  0  0  0
    5.9343  -13.6350   26.2941 C   0  0  0  0  0  0  0  0  0  0  0  0
    6.2465  -14.6432   25.4184 C   0  0  0  0  0  0  0  0  0  0  0  0
    9.5067  -16.1968   24.5721 C   0  0  0  0  0  0  0  0  0  0  0  0
    9.5319  -17.4121   24.8913 O   0  0  0  0  0  0  0  0  0  0  0  0
   10.9202  -13.7216   30.0191 C   0  0  0  0  0  0  0  0  0  0  0  0
   11.1858  -14.8640   29.0415 C   0  0  0  0  0  0  0  0  0  0  0  0
   10.6386  -14.5002   27.6778 C   0  0  2  0  0  0  0  0  0  0  0  0
    9.2895  -13.8704   27.7749 C   0  0  0  0  0  0  0  0  0  0  0  0
   10.6160  -15.6390   26.7109 C   0  0  2  0  0  0  0  0  0  0  0  0
   10.0626  -15.2207   25.4143 N   0  0  0  0  0  0  0  0  0  0  0  0
    9.7170  -16.6971   27.2260 C   0  0  0  0  0  0  0  0  0  0  0  0
   10.1375  -17.7641   28.0165 O   0  0  0  0  0  0  0  0  0  0  0  0
    8.4636  -16.6901   26.9639 O   0  0  0  0  0  0  0  0  0  0  0  0
  2  1  1  0
  3  2  1  0
  4  3  1  0
  5  4  1  0
  5  6  1  6
  7  8  2  0
  7  5  1  0
  9  7  1  0
 10  9  1  0
 11 12  1  0
 10 11  1  1
 12 13  2  0
 13 14  1  0
 15 14  2  0
 16 15  1  0
 17 12  1  0
 17 16  2  0
 18 10  1  0
 18 19  2  0
 20 21  1  0
 21 22  1  0
 22 23  1  1
 24 22  1  0
 24 25  1  6
 25 18  1  0
 26 24  1  0
 27 26  1  0
 28 26  2  0
M  END
$$$$
