MFI.pdb
     RDKit          3D

 28 28  0  0  1  0  0  0  0  0999 V2000
    5.8707  -22.1164   25.8360 C   0  0  0  0  0  0  0  0  0  0  0  0
    6.8100  -22.7130   24.4035 S   0  0  0  0  0  0  0  0  0  0  0  0
    6.0223  -22.1844   22.8474 C   0  0  0  0  0  0  0  0  0  0  0  0
    6.2004  -20.6950   22.6342 C   0  0  0  0  0  0  0  0  0  0  0  0
    5.1958  -19.9915   23.5180 C   0  0  2  0  0  0  0  0  0  0  0  0
    3.8990  -20.1909   22.9014 N   0  0  0  0  0  0  0  0  0  0  0  0
    5.4460  -18.5544   23.6369 C   0  0  0  0  0  0  0  0  0  0  0  0
    5.1539  -17.7749   22.7199 O   0  0  0  0  0  0  0  0  0  0  0  0
    6.0359  -17.9516   24.7997 N   0  0  0  0  0  0  0  0  0  0  0  0
    6.4765  -16.5998   24.8824 C   0  0  1  0  0  0  0  0  0  0  0  0
    6.4597  -15.9704   26.2165 C   0  0  0  0  0  0  0  0  0  0  0  0
    6.7702  -14.5767   26.3617 C   0  0  0  0  0  0  0  0  0  0  0  0
    5.7110  -13.6677   26.4581 C   0  0  0  0  0  0  0  0  0  0  0  0
    5.8862  -12.3148   26.5975 C   0  0  0  0  0  0  0  0  0  0  0  0
    7.1712  -11.8224   26.6453 C   0  0  0  0  0  0  0  0  0  0  0  0
    8.2555  -12.7029   26.5518 C   0  0  0  0  0  0  0  0  0  0  0  0
    8.0378  -14.0498   26.4132 C   0  0  0  0  0  0  0  0  0  0  0  0
    7.7263  -16.3459   24.1077 C   0  0  0  0  0  0  0  0  0  0  0  0
    8.5467  -17.2952   24.0350 O   0  0  0  0  0  0  0  0  0  0  0  0
    7.5707  -11.8891   20.6095 C   0  0  0  0  0  0  0  0  0  0  0  0
    7.4659  -13.2809   21.2286 C   0  0  0  0  0  0  0  0  0  0  0  0
    8.8430  -13.7565   21.6398 C   0  0  2  0  0  0  0  0  0  0  0  0
    9.8019  -13.7231   20.4972 C   0  0  0  0  0  0  0  0  0  0  0  0
    8.8499  -15.1019   22.2894 C   0  0  2  0  0  0  0  0  0  0  0  0
    7.9924  -15.1166   23.4838 N   0  0  0  0  0  0  0  0  0  0  0  0
   10.2210  -15.4098   22.7568 C   0  0  0  0  0  0  0  0  0  0  0  0
   11.2573  -15.8226   21.9227 O   0  0  0  0  0  0  0  0  0  0  0  0
   10.5395  -15.3115   23.9932 O   0  0  0  0  0  0  0  0  0  0  0  0
  2  1  1  0
  3  2  1  0
  4  3  1  0
  5  4  1  0
  5  6  1  6
  7  8  2  0
  7  5  1  0
  9  7  1  0
 10  9  1  0
 11 12  1  0
 10 11  1  1
 12 13  2  0
 13 14  1  0
 15 14  2  0
 16 15  1  0
 17 12  1  0
 17 16  2  0
 18 10  1  0
 18 19  2  0
 20 21  1  0
 21 22  1  0
 22 23  1  6
 24 22  1  0
 24 25  1  1
 25 18  1  0
 26 24  1  0
 27 26  1  0
 28 26  2  0
M  END
$$$$
