MFI.pdb
     RDKit          3D

 28 28  0  0  1  0  0  0  0  0999 V2000
    7.9955  -21.5775   20.8940 C   0  0  0  0  0  0  0  0  0  0  0  0
    7.0387  -20.9341   19.4936 S   0  0  0  0  0  0  0  0  0  0  0  0
    6.9219  -19.1171   19.5699 C   0  0  0  0  0  0  0  0  0  0  0  0
    7.9346  -18.5544   20.5463 C   0  0  0  0  0  0  0  0  0  0  0  0
    7.6836  -17.0670   20.6462 C   0  0  2  0  0  0  0  0  0  0  0  0
    8.4687  -16.4488   19.5958 N   0  0  0  0  0  0  0  0  0  0  0  0
    8.0911  -16.5033   21.9338 C   0  0  0  0  0  0  0  0  0  0  0  0
    9.2644  -16.1672   22.1440 O   0  0  0  0  0  0  0  0  0  0  0  0
    7.1821  -16.3013   23.0277 N   0  0  0  0  0  0  0  0  0  0  0  0
    7.5610  -15.8855   24.3361 C   0  0  1  0  0  0  0  0  0  0  0  0
    6.5351  -15.1988   25.1439 C   0  0  0  0  0  0  0  0  0  0  0  0
    6.7838  -13.8833   25.6609 C   0  0  0  0  0  0  0  0  0  0  0  0
    5.6866  -13.0946   26.0234 C   0  0  0  0  0  0  0  0  0  0  0  0
    5.8020  -11.8240   26.5261 C   0  0  0  0  0  0  0  0  0  0  0  0
    7.0632  -11.2941   26.6833 C   0  0  0  0  0  0  0  0  0  0  0  0
    8.1842  -12.0548   26.3309 C   0  0  0  0  0  0  0  0  0  0  0  0
    8.0261  -13.3221   25.8314 C   0  0  0  0  0  0  0  0  0  0  0  0
    8.3212  -16.9304   25.0824 C   0  0  0  0  0  0  0  0  0  0  0  0
    7.7692  -18.0534   25.1987 O   0  0  0  0  0  0  0  0  0  0  0  0
   13.7778  -19.2402   25.1704 C   0  0  0  0  0  0  0  0  0  0  0  0
   12.5271  -19.0921   26.0335 C   0  0  0  0  0  0  0  0  0  0  0  0
   11.6756  -17.9599   25.5000 C   0  0  2  0  0  0  0  0  0  0  0  0
   12.4063  -16.6594   25.5284 C   0  0  0  0  0  0  0  0  0  0  0  0
   10.3493  -17.8297   26.1754 C   0  0  2  0  0  0  0  0  0  0  0  0
    9.5900  -16.6925   25.6344 N   0  0  0  0  0  0  0  0  0  0  0  0
   10.5609  -17.5435   27.6128 C   0  0  0  0  0  0  0  0  0  0  0  0
   11.1212  -18.4445   28.5153 O   0  0  0  0  0  0  0  0  0  0  0  0
   10.2291  -16.4165   28.1221 O   0  0  0  0  0  0  0  0  0  0  0  0
  2  1  1  0
  3  2  1  0
  4  3  1  0
  5  4  1  0
  5  6  1  6
  7  8  2  0
  7  5  1  0
  9  7  1  0
 10  9  1  0
 11 12  1  0
 10 11  1  1
 12 13  2  0
 13 14  1  0
 15 14  2  0
 16 15  1  0
 17 12  1  0
 17 16  2  0
 18 10  1  0
 18 19  2  0
 20 21  1  0
 21 22  1  0
 22 23  1  1
 24 22  1  0
 24 25  1  6
 25 18  1  0
 26 24  1  0
 27 26  1  0
 28 26  2  0
M  END
$$$$
