MFI.pdb
     RDKit          3D

 28 28  0  0  1  0  0  0  0  0999 V2000
   11.6617  -21.5122   22.2228 C   0  0  0  0  0  0  0  0  0  0  0  0
   12.4065  -21.2021   20.5981 S   0  0  0  0  0  0  0  0  0  0  0  0
   11.7813  -19.6454   19.8861 C   0  0  0  0  0  0  0  0  0  0  0  0
   11.7840  -18.5411   20.9235 C   0  0  0  0  0  0  0  0  0  0  0  0
   10.7339  -17.5350   20.5110 C   0  0  2  0  0  0  0  0  0  0  0  0
   11.2916  -16.7967   19.3950 N   0  0  0  0  0  0  0  0  0  0  0  0
   10.3945  -16.5924   21.5779 C   0  0  0  0  0  0  0  0  0  0  0  0
   11.1925  -15.7161   21.9369 O   0  0  0  0  0  0  0  0  0  0  0  0
    9.1383  -16.6111   22.2745 N   0  0  0  0  0  0  0  0  0  0  0  0
    8.8245  -15.8119   23.4109 C   0  0  1  0  0  0  0  0  0  0  0  0
    7.4396  -15.3147   23.5180 C   0  0  0  0  0  0  0  0  0  0  0  0
    7.0846  -14.3825   24.5498 C   0  0  0  0  0  0  0  0  0  0  0  0
    7.5371  -13.0634   24.4365 C   0  0  0  0  0  0  0  0  0  0  0  0
    7.2625  -12.0880   25.3603 C   0  0  0  0  0  0  0  0  0  0  0  0
    6.5015  -12.4216   26.4583 C   0  0  0  0  0  0  0  0  0  0  0  0
    6.0316  -13.7321   26.6045 C   0  0  0  0  0  0  0  0  0  0  0  0
    6.3284  -14.6788   25.6578 C   0  0  0  0  0  0  0  0  0  0  0  0
    9.3688  -16.3693   24.6835 C   0  0  0  0  0  0  0  0  0  0  0  0
    9.6578  -17.5924   24.6848 O   0  0  0  0  0  0  0  0  0  0  0  0
   10.2341  -12.9348   29.0238 C   0  0  0  0  0  0  0  0  0  0  0  0
   10.6488  -13.8489   27.8733 C   0  0  0  0  0  0  0  0  0  0  0  0
   10.2048  -15.2658   28.1678 C   0  0  2  0  0  0  0  0  0  0  0  0
   10.9607  -15.8541   29.3118 C   0  0  0  0  0  0  0  0  0  0  0  0
   10.2568  -16.1752   26.9835 C   0  0  2  0  0  0  0  0  0  0  0  0
    9.5569  -15.5851   25.8328 N   0  0  0  0  0  0  0  0  0  0  0  0
    9.5447  -17.4333   27.3041 C   0  0  0  0  0  0  0  0  0  0  0  0
   10.1461  -18.5452   27.8891 O   0  0  0  0  0  0  0  0  0  0  0  0
    8.2970  -17.5736   27.0524 O   0  0  0  0  0  0  0  0  0  0  0  0
  2  1  1  0
  3  2  1  0
  4  3  1  0
  5  4  1  0
  5  6  1  6
  7  8  2  0
  7  5  1  0
  9  7  1  0
 10  9  1  0
 11 12  1  0
 10 11  1  1
 12 13  2  0
 13 14  1  0
 15 14  2  0
 16 15  1  0
 17 12  1  0
 17 16  2  0
 18 10  1  0
 18 19  2  0
 20 21  1  0
 21 22  1  0
 22 23  1  1
 24 22  1  0
 24 25  1  6
 25 18  1  0
 26 24  1  0
 27 26  1  0
 28 26  2  0
M  END
$$$$
