MFI.pdb
     RDKit          3D

 28 28  0  0  1  0  0  0  0  0999 V2000
   12.0246  -22.0758   21.6107 C   0  0  0  0  0  0  0  0  0  0  0  0
   12.5622  -21.2258   20.1011 S   0  0  0  0  0  0  0  0  0  0  0  0
   11.3979  -19.8957   19.6579 C   0  0  0  0  0  0  0  0  0  0  0  0
   11.2975  -18.8759   20.7739 C   0  0  0  0  0  0  0  0  0  0  0  0
   10.2694  -17.8503   20.3539 C   0  0  2  0  0  0  0  0  0  0  0  0
   10.8045  -17.1934   19.1776 N   0  0  0  0  0  0  0  0  0  0  0  0
   10.0144  -16.8414   21.3830 C   0  0  0  0  0  0  0  0  0  0  0  0
   10.7114  -15.8211   21.4670 O   0  0  0  0  0  0  0  0  0  0  0  0
    8.9602  -16.9545   22.3522 N   0  0  0  0  0  0  0  0  0  0  0  0
    8.7215  -16.0296   23.4086 C   0  0  1  0  0  0  0  0  0  0  0  0
    7.3591  -15.4743   23.5174 C   0  0  0  0  0  0  0  0  0  0  0  0
    7.0773  -14.4316   24.4625 C   0  0  0  0  0  0  0  0  0  0  0  0
    7.5417  -13.1414   24.1848 C   0  0  0  0  0  0  0  0  0  0  0  0
    7.3346  -12.0687   25.0136 C   0  0  0  0  0  0  0  0  0  0  0  0
    6.6329  -12.2693   26.1813 C   0  0  0  0  0  0  0  0  0  0  0  0
    6.1532  -13.5472   26.4916 C   0  0  0  0  0  0  0  0  0  0  0  0
    6.3815  -14.5942   25.6358 C   0  0  0  0  0  0  0  0  0  0  0  0
    9.3029  -16.4694   24.7106 C   0  0  0  0  0  0  0  0  0  0  0  0
    9.1884  -17.6881   24.9957 O   0  0  0  0  0  0  0  0  0  0  0  0
   10.0542  -13.5724   29.6197 C   0  0  0  0  0  0  0  0  0  0  0  0
    9.6843  -14.7224   28.6860 C   0  0  0  0  0  0  0  0  0  0  0  0
   10.8612  -15.0453   27.7904 C   0  0  2  0  0  0  0  0  0  0  0  0
   11.3841  -13.8269   27.1062 C   0  0  0  0  0  0  0  0  0  0  0  0
   10.5869  -16.1264   26.7963 C   0  0  2  0  0  0  0  0  0  0  0  0
    9.9492  -15.5837   25.5875 N   0  0  0  0  0  0  0  0  0  0  0  0
    9.6248  -17.0902   27.3782 C   0  0  0  0  0  0  0  0  0  0  0  0
    9.9680  -18.0806   28.2954 O   0  0  0  0  0  0  0  0  0  0  0  0
    8.3848  -17.0662   27.0593 O   0  0  0  0  0  0  0  0  0  0  0  0
  2  1  1  0
  3  2  1  0
  4  3  1  0
  5  4  1  0
  5  6  1  6
  7  8  2  0
  7  5  1  0
  9  7  1  0
 10  9  1  0
 11 12  1  0
 10 11  1  1
 12 13  2  0
 13 14  1  0
 15 14  2  0
 16 15  1  0
 17 12  1  0
 17 16  2  0
 18 10  1  0
 18 19  2  0
 20 21  1  0
 21 22  1  0
 22 23  1  6
 24 22  1  0
 24 25  1  6
 25 18  1  0
 26 24  1  0
 27 26  1  0
 28 26  2  0
M  END
$$$$
