MFI.pdb
     RDKit          3D

 28 28  0  0  1  0  0  0  0  0999 V2000
   13.5047  -21.1219   21.9177 C   0  0  0  0  0  0  0  0  0  0  0  0
   13.5781  -20.5481   20.1983 S   0  0  0  0  0  0  0  0  0  0  0  0
   12.1730  -19.4505   19.8219 C   0  0  0  0  0  0  0  0  0  0  0  0
   12.0393  -18.3689   20.8744 C   0  0  0  0  0  0  0  0  0  0  0  0
   10.7969  -17.5731   20.5453 C   0  0  2  0  0  0  0  0  0  0  0  0
   11.1008  -16.8190   19.3450 N   0  0  0  0  0  0  0  0  0  0  0  0
   10.4184  -16.6388   21.6063 C   0  0  0  0  0  0  0  0  0  0  0  0
   11.1859  -15.7379   21.9712 O   0  0  0  0  0  0  0  0  0  0  0  0
    9.1563  -16.6938   22.2902 N   0  0  0  0  0  0  0  0  0  0  0  0
    8.7933  -15.8759   23.3982 C   0  0  1  0  0  0  0  0  0  0  0  0
    7.3986  -15.3976   23.4490 C   0  0  0  0  0  0  0  0  0  0  0  0
    6.9973  -14.4452   24.4448 C   0  0  0  0  0  0  0  0  0  0  0  0
    7.3624  -13.1062   24.2674 C   0  0  0  0  0  0  0  0  0  0  0  0
    7.0371  -12.1104   25.1523 C   0  0  0  0  0  0  0  0  0  0  0  0
    6.3132  -12.4430   26.2753 C   0  0  0  0  0  0  0  0  0  0  0  0
    5.9307  -13.7731   26.4854 C   0  0  0  0  0  0  0  0  0  0  0  0
    6.2759  -14.7399   25.5762 C   0  0  0  0  0  0  0  0  0  0  0  0
    9.3031  -16.3981   24.6998 C   0  0  0  0  0  0  0  0  0  0  0  0
    9.2923  -17.6459   24.8492 O   0  0  0  0  0  0  0  0  0  0  0  0
   10.8020  -12.8910   28.8849 C   0  0  0  0  0  0  0  0  0  0  0  0
   10.9687  -13.8465   27.7057 C   0  0  0  0  0  0  0  0  0  0  0  0
   10.3788  -15.1948   28.0600 C   0  0  2  0  0  0  0  0  0  0  0  0
   11.0512  -15.7959   29.2485 C   0  0  0  0  0  0  0  0  0  0  0  0
   10.3594  -16.1647   26.9237 C   0  0  2  0  0  0  0  0  0  0  0  0
    9.7755  -15.5561   25.7191 N   0  0  0  0  0  0  0  0  0  0  0  0
    9.4892  -17.3099   27.2759 C   0  0  0  0  0  0  0  0  0  0  0  0
    8.1153  -17.3468   27.0496 O   0  0  0  0  0  0  0  0  0  0  0  0
    9.9666  -18.3629   27.8264 O   0  0  0  0  0  0  0  0  0  0  0  0
  2  1  1  0
  3  2  1  0
  4  3  1  0
  5  4  1  0
  5  6  1  6
  7  8  2  0
  7  5  1  0
  9  7  1  0
 10  9  1  0
 11 12  1  0
 10 11  1  1
 12 13  2  0
 13 14  1  0
 15 14  2  0
 16 15  1  0
 17 12  1  0
 17 16  2  0
 18 10  1  0
 18 19  2  0
 20 21  1  0
 21 22  1  0
 22 23  1  1
 24 22  1  0
 24 25  1  6
 25 18  1  0
 26 24  1  0
 27 26  1  0
 28 26  2  0
M  END
$$$$
