MFI.pdb
     RDKit          3D

 28 28  0  0  1  0  0  0  0  0999 V2000
    7.3298  -21.6827   21.9430 C   0  0  0  0  0  0  0  0  0  0  0  0
    8.1162  -21.5761   20.3118 S   0  0  0  0  0  0  0  0  0  0  0  0
    8.3075  -19.8381   19.7980 C   0  0  0  0  0  0  0  0  0  0  0  0
    8.6880  -18.9678   20.9785 C   0  0  0  0  0  0  0  0  0  0  0  0
    8.7180  -17.5374   20.4906 C   0  0  2  0  0  0  0  0  0  0  0  0
    9.7434  -17.4761   19.4676 N   0  0  0  0  0  0  0  0  0  0  0  0
    9.0475  -16.5795   21.5469 C   0  0  0  0  0  0  0  0  0  0  0  0
   10.2234  -16.3517   21.8617 O   0  0  0  0  0  0  0  0  0  0  0  0
    8.0548  -15.8469   22.2828 N   0  0  0  0  0  0  0  0  0  0  0  0
    8.2938  -15.1478   23.5004 C   0  0  1  0  0  0  0  0  0  0  0  0
    7.3147  -14.1121   23.8812 C   0  0  0  0  0  0  0  0  0  0  0  0
    7.4708  -13.3873   25.1100 C   0  0  0  0  0  0  0  0  0  0  0  0
    6.4696  -13.5034   26.0804 C   0  0  0  0  0  0  0  0  0  0  0  0
    6.5100  -12.8574   27.2894 C   0  0  0  0  0  0  0  0  0  0  0  0
    7.5918  -12.0514   27.5652 C   0  0  0  0  0  0  0  0  0  0  0  0
    8.6124  -11.9116   26.6175 C   0  0  0  0  0  0  0  0  0  0  0  0
    8.5345  -12.5750   25.4198 C   0  0  0  0  0  0  0  0  0  0  0  0
    8.6904  -16.0490   24.6216 C   0  0  0  0  0  0  0  0  0  0  0  0
    7.8547  -16.9227   24.9647 O   0  0  0  0  0  0  0  0  0  0  0  0
   13.4069  -18.4125   24.4579 C   0  0  0  0  0  0  0  0  0  0  0  0
   11.9380  -18.0265   24.6146 C   0  0  0  0  0  0  0  0  0  0  0  0
   11.7105  -17.4531   25.9970 C   0  0  2  0  0  0  0  0  0  0  0  0
   12.1348  -18.4044   27.0653 C   0  0  0  0  0  0  0  0  0  0  0  0
   10.3111  -16.9876   26.2367 C   0  0  2  0  0  0  0  0  0  0  0  0
    9.9292  -15.9438   25.2740 N   0  0  0  0  0  0  0  0  0  0  0  0
   10.2274  -16.3677   27.5789 C   0  0  0  0  0  0  0  0  0  0  0  0
   10.0426  -17.0821   28.7602 O   0  0  0  0  0  0  0  0  0  0  0  0
   10.3223  -15.0999   27.7326 O   0  0  0  0  0  0  0  0  0  0  0  0
  2  1  1  0
  3  2  1  0
  4  3  1  0
  5  4  1  0
  5  6  1  6
  7  8  2  0
  7  5  1  0
  9  7  1  0
 10  9  1  0
 11 12  1  0
 10 11  1  1
 12 13  2  0
 13 14  1  0
 15 14  2  0
 16 15  1  0
 17 12  1  0
 17 16  2  0
 18 10  1  0
 18 19  2  0
 20 21  1  0
 21 22  1  0
 22 23  1  1
 24 22  1  0
 24 25  1  6
 25 18  1  0
 26 24  1  0
 27 26  1  0
 28 26  2  0
M  END
$$$$
