MFI.pdb
     RDKit          3D

 28 28  0  0  1  0  0  0  0  0999 V2000
    2.0108  -19.6631   19.3493 C   0  0  0  0  0  0  0  0  0  0  0  0
    1.2898  -20.2898   20.8914 S   0  0  0  0  0  0  0  0  0  0  0  0
    2.3583  -19.8934   22.3134 C   0  0  0  0  0  0  0  0  0  0  0  0
    3.3908  -18.8510   21.9352 C   0  0  0  0  0  0  0  0  0  0  0  0
    4.6965  -19.2579   22.5793 C   0  0  2  0  0  0  0  0  0  0  0  0
    4.3484  -19.9953   23.7779 N   0  0  0  0  0  0  0  0  0  0  0  0
    5.5302  -18.1149   22.9538 C   0  0  0  0  0  0  0  0  0  0  0  0
    6.0588  -17.3977   22.0935 O   0  0  0  0  0  0  0  0  0  0  0  0
    5.7933  -17.7455   24.3169 N   0  0  0  0  0  0  0  0  0  0  0  0
    6.6414  -16.6756   24.7223 C   0  0  1  0  0  0  0  0  0  0  0  0
    6.2451  -15.9280   25.9308 C   0  0  0  0  0  0  0  0  0  0  0  0
    6.9318  -14.7202   26.2907 C   0  0  0  0  0  0  0  0  0  0  0  0
    6.3711  -13.4981   25.9042 C   0  0  0  0  0  0  0  0  0  0  0  0
    6.9376  -12.2824   26.1898 C   0  0  0  0  0  0  0  0  0  0  0  0
    8.1207  -12.2606   26.8939 C   0  0  0  0  0  0  0  0  0  0  0  0
    8.7104  -13.4643   27.2970 C   0  0  0  0  0  0  0  0  0  0  0  0
    8.1118  -14.6598   26.9915 C   0  0  0  0  0  0  0  0  0  0  0  0
    8.0900  -17.0309   24.6768 C   0  0  0  0  0  0  0  0  0  0  0  0
    8.4119  -18.1464   25.1581 O   0  0  0  0  0  0  0  0  0  0  0  0
   12.2678  -16.1121   20.4558 C   0  0  0  0  0  0  0  0  0  0  0  0
   11.8357  -16.8950   21.6934 C   0  0  0  0  0  0  0  0  0  0  0  0
   10.9062  -16.0434   22.5316 C   0  0  2  0  0  0  0  0  0  0  0  0
   11.5462  -14.7555   22.9288 C   0  0  0  0  0  0  0  0  0  0  0  0
   10.3570  -16.7462   23.7302 C   0  0  2  0  0  0  0  0  0  0  0  0
    9.0608  -16.1775   24.1285 N   0  0  0  0  0  0  0  0  0  0  0  0
   11.2720  -16.5414   24.8764 C   0  0  0  0  0  0  0  0  0  0  0  0
   10.9486  -15.8046   26.0134 O   0  0  0  0  0  0  0  0  0  0  0  0
   12.4491  -17.0456   24.8856 O   0  0  0  0  0  0  0  0  0  0  0  0
  2  1  1  0
  3  2  1  0
  4  3  1  0
  5  4  1  0
  5  6  1  1
  7  8  2  0
  7  5  1  0
  9  7  1  0
 10  9  1  0
 11 12  1  0
 10 11  1  1
 12 13  2  0
 13 14  1  0
 15 14  2  0
 16 15  1  0
 17 12  1  0
 17 16  2  0
 18 10  1  0
 18 19  2  0
 20 21  1  0
 21 22  1  0
 22 23  1  1
 24 22  1  0
 24 25  1  1
 25 18  1  0
 26 24  1  0
 27 26  1  0
 28 26  2  0
M  END
$$$$
