MFI.pdb
     RDKit          3D

 28 28  0  0  1  0  0  0  0  0999 V2000
    8.6105  -12.2811   18.4418 C   0  0  0  0  0  0  0  0  0  0  0  0
    8.3362  -13.6919   17.3350 S   0  0  0  0  0  0  0  0  0  0  0  0
    9.2355  -15.1626   17.9261 C   0  0  0  0  0  0  0  0  0  0  0  0
   10.1392  -14.8080   19.0893 C   0  0  0  0  0  0  0  0  0  0  0  0
   10.1544  -15.9956   20.0244 C   0  0  2  0  0  0  0  0  0  0  0  0
    9.0260  -16.8251   19.6497 N   0  0  0  0  0  0  0  0  0  0  0  0
   10.0156  -15.6176   21.4315 C   0  0  0  0  0  0  0  0  0  0  0  0
   10.8919  -14.9590   22.0078 O   0  0  0  0  0  0  0  0  0  0  0  0
    8.8782  -15.9733   22.2336 N   0  0  0  0  0  0  0  0  0  0  0  0
    8.5653  -15.4053   23.5016 C   0  0  1  0  0  0  0  0  0  0  0  0
    7.1576  -15.0336   23.7399 C   0  0  0  0  0  0  0  0  0  0  0  0
    6.8164  -14.1501   24.8181 C   0  0  0  0  0  0  0  0  0  0  0  0
    7.1342  -12.7936   24.6901 C   0  0  0  0  0  0  0  0  0  0  0  0
    6.8587  -11.8582   25.6543 C   0  0  0  0  0  0  0  0  0  0  0  0
    6.2364  -12.2733   26.8103 C   0  0  0  0  0  0  0  0  0  0  0  0
    5.9036  -13.6232   26.9728 C   0  0  0  0  0  0  0  0  0  0  0  0
    6.1963  -14.5277   25.9844 C   0  0  0  0  0  0  0  0  0  0  0  0
    9.2014  -16.1324   24.6388 C   0  0  0  0  0  0  0  0  0  0  0  0
    9.6329  -17.2879   24.3978 O   0  0  0  0  0  0  0  0  0  0  0  0
   10.2091  -13.2808   29.3208 C   0  0  0  0  0  0  0  0  0  0  0  0
   10.5412  -14.0294   28.0321 C   0  0  0  0  0  0  0  0  0  0  0  0
   10.2056  -15.4962   28.1985 C   0  0  2  0  0  0  0  0  0  0  0  0
   11.1184  -16.1638   29.1718 C   0  0  0  0  0  0  0  0  0  0  0  0
   10.1639  -16.2573   26.9135 C   0  0  2  0  0  0  0  0  0  0  0  0
    9.3223  -15.5729   25.9208 N   0  0  0  0  0  0  0  0  0  0  0  0
    9.5384  -17.5785   27.1503 C   0  0  0  0  0  0  0  0  0  0  0  0
   10.2475  -18.7325   27.4755 O   0  0  0  0  0  0  0  0  0  0  0  0
    8.2708  -17.7386   27.0656 O   0  0  0  0  0  0  0  0  0  0  0  0
  2  1  1  0
  3  2  1  0
  4  3  1  0
  5  4  1  0
  5  6  1  6
  7  8  2  0
  7  5  1  0
  9  7  1  0
 10  9  1  0
 11 12  1  0
 10 11  1  1
 12 13  2  0
 13 14  1  0
 15 14  2  0
 16 15  1  0
 17 12  1  0
 17 16  2  0
 18 10  1  0
 18 19  2  0
 20 21  1  0
 21 22  1  0
 22 23  1  1
 24 22  1  0
 24 25  1  6
 25 18  1  0
 26 24  1  0
 27 26  1  0
 28 26  2  0
M  END
$$$$
