MFI.pdb
     RDKit          3D

 28 28  0  0  1  0  0  0  0  0999 V2000
   12.7063  -21.0132   22.0560 C   0  0  0  0  0  0  0  0  0  0  0  0
   12.4824  -21.0292   20.2560 S   0  0  0  0  0  0  0  0  0  0  0  0
   11.3256  -19.7206   19.7361 C   0  0  0  0  0  0  0  0  0  0  0  0
   11.5509  -18.4549   20.5379 C   0  0  0  0  0  0  0  0  0  0  0  0
   10.5141  -17.4497   20.0910 C   0  0  2  0  0  0  0  0  0  0  0  0
   11.0679  -16.7799   18.9307 N   0  0  0  0  0  0  0  0  0  0  0  0
   10.2104  -16.4480   21.1139 C   0  0  0  0  0  0  0  0  0  0  0  0
   10.9155  -15.4393   21.2526 O   0  0  0  0  0  0  0  0  0  0  0  0
    9.0966  -16.5555   22.0147 N   0  0  0  0  0  0  0  0  0  0  0  0
    8.8119  -15.6439   23.0713 C   0  0  1  0  0  0  0  0  0  0  0  0
    7.4458  -15.0898   23.1277 C   0  0  0  0  0  0  0  0  0  0  0  0
    7.0984  -14.1253   24.1322 C   0  0  0  0  0  0  0  0  0  0  0  0
    6.4404  -14.5735   25.2827 C   0  0  0  0  0  0  0  0  0  0  0  0
    6.0584  -13.7448   26.3064 C   0  0  0  0  0  0  0  0  0  0  0  0
    6.3360  -12.4004   26.1987 C   0  0  0  0  0  0  0  0  0  0  0  0
    6.9932  -11.9165   25.0615 C   0  0  0  0  0  0  0  0  0  0  0  0
    7.3587  -12.7784   24.0594 C   0  0  0  0  0  0  0  0  0  0  0  0
    9.3363  -16.1001   24.3917 C   0  0  0  0  0  0  0  0  0  0  0  0
    9.5611  -17.3306   24.5139 O   0  0  0  0  0  0  0  0  0  0  0  0
   10.8551  -14.1406   30.0785 C   0  0  0  0  0  0  0  0  0  0  0  0
   11.1380  -15.1101   28.9334 C   0  0  0  0  0  0  0  0  0  0  0  0
   10.3764  -14.6727   27.7004 C   0  0  2  0  0  0  0  0  0  0  0  0
    8.9914  -14.2305   28.0358 C   0  0  0  0  0  0  0  0  0  0  0  0
   10.3499  -15.6945   26.6108 C   0  0  2  0  0  0  0  0  0  0  0  0
    9.5740  -15.2167   25.4568 N   0  0  0  0  0  0  0  0  0  0  0  0
    9.6621  -16.9110   27.1007 C   0  0  0  0  0  0  0  0  0  0  0  0
    8.4348  -17.3624   26.6210 O   0  0  0  0  0  0  0  0  0  0  0  0
   10.1734  -17.6379   28.0227 O   0  0  0  0  0  0  0  0  0  0  0  0
  2  1  1  0
  3  2  1  0
  4  3  1  0
  5  4  1  0
  5  6  1  6
  7  8  2  0
  7  5  1  0
  9  7  1  0
 10  9  1  0
 11 12  1  0
 10 11  1  1
 12 13  2  0
 13 14  1  0
 15 14  2  0
 16 15  1  0
 17 12  1  0
 17 16  2  0
 18 10  1  0
 18 19  2  0
 20 21  1  0
 21 22  1  0
 22 23  1  1
 24 22  1  0
 24 25  1  6
 25 18  1  0
 26 24  1  0
 27 26  1  0
 28 26  2  0
M  END
$$$$
