MFI.pdb
     RDKit          3D

 28 28  0  0  1  0  0  0  0  0999 V2000
    7.3293  -13.0355   18.5173 C   0  0  0  0  0  0  0  0  0  0  0  0
    8.9696  -12.9491   17.7475 S   0  0  0  0  0  0  0  0  0  0  0  0
    9.8169  -14.5594   17.8474 C   0  0  0  0  0  0  0  0  0  0  0  0
    8.9011  -15.6125   18.4373 C   0  0  0  0  0  0  0  0  0  0  0  0
    9.6293  -16.2375   19.6053 C   0  0  2  0  0  0  0  0  0  0  0  0
    9.1034  -17.5814   19.7429 N   0  0  0  0  0  0  0  0  0  0  0  0
    9.4190  -15.5175   20.8620 C   0  0  0  0  0  0  0  0  0  0  0  0
    9.6925  -14.3140   20.9649 O   0  0  0  0  0  0  0  0  0  0  0  0
    8.8912  -16.1374   22.0455 N   0  0  0  0  0  0  0  0  0  0  0  0
    8.5964  -15.4554   23.2606 C   0  0  1  0  0  0  0  0  0  0  0  0
    7.1792  -15.1434   23.5266 C   0  0  0  0  0  0  0  0  0  0  0  0
    6.8203  -14.2982   24.6295 C   0  0  0  0  0  0  0  0  0  0  0  0
    6.1351  -14.8694   25.7074 C   0  0  0  0  0  0  0  0  0  0  0  0
    5.7400  -14.1609   26.8130 C   0  0  0  0  0  0  0  0  0  0  0  0
    6.0318  -12.8163   26.8677 C   0  0  0  0  0  0  0  0  0  0  0  0
    6.7162  -12.2112   25.8072 C   0  0  0  0  0  0  0  0  0  0  0  0
    7.0941  -12.9550   24.7188 C   0  0  0  0  0  0  0  0  0  0  0  0
    9.3245  -16.0173   24.4357 C   0  0  0  0  0  0  0  0  0  0  0  0
    9.8764  -17.1349   24.2747 O   0  0  0  0  0  0  0  0  0  0  0  0
   11.4332  -14.2006   29.9792 C   0  0  0  0  0  0  0  0  0  0  0  0
   11.5547  -15.1724   28.8078 C   0  0  0  0  0  0  0  0  0  0  0  0
   10.6271  -14.7388   27.6927 C   0  0  2  0  0  0  0  0  0  0  0  0
    9.3195  -14.2520   28.2210 C   0  0  0  0  0  0  0  0  0  0  0  0
   10.4123  -15.7812   26.6441 C   0  0  2  0  0  0  0  0  0  0  0  0
    9.4018  -15.3482   25.6676 N   0  0  0  0  0  0  0  0  0  0  0  0
    9.8795  -17.0082   27.2792 C   0  0  0  0  0  0  0  0  0  0  0  0
    8.6067  -17.5220   27.0424 O   0  0  0  0  0  0  0  0  0  0  0  0
   10.5814  -17.6859   28.1086 O   0  0  0  0  0  0  0  0  0  0  0  0
  2  1  1  0
  3  2  1  0
  4  3  1  0
  5  4  1  0
  5  6  1  1
  7  8  2  0
  7  5  1  0
  9  7  1  0
 10  9  1  0
 11 12  1  0
 10 11  1  1
 12 13  2  0
 13 14  1  0
 15 14  2  0
 16 15  1  0
 17 12  1  0
 17 16  2  0
 18 10  1  0
 18 19  2  0
 20 21  1  0
 21 22  1  0
 22 23  1  1
 24 22  1  0
 24 25  1  6
 25 18  1  0
 26 24  1  0
 27 26  1  0
 28 26  2  0
M  END
$$$$
