NGT.pdb
     RDKit          3D

 20 19  0  0  1  0  0  0  0  0999 V2000
   17.6898  -23.4702  -12.7966 N   0  0  0  0  0  0  0  0  0  0  0  0
   17.9890  -22.1557  -13.2236 C   0  0  0  0  0  0  0  0  0  0  0  0
   17.0193  -21.3858  -13.4453 O   0  0  0  0  0  0  0  0  0  0  0  0
   19.4162  -21.7091  -13.4018 C   0  0  0  0  0  0  0  0  0  0  0  0
   19.6186  -21.2366  -14.8473 C   0  0  2  0  0  0  0  0  0  0  0  0
   19.8275  -22.4384  -15.6326 N   0  0  0  0  0  0  0  0  0  0  0  0
   20.8755  -20.4054  -14.8246 C   0  0  0  0  0  0  0  0  0  0  0  0
   22.0142  -20.9465  -14.7270 O   0  0  0  0  0  0  0  0  0  0  0  0
   20.8302  -18.9956  -14.9111 N   0  0  0  0  0  0  0  0  0  0  0  0
   22.0541  -18.2271  -14.9387 C   0  0  0  0  0  0  0  0  0  0  0  0
   21.8324  -16.7845  -14.9610 C   0  0  0  0  0  0  0  0  0  0  0  0
   21.0197  -16.2589  -14.1770 O   0  0  0  0  0  0  0  0  0  0  0  0
   24.3776  -14.0577  -14.4007 C   0  0  0  0  0  0  0  0  0  0  0  0
   23.7642  -13.8452  -15.7314 C   0  0  1  0  0  0  0  0  0  0  0  0
   24.6079  -14.2559  -16.7684 O   0  0  0  0  0  0  0  0  0  0  0  0
   22.4397  -14.5359  -15.9269 C   0  0  2  0  0  0  0  0  0  0  0  0
   22.5323  -15.9619  -15.8681 N   0  0  0  0  0  0  0  0  0  0  0  0
   21.7364  -14.0888  -17.1436 C   0  0  0  0  0  0  0  0  0  0  0  0
   21.2968  -12.7937  -17.3346 O   0  0  0  0  0  0  0  0  0  0  0  0
   21.5192  -14.9131  -18.0593 O   0  0  0  0  0  0  0  0  0  0  0  0
  2  1  1  0
  3  2  2  0
  4  2  1  0
  5  6  1  6
  5  4  1  0
  7  5  1  0
  8  7  2  0
  9  7  1  0
 10  9  1  0
 11 10  1  0
 11 17  1  0
 12 11  2  0
 14 13  1  1
 14 16  1  0
 15 14  1  0
 16 17  1  6
 16 18  1  0
 18 20  2  0
 18 19  1  0
M  END
$$$$
