NGT.pdb
     RDKit          3D

 20 19  0  0  1  0  0  0  0  0999 V2000
   16.7762  -12.9192  -18.6539 N   0  0  0  0  0  0  0  0  0  0  0  0
   16.4489  -13.1458  -17.2970 C   0  0  0  0  0  0  0  0  0  0  0  0
   15.3985  -13.7947  -17.0568 O   0  0  0  0  0  0  0  0  0  0  0  0
   17.3321  -12.6253  -16.1937 C   0  0  0  0  0  0  0  0  0  0  0  0
   18.4676  -11.7960  -16.8075 C   0  0  2  0  0  0  0  0  0  0  0  0
   19.6722  -12.5869  -16.6408 N   0  0  0  0  0  0  0  0  0  0  0  0
   18.5472  -10.5450  -15.9709 C   0  0  0  0  0  0  0  0  0  0  0  0
   17.6948   -9.6196  -16.0977 O   0  0  0  0  0  0  0  0  0  0  0  0
   19.5728  -10.3587  -15.0167 N   0  0  0  0  0  0  0  0  0  0  0  0
   19.6804   -9.1102  -14.2963 C   0  0  0  0  0  0  0  0  0  0  0  0
   20.7473   -8.2455  -14.7912 C   0  0  0  0  0  0  0  0  0  0  0  0
   21.4899   -8.6259  -15.7160 O   0  0  0  0  0  0  0  0  0  0  0  0
   20.7283   -5.8004  -16.9927 C   0  0  0  0  0  0  0  0  0  0  0  0
   21.2153   -5.0890  -15.7889 C   0  0  1  0  0  0  0  0  0  0  0  0
   20.1957   -4.3697  -15.1575 O   0  0  0  0  0  0  0  0  0  0  0  0
   21.8496   -5.9781  -14.7511 C   0  0  2  0  0  0  0  0  0  0  0  0
   20.9562   -6.9673  -14.2326 N   0  0  0  0  0  0  0  0  0  0  0  0
   22.5020   -5.2174  -13.6691 C   0  0  0  0  0  0  0  0  0  0  0  0
   23.6433   -4.4619  -13.8525 O   0  0  0  0  0  0  0  0  0  0  0  0
   22.0083   -5.2477  -12.5199 O   0  0  0  0  0  0  0  0  0  0  0  0
  2  1  1  0
  3  2  2  0
  4  2  1  0
  5  6  1  1
  5  4  1  0
  7  5  1  0
  8  7  2  0
  9  7  1  0
 10  9  1  0
 11 10  1  0
 11 17  1  0
 12 11  2  0
 14 13  1  6
 14 16  1  0
 15 14  1  0
 16 17  1  1
 16 18  1  0
 18 20  2  0
 18 19  1  0
M  END
$$$$
