NGT.pdb
     RDKit          3D

 20 19  0  0  1  0  0  0  0  0999 V2000
   15.7476  -22.5259    3.8139 N   0  0  0  0  0  0  0  0  0  0  0  0
   16.9406  -21.9938    3.2721 C   0  0  0  0  0  0  0  0  0  0  0  0
   17.6486  -22.7610    2.5703 O   0  0  0  0  0  0  0  0  0  0  0  0
   17.3353  -20.5641    3.5332 C   0  0  0  0  0  0  0  0  0  0  0  0
   16.3004  -19.9186    4.4639 C   0  0  2  0  0  0  0  0  0  0  0  0
   15.2250  -19.4601    3.6051 N   0  0  0  0  0  0  0  0  0  0  0  0
   17.0037  -18.7417    5.0897 C   0  0  0  0  0  0  0  0  0  0  0  0
   16.8498  -17.5720    4.6347 O   0  0  0  0  0  0  0  0  0  0  0  0
   17.8585  -18.8993    6.2040 N   0  0  0  0  0  0  0  0  0  0  0  0
   18.4666  -17.7446    6.8254 C   0  0  0  0  0  0  0  0  0  0  0  0
   19.3938  -18.0856    7.9000 C   0  0  0  0  0  0  0  0  0  0  0  0
   19.5382  -19.2704    8.2564 O   0  0  0  0  0  0  0  0  0  0  0  0
   23.1538  -16.8660    8.1453 C   0  0  0  0  0  0  0  0  0  0  0  0
   22.3854  -16.5116    9.3603 C   0  0  1  0  0  0  0  0  0  0  0  0
   22.0257  -15.1603    9.3767 O   0  0  0  0  0  0  0  0  0  0  0  0
   21.1275  -17.3159    9.5613 C   0  0  2  0  0  0  0  0  0  0  0  0
   20.1409  -17.0828    8.5524 N   0  0  0  0  0  0  0  0  0  0  0  0
   20.5632  -17.1648   10.9155 C   0  0  0  0  0  0  0  0  0  0  0  0
   21.2351  -17.5335   12.0642 O   0  0  0  0  0  0  0  0  0  0  0  0
   19.4178  -16.6792   11.0474 O   0  0  0  0  0  0  0  0  0  0  0  0
  2  1  1  0
  3  2  2  0
  4  2  1  0
  5  6  1  6
  5  4  1  0
  7  5  1  0
  8  7  2  0
  9  7  1  0
 10  9  1  0
 11 10  1  0
 11 17  1  0
 12 11  2  0
 14 13  1  6
 14 16  1  0
 15 14  1  0
 16 17  1  6
 16 18  1  0
 18 20  2  0
 18 19  1  0
M  END
$$$$
