NGT.pdb
     RDKit          3D

 20 19  0  0  1  0  0  0  0  0999 V2000
   12.7366   -8.6662   -8.7817 N   0  0  0  0  0  0  0  0  0  0  0  0
   14.0961   -8.4643   -8.4487 C   0  0  0  0  0  0  0  0  0  0  0  0
   14.3441   -7.8788   -7.3634 O   0  0  0  0  0  0  0  0  0  0  0  0
   15.1929   -8.9367   -9.3663 C   0  0  0  0  0  0  0  0  0  0  0  0
   14.5658   -9.5802  -10.6099 C   0  0  2  0  0  0  0  0  0  0  0  0
   13.9999  -10.8391  -10.1632 N   0  0  0  0  0  0  0  0  0  0  0  0
   15.7144   -9.8320  -11.5527 C   0  0  0  0  0  0  0  0  0  0  0  0
   15.9590  -10.9938  -11.9877 O   0  0  0  0  0  0  0  0  0  0  0  0
   16.5583   -8.7842  -11.9848 N   0  0  0  0  0  0  0  0  0  0  0  0
   17.5868   -9.0352  -12.9690 C   0  0  0  0  0  0  0  0  0  0  0  0
   18.3397   -7.8404  -13.3384 C   0  0  0  0  0  0  0  0  0  0  0  0
   17.9048   -6.7081  -13.0553 O   0  0  0  0  0  0  0  0  0  0  0  0
   22.2179   -7.4294  -12.6216 C   0  0  0  0  0  0  0  0  0  0  0  0
   21.8964   -7.1702  -14.0434 C   0  0  1  0  0  0  0  0  0  0  0  0
   22.2482   -8.2464  -14.8643 O   0  0  0  0  0  0  0  0  0  0  0  0
   20.4475   -6.8545  -14.3094 C   0  0  2  0  0  0  0  0  0  0  0  0
   19.5695   -7.9460  -14.0207 N   0  0  0  0  0  0  0  0  0  0  0  0
   20.2189   -6.3197  -15.6646 C   0  0  0  0  0  0  0  0  0  0  0  0
   20.6665   -5.0804  -16.0780 O   0  0  0  0  0  0  0  0  0  0  0  0
   19.5888   -7.0121  -16.4945 O   0  0  0  0  0  0  0  0  0  0  0  0
  2  1  1  0
  3  2  2  0
  4  2  1  0
  5  6  1  1
  5  4  1  0
  7  5  1  0
  8  7  2  0
  9  7  1  0
 10  9  1  0
 11 10  1  0
 11 17  1  0
 12 11  2  0
 14 13  1  1
 14 16  1  0
 15 14  1  0
 16 17  1  6
 16 18  1  0
 18 20  2  0
 18 19  1  0
M  END
$$$$
