NGT.pdb
     RDKit          3D

 20 19  0  0  1  0  0  0  0  0999 V2000
   15.6282  -20.9619    2.9555 N   0  0  0  0  0  0  0  0  0  0  0  0
   16.3138  -19.8253    2.4679 C   0  0  0  0  0  0  0  0  0  0  0  0
   16.5805  -19.7948    1.2389 O   0  0  0  0  0  0  0  0  0  0  0  0
   16.7029  -18.7034    3.3943 C   0  0  0  0  0  0  0  0  0  0  0  0
   16.3625  -19.1011    4.8364 C   0  0  2  0  0  0  0  0  0  0  0  0
   14.9293  -18.9208    4.9705 N   0  0  0  0  0  0  0  0  0  0  0  0
   17.0945  -18.1130    5.7077 C   0  0  0  0  0  0  0  0  0  0  0  0
   16.6779  -16.9266    5.8412 O   0  0  0  0  0  0  0  0  0  0  0  0
   18.2693  -18.4727    6.4058 N   0  0  0  0  0  0  0  0  0  0  0  0
   18.8881  -17.5402    7.3207 C   0  0  0  0  0  0  0  0  0  0  0  0
   20.0794  -18.0735    7.9744 C   0  0  0  0  0  0  0  0  0  0  0  0
   20.4704  -19.2300    7.7272 O   0  0  0  0  0  0  0  0  0  0  0  0
   23.3952  -15.7027    8.8782 C   0  0  0  0  0  0  0  0  0  0  0  0
   22.8707  -16.5351    9.9847 C   0  0  1  0  0  0  0  0  0  0  0  0
   22.1200  -15.7838   10.8946 O   0  0  0  0  0  0  0  0  0  0  0  0
   22.0163  -17.6949    9.5438 C   0  0  2  0  0  0  0  0  0  0  0  0
   20.8073  -17.2912    8.8950 N   0  0  0  0  0  0  0  0  0  0  0  0
   21.7523  -18.6557   10.6311 C   0  0  0  0  0  0  0  0  0  0  0  0
   22.7376  -19.4167   11.2286 O   0  0  0  0  0  0  0  0  0  0  0  0
   20.5805  -18.8004   11.0450 O   0  0  0  0  0  0  0  0  0  0  0  0
  2  1  1  0
  3  2  2  0
  4  2  1  0
  5  6  1  6
  5  4  1  0
  7  5  1  0
  8  7  2  0
  9  7  1  0
 10  9  1  0
 11 10  1  0
 11 17  1  0
 12 11  2  0
 14 13  1  6
 14 16  1  0
 15 14  1  0
 16 17  1  1
 16 18  1  0
 18 20  2  0
 18 19  1  0
M  END
$$$$
