NGT.pdb
     RDKit          3D

 20 19  0  0  1  0  0  0  0  0999 V2000
   29.6376  -17.3517  -19.4411 N   0  0  0  0  0  0  0  0  0  0  0  0
   30.3297  -18.2697  -18.6177 C   0  0  0  0  0  0  0  0  0  0  0  0
   31.5514  -18.4517  -18.8558 O   0  0  0  0  0  0  0  0  0  0  0  0
   29.6199  -18.9934  -17.5040 C   0  0  0  0  0  0  0  0  0  0  0  0
   28.1664  -18.5073  -17.4344 C   0  0  2  0  0  0  0  0  0  0  0  0
   28.2133  -17.2041  -16.7988 N   0  0  0  0  0  0  0  0  0  0  0  0
   27.4562  -19.4945  -16.5443 C   0  0  0  0  0  0  0  0  0  0  0  0
   27.1956  -20.6650  -16.9453 O   0  0  0  0  0  0  0  0  0  0  0  0
   27.0560  -19.1516  -15.2330 N   0  0  0  0  0  0  0  0  0  0  0  0
   26.3050  -20.0908  -14.4310 C   0  0  0  0  0  0  0  0  0  0  0  0
   24.9605  -20.3430  -14.9405 C   0  0  0  0  0  0  0  0  0  0  0  0
   24.7770  -20.5697  -16.1515 O   0  0  0  0  0  0  0  0  0  0  0  0
   23.2543  -22.5795  -15.9153 C   0  0  0  0  0  0  0  0  0  0  0  0
   22.3572  -22.1314  -14.8260 C   0  0  1  0  0  0  0  0  0  0  0  0
   22.5260  -22.8899  -13.6632 O   0  0  0  0  0  0  0  0  0  0  0  0
   22.5114  -20.6818  -14.4455 C   0  0  2  0  0  0  0  0  0  0  0  0
   23.8480  -20.3347  -14.0735 N   0  0  0  0  0  0  0  0  0  0  0  0
   21.5366  -20.2522  -13.4256 C   0  0  0  0  0  0  0  0  0  0  0  0
   20.1713  -20.2507  -13.6323 O   0  0  0  0  0  0  0  0  0  0  0  0
   21.9521  -19.8665  -12.3103 O   0  0  0  0  0  0  0  0  0  0  0  0
  2  1  1  0
  3  2  2  0
  4  2  1  0
  5  6  1  1
  5  4  1  0
  7  5  1  0
  8  7  2  0
  9  7  1  0
 10  9  1  0
 11 10  1  0
 11 17  1  0
 12 11  2  0
 14 13  1  6
 14 16  1  0
 15 14  1  0
 16 17  1  1
 16 18  1  0
 18 20  2  0
 18 19  1  0
M  END
$$$$
