NGT.pdb
     RDKit          3D

 20 19  0  0  1  0  0  0  0  0999 V2000
   18.3295  -21.1625  -14.6759 N   0  0  0  0  0  0  0  0  0  0  0  0
   18.5943  -20.4980  -13.4560 C   0  0  0  0  0  0  0  0  0  0  0  0
   17.6204  -19.9625  -12.8668 O   0  0  0  0  0  0  0  0  0  0  0  0
   19.9913  -20.4414  -12.8965 C   0  0  0  0  0  0  0  0  0  0  0  0
   20.9072  -21.3389  -13.7388 C   0  0  2  0  0  0  0  0  0  0  0  0
   20.6831  -22.6916  -13.2649 N   0  0  0  0  0  0  0  0  0  0  0  0
   22.3108  -20.8990  -13.4108 C   0  0  0  0  0  0  0  0  0  0  0  0
   22.6983  -19.7197  -13.6516 O   0  0  0  0  0  0  0  0  0  0  0  0
   23.2438  -21.7835  -12.8241 N   0  0  0  0  0  0  0  0  0  0  0  0
   24.6095  -21.3632  -12.6061 C   0  0  0  0  0  0  0  0  0  0  0  0
   25.4160  -21.3594  -13.8229 C   0  0  0  0  0  0  0  0  0  0  0  0
   25.4573  -22.3659  -14.5555 O   0  0  0  0  0  0  0  0  0  0  0  0
   28.2055  -18.1024  -14.5551 C   0  0  0  0  0  0  0  0  0  0  0  0
   27.3812  -18.6686  -15.6470 C   0  0  1  0  0  0  0  0  0  0  0  0
   28.0571  -18.6610  -16.8712 O   0  0  0  0  0  0  0  0  0  0  0  0
   26.9034  -20.0766  -15.4040 C   0  0  2  0  0  0  0  0  0  0  0  0
   26.1610  -20.2194  -14.1899 N   0  0  0  0  0  0  0  0  0  0  0  0
   27.9882  -21.0716  -15.4954 C   0  0  0  0  0  0  0  0  0  0  0  0
   28.4571  -21.5768  -16.6920 O   0  0  0  0  0  0  0  0  0  0  0  0
   28.5216  -21.4896  -14.4437 O   0  0  0  0  0  0  0  0  0  0  0  0
  2  1  1  0
  3  2  2  0
  4  2  1  0
  5  6  1  1
  5  4  1  0
  7  5  1  0
  8  7  2  0
  9  7  1  0
 10  9  1  0
 11 10  1  0
 11 17  1  0
 12 11  2  0
 14 13  1  1
 14 16  1  0
 15 14  1  0
 16 17  1  1
 16 18  1  0
 18 20  2  0
 18 19  1  0
M  END
$$$$
