NGT.pdb
     RDKit          3D

 20 19  0  0  1  0  0  0  0  0999 V2000
   14.6989  -25.4589   -7.2185 N   0  0  0  0  0  0  0  0  0  0  0  0
   15.9262  -24.8306   -6.9042 C   0  0  0  0  0  0  0  0  0  0  0  0
   16.8740  -24.9747   -7.7186 O   0  0  0  0  0  0  0  0  0  0  0  0
   16.0783  -24.0242   -5.6414 C   0  0  0  0  0  0  0  0  0  0  0  0
   14.7535  -24.0467   -4.8678 C   0  0  2  0  0  0  0  0  0  0  0  0
   14.1465  -22.7466   -5.0816 N   0  0  0  0  0  0  0  0  0  0  0  0
   15.1382  -24.2090   -3.4197 C   0  0  0  0  0  0  0  0  0  0  0  0
   15.8265  -25.1972   -3.0340 O   0  0  0  0  0  0  0  0  0  0  0  0
   14.7463  -23.2675   -2.4415 N   0  0  0  0  0  0  0  0  0  0  0  0
   15.1876  -23.4117   -1.0726 C   0  0  0  0  0  0  0  0  0  0  0  0
   14.7009  -22.3540   -0.1922 C   0  0  0  0  0  0  0  0  0  0  0  0
   13.9892  -21.4361   -0.6423 O   0  0  0  0  0  0  0  0  0  0  0  0
   12.9548  -23.1072    3.2115 C   0  0  0  0  0  0  0  0  0  0  0  0
   14.0352  -22.1146    3.4112 C   0  0  1  0  0  0  0  0  0  0  0  0
   15.1572  -22.6787    4.0265 O   0  0  0  0  0  0  0  0  0  0  0  0
   14.5045  -21.4388    2.1491 C   0  0  2  0  0  0  0  0  0  0  0  0
   15.0265  -22.3521    1.1801 N   0  0  0  0  0  0  0  0  0  0  0  0
   15.4425  -20.3310    2.4094 C   0  0  0  0  0  0  0  0  0  0  0  0
   15.0633  -19.1327    2.9814 O   0  0  0  0  0  0  0  0  0  0  0  0
   16.6474  -20.4680    2.1019 O   0  0  0  0  0  0  0  0  0  0  0  0
  2  1  1  0
  3  2  2  0
  4  2  1  0
  5  6  1  1
  5  4  1  0
  7  5  1  0
  8  7  2  0
  9  7  1  0
 10  9  1  0
 11 10  1  0
 11 17  1  0
 12 11  2  0
 14 13  1  6
 14 16  1  0
 15 14  1  0
 16 17  1  6
 16 18  1  0
 18 20  2  0
 18 19  1  0
M  END
$$$$
