NGT.pdb
     RDKit          3D

 20 19  0  0  1  0  0  0  0  0999 V2000
   17.4857  -16.6084  -15.0114 N   0  0  0  0  0  0  0  0  0  0  0  0
   18.1125  -16.0855  -16.1662 C   0  0  0  0  0  0  0  0  0  0  0  0
   18.4583  -16.9041  -17.0564 O   0  0  0  0  0  0  0  0  0  0  0  0
   18.3500  -14.6054  -16.3110 C   0  0  0  0  0  0  0  0  0  0  0  0
   17.7389  -13.8778  -15.1065 C   0  0  2  0  0  0  0  0  0  0  0  0
   16.3680  -13.5799  -15.4759 N   0  0  0  0  0  0  0  0  0  0  0  0
   18.5286  -12.6017  -14.9667 C   0  0  0  0  0  0  0  0  0  0  0  0
   19.7110  -12.6117  -14.5188 O   0  0  0  0  0  0  0  0  0  0  0  0
   17.9804  -11.3507  -15.3291 N   0  0  0  0  0  0  0  0  0  0  0  0
   18.7615  -10.1430  -15.1844 C   0  0  0  0  0  0  0  0  0  0  0  0
   18.0611   -8.9427  -15.6312 C   0  0  0  0  0  0  0  0  0  0  0  0
   17.3260   -8.9784  -16.6360 O   0  0  0  0  0  0  0  0  0  0  0  0
   15.2800   -7.1469  -14.3750 C   0  0  0  0  0  0  0  0  0  0  0  0
   16.3968   -6.1753  -14.3416 C   0  0  1  0  0  0  0  0  0  0  0  0
   16.9285   -6.0328  -13.0561 O   0  0  0  0  0  0  0  0  0  0  0  0
   17.5384   -6.5028  -15.2685 C   0  0  2  0  0  0  0  0  0  0  0  0
   18.2037   -7.7242  -14.9352 N   0  0  0  0  0  0  0  0  0  0  0  0
   18.4934   -5.3885  -15.4143 C   0  0  0  0  0  0  0  0  0  0  0  0
   18.1809   -4.1965  -16.0375 O   0  0  0  0  0  0  0  0  0  0  0  0
   19.6504   -5.5138  -14.9551 O   0  0  0  0  0  0  0  0  0  0  0  0
  2  1  1  0
  3  2  2  0
  4  2  1  0
  5  6  1  6
  5  4  1  0
  7  5  1  0
  8  7  2  0
  9  7  1  0
 10  9  1  0
 11 10  1  0
 11 17  1  0
 12 11  2  0
 14 13  1  1
 14 16  1  0
 15 14  1  0
 16 17  1  1
 16 18  1  0
 18 20  2  0
 18 19  1  0
M  END
$$$$
