NGT.pdb
     RDKit          3D

 20 19  0  0  1  0  0  0  0  0999 V2000
   24.9492  -21.4773   -8.8104 N   0  0  0  0  0  0  0  0  0  0  0  0
   25.4871  -20.1712   -8.8775 C   0  0  0  0  0  0  0  0  0  0  0  0
   25.9004  -19.6610   -7.8046 O   0  0  0  0  0  0  0  0  0  0  0  0
   25.5561  -19.4323  -10.1880 C   0  0  0  0  0  0  0  0  0  0  0  0
   24.9842  -20.3232  -11.2984 C   0  0  2  0  0  0  0  0  0  0  0  0
   25.8895  -21.4514  -11.4084 N   0  0  0  0  0  0  0  0  0  0  0  0
   25.0406  -19.4874  -12.5512 C   0  0  0  0  0  0  0  0  0  0  0  0
   24.2642  -18.5029  -12.7145 O   0  0  0  0  0  0  0  0  0  0  0  0
   25.9593  -19.7705  -13.5870 N   0  0  0  0  0  0  0  0  0  0  0  0
   26.0412  -18.9087  -14.7446 C   0  0  0  0  0  0  0  0  0  0  0  0
   27.2363  -19.1344  -15.5519 C   0  0  0  0  0  0  0  0  0  0  0  0
   28.3295  -18.6440  -15.2114 O   0  0  0  0  0  0  0  0  0  0  0  0
   28.6759  -22.5224  -16.4850 C   0  0  0  0  0  0  0  0  0  0  0  0
   28.4369  -21.7588  -17.7309 C   0  0  1  0  0  0  0  0  0  0  0  0
   27.2940  -22.2007  -18.4047 O   0  0  0  0  0  0  0  0  0  0  0  0
   28.2990  -20.2713  -17.5358 C   0  0  2  0  0  0  0  0  0  0  0  0
   27.1751  -19.9095  -16.7287 N   0  0  0  0  0  0  0  0  0  0  0  0
   28.3151  -19.5246  -18.8075 C   0  0  0  0  0  0  0  0  0  0  0  0
   29.3967  -19.5089  -19.6658 O   0  0  0  0  0  0  0  0  0  0  0  0
   27.3045  -18.8665  -19.1403 O   0  0  0  0  0  0  0  0  0  0  0  0
  2  1  1  0
  3  2  2  0
  4  2  1  0
  5  6  1  6
  5  4  1  0
  7  5  1  0
  8  7  2  0
  9  7  1  0
 10  9  1  0
 11 10  1  0
 11 17  1  0
 12 11  2  0
 14 13  1  1
 14 16  1  0
 15 14  1  0
 16 17  1  6
 16 18  1  0
 18 20  2  0
 18 19  1  0
M  END
$$$$
