NGT.pdb
     RDKit          3D

 20 19  0  0  1  0  0  0  0  0999 V2000
   15.6428  -13.8265  -15.0665 N   0  0  0  0  0  0  0  0  0  0  0  0
   16.9036  -13.6819  -14.4426 C   0  0  0  0  0  0  0  0  0  0  0  0
   17.1099  -14.3485  -13.3959 O   0  0  0  0  0  0  0  0  0  0  0  0
   17.9483  -12.7630  -15.0192 C   0  0  0  0  0  0  0  0  0  0  0  0
   17.3473  -12.0017  -16.2079 C   0  0  2  0  0  0  0  0  0  0  0  0
   17.2591  -12.9623  -17.2914 N   0  0  0  0  0  0  0  0  0  0  0  0
   18.3508  -10.9289  -16.5448 C   0  0  0  0  0  0  0  0  0  0  0  0
   19.0882  -11.0229  -17.5677 O   0  0  0  0  0  0  0  0  0  0  0  0
   18.5056   -9.7817  -15.7342 N   0  0  0  0  0  0  0  0  0  0  0  0
   19.4009   -8.7204  -16.1361 C   0  0  0  0  0  0  0  0  0  0  0  0
   19.4456   -7.6102  -15.1894 C   0  0  0  0  0  0  0  0  0  0  0  0
   18.7803   -7.6510  -14.1372 O   0  0  0  0  0  0  0  0  0  0  0  0
   22.5753   -6.4121  -13.5129 C   0  0  0  0  0  0  0  0  0  0  0  0
   21.9595   -5.2517  -14.1959 C   0  0  1  0  0  0  0  0  0  0  0  0
   22.6172   -4.9369  -15.3892 O   0  0  0  0  0  0  0  0  0  0  0  0
   20.4971   -5.4192  -14.5172 C   0  0  2  0  0  0  0  0  0  0  0  0
   20.2407   -6.4743  -15.4481 N   0  0  0  0  0  0  0  0  0  0  0  0
   19.8567   -4.1589  -14.9375 C   0  0  0  0  0  0  0  0  0  0  0  0
   19.5484   -3.1350  -14.0637 O   0  0  0  0  0  0  0  0  0  0  0  0
   19.5717   -3.9934  -16.1444 O   0  0  0  0  0  0  0  0  0  0  0  0
  2  1  1  0
  3  2  2  0
  4  2  1  0
  5  6  1  6
  5  4  1  0
  7  5  1  0
  8  7  2  0
  9  7  1  0
 10  9  1  0
 11 10  1  0
 11 17  1  0
 12 11  2  0
 14 13  1  6
 14 16  1  0
 15 14  1  0
 16 17  1  6
 16 18  1  0
 18 20  2  0
 18 19  1  0
M  END
$$$$
