NGT.pdb
     RDKit          3D

 20 19  0  0  1  0  0  0  0  0999 V2000
   17.1873  -13.5428  -18.1412 N   0  0  0  0  0  0  0  0  0  0  0  0
   18.4501  -14.0758  -17.7932 C   0  0  0  0  0  0  0  0  0  0  0  0
   18.6406  -15.2998  -18.0121 O   0  0  0  0  0  0  0  0  0  0  0  0
   19.5150  -13.2013  -17.1854 C   0  0  0  0  0  0  0  0  0  0  0  0
   18.9828  -11.7669  -17.0708 C   0  0  2  0  0  0  0  0  0  0  0  0
   19.1378  -11.1791  -18.3880 N   0  0  0  0  0  0  0  0  0  0  0  0
   19.8924  -11.0801  -16.0847 C   0  0  0  0  0  0  0  0  0  0  0  0
   20.4154  -11.7171  -15.1258 O   0  0  0  0  0  0  0  0  0  0  0  0
   20.1944   -9.7038  -16.1933 N   0  0  0  0  0  0  0  0  0  0  0  0
   21.0184   -9.0574  -15.1971 C   0  0  0  0  0  0  0  0  0  0  0  0
   21.2668   -7.6464  -15.4770 C   0  0  0  0  0  0  0  0  0  0  0  0
   21.4300   -7.2548  -16.6481 O   0  0  0  0  0  0  0  0  0  0  0  0
   19.4126   -5.0432  -16.0169 C   0  0  0  0  0  0  0  0  0  0  0  0
   20.1643   -4.5805  -14.8281 C   0  0  1  0  0  0  0  0  0  0  0  0
   19.4131   -4.6997  -13.6546 O   0  0  0  0  0  0  0  0  0  0  0  0
   21.4730   -5.2913  -14.6003 C   0  0  2  0  0  0  0  0  0  0  0  0
   21.3263   -6.7037  -14.4296 N   0  0  0  0  0  0  0  0  0  0  0  0
   22.2652   -4.6935  -13.5094 C   0  0  0  0  0  0  0  0  0  0  0  0
   22.6341   -5.3838  -12.3717 O   0  0  0  0  0  0  0  0  0  0  0  0
   22.6297   -3.5005  -13.6043 O   0  0  0  0  0  0  0  0  0  0  0  0
  2  1  1  0
  3  2  2  0
  4  2  1  0
  5  6  1  6
  5  4  1  0
  7  5  1  0
  8  7  2  0
  9  7  1  0
 10  9  1  0
 11 10  1  0
 11 17  1  0
 12 11  2  0
 14 13  1  6
 14 16  1  0
 15 14  1  0
 16 17  1  1
 16 18  1  0
 18 20  2  0
 18 19  1  0
M  END
$$$$
