MAN.pdb
     RDKit          3D

 22 21  0  0  1  0  0  0  0  0999 V2000
   28.9913  -19.6733   -4.7285 C   0  0  0  0  0  0  0  0  0  0  0  0
   27.6235  -19.3411   -5.8664 S   0  0  0  0  0  0  0  0  0  0  0  0
   27.5987  -20.4570   -7.2736 C   0  0  0  0  0  0  0  0  0  0  0  0
   26.4830  -20.0770   -8.2148 C   0  0  0  0  0  0  0  0  0  0  0  0
   26.4541  -20.9678   -9.4504 C   0  0  2  0  0  0  0  0  0  0  0  0
   27.7439  -21.1539  -10.0496 N   0  0  0  0  0  0  0  0  0  0  0  0
   25.5191  -20.2825  -10.4012 C   0  0  0  0  0  0  0  0  0  0  0  0
   24.3205  -20.0991  -10.0973 O   0  0  0  0  0  0  0  0  0  0  0  0
   26.6156  -21.9511  -12.6972 C   0  0  0  0  0  0  0  0  0  0  0  0
   25.8624  -20.6209  -12.8651 C   0  0  2  0  0  0  0  0  0  0  0  0
   25.9602  -19.8169  -11.6787 N   0  0  0  0  0  0  0  0  0  0  0  0
   24.4726  -21.0084  -13.1854 C   0  0  0  0  0  0  0  0  0  0  0  0
   24.2670  -21.8424  -14.1362 O   0  0  0  0  0  0  0  0  0  0  0  0
   19.2328  -21.5178  -12.6060 N   0  0  0  0  0  0  0  0  0  0  0  0
   19.7989  -20.8234  -11.5140 C   0  0  0  0  0  0  0  0  0  0  0  0
   19.0843  -20.5264  -10.5221 O   0  0  0  0  0  0  0  0  0  0  0  0
   21.2161  -20.4354  -11.5132 C   0  0  0  0  0  0  0  0  0  0  0  0
   21.9745  -21.0409  -12.7129 C   0  0  2  0  0  0  0  0  0  0  0  0
   23.3353  -20.5410  -12.5307 N   0  0  0  0  0  0  0  0  0  0  0  0
   21.3439  -20.4360  -13.9153 C   0  0  0  0  0  0  0  0  0  0  0  0
   20.2705  -21.1361  -14.4793 O   0  0  0  0  0  0  0  0  0  0  0  0
   21.7314  -19.3561  -14.4209 O   0  0  0  0  0  0  0  0  0  0  0  0
  1  2  1  0
  3  2  1  0
  4  3  1  0
  5  4  1  0
  5  6  1  6
  7  5  1  0
  7 11  1  0
  8  7  2  0
 10  9  1  1
 10 11  1  0
 10 12  1  0
 12 13  2  0
 12 19  1  0
 15 14  1  0
 16 15  2  0
 17 15  1  0
 18 20  1  0
 18 17  1  1
 19 18  1  0
 20 21  1  0
 22 20  2  0
M  END
$$$$
