MAN.pdb
     RDKit          3D

 22 21  0  0  1  0  0  0  0  0999 V2000
   26.9660  -15.2389  -14.7577 C   0  0  0  0  0  0  0  0  0  0  0  0
   25.2610  -14.8152  -15.1932 S   0  0  0  0  0  0  0  0  0  0  0  0
   25.1579  -13.5149  -16.4279 C   0  0  0  0  0  0  0  0  0  0  0  0
   23.7141  -13.1717  -16.6975 C   0  0  0  0  0  0  0  0  0  0  0  0
   22.9034  -14.3985  -17.0958 C   0  0  2  0  0  0  0  0  0  0  0  0
   23.4103  -15.0635  -18.2611 N   0  0  0  0  0  0  0  0  0  0  0  0
   21.5155  -13.8852  -17.3370 C   0  0  0  0  0  0  0  0  0  0  0  0
   21.2219  -13.3191  -18.4122 O   0  0  0  0  0  0  0  0  0  0  0  0
   18.1814  -13.9933  -15.5123 C   0  0  0  0  0  0  0  0  0  0  0  0
   19.2019  -13.3948  -16.4948 C   0  0  2  0  0  0  0  0  0  0  0  0
   20.4857  -14.0239  -16.3555 N   0  0  0  0  0  0  0  0  0  0  0  0
   19.2307  -11.9508  -16.1805 C   0  0  0  0  0  0  0  0  0  0  0  0
   18.1427  -11.2789  -16.2613 O   0  0  0  0  0  0  0  0  0  0  0  0
   21.0071   -7.2363  -14.6284 N   0  0  0  0  0  0  0  0  0  0  0  0
   21.5262   -8.3091  -13.8702 C   0  0  0  0  0  0  0  0  0  0  0  0
   22.2345   -8.0753  -12.8572 O   0  0  0  0  0  0  0  0  0  0  0  0
   21.2561   -9.7041  -14.2445 C   0  0  0  0  0  0  0  0  0  0  0  0
   20.4178   -9.7965  -15.5367 C   0  0  2  0  0  0  0  0  0  0  0  0
   20.3601  -11.2340  -15.7918 N   0  0  0  0  0  0  0  0  0  0  0  0
   21.2275   -9.1059  -16.5742 C   0  0  0  0  0  0  0  0  0  0  0  0
   22.3722   -9.7750  -17.0242 O   0  0  0  0  0  0  0  0  0  0  0  0
   20.9262   -7.9820  -17.0413 O   0  0  0  0  0  0  0  0  0  0  0  0
  1  2  1  0
  3  2  1  0
  4  3  1  0
  5  4  1  0
  5  6  1  6
  7  5  1  0
  7 11  1  0
  8  7  2  0
 10  9  1  1
 10 11  1  0
 10 12  1  0
 12 13  2  0
 12 19  1  0
 15 14  1  0
 16 15  2  0
 17 15  1  0
 18 20  1  0
 18 17  1  1
 19 18  1  0
 20 21  1  0
 22 20  2  0
M  END
$$$$
