MAN.pdb
     RDKit          3D

 22 21  0  0  1  0  0  0  0  0999 V2000
   31.7929  -22.6087   -9.4874 C   0  0  0  0  0  0  0  0  0  0  0  0
   30.7233  -21.3085  -10.1520 S   0  0  0  0  0  0  0  0  0  0  0  0
   29.0125  -21.8291  -10.3196 C   0  0  0  0  0  0  0  0  0  0  0  0
   28.1971  -20.7288  -10.9516 C   0  0  0  0  0  0  0  0  0  0  0  0
   26.7448  -21.1424  -11.1536 C   0  0  2  0  0  0  0  0  0  0  0  0
   26.5793  -22.5477  -11.3875 N   0  0  0  0  0  0  0  0  0  0  0  0
   26.2752  -20.3470  -12.3346 C   0  0  0  0  0  0  0  0  0  0  0  0
   25.7300  -19.2330  -12.1783 O   0  0  0  0  0  0  0  0  0  0  0  0
   26.7148  -20.4424  -16.0781 C   0  0  0  0  0  0  0  0  0  0  0  0
   25.9073  -20.1257  -14.8081 C   0  0  2  0  0  0  0  0  0  0  0  0
   26.4334  -20.8285  -13.6712 N   0  0  0  0  0  0  0  0  0  0  0  0
   24.5188  -20.5140  -15.1335 C   0  0  0  0  0  0  0  0  0  0  0  0
   23.9735  -20.0324  -16.1884 O   0  0  0  0  0  0  0  0  0  0  0  0
   24.2295  -24.9289  -14.7863 N   0  0  0  0  0  0  0  0  0  0  0  0
   23.1709  -24.1158  -15.2483 C   0  0  0  0  0  0  0  0  0  0  0  0
   22.8995  -24.0785  -16.4761 O   0  0  0  0  0  0  0  0  0  0  0  0
   22.3749  -23.3041  -14.3175 C   0  0  0  0  0  0  0  0  0  0  0  0
   22.3735  -21.8136  -14.7171 C   0  0  2  0  0  0  0  0  0  0  0  0
   23.7278  -21.3797  -14.3817 N   0  0  0  0  0  0  0  0  0  0  0  0
   21.3745  -21.1732  -13.8222 C   0  0  0  0  0  0  0  0  0  0  0  0
   21.8797  -20.4501  -12.7349 O   0  0  0  0  0  0  0  0  0  0  0  0
   20.1372  -21.2588  -14.0059 O   0  0  0  0  0  0  0  0  0  0  0  0
  1  2  1  0
  3  2  1  0
  4  3  1  0
  5  4  1  0
  5  6  1  6
  7  5  1  0
  7 11  1  0
  8  7  2  0
 10  9  1  6
 10 11  1  0
 10 12  1  0
 12 13  2  0
 12 19  1  0
 15 14  1  0
 16 15  2  0
 17 15  1  0
 18 20  1  0
 18 17  1  1
 19 18  1  0
 20 21  1  0
 22 20  2  0
M  END
$$$$
