MAN.pdb
     RDKit          3D

 22 21  0  0  1  0  0  0  0  0999 V2000
   19.5506  -17.9288  -18.0562 C   0  0  0  0  0  0  0  0  0  0  0  0
   20.3293  -16.2952  -18.0252 S   0  0  0  0  0  0  0  0  0  0  0  0
   19.1555  -14.9570  -18.2643 C   0  0  0  0  0  0  0  0  0  0  0  0
   19.8815  -13.6360  -18.3168 C   0  0  0  0  0  0  0  0  0  0  0  0
   19.9225  -12.9558  -16.9541 C   0  0  2  0  0  0  0  0  0  0  0  0
   18.8339  -13.3283  -16.0978 N   0  0  0  0  0  0  0  0  0  0  0  0
   19.8871  -11.4869  -17.2523 C   0  0  0  0  0  0  0  0  0  0  0  0
   20.7789  -10.9548  -17.9480 O   0  0  0  0  0  0  0  0  0  0  0  0
   17.4445   -8.6306  -16.7297 C   0  0  0  0  0  0  0  0  0  0  0  0
   18.8484   -9.2232  -16.9367 C   0  0  2  0  0  0  0  0  0  0  0  0
   18.8407  -10.6483  -16.7571 N   0  0  0  0  0  0  0  0  0  0  0  0
   19.7049   -8.5235  -15.9563 C   0  0  0  0  0  0  0  0  0  0  0  0
   19.8252   -9.0149  -14.7790 O   0  0  0  0  0  0  0  0  0  0  0  0
   22.9878   -4.9172  -13.9142 N   0  0  0  0  0  0  0  0  0  0  0  0
   22.6245   -4.5579  -15.2310 C   0  0  0  0  0  0  0  0  0  0  0  0
   23.0564   -3.4868  -15.7299 O   0  0  0  0  0  0  0  0  0  0  0  0
   21.7435   -5.4148  -16.0363 C   0  0  0  0  0  0  0  0  0  0  0  0
   21.2902   -6.6644  -15.2526 C   0  0  2  0  0  0  0  0  0  0  0  0
   20.4146   -7.3500  -16.2003 N   0  0  0  0  0  0  0  0  0  0  0  0
   20.5146   -6.1382  -14.0991 C   0  0  0  0  0  0  0  0  0  0  0  0
   21.1566   -6.1489  -12.8549 O   0  0  0  0  0  0  0  0  0  0  0  0
   19.3443   -5.7008  -14.2041 O   0  0  0  0  0  0  0  0  0  0  0  0
  1  2  1  0
  3  2  1  0
  4  3  1  0
  5  4  1  0
  5  6  1  1
  7  5  1  0
  7 11  1  0
  8  7  2  0
 10  9  1  1
 10 11  1  0
 10 12  1  0
 12 13  2  0
 12 19  1  0
 15 14  1  0
 16 15  2  0
 17 15  1  0
 18 20  1  0
 18 17  1  6
 19 18  1  0
 20 21  1  0
 22 20  2  0
M  END
$$$$
