MAN.pdb
     RDKit          3D

 22 21  0  0  1  0  0  0  0  0999 V2000
   29.4105  -19.9354   -4.3332 C   0  0  0  0  0  0  0  0  0  0  0  0
   28.1986  -19.0976   -5.3846 S   0  0  0  0  0  0  0  0  0  0  0  0
   27.0279  -20.2305   -6.1406 C   0  0  0  0  0  0  0  0  0  0  0  0
   27.4562  -20.5512   -7.5508 C   0  0  0  0  0  0  0  0  0  0  0  0
   26.4427  -20.0616   -8.5775 C   0  0  2  0  0  0  0  0  0  0  0  0
   25.1600  -20.6922   -8.4583 N   0  0  0  0  0  0  0  0  0  0  0  0
   27.0625  -20.3628   -9.9091 C   0  0  0  0  0  0  0  0  0  0  0  0
   28.2014  -20.8727   -9.9827 O   0  0  0  0  0  0  0  0  0  0  0  0
   25.3157  -22.2249  -11.6765 C   0  0  0  0  0  0  0  0  0  0  0  0
   26.2071  -21.0693  -12.1612 C   0  0  2  0  0  0  0  0  0  0  0  0
   26.3793  -20.0813  -11.1328 N   0  0  0  0  0  0  0  0  0  0  0  0
   25.5247  -20.5397  -13.3605 C   0  0  0  0  0  0  0  0  0  0  0  0
   25.3640  -21.3106  -14.3712 O   0  0  0  0  0  0  0  0  0  0  0  0
   27.7964  -17.8223  -14.8260 N   0  0  0  0  0  0  0  0  0  0  0  0
   26.4783  -17.4828  -15.2036 C   0  0  0  0  0  0  0  0  0  0  0  0
   26.0968  -16.2857  -15.1391 O   0  0  0  0  0  0  0  0  0  0  0  0
   25.5348  -18.5073  -15.6717 C   0  0  0  0  0  0  0  0  0  0  0  0
   24.3666  -18.7023  -14.6825 C   0  0  2  0  0  0  0  0  0  0  0  0
   25.0242  -19.2468  -13.4968 N   0  0  0  0  0  0  0  0  0  0  0  0
   23.4880  -19.7201  -15.3160 C   0  0  0  0  0  0  0  0  0  0  0  0
   23.6600  -21.0449  -14.8967 O   0  0  0  0  0  0  0  0  0  0  0  0
   22.6285  -19.4370  -16.1838 O   0  0  0  0  0  0  0  0  0  0  0  0
  1  2  1  0
  3  2  1  0
  4  3  1  0
  5  4  1  0
  5  6  1  1
  7  5  1  0
  7 11  1  0
  8  7  2  0
 10  9  1  1
 10 11  1  0
 10 12  1  0
 12 13  2  0
 12 19  1  0
 15 14  1  0
 16 15  2  0
 17 15  1  0
 18 20  1  0
 18 17  1  6
 19 18  1  0
 20 21  1  0
 22 20  2  0
M  END
$$$$
