MAN.pdb
     RDKit          3D

 22 21  0  0  1  0  0  0  0  0999 V2000
   27.6810  -14.5816  -17.4220 C   0  0  0  0  0  0  0  0  0  0  0  0
   28.7029  -13.6420  -16.2606 S   0  0  0  0  0  0  0  0  0  0  0  0
   28.1962  -11.9250  -16.1151 C   0  0  0  0  0  0  0  0  0  0  0  0
   26.8541  -11.7247  -16.7736 C   0  0  0  0  0  0  0  0  0  0  0  0
   26.4146  -10.2664  -16.7353 C   0  0  2  0  0  0  0  0  0  0  0  0
   26.7284   -9.6085  -15.5001 N   0  0  0  0  0  0  0  0  0  0  0  0
   24.9324  -10.3018  -16.9582 C   0  0  0  0  0  0  0  0  0  0  0  0
   24.4618  -10.6039  -18.0762 O   0  0  0  0  0  0  0  0  0  0  0  0
   21.8630  -10.5694  -14.8710 C   0  0  0  0  0  0  0  0  0  0  0  0
   22.5882  -10.0123  -16.1074 C   0  0  2  0  0  0  0  0  0  0  0  0
   24.0108   -9.9949  -15.9095 N   0  0  0  0  0  0  0  0  0  0  0  0
   22.0178   -8.6636  -16.3075 C   0  0  0  0  0  0  0  0  0  0  0  0
   20.7576   -8.5491  -16.5089 O   0  0  0  0  0  0  0  0  0  0  0  0
   20.4615   -5.6700  -14.4285 N   0  0  0  0  0  0  0  0  0  0  0  0
   21.7790   -5.1814  -14.2847 C   0  0  0  0  0  0  0  0  0  0  0  0
   22.1271   -4.6248  -13.2116 O   0  0  0  0  0  0  0  0  0  0  0  0
   22.7589   -5.3085  -15.3722 C   0  0  0  0  0  0  0  0  0  0  0  0
   22.2028   -6.1392  -16.5478 C   0  0  2  0  0  0  0  0  0  0  0  0
   22.7416   -7.4734  -16.2944 N   0  0  0  0  0  0  0  0  0  0  0  0
   22.8121   -5.5436  -17.7656 C   0  0  0  0  0  0  0  0  0  0  0  0
   22.4080   -4.2449  -18.0977 O   0  0  0  0  0  0  0  0  0  0  0  0
   23.6473   -6.1488  -18.4786 O   0  0  0  0  0  0  0  0  0  0  0  0
  1  2  1  0
  3  2  1  0
  4  3  1  0
  5  4  1  0
  5  6  1  1
  7  5  1  0
  7 11  1  0
  8  7  2  0
 10  9  1  1
 10 11  1  0
 10 12  1  0
 12 13  2  0
 12 19  1  0
 15 14  1  0
 16 15  2  0
 17 15  1  0
 18 20  1  0
 18 17  1  1
 19 18  1  0
 20 21  1  0
 22 20  2  0
M  END
$$$$
