MAN.pdb
     RDKit          3D

 22 21  0  0  1  0  0  0  0  0999 V2000
   27.6756  -13.5088  -15.0932 C   0  0  0  0  0  0  0  0  0  0  0  0
   27.6961  -14.1064  -16.8016 S   0  0  0  0  0  0  0  0  0  0  0  0
   26.0496  -14.3604  -17.4727 C   0  0  0  0  0  0  0  0  0  0  0  0
   25.4902  -13.0538  -17.9776 C   0  0  0  0  0  0  0  0  0  0  0  0
   24.2811  -12.6029  -17.1678 C   0  0  2  0  0  0  0  0  0  0  0  0
   23.2476  -13.5941  -17.0859 N   0  0  0  0  0  0  0  0  0  0  0  0
   23.7843  -11.3718  -17.8647 C   0  0  0  0  0  0  0  0  0  0  0  0
   24.5159  -10.3651  -17.9817 O   0  0  0  0  0  0  0  0  0  0  0  0
   20.8806  -10.4775  -20.0958 C   0  0  0  0  0  0  0  0  0  0  0  0
   21.9646  -10.1250  -19.0635 C   0  0  2  0  0  0  0  0  0  0  0  0
   22.4676  -11.3051  -18.4171 N   0  0  0  0  0  0  0  0  0  0  0  0
   21.3076   -9.1902  -18.1261 C   0  0  0  0  0  0  0  0  0  0  0  0
   20.9188   -8.0496  -18.5616 O   0  0  0  0  0  0  0  0  0  0  0  0
   19.2560   -7.2583  -13.6580 N   0  0  0  0  0  0  0  0  0  0  0  0
   19.4960   -8.6446  -13.5330 C   0  0  0  0  0  0  0  0  0  0  0  0
   19.1606   -9.2461  -12.4803 O   0  0  0  0  0  0  0  0  0  0  0  0
   20.1370   -9.4048  -14.6148 C   0  0  0  0  0  0  0  0  0  0  0  0
   20.4666   -8.5071  -15.8259 C   0  0  2  0  0  0  0  0  0  0  0  0
   21.0629   -9.4414  -16.7779 N   0  0  0  0  0  0  0  0  0  0  0  0
   21.4788   -7.5398  -15.3272 C   0  0  0  0  0  0  0  0  0  0  0  0
   20.9902   -6.4048  -14.6689 O   0  0  0  0  0  0  0  0  0  0  0  0
   22.7131   -7.7047  -15.4738 O   0  0  0  0  0  0  0  0  0  0  0  0
  1  2  1  0
  3  2  1  0
  4  3  1  0
  5  4  1  0
  5  6  1  6
  7  5  1  0
  7 11  1  0
  8  7  2  0
 10  9  1  6
 10 11  1  0
 10 12  1  0
 12 13  2  0
 12 19  1  0
 15 14  1  0
 16 15  2  0
 17 15  1  0
 18 20  1  0
 18 17  1  1
 19 18  1  0
 20 21  1  0
 22 20  2  0
M  END
$$$$
