MAN.pdb
     RDKit          3D

 22 21  0  0  1  0  0  0  0  0999 V2000
   26.5994  -18.9019   -7.6190 C   0  0  0  0  0  0  0  0  0  0  0  0
   26.4590  -20.6727   -7.9661 S   0  0  0  0  0  0  0  0  0  0  0  0
   25.0053  -21.0810   -8.9387 C   0  0  0  0  0  0  0  0  0  0  0  0
   25.1270  -20.4922  -10.3220 C   0  0  0  0  0  0  0  0  0  0  0  0
   25.3836  -21.5633  -11.3746 C   0  0  2  0  0  0  0  0  0  0  0  0
   26.7124  -22.1014  -11.3286 N   0  0  0  0  0  0  0  0  0  0  0  0
   25.1285  -20.8861  -12.6878 C   0  0  0  0  0  0  0  0  0  0  0  0
   26.0636  -20.3543  -13.3243 O   0  0  0  0  0  0  0  0  0  0  0  0
   22.0938  -20.4496  -14.9606 C   0  0  0  0  0  0  0  0  0  0  0  0
   23.5753  -20.3075  -14.5733 C   0  0  2  0  0  0  0  0  0  0  0  0
   23.8181  -20.8253  -13.2556 N   0  0  0  0  0  0  0  0  0  0  0  0
   23.8610  -18.8618  -14.6860 C   0  0  0  0  0  0  0  0  0  0  0  0
   24.2391  -18.2233  -13.6414 O   0  0  0  0  0  0  0  0  0  0  0  0
   25.9298  -14.5527  -16.4835 N   0  0  0  0  0  0  0  0  0  0  0  0
   26.5895  -15.7684  -16.1975 C   0  0  0  0  0  0  0  0  0  0  0  0
   27.8447  -15.7964  -16.1177 O   0  0  0  0  0  0  0  0  0  0  0  0
   25.8344  -17.0120  -15.9919 C   0  0  0  0  0  0  0  0  0  0  0  0
   24.3115  -16.7742  -16.0657 C   0  0  2  0  0  0  0  0  0  0  0  0
   23.7573  -18.1093  -15.8537 N   0  0  0  0  0  0  0  0  0  0  0  0
   24.0587  -16.3094  -17.4546 C   0  0  0  0  0  0  0  0  0  0  0  0
   23.7099  -14.9625  -17.6112 O   0  0  0  0  0  0  0  0  0  0  0  0
   24.1454  -17.0614  -18.4541 O   0  0  0  0  0  0  0  0  0  0  0  0
  1  2  1  0
  3  2  1  0
  4  3  1  0
  5  4  1  0
  5  6  1  6
  7  5  1  0
  7 11  1  0
  8  7  2  0
 10  9  1  1
 10 11  1  0
 10 12  1  0
 12 13  2  0
 12 19  1  0
 15 14  1  0
 16 15  2  0
 17 15  1  0
 18 20  1  0
 18 17  1  6
 19 18  1  0
 20 21  1  0
 22 20  2  0
M  END
$$$$
