MAN.pdb
     RDKit          3D

 22 21  0  0  1  0  0  0  0  0999 V2000
   26.9228  -18.8390   -7.2310 C   0  0  0  0  0  0  0  0  0  0  0  0
   28.1149  -20.1618   -7.5556 S   0  0  0  0  0  0  0  0  0  0  0  0
   27.7768  -21.0483   -9.0806 C   0  0  0  0  0  0  0  0  0  0  0  0
   26.4710  -20.5795   -9.6722 C   0  0  0  0  0  0  0  0  0  0  0  0
   26.1032  -21.3607  -10.9275 C   0  0  2  0  0  0  0  0  0  0  0  0
   27.2419  -21.8598  -11.6427 N   0  0  0  0  0  0  0  0  0  0  0  0
   25.3254  -20.3957  -11.7712 C   0  0  0  0  0  0  0  0  0  0  0  0
   24.3374  -19.7901  -11.3026 O   0  0  0  0  0  0  0  0  0  0  0  0
   25.5450  -19.1399  -15.3696 C   0  0  0  0  0  0  0  0  0  0  0  0
   24.9579  -19.2031  -13.9496 C   0  0  2  0  0  0  0  0  0  0  0  0
   25.6826  -20.1342  -13.1304 N   0  0  0  0  0  0  0  0  0  0  0  0
   23.5424  -19.5834  -14.1398 C   0  0  0  0  0  0  0  0  0  0  0  0
   22.6425  -18.6743  -14.0633 O   0  0  0  0  0  0  0  0  0  0  0  0
   19.2154  -22.2737  -12.5783 N   0  0  0  0  0  0  0  0  0  0  0  0
   19.6706  -21.0071  -13.0069 C   0  0  0  0  0  0  0  0  0  0  0  0
   18.8400  -20.1041  -13.2852 O   0  0  0  0  0  0  0  0  0  0  0  0
   21.1058  -20.7203  -13.1379 C   0  0  0  0  0  0  0  0  0  0  0  0
   21.6847  -21.2916  -14.4493 C   0  0  2  0  0  0  0  0  0  0  0  0
   23.0835  -20.8718  -14.4041 N   0  0  0  0  0  0  0  0  0  0  0  0
   20.9543  -20.5868  -15.5350 C   0  0  0  0  0  0  0  0  0  0  0  0
   19.7824  -21.1958  -16.0000 O   0  0  0  0  0  0  0  0  0  0  0  0
   21.3430  -19.5018  -16.0287 O   0  0  0  0  0  0  0  0  0  0  0  0
  1  2  1  0
  3  2  1  0
  4  3  1  0
  5  4  1  0
  5  6  1  6
  7  5  1  0
  7 11  1  0
  8  7  2  0
 10  9  1  6
 10 11  1  0
 10 12  1  0
 12 13  2  0
 12 19  1  0
 15 14  1  0
 16 15  2  0
 17 15  1  0
 18 20  1  0
 18 17  1  1
 19 18  1  0
 20 21  1  0
 22 20  2  0
M  END
$$$$
