MAN.pdb
     RDKit          3D

 22 21  0  0  1  0  0  0  0  0999 V2000
   28.1687  -31.5518  -13.4239 C   0  0  0  0  0  0  0  0  0  0  0  0
   27.7963  -31.7140  -15.1878 S   0  0  0  0  0  0  0  0  0  0  0  0
   26.4354  -32.8399  -15.5138 C   0  0  0  0  0  0  0  0  0  0  0  0
   25.4595  -32.8177  -14.3641 C   0  0  0  0  0  0  0  0  0  0  0  0
   24.2981  -33.7784  -14.5861 C   0  0  2  0  0  0  0  0  0  0  0  0
   23.4259  -33.3817  -15.6534 N   0  0  0  0  0  0  0  0  0  0  0  0
   23.5626  -33.8068  -13.2799 C   0  0  0  0  0  0  0  0  0  0  0  0
   23.2756  -32.7453  -12.6854 O   0  0  0  0  0  0  0  0  0  0  0  0
   21.6279  -36.3743  -11.3036 C   0  0  0  0  0  0  0  0  0  0  0  0
   22.4571  -35.0847  -11.4231 C   0  0  2  0  0  0  0  0  0  0  0  0
   23.1651  -35.0380  -12.6721 N   0  0  0  0  0  0  0  0  0  0  0  0
   23.3572  -35.1012  -10.2509 C   0  0  0  0  0  0  0  0  0  0  0  0
   24.5237  -35.6168  -10.3746 O   0  0  0  0  0  0  0  0  0  0  0  0
   26.4862  -32.2036   -6.6775 N   0  0  0  0  0  0  0  0  0  0  0  0
   25.1987  -32.7809   -6.6118 C   0  0  0  0  0  0  0  0  0  0  0  0
   24.6836  -33.0376   -5.4932 O   0  0  0  0  0  0  0  0  0  0  0  0
   24.4432  -33.0928   -7.8329 C   0  0  0  0  0  0  0  0  0  0  0  0
   23.9450  -34.5533   -7.8387 C   0  0  2  0  0  0  0  0  0  0  0  0
   23.0482  -34.5925   -8.9914 N   0  0  0  0  0  0  0  0  0  0  0  0
   23.1856  -34.7088   -6.5705 C   0  0  0  0  0  0  0  0  0  0  0  0
   23.9335  -35.0043   -5.4243 O   0  0  0  0  0  0  0  0  0  0  0  0
   21.9397  -34.5875   -6.4999 O   0  0  0  0  0  0  0  0  0  0  0  0
  1  2  1  0
  3  2  1  0
  4  3  1  0
  5  4  1  0
  5  6  1  6
  7  5  1  0
  7 11  1  0
  8  7  2  0
 10  9  1  6
 10 11  1  0
 10 12  1  0
 12 13  2  0
 12 19  1  0
 15 14  1  0
 16 15  2  0
 17 15  1  0
 18 20  1  0
 18 17  1  1
 19 18  1  0
 20 21  1  0
 22 20  2  0
M  END
$$$$
