MAN.pdb
     RDKit          3D

 22 21  0  0  1  0  0  0  0  0999 V2000
   24.9870  -25.9748  -14.2636 C   0  0  0  0  0  0  0  0  0  0  0  0
   24.9754  -24.1652  -14.2244 S   0  0  0  0  0  0  0  0  0  0  0  0
   23.4964  -23.4925  -13.4590 C   0  0  0  0  0  0  0  0  0  0  0  0
   23.5732  -21.9866  -13.4216 C   0  0  0  0  0  0  0  0  0  0  0  0
   24.9817  -21.4972  -13.1089 C   0  0  2  0  0  0  0  0  0  0  0  0
   25.3139  -21.5684  -11.7154 N   0  0  0  0  0  0  0  0  0  0  0  0
   25.0162  -20.0786  -13.5929 C   0  0  0  0  0  0  0  0  0  0  0  0
   24.2824  -19.2092  -13.0749 O   0  0  0  0  0  0  0  0  0  0  0  0
   27.1983  -18.0026  -15.8813 C   0  0  0  0  0  0  0  0  0  0  0  0
   25.8656  -18.3394  -15.1918 C   0  0  2  0  0  0  0  0  0  0  0  0
   25.8827  -19.6715  -14.6543 N   0  0  0  0  0  0  0  0  0  0  0  0
   24.8383  -18.1534  -16.2380 C   0  0  0  0  0  0  0  0  0  0  0  0
   24.6643  -19.0805  -17.1051 O   0  0  0  0  0  0  0  0  0  0  0  0
   20.5144  -16.5696  -14.5116 N   0  0  0  0  0  0  0  0  0  0  0  0
   21.0323  -16.9829  -15.7591 C   0  0  0  0  0  0  0  0  0  0  0  0
   20.7761  -18.1356  -16.1929 O   0  0  0  0  0  0  0  0  0  0  0  0
   21.8729  -16.0880  -16.5664 C   0  0  0  0  0  0  0  0  0  0  0  0
   22.9478  -16.8686  -17.3515 C   0  0  2  0  0  0  0  0  0  0  0  0
   24.0181  -17.0353  -16.3710 N   0  0  0  0  0  0  0  0  0  0  0  0
   23.3687  -15.9548  -18.4456 C   0  0  0  0  0  0  0  0  0  0  0  0
   24.3351  -14.9943  -18.1232 O   0  0  0  0  0  0  0  0  0  0  0  0
   22.9002  -16.0167  -19.6069 O   0  0  0  0  0  0  0  0  0  0  0  0
  1  2  1  0
  3  2  1  0
  4  3  1  0
  5  4  1  0
  5  6  1  1
  7  5  1  0
  7 11  1  0
  8  7  2  0
 10  9  1  6
 10 11  1  0
 10 12  1  0
 12 13  2  0
 12 19  1  0
 15 14  1  0
 16 15  2  0
 17 15  1  0
 18 20  1  0
 18 17  1  1
 19 18  1  0
 20 21  1  0
 22 20  2  0
M  END
$$$$
