MAN.pdb
     RDKit          3D

 22 21  0  0  1  0  0  0  0  0999 V2000
   22.0867  -10.0586  -21.1353 C   0  0  0  0  0  0  0  0  0  0  0  0
   21.3224  -11.6970  -21.0490 S   0  0  0  0  0  0  0  0  0  0  0  0
   22.2511  -12.8484  -20.0304 C   0  0  0  0  0  0  0  0  0  0  0  0
   22.8876  -12.1183  -18.8743 C   0  0  0  0  0  0  0  0  0  0  0  0
   23.8292  -13.0179  -18.0835 C   0  0  2  0  0  0  0  0  0  0  0  0
   23.3279  -14.3494  -17.9025 N   0  0  0  0  0  0  0  0  0  0  0  0
   24.0045  -12.3307  -16.7625 C   0  0  0  0  0  0  0  0  0  0  0  0
   23.1365  -12.4338  -15.8689 O   0  0  0  0  0  0  0  0  0  0  0  0
   26.7166  -10.2352  -15.1004 C   0  0  0  0  0  0  0  0  0  0  0  0
   25.2816  -10.7585  -15.2793 C   0  0  2  0  0  0  0  0  0  0  0  0
   25.1610  -11.5401  -16.4784 N   0  0  0  0  0  0  0  0  0  0  0  0
   24.4341   -9.5477  -15.2931 C   0  0  0  0  0  0  0  0  0  0  0  0
   24.4120   -8.7969  -14.2550 O   0  0  0  0  0  0  0  0  0  0  0  0
   23.6071   -6.1616  -19.7172 N   0  0  0  0  0  0  0  0  0  0  0  0
   23.4840   -6.4954  -18.3502 C   0  0  0  0  0  0  0  0  0  0  0  0
   24.0650   -5.7970  -17.4800 O   0  0  0  0  0  0  0  0  0  0  0  0
   22.6870   -7.6524  -17.9199 C   0  0  0  0  0  0  0  0  0  0  0  0
   22.8336   -7.9157  -16.4065 C   0  0  2  0  0  0  0  0  0  0  0  0
   23.6381   -9.1344  -16.3590 N   0  0  0  0  0  0  0  0  0  0  0  0
   21.4522   -8.1728  -15.9222 C   0  0  0  0  0  0  0  0  0  0  0  0
   20.7812   -7.0915  -15.3384 O   0  0  0  0  0  0  0  0  0  0  0  0
   20.8906   -9.2897  -16.0177 O   0  0  0  0  0  0  0  0  0  0  0  0
  1  2  1  0
  3  2  1  0
  4  3  1  0
  5  4  1  0
  5  6  1  1
  7  5  1  0
  7 11  1  0
  8  7  2  0
 10  9  1  6
 10 11  1  0
 10 12  1  0
 12 13  2  0
 12 19  1  0
 15 14  1  0
 16 15  2  0
 17 15  1  0
 18 20  1  0
 18 17  1  6
 19 18  1  0
 20 21  1  0
 22 20  2  0
M  END
$$$$
