MAN.pdb
     RDKit          3D

 22 21  0  0  1  0  0  0  0  0999 V2000
   26.1065  -17.6593  -13.6564 C   0  0  0  0  0  0  0  0  0  0  0  0
   26.8697  -16.7355  -15.0130 S   0  0  0  0  0  0  0  0  0  0  0  0
   26.6190  -17.5104  -16.6138 C   0  0  0  0  0  0  0  0  0  0  0  0
   27.2792  -16.6904  -17.6939 C   0  0  0  0  0  0  0  0  0  0  0  0
   26.8452  -15.2308  -17.6444 C   0  0  2  0  0  0  0  0  0  0  0  0
   25.4213  -15.0590  -17.6429 N   0  0  0  0  0  0  0  0  0  0  0  0
   27.4561  -14.6026  -18.8610 C   0  0  0  0  0  0  0  0  0  0  0  0
   28.6917  -14.6398  -19.0467 O   0  0  0  0  0  0  0  0  0  0  0  0
   26.2058  -13.0694  -22.0932 C   0  0  0  0  0  0  0  0  0  0  0  0
   27.2293  -13.2418  -20.9584 C   0  0  2  0  0  0  0  0  0  0  0  0
   26.6550  -13.9448  -19.8452 N   0  0  0  0  0  0  0  0  0  0  0  0
   27.6524  -11.8677  -20.6157 C   0  0  0  0  0  0  0  0  0  0  0  0
   28.2612  -11.1695  -21.5011 O   0  0  0  0  0  0  0  0  0  0  0  0
   25.9663   -8.6937  -20.6754 N   0  0  0  0  0  0  0  0  0  0  0  0
   25.6879   -8.6960  -19.2906 C   0  0  0  0  0  0  0  0  0  0  0  0
   24.6319   -8.1626  -18.8629 O   0  0  0  0  0  0  0  0  0  0  0  0
   26.6149   -9.3112  -18.3307 C   0  0  0  0  0  0  0  0  0  0  0  0
   27.8619   -9.8898  -19.0318 C   0  0  2  0  0  0  0  0  0  0  0  0
   27.4430  -11.2435  -19.3882 N   0  0  0  0  0  0  0  0  0  0  0  0
   28.9164   -9.9194  -17.9849 C   0  0  0  0  0  0  0  0  0  0  0  0
   29.3843   -8.6801  -17.5313 O   0  0  0  0  0  0  0  0  0  0  0  0
   29.3824  -10.9834  -17.5131 O   0  0  0  0  0  0  0  0  0  0  0  0
  1  2  1  0
  3  2  1  0
  4  3  1  0
  5  4  1  0
  5  6  1  6
  7  5  1  0
  7 11  1  0
  8  7  2  0
 10  9  1  6
 10 11  1  0
 10 12  1  0
 12 13  2  0
 12 19  1  0
 15 14  1  0
 16 15  2  0
 17 15  1  0
 18 20  1  0
 18 17  1  1
 19 18  1  0
 20 21  1  0
 22 20  2  0
M  END
$$$$
