MAN.pdb
     RDKit          3D

 22 21  0  0  1  0  0  0  0  0999 V2000
   21.9190   -8.9720  -22.3456 C   0  0  0  0  0  0  0  0  0  0  0  0
   21.8191   -9.1549  -20.5477 S   0  0  0  0  0  0  0  0  0  0  0  0
   20.2448   -8.6103  -19.8764 C   0  0  0  0  0  0  0  0  0  0  0  0
   20.2546   -8.7307  -18.3730 C   0  0  0  0  0  0  0  0  0  0  0  0
   20.2943  -10.1847  -17.9198 C   0  0  2  0  0  0  0  0  0  0  0  0
   19.1042  -10.9161  -18.2451 N   0  0  0  0  0  0  0  0  0  0  0  0
   20.4925  -10.1233  -16.4349 C   0  0  0  0  0  0  0  0  0  0  0  0
   19.5335   -9.8756  -15.6724 O   0  0  0  0  0  0  0  0  0  0  0  0
   23.3975  -10.7171  -14.0396 C   0  0  0  0  0  0  0  0  0  0  0  0
   22.0026  -10.2010  -14.4308 C   0  0  2  0  0  0  0  0  0  0  0  0
   21.7740  -10.3447  -15.8417 N   0  0  0  0  0  0  0  0  0  0  0  0
   21.9790   -8.7924  -13.9839 C   0  0  0  0  0  0  0  0  0  0  0  0
   22.0785   -8.5396  -12.7317 O   0  0  0  0  0  0  0  0  0  0  0  0
   21.8356   -3.5118  -14.2174 N   0  0  0  0  0  0  0  0  0  0  0  0
   22.5609   -4.0913  -15.2819 C   0  0  0  0  0  0  0  0  0  0  0  0
   23.2392   -3.3605  -16.0489 O   0  0  0  0  0  0  0  0  0  0  0  0
   22.5376   -5.5418  -15.5157 C   0  0  0  0  0  0  0  0  0  0  0  0
   21.7919   -6.2896  -14.3905 C   0  0  2  0  0  0  0  0  0  0  0  0
   21.8581   -7.6846  -14.8197 N   0  0  0  0  0  0  0  0  0  0  0  0
   20.3958   -5.7829  -14.4474 C   0  0  0  0  0  0  0  0  0  0  0  0
   19.4995   -6.5037  -15.2457 O   0  0  0  0  0  0  0  0  0  0  0  0
   20.0114   -4.7653  -13.8238 O   0  0  0  0  0  0  0  0  0  0  0  0
  1  2  1  0
  3  2  1  0
  4  3  1  0
  5  4  1  0
  5  6  1  1
  7  5  1  0
  7 11  1  0
  8  7  2  0
 10  9  1  6
 10 11  1  0
 10 12  1  0
 12 13  2  0
 12 19  1  0
 15 14  1  0
 16 15  2  0
 17 15  1  0
 18 20  1  0
 18 17  1  6
 19 18  1  0
 20 21  1  0
 22 20  2  0
M  END
$$$$
