MAN.pdb
     RDKit          3D

 22 21  0  0  1  0  0  0  0  0999 V2000
   24.5209  -18.2907  -14.6088 C   0  0  0  0  0  0  0  0  0  0  0  0
   25.4242  -17.2545  -15.7864 S   0  0  0  0  0  0  0  0  0  0  0  0
   26.9508  -16.5945  -15.1085 C   0  0  0  0  0  0  0  0  0  0  0  0
   26.8638  -15.0922  -15.0060 C   0  0  0  0  0  0  0  0  0  0  0  0
   26.6381  -14.4422  -16.3653 C   0  0  2  0  0  0  0  0  0  0  0  0
   27.5579  -14.8891  -17.3709 N   0  0  0  0  0  0  0  0  0  0  0  0
   26.7889  -12.9705  -16.1217 C   0  0  0  0  0  0  0  0  0  0  0  0
   26.1068  -12.3949  -15.2465 O   0  0  0  0  0  0  0  0  0  0  0  0
   28.9330  -10.1719  -17.5819 C   0  0  0  0  0  0  0  0  0  0  0  0
   27.7765  -10.7492  -16.7487 C   0  0  2  0  0  0  0  0  0  0  0  0
   27.7111  -12.1787  -16.8740 N   0  0  0  0  0  0  0  0  0  0  0  0
   26.5659  -10.0703  -17.2567 C   0  0  0  0  0  0  0  0  0  0  0  0
   25.8796  -10.6378  -18.1780 O   0  0  0  0  0  0  0  0  0  0  0  0
   22.3532   -7.0877  -17.6777 N   0  0  0  0  0  0  0  0  0  0  0  0
   22.4544   -8.1921  -16.8028 C   0  0  0  0  0  0  0  0  0  0  0  0
   21.4168   -8.6745  -16.2801 O   0  0  0  0  0  0  0  0  0  0  0  0
   23.7574   -8.7928  -16.4859 C   0  0  0  0  0  0  0  0  0  0  0  0
   24.8960   -8.1537  -17.3085 C   0  0  2  0  0  0  0  0  0  0  0  0
   26.0873   -8.8395  -16.8133 N   0  0  0  0  0  0  0  0  0  0  0  0
   24.9047   -6.7216  -16.9108 C   0  0  0  0  0  0  0  0  0  0  0  0
   24.0563   -5.8674  -17.6255 O   0  0  0  0  0  0  0  0  0  0  0  0
   25.6240   -6.2725  -15.9872 O   0  0  0  0  0  0  0  0  0  0  0  0
  1  2  1  0
  3  2  1  0
  4  3  1  0
  5  4  1  0
  5  6  1  6
  7  5  1  0
  7 11  1  0
  8  7  2  0
 10  9  1  6
 10 11  1  0
 10 12  1  0
 12 13  2  0
 12 19  1  0
 15 14  1  0
 16 15  2  0
 17 15  1  0
 18 20  1  0
 18 17  1  1
 19 18  1  0
 20 21  1  0
 22 20  2  0
M  END
$$$$
