MAN.pdb
     RDKit          3D

 22 21  0  0  1  0  0  0  0  0999 V2000
   23.7548  -15.5256  -15.4189 C   0  0  0  0  0  0  0  0  0  0  0  0
   23.2217  -13.8850  -14.8710 S   0  0  0  0  0  0  0  0  0  0  0  0
   24.3720  -12.5857  -15.3341 C   0  0  0  0  0  0  0  0  0  0  0  0
   23.9202  -11.2665  -14.7594 C   0  0  0  0  0  0  0  0  0  0  0  0
   22.4707  -10.9591  -15.1136 C   0  0  2  0  0  0  0  0  0  0  0  0
   22.2272  -10.9085  -16.5262 N   0  0  0  0  0  0  0  0  0  0  0  0
   22.1884   -9.6315  -14.4767 C   0  0  0  0  0  0  0  0  0  0  0  0
   22.3611   -9.4621  -13.2503 O   0  0  0  0  0  0  0  0  0  0  0  0
   20.9523   -6.2306  -15.6839 C   0  0  0  0  0  0  0  0  0  0  0  0
   21.2446   -7.3101  -14.6283 C   0  0  2  0  0  0  0  0  0  0  0  0
   21.7167   -8.5201  -15.2418 N   0  0  0  0  0  0  0  0  0  0  0  0
   19.9681   -7.4908  -13.9054 C   0  0  0  0  0  0  0  0  0  0  0  0
   19.0882   -8.2840  -14.3937 O   0  0  0  0  0  0  0  0  0  0  0  0
   16.2371   -6.9697  -10.2039 N   0  0  0  0  0  0  0  0  0  0  0  0
   17.4945   -6.5550   -9.7118 C   0  0  0  0  0  0  0  0  0  0  0  0
   17.6133   -6.2099   -8.5079 O   0  0  0  0  0  0  0  0  0  0  0  0
   18.6760   -6.5155  -10.5844 C   0  0  0  0  0  0  0  0  0  0  0  0
   18.3431   -6.9807  -12.0176 C   0  0  2  0  0  0  0  0  0  0  0  0
   19.6247   -6.8644  -12.7095 N   0  0  0  0  0  0  0  0  0  0  0  0
   17.3698   -5.9825  -12.5328 C   0  0  0  0  0  0  0  0  0  0  0  0
   16.0140   -6.3145  -12.4231 O   0  0  0  0  0  0  0  0  0  0  0  0
   17.7152   -4.8912  -13.0445 O   0  0  0  0  0  0  0  0  0  0  0  0
  1  2  1  0
  3  2  1  0
  4  3  1  0
  5  4  1  0
  5  6  1  6
  7  5  1  0
  7 11  1  0
  8  7  2  0
 10  9  1  6
 10 11  1  0
 10 12  1  0
 12 13  2  0
 12 19  1  0
 15 14  1  0
 16 15  2  0
 17 15  1  0
 18 20  1  0
 18 17  1  1
 19 18  1  0
 20 21  1  0
 22 20  2  0
M  END
$$$$
