WME.pdb
     RDKit          3D

 32 33  0  0  1  0  0  0  0  0999 V2000
   23.8034  -12.6760  -18.5755 N   0  0  0  0  0  0  0  0  0  0  0  0
   23.1804  -11.4992  -19.2048 C   0  0  1  0  0  0  0  0  0  0  0  0
   21.7396  -11.5091  -18.7604 C   0  0  0  0  0  0  0  0  0  0  0  0
   21.0138  -12.6214  -19.4128 C   0  0  0  0  0  0  0  0  0  0  0  0
   21.5777  -13.6283  -20.1793 C   0  0  0  0  0  0  0  0  0  0  0  0
   20.6166  -14.4488  -20.6079 N   0  0  0  0  0  0  0  0  0  0  0  0
   19.4224  -13.9985  -20.1353 C   0  0  0  0  0  0  0  0  0  0  0  0
   18.1264  -14.4843  -20.2839 C   0  0  0  0  0  0  0  0  0  0  0  0
   17.0624  -13.8375  -19.6901 C   0  0  0  0  0  0  0  0  0  0  0  0
   17.3287  -12.6930  -18.9439 C   0  0  0  0  0  0  0  0  0  0  0  0
   18.5963  -12.2059  -18.7903 C   0  0  0  0  0  0  0  0  0  0  0  0
   19.6583  -12.8661  -19.3929 C   0  0  0  0  0  0  0  0  0  0  0  0
   23.8781  -10.2613  -18.7526 C   0  0  0  0  0  0  0  0  0  0  0  0
   24.1668  -10.1066  -17.5175 O   0  0  0  0  0  0  0  0  0  0  0  0
   29.2830   -8.7748  -22.4600 C   0  0  0  0  0  0  0  0  0  0  0  0
   27.9920   -7.6240  -21.9152 S   0  0  0  0  0  0  0  0  0  0  0  0
   26.9908   -8.4162  -20.6026 C   0  0  0  0  0  0  0  0  0  0  0  0
   25.8968   -7.5043  -20.1770 C   0  0  0  0  0  0  0  0  0  0  0  0
   24.9904   -8.0368  -19.1123 C   0  0  2  0  0  0  0  0  0  0  0  0
   24.2567   -9.2104  -19.6206 N   0  0  0  0  0  0  0  0  0  0  0  0
   24.0490   -7.0167  -18.6128 C   0  0  0  0  0  0  0  0  0  0  0  0
   23.0928   -6.5229  -19.2514 O   0  0  0  0  0  0  0  0  0  0  0  0
   24.1769   -6.4897  -17.2731 N   0  0  0  0  0  0  0  0  0  0  0  0
   23.3156   -5.4982  -16.7394 C   0  0  1  0  0  0  0  0  0  0  0  0
   22.0981   -6.0539  -16.0406 C   0  0  0  0  0  0  0  0  0  0  0  0
   22.4275   -6.6696  -14.7050 C   0  0  0  0  0  0  0  0  0  0  0  0
   21.1842   -7.2007  -14.0630 C   0  0  0  0  0  0  0  0  0  0  0  0
   20.7689   -8.3662  -14.2339 O   0  0  0  0  0  0  0  0  0  0  0  0
   23.9476   -4.5375  -15.8173 C   0  0  0  0  0  0  0  0  0  0  0  0
   23.2541   -3.3712  -15.5416 O   0  0  0  0  0  0  0  0  0  0  0  0
   20.4458   -6.3460  -13.2261 O   0  0  0  0  0  0  0  0  0  0  0  0
   25.0565   -4.6892  -15.2644 O   0  0  0  0  0  0  0  0  0  0  0  0
  2  1  1  1
  2  3  1  0
  4  5  2  0
  4  3  1  0
  6  5  1  0
  7 12  2  0
  7  6  1  0
  8  7  1  0
  9 10  1  0
  9  8  2  0
 10 11  2  0
 11 12  1  0
 12  4  1  0
 13  2  1  0
 13 14  2  0
 16 15  1  0
 17 16  1  0
 18 17  1  0
 19 18  1  6
 20 19  1  0
 20 13  1  0
 21 19  1  0
 22 21  2  0
 23 21  1  0
 24 23  1  0
 24 25  1  1
 25 26  1  0
 26 27  1  0
 27 31  1  0
 27 28  2  0
 29 30  1  0
 29 24  1  0
 32 29  2  0
M  END
$$$$
