WME.pdb
     RDKit          3D

 32 33  0  0  1  0  0  0  0  0999 V2000
   28.1242  -20.9534  -15.2083 N   0  0  0  0  0  0  0  0  0  0  0  0
   27.0817  -20.1468  -14.5511 C   0  0  1  0  0  0  0  0  0  0  0  0
   26.0231  -19.9101  -15.5983 C   0  0  0  0  0  0  0  0  0  0  0  0
   26.4893  -18.8993  -16.5733 C   0  0  0  0  0  0  0  0  0  0  0  0
   26.8968  -19.1445  -17.8745 C   0  0  0  0  0  0  0  0  0  0  0  0
   27.2540  -17.9949  -18.4502 N   0  0  0  0  0  0  0  0  0  0  0  0
   27.0886  -16.9904  -17.5469 C   0  0  0  0  0  0  0  0  0  0  0  0
   27.3083  -15.6189  -17.6384 C   0  0  0  0  0  0  0  0  0  0  0  0
   27.0545  -14.7945  -16.5618 C   0  0  0  0  0  0  0  0  0  0  0  0
   26.5751  -15.3775  -15.3923 C   0  0  0  0  0  0  0  0  0  0  0  0
   26.3552  -16.7225  -15.2897 C   0  0  0  0  0  0  0  0  0  0  0  0
   26.6145  -17.5411  -16.3803 C   0  0  0  0  0  0  0  0  0  0  0  0
   26.5315  -20.8946  -13.3842 C   0  0  0  0  0  0  0  0  0  0  0  0
   26.1716  -22.1132  -13.5193 O   0  0  0  0  0  0  0  0  0  0  0  0
   28.5615  -20.7553   -6.6856 C   0  0  0  0  0  0  0  0  0  0  0  0
   27.0406  -20.1347   -7.4536 S   0  0  0  0  0  0  0  0  0  0  0  0
   26.8613  -20.8708   -9.1205 C   0  0  0  0  0  0  0  0  0  0  0  0
   25.6354  -20.3476   -9.7785 C   0  0  0  0  0  0  0  0  0  0  0  0
   25.3699  -20.8683  -11.1559 C   0  0  2  0  0  0  0  0  0  0  0  0
   26.3737  -20.3344  -12.0948 N   0  0  0  0  0  0  0  0  0  0  0  0
   24.0069  -20.5527  -11.6238 C   0  0  0  0  0  0  0  0  0  0  0  0
   23.6369  -19.4725  -12.1357 O   0  0  0  0  0  0  0  0  0  0  0  0
   22.9467  -21.5290  -11.5153 N   0  0  0  0  0  0  0  0  0  0  0  0
   21.6147  -21.2838  -11.9344 C   0  0  1  0  0  0  0  0  0  0  0  0
   21.1123  -22.2500  -12.9800 C   0  0  0  0  0  0  0  0  0  0  0  0
   19.7092  -21.9364  -13.4319 C   0  0  0  0  0  0  0  0  0  0  0  0
   19.2755  -22.9142  -14.4787 C   0  0  0  0  0  0  0  0  0  0  0  0
   20.0652  -23.6795  -15.0708 O   0  0  0  0  0  0  0  0  0  0  0  0
   20.6079  -21.2423  -10.8587 C   0  0  0  0  0  0  0  0  0  0  0  0
   19.3496  -20.7650  -11.1842 O   0  0  0  0  0  0  0  0  0  0  0  0
   17.9115  -22.9749  -14.8135 O   0  0  0  0  0  0  0  0  0  0  0  0
   20.7966  -21.6024   -9.6783 O   0  0  0  0  0  0  0  0  0  0  0  0
  2  1  1  6
  2  3  1  0
  4  5  2  0
  4  3  1  0
  6  5  1  0
  7 12  2  0
  7  6  1  0
  8  7  1  0
  9 10  1  0
  9  8  2  0
 10 11  2  0
 11 12  1  0
 12  4  1  0
 13  2  1  0
 13 14  2  0
 16 15  1  0
 17 16  1  0
 18 17  1  0
 19 18  1  1
 20 19  1  0
 20 13  1  0
 21 19  1  0
 22 21  2  0
 23 21  1  0
 24 23  1  0
 24 25  1  6
 25 26  1  0
 26 27  1  0
 27 31  1  0
 27 28  2  0
 29 30  1  0
 29 24  1  0
 32 29  2  0
M  END
$$$$
