WME.pdb
     RDKit          3D

 32 33  0  0  1  0  0  0  0  0999 V2000
   28.6116  -21.2738   -9.6962 N   0  0  0  0  0  0  0  0  0  0  0  0
   27.1957  -21.0306  -10.0207 C   0  0  1  0  0  0  0  0  0  0  0  0
   26.7936  -19.8155   -9.2237 C   0  0  0  0  0  0  0  0  0  0  0  0
   26.5963  -20.1813   -7.8034 C   0  0  0  0  0  0  0  0  0  0  0  0
   25.4846  -20.8106   -7.2674 C   0  0  0  0  0  0  0  0  0  0  0  0
   25.6581  -20.9723   -5.9543 N   0  0  0  0  0  0  0  0  0  0  0  0
   26.8710  -20.4580   -5.6128 C   0  0  0  0  0  0  0  0  0  0  0  0
   27.5297  -20.3764   -4.3893 C   0  0  0  0  0  0  0  0  0  0  0  0
   28.7804  -19.8010   -4.3029 C   0  0  0  0  0  0  0  0  0  0  0  0
   29.3549  -19.3100   -5.4718 C   0  0  0  0  0  0  0  0  0  0  0  0
   28.7187  -19.3841   -6.6792 C   0  0  0  0  0  0  0  0  0  0  0  0
   27.4604  -19.9655   -6.7526 C   0  0  0  0  0  0  0  0  0  0  0  0
   27.0519  -20.7896  -11.4852 C   0  0  0  0  0  0  0  0  0  0  0  0
   27.4058  -19.6682  -11.9851 O   0  0  0  0  0  0  0  0  0  0  0  0
   28.5875  -24.1181  -16.4224 C   0  0  0  0  0  0  0  0  0  0  0  0
   29.6687  -22.9090  -15.6118 S   0  0  0  0  0  0  0  0  0  0  0  0
   28.6563  -21.7987  -14.5654 C   0  0  0  0  0  0  0  0  0  0  0  0
   27.2184  -22.1545  -14.6889 C   0  0  0  0  0  0  0  0  0  0  0  0
   26.2862  -21.3909  -13.8019 C   0  0  2  0  0  0  0  0  0  0  0  0
   26.5350  -21.7443  -12.3921 N   0  0  0  0  0  0  0  0  0  0  0  0
   24.8697  -21.6159  -14.1476 C   0  0  0  0  0  0  0  0  0  0  0  0
   24.0434  -22.2708  -13.4738 O   0  0  0  0  0  0  0  0  0  0  0  0
   24.3105  -21.0611  -15.3594 N   0  0  0  0  0  0  0  0  0  0  0  0
   22.9348  -20.7565  -15.5154 C   0  0  1  0  0  0  0  0  0  0  0  0
   22.3931  -19.8106  -14.4708 C   0  0  0  0  0  0  0  0  0  0  0  0
   20.9036  -19.6118  -14.5860 C   0  0  0  0  0  0  0  0  0  0  0  0
   20.4191  -18.7104  -13.4938 C   0  0  0  0  0  0  0  0  0  0  0  0
   21.1387  -17.8485  -12.9469 O   0  0  0  0  0  0  0  0  0  0  0  0
   22.5485  -20.2196  -16.8327 C   0  0  0  0  0  0  0  0  0  0  0  0
   21.4347  -20.7720  -17.4420 O   0  0  0  0  0  0  0  0  0  0  0  0
   19.0880  -18.8398  -13.0607 O   0  0  0  0  0  0  0  0  0  0  0  0
   23.1431  -19.3078  -17.4437 O   0  0  0  0  0  0  0  0  0  0  0  0
  2  1  1  6
  2  3  1  0
  4  5  2  0
  4  3  1  0
  6  5  1  0
  7 12  2  0
  7  6  1  0
  8  7  1  0
  9 10  1  0
  9  8  2  0
 10 11  2  0
 11 12  1  0
 12  4  1  0
 13  2  1  0
 13 14  2  0
 16 15  1  0
 17 16  1  0
 18 17  1  0
 19 18  1  6
 20 19  1  0
 20 13  1  0
 21 19  1  0
 22 21  2  0
 23 21  1  0
 24 23  1  0
 24 25  1  1
 25 26  1  0
 26 27  1  0
 27 31  1  0
 27 28  2  0
 29 30  1  0
 29 24  1  0
 32 29  2  0
M  END
$$$$
