WME.pdb
     RDKit          3D

 32 33  0  0  1  0  0  0  0  0999 V2000
   24.8808  -19.1680  -11.7174 N   0  0  0  0  0  0  0  0  0  0  0  0
   26.0930  -19.9594  -11.9883 C   0  0  1  0  0  0  0  0  0  0  0  0
   25.9826  -21.1902  -11.1243 C   0  0  0  0  0  0  0  0  0  0  0  0
   26.1319  -20.8254   -9.6980 C   0  0  0  0  0  0  0  0  0  0  0  0
   25.1091  -20.4757   -8.8314 C   0  0  0  0  0  0  0  0  0  0  0  0
   25.6209  -20.2052   -7.6293 N   0  0  0  0  0  0  0  0  0  0  0  0
   26.9705  -20.3711   -7.6877 C   0  0  0  0  0  0  0  0  0  0  0  0
   27.9632  -20.2229   -6.7232 C   0  0  0  0  0  0  0  0  0  0  0  0
   29.2859  -20.4590   -7.0358 C   0  0  0  0  0  0  0  0  0  0  0  0
   29.5893  -20.8475   -8.3375 C   0  0  0  0  0  0  0  0  0  0  0  0
   28.6242  -20.9965   -9.2936 C   0  0  0  0  0  0  0  0  0  0  0  0
   27.2969  -20.7559   -8.9662 C   0  0  0  0  0  0  0  0  0  0  0  0
   26.1450  -20.3163  -13.4352 C   0  0  0  0  0  0  0  0  0  0  0  0
   25.0617  -20.5218  -14.0810 O   0  0  0  0  0  0  0  0  0  0  0  0
   30.7139  -20.7700  -19.9351 C   0  0  0  0  0  0  0  0  0  0  0  0
   30.4652  -20.1789  -18.2390 S   0  0  0  0  0  0  0  0  0  0  0  0
   28.7974  -20.6712  -17.6657 C   0  0  0  0  0  0  0  0  0  0  0  0
   28.6268  -20.3162  -16.2323 C   0  0  0  0  0  0  0  0  0  0  0  0
   27.3213  -20.7150  -15.6197 C   0  0  2  0  0  0  0  0  0  0  0  0
   27.3466  -20.4483  -14.1698 N   0  0  0  0  0  0  0  0  0  0  0  0
   26.9868  -22.1284  -15.8783 C   0  0  0  0  0  0  0  0  0  0  0  0
   27.4916  -23.1201  -15.3059 O   0  0  0  0  0  0  0  0  0  0  0  0
   25.9947  -22.4811  -16.8683 N   0  0  0  0  0  0  0  0  0  0  0  0
   25.6461  -23.8192  -17.1810 C   0  0  1  0  0  0  0  0  0  0  0  0
   24.2344  -24.1918  -16.7968 C   0  0  0  0  0  0  0  0  0  0  0  0
   23.2377  -23.1139  -17.1378 C   0  0  0  0  0  0  0  0  0  0  0  0
   21.8963  -23.7206  -17.4072 C   0  0  0  0  0  0  0  0  0  0  0  0
   21.6840  -24.9512  -17.3859 O   0  0  0  0  0  0  0  0  0  0  0  0
   25.8332  -24.2117  -18.5894 C   0  0  0  0  0  0  0  0  0  0  0  0
   25.7677  -25.5625  -18.8866 O   0  0  0  0  0  0  0  0  0  0  0  0
   20.8210  -22.8636  -17.6995 O   0  0  0  0  0  0  0  0  0  0  0  0
   26.0456  -23.4262  -19.5362 O   0  0  0  0  0  0  0  0  0  0  0  0
  2  1  1  6
  2  3  1  0
  4  5  2  0
  4  3  1  0
  6  5  1  0
  7 12  2  0
  7  6  1  0
  8  7  1  0
  9 10  1  0
  9  8  2  0
 10 11  2  0
 11 12  1  0
 12  4  1  0
 13  2  1  0
 13 14  2  0
 16 15  1  0
 17 16  1  0
 18 17  1  0
 19 18  1  1
 20 19  1  0
 20 13  1  0
 21 19  1  0
 22 21  2  0
 23 21  1  0
 24 23  1  0
 24 25  1  6
 25 26  1  0
 26 27  1  0
 27 31  1  0
 27 28  2  0
 29 30  1  0
 29 24  1  0
 32 29  2  0
M  END
$$$$
