WME.pdb
     RDKit          3D

 32 33  0  0  1  0  0  0  0  0999 V2000
   28.6370  -22.0447  -10.1918 N   0  0  0  0  0  0  0  0  0  0  0  0
   27.5692  -21.1542   -9.7062 C   0  0  1  0  0  0  0  0  0  0  0  0
   28.2628  -19.9069   -9.2198 C   0  0  0  0  0  0  0  0  0  0  0  0
   28.9692  -20.1807   -7.9487 C   0  0  0  0  0  0  0  0  0  0  0  0
   30.0988  -20.9677   -7.7934 C   0  0  0  0  0  0  0  0  0  0  0  0
   30.4488  -20.9899   -6.5060 N   0  0  0  0  0  0  0  0  0  0  0  0
   29.5655  -20.2276   -5.8055 C   0  0  0  0  0  0  0  0  0  0  0  0
   29.4809  -19.9193   -4.4507 C   0  0  0  0  0  0  0  0  0  0  0  0
   28.4737  -19.1036   -3.9784 C   0  0  0  0  0  0  0  0  0  0  0  0
   27.5541  -18.6042   -4.8963 C   0  0  0  0  0  0  0  0  0  0  0  0
   27.6261  -18.8993   -6.2288 C   0  0  0  0  0  0  0  0  0  0  0  0
   28.6445  -19.7213   -6.6913 C   0  0  0  0  0  0  0  0  0  0  0  0
   26.6259  -20.8498  -10.8203 C   0  0  0  0  0  0  0  0  0  0  0  0
   27.0754  -20.6418  -11.9982 O   0  0  0  0  0  0  0  0  0  0  0  0
   24.6016  -24.4222  -16.1213 C   0  0  0  0  0  0  0  0  0  0  0  0
   24.7575  -24.2892  -14.3196 S   0  0  0  0  0  0  0  0  0  0  0  0
   24.3479  -22.5813  -13.8019 C   0  0  0  0  0  0  0  0  0  0  0  0
   24.6098  -22.4137  -12.3484 C   0  0  0  0  0  0  0  0  0  0  0  0
   24.3177  -21.0556  -11.7924 C   0  0  2  0  0  0  0  0  0  0  0  0
   25.2222  -20.7721  -10.6629 N   0  0  0  0  0  0  0  0  0  0  0  0
   22.9102  -20.9092  -11.3752 C   0  0  0  0  0  0  0  0  0  0  0  0
   22.5120  -20.5014  -10.2613 O   0  0  0  0  0  0  0  0  0  0  0  0
   21.8351  -21.2471  -12.2802 N   0  0  0  0  0  0  0  0  0  0  0  0
   20.7755  -20.3605  -12.5981 C   0  0  1  0  0  0  0  0  0  0  0  0
   21.2327  -19.0168  -13.1125 C   0  0  0  0  0  0  0  0  0  0  0  0
   20.1153  -18.0070  -13.1679 C   0  0  0  0  0  0  0  0  0  0  0  0
   20.2482  -17.1597  -14.3944 C   0  0  0  0  0  0  0  0  0  0  0  0
   19.8391  -17.5143  -15.5199 O   0  0  0  0  0  0  0  0  0  0  0  0
   19.7796  -20.8779  -13.5537 C   0  0  0  0  0  0  0  0  0  0  0  0
   18.4486  -20.5915  -13.3016 O   0  0  0  0  0  0  0  0  0  0  0  0
   20.8647  -15.9019  -14.2751 O   0  0  0  0  0  0  0  0  0  0  0  0
   20.0378  -21.5528  -14.5717 O   0  0  0  0  0  0  0  0  0  0  0  0
  2  1  1  6
  2  3  1  0
  4  5  2  0
  4  3  1  0
  6  5  1  0
  7 12  2  0
  7  6  1  0
  8  7  1  0
  9 10  1  0
  9  8  2  0
 10 11  2  0
 11 12  1  0
 12  4  1  0
 13  2  1  0
 13 14  2  0
 16 15  1  0
 17 16  1  0
 18 17  1  0
 19 18  1  1
 20 19  1  0
 20 13  1  0
 21 19  1  0
 22 21  2  0
 23 21  1  0
 24 23  1  0
 24 25  1  6
 25 26  1  0
 26 27  1  0
 27 31  1  0
 27 28  2  0
 29 30  1  0
 29 24  1  0
 32 29  2  0
M  END
$$$$
