WME.pdb
     RDKit          3D

 32 33  0  0  1  0  0  0  0  0999 V2000
   26.3043  -22.5818  -13.0936 N   0  0  0  0  0  0  0  0  0  0  0  0
   25.3952  -21.6463  -12.4097 C   0  0  1  0  0  0  0  0  0  0  0  0
   26.1838  -20.3765  -12.2120 C   0  0  0  0  0  0  0  0  0  0  0  0
   27.3325  -20.6259  -11.3132 C   0  0  0  0  0  0  0  0  0  0  0  0
   28.6321  -20.9044  -11.7042 C   0  0  0  0  0  0  0  0  0  0  0  0
   29.3922  -21.0779  -10.6214 N   0  0  0  0  0  0  0  0  0  0  0  0
   28.6129  -20.9181   -9.5171 C   0  0  0  0  0  0  0  0  0  0  0  0
   28.9082  -20.9891   -8.1586 C   0  0  0  0  0  0  0  0  0  0  0  0
   27.9240  -20.7796   -7.2149 C   0  0  0  0  0  0  0  0  0  0  0  0
   26.6377  -20.4970   -7.6655 C   0  0  0  0  0  0  0  0  0  0  0  0
   26.3349  -20.4244   -8.9962 C   0  0  0  0  0  0  0  0  0  0  0  0
   27.3343  -20.6373   -9.9357 C   0  0  0  0  0  0  0  0  0  0  0  0
   24.1908  -21.4096  -13.2564 C   0  0  0  0  0  0  0  0  0  0  0  0
   23.8841  -22.2414  -14.1766 O   0  0  0  0  0  0  0  0  0  0  0  0
   18.1598  -23.5335  -10.3782 C   0  0  0  0  0  0  0  0  0  0  0  0
   19.8782  -22.9550  -10.3960 S   0  0  0  0  0  0  0  0  0  0  0  0
   20.1078  -21.7851  -11.7858 C   0  0  0  0  0  0  0  0  0  0  0  0
   21.5434  -21.4213  -11.9126 C   0  0  0  0  0  0  0  0  0  0  0  0
   21.8726  -20.4691  -13.0189 C   0  0  2  0  0  0  0  0  0  0  0  0
   23.3337  -20.2937  -13.1100 N   0  0  0  0  0  0  0  0  0  0  0  0
   21.2057  -19.1635  -12.8546 C   0  0  0  0  0  0  0  0  0  0  0  0
   20.5140  -18.8093  -11.8738 O   0  0  0  0  0  0  0  0  0  0  0  0
   21.3145  -18.1473  -13.8766 N   0  0  0  0  0  0  0  0  0  0  0  0
   20.3613  -17.9773  -14.9121 C   0  0  1  0  0  0  0  0  0  0  0  0
   20.7753  -18.5805  -16.2327 C   0  0  0  0  0  0  0  0  0  0  0  0
   21.4984  -17.5975  -17.1172 C   0  0  0  0  0  0  0  0  0  0  0  0
   22.9748  -17.6908  -16.8900 C   0  0  0  0  0  0  0  0  0  0  0  0
   23.6243  -18.7482  -17.0308 O   0  0  0  0  0  0  0  0  0  0  0  0
   19.0045  -18.4697  -14.6135 C   0  0  0  0  0  0  0  0  0  0  0  0
   18.0089  -17.5231  -14.4408 O   0  0  0  0  0  0  0  0  0  0  0  0
   23.6659  -16.5311  -16.4979 O   0  0  0  0  0  0  0  0  0  0  0  0
   18.6794  -19.6700  -14.5038 O   0  0  0  0  0  0  0  0  0  0  0  0
  2  1  1  6
  2  3  1  0
  4  5  2  0
  4  3  1  0
  6  5  1  0
  7 12  2  0
  7  6  1  0
  8  7  1  0
  9 10  1  0
  9  8  2  0
 10 11  2  0
 11 12  1  0
 12  4  1  0
 13  2  1  0
 13 14  2  0
 16 15  1  0
 17 16  1  0
 18 17  1  0
 19 18  1  1
 20 19  1  0
 20 13  1  0
 21 19  1  0
 22 21  2  0
 23 21  1  0
 24 23  1  0
 24 25  1  6
 25 26  1  0
 26 27  1  0
 27 31  1  0
 27 28  2  0
 29 30  1  0
 29 24  1  0
 32 29  2  0
M  END
$$$$
