WME.pdb
     RDKit          3D

 32 33  0  0  1  0  0  0  0  0999 V2000
   18.9762  -18.8283  -25.2397 N   0  0  0  0  0  0  0  0  0  0  0  0
   19.7093  -19.1050  -23.9926 C   0  0  1  0  0  0  0  0  0  0  0  0
   19.1677  -18.1353  -22.9729 C   0  0  0  0  0  0  0  0  0  0  0  0
   19.6356  -16.7646  -23.2759 C   0  0  0  0  0  0  0  0  0  0  0  0
   18.9692  -15.8235  -24.0438 C   0  0  0  0  0  0  0  0  0  0  0  0
   19.6962  -14.7063  -24.1035 N   0  0  0  0  0  0  0  0  0  0  0  0
   20.8365  -14.8946  -23.3848 C   0  0  0  0  0  0  0  0  0  0  0  0
   21.9158  -14.0546  -23.1258 C   0  0  0  0  0  0  0  0  0  0  0  0
   22.9703  -14.4867  -22.3485 C   0  0  0  0  0  0  0  0  0  0  0  0
   22.9167  -15.7801  -21.8370 C   0  0  0  0  0  0  0  0  0  0  0  0
   21.8629  -16.6146  -22.0838 C   0  0  0  0  0  0  0  0  0  0  0  0
   20.8080  -16.1676  -22.8675 C   0  0  0  0  0  0  0  0  0  0  0  0
   19.4732  -20.5172  -23.5759 C   0  0  0  0  0  0  0  0  0  0  0  0
   18.3479  -21.0733  -23.8146 O   0  0  0  0  0  0  0  0  0  0  0  0
   21.9701  -25.9529  -25.2359 C   0  0  0  0  0  0  0  0  0  0  0  0
   20.5798  -25.8852  -24.0738 S   0  0  0  0  0  0  0  0  0  0  0  0
   21.1108  -25.0284  -22.5452 C   0  0  0  0  0  0  0  0  0  0  0  0
   21.3089  -23.5804  -22.8163 C   0  0  0  0  0  0  0  0  0  0  0  0
   20.1327  -22.7025  -22.5250 C   0  0  2  0  0  0  0  0  0  0  0  0
   20.4370  -21.3130  -22.9134 N   0  0  0  0  0  0  0  0  0  0  0  0
   19.7215  -22.7641  -21.1096 C   0  0  0  0  0  0  0  0  0  0  0  0
   20.1272  -22.0154  -20.1927 O   0  0  0  0  0  0  0  0  0  0  0  0
   18.7657  -23.7519  -20.6628 N   0  0  0  0  0  0  0  0  0  0  0  0
   18.4155  -23.9388  -19.3018 C   0  0  1  0  0  0  0  0  0  0  0  0
   17.0698  -24.5920  -19.0982 C   0  0  0  0  0  0  0  0  0  0  0  0
   15.9230  -23.6693  -19.4225 C   0  0  0  0  0  0  0  0  0  0  0  0
   14.6286  -24.4184  -19.3661 C   0  0  0  0  0  0  0  0  0  0  0  0
   14.1863  -24.9448  -18.3235 O   0  0  0  0  0  0  0  0  0  0  0  0
   19.3920  -24.6893  -18.4920 C   0  0  0  0  0  0  0  0  0  0  0  0
   19.1422  -24.7973  -17.1344 O   0  0  0  0  0  0  0  0  0  0  0  0
   13.8721  -24.5366  -20.5451 O   0  0  0  0  0  0  0  0  0  0  0  0
   20.4257  -25.2356  -18.9297 O   0  0  0  0  0  0  0  0  0  0  0  0
  2  1  1  6
  2  3  1  0
  4  5  2  0
  4  3  1  0
  6  5  1  0
  7 12  2  0
  7  6  1  0
  8  7  1  0
  9 10  1  0
  9  8  2  0
 10 11  2  0
 11 12  1  0
 12  4  1  0
 13  2  1  0
 13 14  2  0
 16 15  1  0
 17 16  1  0
 18 17  1  0
 19 18  1  1
 20 19  1  0
 20 13  1  0
 21 19  1  0
 22 21  2  0
 23 21  1  0
 24 23  1  0
 24 25  1  6
 25 26  1  0
 26 27  1  0
 27 31  1  0
 27 28  2  0
 29 30  1  0
 29 24  1  0
 32 29  2  0
M  END
$$$$
