WME.pdb
     RDKit          3D

 32 33  0  0  1  0  0  0  0  0999 V2000
   27.3254  -21.2071  -15.6788 N   0  0  0  0  0  0  0  0  0  0  0  0
   27.3701  -20.3098  -14.5117 C   0  0  1  0  0  0  0  0  0  0  0  0
   26.6078  -19.0727  -14.9142 C   0  0  0  0  0  0  0  0  0  0  0  0
   27.2661  -18.4231  -16.0693 C   0  0  0  0  0  0  0  0  0  0  0  0
   26.6298  -17.8620  -17.1646 C   0  0  0  0  0  0  0  0  0  0  0  0
   27.5442  -17.3774  -18.0070 N   0  0  0  0  0  0  0  0  0  0  0  0
   28.7790  -17.6102  -17.4841 C   0  0  0  0  0  0  0  0  0  0  0  0
   30.0541  -17.3070  -17.9529 C   0  0  0  0  0  0  0  0  0  0  0  0
   31.1711  -17.6517  -17.2206 C   0  0  0  0  0  0  0  0  0  0  0  0
   30.9794  -18.3069  -16.0075 C   0  0  0  0  0  0  0  0  0  0  0  0
   29.7329  -18.6102  -15.5361 C   0  0  0  0  0  0  0  0  0  0  0  0
   28.6170  -18.2578  -16.2826 C   0  0  0  0  0  0  0  0  0  0  0  0
   26.7354  -20.9798  -13.3404 C   0  0  0  0  0  0  0  0  0  0  0  0
   25.9333  -21.9577  -13.5221 O   0  0  0  0  0  0  0  0  0  0  0  0
   26.9840  -19.4640   -6.8586 C   0  0  0  0  0  0  0  0  0  0  0  0
   28.3606  -20.3567   -7.6306 S   0  0  0  0  0  0  0  0  0  0  0  0
   27.8101  -21.0459   -9.2351 C   0  0  0  0  0  0  0  0  0  0  0  0
   26.4969  -20.4627   -9.6156 C   0  0  0  0  0  0  0  0  0  0  0  0
   25.9663  -20.8830  -10.9500 C   0  0  2  0  0  0  0  0  0  0  0  0
   26.9645  -20.5989  -11.9974 N   0  0  0  0  0  0  0  0  0  0  0  0
   24.6807  -20.2359  -11.2736 C   0  0  0  0  0  0  0  0  0  0  0  0
   24.5339  -19.0826  -11.7364 O   0  0  0  0  0  0  0  0  0  0  0  0
   23.4322  -20.9335  -11.0653 N   0  0  0  0  0  0  0  0  0  0  0  0
   22.2187  -20.5674  -11.7003 C   0  0  1  0  0  0  0  0  0  0  0  0
   22.2979  -20.5420  -13.2078 C   0  0  0  0  0  0  0  0  0  0  0  0
   21.0254  -20.0477  -13.8464 C   0  0  0  0  0  0  0  0  0  0  0  0
   20.5981  -20.9838  -14.9332 C   0  0  0  0  0  0  0  0  0  0  0  0
   19.4936  -20.9047  -15.5107 O   0  0  0  0  0  0  0  0  0  0  0  0
   21.0426  -21.3789  -11.3386 C   0  0  0  0  0  0  0  0  0  0  0  0
   21.2472  -22.4479  -10.4827 O   0  0  0  0  0  0  0  0  0  0  0  0
   21.4832  -22.0037  -15.3239 O   0  0  0  0  0  0  0  0  0  0  0  0
   19.8772  -21.1812  -11.7403 O   0  0  0  0  0  0  0  0  0  0  0  0
  2  1  1  6
  2  3  1  0
  4  5  2  0
  4  3  1  0
  6  5  1  0
  7 12  2  0
  7  6  1  0
  8  7  1  0
  9 10  1  0
  9  8  2  0
 10 11  2  0
 11 12  1  0
 12  4  1  0
 13  2  1  0
 13 14  2  0
 16 15  1  0
 17 16  1  0
 18 17  1  0
 19 18  1  1
 20 19  1  0
 20 13  1  0
 21 19  1  0
 22 21  2  0
 23 21  1  0
 24 23  1  0
 24 25  1  6
 25 26  1  0
 26 27  1  0
 27 31  1  0
 27 28  2  0
 29 30  1  0
 29 24  1  0
 32 29  2  0
M  END
$$$$
