WME.pdb
     RDKit          3D

 32 33  0  0  1  0  0  0  0  0999 V2000
   15.2218  -16.6035    4.7873 N   0  0  0  0  0  0  0  0  0  0  0  0
   16.6001  -16.3402    5.2346 C   0  0  1  0  0  0  0  0  0  0  0  0
   16.4907  -15.2860    6.3070 C   0  0  0  0  0  0  0  0  0  0  0  0
   17.1349  -14.0326    5.8557 C   0  0  0  0  0  0  0  0  0  0  0  0
   16.5490  -13.0440    5.0819 C   0  0  0  0  0  0  0  0  0  0  0  0
   17.4331  -12.0678    4.8679 N   0  0  0  0  0  0  0  0  0  0  0  0
   18.5981  -12.3966    5.4899 C   0  0  0  0  0  0  0  0  0  0  0  0
   19.8176  -11.7317    5.5811 C   0  0  0  0  0  0  0  0  0  0  0  0
   20.8659  -12.2828    6.2884 C   0  0  0  0  0  0  0  0  0  0  0  0
   20.6624  -13.5155    6.9021 C   0  0  0  0  0  0  0  0  0  0  0  0
   19.4700  -14.1784    6.8202 C   0  0  0  0  0  0  0  0  0  0  0  0
   18.4230  -13.6130    6.1055 C   0  0  0  0  0  0  0  0  0  0  0  0
   17.2016  -17.5958    5.7688 C   0  0  0  0  0  0  0  0  0  0  0  0
   16.5626  -18.2947    6.6267 O   0  0  0  0  0  0  0  0  0  0  0  0
   20.3215  -24.1786    5.6187 C   0  0  0  0  0  0  0  0  0  0  0  0
   19.5883  -22.6380    5.0047 S   0  0  0  0  0  0  0  0  0  0  0  0
   20.6007  -21.2202    5.5681 C   0  0  0  0  0  0  0  0  0  0  0  0
   20.0070  -19.9466    5.0832 C   0  0  0  0  0  0  0  0  0  0  0  0
   19.0443  -19.2860    6.0190 C   0  0  2  0  0  0  0  0  0  0  0  0
   18.4708  -18.0862    5.3820 N   0  0  0  0  0  0  0  0  0  0  0  0
   19.6651  -18.9371    7.3110 C   0  0  0  0  0  0  0  0  0  0  0  0
   20.4254  -17.9661    7.5232 O   0  0  0  0  0  0  0  0  0  0  0  0
   19.4207  -19.7417    8.4865 N   0  0  0  0  0  0  0  0  0  0  0  0
   20.0656  -19.5225    9.7298 C   0  0  1  0  0  0  0  0  0  0  0  0
   19.2731  -18.6693   10.6906 C   0  0  0  0  0  0  0  0  0  0  0  0
   17.9539  -19.2935   11.0669 C   0  0  0  0  0  0  0  0  0  0  0  0
   16.9473  -18.2272   11.3665 C   0  0  0  0  0  0  0  0  0  0  0  0
   16.9395  -17.1138   10.8007 O   0  0  0  0  0  0  0  0  0  0  0  0
   20.4712  -20.7381   10.4580 C   0  0  0  0  0  0  0  0  0  0  0  0
   21.2358  -20.5693   11.5999 O   0  0  0  0  0  0  0  0  0  0  0  0
   15.9613  -18.4907   12.3332 O   0  0  0  0  0  0  0  0  0  0  0  0
   20.1817  -21.9073   10.1297 O   0  0  0  0  0  0  0  0  0  0  0  0
  2  1  1  1
  2  3  1  0
  4  5  2  0
  4  3  1  0
  6  5  1  0
  7 12  2  0
  7  6  1  0
  8  7  1  0
  9 10  1  0
  9  8  2  0
 10 11  2  0
 11 12  1  0
 12  4  1  0
 13  2  1  0
 13 14  2  0
 16 15  1  0
 17 16  1  0
 18 17  1  0
 19 18  1  6
 20 19  1  0
 20 13  1  0
 21 19  1  0
 22 21  2  0
 23 21  1  0
 24 23  1  0
 24 25  1  1
 25 26  1  0
 26 27  1  0
 27 31  1  0
 27 28  2  0
 29 30  1  0
 29 24  1  0
 32 29  2  0
M  END
$$$$
