WME.pdb
     RDKit          3D

 32 33  0  0  1  0  0  0  0  0999 V2000
   25.7516  -18.8567   -8.6593 N   0  0  0  0  0  0  0  0  0  0  0  0
   26.5511  -19.8367   -9.4141 C   0  0  1  0  0  0  0  0  0  0  0  0
   26.3360  -21.1609   -8.7258 C   0  0  0  0  0  0  0  0  0  0  0  0
   26.6836  -21.0510   -7.2916 C   0  0  0  0  0  0  0  0  0  0  0  0
   25.8248  -21.2542   -6.2236 C   0  0  0  0  0  0  0  0  0  0  0  0
   26.4865  -21.0612   -5.0812 N   0  0  0  0  0  0  0  0  0  0  0  0
   27.7734  -20.7325   -5.3781 C   0  0  0  0  0  0  0  0  0  0  0  0
   28.8641  -20.4385   -4.5647 C   0  0  0  0  0  0  0  0  0  0  0  0
   30.0904  -20.1343   -5.1185 C   0  0  0  0  0  0  0  0  0  0  0  0
   30.1971  -20.1325   -6.5063 C   0  0  0  0  0  0  0  0  0  0  0  0
   29.1340  -20.4195   -7.3159 C   0  0  0  0  0  0  0  0  0  0  0  0
   27.9055  -20.7239   -6.7461 C   0  0  0  0  0  0  0  0  0  0  0  0
   26.0841  -19.8800  -10.8296 C   0  0  0  0  0  0  0  0  0  0  0  0
   24.8337  -19.9308  -11.0878 O   0  0  0  0  0  0  0  0  0  0  0  0
   30.2055  -18.0721  -15.2356 C   0  0  0  0  0  0  0  0  0  0  0  0
   28.8092  -18.0872  -16.3923 S   0  0  0  0  0  0  0  0  0  0  0  0
   27.2895  -18.5820  -15.4990 C   0  0  0  0  0  0  0  0  0  0  0  0
   27.6248  -18.9809  -14.1069 C   0  0  0  0  0  0  0  0  0  0  0  0
   26.4730  -19.4498  -13.2747 C   0  0  2  0  0  0  0  0  0  0  0  0
   26.9539  -19.8683  -11.9452 N   0  0  0  0  0  0  0  0  0  0  0  0
   25.7217  -20.5436  -13.9192 C   0  0  0  0  0  0  0  0  0  0  0  0
   26.1272  -21.7156  -14.0860 O   0  0  0  0  0  0  0  0  0  0  0  0
   24.3884  -20.3198  -14.4302 N   0  0  0  0  0  0  0  0  0  0  0  0
   23.6181  -21.3253  -15.0670 C   0  0  1  0  0  0  0  0  0  0  0  0
   22.1368  -21.2305  -14.7918 C   0  0  0  0  0  0  0  0  0  0  0  0
   21.8182  -21.2590  -13.3190 C   0  0  0  0  0  0  0  0  0  0  0  0
   20.3467  -21.0854  -13.1078 C   0  0  0  0  0  0  0  0  0  0  0  0
   19.8344  -20.8856  -11.9864 O   0  0  0  0  0  0  0  0  0  0  0  0
   23.7853  -21.4235  -16.5282 C   0  0  0  0  0  0  0  0  0  0  0  0
   24.5481  -20.4478  -17.1474 O   0  0  0  0  0  0  0  0  0  0  0  0
   19.4979  -21.1509  -14.2264 O   0  0  0  0  0  0  0  0  0  0  0  0
   23.2957  -22.3141  -17.2532 O   0  0  0  0  0  0  0  0  0  0  0  0
  2  1  1  1
  2  3  1  0
  4  5  2  0
  4  3  1  0
  6  5  1  0
  7 12  2  0
  7  6  1  0
  8  7  1  0
  9 10  1  0
  9  8  2  0
 10 11  2  0
 11 12  1  0
 12  4  1  0
 13  2  1  0
 13 14  2  0
 16 15  1  0
 17 16  1  0
 18 17  1  0
 19 18  1  6
 20 19  1  0
 20 13  1  0
 21 19  1  0
 22 21  2  0
 23 21  1  0
 24 23  1  0
 24 25  1  6
 25 26  1  0
 26 27  1  0
 27 31  1  0
 27 28  2  0
 29 30  1  0
 29 24  1  0
 32 29  2  0
M  END
$$$$
