WME.pdb
     RDKit          3D

 32 33  0  0  1  0  0  0  0  0999 V2000
   28.3442  -20.8075  -15.6987 N   0  0  0  0  0  0  0  0  0  0  0  0
   27.6099  -19.9645  -14.7399 C   0  0  1  0  0  0  0  0  0  0  0  0
   26.5063  -19.3079  -15.5300 C   0  0  0  0  0  0  0  0  0  0  0  0
   27.0581  -18.2185  -16.3659 C   0  0  0  0  0  0  0  0  0  0  0  0
   27.2839  -18.2695  -17.7318 C   0  0  0  0  0  0  0  0  0  0  0  0
   27.7941  -17.1059  -18.1395 N   0  0  0  0  0  0  0  0  0  0  0  0
   27.9097  -16.2839  -17.0609 C   0  0  0  0  0  0  0  0  0  0  0  0
   28.3744  -14.9775  -16.9393 C   0  0  0  0  0  0  0  0  0  0  0  0
   28.3864  -14.3486  -15.7115 C   0  0  0  0  0  0  0  0  0  0  0  0
   27.9213  -15.0602  -14.6094 C   0  0  0  0  0  0  0  0  0  0  0  0
   27.4625  -16.3432  -14.7155 C   0  0  0  0  0  0  0  0  0  0  0  0
   27.4556  -16.9647  -15.9566 C   0  0  0  0  0  0  0  0  0  0  0  0
   27.0600  -20.8143  -13.6448 C   0  0  0  0  0  0  0  0  0  0  0  0
   26.5813  -21.9685  -13.9119 O   0  0  0  0  0  0  0  0  0  0  0  0
   27.5224  -19.5970   -7.4125 C   0  0  0  0  0  0  0  0  0  0  0  0
   25.8960  -20.3867   -7.2741 S   0  0  0  0  0  0  0  0  0  0  0  0
   25.3870  -21.0144   -8.9171 C   0  0  0  0  0  0  0  0  0  0  0  0
   26.3421  -20.5502   -9.9572 C   0  0  0  0  0  0  0  0  0  0  0  0
   26.0545  -21.0140  -11.3505 C   0  0  2  0  0  0  0  0  0  0  0  0
   27.0290  -20.4227  -12.2858 N   0  0  0  0  0  0  0  0  0  0  0  0
   24.6768  -20.7004  -11.7747 C   0  0  0  0  0  0  0  0  0  0  0  0
   24.2641  -19.5867  -12.1686 O   0  0  0  0  0  0  0  0  0  0  0  0
   23.6526  -21.7201  -11.7629 N   0  0  0  0  0  0  0  0  0  0  0  0
   22.3080  -21.4797  -12.1426 C   0  0  1  0  0  0  0  0  0  0  0  0
   21.7980  -22.4089  -13.2176 C   0  0  0  0  0  0  0  0  0  0  0  0
   20.3680  -22.1241  -13.5989 C   0  0  0  0  0  0  0  0  0  0  0  0
   20.3216  -21.1182  -14.7060 C   0  0  0  0  0  0  0  0  0  0  0  0
   21.0935  -21.1434  -15.6876 O   0  0  0  0  0  0  0  0  0  0  0  0
   21.3246  -21.5007  -11.0448 C   0  0  0  0  0  0  0  0  0  0  0  0
   20.0668  -20.9855  -11.3087 O   0  0  0  0  0  0  0  0  0  0  0  0
   19.3621  -20.0929  -14.6386 O   0  0  0  0  0  0  0  0  0  0  0  0
   21.5327  -21.9450   -9.8969 O   0  0  0  0  0  0  0  0  0  0  0  0
  2  1  1  6
  2  3  1  0
  4  5  2  0
  4  3  1  0
  6  5  1  0
  7 12  2  0
  7  6  1  0
  8  7  1  0
  9 10  1  0
  9  8  2  0
 10 11  2  0
 11 12  1  0
 12  4  1  0
 13  2  1  0
 13 14  2  0
 16 15  1  0
 17 16  1  0
 18 17  1  0
 19 18  1  1
 20 19  1  0
 20 13  1  0
 21 19  1  0
 22 21  2  0
 23 21  1  0
 24 23  1  0
 24 25  1  6
 25 26  1  0
 26 27  1  0
 27 31  1  0
 27 28  2  0
 29 30  1  0
 29 24  1  0
 32 29  2  0
M  END
$$$$
