WME.pdb
     RDKit          3D

 32 33  0  0  1  0  0  0  0  0999 V2000
   15.8976  -19.0894    3.1278 N   0  0  0  0  0  0  0  0  0  0  0  0
   17.3032  -19.5291    3.1305 C   0  0  1  0  0  0  0  0  0  0  0  0
   18.0087  -18.6463    4.1286 C   0  0  0  0  0  0  0  0  0  0  0  0
   18.1384  -17.2736    3.5912 C   0  0  0  0  0  0  0  0  0  0  0  0
   17.2724  -16.2180    3.8254 C   0  0  0  0  0  0  0  0  0  0  0  0
   17.7048  -15.1379    3.1722 N   0  0  0  0  0  0  0  0  0  0  0  0
   18.8468  -15.4640    2.5075 C   0  0  0  0  0  0  0  0  0  0  0  0
   19.6887  -14.7133    1.6919 C   0  0  0  0  0  0  0  0  0  0  0  0
   20.8106  -15.2841    1.1274 C   0  0  0  0  0  0  0  0  0  0  0  0
   21.0683  -16.6245    1.4004 C   0  0  0  0  0  0  0  0  0  0  0  0
   20.2497  -17.3723    2.1994 C   0  0  0  0  0  0  0  0  0  0  0  0
   19.1240  -16.7861    2.7614 C   0  0  0  0  0  0  0  0  0  0  0  0
   17.3782  -20.9641    3.5286 C   0  0  0  0  0  0  0  0  0  0  0  0
   16.5308  -21.4416    4.3573 O   0  0  0  0  0  0  0  0  0  0  0  0
   21.7232  -24.4366    0.4769 C   0  0  0  0  0  0  0  0  0  0  0  0
   20.2219  -25.4350    0.6694 S   0  0  0  0  0  0  0  0  0  0  0  0
   18.9591  -24.4605    1.5686 C   0  0  0  0  0  0  0  0  0  0  0  0
   19.5052  -23.9997    2.8720 C   0  0  0  0  0  0  0  0  0  0  0  0
   18.5805  -23.1642    3.7000 C   0  0  2  0  0  0  0  0  0  0  0  0
   18.3518  -21.8661    3.0391 N   0  0  0  0  0  0  0  0  0  0  0  0
   19.0814  -22.9627    5.0729 C   0  0  0  0  0  0  0  0  0  0  0  0
   19.6181  -21.9221    5.5146 O   0  0  0  0  0  0  0  0  0  0  0  0
   18.9784  -24.0167    6.0565 N   0  0  0  0  0  0  0  0  0  0  0  0
   19.2450  -23.8254    7.4357 C   0  0  1  0  0  0  0  0  0  0  0  0
   18.4005  -22.7534    8.0813 C   0  0  0  0  0  0  0  0  0  0  0  0
   18.7033  -22.5823    9.5478 C   0  0  0  0  0  0  0  0  0  0  0  0
   19.5521  -21.3679    9.7593 C   0  0  0  0  0  0  0  0  0  0  0  0
   20.7486  -21.2984    9.4080 O   0  0  0  0  0  0  0  0  0  0  0  0
   19.1375  -25.0313    8.2765 C   0  0  0  0  0  0  0  0  0  0  0  0
   18.5883  -26.1627    7.6974 O   0  0  0  0  0  0  0  0  0  0  0  0
   18.9750  -20.2491   10.3851 O   0  0  0  0  0  0  0  0  0  0  0  0
   19.5012  -25.1161    9.4677 O   0  0  0  0  0  0  0  0  0  0  0  0
  2  1  1  1
  2  3  1  0
  4  5  2  0
  4  3  1  0
  6  5  1  0
  7 12  2  0
  7  6  1  0
  8  7  1  0
  9 10  1  0
  9  8  2  0
 10 11  2  0
 11 12  1  0
 12  4  1  0
 13  2  1  0
 13 14  2  0
 16 15  1  0
 17 16  1  0
 18 17  1  0
 19 18  1  6
 20 19  1  0
 20 13  1  0
 21 19  1  0
 22 21  2  0
 23 21  1  0
 24 23  1  0
 24 25  1  1
 25 26  1  0
 26 27  1  0
 27 31  1  0
 27 28  2  0
 29 30  1  0
 29 24  1  0
 32 29  2  0
M  END
$$$$
