WME.pdb
     RDKit          3D

 32 33  0  0  1  0  0  0  0  0999 V2000
   15.7494  -16.6056    5.2193 N   0  0  0  0  0  0  0  0  0  0  0  0
   17.1790  -16.6274    5.5727 C   0  0  1  0  0  0  0  0  0  0  0  0
   17.3605  -15.5581    6.6201 C   0  0  0  0  0  0  0  0  0  0  0  0
   17.8879  -14.3226    5.9996 C   0  0  0  0  0  0  0  0  0  0  0  0
   17.2266  -13.5202    5.0840 C   0  0  0  0  0  0  0  0  0  0  0  0
   18.0140  -12.4990    4.7411 N   0  0  0  0  0  0  0  0  0  0  0  0
   19.1893  -12.6142    5.4177 C   0  0  0  0  0  0  0  0  0  0  0  0
   20.3334  -11.8213    5.4258 C   0  0  0  0  0  0  0  0  0  0  0  0
   21.4126  -12.1551    6.2175 C   0  0  0  0  0  0  0  0  0  0  0  0
   21.3172  -13.3017    7.0009 C   0  0  0  0  0  0  0  0  0  0  0  0
   20.1997  -14.0885    7.0020 C   0  0  0  0  0  0  0  0  0  0  0  0
   19.1206  -13.7416    6.2008 C   0  0  0  0  0  0  0  0  0  0  0  0
   17.5432  -17.9726    6.1032 C   0  0  0  0  0  0  0  0  0  0  0  0
   16.7512  -18.5795    6.9014 O   0  0  0  0  0  0  0  0  0  0  0  0
   18.9527  -24.5888    3.6491 C   0  0  0  0  0  0  0  0  0  0  0  0
   19.8907  -23.0708    3.9713 S   0  0  0  0  0  0  0  0  0  0  0  0
   19.0042  -22.0658    5.2190 C   0  0  0  0  0  0  0  0  0  0  0  0
   19.7779  -20.8334    5.5226 C   0  0  0  0  0  0  0  0  0  0  0  0
   19.1299  -19.8843    6.4809 C   0  0  2  0  0  0  0  0  0  0  0  0
   18.7419  -18.6487    5.7760 N   0  0  0  0  0  0  0  0  0  0  0  0
   19.9952  -19.5705    7.6337 C   0  0  0  0  0  0  0  0  0  0  0  0
   20.9818  -18.8009    7.6247 O   0  0  0  0  0  0  0  0  0  0  0  0
   19.7446  -20.1666    8.9263 N   0  0  0  0  0  0  0  0  0  0  0  0
   20.5775  -19.9607   10.0549 C   0  0  1  0  0  0  0  0  0  0  0  0
   19.8504  -19.4264   11.2653 C   0  0  0  0  0  0  0  0  0  0  0  0
   18.6475  -20.2571   11.6319 C   0  0  0  0  0  0  0  0  0  0  0  0
   18.5288  -20.3615   13.1202 C   0  0  0  0  0  0  0  0  0  0  0  0
   19.3518  -19.8536   13.9105 O   0  0  0  0  0  0  0  0  0  0  0  0
   21.3531  -21.1345   10.4945 C   0  0  0  0  0  0  0  0  0  0  0  0
   21.0707  -22.3463    9.8871 O   0  0  0  0  0  0  0  0  0  0  0  0
   17.4371  -21.0664   13.6564 O   0  0  0  0  0  0  0  0  0  0  0  0
   22.2437  -21.1256   11.3693 O   0  0  0  0  0  0  0  0  0  0  0  0
  2  1  1  1
  2  3  1  0
  4  5  2  0
  4  3  1  0
  6  5  1  0
  7 12  2  0
  7  6  1  0
  8  7  1  0
  9 10  1  0
  9  8  2  0
 10 11  2  0
 11 12  1  0
 12  4  1  0
 13  2  1  0
 13 14  2  0
 16 15  1  0
 17 16  1  0
 18 17  1  0
 19 18  1  6
 20 19  1  0
 20 13  1  0
 21 19  1  0
 22 21  2  0
 23 21  1  0
 24 23  1  0
 24 25  1  1
 25 26  1  0
 26 27  1  0
 27 31  1  0
 27 28  2  0
 29 30  1  0
 29 24  1  0
 32 29  2  0
M  END
$$$$
