WME.pdb
     RDKit          3D

 32 33  0  0  1  0  0  0  0  0999 V2000
   26.5013  -20.8339  -15.7897 N   0  0  0  0  0  0  0  0  0  0  0  0
   25.6393  -20.1273  -14.8271 C   0  0  1  0  0  0  0  0  0  0  0  0
   24.3189  -19.9266  -15.5269 C   0  0  0  0  0  0  0  0  0  0  0  0
   24.4811  -18.9882  -16.6595 C   0  0  0  0  0  0  0  0  0  0  0  0
   25.0237  -19.2871  -17.8987 C   0  0  0  0  0  0  0  0  0  0  0  0
   25.0135  -18.1926  -18.6617 N   0  0  0  0  0  0  0  0  0  0  0  0
   24.4708  -17.1714  -17.9441 C   0  0  0  0  0  0  0  0  0  0  0  0
   24.2286  -15.8396  -18.2684 C   0  0  0  0  0  0  0  0  0  0  0  0
   23.6522  -14.9874  -17.3494 C   0  0  0  0  0  0  0  0  0  0  0  0
   23.3242  -15.5022  -16.0985 C   0  0  0  0  0  0  0  0  0  0  0  0
   23.5567  -16.8077  -15.7677 C   0  0  0  0  0  0  0  0  0  0  0  0
   24.1373  -17.6548  -16.7015 C   0  0  0  0  0  0  0  0  0  0  0  0
   25.4798  -20.9544  -13.5966 C   0  0  0  0  0  0  0  0  0  0  0  0
   25.2483  -22.2071  -13.6954 O   0  0  0  0  0  0  0  0  0  0  0  0
   27.0004  -19.4918   -7.6308 C   0  0  0  0  0  0  0  0  0  0  0  0
   25.5378  -20.4469   -7.1447 S   0  0  0  0  0  0  0  0  0  0  0  0
   24.6938  -21.0666   -8.6468 C   0  0  0  0  0  0  0  0  0  0  0  0
   25.3858  -20.5647   -9.8628 C   0  0  0  0  0  0  0  0  0  0  0  0
   24.8615  -21.0842  -11.1644 C   0  0  2  0  0  0  0  0  0  0  0  0
   25.5695  -20.4358  -12.2835 N   0  0  0  0  0  0  0  0  0  0  0  0
   23.4043  -20.8977  -11.2987 C   0  0  0  0  0  0  0  0  0  0  0  0
   22.7667  -19.8589  -11.0157 O   0  0  0  0  0  0  0  0  0  0  0  0
   22.5680  -21.9664  -11.7961 N   0  0  0  0  0  0  0  0  0  0  0  0
   21.1986  -22.1073  -11.4574 C   0  0  1  0  0  0  0  0  0  0  0  0
   20.9613  -22.7759  -10.1248 C   0  0  0  0  0  0  0  0  0  0  0  0
   19.4962  -22.9286   -9.8060 C   0  0  0  0  0  0  0  0  0  0  0  0
   19.3259  -23.5474   -8.4539 C   0  0  0  0  0  0  0  0  0  0  0  0
   20.2833  -23.8212   -7.7001 O   0  0  0  0  0  0  0  0  0  0  0  0
   20.4105  -20.8618  -11.4674 C   0  0  0  0  0  0  0  0  0  0  0  0
   19.1446  -20.9153  -12.0259 O   0  0  0  0  0  0  0  0  0  0  0  0
   18.0238  -23.8358   -8.0094 O   0  0  0  0  0  0  0  0  0  0  0  0
   20.7906  -19.7627  -11.0134 O   0  0  0  0  0  0  0  0  0  0  0  0
  2  1  1  6
  2  3  1  0
  4  5  2  0
  4  3  1  0
  6  5  1  0
  7 12  2  0
  7  6  1  0
  8  7  1  0
  9 10  1  0
  9  8  2  0
 10 11  2  0
 11 12  1  0
 12  4  1  0
 13  2  1  0
 13 14  2  0
 16 15  1  0
 17 16  1  0
 18 17  1  0
 19 18  1  1
 20 19  1  0
 20 13  1  0
 21 19  1  0
 22 21  2  0
 23 21  1  0
 24 23  1  0
 24 25  1  1
 25 26  1  0
 26 27  1  0
 27 31  1  0
 27 28  2  0
 29 30  1  0
 29 24  1  0
 32 29  2  0
M  END
$$$$
