WME.pdb
     RDKit          3D

 32 33  0  0  1  0  0  0  0  0999 V2000
   28.7090  -21.5830  -10.5948 N   0  0  0  0  0  0  0  0  0  0  0  0
   27.4543  -21.0925   -9.9996 C   0  0  1  0  0  0  0  0  0  0  0  0
   27.7922  -19.7703   -9.3583 C   0  0  0  0  0  0  0  0  0  0  0  0
   28.6662  -19.9836   -8.1834 C   0  0  0  0  0  0  0  0  0  0  0  0
   30.0219  -20.2673   -8.2128 C   0  0  0  0  0  0  0  0  0  0  0  0
   30.4730  -20.4010   -6.9642 N   0  0  0  0  0  0  0  0  0  0  0  0
   29.4334  -20.2096   -6.1070 C   0  0  0  0  0  0  0  0  0  0  0  0
   29.3642  -20.2344   -4.7170 C   0  0  0  0  0  0  0  0  0  0  0  0
   28.1687  -19.9998   -4.0698 C   0  0  0  0  0  0  0  0  0  0  0  0
   27.0451  -19.7394   -4.8490 C   0  0  0  0  0  0  0  0  0  0  0  0
   27.0998  -19.7122   -6.2144 C   0  0  0  0  0  0  0  0  0  0  0  0
   28.3089  -19.9499   -6.8534 C   0  0  0  0  0  0  0  0  0  0  0  0
   26.4245  -20.9298  -11.0657 C   0  0  0  0  0  0  0  0  0  0  0  0
   26.6185  -20.1017  -12.0193 O   0  0  0  0  0  0  0  0  0  0  0  0
   26.9746  -22.2359  -15.1447 C   0  0  0  0  0  0  0  0  0  0  0  0
   25.3824  -23.0998  -15.0644 S   0  0  0  0  0  0  0  0  0  0  0  0
   25.0407  -23.5776  -13.3302 C   0  0  0  0  0  0  0  0  0  0  0  0
   23.8970  -22.7893  -12.8012 C   0  0  0  0  0  0  0  0  0  0  0  0
   24.2486  -21.4631  -12.2042 C   0  0  2  0  0  0  0  0  0  0  0  0
   25.2073  -21.6499  -11.0996 N   0  0  0  0  0  0  0  0  0  0  0  0
   23.0607  -20.7238  -11.7365 C   0  0  0  0  0  0  0  0  0  0  0  0
   23.0252  -19.9190  -10.7790 O   0  0  0  0  0  0  0  0  0  0  0  0
   21.7840  -20.8905  -12.3932 N   0  0  0  0  0  0  0  0  0  0  0  0
   20.8830  -19.8218  -12.6296 C   0  0  1  0  0  0  0  0  0  0  0  0
   21.4787  -18.6789  -13.4158 C   0  0  0  0  0  0  0  0  0  0  0  0
   20.8652  -18.5357  -14.7849 C   0  0  0  0  0  0  0  0  0  0  0  0
   21.8248  -17.8548  -15.7098 C   0  0  0  0  0  0  0  0  0  0  0  0
   22.9053  -17.3563  -15.3305 O   0  0  0  0  0  0  0  0  0  0  0  0
   19.6174  -20.1920  -13.2884 C   0  0  0  0  0  0  0  0  0  0  0  0
   19.5683  -21.4206  -13.9250 O   0  0  0  0  0  0  0  0  0  0  0  0
   21.4944  -17.7712  -17.0736 O   0  0  0  0  0  0  0  0  0  0  0  0
   18.5864  -19.4888  -13.3193 O   0  0  0  0  0  0  0  0  0  0  0  0
  2  1  1  6
  2  3  1  0
  4  5  2  0
  4  3  1  0
  6  5  1  0
  7 12  2  0
  7  6  1  0
  8  7  1  0
  9 10  1  0
  9  8  2  0
 10 11  2  0
 11 12  1  0
 12  4  1  0
 13  2  1  0
 13 14  2  0
 16 15  1  0
 17 16  1  0
 18 17  1  0
 19 18  1  1
 20 19  1  0
 20 13  1  0
 21 19  1  0
 22 21  2  0
 23 21  1  0
 24 23  1  0
 24 25  1  6
 25 26  1  0
 26 27  1  0
 27 31  1  0
 27 28  2  0
 29 30  1  0
 29 24  1  0
 32 29  2  0
M  END
$$$$
