QVY.pdb
     RDKit          3D

 29 29  0  0  1  0  0  0  0  0999 V2000
   15.9934  -14.5043  -14.8257 N   0  0  0  0  0  0  0  0  0  0  0  0
   16.5794  -14.8719  -16.1079 C   0  0  0  0  0  0  0  0  0  0  0  0
   16.0516  -15.8349  -16.6689 O   0  0  0  0  0  0  0  0  0  0  0  0
   17.6987  -14.0829  -16.5752 C   0  0  0  0  0  0  0  0  0  0  0  0
   18.1973  -12.9555  -15.7475 C   0  0  0  0  0  0  0  0  0  0  0  0
   19.3279  -12.1820  -16.2754 C   0  0  2  0  0  0  0  0  0  0  0  0
   20.3871  -13.0238  -16.8048 N   0  0  0  0  0  0  0  0  0  0  0  0
   19.8197  -10.9801  -15.6055 C   0  0  0  0  0  0  0  0  0  0  0  0
   19.1311  -10.4654  -14.6469 O   0  0  0  0  0  0  0  0  0  0  0  0
   23.3551  -10.6552  -14.4562 C   0  0  0  0  0  0  0  0  0  0  0  0
   23.0648   -9.2814  -15.0886 C   0  0  1  0  0  0  0  0  0  0  0  0
   23.6746   -9.4797  -16.4997 C   0  0  0  0  0  0  0  0  0  0  0  0
   21.5927   -9.1376  -15.2643 C   0  0  2  0  0  0  0  0  0  0  0  0
   20.9945  -10.3019  -15.9124 N   0  0  0  0  0  0  0  0  0  0  0  0
   21.1045   -7.9132  -15.9097 C   0  0  0  0  0  0  0  0  0  0  0  0
   20.8044   -7.9993  -17.1725 O   0  0  0  0  0  0  0  0  0  0  0  0
   16.7296   -1.5969  -19.6951 O   0  0  0  0  0  0  0  0  0  0  0  0
   17.2889   -2.6336  -18.9597 C   0  0  0  0  0  0  0  0  0  0  0  0
   18.4032   -3.2715  -19.4676 C   0  0  0  0  0  0  0  0  0  0  0  0
   18.9782   -4.3038  -18.7584 C   0  0  0  0  0  0  0  0  0  0  0  0
   18.4892   -4.7419  -17.5452 C   0  0  0  0  0  0  0  0  0  0  0  0
   19.0884   -5.8540  -16.7835 C   0  0  0  0  0  0  0  0  0  0  0  0
   20.3917   -5.5172  -16.1493 C   0  0  2  0  0  0  0  0  0  0  0  0
   20.9046   -6.6409  -15.3529 N   0  0  0  0  0  0  0  0  0  0  0  0
   20.2527   -4.3072  -15.3160 C   0  0  0  0  0  0  0  0  0  0  0  0
   19.9806   -4.3420  -14.0949 O   0  0  0  0  0  0  0  0  0  0  0  0
   17.3686   -4.0901  -17.0479 C   0  0  0  0  0  0  0  0  0  0  0  0
   16.7816   -3.0587  -17.7400 C   0  0  0  0  0  0  0  0  0  0  0  0
   20.4202   -3.0235  -15.8520 O   0  0  0  0  0  0  0  0  0  0  0  0
  2  1  1  0
  2  3  2  0
  4  2  1  0
  5  4  1  0
  6  5  1  0
  6  7  1  1
  8  9  2  0
  8  6  1  0
 11 10  1  1
 11 13  1  0
 12 11  1  0
 13 14  1  6
 14  8  1  0
 15 13  1  0
 15 24  1  0
 16 15  2  0
 17 18  1  0
 18 28  2  0
 19 18  1  0
 19 20  2  0
 20 21  1  0
 21 27  2  0
 21 22  1  0
 23 22  1  1
 23 24  1  0
 23 25  1  0
 25 29  1  0
 26 25  2  0
 28 27  1  0
M  END
$$$$
