QVY.pdb
     RDKit          3D

 29 29  0  0  1  0  0  0  0  0999 V2000
   31.0092  -16.8721  -18.2765 N   0  0  0  0  0  0  0  0  0  0  0  0
   30.3491  -17.4431  -19.4430 C   0  0  0  0  0  0  0  0  0  0  0  0
   31.0772  -17.6232  -20.4218 O   0  0  0  0  0  0  0  0  0  0  0  0
   28.9354  -17.7300  -19.3299 C   0  0  0  0  0  0  0  0  0  0  0  0
   28.2485  -17.5300  -18.0288 C   0  0  0  0  0  0  0  0  0  0  0  0
   26.8067  -17.8023  -17.9804 C   0  0  2  0  0  0  0  0  0  0  0  0
   26.0916  -17.2516  -19.1189 N   0  0  0  0  0  0  0  0  0  0  0  0
   26.0510  -17.7366  -16.7314 C   0  0  0  0  0  0  0  0  0  0  0  0
   26.4310  -16.9260  -15.8059 O   0  0  0  0  0  0  0  0  0  0  0  0
   22.9662  -16.6413  -16.5874 C   0  0  0  0  0  0  0  0  0  0  0  0
   22.7309  -17.7905  -15.5895 C   0  0  1  0  0  0  0  0  0  0  0  0
   21.9601  -18.7947  -16.4838 C   0  0  0  0  0  0  0  0  0  0  0  0
   24.0428  -18.4145  -15.2610 C   0  0  2  0  0  0  0  0  0  0  0  0
   24.9262  -18.4935  -16.4215 N   0  0  0  0  0  0  0  0  0  0  0  0
   24.0224  -19.7101  -14.5719 C   0  0  0  0  0  0  0  0  0  0  0  0
   23.8349  -20.7622  -15.3135 O   0  0  0  0  0  0  0  0  0  0  0  0
   26.5415  -18.8566   -7.3064 O   0  0  0  0  0  0  0  0  0  0  0  0
   26.2320  -19.5925   -8.4425 C   0  0  0  0  0  0  0  0  0  0  0  0
   26.7872  -19.2058   -9.6461 C   0  0  0  0  0  0  0  0  0  0  0  0
   26.4966  -19.9184  -10.7894 C   0  0  0  0  0  0  0  0  0  0  0  0
   25.6637  -21.0180  -10.7945 C   0  0  0  0  0  0  0  0  0  0  0  0
   25.3352  -21.7806  -12.0137 C   0  0  0  0  0  0  0  0  0  0  0  0
   24.0714  -21.3509  -12.6715 C   0  0  2  0  0  0  0  0  0  0  0  0
   24.1843  -19.9864  -13.2059 N   0  0  0  0  0  0  0  0  0  0  0  0
   22.9465  -21.4479  -11.7212 C   0  0  0  0  0  0  0  0  0  0  0  0
   22.4951  -22.5367  -11.3004 O   0  0  0  0  0  0  0  0  0  0  0  0
   25.1137  -21.3944   -9.5764 C   0  0  0  0  0  0  0  0  0  0  0  0
   25.3919  -20.6970   -8.4259 C   0  0  0  0  0  0  0  0  0  0  0  0
   22.3049  -20.3057  -11.2240 O   0  0  0  0  0  0  0  0  0  0  0  0
  2  1  1  0
  2  3  2  0
  4  2  1  0
  5  4  1  0
  6  5  1  0
  6  7  1  6
  8  9  2  0
  8  6  1  0
 11 10  1  6
 11 13  1  0
 12 11  1  0
 13 14  1  6
 14  8  1  0
 15 13  1  0
 15 24  1  0
 16 15  2  0
 17 18  1  0
 18 28  2  0
 19 18  1  0
 19 20  2  0
 20 21  1  0
 21 27  2  0
 21 22  1  0
 23 22  1  1
 23 24  1  0
 23 25  1  0
 25 29  1  0
 26 25  2  0
 28 27  1  0
M  END
$$$$
