QVY.pdb
     RDKit          3D

 29 29  0  0  1  0  0  0  0  0999 V2000
   23.2313  -20.6474  -16.4808 N   0  0  0  0  0  0  0  0  0  0  0  0
   23.5871  -20.1285  -17.7948 C   0  0  0  0  0  0  0  0  0  0  0  0
   22.9308  -20.5843  -18.7340 O   0  0  0  0  0  0  0  0  0  0  0  0
   24.6546  -19.1534  -17.8552 C   0  0  0  0  0  0  0  0  0  0  0  0
   25.2937  -18.6874  -16.5986 C   0  0  0  0  0  0  0  0  0  0  0  0
   26.6063  -19.2521  -16.2619 C   0  0  2  0  0  0  0  0  0  0  0  0
   27.3648  -19.6511  -17.4351 N   0  0  0  0  0  0  0  0  0  0  0  0
   26.7924  -20.1424  -15.1182 C   0  0  0  0  0  0  0  0  0  0  0  0
   26.2664  -21.3175  -15.1411 O   0  0  0  0  0  0  0  0  0  0  0  0
   29.8930  -21.2389  -13.8101 C   0  0  0  0  0  0  0  0  0  0  0  0
   29.1879  -20.8470  -12.4982 C   0  0  1  0  0  0  0  0  0  0  0  0
   29.7916  -19.4401  -12.2564 C   0  0  0  0  0  0  0  0  0  0  0  0
   27.7362  -20.6589  -12.7736 C   0  0  2  0  0  0  0  0  0  0  0  0
   27.4975  -19.8389  -13.9585 N   0  0  0  0  0  0  0  0  0  0  0  0
   26.8943  -20.1820  -11.6702 C   0  0  0  0  0  0  0  0  0  0  0  0
   26.7053  -18.8973  -11.5939 O   0  0  0  0  0  0  0  0  0  0  0  0
   20.6085  -21.6467  -13.4012 O   0  0  0  0  0  0  0  0  0  0  0  0
   21.5501  -21.0759  -12.5552 C   0  0  0  0  0  0  0  0  0  0  0  0
   22.7006  -20.5530  -13.1115 C   0  0  0  0  0  0  0  0  0  0  0  0
   23.6518  -19.9808  -12.2947 C   0  0  0  0  0  0  0  0  0  0  0  0
   23.5125  -19.9025  -10.9246 C   0  0  0  0  0  0  0  0  0  0  0  0
   24.5294  -19.3042  -10.0392 C   0  0  0  0  0  0  0  0  0  0  0  0
   25.5491  -20.2722   -9.5516 C   0  0  2  0  0  0  0  0  0  0  0  0
   26.2462  -20.9226  -10.6700 N   0  0  0  0  0  0  0  0  0  0  0  0
   24.9164  -21.2771   -8.6755 C   0  0  0  0  0  0  0  0  0  0  0  0
   24.9185  -22.5037   -8.9243 O   0  0  0  0  0  0  0  0  0  0  0  0
   22.3501  -20.4324  -10.3806 C   0  0  0  0  0  0  0  0  0  0  0  0
   21.3902  -21.0064  -11.1784 C   0  0  0  0  0  0  0  0  0  0  0  0
   24.2634  -20.9114   -7.4909 O   0  0  0  0  0  0  0  0  0  0  0  0
  2  1  1  0
  2  3  2  0
  4  2  1  0
  5  4  1  0
  6  5  1  0
  6  7  1  6
  8  9  2  0
  8  6  1  0
 11 10  1  6
 11 13  1  0
 12 11  1  0
 13 14  1  6
 14  8  1  0
 15 13  1  0
 15 24  1  0
 16 15  2  0
 17 18  1  0
 18 28  2  0
 19 18  1  0
 19 20  2  0
 20 21  1  0
 21 27  2  0
 21 22  1  0
 23 22  1  6
 23 24  1  0
 23 25  1  0
 25 29  1  0
 26 25  2  0
 28 27  1  0
M  END
$$$$
