QVY.pdb
     RDKit          3D

 29 29  0  0  1  0  0  0  0  0999 V2000
   15.4191  -27.9290  -15.8061 N   0  0  0  0  0  0  0  0  0  0  0  0
   16.4520  -28.1455  -14.8018 C   0  0  0  0  0  0  0  0  0  0  0  0
   17.1265  -29.1664  -14.9547 O   0  0  0  0  0  0  0  0  0  0  0  0
   16.5712  -27.1580  -13.7508 C   0  0  0  0  0  0  0  0  0  0  0  0
   15.6736  -25.9752  -13.7507 C   0  0  0  0  0  0  0  0  0  0  0  0
   14.9076  -25.7121  -12.5263 C   0  0  2  0  0  0  0  0  0  0  0  0
   14.1144  -26.8533  -12.1028 N   0  0  0  0  0  0  0  0  0  0  0  0
   14.2532  -24.4276  -12.2872 C   0  0  0  0  0  0  0  0  0  0  0  0
   13.0399  -24.2543  -12.6821 O   0  0  0  0  0  0  0  0  0  0  0  0
   15.1730  -22.1167   -9.0873 C   0  0  0  0  0  0  0  0  0  0  0  0
   13.9085  -21.8592   -9.9278 C   0  0  1  0  0  0  0  0  0  0  0  0
   13.6973  -20.3450   -9.6731 C   0  0  0  0  0  0  0  0  0  0  0  0
   14.2518  -22.0171  -11.3685 C   0  0  2  0  0  0  0  0  0  0  0  0
   14.8284  -23.3267  -11.6617 N   0  0  0  0  0  0  0  0  0  0  0  0
   15.0739  -20.9704  -11.9869 C   0  0  0  0  0  0  0  0  0  0  0  0
   16.3305  -20.9416  -11.6518 O   0  0  0  0  0  0  0  0  0  0  0  0
   10.7099  -16.1620  -16.3589 O   0  0  0  0  0  0  0  0  0  0  0  0
   11.8966  -16.7987  -16.0202 C   0  0  0  0  0  0  0  0  0  0  0  0
   11.8273  -18.0461  -15.4323 C   0  0  0  0  0  0  0  0  0  0  0  0
   12.9898  -18.7003  -15.0859 C   0  0  0  0  0  0  0  0  0  0  0  0
   14.2425  -18.1635  -15.2989 C   0  0  0  0  0  0  0  0  0  0  0  0
   15.4930  -18.8485  -14.9206 C   0  0  0  0  0  0  0  0  0  0  0  0
   15.6667  -19.0193  -13.4526 C   0  0  2  0  0  0  0  0  0  0  0  0
   14.6980  -19.9813  -12.9083 N   0  0  0  0  0  0  0  0  0  0  0  0
   15.5459  -17.7152  -12.7724 C   0  0  0  0  0  0  0  0  0  0  0  0
   14.5951  -17.4222  -12.0132 O   0  0  0  0  0  0  0  0  0  0  0  0
   14.2953  -16.9088  -15.8911 C   0  0  0  0  0  0  0  0  0  0  0  0
   13.1476  -16.2413  -16.2440 C   0  0  0  0  0  0  0  0  0  0  0  0
   16.5063  -16.7086  -12.9390 O   0  0  0  0  0  0  0  0  0  0  0  0
  2  1  1  0
  2  3  2  0
  4  2  1  0
  5  4  1  0
  6  5  1  0
  6  7  1  6
  8  9  2  0
  8  6  1  0
 11 10  1  1
 11 13  1  0
 12 11  1  0
 13 14  1  1
 14  8  1  0
 15 13  1  0
 15 24  1  0
 16 15  2  0
 17 18  1  0
 18 28  2  0
 19 18  1  0
 19 20  2  0
 20 21  1  0
 21 27  2  0
 21 22  1  0
 23 22  1  6
 23 24  1  0
 23 25  1  0
 25 29  1  0
 26 25  2  0
 28 27  1  0
M  END
$$$$
