QVY.pdb
     RDKit          3D

 29 29  0  0  1  0  0  0  0  0999 V2000
   16.2911  -11.9814  -20.2620 N   0  0  0  0  0  0  0  0  0  0  0  0
   17.5286  -12.7498  -20.2831 C   0  0  0  0  0  0  0  0  0  0  0  0
   17.3893  -13.9642  -20.4452 O   0  0  0  0  0  0  0  0  0  0  0  0
   18.7654  -12.0183  -20.1123 C   0  0  0  0  0  0  0  0  0  0  0  0
   19.1251  -11.4887  -18.7726 C   0  0  0  0  0  0  0  0  0  0  0  0
   20.0353  -12.2969  -17.9520 C   0  0  2  0  0  0  0  0  0  0  0  0
   19.6069  -13.6800  -17.8323 N   0  0  0  0  0  0  0  0  0  0  0  0
   20.6490  -11.7705  -16.7347 C   0  0  0  0  0  0  0  0  0  0  0  0
   19.9961  -11.8213  -15.6260 O   0  0  0  0  0  0  0  0  0  0  0  0
   23.5194  -12.8482  -15.0503 C   0  0  0  0  0  0  0  0  0  0  0  0
   23.8372  -11.3440  -15.1407 C   0  0  1  0  0  0  0  0  0  0  0  0
   24.7457  -11.3170  -16.3962 C   0  0  0  0  0  0  0  0  0  0  0  0
   22.5878  -10.6116  -15.4887 C   0  0  2  0  0  0  0  0  0  0  0  0
   21.9094  -11.1895  -16.6460 N   0  0  0  0  0  0  0  0  0  0  0  0
   22.6796   -9.1559  -15.6513 C   0  0  0  0  0  0  0  0  0  0  0  0
   23.1919   -8.7247  -16.7664 O   0  0  0  0  0  0  0  0  0  0  0  0
   16.3272   -5.5800  -16.1262 O   0  0  0  0  0  0  0  0  0  0  0  0
   17.7068   -5.7306  -16.1721 C   0  0  0  0  0  0  0  0  0  0  0  0
   18.2217   -6.9142  -16.6625 C   0  0  0  0  0  0  0  0  0  0  0  0
   19.5873   -7.0902  -16.7190 C   0  0  0  0  0  0  0  0  0  0  0  0
   20.4838   -6.1280  -16.3027 C   0  0  0  0  0  0  0  0  0  0  0  0
   21.9470   -6.3101  -16.3463 C   0  0  0  0  0  0  0  0  0  0  0  0
   22.5424   -6.7225  -15.0463 C   0  0  2  0  0  0  0  0  0  0  0  0
   22.2832   -8.1418  -14.7663 N   0  0  0  0  0  0  0  0  0  0  0  0
   22.0227   -5.8722  -13.9579 C   0  0  0  0  0  0  0  0  0  0  0  0
   22.2583   -4.6461  -13.8723 O   0  0  0  0  0  0  0  0  0  0  0  0
   19.9505   -4.9435  -15.8125 C   0  0  0  0  0  0  0  0  0  0  0  0
   18.5920   -4.7492  -15.7488 C   0  0  0  0  0  0  0  0  0  0  0  0
   21.2195   -6.3965  -12.9365 O   0  0  0  0  0  0  0  0  0  0  0  0
  2  1  1  0
  2  3  2  0
  4  2  1  0
  5  4  1  0
  6  5  1  0
  6  7  1  1
  8  9  2  0
  8  6  1  0
 11 10  1  6
 11 13  1  0
 12 11  1  0
 13 14  1  6
 14  8  1  0
 15 13  1  0
 15 24  1  0
 16 15  2  0
 17 18  1  0
 18 28  2  0
 19 18  1  0
 19 20  2  0
 20 21  1  0
 21 27  2  0
 21 22  1  0
 23 22  1  6
 23 24  1  0
 23 25  1  0
 25 29  1  0
 26 25  2  0
 28 27  1  0
M  END
$$$$
