QVY.pdb
     RDKit          3D

 29 29  0  0  1  0  0  0  0  0999 V2000
   27.8677  -22.5785  -17.1627 N   0  0  0  0  0  0  0  0  0  0  0  0
   29.1094  -22.0999  -17.7556 C   0  0  0  0  0  0  0  0  0  0  0  0
   29.9982  -22.9474  -17.8669 O   0  0  0  0  0  0  0  0  0  0  0  0
   29.1655  -20.7063  -18.1408 C   0  0  0  0  0  0  0  0  0  0  0  0
   27.9719  -19.8441  -17.9494 C   0  0  0  0  0  0  0  0  0  0  0  0
   26.8332  -20.0621  -18.8500 C   0  0  2  0  0  0  0  0  0  0  0  0
   27.1390  -19.7366  -20.2325 N   0  0  0  0  0  0  0  0  0  0  0  0
   25.4663  -19.7224  -18.4609 C   0  0  0  0  0  0  0  0  0  0  0  0
   25.0704  -18.5002  -18.5484 O   0  0  0  0  0  0  0  0  0  0  0  0
   22.4560  -20.6422  -19.8592 C   0  0  0  0  0  0  0  0  0  0  0  0
   22.1273  -20.9859  -18.3944 C   0  0  1  0  0  0  0  0  0  0  0  0
   22.3961  -22.5124  -18.3899 C   0  0  0  0  0  0  0  0  0  0  0  0
   23.1523  -20.3585  -17.5145 C   0  0  2  0  0  0  0  0  0  0  0  0
   24.5136  -20.6134  -17.9786 N   0  0  0  0  0  0  0  0  0  0  0  0
   23.0666  -20.6306  -16.0749 C   0  0  0  0  0  0  0  0  0  0  0  0
   23.7568  -21.6394  -15.6299 O   0  0  0  0  0  0  0  0  0  0  0  0
   25.2971  -21.3248   -8.0613 O   0  0  0  0  0  0  0  0  0  0  0  0
   24.7476  -20.8348   -9.2386 C   0  0  0  0  0  0  0  0  0  0  0  0
   23.4880  -20.2715   -9.1901 C   0  0  0  0  0  0  0  0  0  0  0  0
   22.9189  -19.7776  -10.3440 C   0  0  0  0  0  0  0  0  0  0  0  0
   23.5534  -19.8182  -11.5682 C   0  0  0  0  0  0  0  0  0  0  0  0
   22.9490  -19.3046  -12.8120 C   0  0  0  0  0  0  0  0  0  0  0  0
   22.3631  -20.3625  -13.6792 C   0  0  2  0  0  0  0  0  0  0  0  0
   22.3405  -19.9462  -15.0885 N   0  0  0  0  0  0  0  0  0  0  0  0
   21.0051  -20.7051  -13.2142 C   0  0  0  0  0  0  0  0  0  0  0  0
   19.9638  -20.2785  -13.7617 O   0  0  0  0  0  0  0  0  0  0  0  0
   24.8194  -20.3874  -11.6003 C   0  0  0  0  0  0  0  0  0  0  0  0
   25.4035  -20.8847  -10.4606 C   0  0  0  0  0  0  0  0  0  0  0  0
   20.7967  -21.5441  -12.1114 O   0  0  0  0  0  0  0  0  0  0  0  0
  2  1  1  0
  2  3  2  0
  4  2  1  0
  5  4  1  0
  6  5  1  0
  6  7  1  6
  8  9  2  0
  8  6  1  0
 11 10  1  6
 11 13  1  0
 12 11  1  0
 13 14  1  6
 14  8  1  0
 15 13  1  0
 15 24  1  0
 16 15  2  0
 17 18  1  0
 18 28  2  0
 19 18  1  0
 19 20  2  0
 20 21  1  0
 21 27  2  0
 21 22  1  0
 23 22  1  1
 23 24  1  0
 23 25  1  0
 25 29  1  0
 26 25  2  0
 28 27  1  0
M  END
$$$$
