QVY.pdb
     RDKit          3D

 29 29  0  0  1  0  0  0  0  0999 V2000
   18.1980  -13.3914  -17.5513 N   0  0  0  0  0  0  0  0  0  0  0  0
   18.7764  -14.0894  -18.6918 C   0  0  0  0  0  0  0  0  0  0  0  0
   18.0206  -14.8802  -19.2611 O   0  0  0  0  0  0  0  0  0  0  0  0
   20.1513  -13.7864  -19.0261 C   0  0  0  0  0  0  0  0  0  0  0  0
   20.8483  -12.6770  -18.3274 C   0  0  0  0  0  0  0  0  0  0  0  0
   22.1638  -12.9698  -17.7453 C   0  0  2  0  0  0  0  0  0  0  0  0
   22.3076  -14.3608  -17.3512 N   0  0  0  0  0  0  0  0  0  0  0  0
   22.8317  -12.0366  -16.8406 C   0  0  0  0  0  0  0  0  0  0  0  0
   22.3801  -11.8851  -15.6442 O   0  0  0  0  0  0  0  0  0  0  0  0
   26.8317   -9.5112  -15.4395 C   0  0  0  0  0  0  0  0  0  0  0  0
   26.1486  -10.4915  -16.4111 C   0  0  1  0  0  0  0  0  0  0  0  0
   26.4831  -11.8459  -15.7356 C   0  0  0  0  0  0  0  0  0  0  0  0
   24.6735  -10.3080  -16.3168 C   0  0  2  0  0  0  0  0  0  0  0  0
   23.9413  -11.2578  -17.1507 N   0  0  0  0  0  0  0  0  0  0  0  0
   24.1444   -8.9564  -16.5339 C   0  0  0  0  0  0  0  0  0  0  0  0
   24.4392   -8.3897  -17.6670 O   0  0  0  0  0  0  0  0  0  0  0  0
   20.2867   -1.3489  -18.0921 O   0  0  0  0  0  0  0  0  0  0  0  0
   20.6173   -2.6427  -17.7115 C   0  0  0  0  0  0  0  0  0  0  0  0
   21.5069   -3.3502  -18.4955 C   0  0  0  0  0  0  0  0  0  0  0  0
   21.8522   -4.6364  -18.1409 C   0  0  0  0  0  0  0  0  0  0  0  0
   21.3455   -5.2662  -17.0231 C   0  0  0  0  0  0  0  0  0  0  0  0
   21.6977   -6.6467  -16.6408 C   0  0  0  0  0  0  0  0  0  0  0  0
   23.0316   -6.7712  -15.9928 C   0  0  2  0  0  0  0  0  0  0  0  0
   23.3474   -8.1733  -15.6853 N   0  0  0  0  0  0  0  0  0  0  0  0
   23.0812   -5.9448  -14.7712 C   0  0  0  0  0  0  0  0  0  0  0  0
   22.7357   -6.3643  -13.6439 O   0  0  0  0  0  0  0  0  0  0  0  0
   20.4527   -4.5415  -16.2450 C   0  0  0  0  0  0  0  0  0  0  0  0
   20.0966   -3.2581  -16.5819 C   0  0  0  0  0  0  0  0  0  0  0  0
   23.5265   -4.6166  -14.8011 O   0  0  0  0  0  0  0  0  0  0  0  0
  2  1  1  0
  2  3  2  0
  4  2  1  0
  5  4  1  0
  6  5  1  0
  6  7  1  1
  8  9  2  0
  8  6  1  0
 11 10  1  1
 11 13  1  0
 12 11  1  0
 13 14  1  6
 14  8  1  0
 15 13  1  0
 15 24  1  0
 16 15  2  0
 17 18  1  0
 18 28  2  0
 19 18  1  0
 19 20  2  0
 20 21  1  0
 21 27  2  0
 21 22  1  0
 23 22  1  1
 23 24  1  0
 23 25  1  0
 25 29  1  0
 26 25  2  0
 28 27  1  0
M  END
$$$$
