QVY.pdb
     RDKit          3D

 29 29  0  0  1  0  0  0  0  0999 V2000
   31.9161   -8.8181  -17.5220 N   0  0  0  0  0  0  0  0  0  0  0  0
   31.7591   -9.4969  -18.8015 C   0  0  0  0  0  0  0  0  0  0  0  0
   32.8034   -9.6738  -19.4329 O   0  0  0  0  0  0  0  0  0  0  0  0
   30.4184   -9.8812  -19.1872 C   0  0  0  0  0  0  0  0  0  0  0  0
   29.2760   -9.5476  -18.2994 C   0  0  0  0  0  0  0  0  0  0  0  0
   28.5052  -10.6674  -17.7454 C   0  0  2  0  0  0  0  0  0  0  0  0
   28.9702  -11.9596  -18.2196 N   0  0  0  0  0  0  0  0  0  0  0  0
   27.0554  -10.5969  -17.5765 C   0  0  0  0  0  0  0  0  0  0  0  0
   26.2897  -10.8735  -18.5741 O   0  0  0  0  0  0  0  0  0  0  0  0
   25.4588  -10.9610  -13.8025 C   0  0  0  0  0  0  0  0  0  0  0  0
   24.6163  -11.2565  -15.0573 C   0  0  1  0  0  0  0  0  0  0  0  0
   23.1982  -10.9028  -14.5414 C   0  0  0  0  0  0  0  0  0  0  0  0
   24.9603  -10.2601  -16.1096 C   0  0  2  0  0  0  0  0  0  0  0  0
   26.3898  -10.2396  -16.4088 N   0  0  0  0  0  0  0  0  0  0  0  0
   24.4791   -8.8861  -15.9239 C   0  0  0  0  0  0  0  0  0  0  0  0
   25.2397   -8.0904  -15.2307 O   0  0  0  0  0  0  0  0  0  0  0  0
   20.8392   -0.8491  -16.1500 O   0  0  0  0  0  0  0  0  0  0  0  0
   21.2820   -2.1347  -16.4319 C   0  0  0  0  0  0  0  0  0  0  0  0
   20.3616   -3.1638  -16.4166 C   0  0  0  0  0  0  0  0  0  0  0  0
   20.7742   -4.4494  -16.6926 C   0  0  0  0  0  0  0  0  0  0  0  0
   22.0834   -4.7681  -16.9881 C   0  0  0  0  0  0  0  0  0  0  0  0
   22.5390   -6.1421  -17.2724 C   0  0  0  0  0  0  0  0  0  0  0  0
   22.9384   -6.9078  -16.0605 C   0  0  2  0  0  0  0  0  0  0  0  0
   23.2998   -8.2918  -16.3980 N   0  0  0  0  0  0  0  0  0  0  0  0
   21.8518   -6.8805  -15.0623 C   0  0  0  0  0  0  0  0  0  0  0  0
   21.7695   -6.0170  -14.1602 O   0  0  0  0  0  0  0  0  0  0  0  0
   22.9966   -3.7223  -16.9999 C   0  0  0  0  0  0  0  0  0  0  0  0
   22.6044   -2.4341  -16.7278 C   0  0  0  0  0  0  0  0  0  0  0  0
   20.8283   -7.8375  -15.0651 O   0  0  0  0  0  0  0  0  0  0  0  0
  2  1  1  0
  2  3  2  0
  4  2  1  0
  5  4  1  0
  6  5  1  0
  6  7  1  6
  8  9  2  0
  8  6  1  0
 11 10  1  1
 11 13  1  0
 12 11  1  0
 13 14  1  1
 14  8  1  0
 15 13  1  0
 15 24  1  0
 16 15  2  0
 17 18  1  0
 18 28  2  0
 19 18  1  0
 19 20  2  0
 20 21  1  0
 21 27  2  0
 21 22  1  0
 23 22  1  6
 23 24  1  0
 23 25  1  0
 25 29  1  0
 26 25  2  0
 28 27  1  0
M  END
$$$$
