QVY.pdb
     RDKit          3D

 29 29  0  0  1  0  0  0  0  0999 V2000
   22.0737  -14.8579  -18.4719 N   0  0  0  0  0  0  0  0  0  0  0  0
   21.6122  -15.0298  -19.8430 C   0  0  0  0  0  0  0  0  0  0  0  0
   21.0060  -16.0805  -20.0646 O   0  0  0  0  0  0  0  0  0  0  0  0
   21.9115  -13.9689  -20.7805 C   0  0  0  0  0  0  0  0  0  0  0  0
   22.5971  -12.7411  -20.3039 C   0  0  0  0  0  0  0  0  0  0  0  0
   21.7730  -11.5411  -20.1140 C   0  0  2  0  0  0  0  0  0  0  0  0
   21.0529  -11.1571  -21.3160 N   0  0  0  0  0  0  0  0  0  0  0  0
   22.2393  -10.4022  -19.3261 C   0  0  0  0  0  0  0  0  0  0  0  0
   23.0472  -10.6028  -18.3438 O   0  0  0  0  0  0  0  0  0  0  0  0
   23.4008   -7.3665  -21.0979 C   0  0  0  0  0  0  0  0  0  0  0  0
   22.6529   -6.7756  -19.8882 C   0  0  1  0  0  0  0  0  0  0  0  0
   21.2876   -6.4295  -20.5352 C   0  0  0  0  0  0  0  0  0  0  0  0
   22.4062   -7.8632  -18.9010 C   0  0  2  0  0  0  0  0  0  0  0  0
   21.8811   -9.0736  -19.5278 N   0  0  0  0  0  0  0  0  0  0  0  0
   21.6003   -7.5346  -17.7192 C   0  0  0  0  0  0  0  0  0  0  0  0
   20.3301   -7.8071  -17.7854 O   0  0  0  0  0  0  0  0  0  0  0  0
   17.4453   -6.7700  -10.1289 O   0  0  0  0  0  0  0  0  0  0  0  0
   18.2976   -7.0199  -11.1964 C   0  0  0  0  0  0  0  0  0  0  0  0
   19.6585   -7.0225  -10.9627 C   0  0  0  0  0  0  0  0  0  0  0  0
   20.5269   -7.2675  -12.0044 C   0  0  0  0  0  0  0  0  0  0  0  0
   20.0998   -7.5140  -13.2927 C   0  0  0  0  0  0  0  0  0  0  0  0
   21.0202   -7.7646  -14.4179 C   0  0  0  0  0  0  0  0  0  0  0  0
   21.0520   -6.6704  -15.4260 C   0  0  2  0  0  0  0  0  0  0  0  0
   22.0073   -6.9644  -16.5036 N   0  0  0  0  0  0  0  0  0  0  0  0
   21.3799   -5.3884  -14.7730 C   0  0  0  0  0  0  0  0  0  0  0  0
   20.5623   -4.7417  -14.0803 O   0  0  0  0  0  0  0  0  0  0  0  0
   18.7287   -7.5083  -13.5112 C   0  0  0  0  0  0  0  0  0  0  0  0
   17.8472   -7.2666  -12.4856 C   0  0  0  0  0  0  0  0  0  0  0  0
   22.6495   -4.8077  -14.8916 O   0  0  0  0  0  0  0  0  0  0  0  0
  2  1  1  0
  2  3  2  0
  4  2  1  0
  5  4  1  0
  6  5  1  0
  6  7  1  6
  8  9  2  0
  8  6  1  0
 11 10  1  6
 11 13  1  0
 12 11  1  0
 13 14  1  6
 14  8  1  0
 15 13  1  0
 15 24  1  0
 16 15  2  0
 17 18  1  0
 18 28  2  0
 19 18  1  0
 19 20  2  0
 20 21  1  0
 21 27  2  0
 21 22  1  0
 23 22  1  1
 23 24  1  0
 23 25  1  0
 25 29  1  0
 26 25  2  0
 28 27  1  0
M  END
$$$$
