QVY.pdb
     RDKit          3D

 29 29  0  0  1  0  0  0  0  0999 V2000
   25.7394  -24.1879  -16.4370 N   0  0  0  0  0  0  0  0  0  0  0  0
   26.8587  -25.0664  -16.7498 C   0  0  0  0  0  0  0  0  0  0  0  0
   27.1370  -25.8922  -15.8773 O   0  0  0  0  0  0  0  0  0  0  0  0
   27.5127  -24.8770  -18.0266 C   0  0  0  0  0  0  0  0  0  0  0  0
   27.0587  -23.7885  -18.9286 C   0  0  0  0  0  0  0  0  0  0  0  0
   28.0009  -22.6931  -19.1884 C   0  0  2  0  0  0  0  0  0  0  0  0
   29.0744  -23.0761  -20.0894 N   0  0  0  0  0  0  0  0  0  0  0  0
   28.4261  -21.7753  -18.1337 C   0  0  0  0  0  0  0  0  0  0  0  0
   29.6478  -21.8030  -17.7278 O   0  0  0  0  0  0  0  0  0  0  0  0
   28.7159  -18.3163  -18.1024 C   0  0  0  0  0  0  0  0  0  0  0  0
   27.8645  -18.4977  -16.8319 C   0  0  1  0  0  0  0  0  0  0  0  0
   26.4423  -18.2680  -17.4036 C   0  0  0  0  0  0  0  0  0  0  0  0
   27.9400  -19.9228  -16.4055 C   0  0  2  0  0  0  0  0  0  0  0  0
   27.6164  -20.8451  -17.4910 N   0  0  0  0  0  0  0  0  0  0  0  0
   27.1996  -20.3082  -15.1983 C   0  0  0  0  0  0  0  0  0  0  0  0
   26.0220  -20.8307  -15.3783 O   0  0  0  0  0  0  0  0  0  0  0  0
   23.7185  -20.7042   -7.0531 O   0  0  0  0  0  0  0  0  0  0  0  0
   24.6016  -20.6306   -8.1223 C   0  0  0  0  0  0  0  0  0  0  0  0
   24.9032  -19.3865   -8.6397 C   0  0  0  0  0  0  0  0  0  0  0  0
   25.7764  -19.2848   -9.7010 C   0  0  0  0  0  0  0  0  0  0  0  0
   26.3755  -20.3816  -10.2851 C   0  0  0  0  0  0  0  0  0  0  0  0
   27.3015  -20.2860  -11.4294 C   0  0  0  0  0  0  0  0  0  0  0  0
   26.6420  -20.4464  -12.7537 C   0  0  2  0  0  0  0  0  0  0  0  0
   27.5849  -20.1991  -13.8536 N   0  0  0  0  0  0  0  0  0  0  0  0
   25.4768  -19.5463  -12.8525 C   0  0  0  0  0  0  0  0  0  0  0  0
   24.3092  -19.9015  -12.5754 O   0  0  0  0  0  0  0  0  0  0  0  0
   26.0623  -21.6253   -9.7532 C   0  0  0  0  0  0  0  0  0  0  0  0
   25.1945  -21.7469   -8.6951 C   0  0  0  0  0  0  0  0  0  0  0  0
   25.6106  -18.2154  -13.2700 O   0  0  0  0  0  0  0  0  0  0  0  0
  2  1  1  0
  2  3  2  0
  4  2  1  0
  5  4  1  0
  6  5  1  0
  6  7  1  1
  8  9  2  0
  8  6  1  0
 11 10  1  6
 11 13  1  0
 12 11  1  0
 13 14  1  6
 14  8  1  0
 15 13  1  0
 15 24  1  0
 16 15  2  0
 17 18  1  0
 18 28  2  0
 19 18  1  0
 19 20  2  0
 20 21  1  0
 21 27  2  0
 21 22  1  0
 23 22  1  1
 23 24  1  0
 23 25  1  0
 25 29  1  0
 26 25  2  0
 28 27  1  0
M  END
$$$$
