QVY.pdb
     RDKit          3D

 29 29  0  0  1  0  0  0  0  0999 V2000
   19.2375  -17.7377  -11.4492 N   0  0  0  0  0  0  0  0  0  0  0  0
   18.7901  -17.8673  -12.8296 C   0  0  0  0  0  0  0  0  0  0  0  0
   18.1316  -16.9173  -13.2589 O   0  0  0  0  0  0  0  0  0  0  0  0
   19.1582  -19.0763  -13.5344 C   0  0  0  0  0  0  0  0  0  0  0  0
   19.9980  -20.0946  -12.8544 C   0  0  0  0  0  0  0  0  0  0  0  0
   21.3441  -20.3250  -13.3929 C   0  0  2  0  0  0  0  0  0  0  0  0
   21.3403  -20.5952  -14.8205 N   0  0  0  0  0  0  0  0  0  0  0  0
   22.3478  -21.0919  -12.6582 C   0  0  0  0  0  0  0  0  0  0  0  0
   21.9980  -22.1747  -12.0555 O   0  0  0  0  0  0  0  0  0  0  0  0
   25.1076  -22.3958  -14.2011 C   0  0  0  0  0  0  0  0  0  0  0  0
   25.8166  -21.9134  -12.9219 C   0  0  1  0  0  0  0  0  0  0  0  0
   26.4807  -20.6104  -13.4352 C   0  0  0  0  0  0  0  0  0  0  0  0
   24.7845  -21.5151  -11.9246 C   0  0  2  0  0  0  0  0  0  0  0  0
   23.6915  -20.7576  -12.5289 N   0  0  0  0  0  0  0  0  0  0  0  0
   25.2446  -20.8283  -10.7120 C   0  0  0  0  0  0  0  0  0  0  0  0
   25.1054  -19.5352  -10.6856 O   0  0  0  0  0  0  0  0  0  0  0  0
   29.5082  -18.3504   -3.3209 O   0  0  0  0  0  0  0  0  0  0  0  0
   28.8154  -19.0862   -4.2732 C   0  0  0  0  0  0  0  0  0  0  0  0
   29.2864  -19.0881   -5.5712 C   0  0  0  0  0  0  0  0  0  0  0  0
   28.6178  -19.8097   -6.5363 C   0  0  0  0  0  0  0  0  0  0  0  0
   27.4806  -20.5433   -6.2687 C   0  0  0  0  0  0  0  0  0  0  0  0
   26.7493  -21.3089   -7.2958 C   0  0  0  0  0  0  0  0  0  0  0  0
   26.4358  -20.5261   -8.5220 C   0  0  2  0  0  0  0  0  0  0  0  0
   25.8180  -21.3723   -9.5527 N   0  0  0  0  0  0  0  0  0  0  0  0
   27.6587  -19.8821   -9.0391 C   0  0  0  0  0  0  0  0  0  0  0  0
   28.4405  -20.4384   -9.8426 O   0  0  0  0  0  0  0  0  0  0  0  0
   27.0199  -20.5315   -4.9589 C   0  0  0  0  0  0  0  0  0  0  0  0
   27.6730  -19.8186   -3.9829 C   0  0  0  0  0  0  0  0  0  0  0  0
   28.0243  -18.5853   -8.6545 O   0  0  0  0  0  0  0  0  0  0  0  0
  2  1  1  0
  2  3  2  0
  4  2  1  0
  5  4  1  0
  6  5  1  0
  6  7  1  6
  8  9  2  0
  8  6  1  0
 11 10  1  6
 11 13  1  0
 12 11  1  0
 13 14  1  6
 14  8  1  0
 15 13  1  0
 15 24  1  0
 16 15  2  0
 17 18  1  0
 18 28  2  0
 19 18  1  0
 19 20  2  0
 20 21  1  0
 21 27  2  0
 21 22  1  0
 23 22  1  1
 23 24  1  0
 23 25  1  0
 25 29  1  0
 26 25  2  0
 28 27  1  0
M  END
$$$$
