QVY.pdb
     RDKit          3D

 29 29  0  0  1  0  0  0  0  0999 V2000
   23.7012  -21.5784  -19.2349 N   0  0  0  0  0  0  0  0  0  0  0  0
   22.8010  -22.5715  -18.6639 C   0  0  0  0  0  0  0  0  0  0  0  0
   22.7599  -23.6483  -19.2633 O   0  0  0  0  0  0  0  0  0  0  0  0
   22.0640  -22.1930  -17.4775 C   0  0  0  0  0  0  0  0  0  0  0  0
   22.3210  -20.8749  -16.8441 C   0  0  0  0  0  0  0  0  0  0  0  0
   23.6914  -20.6000  -16.3951 C   0  0  2  0  0  0  0  0  0  0  0  0
   24.0742  -21.3924  -15.2391 N   0  0  0  0  0  0  0  0  0  0  0  0
   24.2411  -19.2462  -16.3805 C   0  0  0  0  0  0  0  0  0  0  0  0
   23.9064  -18.4393  -15.4345 O   0  0  0  0  0  0  0  0  0  0  0  0
   27.8531  -18.4274  -16.8499 C   0  0  0  0  0  0  0  0  0  0  0  0
   27.1417  -17.4067  -17.7575 C   0  0  1  0  0  0  0  0  0  0  0  0
   27.2568  -18.1144  -19.1316 C   0  0  0  0  0  0  0  0  0  0  0  0
   25.6959  -17.3760  -17.4008 C   0  0  2  0  0  0  0  0  0  0  0  0
   25.1147  -18.7138  -17.3226 N   0  0  0  0  0  0  0  0  0  0  0  0
   24.8207  -16.5076  -18.1968 C   0  0  0  0  0  0  0  0  0  0  0  0
   24.2338  -17.0528  -19.2216 O   0  0  0  0  0  0  0  0  0  0  0  0
   19.7250  -10.3402  -21.9639 O   0  0  0  0  0  0  0  0  0  0  0  0
   20.5034  -11.0752  -21.0794 C   0  0  0  0  0  0  0  0  0  0  0  0
   20.0880  -12.3478  -20.7413 C   0  0  0  0  0  0  0  0  0  0  0  0
   20.8416  -13.0990  -19.8654 C   0  0  0  0  0  0  0  0  0  0  0  0
   22.0107  -12.6369  -19.2974 C   0  0  0  0  0  0  0  0  0  0  0  0
   22.8186  -13.4267  -18.3489 C   0  0  0  0  0  0  0  0  0  0  0  0
   23.7534  -14.3822  -19.0029 C   0  0  2  0  0  0  0  0  0  0  0  0
   24.5136  -15.1516  -18.0079 N   0  0  0  0  0  0  0  0  0  0  0  0
   24.6644  -13.6592  -19.9111 C   0  0  0  0  0  0  0  0  0  0  0  0
   24.3534  -13.3320  -21.0784 O   0  0  0  0  0  0  0  0  0  0  0  0
   22.4150  -11.3556  -19.6476 C   0  0  0  0  0  0  0  0  0  0  0  0
   21.6775  -10.5918  -20.5194 C   0  0  0  0  0  0  0  0  0  0  0  0
   25.9560  -13.2889  -19.5135 O   0  0  0  0  0  0  0  0  0  0  0  0
  2  1  1  0
  2  3  2  0
  4  2  1  0
  5  4  1  0
  6  5  1  0
  6  7  1  1
  8  9  2  0
  8  6  1  0
 11 10  1  1
 11 13  1  0
 12 11  1  0
 13 14  1  6
 14  8  1  0
 15 13  1  0
 15 24  1  0
 16 15  2  0
 17 18  1  0
 18 28  2  0
 19 18  1  0
 19 20  2  0
 20 21  1  0
 21 27  2  0
 21 22  1  0
 23 22  1  1
 23 24  1  0
 23 25  1  0
 25 29  1  0
 26 25  2  0
 28 27  1  0
M  END
$$$$
