QVY.pdb
     RDKit          3D

 29 29  0  0  1  0  0  0  0  0999 V2000
   19.4455   -7.8240  -21.1631 N   0  0  0  0  0  0  0  0  0  0  0  0
   20.0775   -8.9466  -21.8434 C   0  0  0  0  0  0  0  0  0  0  0  0
   20.4026   -8.7349  -23.0139 O   0  0  0  0  0  0  0  0  0  0  0  0
   20.2502  -10.1676  -21.0864 C   0  0  0  0  0  0  0  0  0  0  0  0
   21.5826  -10.4964  -20.5193 C   0  0  0  0  0  0  0  0  0  0  0  0
   21.6115  -11.3100  -19.2976 C   0  0  2  0  0  0  0  0  0  0  0  0
   20.9949  -12.6135  -19.4750 N   0  0  0  0  0  0  0  0  0  0  0  0
   21.3740  -10.7286  -17.9782 C   0  0  0  0  0  0  0  0  0  0  0  0
   20.1658  -10.4913  -17.6014 O   0  0  0  0  0  0  0  0  0  0  0  0
   22.3667  -12.2324  -14.9574 C   0  0  0  0  0  0  0  0  0  0  0  0
   22.8406  -10.7921  -14.6874 C   0  0  1  0  0  0  0  0  0  0  0  0
   24.3409  -10.9087  -15.0590 C   0  0  0  0  0  0  0  0  0  0  0  0
   22.2110   -9.8862  -15.6881 C   0  0  2  0  0  0  0  0  0  0  0  0
   22.3542  -10.3827  -17.0543 N   0  0  0  0  0  0  0  0  0  0  0  0
   22.5793   -8.4663  -15.6419 C   0  0  0  0  0  0  0  0  0  0  0  0
   23.4681   -8.0661  -16.5032 O   0  0  0  0  0  0  0  0  0  0  0  0
   16.6754   -5.0415  -17.3444 O   0  0  0  0  0  0  0  0  0  0  0  0
   18.0344   -5.1351  -17.0750 C   0  0  0  0  0  0  0  0  0  0  0  0
   18.7281   -6.2215  -17.5701 C   0  0  0  0  0  0  0  0  0  0  0  0
   20.0777   -6.3393  -17.3173 C   0  0  0  0  0  0  0  0  0  0  0  0
   20.7851   -5.4117  -16.5810 C   0  0  0  0  0  0  0  0  0  0  0  0
   22.2267   -5.5339  -16.2931 C   0  0  0  0  0  0  0  0  0  0  0  0
   22.5277   -6.0577  -14.9332 C   0  0  2  0  0  0  0  0  0  0  0  0
   22.1005   -7.4570  -14.7930 N   0  0  0  0  0  0  0  0  0  0  0  0
   21.8854   -5.2107  -13.9096 C   0  0  0  0  0  0  0  0  0  0  0  0
   20.9647   -5.6137  -13.1639 O   0  0  0  0  0  0  0  0  0  0  0  0
   20.0734   -4.3251  -16.0905 C   0  0  0  0  0  0  0  0  0  0  0  0
   18.7278   -4.1899  -16.3323 C   0  0  0  0  0  0  0  0  0  0  0  0
   22.2752   -3.8800  -13.7078 O   0  0  0  0  0  0  0  0  0  0  0  0
  2  1  1  0
  2  3  2  0
  4  2  1  0
  5  4  1  0
  6  5  1  0
  6  7  1  6
  8  9  2  0
  8  6  1  0
 11 10  1  6
 11 13  1  0
 12 11  1  0
 13 14  1  6
 14  8  1  0
 15 13  1  0
 15 24  1  0
 16 15  2  0
 17 18  1  0
 18 28  2  0
 19 18  1  0
 19 20  2  0
 20 21  1  0
 21 27  2  0
 21 22  1  0
 23 22  1  6
 23 24  1  0
 23 25  1  0
 25 29  1  0
 26 25  2  0
 28 27  1  0
M  END
$$$$
