QVY.pdb
     RDKit          3D

 29 29  0  0  1  0  0  0  0  0999 V2000
   17.4851  -16.0428  -16.2429 N   0  0  0  0  0  0  0  0  0  0  0  0
   17.6354  -15.6423  -17.6356 C   0  0  0  0  0  0  0  0  0  0  0  0
   17.0388  -16.3483  -18.4517 O   0  0  0  0  0  0  0  0  0  0  0  0
   18.4557  -14.4813  -17.9060 C   0  0  0  0  0  0  0  0  0  0  0  0
   19.1052  -13.7640  -16.7798 C   0  0  0  0  0  0  0  0  0  0  0  0
   20.0115  -12.6601  -17.1187 C   0  0  2  0  0  0  0  0  0  0  0  0
   20.8829  -12.9712  -18.2389 N   0  0  0  0  0  0  0  0  0  0  0  0
   20.6552  -11.8470  -16.0891 C   0  0  0  0  0  0  0  0  0  0  0  0
   20.0330  -11.6181  -14.9852 O   0  0  0  0  0  0  0  0  0  0  0  0
   24.1136  -12.3902  -14.9339 C   0  0  0  0  0  0  0  0  0  0  0  0
   24.0567  -10.8568  -15.0649 C   0  0  1  0  0  0  0  0  0  0  0  0
   24.7349  -10.6607  -16.4447 C   0  0  0  0  0  0  0  0  0  0  0  0
   22.6338  -10.4423  -15.2136 C   0  0  2  0  0  0  0  0  0  0  0  0
   21.9144  -11.2643  -16.1833 N   0  0  0  0  0  0  0  0  0  0  0  0
   22.3664   -9.0240  -15.4798 C   0  0  0  0  0  0  0  0  0  0  0  0
   22.5501   -8.6149  -16.7008 O   0  0  0  0  0  0  0  0  0  0  0  0
   20.0880   -0.7806  -16.9646 O   0  0  0  0  0  0  0  0  0  0  0  0
   20.2073   -2.1256  -16.6408 C   0  0  0  0  0  0  0  0  0  0  0  0
   19.7593   -2.5450  -15.4039 C   0  0  0  0  0  0  0  0  0  0  0  0
   19.8659   -3.8744  -15.0568 C   0  0  0  0  0  0  0  0  0  0  0  0
   20.4077   -4.8259  -15.8959 C   0  0  0  0  0  0  0  0  0  0  0  0
   20.5387   -6.2490  -15.5303 C   0  0  0  0  0  0  0  0  0  0  0  0
   21.8756   -6.6111  -14.9862 C   0  0  2  0  0  0  0  0  0  0  0  0
   21.9278   -8.0269  -14.5954 N   0  0  0  0  0  0  0  0  0  0  0  0
   22.2104   -5.7410  -13.8423 C   0  0  0  0  0  0  0  0  0  0  0  0
   22.6831   -4.5894  -13.9708 O   0  0  0  0  0  0  0  0  0  0  0  0
   20.8532   -4.3885  -17.1361 C   0  0  0  0  0  0  0  0  0  0  0  0
   20.7550   -3.0675  -17.5004 C   0  0  0  0  0  0  0  0  0  0  0  0
   22.0153   -6.1600  -12.5195 O   0  0  0  0  0  0  0  0  0  0  0  0
  2  1  1  0
  2  3  2  0
  4  2  1  0
  5  4  1  0
  6  5  1  0
  6  7  1  1
  8  9  2  0
  8  6  1  0
 11 10  1  6
 11 13  1  0
 12 11  1  0
 13 14  1  6
 14  8  1  0
 15 13  1  0
 15 24  1  0
 16 15  2  0
 17 18  1  0
 18 28  2  0
 19 18  1  0
 19 20  2  0
 20 21  1  0
 21 27  2  0
 21 22  1  0
 23 22  1  1
 23 24  1  0
 23 25  1  0
 25 29  1  0
 26 25  2  0
 28 27  1  0
M  END
$$$$
