QVY.pdb
     RDKit          3D

 29 29  0  0  1  0  0  0  0  0999 V2000
   22.6157  -22.2686  -19.6808 N   0  0  0  0  0  0  0  0  0  0  0  0
   23.4735  -21.5955  -20.6470 C   0  0  0  0  0  0  0  0  0  0  0  0
   22.9236  -21.2760  -21.7035 O   0  0  0  0  0  0  0  0  0  0  0  0
   24.8540  -21.3803  -20.2703 C   0  0  0  0  0  0  0  0  0  0  0  0
   25.3329  -21.8446  -18.9437 C   0  0  0  0  0  0  0  0  0  0  0  0
   25.8176  -20.8225  -18.0081 C   0  0  2  0  0  0  0  0  0  0  0  0
   26.6971  -19.8535  -18.6394 N   0  0  0  0  0  0  0  0  0  0  0  0
   26.2034  -21.1523  -16.6378 C   0  0  0  0  0  0  0  0  0  0  0  0
   25.7952  -22.2563  -16.1156 O   0  0  0  0  0  0  0  0  0  0  0  0
   29.6850  -20.7328  -15.5166 C   0  0  0  0  0  0  0  0  0  0  0  0
   28.9014  -20.2698  -14.2742 C   0  0  1  0  0  0  0  0  0  0  0  0
   29.0018  -18.7307  -14.4280 C   0  0  0  0  0  0  0  0  0  0  0  0
   27.4680  -20.6346  -14.4498 C   0  0  2  0  0  0  0  0  0  0  0  0
   26.9879  -20.3642  -15.8025 N   0  0  0  0  0  0  0  0  0  0  0  0
   26.5097  -20.1017  -13.4743 C   0  0  0  0  0  0  0  0  0  0  0  0
   25.9524  -18.9631  -13.7663 O   0  0  0  0  0  0  0  0  0  0  0  0
   18.4225  -19.8234  -10.7753 O   0  0  0  0  0  0  0  0  0  0  0  0
   19.7113  -20.0942  -11.2158 C   0  0  0  0  0  0  0  0  0  0  0  0
   20.4011  -19.0983  -11.8783 C   0  0  0  0  0  0  0  0  0  0  0  0
   21.6816  -19.3404  -12.3264 C   0  0  0  0  0  0  0  0  0  0  0  0
   22.3221  -20.5487  -12.1452 C   0  0  0  0  0  0  0  0  0  0  0  0
   23.6873  -20.8235  -12.6316 C   0  0  0  0  0  0  0  0  0  0  0  0
   24.7598  -20.3885  -11.6962 C   0  0  2  0  0  0  0  0  0  0  0  0
   26.0940  -20.6530  -12.2529 N   0  0  0  0  0  0  0  0  0  0  0  0
   24.5966  -21.0576  -10.3910 C   0  0  0  0  0  0  0  0  0  0  0  0
   25.1292  -22.1549  -10.1106 O   0  0  0  0  0  0  0  0  0  0  0  0
   21.6154  -21.5396  -11.4770 C   0  0  0  0  0  0  0  0  0  0  0  0
   20.3382  -21.3171  -11.0224 C   0  0  0  0  0  0  0  0  0  0  0  0
   23.8214  -20.4940   -9.3689 O   0  0  0  0  0  0  0  0  0  0  0  0
  2  1  1  0
  2  3  2  0
  4  2  1  0
  5  4  1  0
  6  5  1  0
  6  7  1  6
  8  9  2  0
  8  6  1  0
 11 10  1  6
 11 13  1  0
 12 11  1  0
 13 14  1  6
 14  8  1  0
 15 13  1  0
 15 24  1  0
 16 15  2  0
 17 18  1  0
 18 28  2  0
 19 18  1  0
 19 20  2  0
 20 21  1  0
 21 27  2  0
 21 22  1  0
 23 22  1  6
 23 24  1  0
 23 25  1  0
 25 29  1  0
 26 25  2  0
 28 27  1  0
M  END
$$$$
