WYH.pdb
     RDKit          3D

 37 40  0  0  1  0  0  0  0  0999 V2000
   18.0907  -10.8697  -27.3002 N   0  0  0  0  0  0  0  0  0  0  0  0
   18.6264  -10.9419  -25.9709 C   0  0  1  0  0  0  0  0  0  0  0  0
   18.8647   -9.6096  -25.3438 C   0  0  0  0  0  0  0  0  0  0  0  0
   19.9591   -8.8893  -26.0066 C   0  0  0  0  0  0  0  0  0  0  0  0
   19.7976   -7.8565  -26.8989 C   0  0  0  0  0  0  0  0  0  0  0  0
   21.0059   -7.4241  -27.2838 N   0  0  0  0  0  0  0  0  0  0  0  0
   21.9441   -8.1629  -26.6535 C   0  0  0  0  0  0  0  0  0  0  0  0
   23.3181   -8.1265  -26.7052 C   0  0  0  0  0  0  0  0  0  0  0  0
   24.0871   -8.9970  -25.9685 C   0  0  0  0  0  0  0  0  0  0  0  0
   23.4558   -9.9136  -25.1714 C   0  0  0  0  0  0  0  0  0  0  0  0
   22.0829   -9.9728  -25.1000 C   0  0  0  0  0  0  0  0  0  0  0  0
   21.3051   -9.0917  -25.8446 C   0  0  0  0  0  0  0  0  0  0  0  0
   17.7871  -11.8288  -25.1180 C   0  0  0  0  0  0  0  0  0  0  0  0
   16.5293  -11.7992  -25.2126 O   0  0  0  0  0  0  0  0  0  0  0  0
   14.8937  -18.6533  -20.4974 O   0  0  0  0  0  0  0  0  0  0  0  0
   15.7161  -17.7317  -21.1682 C   0  0  0  0  0  0  0  0  0  0  0  0
   15.5212  -17.5255  -22.5178 C   0  0  0  0  0  0  0  0  0  0  0  0
   16.3294  -16.6165  -23.1873 C   0  0  0  0  0  0  0  0  0  0  0  0
   17.3201  -15.9186  -22.5299 C   0  0  0  0  0  0  0  0  0  0  0  0
   18.1460  -14.9794  -23.3051 C   0  0  0  0  0  0  0  0  0  0  0  0
   17.5687  -13.5729  -23.3418 C   0  0  2  0  0  0  0  0  0  0  0  0
   18.3874  -12.7174  -24.1898 N   0  0  0  0  0  0  0  0  0  0  0  0
   17.3964  -12.9855  -21.9974 C   0  0  0  0  0  0  0  0  0  0  0  0
   18.2131  -12.1607  -21.5549 O   0  0  0  0  0  0  0  0  0  0  0  0
   17.5222  -16.1182  -21.1824 C   0  0  0  0  0  0  0  0  0  0  0  0
   16.7021  -17.0346  -20.5231 C   0  0  0  0  0  0  0  0  0  0  0  0
   16.2819  -13.3602  -21.1844 N   0  0  0  0  0  0  0  0  0  0  0  0
   16.0767  -12.7691  -19.8568 C   0  0  1  0  0  0  0  0  0  0  0  0
   16.0029  -11.2640  -19.9679 C   0  0  0  0  0  0  0  0  0  0  0  0
   15.8904  -10.6778  -18.6135 C   0  0  0  0  0  0  0  0  0  0  0  0
   16.6739  -11.0616  -17.5207 C   0  0  0  0  0  0  0  0  0  0  0  0
   16.3106  -10.3309  -16.4633 N   0  0  0  0  0  0  0  0  0  0  0  0
   15.3254   -9.4919  -16.8294 C   0  0  0  0  0  0  0  0  0  0  0  0
   15.0896   -9.7209  -18.1331 N   0  0  0  0  0  0  0  0  0  0  0  0
   14.8861  -13.3682  -19.2186 C   0  0  0  0  0  0  0  0  0  0  0  0
   15.0109  -14.0421  -18.1409 O   0  0  0  0  0  0  0  0  0  0  0  0
   13.5978  -13.2607  -19.7014 O   0  0  0  0  0  0  0  0  0  0  0  0
  2  1  1  6
  3  4  1  0
  3  2  1  0
  4  5  2  0
  6  5  1  0
  7  6  1  0
  8  7  2  0
  9  8  1  0
 10 11  1  0
 10  9  2  0
 11 12  2  0
 12  4  1  0
 12  7  1  0
 13  2  1  0
 13 14  2  0
 15 16  1  0
 16 17  2  0
 17 18  1  0
 19 20  1  0
 19 18  2  0
 21 20  1  1
 21 23  1  0
 21 22  1  0
 22 13  1  0
 23 27  1  0
 24 23  2  0
 25 19  1  0
 26 25  2  0
 26 16  1  0
 27 28  1  0
 28 35  1  0
 28 29  1  6
 30 34  1  0
 30 29  1  0
 31 30  2  0
 32 31  1  0
 32 33  1  0
 33 34  2  0
 35 36  2  0
 35 37  1  0
M  END
$$$$
