WYH.pdb
     RDKit          3D

 37 40  0  0  1  0  0  0  0  0999 V2000
   28.4970  -23.0138  -18.0864 N   0  0  0  0  0  0  0  0  0  0  0  0
   27.1997  -22.4189  -17.9375 C   0  0  1  0  0  0  0  0  0  0  0  0
   26.1827  -22.9427  -18.8949 C   0  0  0  0  0  0  0  0  0  0  0  0
   26.3456  -22.3547  -20.2303 C   0  0  0  0  0  0  0  0  0  0  0  0
   27.3712  -22.6415  -21.0991 C   0  0  0  0  0  0  0  0  0  0  0  0
   27.1897  -21.9438  -22.2285 N   0  0  0  0  0  0  0  0  0  0  0  0
   26.0628  -21.2111  -22.1008 C   0  0  0  0  0  0  0  0  0  0  0  0
   25.4452  -20.3330  -22.9608 C   0  0  0  0  0  0  0  0  0  0  0  0
   24.2860  -19.6809  -22.6099 C   0  0  0  0  0  0  0  0  0  0  0  0
   23.7481  -19.9220  -21.3744 C   0  0  0  0  0  0  0  0  0  0  0  0
   24.3443  -20.7953  -20.4938 C   0  0  0  0  0  0  0  0  0  0  0  0
   25.5163  -21.4555  -20.8490 C   0  0  0  0  0  0  0  0  0  0  0  0
   26.7450  -22.5070  -16.5219 C   0  0  0  0  0  0  0  0  0  0  0  0
   26.6217  -23.6306  -15.9613 O   0  0  0  0  0  0  0  0  0  0  0  0
   24.6795  -20.6682   -8.1956 O   0  0  0  0  0  0  0  0  0  0  0  0
   25.0877  -20.5708   -9.5371 C   0  0  0  0  0  0  0  0  0  0  0  0
   26.2958  -21.1241   -9.9066 C   0  0  0  0  0  0  0  0  0  0  0  0
   26.7058  -21.0323  -11.2300 C   0  0  0  0  0  0  0  0  0  0  0  0
   25.9300  -20.4001  -12.1783 C   0  0  0  0  0  0  0  0  0  0  0  0
   26.4324  -20.3307  -13.5595 C   0  0  0  0  0  0  0  0  0  0  0  0
   25.8589  -21.4184  -14.4545 C   0  0  2  0  0  0  0  0  0  0  0  0
   26.4450  -21.3329  -15.7851 N   0  0  0  0  0  0  0  0  0  0  0  0
   24.3833  -21.3940  -14.5177 C   0  0  0  0  0  0  0  0  0  0  0  0
   23.7918  -20.5784  -15.2444 O   0  0  0  0  0  0  0  0  0  0  0  0
   24.7225  -19.8444  -11.8184 C   0  0  0  0  0  0  0  0  0  0  0  0
   24.3237  -19.9448  -10.4850 C   0  0  0  0  0  0  0  0  0  0  0  0
   23.6130  -22.3134  -13.7399 N   0  0  0  0  0  0  0  0  0  0  0  0
   22.1464  -22.2595  -13.7316 C   0  0  1  0  0  0  0  0  0  0  0  0
   21.5821  -23.6187  -13.3890 C   0  0  0  0  0  0  0  0  0  0  0  0
   21.6744  -24.5002  -14.5743 C   0  0  0  0  0  0  0  0  0  0  0  0
   22.1496  -24.0930  -15.8248 C   0  0  0  0  0  0  0  0  0  0  0  0
   22.0967  -25.1365  -16.6568 N   0  0  0  0  0  0  0  0  0  0  0  0
   21.6072  -26.1995  -15.9944 C   0  0  0  0  0  0  0  0  0  0  0  0
   21.3598  -25.7894  -14.7381 N   0  0  0  0  0  0  0  0  0  0  0  0
   21.6882  -21.1890  -12.8218 C   0  0  0  0  0  0  0  0  0  0  0  0
   20.4407  -20.9409  -12.7057 O   0  0  0  0  0  0  0  0  0  0  0  0
   22.5204  -20.4004  -12.0539 O   0  0  0  0  0  0  0  0  0  0  0  0
  2  1  1  1
  3  4  1  0
  3  2  1  0
  4  5  2  0
  6  5  1  0
  7  6  1  0
  8  7  2  0
  9  8  1  0
 10 11  1  0
 10  9  2  0
 11 12  2  0
 12  4  1  0
 12  7  1  0
 13  2  1  0
 13 14  2  0
 15 16  1  0
 16 17  2  0
 17 18  1  0
 19 20  1  0
 19 18  2  0
 21 20  1  1
 21 23  1  0
 21 22  1  0
 22 13  1  0
 23 27  1  0
 24 23  2  0
 25 19  1  0
 26 25  2  0
 26 16  1  0
 27 28  1  0
 28 35  1  0
 28 29  1  1
 30 34  1  0
 30 29  1  0
 31 30  2  0
 32 31  1  0
 32 33  1  0
 33 34  2  0
 35 36  2  0
 35 37  1  0
M  END
$$$$
