WYH.pdb
     RDKit          3D

 37 40  0  0  1  0  0  0  0  0999 V2000
   22.4382  -14.6025  -18.5616 N   0  0  0  0  0  0  0  0  0  0  0  0
   22.7433  -13.2836  -19.0377 C   0  0  1  0  0  0  0  0  0  0  0  0
   22.2625  -13.0171  -20.4244 C   0  0  0  0  0  0  0  0  0  0  0  0
   22.9298  -13.8849  -21.4029 C   0  0  0  0  0  0  0  0  0  0  0  0
   22.8378  -15.2559  -21.4340 C   0  0  0  0  0  0  0  0  0  0  0  0
   23.5532  -15.7144  -22.4699 N   0  0  0  0  0  0  0  0  0  0  0  0
   24.1054  -14.6597  -23.1070 C   0  0  0  0  0  0  0  0  0  0  0  0
   24.9223  -14.5888  -24.2114 C   0  0  0  0  0  0  0  0  0  0  0  0
   25.3798  -13.3827  -24.6891 C   0  0  0  0  0  0  0  0  0  0  0  0
   25.0048  -12.2374  -24.0399 C   0  0  0  0  0  0  0  0  0  0  0  0
   24.1885  -12.2783  -22.9329 C   0  0  0  0  0  0  0  0  0  0  0  0
   23.7251  -13.4981  -22.4502 C   0  0  0  0  0  0  0  0  0  0  0  0
   22.2727  -12.2569  -18.0666 C   0  0  0  0  0  0  0  0  0  0  0  0
   21.0632  -12.2256  -17.7089 O   0  0  0  0  0  0  0  0  0  0  0  0
   22.2205   -5.4588  -12.4352 O   0  0  0  0  0  0  0  0  0  0  0  0
   22.6132   -6.5330  -13.2523 C   0  0  0  0  0  0  0  0  0  0  0  0
   23.1750   -6.2623  -14.4824 C   0  0  0  0  0  0  0  0  0  0  0  0
   23.5657   -7.3180  -15.2951 C   0  0  0  0  0  0  0  0  0  0  0  0
   23.4027   -8.6276  -14.8965 C   0  0  0  0  0  0  0  0  0  0  0  0
   23.8294   -9.6960  -15.8138 C   0  0  0  0  0  0  0  0  0  0  0  0
   22.6957  -10.2208  -16.6812 C   0  0  2  0  0  0  0  0  0  0  0  0
   23.1746  -11.3023  -17.5310 N   0  0  0  0  0  0  0  0  0  0  0  0
   22.0435   -9.1625  -17.4792 C   0  0  0  0  0  0  0  0  0  0  0  0
   22.6025   -8.6866  -18.4812 O   0  0  0  0  0  0  0  0  0  0  0  0
   22.8423   -8.9075  -13.6700 C   0  0  0  0  0  0  0  0  0  0  0  0
   22.4548   -7.8362  -12.8642 C   0  0  0  0  0  0  0  0  0  0  0  0
   20.7541   -8.6702  -17.1071 N   0  0  0  0  0  0  0  0  0  0  0  0
   20.1492   -7.5253  -17.7979 C   0  0  1  0  0  0  0  0  0  0  0  0
   19.1532   -8.0103  -18.8257 C   0  0  0  0  0  0  0  0  0  0  0  0
   18.5641   -6.8459  -19.5242 C   0  0  0  0  0  0  0  0  0  0  0  0
   19.2982   -5.9226  -20.2751 C   0  0  0  0  0  0  0  0  0  0  0  0
   18.4546   -5.0093  -20.7631 N   0  0  0  0  0  0  0  0  0  0  0  0
   17.2070   -5.3057  -20.3579 C   0  0  0  0  0  0  0  0  0  0  0  0
   17.2997   -6.4197  -19.6107 N   0  0  0  0  0  0  0  0  0  0  0  0
   19.5650   -6.5940  -16.8105 C   0  0  0  0  0  0  0  0  0  0  0  0
   18.9434   -5.5511  -17.2070 O   0  0  0  0  0  0  0  0  0  0  0  0
   19.6324   -6.7559  -15.4417 O   0  0  0  0  0  0  0  0  0  0  0  0
  2  1  1  1
  3  4  1  0
  3  2  1  0
  4  5  2  0
  6  5  1  0
  7  6  1  0
  8  7  2  0
  9  8  1  0
 10 11  1  0
 10  9  2  0
 11 12  2  0
 12  4  1  0
 12  7  1  0
 13  2  1  0
 13 14  2  0
 15 16  1  0
 16 17  2  0
 17 18  1  0
 19 20  1  0
 19 18  2  0
 21 20  1  6
 21 23  1  0
 21 22  1  0
 22 13  1  0
 23 27  1  0
 24 23  2  0
 25 19  1  0
 26 25  2  0
 26 16  1  0
 27 28  1  0
 28 35  1  0
 28 29  1  6
 30 34  1  0
 30 29  1  0
 31 30  2  0
 32 31  1  0
 32 33  1  0
 33 34  2  0
 35 36  2  0
 35 37  1  0
M  END
$$$$
