WYH.pdb
     RDKit          3D

 37 40  0  0  1  0  0  0  0  0999 V2000
   25.8306  -18.9728   -9.5445 N   0  0  0  0  0  0  0  0  0  0  0  0
   26.2343  -20.2095  -10.1504 C   0  0  1  0  0  0  0  0  0  0  0  0
   26.3299  -21.3478   -9.1911 C   0  0  0  0  0  0  0  0  0  0  0  0
   26.5852  -20.8804   -7.8229 C   0  0  0  0  0  0  0  0  0  0  0  0
   25.6177  -20.6489   -6.8745 C   0  0  0  0  0  0  0  0  0  0  0  0
   26.2100  -20.2553   -5.7390 N   0  0  0  0  0  0  0  0  0  0  0  0
   27.5448  -20.2292   -5.9410 C   0  0  0  0  0  0  0  0  0  0  0  0
   28.5856  -19.8935   -5.1067 C   0  0  0  0  0  0  0  0  0  0  0  0
   29.8915  -19.9332   -5.5370 C   0  0  0  0  0  0  0  0  0  0  0  0
   30.1439  -20.3173   -6.8265 C   0  0  0  0  0  0  0  0  0  0  0  0
   29.1225  -20.6587   -7.6831 C   0  0  0  0  0  0  0  0  0  0  0  0
   27.8017  -20.6193   -7.2476 C   0  0  0  0  0  0  0  0  0  0  0  0
   25.3679  -20.5242  -11.3203 C   0  0  0  0  0  0  0  0  0  0  0  0
   24.1553  -20.1753  -11.3270 O   0  0  0  0  0  0  0  0  0  0  0  0
   28.2795  -16.3062  -18.0751 O   0  0  0  0  0  0  0  0  0  0  0  0
   27.9669  -17.0846  -16.9472 C   0  0  0  0  0  0  0  0  0  0  0  0
   28.4672  -16.7067  -15.7188 C   0  0  0  0  0  0  0  0  0  0  0  0
   28.1627  -17.4703  -14.5999 C   0  0  0  0  0  0  0  0  0  0  0  0
   27.3721  -18.5957  -14.6939 C   0  0  0  0  0  0  0  0  0  0  0  0
   27.0996  -19.3632  -13.4685 C   0  0  0  0  0  0  0  0  0  0  0  0
   26.1430  -20.5235  -13.6958 C   0  0  2  0  0  0  0  0  0  0  0  0
   25.8913  -21.2184  -12.4408 N   0  0  0  0  0  0  0  0  0  0  0  0
   26.6091  -21.4584  -14.7403 C   0  0  0  0  0  0  0  0  0  0  0  0
   27.3792  -22.3918  -14.4599 O   0  0  0  0  0  0  0  0  0  0  0  0
   26.8683  -18.9809  -15.9164 C   0  0  0  0  0  0  0  0  0  0  0  0
   27.1827  -18.2035  -17.0318 C   0  0  0  0  0  0  0  0  0  0  0  0
   26.1777  -21.3003  -16.0940 N   0  0  0  0  0  0  0  0  0  0  0  0
   25.2401  -22.2475  -16.7084 C   0  0  1  0  0  0  0  0  0  0  0  0
   23.9892  -22.3543  -15.8675 C   0  0  0  0  0  0  0  0  0  0  0  0
   24.0392  -23.6010  -15.0714 C   0  0  0  0  0  0  0  0  0  0  0  0
   25.1300  -24.4756  -15.0435 C   0  0  0  0  0  0  0  0  0  0  0  0
   24.8371  -25.4898  -14.2252 N   0  0  0  0  0  0  0  0  0  0  0  0
   23.6027  -25.3052  -13.7245 C   0  0  0  0  0  0  0  0  0  0  0  0
   23.1418  -24.1570  -14.2509 N   0  0  0  0  0  0  0  0  0  0  0  0
   24.9731  -21.8542  -18.1076 C   0  0  0  0  0  0  0  0  0  0  0  0
   24.6628  -20.6462  -18.3827 O   0  0  0  0  0  0  0  0  0  0  0  0
   25.0315  -22.7091  -19.1892 O   0  0  0  0  0  0  0  0  0  0  0  0
  2  1  1  1
  3  4  1  0
  3  2  1  0
  4  5  2  0
  6  5  1  0
  7  6  1  0
  8  7  2  0
  9  8  1  0
 10 11  1  0
 10  9  2  0
 11 12  2  0
 12  4  1  0
 12  7  1  0
 13  2  1  0
 13 14  2  0
 15 16  1  0
 16 17  2  0
 17 18  1  0
 19 20  1  0
 19 18  2  0
 21 20  1  1
 21 23  1  0
 21 22  1  0
 22 13  1  0
 23 27  1  0
 24 23  2  0
 25 19  1  0
 26 25  2  0
 26 16  1  0
 27 28  1  0
 28 35  1  0
 28 29  1  1
 30 34  1  0
 30 29  1  0
 31 30  2  0
 32 31  1  0
 32 33  1  0
 33 34  2  0
 35 36  2  0
 35 37  1  0
M  END
$$$$
