WYH.pdb
     RDKit          3D

 37 40  0  0  1  0  0  0  0  0999 V2000
   27.7667  -21.2756  -16.5045 N   0  0  0  0  0  0  0  0  0  0  0  0
   26.9467  -21.8524  -15.4778 C   0  0  1  0  0  0  0  0  0  0  0  0
   26.2709  -20.8454  -14.6092 C   0  0  0  0  0  0  0  0  0  0  0  0
   27.2430  -20.0468  -13.8523 C   0  0  0  0  0  0  0  0  0  0  0  0
   27.4477  -18.6967  -14.0088 C   0  0  0  0  0  0  0  0  0  0  0  0
   28.3884  -18.2982  -13.1420 N   0  0  0  0  0  0  0  0  0  0  0  0
   28.7937  -19.3710  -12.4292 C   0  0  0  0  0  0  0  0  0  0  0  0
   29.7310  -19.4996  -11.4308 C   0  0  0  0  0  0  0  0  0  0  0  0
   29.9893  -20.7154  -10.8415 C   0  0  0  0  0  0  0  0  0  0  0  0
   29.2898  -21.8114  -11.2695 C   0  0  0  0  0  0  0  0  0  0  0  0
   28.3463  -21.7122  -12.2663 C   0  0  0  0  0  0  0  0  0  0  0  0
   28.0845  -20.4824  -12.8617 C   0  0  0  0  0  0  0  0  0  0  0  0
   25.9886  -22.8308  -16.0638 C   0  0  0  0  0  0  0  0  0  0  0  0
   25.2229  -22.4864  -17.0056 O   0  0  0  0  0  0  0  0  0  0  0  0
   21.6323  -30.2094  -18.0261 O   0  0  0  0  0  0  0  0  0  0  0  0
   22.5688  -29.2943  -17.5147 C   0  0  0  0  0  0  0  0  0  0  0  0
   23.2165  -28.4468  -18.3889 C   0  0  0  0  0  0  0  0  0  0  0  0
   24.1427  -27.5400  -17.8913 C   0  0  0  0  0  0  0  0  0  0  0  0
   24.4259  -27.4715  -16.5438 C   0  0  0  0  0  0  0  0  0  0  0  0
   25.4268  -26.4937  -16.0885 C   0  0  0  0  0  0  0  0  0  0  0  0
   24.8863  -25.0731  -16.0345 C   0  0  2  0  0  0  0  0  0  0  0  0
   25.9232  -24.1600  -15.5736 N   0  0  0  0  0  0  0  0  0  0  0  0
   23.6642  -24.9524  -15.2136 C   0  0  0  0  0  0  0  0  0  0  0  0
   23.6483  -25.3467  -14.0357 O   0  0  0  0  0  0  0  0  0  0  0  0
   23.7843  -28.3140  -15.6635 C   0  0  0  0  0  0  0  0  0  0  0  0
   22.8560  -29.2198  -16.1782 C   0  0  0  0  0  0  0  0  0  0  0  0
   22.4781  -24.3772  -15.7667 N   0  0  0  0  0  0  0  0  0  0  0  0
   21.7705  -23.2889  -15.0820 C   0  0  1  0  0  0  0  0  0  0  0  0
   22.7313  -22.1657  -14.7683 C   0  0  0  0  0  0  0  0  0  0  0  0
   22.0174  -21.1041  -14.0240 C   0  0  0  0  0  0  0  0  0  0  0  0
   20.6885  -21.1964  -13.5989 C   0  0  0  0  0  0  0  0  0  0  0  0
   20.3701  -20.0674  -12.9601 N   0  0  0  0  0  0  0  0  0  0  0  0
   21.4389  -19.2513  -12.9557 C   0  0  0  0  0  0  0  0  0  0  0  0
   22.4214  -19.9004  -13.6046 N   0  0  0  0  0  0  0  0  0  0  0  0
   20.6099  -22.8583  -15.8890 C   0  0  0  0  0  0  0  0  0  0  0  0
   19.4241  -23.1029  -15.4825 O   0  0  0  0  0  0  0  0  0  0  0  0
   20.6945  -22.1874  -17.0919 O   0  0  0  0  0  0  0  0  0  0  0  0
  2  1  1  6
  3  4  1  0
  3  2  1  0
  4  5  2  0
  6  5  1  0
  7  6  1  0
  8  7  2  0
  9  8  1  0
 10 11  1  0
 10  9  2  0
 11 12  2  0
 12  4  1  0
 12  7  1  0
 13  2  1  0
 13 14  2  0
 15 16  1  0
 16 17  2  0
 17 18  1  0
 19 20  1  0
 19 18  2  0
 21 20  1  1
 21 23  1  0
 21 22  1  0
 22 13  1  0
 23 27  1  0
 24 23  2  0
 25 19  1  0
 26 25  2  0
 26 16  1  0
 27 28  1  0
 28 35  1  0
 28 29  1  6
 30 34  1  0
 30 29  1  0
 31 30  2  0
 32 31  1  0
 32 33  1  0
 33 34  2  0
 35 36  2  0
 35 37  1  0
M  END
$$$$
