WYH.pdb
     RDKit          3D

 37 40  0  0  1  0  0  0  0  0999 V2000
   24.7636  -17.7288  -16.8249 N   0  0  0  0  0  0  0  0  0  0  0  0
   25.8096  -18.1667  -15.9455 C   0  0  1  0  0  0  0  0  0  0  0  0
   26.6936  -17.0654  -15.4649 C   0  0  0  0  0  0  0  0  0  0  0  0
   27.2421  -16.2872  -16.5826 C   0  0  0  0  0  0  0  0  0  0  0  0
   27.0146  -14.9492  -16.7992 C   0  0  0  0  0  0  0  0  0  0  0  0
   27.6877  -14.5672  -17.8929 N   0  0  0  0  0  0  0  0  0  0  0  0
   28.3455  -15.6388  -18.3849 C   0  0  0  0  0  0  0  0  0  0  0  0
   29.1631  -15.7807  -19.4820 C   0  0  0  0  0  0  0  0  0  0  0  0
   29.7296  -16.9924  -19.8026 C   0  0  0  0  0  0  0  0  0  0  0  0
   29.4640  -18.0709  -19.0025 C   0  0  0  0  0  0  0  0  0  0  0  0
   28.6499  -17.9581  -17.8988 C   0  0  0  0  0  0  0  0  0  0  0  0
   28.0775  -16.7324  -17.5740 C   0  0  0  0  0  0  0  0  0  0  0  0
   25.2468  -18.9723  -14.8263 C   0  0  0  0  0  0  0  0  0  0  0  0
   25.9689  -19.2834  -13.8394 O   0  0  0  0  0  0  0  0  0  0  0  0
   21.2854  -21.4042   -7.7602 O   0  0  0  0  0  0  0  0  0  0  0  0
   21.7806  -20.8248   -8.9413 C   0  0  0  0  0  0  0  0  0  0  0  0
   23.0998  -21.0365   -9.2836 C   0  0  0  0  0  0  0  0  0  0  0  0
   23.5962  -20.4677  -10.4489 C   0  0  0  0  0  0  0  0  0  0  0  0
   22.7975  -19.6977  -11.2672 C   0  0  0  0  0  0  0  0  0  0  0  0
   23.3935  -19.1172  -12.4808 C   0  0  0  0  0  0  0  0  0  0  0  0
   23.2922  -20.0354  -13.6889 C   0  0  2  0  0  0  0  0  0  0  0  0
   23.8949  -19.4002  -14.8527 N   0  0  0  0  0  0  0  0  0  0  0  0
   21.9074  -20.4650  -13.9715 C   0  0  0  0  0  0  0  0  0  0  0  0
   21.0914  -19.6820  -14.4854 O   0  0  0  0  0  0  0  0  0  0  0  0
   21.4792  -19.4807  -10.9332 C   0  0  0  0  0  0  0  0  0  0  0  0
   20.9944  -20.0589   -9.7594 C   0  0  0  0  0  0  0  0  0  0  0  0
   21.4863  -21.7942  -13.6560 N   0  0  0  0  0  0  0  0  0  0  0  0
   20.0883  -22.2085  -13.8230 C   0  0  1  0  0  0  0  0  0  0  0  0
   20.0067  -23.7125  -13.9434 C   0  0  0  0  0  0  0  0  0  0  0  0
   20.4386  -24.1194  -15.2994 C   0  0  0  0  0  0  0  0  0  0  0  0
   20.7207  -23.2267  -16.3381 C   0  0  0  0  0  0  0  0  0  0  0  0
   21.0812  -23.9313  -17.4141 N   0  0  0  0  0  0  0  0  0  0  0  0
   21.0433  -25.2411  -17.1118 C   0  0  0  0  0  0  0  0  0  0  0  0
   20.6523  -25.3287  -15.8283 N   0  0  0  0  0  0  0  0  0  0  0  0
   19.2679  -21.6640  -12.7212 C   0  0  0  0  0  0  0  0  0  0  0  0
   19.7881  -21.4791  -11.5694 O   0  0  0  0  0  0  0  0  0  0  0  0
   17.9351  -21.3225  -12.8282 O   0  0  0  0  0  0  0  0  0  0  0  0
  2  1  1  1
  3  4  1  0
  3  2  1  0
  4  5  2  0
  6  5  1  0
  7  6  1  0
  8  7  2  0
  9  8  1  0
 10 11  1  0
 10  9  2  0
 11 12  2  0
 12  4  1  0
 12  7  1  0
 13  2  1  0
 13 14  2  0
 15 16  1  0
 16 17  2  0
 17 18  1  0
 19 20  1  0
 19 18  2  0
 21 20  1  1
 21 23  1  0
 21 22  1  0
 22 13  1  0
 23 27  1  0
 24 23  2  0
 25 19  1  0
 26 25  2  0
 26 16  1  0
 27 28  1  0
 28 35  1  0
 28 29  1  1
 30 34  1  0
 30 29  1  0
 31 30  2  0
 32 31  1  0
 32 33  1  0
 33 34  2  0
 35 36  2  0
 35 37  1  0
M  END
$$$$
