WYH.pdb
     RDKit          3D

 37 40  0  0  1  0  0  0  0  0999 V2000
   28.7498  -20.5444  -15.0485 N   0  0  0  0  0  0  0  0  0  0  0  0
   27.5383  -19.8390  -14.7421 C   0  0  1  0  0  0  0  0  0  0  0  0
   26.8330  -19.3029  -15.9423 C   0  0  0  0  0  0  0  0  0  0  0  0
   27.4781  -18.0848  -16.4478 C   0  0  0  0  0  0  0  0  0  0  0  0
   28.1873  -17.9964  -17.6219 C   0  0  0  0  0  0  0  0  0  0  0  0
   28.6124  -16.7353  -17.7770 N   0  0  0  0  0  0  0  0  0  0  0  0
   28.1883  -16.0093  -16.7205 C   0  0  0  0  0  0  0  0  0  0  0  0
   28.3597  -14.6828  -16.3995 C   0  0  0  0  0  0  0  0  0  0  0  0
   27.8351  -14.1505  -15.2448 C   0  0  0  0  0  0  0  0  0  0  0  0
   27.1296  -14.9720  -14.4074 C   0  0  0  0  0  0  0  0  0  0  0  0
   26.9423  -16.3028  -14.7032 C   0  0  0  0  0  0  0  0  0  0  0  0
   27.4723  -16.8410  -15.8715 C   0  0  0  0  0  0  0  0  0  0  0  0
   26.6498  -20.6752  -13.8879 C   0  0  0  0  0  0  0  0  0  0  0  0
   26.4892  -21.9003  -14.1436 O   0  0  0  0  0  0  0  0  0  0  0  0
   29.9387  -21.7677   -8.0613 O   0  0  0  0  0  0  0  0  0  0  0  0
   28.7114  -21.4235   -8.6537 C   0  0  0  0  0  0  0  0  0  0  0  0
   28.4032  -21.9411   -9.8944 C   0  0  0  0  0  0  0  0  0  0  0  0
   27.1927  -21.6060  -10.4859 C   0  0  0  0  0  0  0  0  0  0  0  0
   26.2960  -20.7679   -9.8581 C   0  0  0  0  0  0  0  0  0  0  0  0
   25.0371  -20.4470  -10.5489 C   0  0  0  0  0  0  0  0  0  0  0  0
   25.0262  -20.8975  -12.0015 C   0  0  2  0  0  0  0  0  0  0  0  0
   25.9732  -20.1088  -12.7776 N   0  0  0  0  0  0  0  0  0  0  0  0
   23.6787  -20.8614  -12.6058 C   0  0  0  0  0  0  0  0  0  0  0  0
   23.1762  -19.7869  -12.9744 O   0  0  0  0  0  0  0  0  0  0  0  0
   26.5953  -20.2461   -8.6193 C   0  0  0  0  0  0  0  0  0  0  0  0
   27.8154  -20.5920   -8.0372 C   0  0  0  0  0  0  0  0  0  0  0  0
   22.9320  -22.0686  -12.7753 N   0  0  0  0  0  0  0  0  0  0  0  0
   21.5821  -22.0528  -13.3508 C   0  0  1  0  0  0  0  0  0  0  0  0
   21.1231  -23.4654  -13.6287 C   0  0  0  0  0  0  0  0  0  0  0  0
   19.7320  -23.4380  -14.1334 C   0  0  0  0  0  0  0  0  0  0  0  0
   19.3304  -22.7860  -15.3034 C   0  0  0  0  0  0  0  0  0  0  0  0
   18.0158  -22.9660  -15.4571 N   0  0  0  0  0  0  0  0  0  0  0  0
   17.5536  -23.7072  -14.4346 C   0  0  0  0  0  0  0  0  0  0  0  0
   18.6098  -23.9797  -13.6486 N   0  0  0  0  0  0  0  0  0  0  0  0
   20.6669  -21.3035  -12.4650 C   0  0  0  0  0  0  0  0  0  0  0  0
   20.8822  -21.2700  -11.2065 O   0  0  0  0  0  0  0  0  0  0  0  0
   19.5546  -20.6073  -12.8919 O   0  0  0  0  0  0  0  0  0  0  0  0
  2  1  1  6
  3  4  1  0
  3  2  1  0
  4  5  2  0
  6  5  1  0
  7  6  1  0
  8  7  2  0
  9  8  1  0
 10 11  1  0
 10  9  2  0
 11 12  2  0
 12  4  1  0
 12  7  1  0
 13  2  1  0
 13 14  2  0
 15 16  1  0
 16 17  2  0
 17 18  1  0
 19 20  1  0
 19 18  2  0
 21 20  1  1
 21 23  1  0
 21 22  1  0
 22 13  1  0
 23 27  1  0
 24 23  2  0
 25 19  1  0
 26 25  2  0
 26 16  1  0
 27 28  1  0
 28 35  1  0
 28 29  1  1
 30 34  1  0
 30 29  1  0
 31 30  2  0
 32 31  1  0
 32 33  1  0
 33 34  2  0
 35 36  2  0
 35 37  1  0
M  END
$$$$
