WYH.pdb
     RDKit          3D

 37 40  0  0  1  0  0  0  0  0999 V2000
   27.6996  -21.1131  -17.2487 N   0  0  0  0  0  0  0  0  0  0  0  0
   26.6117  -20.2242  -16.9560 C   0  0  1  0  0  0  0  0  0  0  0  0
   25.6370  -20.0754  -18.0754 C   0  0  0  0  0  0  0  0  0  0  0  0
   26.2039  -19.2985  -19.1847 C   0  0  0  0  0  0  0  0  0  0  0  0
   27.5080  -18.8715  -19.2638 C   0  0  0  0  0  0  0  0  0  0  0  0
   27.6790  -18.2140  -20.4186 N   0  0  0  0  0  0  0  0  0  0  0  0
   26.5047  -18.2102  -21.0852 C   0  0  0  0  0  0  0  0  0  0  0  0
   26.1486  -17.6704  -22.2992 C   0  0  0  0  0  0  0  0  0  0  0  0
   24.8674  -17.7842  -22.7867 C   0  0  0  0  0  0  0  0  0  0  0  0
   23.9385  -18.4522  -22.0353 C   0  0  0  0  0  0  0  0  0  0  0  0
   24.2666  -19.0024  -20.8174 C   0  0  0  0  0  0  0  0  0  0  0  0
   25.5627  -18.8879  -20.3246 C   0  0  0  0  0  0  0  0  0  0  0  0
   25.9528  -20.6099  -15.6771 C   0  0  0  0  0  0  0  0  0  0  0  0
   25.6799  -21.8188  -15.4404 O   0  0  0  0  0  0  0  0  0  0  0  0
   30.8184  -21.3255  -11.4589 O   0  0  0  0  0  0  0  0  0  0  0  0
   29.5035  -20.8646  -11.6447 C   0  0  0  0  0  0  0  0  0  0  0  0
   29.2810  -19.8250  -12.5232 C   0  0  0  0  0  0  0  0  0  0  0  0
   27.9849  -19.3643  -12.7123 C   0  0  0  0  0  0  0  0  0  0  0  0
   26.9199  -19.9252  -12.0402 C   0  0  0  0  0  0  0  0  0  0  0  0
   25.5750  -19.3791  -12.2813 C   0  0  0  0  0  0  0  0  0  0  0  0
   24.8974  -19.9878  -13.4993 C   0  0  2  0  0  0  0  0  0  0  0  0
   25.6236  -19.6270  -14.7090 N   0  0  0  0  0  0  0  0  0  0  0  0
   23.4692  -19.6255  -13.6051 C   0  0  0  0  0  0  0  0  0  0  0  0
   23.0853  -18.7919  -14.4421 O   0  0  0  0  0  0  0  0  0  0  0  0
   27.1326  -20.9635  -11.1608 C   0  0  0  0  0  0  0  0  0  0  0  0
   28.4404  -21.4158  -10.9813 C   0  0  0  0  0  0  0  0  0  0  0  0
   22.5054  -20.2330  -12.7414 N   0  0  0  0  0  0  0  0  0  0  0  0
   21.0768  -20.2325  -13.0772 C   0  0  1  0  0  0  0  0  0  0  0  0
   20.8683  -20.8367  -14.4465 C   0  0  0  0  0  0  0  0  0  0  0  0
   19.4589  -20.6464  -14.8564 C   0  0  0  0  0  0  0  0  0  0  0  0
   18.4964  -19.9851  -14.0872 C   0  0  0  0  0  0  0  0  0  0  0  0
   17.3408  -19.9954  -14.7568 N   0  0  0  0  0  0  0  0  0  0  0  0
   17.5186  -20.6358  -15.9258 C   0  0  0  0  0  0  0  0  0  0  0  0
   18.8067  -21.0195  -15.9623 N   0  0  0  0  0  0  0  0  0  0  0  0
   20.3104  -20.9144  -12.0136 C   0  0  0  0  0  0  0  0  0  0  0  0
   20.7592  -21.9915  -11.4943 O   0  0  0  0  0  0  0  0  0  0  0  0
   19.1036  -20.4745  -11.5091 O   0  0  0  0  0  0  0  0  0  0  0  0
  2  1  1  6
  3  4  1  0
  3  2  1  0
  4  5  2  0
  6  5  1  0
  7  6  1  0
  8  7  2  0
  9  8  1  0
 10 11  1  0
 10  9  2  0
 11 12  2  0
 12  4  1  0
 12  7  1  0
 13  2  1  0
 13 14  2  0
 15 16  1  0
 16 17  2  0
 17 18  1  0
 19 20  1  0
 19 18  2  0
 21 20  1  1
 21 23  1  0
 21 22  1  0
 22 13  1  0
 23 27  1  0
 24 23  2  0
 25 19  1  0
 26 25  2  0
 26 16  1  0
 27 28  1  0
 28 35  1  0
 28 29  1  6
 30 34  1  0
 30 29  1  0
 31 30  2  0
 32 31  1  0
 32 33  1  0
 33 34  2  0
 35 36  2  0
 35 37  1  0
M  END
$$$$
