WYH.pdb
     RDKit          3D

 37 40  0  0  1  0  0  0  0  0999 V2000
   15.3066  -12.7581  -15.1957 N   0  0  0  0  0  0  0  0  0  0  0  0
   16.2844  -12.4505  -14.1913 C   0  0  1  0  0  0  0  0  0  0  0  0
   17.6934  -12.5555  -14.6695 C   0  0  0  0  0  0  0  0  0  0  0  0
   18.0615  -13.9464  -14.9621 C   0  0  0  0  0  0  0  0  0  0  0  0
   18.3684  -14.4360  -16.2092 C   0  0  0  0  0  0  0  0  0  0  0  0
   18.6777  -15.7350  -16.1002 N   0  0  0  0  0  0  0  0  0  0  0  0
   18.5745  -16.0906  -14.8017 C   0  0  0  0  0  0  0  0  0  0  0  0
   18.7764  -17.2949  -14.1686 C   0  0  0  0  0  0  0  0  0  0  0  0
   18.6020  -17.4298  -12.8109 C   0  0  0  0  0  0  0  0  0  0  0  0
   18.2190  -16.3320  -12.0884 C   0  0  0  0  0  0  0  0  0  0  0  0
   18.0100  -15.1147  -12.6953 C   0  0  0  0  0  0  0  0  0  0  0  0
   18.1872  -14.9782  -14.0684 C   0  0  0  0  0  0  0  0  0  0  0  0
   15.9935  -11.1294  -13.5679 C   0  0  0  0  0  0  0  0  0  0  0  0
   15.5051  -10.1930  -14.2582 O   0  0  0  0  0  0  0  0  0  0  0  0
   13.7976   -5.0814   -7.6000 O   0  0  0  0  0  0  0  0  0  0  0  0
   14.2728   -6.2503   -8.2193 C   0  0  0  0  0  0  0  0  0  0  0  0
   13.3680   -7.0979   -8.8235 C   0  0  0  0  0  0  0  0  0  0  0  0
   13.8297   -8.2544   -9.4376 C   0  0  0  0  0  0  0  0  0  0  0  0
   15.1716   -8.5702   -9.4542 C   0  0  0  0  0  0  0  0  0  0  0  0
   15.5883   -9.8178  -10.1137 C   0  0  0  0  0  0  0  0  0  0  0  0
   15.9572   -9.6211  -11.5759 C   0  0  2  0  0  0  0  0  0  0  0  0
   16.2602  -10.9050  -12.1931 N   0  0  0  0  0  0  0  0  0  0  0  0
   17.0641   -8.6617  -11.7669 C   0  0  0  0  0  0  0  0  0  0  0  0
   18.2463   -9.0420  -11.7407 O   0  0  0  0  0  0  0  0  0  0  0  0
   16.0823   -7.7300   -8.8531 C   0  0  0  0  0  0  0  0  0  0  0  0
   15.6035   -6.5714   -8.2403 C   0  0  0  0  0  0  0  0  0  0  0  0
   16.7877   -7.2763  -11.9856 N   0  0  0  0  0  0  0  0  0  0  0  0
   17.8637   -6.3250  -12.2878 C   0  0  1  0  0  0  0  0  0  0  0  0
   18.6731   -6.8183  -13.4645 C   0  0  0  0  0  0  0  0  0  0  0  0
   19.7093   -5.8163  -13.8007 C   0  0  0  0  0  0  0  0  0  0  0  0
   20.9544   -5.7277  -13.1705 C   0  0  0  0  0  0  0  0  0  0  0  0
   21.6350   -4.7184  -13.7202 N   0  0  0  0  0  0  0  0  0  0  0  0
   20.8800   -4.1529  -14.6787 C   0  0  0  0  0  0  0  0  0  0  0  0
   19.7213   -4.8342  -14.7079 N   0  0  0  0  0  0  0  0  0  0  0  0
   17.2983   -4.9749  -12.4909 C   0  0  0  0  0  0  0  0  0  0  0  0
   16.0451   -4.8314  -12.6910 O   0  0  0  0  0  0  0  0  0  0  0  0
   18.0321   -3.8063  -12.4832 O   0  0  0  0  0  0  0  0  0  0  0  0
  2  1  1  6
  3  4  1  0
  3  2  1  0
  4  5  2  0
  6  5  1  0
  7  6  1  0
  8  7  2  0
  9  8  1  0
 10 11  1  0
 10  9  2  0
 11 12  2  0
 12  4  1  0
 12  7  1  0
 13  2  1  0
 13 14  2  0
 15 16  1  0
 16 17  2  0
 17 18  1  0
 19 20  1  0
 19 18  2  0
 21 20  1  1
 21 23  1  0
 21 22  1  0
 22 13  1  0
 23 27  1  0
 24 23  2  0
 25 19  1  0
 26 25  2  0
 26 16  1  0
 27 28  1  0
 28 35  1  0
 28 29  1  6
 30 34  1  0
 30 29  1  0
 31 30  2  0
 32 31  1  0
 32 33  1  0
 33 34  2  0
 35 36  2  0
 35 37  1  0
M  END
$$$$
