WYH.pdb
     RDKit          3D

 37 40  0  0  1  0  0  0  0  0999 V2000
   27.0723  -22.5105  -15.3765 N   0  0  0  0  0  0  0  0  0  0  0  0
   26.1139  -21.9068  -14.4954 C   0  0  1  0  0  0  0  0  0  0  0  0
   26.3730  -20.4637  -14.2206 C   0  0  0  0  0  0  0  0  0  0  0  0
   27.6864  -20.2607  -13.5964 C   0  0  0  0  0  0  0  0  0  0  0  0
   28.7288  -19.5643  -14.1598 C   0  0  0  0  0  0  0  0  0  0  0  0
   29.7600  -19.5614  -13.3044 N   0  0  0  0  0  0  0  0  0  0  0  0
   29.3983  -20.2458  -12.1980 C   0  0  0  0  0  0  0  0  0  0  0  0
   30.0846  -20.5359  -11.0418 C   0  0  0  0  0  0  0  0  0  0  0  0
   29.5088  -21.2692  -10.0305 C   0  0  0  0  0  0  0  0  0  0  0  0
   28.2240  -21.7125  -10.1939 C   0  0  0  0  0  0  0  0  0  0  0  0
   27.5136  -21.4372  -11.3398 C   0  0  0  0  0  0  0  0  0  0  0  0
   28.0958  -20.6948  -12.3623 C   0  0  0  0  0  0  0  0  0  0  0  0
   24.7288  -22.1516  -14.9852 C   0  0  0  0  0  0  0  0  0  0  0  0
   24.4413  -21.9698  -16.2003 O   0  0  0  0  0  0  0  0  0  0  0  0
   24.8499  -28.2028  -17.5324 O   0  0  0  0  0  0  0  0  0  0  0  0
   24.1638  -27.2793  -16.7247 C   0  0  0  0  0  0  0  0  0  0  0  0
   24.7896  -26.7866  -15.5988 C   0  0  0  0  0  0  0  0  0  0  0  0
   24.1185  -25.8740  -14.7961 C   0  0  0  0  0  0  0  0  0  0  0  0
   22.8422  -25.4527  -15.1027 C   0  0  0  0  0  0  0  0  0  0  0  0
   22.1873  -24.4920  -14.2009 C   0  0  0  0  0  0  0  0  0  0  0  0
   22.4267  -23.0445  -14.6014 C   0  0  2  0  0  0  0  0  0  0  0  0
   23.7153  -22.5915  -14.0959 N   0  0  0  0  0  0  0  0  0  0  0  0
   21.3380  -22.1413  -14.1756 C   0  0  0  0  0  0  0  0  0  0  0  0
   21.2880  -21.7112  -13.0114 O   0  0  0  0  0  0  0  0  0  0  0  0
   22.2092  -25.9395  -16.2247 C   0  0  0  0  0  0  0  0  0  0  0  0
   22.8963  -26.8559  -17.0219 C   0  0  0  0  0  0  0  0  0  0  0  0
   20.3232  -21.7485  -15.1026 N   0  0  0  0  0  0  0  0  0  0  0  0
   19.1801  -20.9321  -14.6774 C   0  0  1  0  0  0  0  0  0  0  0  0
   18.6044  -20.1930  -15.8630 C   0  0  0  0  0  0  0  0  0  0  0  0
   17.3875  -19.4635  -15.4415 C   0  0  0  0  0  0  0  0  0  0  0  0
   16.8944  -19.4422  -14.1331 C   0  0  0  0  0  0  0  0  0  0  0  0
   15.7903  -18.6909  -14.1102 N   0  0  0  0  0  0  0  0  0  0  0  0
   15.5514  -18.2270  -15.3497 C   0  0  0  0  0  0  0  0  0  0  0  0
   16.5305  -18.7077  -16.1358 N   0  0  0  0  0  0  0  0  0  0  0  0
   18.1907  -21.7782  -13.9782 C   0  0  0  0  0  0  0  0  0  0  0  0
   17.9092  -22.9384  -14.4321 O   0  0  0  0  0  0  0  0  0  0  0  0
   17.5155  -21.4136  -12.8313 O   0  0  0  0  0  0  0  0  0  0  0  0
  2  1  1  6
  3  4  1  0
  3  2  1  0
  4  5  2  0
  6  5  1  0
  7  6  1  0
  8  7  2  0
  9  8  1  0
 10 11  1  0
 10  9  2  0
 11 12  2  0
 12  4  1  0
 12  7  1  0
 13  2  1  0
 13 14  2  0
 15 16  1  0
 16 17  2  0
 17 18  1  0
 19 20  1  0
 19 18  2  0
 21 20  1  1
 21 23  1  0
 21 22  1  0
 22 13  1  0
 23 27  1  0
 24 23  2  0
 25 19  1  0
 26 25  2  0
 26 16  1  0
 27 28  1  0
 28 35  1  0
 28 29  1  6
 30 34  1  0
 30 29  1  0
 31 30  2  0
 32 31  1  0
 32 33  1  0
 33 34  2  0
 35 36  2  0
 35 37  1  0
M  END
$$$$
