WYH.pdb
     RDKit          3D

 37 40  0  0  1  0  0  0  0  0999 V2000
   26.8123  -22.8702  -12.6414 N   0  0  0  0  0  0  0  0  0  0  0  0
   26.3296  -21.9881  -11.6176 C   0  0  1  0  0  0  0  0  0  0  0  0
   27.0622  -20.6907  -11.5451 C   0  0  0  0  0  0  0  0  0  0  0  0
   28.1812  -20.7553  -10.5968 C   0  0  0  0  0  0  0  0  0  0  0  0
   29.4547  -21.1697  -10.9059 C   0  0  0  0  0  0  0  0  0  0  0  0
   30.2181  -21.0780   -9.8086 N   0  0  0  0  0  0  0  0  0  0  0  0
   29.4559  -20.6110   -8.7966 C   0  0  0  0  0  0  0  0  0  0  0  0
   29.7534  -20.3458   -7.4801 C   0  0  0  0  0  0  0  0  0  0  0  0
   28.7985  -19.8735   -6.6099 C   0  0  0  0  0  0  0  0  0  0  0  0
   27.5294  -19.6683   -7.0800 C   0  0  0  0  0  0  0  0  0  0  0  0
   27.2034  -19.9248   -8.3921 C   0  0  0  0  0  0  0  0  0  0  0  0
   28.1694  -20.4018   -9.2724 C   0  0  0  0  0  0  0  0  0  0  0  0
   24.8569  -21.8022  -11.7413 C   0  0  0  0  0  0  0  0  0  0  0  0
   24.2551  -22.1641  -12.7895 O   0  0  0  0  0  0  0  0  0  0  0  0
   16.6003  -21.9067   -8.6754 O   0  0  0  0  0  0  0  0  0  0  0  0
   17.9654  -21.6215   -8.8512 C   0  0  0  0  0  0  0  0  0  0  0  0
   18.8978  -22.5460   -8.4294 C   0  0  0  0  0  0  0  0  0  0  0  0
   20.2481  -22.2717   -8.5998 C   0  0  0  0  0  0  0  0  0  0  0  0
   20.6726  -21.0958   -9.1808 C   0  0  0  0  0  0  0  0  0  0  0  0
   22.1195  -20.8668   -9.3194 C   0  0  0  0  0  0  0  0  0  0  0  0
   22.6560  -21.2715  -10.6838 C   0  0  2  0  0  0  0  0  0  0  0  0
   24.1114  -21.2179  -10.6857 N   0  0  0  0  0  0  0  0  0  0  0  0
   22.0900  -20.4684  -11.7868 C   0  0  0  0  0  0  0  0  0  0  0  0
   22.7240  -19.5153  -12.2692 O   0  0  0  0  0  0  0  0  0  0  0  0
   19.7489  -20.1666   -9.6047 C   0  0  0  0  0  0  0  0  0  0  0  0
   18.3955  -20.4564   -9.4271 C   0  0  0  0  0  0  0  0  0  0  0  0
   20.7990  -20.7793  -12.3163 N   0  0  0  0  0  0  0  0  0  0  0  0
   20.2960  -20.1217  -13.5280 C   0  0  1  0  0  0  0  0  0  0  0  0
   21.2268  -20.3935  -14.6869 C   0  0  0  0  0  0  0  0  0  0  0  0
   20.7110  -19.7173  -15.8983 C   0  0  0  0  0  0  0  0  0  0  0  0
   20.8260  -18.3458  -16.1452 C   0  0  0  0  0  0  0  0  0  0  0  0
   20.2568  -18.0797  -17.3238 N   0  0  0  0  0  0  0  0  0  0  0  0
   19.7798  -19.2230  -17.8470 C   0  0  0  0  0  0  0  0  0  0  0  0
   20.0667  -20.1981  -16.9667 N   0  0  0  0  0  0  0  0  0  0  0  0
   18.9026  -20.5408  -13.7855 C   0  0  0  0  0  0  0  0  0  0  0  0
   17.9969  -19.6612  -13.9785 O   0  0  0  0  0  0  0  0  0  0  0  0
   18.4731  -21.8512  -13.8392 O   0  0  0  0  0  0  0  0  0  0  0  0
  2  1  1  6
  3  4  1  0
  3  2  1  0
  4  5  2  0
  6  5  1  0
  7  6  1  0
  8  7  2  0
  9  8  1  0
 10 11  1  0
 10  9  2  0
 11 12  2  0
 12  4  1  0
 12  7  1  0
 13  2  1  0
 13 14  2  0
 15 16  1  0
 16 17  2  0
 17 18  1  0
 19 20  1  0
 19 18  2  0
 21 20  1  1
 21 23  1  0
 21 22  1  0
 22 13  1  0
 23 27  1  0
 24 23  2  0
 25 19  1  0
 26 25  2  0
 26 16  1  0
 27 28  1  0
 28 35  1  0
 28 29  1  6
 30 34  1  0
 30 29  1  0
 31 30  2  0
 32 31  1  0
 32 33  1  0
 33 34  2  0
 35 36  2  0
 35 37  1  0
M  END
$$$$
