WYH.pdb
     RDKit          3D

 37 40  0  0  1  0  0  0  0  0999 V2000
   28.6628  -20.9739  -16.6299 N   0  0  0  0  0  0  0  0  0  0  0  0
   27.6699  -20.2380  -15.9006 C   0  0  1  0  0  0  0  0  0  0  0  0
   26.6374  -19.5977  -16.7662 C   0  0  0  0  0  0  0  0  0  0  0  0
   27.1636  -18.4047  -17.4410 C   0  0  0  0  0  0  0  0  0  0  0  0
   27.6780  -18.3812  -18.7153 C   0  0  0  0  0  0  0  0  0  0  0  0
   28.0406  -17.1261  -19.0128 N   0  0  0  0  0  0  0  0  0  0  0  0
   27.7680  -16.3400  -17.9493 C   0  0  0  0  0  0  0  0  0  0  0  0
   27.9529  -14.9929  -17.7415 C   0  0  0  0  0  0  0  0  0  0  0  0
   27.6015  -14.3955  -16.5534 C   0  0  0  0  0  0  0  0  0  0  0  0
   27.0572  -15.1723  -15.5664 C   0  0  0  0  0  0  0  0  0  0  0  0
   26.8608  -16.5223  -15.7466 C   0  0  0  0  0  0  0  0  0  0  0  0
   27.2155  -17.1265  -16.9486 C   0  0  0  0  0  0  0  0  0  0  0  0
   27.0695  -21.0876  -14.8347 C   0  0  0  0  0  0  0  0  0  0  0  0
   26.5122  -22.1806  -15.1297 O   0  0  0  0  0  0  0  0  0  0  0  0
   22.0864  -21.3579   -7.5559 O   0  0  0  0  0  0  0  0  0  0  0  0
   23.1679  -21.1808   -8.4361 C   0  0  0  0  0  0  0  0  0  0  0  0
   23.1112  -20.1610   -9.3628 C   0  0  0  0  0  0  0  0  0  0  0  0
   24.1758  -19.9795  -10.2355 C   0  0  0  0  0  0  0  0  0  0  0  0
   25.2848  -20.7973  -10.1929 C   0  0  0  0  0  0  0  0  0  0  0  0
   26.3707  -20.5538  -11.1554 C   0  0  0  0  0  0  0  0  0  0  0  0
   26.0250  -21.0048  -12.5661 C   0  0  2  0  0  0  0  0  0  0  0  0
   27.1153  -20.6823  -13.4764 N   0  0  0  0  0  0  0  0  0  0  0  0
   24.7434  -20.4521  -13.0500 C   0  0  0  0  0  0  0  0  0  0  0  0
   24.6598  -19.2680  -13.4159 O   0  0  0  0  0  0  0  0  0  0  0  0
   25.3501  -21.8184   -9.2711 C   0  0  0  0  0  0  0  0  0  0  0  0
   24.2728  -21.9884   -8.4006 C   0  0  0  0  0  0  0  0  0  0  0  0
   23.5771  -21.2769  -13.1040 N   0  0  0  0  0  0  0  0  0  0  0  0
   22.2894  -20.7434  -13.5634 C   0  0  1  0  0  0  0  0  0  0  0  0
   22.3841  -20.3487  -15.0189 C   0  0  0  0  0  0  0  0  0  0  0  0
   21.0813  -19.8059  -15.4649 C   0  0  0  0  0  0  0  0  0  0  0  0
   20.7944  -18.4426  -15.5845 C   0  0  0  0  0  0  0  0  0  0  0  0
   19.5355  -18.3119  -16.0111 N   0  0  0  0  0  0  0  0  0  0  0  0
   18.9990  -19.5346  -16.1714 C   0  0  0  0  0  0  0  0  0  0  0  0
   19.9529  -20.4204  -15.8350 N   0  0  0  0  0  0  0  0  0  0  0  0
   21.2147  -21.7201  -13.2904 C   0  0  0  0  0  0  0  0  0  0  0  0
   20.0659  -21.3143  -12.9069 O   0  0  0  0  0  0  0  0  0  0  0  0
   21.3448  -23.0880  -13.4179 O   0  0  0  0  0  0  0  0  0  0  0  0
  2  1  1  6
  3  4  1  0
  3  2  1  0
  4  5  2  0
  6  5  1  0
  7  6  1  0
  8  7  2  0
  9  8  1  0
 10 11  1  0
 10  9  2  0
 11 12  2  0
 12  4  1  0
 12  7  1  0
 13  2  1  0
 13 14  2  0
 15 16  1  0
 16 17  2  0
 17 18  1  0
 19 20  1  0
 19 18  2  0
 21 20  1  1
 21 23  1  0
 21 22  1  0
 22 13  1  0
 23 27  1  0
 24 23  2  0
 25 19  1  0
 26 25  2  0
 26 16  1  0
 27 28  1  0
 28 35  1  0
 28 29  1  6
 30 34  1  0
 30 29  1  0
 31 30  2  0
 32 31  1  0
 32 33  1  0
 33 34  2  0
 35 36  2  0
 35 37  1  0
M  END
$$$$
