LDD.pdb
     RDKit          3D

 25 24  0  0  1  0  0  0  0  0999 V2000
    5.6047  -12.3065   25.8661 C   0  0  0  0  0  0  0  0  0  0  0  0
    6.6549  -12.9830   26.6819 C   0  0  2  0  0  0  0  0  0  0  0  0
    7.5109  -11.9582   27.4055 C   0  0  0  0  0  0  0  0  0  0  0  0
    7.4888  -13.9759   25.9361 C   0  0  0  0  0  0  0  0  0  0  0  0
    6.7074  -15.0741   25.2795 C   0  0  2  0  0  0  0  0  0  0  0  0
    5.8986  -15.8498   26.1568 N   0  0  0  0  0  0  0  0  0  0  0  0
    7.5702  -15.8855   24.3801 C   0  0  0  0  0  0  0  0  0  0  0  0
    7.9611  -17.0481   24.7491 O   0  0  0  0  0  0  0  0  0  0  0  0
    8.0016  -15.4633   23.1113 N   0  0  0  0  0  0  0  0  0  0  0  0
    8.9532  -16.2224   22.3086 C   0  0  1  0  0  0  0  0  0  0  0  0
    9.0458  -15.5922   20.9209 C   0  0  0  0  0  0  0  0  0  0  0  0
    9.9425  -16.3396   20.0342 C   0  0  0  0  0  0  0  0  0  0  0  0
   10.3499  -17.4826   20.2926 O   0  0  0  0  0  0  0  0  0  0  0  0
   10.2850  -16.3177   22.9131 C   0  0  0  0  0  0  0  0  0  0  0  0
   10.7962  -15.2768   23.3743 O   0  0  0  0  0  0  0  0  0  0  0  0
   10.3671  -15.7565   18.8400 O   0  0  0  0  0  0  0  0  0  0  0  0
   11.0392  -17.5303   23.0142 N   0  0  0  0  0  0  0  0  0  0  0  0
   11.8773  -17.8767   24.1199 C   0  0  1  0  0  0  0  0  0  0  0  0
   11.1607  -17.8736   25.4392 C   0  0  0  0  0  0  0  0  0  0  0  0
   12.0125  -18.2084   26.5800 C   0  0  0  0  0  0  0  0  0  0  0  0
   13.2687  -18.0815   26.5675 O   0  0  0  0  0  0  0  0  0  0  0  0
   12.5242  -19.1748   23.8712 C   0  0  0  0  0  0  0  0  0  0  0  0
   12.3385  -19.9228   22.7133 O   0  0  0  0  0  0  0  0  0  0  0  0
   11.4331  -18.6964   27.7439 O   0  0  0  0  0  0  0  0  0  0  0  0
   13.2931  -19.6590   24.7351 O   0  0  0  0  0  0  0  0  0  0  0  0
  2  1  1  6
  3  2  1  0
  4  2  1  0
  5  4  1  0
  5  6  1  1
  7  9  1  0
  7  5  1  0
  8  7  2  0
 10  9  1  0
 10 11  1  6
 12 16  1  0
 12 11  1  0
 13 12  2  0
 14 10  1  0
 14 17  1  0
 15 14  2  0
 18 17  1  0
 18 22  1  0
 18 19  1  1
 19 20  1  0
 20 24  1  0
 20 21  2  0
 22 23  1  0
 25 22  2  0
M  END
$$$$
