LDD.pdb
     RDKit          3D

 25 24  0  0  1  0  0  0  0  0999 V2000
    7.3321  -11.0080   25.7429 C   0  0  0  0  0  0  0  0  0  0  0  0
    6.4040  -12.1739   25.8162 C   0  0  2  0  0  0  0  0  0  0  0  0
    5.6066  -12.1406   27.1083 C   0  0  0  0  0  0  0  0  0  0  0  0
    7.0479  -13.5058   25.5951 C   0  0  0  0  0  0  0  0  0  0  0  0
    7.8805  -13.5938   24.3515 C   0  0  2  0  0  0  0  0  0  0  0  0
    7.3828  -12.8628   23.2364 N   0  0  0  0  0  0  0  0  0  0  0  0
    8.2331  -15.0044   24.0382 C   0  0  0  0  0  0  0  0  0  0  0  0
    8.4720  -15.8285   24.9892 O   0  0  0  0  0  0  0  0  0  0  0  0
    8.3235  -15.5224   22.7353 N   0  0  0  0  0  0  0  0  0  0  0  0
    8.7007  -16.9039   22.4600 C   0  0  1  0  0  0  0  0  0  0  0  0
    8.0944  -17.3270   21.1241 C   0  0  0  0  0  0  0  0  0  0  0  0
    8.4306  -18.7116   20.7795 C   0  0  0  0  0  0  0  0  0  0  0  0
    8.2121  -19.6687   21.5379 O   0  0  0  0  0  0  0  0  0  0  0  0
   10.1495  -17.1255   22.4533 C   0  0  0  0  0  0  0  0  0  0  0  0
   10.7706  -16.9154   21.3915 O   0  0  0  0  0  0  0  0  0  0  0  0
    9.0228  -18.9859   19.5463 O   0  0  0  0  0  0  0  0  0  0  0  0
   10.9029  -17.5641   23.5889 N   0  0  0  0  0  0  0  0  0  0  0  0
   12.2916  -17.9040   23.5613 C   0  0  1  0  0  0  0  0  0  0  0  0
   13.1453  -16.8814   22.8689 C   0  0  0  0  0  0  0  0  0  0  0  0
   14.0328  -16.1414   23.7654 C   0  0  0  0  0  0  0  0  0  0  0  0
   14.0650  -16.3239   25.0144 O   0  0  0  0  0  0  0  0  0  0  0  0
   12.7728  -18.1582   24.9285 C   0  0  0  0  0  0  0  0  0  0  0  0
   12.0177  -17.9181   26.0718 O   0  0  0  0  0  0  0  0  0  0  0  0
   14.8879  -15.1818   23.2397 O   0  0  0  0  0  0  0  0  0  0  0  0
   13.9258  -18.6183   25.1036 O   0  0  0  0  0  0  0  0  0  0  0  0
  2  1  1  1
  3  2  1  0
  4  2  1  0
  5  4  1  0
  5  6  1  6
  7  9  1  0
  7  5  1  0
  8  7  2  0
 10  9  1  0
 10 11  1  6
 12 16  1  0
 12 11  1  0
 13 12  2  0
 14 10  1  0
 14 17  1  0
 15 14  2  0
 18 17  1  0
 18 22  1  0
 18 19  1  1
 19 20  1  0
 20 24  1  0
 20 21  2  0
 22 23  1  0
 25 22  2  0
M  END
$$$$
