LDD.pdb
     RDKit          3D

 25 24  0  0  1  0  0  0  0  0999 V2000
    9.0740  -12.0835   19.3307 C   0  0  0  0  0  0  0  0  0  0  0  0
    8.1550  -13.2507   19.4690 C   0  0  2  0  0  0  0  0  0  0  0  0
    6.7402  -12.7838   19.7635 C   0  0  0  0  0  0  0  0  0  0  0  0
    8.6075  -14.2968   20.4377 C   0  0  0  0  0  0  0  0  0  0  0  0
   10.0537  -14.6725   20.3148 C   0  0  2  0  0  0  0  0  0  0  0  0
   10.5674  -14.6774   18.9875 N   0  0  0  0  0  0  0  0  0  0  0  0
   10.3556  -15.9103   21.0822 C   0  0  0  0  0  0  0  0  0  0  0  0
    9.6476  -16.2154   22.1050 O   0  0  0  0  0  0  0  0  0  0  0  0
   11.3902  -16.8042   20.7589 N   0  0  0  0  0  0  0  0  0  0  0  0
   11.5742  -18.0787   21.4432 C   0  0  1  0  0  0  0  0  0  0  0  0
   12.5995  -18.9103   20.6760 C   0  0  0  0  0  0  0  0  0  0  0  0
   12.1134  -19.2982   19.3486 C   0  0  0  0  0  0  0  0  0  0  0  0
   10.9776  -19.7572   19.1525 O   0  0  0  0  0  0  0  0  0  0  0  0
   11.9802  -17.9381   22.8444 C   0  0  0  0  0  0  0  0  0  0  0  0
   12.8097  -17.0503   23.1291 O   0  0  0  0  0  0  0  0  0  0  0  0
   12.9510  -19.1509   18.2426 O   0  0  0  0  0  0  0  0  0  0  0  0
   11.4833  -18.7513   23.9128 N   0  0  0  0  0  0  0  0  0  0  0  0
   11.8623  -18.6119   25.2846 C   0  0  1  0  0  0  0  0  0  0  0  0
   10.6954  -18.5832   26.2289 C   0  0  0  0  0  0  0  0  0  0  0  0
   11.0733  -18.5271   27.6406 C   0  0  0  0  0  0  0  0  0  0  0  0
   12.2718  -18.5348   28.0378 O   0  0  0  0  0  0  0  0  0  0  0  0
   12.8151  -19.6715   25.6516 C   0  0  0  0  0  0  0  0  0  0  0  0
   13.7904  -19.5292   26.6332 O   0  0  0  0  0  0  0  0  0  0  0  0
   10.0812  -18.4668   28.6104 O   0  0  0  0  0  0  0  0  0  0  0  0
   12.7684  -20.7774   25.0629 O   0  0  0  0  0  0  0  0  0  0  0  0
  2  1  1  1
  3  2  1  0
  4  2  1  0
  5  4  1  0
  5  6  1  6
  7  9  1  0
  7  5  1  0
  8  7  2  0
 10  9  1  0
 10 11  1  6
 12 16  1  0
 12 11  1  0
 13 12  2  0
 14 10  1  0
 14 17  1  0
 15 14  2  0
 18 17  1  0
 18 22  1  0
 18 19  1  1
 19 20  1  0
 20 24  1  0
 20 21  2  0
 22 23  1  0
 25 22  2  0
M  END
$$$$
