LDD.pdb
     RDKit          3D

 25 24  0  0  1  0  0  0  0  0999 V2000
    8.1280  -13.3754   18.5784 C   0  0  0  0  0  0  0  0  0  0  0  0
    7.5511  -13.0713   19.9204 C   0  0  2  0  0  0  0  0  0  0  0  0
    7.8375  -11.6317   20.3104 C   0  0  0  0  0  0  0  0  0  0  0  0
    7.9384  -14.0276   21.0035 C   0  0  0  0  0  0  0  0  0  0  0  0
    7.5205  -15.4462   20.7575 C   0  0  2  0  0  0  0  0  0  0  0  0
    6.1617  -15.6189   20.3711 N   0  0  0  0  0  0  0  0  0  0  0  0
    7.9476  -16.3342   21.8715 C   0  0  0  0  0  0  0  0  0  0  0  0
    7.6463  -16.0325   23.0793 O   0  0  0  0  0  0  0  0  0  0  0  0
    8.6775  -17.5219   21.6958 N   0  0  0  0  0  0  0  0  0  0  0  0
    9.1303  -18.3422   22.8131 C   0  0  1  0  0  0  0  0  0  0  0  0
    8.7391  -19.7949   22.5528 C   0  0  0  0  0  0  0  0  0  0  0  0
    9.0495  -20.6627   23.6927 C   0  0  0  0  0  0  0  0  0  0  0  0
    9.5260  -20.2367   24.7560 O   0  0  0  0  0  0  0  0  0  0  0  0
   10.5701  -18.2417   23.0681 C   0  0  0  0  0  0  0  0  0  0  0  0
   11.3433  -18.2733   22.0890 O   0  0  0  0  0  0  0  0  0  0  0  0
    8.8038  -22.0328   23.5973 O   0  0  0  0  0  0  0  0  0  0  0  0
   11.1504  -18.1047   24.3697 N   0  0  0  0  0  0  0  0  0  0  0  0
   12.5269  -17.8085   24.6191 C   0  0  1  0  0  0  0  0  0  0  0  0
   12.9701  -16.4929   24.0472 C   0  0  0  0  0  0  0  0  0  0  0  0
   14.1033  -16.5948   23.1283 C   0  0  0  0  0  0  0  0  0  0  0  0
   14.6770  -17.6856   22.8540 O   0  0  0  0  0  0  0  0  0  0  0  0
   12.8010  -17.8778   26.0631 C   0  0  0  0  0  0  0  0  0  0  0  0
   14.0799  -17.9509   26.6055 O   0  0  0  0  0  0  0  0  0  0  0  0
   14.5929  -15.4469   22.5192 O   0  0  0  0  0  0  0  0  0  0  0  0
   11.8462  -17.8718   26.8756 O   0  0  0  0  0  0  0  0  0  0  0  0
  2  1  1  6
  3  2  1  0
  4  2  1  0
  5  4  1  0
  5  6  1  1
  7  9  1  0
  7  5  1  0
  8  7  2  0
 10  9  1  0
 10 11  1  6
 12 16  1  0
 12 11  1  0
 13 12  2  0
 14 10  1  0
 14 17  1  0
 15 14  2  0
 18 17  1  0
 18 22  1  0
 18 19  1  1
 19 20  1  0
 20 24  1  0
 20 21  2  0
 22 23  1  0
 25 22  2  0
M  END
$$$$
