LDD.pdb
     RDKit          3D

 25 24  0  0  1  0  0  0  0  0999 V2000
    8.7408  -12.7665   18.5546 C   0  0  0  0  0  0  0  0  0  0  0  0
    7.7284  -13.2999   19.5121 C   0  0  2  0  0  0  0  0  0  0  0  0
    6.8091  -12.1895   19.9900 C   0  0  0  0  0  0  0  0  0  0  0  0
    8.2938  -14.0829   20.6545 C   0  0  0  0  0  0  0  0  0  0  0  0
    9.2260  -15.1852   20.2502 C   0  0  2  0  0  0  0  0  0  0  0  0
    8.7757  -15.9929   19.1683 N   0  0  0  0  0  0  0  0  0  0  0  0
    9.6853  -15.9626   21.4320 C   0  0  0  0  0  0  0  0  0  0  0  0
   10.0383  -15.3505   22.5003 O   0  0  0  0  0  0  0  0  0  0  0  0
    9.7608  -17.3651   21.4707 N   0  0  0  0  0  0  0  0  0  0  0  0
   10.3496  -18.0928   22.5888 C   0  0  1  0  0  0  0  0  0  0  0  0
    9.7807  -19.5096   22.6134 C   0  0  0  0  0  0  0  0  0  0  0  0
    8.3199  -19.5155   22.7354 C   0  0  0  0  0  0  0  0  0  0  0  0
    7.7235  -19.0829   23.7336 O   0  0  0  0  0  0  0  0  0  0  0  0
   11.8143  -18.1341   22.5548 C   0  0  0  0  0  0  0  0  0  0  0  0
   12.3615  -18.8535   21.6943 O   0  0  0  0  0  0  0  0  0  0  0  0
    7.5476  -20.0257   21.6915 O   0  0  0  0  0  0  0  0  0  0  0  0
   12.6620  -17.3981   23.4431 N   0  0  0  0  0  0  0  0  0  0  0  0
   14.0911  -17.4003   23.3914 C   0  0  1  0  0  0  0  0  0  0  0  0
   14.6778  -16.0824   22.9754 C   0  0  0  0  0  0  0  0  0  0  0  0
   16.1381  -16.0796   22.8956 C   0  0  0  0  0  0  0  0  0  0  0  0
   16.8170  -17.0982   22.5861 O   0  0  0  0  0  0  0  0  0  0  0  0
   14.6388  -17.8396   24.6846 C   0  0  0  0  0  0  0  0  0  0  0  0
   15.9163  -18.3662   24.8452 O   0  0  0  0  0  0  0  0  0  0  0  0
   16.8343  -14.9109   23.1748 O   0  0  0  0  0  0  0  0  0  0  0  0
   13.9365  -17.7451   25.7188 O   0  0  0  0  0  0  0  0  0  0  0  0
  2  1  1  1
  3  2  1  0
  4  2  1  0
  5  4  1  0
  5  6  1  6
  7  9  1  0
  7  5  1  0
  8  7  2  0
 10  9  1  0
 10 11  1  6
 12 16  1  0
 12 11  1  0
 13 12  2  0
 14 10  1  0
 14 17  1  0
 15 14  2  0
 18 17  1  0
 18 22  1  0
 18 19  1  1
 19 20  1  0
 20 24  1  0
 20 21  2  0
 22 23  1  0
 25 22  2  0
M  END
$$$$
