LDD.pdb
     RDKit          3D

 25 24  0  0  1  0  0  0  0  0999 V2000
    6.7189  -12.1804   24.4915 C   0  0  0  0  0  0  0  0  0  0  0  0
    6.4655  -12.9728   25.7301 C   0  0  2  0  0  0  0  0  0  0  0  0
    6.4614  -12.0685   26.9503 C   0  0  0  0  0  0  0  0  0  0  0  0
    7.3646  -14.1535   25.9170 C   0  0  0  0  0  0  0  0  0  0  0  0
    7.2475  -15.1981   24.8479 C   0  0  2  0  0  0  0  0  0  0  0  0
    5.9763  -15.8315   24.7568 N   0  0  0  0  0  0  0  0  0  0  0  0
    8.3916  -16.1472   24.8948 C   0  0  0  0  0  0  0  0  0  0  0  0
    8.3298  -17.1844   25.6437 O   0  0  0  0  0  0  0  0  0  0  0  0
    9.5745  -15.9915   24.1526 N   0  0  0  0  0  0  0  0  0  0  0  0
   10.7389  -16.8502   24.3347 C   0  0  1  0  0  0  0  0  0  0  0  0
   11.7127  -16.6168   23.1822 C   0  0  0  0  0  0  0  0  0  0  0  0
   11.0591  -16.7340   21.8752 C   0  0  0  0  0  0  0  0  0  0  0  0
   10.2256  -17.6148   21.6133 O   0  0  0  0  0  0  0  0  0  0  0  0
   11.4162  -16.6542   25.6196 C   0  0  0  0  0  0  0  0  0  0  0  0
   12.3695  -15.8501   25.6641 O   0  0  0  0  0  0  0  0  0  0  0  0
   11.3746  -15.8221   20.8675 O   0  0  0  0  0  0  0  0  0  0  0  0
   11.0529  -17.3226   26.8324 N   0  0  0  0  0  0  0  0  0  0  0  0
   11.8026  -17.2647   28.0487 C   0  0  1  0  0  0  0  0  0  0  0  0
   11.0878  -16.5518   29.1600 C   0  0  0  0  0  0  0  0  0  0  0  0
   10.7324  -15.1680   28.8478 C   0  0  0  0  0  0  0  0  0  0  0  0
    9.8665  -14.5128   29.4922 O   0  0  0  0  0  0  0  0  0  0  0  0
   12.1993  -18.6213   28.4581 C   0  0  0  0  0  0  0  0  0  0  0  0
   11.8499  -19.7733   27.7611 O   0  0  0  0  0  0  0  0  0  0  0  0
   11.3622  -14.5238   27.7910 O   0  0  0  0  0  0  0  0  0  0  0  0
   12.8931  -18.7785   29.4904 O   0  0  0  0  0  0  0  0  0  0  0  0
  2  1  1  6
  3  2  1  0
  4  2  1  0
  5  4  1  0
  5  6  1  1
  7  9  1  0
  7  5  1  0
  8  7  2  0
 10  9  1  0
 10 11  1  6
 12 16  1  0
 12 11  1  0
 13 12  2  0
 14 10  1  0
 14 17  1  0
 15 14  2  0
 18 17  1  0
 18 22  1  0
 18 19  1  1
 19 20  1  0
 20 24  1  0
 20 21  2  0
 22 23  1  0
 25 22  2  0
M  END
$$$$
