LDD.pdb
     RDKit          3D

 25 24  0  0  1  0  0  0  0  0999 V2000
    7.4060  -11.5259   25.9467 C   0  0  0  0  0  0  0  0  0  0  0  0
    6.2411  -12.4503   25.8253 C   0  0  2  0  0  0  0  0  0  0  0  0
    5.1532  -12.0703   26.8146 C   0  0  0  0  0  0  0  0  0  0  0  0
    6.5808  -13.9048   25.9049 C   0  0  0  0  0  0  0  0  0  0  0  0
    7.7169  -14.3261   25.0221 C   0  0  2  0  0  0  0  0  0  0  0  0
    7.6719  -13.8181   23.6934 N   0  0  0  0  0  0  0  0  0  0  0  0
    7.9424  -15.7942   25.0984 C   0  0  0  0  0  0  0  0  0  0  0  0
    7.8237  -16.4004   26.2204 O   0  0  0  0  0  0  0  0  0  0  0  0
    8.2832  -16.5966   23.9965 N   0  0  0  0  0  0  0  0  0  0  0  0
    8.4601  -18.0405   24.0967 C   0  0  1  0  0  0  0  0  0  0  0  0
    7.9920  -18.6893   22.7962 C   0  0  0  0  0  0  0  0  0  0  0  0
    6.6025  -19.1494   22.8781 C   0  0  0  0  0  0  0  0  0  0  0  0
    5.9858  -19.6125   21.9064 O   0  0  0  0  0  0  0  0  0  0  0  0
    9.8369  -18.4427   24.3981 C   0  0  0  0  0  0  0  0  0  0  0  0
   10.0114  -19.4705   25.0840 O   0  0  0  0  0  0  0  0  0  0  0  0
    5.9263  -19.0722   24.0960 O   0  0  0  0  0  0  0  0  0  0  0  0
   10.9990  -17.7352   23.9526 N   0  0  0  0  0  0  0  0  0  0  0  0
   12.2355  -17.6706   24.6679 C   0  0  1  0  0  0  0  0  0  0  0  0
   12.9804  -16.3833   24.4622 C   0  0  0  0  0  0  0  0  0  0  0  0
   13.4506  -16.1801   23.0924 C   0  0  0  0  0  0  0  0  0  0  0  0
   12.7150  -16.3325   22.0775 O   0  0  0  0  0  0  0  0  0  0  0  0
   12.0011  -17.9244   26.0983 C   0  0  0  0  0  0  0  0  0  0  0  0
   10.9210  -17.4107   26.8086 O   0  0  0  0  0  0  0  0  0  0  0  0
   14.7696  -15.8054   22.8724 O   0  0  0  0  0  0  0  0  0  0  0  0
   12.8043  -18.6423   26.7395 O   0  0  0  0  0  0  0  0  0  0  0  0
  2  1  1  1
  3  2  1  0
  4  2  1  0
  5  4  1  0
  5  6  1  6
  7  9  1  0
  7  5  1  0
  8  7  2  0
 10  9  1  0
 10 11  1  6
 12 16  1  0
 12 11  1  0
 13 12  2  0
 14 10  1  0
 14 17  1  0
 15 14  2  0
 18 17  1  0
 18 22  1  0
 18 19  1  1
 19 20  1  0
 20 24  1  0
 20 21  2  0
 22 23  1  0
 25 22  2  0
M  END
$$$$
