LDD.pdb
     RDKit          3D

 25 24  0  0  1  0  0  0  0  0999 V2000
    8.9394  -12.2837   18.6079 C   0  0  0  0  0  0  0  0  0  0  0  0
    7.7910  -13.1798   18.9308 C   0  0  2  0  0  0  0  0  0  0  0  0
    6.5035  -12.3809   19.0341 C   0  0  0  0  0  0  0  0  0  0  0  0
    7.9953  -14.0603   20.1227 C   0  0  0  0  0  0  0  0  0  0  0  0
    9.3146  -14.7719   20.1497 C   0  0  2  0  0  0  0  0  0  0  0  0
    9.7583  -15.2728   18.8936 N   0  0  0  0  0  0  0  0  0  0  0  0
    9.3643  -15.7725   21.2489 C   0  0  0  0  0  0  0  0  0  0  0  0
    8.8964  -15.4755   22.4036 O   0  0  0  0  0  0  0  0  0  0  0  0
    9.8992  -17.0647   21.1135 N   0  0  0  0  0  0  0  0  0  0  0  0
    9.9227  -18.0275   22.2084 C   0  0  1  0  0  0  0  0  0  0  0  0
    9.3581  -19.3567   21.7126 C   0  0  0  0  0  0  0  0  0  0  0  0
    9.8007  -19.6705   20.3508 C   0  0  0  0  0  0  0  0  0  0  0  0
   10.0738  -18.7988   19.5114 O   0  0  0  0  0  0  0  0  0  0  0  0
   11.2551  -18.2254   22.7861 C   0  0  0  0  0  0  0  0  0  0  0  0
   11.9624  -19.1463   22.3288 O   0  0  0  0  0  0  0  0  0  0  0  0
    9.9280  -21.0045   19.9625 O   0  0  0  0  0  0  0  0  0  0  0  0
   11.8030  -17.4270   23.8406 N   0  0  0  0  0  0  0  0  0  0  0  0
   13.0667  -17.6633   24.4667 C   0  0  1  0  0  0  0  0  0  0  0  0
   13.9957  -16.4854   24.4051 C   0  0  0  0  0  0  0  0  0  0  0  0
   14.6069  -16.2773   23.0929 C   0  0  0  0  0  0  0  0  0  0  0  0
   13.9415  -16.2033   22.0225 O   0  0  0  0  0  0  0  0  0  0  0  0
   12.8634  -18.1058   25.8553 C   0  0  0  0  0  0  0  0  0  0  0  0
   13.8624  -18.6694   26.6421 O   0  0  0  0  0  0  0  0  0  0  0  0
   15.9869  -16.1573   22.9946 O   0  0  0  0  0  0  0  0  0  0  0  0
   11.7348  -17.9792   26.3865 O   0  0  0  0  0  0  0  0  0  0  0  0
  2  1  1  1
  3  2  1  0
  4  2  1  0
  5  4  1  0
  5  6  1  6
  7  9  1  0
  7  5  1  0
  8  7  2  0
 10  9  1  0
 10 11  1  6
 12 16  1  0
 12 11  1  0
 13 12  2  0
 14 10  1  0
 14 17  1  0
 15 14  2  0
 18 17  1  0
 18 22  1  0
 18 19  1  1
 19 20  1  0
 20 24  1  0
 20 21  2  0
 22 23  1  0
 25 22  2  0
M  END
$$$$
