LDD.pdb
     RDKit          3D

 25 24  0  0  1  0  0  0  0  0999 V2000
    8.9842  -12.1174   19.1653 C   0  0  0  0  0  0  0  0  0  0  0  0
    7.9878  -13.2263   19.2269 C   0  0  2  0  0  0  0  0  0  0  0  0
    6.7633  -12.7998   20.0176 C   0  0  0  0  0  0  0  0  0  0  0  0
    8.5310  -14.5347   19.7071 C   0  0  0  0  0  0  0  0  0  0  0  0
    9.8295  -14.9372   19.0750 C   0  0  2  0  0  0  0  0  0  0  0  0
    9.8366  -14.9347   17.6518 N   0  0  0  0  0  0  0  0  0  0  0  0
   10.3563  -16.1906   19.6779 C   0  0  0  0  0  0  0  0  0  0  0  0
   10.2962  -16.3629   20.9457 O   0  0  0  0  0  0  0  0  0  0  0  0
   10.9307  -17.2386   18.9391 N   0  0  0  0  0  0  0  0  0  0  0  0
   11.4639  -18.4439   19.5631 C   0  0  1  0  0  0  0  0  0  0  0  0
   11.8475  -19.4398   18.4712 C   0  0  0  0  0  0  0  0  0  0  0  0
   12.2811  -20.7260   19.0251 C   0  0  0  0  0  0  0  0  0  0  0  0
   13.3483  -20.8710   19.6408 O   0  0  0  0  0  0  0  0  0  0  0  0
   12.6074  -18.1908   20.4443 C   0  0  0  0  0  0  0  0  0  0  0  0
   13.4286  -17.3151   20.1035 O   0  0  0  0  0  0  0  0  0  0  0  0
   11.4698  -21.8495   18.8639 O   0  0  0  0  0  0  0  0  0  0  0  0
   12.8434  -18.8804   21.6765 N   0  0  0  0  0  0  0  0  0  0  0  0
   13.8204  -18.4979   22.6481 C   0  0  1  0  0  0  0  0  0  0  0  0
   13.6971  -17.0689   23.0916 C   0  0  0  0  0  0  0  0  0  0  0  0
   14.9651  -16.4567   23.4866 C   0  0  0  0  0  0  0  0  0  0  0  0
   16.0359  -17.1107   23.6281 O   0  0  0  0  0  0  0  0  0  0  0  0
   13.7707  -19.4157   23.7972 C   0  0  0  0  0  0  0  0  0  0  0  0
   12.8508  -20.4517   23.9210 O   0  0  0  0  0  0  0  0  0  0  0  0
   15.0169  -15.0901   23.7282 O   0  0  0  0  0  0  0  0  0  0  0  0
   14.5932  -19.2805   24.7337 O   0  0  0  0  0  0  0  0  0  0  0  0
  2  1  1  1
  3  2  1  0
  4  2  1  0
  5  4  1  0
  5  6  1  6
  7  9  1  0
  7  5  1  0
  8  7  2  0
 10  9  1  0
 10 11  1  6
 12 16  1  0
 12 11  1  0
 13 12  2  0
 14 10  1  0
 14 17  1  0
 15 14  2  0
 18 17  1  0
 18 22  1  0
 18 19  1  1
 19 20  1  0
 20 24  1  0
 20 21  2  0
 22 23  1  0
 25 22  2  0
M  END
$$$$
