LDD.pdb
     RDKit          3D

 25 24  0  0  1  0  0  0  0  0999 V2000
    8.5879  -12.3191   18.3020 C   0  0  0  0  0  0  0  0  0  0  0  0
    7.8073  -13.2160   19.2033 C   0  0  2  0  0  0  0  0  0  0  0  0
    6.6303  -12.4709   19.8085 C   0  0  0  0  0  0  0  0  0  0  0  0
    8.6163  -13.9180   20.2474 C   0  0  0  0  0  0  0  0  0  0  0  0
    9.7461  -14.7421   19.7070 C   0  0  2  0  0  0  0  0  0  0  0  0
    9.5597  -15.2316   18.3837 N   0  0  0  0  0  0  0  0  0  0  0  0
   10.1664  -15.7843   20.6813 C   0  0  0  0  0  0  0  0  0  0  0  0
   10.2917  -15.4857   21.9205 O   0  0  0  0  0  0  0  0  0  0  0  0
   10.4422  -17.1183   20.3369 N   0  0  0  0  0  0  0  0  0  0  0  0
   10.9330  -18.0965   21.3006 C   0  0  1  0  0  0  0  0  0  0  0  0
   10.5625  -19.4971   20.8184 C   0  0  0  0  0  0  0  0  0  0  0  0
   10.9443  -20.5319   21.7839 C   0  0  0  0  0  0  0  0  0  0  0  0
   11.2048  -20.2849   22.9715 O   0  0  0  0  0  0  0  0  0  0  0  0
   12.3758  -18.0077   21.5426 C   0  0  0  0  0  0  0  0  0  0  0  0
   12.9059  -18.8819   22.2582 O   0  0  0  0  0  0  0  0  0  0  0  0
   11.0225  -21.8613   21.3678 O   0  0  0  0  0  0  0  0  0  0  0  0
   13.2212  -16.9839   21.0071 N   0  0  0  0  0  0  0  0  0  0  0  0
   14.6436  -16.9472   21.1494 C   0  0  1  0  0  0  0  0  0  0  0  0
   15.3568  -16.4660   19.9189 C   0  0  0  0  0  0  0  0  0  0  0  0
   15.0771  -15.0723   19.5756 C   0  0  0  0  0  0  0  0  0  0  0  0
   14.2964  -14.3376   20.2426 O   0  0  0  0  0  0  0  0  0  0  0  0
   15.0093  -16.1395   22.3238 C   0  0  0  0  0  0  0  0  0  0  0  0
   14.0823  -15.5343   23.1659 O   0  0  0  0  0  0  0  0  0  0  0  0
   15.6856  -14.5089   18.4617 O   0  0  0  0  0  0  0  0  0  0  0  0
   16.2189  -15.9705   22.6068 O   0  0  0  0  0  0  0  0  0  0  0  0
  2  1  1  1
  3  2  1  0
  4  2  1  0
  5  4  1  0
  5  6  1  6
  7  9  1  0
  7  5  1  0
  8  7  2  0
 10  9  1  0
 10 11  1  6
 12 16  1  0
 12 11  1  0
 13 12  2  0
 14 10  1  0
 14 17  1  0
 15 14  2  0
 18 17  1  0
 18 22  1  0
 18 19  1  6
 19 20  1  0
 20 24  1  0
 20 21  2  0
 22 23  1  0
 25 22  2  0
M  END
$$$$
