LDD.pdb
     RDKit          3D

 25 24  0  0  1  0  0  0  0  0999 V2000
    8.7454  -11.8682   19.6363 C   0  0  0  0  0  0  0  0  0  0  0  0
    8.1682  -13.2265   19.4173 C   0  0  2  0  0  0  0  0  0  0  0  0
    6.6692  -13.2147   19.6608 C   0  0  0  0  0  0  0  0  0  0  0  0
    8.8447  -14.3269   20.1716 C   0  0  0  0  0  0  0  0  0  0  0  0
    9.1521  -15.5437   19.3514 C   0  0  2  0  0  0  0  0  0  0  0  0
    8.0694  -16.0370   18.5704 N   0  0  0  0  0  0  0  0  0  0  0  0
    9.8303  -16.5859   20.1675 C   0  0  0  0  0  0  0  0  0  0  0  0
    9.6161  -16.6481   21.4287 O   0  0  0  0  0  0  0  0  0  0  0  0
   10.7151  -17.5435   19.6438 N   0  0  0  0  0  0  0  0  0  0  0  0
   11.3502  -18.5650   20.4681 C   0  0  1  0  0  0  0  0  0  0  0  0
   11.7158  -19.7572   19.5870 C   0  0  0  0  0  0  0  0  0  0  0  0
   10.5408  -20.3406   18.9328 C   0  0  0  0  0  0  0  0  0  0  0  0
    9.5352  -20.7128   19.5568 O   0  0  0  0  0  0  0  0  0  0  0  0
   12.5325  -18.0847   21.1889 C   0  0  0  0  0  0  0  0  0  0  0  0
   13.5887  -17.9249   20.5437 O   0  0  0  0  0  0  0  0  0  0  0  0
   10.5335  -20.4912   17.5458 O   0  0  0  0  0  0  0  0  0  0  0  0
   12.5553  -17.7811   22.5878 N   0  0  0  0  0  0  0  0  0  0  0  0
   13.6814  -17.2412   23.2844 C   0  0  1  0  0  0  0  0  0  0  0  0
   14.1830  -15.9507   22.7037 C   0  0  0  0  0  0  0  0  0  0  0  0
   15.6372  -15.8874   22.5615 C   0  0  0  0  0  0  0  0  0  0  0  0
   16.4096  -16.8197   22.9199 O   0  0  0  0  0  0  0  0  0  0  0  0
   13.3623  -17.0909   24.7130 C   0  0  0  0  0  0  0  0  0  0  0  0
   14.3203  -17.0617   25.7211 O   0  0  0  0  0  0  0  0  0  0  0  0
   16.2201  -14.7531   22.0121 O   0  0  0  0  0  0  0  0  0  0  0  0
   12.1662  -16.9798   25.0719 O   0  0  0  0  0  0  0  0  0  0  0  0
  2  1  1  1
  3  2  1  0
  4  2  1  0
  5  4  1  0
  5  6  1  1
  7  9  1  0
  7  5  1  0
  8  7  2  0
 10  9  1  0
 10 11  1  6
 12 16  1  0
 12 11  1  0
 13 12  2  0
 14 10  1  0
 14 17  1  0
 15 14  2  0
 18 17  1  0
 18 22  1  0
 18 19  1  6
 19 20  1  0
 20 24  1  0
 20 21  2  0
 22 23  1  0
 25 22  2  0
M  END
$$$$
