LDD.pdb
     RDKit          3D

 25 24  0  0  1  0  0  0  0  0999 V2000
    6.4817  -13.3540   26.6394 C   0  0  0  0  0  0  0  0  0  0  0  0
    7.2480  -13.6389   25.3913 C   0  0  2  0  0  0  0  0  0  0  0  0
    8.2126  -12.5058   25.0872 C   0  0  0  0  0  0  0  0  0  0  0  0
    6.4088  -13.9877   24.2032 C   0  0  0  0  0  0  0  0  0  0  0  0
    7.1904  -14.3544   22.9775 C   0  0  2  0  0  0  0  0  0  0  0  0
    6.4220  -14.4897   21.7872 N   0  0  0  0  0  0  0  0  0  0  0  0
    8.0990  -15.5019   23.2416 C   0  0  0  0  0  0  0  0  0  0  0  0
    7.6184  -16.6839   23.3524 O   0  0  0  0  0  0  0  0  0  0  0  0
    9.4925  -15.3868   23.3797 N   0  0  0  0  0  0  0  0  0  0  0  0
   10.3977  -16.5181   23.2148 C   0  0  1  0  0  0  0  0  0  0  0  0
   11.6910  -16.0286   22.5675 C   0  0  0  0  0  0  0  0  0  0  0  0
   12.6119  -17.1305   22.2727 C   0  0  0  0  0  0  0  0  0  0  0  0
   12.2330  -18.2983   22.0943 O   0  0  0  0  0  0  0  0  0  0  0  0
   10.6909  -17.2213   24.4669 C   0  0  0  0  0  0  0  0  0  0  0  0
   11.3673  -18.2684   24.4077 O   0  0  0  0  0  0  0  0  0  0  0  0
   13.9804  -16.8739   22.1834 O   0  0  0  0  0  0  0  0  0  0  0  0
   10.2554  -16.7830   25.7583 N   0  0  0  0  0  0  0  0  0  0  0  0
   10.3427  -17.5629   26.9538 C   0  0  1  0  0  0  0  0  0  0  0  0
    9.7427  -18.9327   26.8208 C   0  0  0  0  0  0  0  0  0  0  0  0
    8.3060  -18.9819   27.0896 C   0  0  0  0  0  0  0  0  0  0  0  0
    7.6205  -17.9626   27.3818 O   0  0  0  0  0  0  0  0  0  0  0  0
   11.7422  -17.6386   27.4020 C   0  0  0  0  0  0  0  0  0  0  0  0
   12.1449  -18.2572   28.5810 O   0  0  0  0  0  0  0  0  0  0  0  0
    7.6423  -20.2004   27.0311 O   0  0  0  0  0  0  0  0  0  0  0  0
   12.6456  -17.1252   26.7005 O   0  0  0  0  0  0  0  0  0  0  0  0
  2  1  1  1
  3  2  1  0
  4  2  1  0
  5  4  1  0
  5  6  1  6
  7  9  1  0
  7  5  1  0
  8  7  2  0
 10  9  1  0
 10 11  1  1
 12 16  1  0
 12 11  1  0
 13 12  2  0
 14 10  1  0
 14 17  1  0
 15 14  2  0
 18 17  1  0
 18 22  1  0
 18 19  1  6
 19 20  1  0
 20 24  1  0
 20 21  2  0
 22 23  1  0
 25 22  2  0
M  END
$$$$
