LDD.pdb
     RDKit          3D

 25 24  0  0  1  0  0  0  0  0999 V2000
    8.7413  -13.0942   18.4820 C   0  0  0  0  0  0  0  0  0  0  0  0
    7.5144  -13.3076   19.3038 C   0  0  2  0  0  0  0  0  0  0  0  0
    6.5941  -12.1031   19.2112 C   0  0  0  0  0  0  0  0  0  0  0  0
    7.7689  -13.7042   20.7235 C   0  0  0  0  0  0  0  0  0  0  0  0
    8.6565  -14.9017   20.8838 C   0  0  2  0  0  0  0  0  0  0  0  0
    8.3145  -16.0216   20.0749 N   0  0  0  0  0  0  0  0  0  0  0  0
    8.8578  -15.2344   22.3194 C   0  0  0  0  0  0  0  0  0  0  0  0
    9.2375  -14.3253   23.1378 O   0  0  0  0  0  0  0  0  0  0  0  0
    8.6528  -16.5118   22.8676 N   0  0  0  0  0  0  0  0  0  0  0  0
    8.9724  -16.8363   24.2528 C   0  0  1  0  0  0  0  0  0  0  0  0
    8.0862  -17.9931   24.7086 C   0  0  0  0  0  0  0  0  0  0  0  0
    8.2622  -18.2953   26.1322 C   0  0  0  0  0  0  0  0  0  0  0  0
    8.9920  -17.6261   26.8797 O   0  0  0  0  0  0  0  0  0  0  0  0
   10.3849  -17.1636   24.4671 C   0  0  0  0  0  0  0  0  0  0  0  0
   10.7364  -17.5289   25.6074 O   0  0  0  0  0  0  0  0  0  0  0  0
    7.5857  -19.3801   26.6908 O   0  0  0  0  0  0  0  0  0  0  0  0
   11.3909  -17.0962   23.4507 N   0  0  0  0  0  0  0  0  0  0  0  0
   12.7906  -17.2798   23.6787 C   0  0  1  0  0  0  0  0  0  0  0  0
   13.6183  -16.0785   23.3240 C   0  0  0  0  0  0  0  0  0  0  0  0
   15.0452  -16.2353   23.6035 C   0  0  0  0  0  0  0  0  0  0  0  0
   15.5546  -17.3111   24.0247 O   0  0  0  0  0  0  0  0  0  0  0  0
   13.0219  -17.6899   25.0728 C   0  0  0  0  0  0  0  0  0  0  0  0
   12.9167  -16.8290   26.1603 O   0  0  0  0  0  0  0  0  0  0  0  0
   15.9009  -15.1591   23.4079 O   0  0  0  0  0  0  0  0  0  0  0  0
   13.3323  -18.8780   25.3255 O   0  0  0  0  0  0  0  0  0  0  0  0
  2  1  1  1
  3  2  1  0
  4  2  1  0
  5  4  1  0
  5  6  1  6
  7  9  1  0
  7  5  1  0
  8  7  2  0
 10  9  1  0
 10 11  1  6
 12 16  1  0
 12 11  1  0
 13 12  2  0
 14 10  1  0
 14 17  1  0
 15 14  2  0
 18 17  1  0
 18 22  1  0
 18 19  1  1
 19 20  1  0
 20 24  1  0
 20 21  2  0
 22 23  1  0
 25 22  2  0
M  END
$$$$
