RTS.pdb
     RDKit          3D

 25 24  0  0  1  0  0  0  0  0999 V2000
    9.1606  -14.1234   15.9346 N   0  0  0  0  0  0  0  0  0  0  0  0
    7.7908  -14.5165   16.0910 C   0  0  0  0  0  0  0  0  0  0  0  0
    7.2426  -15.1716   15.1326 N   0  0  0  0  0  0  0  0  0  0  0  0
    7.1477  -14.1543   17.2879 N   0  0  0  0  0  0  0  0  0  0  0  0
    7.9206  -13.5377   18.3463 C   0  0  0  0  0  0  0  0  0  0  0  0
    8.3815  -14.6521   19.2611 C   0  0  0  0  0  0  0  0  0  0  0  0
    9.1630  -14.1191   20.4170 C   0  0  0  0  0  0  0  0  0  0  0  0
    9.7227  -15.2229   21.3105 C   0  0  2  0  0  0  0  0  0  0  0  0
    8.8285  -16.3434   21.1826 N   0  0  0  0  0  0  0  0  0  0  0  0
    9.6763  -14.6512   22.7047 C   0  0  0  0  0  0  0  0  0  0  0  0
   10.2486  -13.5647   22.9738 O   0  0  0  0  0  0  0  0  0  0  0  0
    6.2458  -15.3880   15.1673 C   0  0  0  0  0  0  0  0  0  0  0  0
    6.6050  -13.9158   24.9161 C   0  0  2  0  0  0  0  0  0  0  0  0
    7.5430  -14.7858   25.6756 O   0  0  0  0  0  0  0  0  0  0  0  0
    7.0960  -16.1031   25.5851 C   0  0  2  0  0  0  0  0  0  0  0  0
    8.9621  -14.7724   25.1155 N   0  0  0  0  0  0  0  0  0  0  0  0
    8.9960  -15.2993   23.7655 C   0  0  0  0  0  0  0  0  0  0  0  0
    9.9073  -15.4879   26.0074 O   0  0  0  0  0  0  0  0  0  0  0  0
   10.4884  -16.5507   25.6730 O   0  0  0  0  0  0  0  0  0  0  0  0
   10.1446  -14.3326   29.8930 C   0  0  0  0  0  0  0  0  0  0  0  0
   11.3384  -14.9351   29.5126 C   0  0  1  0  0  0  0  0  0  0  0  0
   11.0693  -15.6982   28.2355 N   0  0  0  0  0  0  0  0  0  0  0  0
   10.2220  -15.0026   27.3291 C   0  0  0  0  0  0  0  0  0  0  0  0
   10.4436  -16.9874   28.6139 O   0  0  0  0  0  0  0  0  0  0  0  0
    9.3040  -17.2565   28.1476 O   0  0  0  0  0  0  0  0  0  0  0  0
  2  1  1  0
  2  3  2  0
  4  2  1  0
  5  4  1  0
  6  5  1  0
  7  8  1  0
  7  6  1  0
  8  9  1  1
 10 16  1  0
 10  8  1  0
 11 10  2  0
 13 15  1  0
 13 12  1  1
 14 13  1  0
 15 16  1  1
 17 18  2  0
 17 15  1  0
 19 20  1  0
 21 20  1  6
 21 22  1  0
 22 17  1  0
 23 21  1  0
 24 23  2  0
 25 23  1  0
M  END
$$$$
