RTS.pdb
     RDKit          3D

 25 24  0  0  1  0  0  0  0  0999 V2000
    7.3863  -12.6794   17.0068 N   0  0  0  0  0  0  0  0  0  0  0  0
    7.8405  -13.9304   16.4739 C   0  0  0  0  0  0  0  0  0  0  0  0
    7.2537  -14.3831   15.4256 N   0  0  0  0  0  0  0  0  0  0  0  0
    8.8997  -14.5704   17.1416 N   0  0  0  0  0  0  0  0  0  0  0  0
    8.6481  -15.2062   18.4185 C   0  0  0  0  0  0  0  0  0  0  0  0
    8.0197  -14.1605   19.3145 C   0  0  0  0  0  0  0  0  0  0  0  0
    7.7601  -14.7011   20.6824 C   0  0  0  0  0  0  0  0  0  0  0  0
    9.0398  -15.1011   21.4119 C   0  0  2  0  0  0  0  0  0  0  0  0
    9.3094  -16.4660   21.0433 N   0  0  0  0  0  0  0  0  0  0  0  0
    8.6985  -14.9944   22.8764 C   0  0  0  0  0  0  0  0  0  0  0  0
    8.2742  -13.9148   23.3611 O   0  0  0  0  0  0  0  0  0  0  0  0
    7.5811  -15.2463   14.9903 C   0  0  0  0  0  0  0  0  0  0  0  0
    6.1271  -16.9298   24.7207 C   0  0  2  0  0  0  0  0  0  0  0  0
    7.3962  -17.0965   25.4792 O   0  0  0  0  0  0  0  0  0  0  0  0
    7.9671  -18.3174   25.1230 C   0  0  2  0  0  0  0  0  0  0  0  0
    8.4336  -16.0251   25.1577 N   0  0  0  0  0  0  0  0  0  0  0  0
    8.8363  -16.0883   23.7666 C   0  0  0  0  0  0  0  0  0  0  0  0
    9.6003  -16.1041   26.0706 O   0  0  0  0  0  0  0  0  0  0  0  0
   10.6782  -16.6661   25.7522 O   0  0  0  0  0  0  0  0  0  0  0  0
   10.0942  -13.5285   29.0570 C   0  0  0  0  0  0  0  0  0  0  0  0
   10.5046  -14.7693   29.5311 C   0  0  2  0  0  0  0  0  0  0  0  0
   10.6251  -15.6888   28.3369 N   0  0  0  0  0  0  0  0  0  0  0  0
    9.5699  -15.5342   27.3957 C   0  0  0  0  0  0  0  0  0  0  0  0
   10.6372  -17.0796   28.8489 O   0  0  0  0  0  0  0  0  0  0  0  0
    9.7930  -17.8927   28.3856 O   0  0  0  0  0  0  0  0  0  0  0  0
  2  1  1  0
  2  3  2  0
  4  2  1  0
  5  4  1  0
  6  5  1  0
  7  8  1  0
  7  6  1  0
  8  9  1  1
 10 16  1  0
 10  8  1  0
 11 10  2  0
 13 15  1  0
 13 12  1  1
 14 13  1  0
 15 16  1  1
 17 18  2  0
 17 15  1  0
 19 20  1  0
 21 20  1  6
 21 22  1  0
 22 17  1  0
 23 21  1  0
 24 23  2  0
 25 23  1  0
M  END
$$$$
