RTS.pdb
     RDKit          3D

 25 24  0  0  1  0  0  0  0  0999 V2000
    8.3568  -14.0391   14.7043 N   0  0  0  0  0  0  0  0  0  0  0  0
    8.8215  -14.0263   16.0605 C   0  0  0  0  0  0  0  0  0  0  0  0
    9.7822  -14.8190   16.3717 N   0  0  0  0  0  0  0  0  0  0  0  0
    8.1881  -13.1422   16.9518 N   0  0  0  0  0  0  0  0  0  0  0  0
    7.6103  -13.6642   18.1731 C   0  0  0  0  0  0  0  0  0  0  0  0
    8.7189  -13.7028   19.2030 C   0  0  0  0  0  0  0  0  0  0  0  0
    8.2719  -14.3772   20.4584 C   0  0  0  0  0  0  0  0  0  0  0  0
    8.9596  -15.7211   20.6839 C   0  0  2  0  0  0  0  0  0  0  0  0
    8.2394  -16.6851   19.8942 N   0  0  0  0  0  0  0  0  0  0  0  0
    8.7939  -15.9971   22.1565 C   0  0  0  0  0  0  0  0  0  0  0  0
    7.6497  -16.1061   22.6659 O   0  0  0  0  0  0  0  0  0  0  0  0
   10.1009  -14.8789   17.3395 C   0  0  0  0  0  0  0  0  0  0  0  0
   10.4110  -18.3006   26.0986 C   0  0  2  0  0  0  0  0  0  0  0  0
   10.4925  -17.8622   24.6791 O   0  0  0  0  0  0  0  0  0  0  0  0
    9.8733  -18.8245   23.8829 C   0  0  1  0  0  0  0  0  0  0  0  0
    9.7640  -16.5485   24.4131 N   0  0  0  0  0  0  0  0  0  0  0  0
    9.9019  -16.1456   23.0275 C   0  0  0  0  0  0  0  0  0  0  0  0
   10.2087  -15.4804   25.3417 O   0  0  0  0  0  0  0  0  0  0  0  0
   11.2973  -14.8679   25.2049 O   0  0  0  0  0  0  0  0  0  0  0  0
    7.5905  -13.5667   27.7214 C   0  0  0  0  0  0  0  0  0  0  0  0
    8.8558  -12.9950   27.6513 C   0  0  1  0  0  0  0  0  0  0  0  0
    9.8443  -14.1178   27.4319 N   0  0  0  0  0  0  0  0  0  0  0  0
    9.4102  -15.0738   26.4724 C   0  0  0  0  0  0  0  0  0  0  0  0
   10.0551  -14.7834   28.7393 O   0  0  0  0  0  0  0  0  0  0  0  0
    9.7660  -16.0060   28.8392 O   0  0  0  0  0  0  0  0  0  0  0  0
  2  1  1  0
  2  3  2  0
  4  2  1  0
  5  4  1  0
  6  5  1  0
  7  8  1  0
  7  6  1  0
  8  9  1  6
 10 16  1  0
 10  8  1  0
 11 10  2  0
 13 15  1  0
 13 12  1  6
 14 13  1  0
 15 16  1  6
 17 18  2  0
 17 15  1  0
 19 20  1  0
 21 20  1  6
 21 22  1  0
 22 17  1  0
 23 21  1  0
 24 23  2  0
 25 23  1  0
M  END
$$$$
