RTS.pdb
     RDKit          3D

 25 24  0  0  1  0  0  0  0  0999 V2000
    9.3249  -13.1765   17.9238 N   0  0  0  0  0  0  0  0  0  0  0  0
    8.8531  -12.2882   18.9454 C   0  0  0  0  0  0  0  0  0  0  0  0
    9.4685  -11.1721   19.0995 N   0  0  0  0  0  0  0  0  0  0  0  0
    7.7463  -12.7072   19.7049 N   0  0  0  0  0  0  0  0  0  0  0  0
    7.0889  -13.9528   19.3669 C   0  0  0  0  0  0  0  0  0  0  0  0
    8.0965  -15.0587   19.5967 C   0  0  0  0  0  0  0  0  0  0  0  0
    8.0653  -15.5380   21.0109 C   0  0  0  0  0  0  0  0  0  0  0  0
    9.1069  -16.6180   21.2914 C   0  0  2  0  0  0  0  0  0  0  0  0
    8.7435  -17.7538   20.4855 N   0  0  0  0  0  0  0  0  0  0  0  0
    8.9566  -16.9270   22.7593 C   0  0  0  0  0  0  0  0  0  0  0  0
    7.8188  -17.0835   23.2705 O   0  0  0  0  0  0  0  0  0  0  0  0
    9.1405  -10.5003   19.7944 C   0  0  0  0  0  0  0  0  0  0  0  0
    9.7329  -19.8383   24.5901 C   0  0  2  0  0  0  0  0  0  0  0  0
   10.4624  -18.7739   25.3308 O   0  0  0  0  0  0  0  0  0  0  0  0
   11.7980  -18.7936   24.9319 C   0  0  2  0  0  0  0  0  0  0  0  0
    9.9436  -17.3706   25.0321 N   0  0  0  0  0  0  0  0  0  0  0  0
   10.0725  -17.0546   23.6233 C   0  0  0  0  0  0  0  0  0  0  0  0
   10.6036  -16.3521   25.8853 O   0  0  0  0  0  0  0  0  0  0  0  0
   11.6596  -15.7606   25.5476 O   0  0  0  0  0  0  0  0  0  0  0  0
    8.5497  -14.2946   28.4966 C   0  0  0  0  0  0  0  0  0  0  0  0
    9.8642  -13.8544   28.3905 C   0  0  1  0  0  0  0  0  0  0  0  0
   10.7138  -15.0566   28.0458 N   0  0  0  0  0  0  0  0  0  0  0  0
   10.0682  -15.9728   27.1702 C   0  0  0  0  0  0  0  0  0  0  0  0
   11.0538  -15.7373   29.3178 O   0  0  0  0  0  0  0  0  0  0  0  0
   10.7770  -16.9615   29.4311 O   0  0  0  0  0  0  0  0  0  0  0  0
  2  1  1  0
  2  3  2  0
  4  2  1  0
  5  4  1  0
  6  5  1  0
  7  8  1  0
  7  6  1  0
  8  9  1  6
 10 16  1  0
 10  8  1  0
 11 10  2  0
 13 15  1  0
 13 12  1  1
 14 13  1  0
 15 16  1  1
 17 18  2  0
 17 15  1  0
 19 20  1  0
 21 20  1  6
 21 22  1  0
 22 17  1  0
 23 21  1  0
 24 23  2  0
 25 23  1  0
M  END
$$$$
