RTS.pdb
     RDKit          3D

 25 24  0  0  1  0  0  0  0  0999 V2000
    8.3250  -15.4623   16.2035 N   0  0  0  0  0  0  0  0  0  0  0  0
    7.7795  -14.2268   15.7224 C   0  0  0  0  0  0  0  0  0  0  0  0
    7.7291  -14.0490   14.4519 N   0  0  0  0  0  0  0  0  0  0  0  0
    7.3378  -13.2987   16.6820 N   0  0  0  0  0  0  0  0  0  0  0  0
    7.3714  -13.6621   18.0836 C   0  0  0  0  0  0  0  0  0  0  0  0
    8.8273  -13.8428   18.4566 C   0  0  0  0  0  0  0  0  0  0  0  0
    8.9857  -14.1080   19.9178 C   0  0  0  0  0  0  0  0  0  0  0  0
    9.5753  -15.4859   20.2074 C   0  0  2  0  0  0  0  0  0  0  0  0
    9.0198  -16.3811   19.2268 N   0  0  0  0  0  0  0  0  0  0  0  0
    9.0878  -15.8310   21.5915 C   0  0  0  0  0  0  0  0  0  0  0  0
    7.8700  -16.0563   21.8071 O   0  0  0  0  0  0  0  0  0  0  0  0
    7.2952  -13.2072   14.0714 C   0  0  0  0  0  0  0  0  0  0  0  0
    9.3425  -18.6754   23.5482 C   0  0  2  0  0  0  0  0  0  0  0  0
    9.8890  -17.6317   24.4571 O   0  0  0  0  0  0  0  0  0  0  0  0
   11.2811  -17.6911   24.4122 C   0  0  2  0  0  0  0  0  0  0  0  0
    9.5043  -16.2143   24.0444 N   0  0  0  0  0  0  0  0  0  0  0  0
    9.9639  -15.9178   22.7020 C   0  0  0  0  0  0  0  0  0  0  0  0
    9.9881  -15.2107   25.0240 O   0  0  0  0  0  0  0  0  0  0  0  0
   11.1225  -14.6755   24.9477 O   0  0  0  0  0  0  0  0  0  0  0  0
    7.3004  -13.3963   27.3811 C   0  0  0  0  0  0  0  0  0  0  0  0
    8.5217  -12.7349   27.3207 C   0  0  1  0  0  0  0  0  0  0  0  0
    9.5847  -13.7779   27.0594 N   0  0  0  0  0  0  0  0  0  0  0  0
    9.1774  -14.7816   26.1376 C   0  0  0  0  0  0  0  0  0  0  0  0
    9.9210  -14.4025   28.3608 O   0  0  0  0  0  0  0  0  0  0  0  0
    9.7648  -15.6471   28.4826 O   0  0  0  0  0  0  0  0  0  0  0  0
  2  1  1  0
  2  3  2  0
  4  2  1  0
  5  4  1  0
  6  5  1  0
  7  8  1  0
  7  6  1  0
  8  9  1  6
 10 16  1  0
 10  8  1  0
 11 10  2  0
 13 15  1  0
 13 12  1  1
 14 13  1  0
 15 16  1  1
 17 18  2  0
 17 15  1  0
 19 20  1  0
 21 20  1  6
 21 22  1  0
 22 17  1  0
 23 21  1  0
 24 23  2  0
 25 23  1  0
M  END
$$$$
