RTS.pdb
     RDKit          3D

 25 24  0  0  1  0  0  0  0  0999 V2000
    9.0548  -19.1140   13.9638 N   0  0  0  0  0  0  0  0  0  0  0  0
    8.0305  -18.1970   13.5572 C   0  0  0  0  0  0  0  0  0  0  0  0
    7.1546  -18.6125   12.7155 N   0  0  0  0  0  0  0  0  0  0  0  0
    8.0614  -16.9059   14.1136 N   0  0  0  0  0  0  0  0  0  0  0  0
    8.4583  -16.7426   15.4969 C   0  0  0  0  0  0  0  0  0  0  0  0
    8.4587  -15.2560   15.7820 C   0  0  0  0  0  0  0  0  0  0  0  0
    8.9975  -14.9633   17.1439 C   0  0  0  0  0  0  0  0  0  0  0  0
    7.9742  -14.2845   18.0505 C   0  0  2  0  0  0  0  0  0  0  0  0
    7.7168  -12.9899   17.4768 N   0  0  0  0  0  0  0  0  0  0  0  0
    8.6650  -14.1567   19.3842 C   0  0  0  0  0  0  0  0  0  0  0  0
    9.5678  -13.3001   19.5616 O   0  0  0  0  0  0  0  0  0  0  0  0
    6.3752  -18.0090   12.4505 C   0  0  0  0  0  0  0  0  0  0  0  0
    7.4043  -13.1424   22.6610 C   0  0  2  0  0  0  0  0  0  0  0  0
    8.0100  -14.4854   22.8691 O   0  0  0  0  0  0  0  0  0  0  0  0
    6.9929  -15.4384   22.8404 C   0  0  2  0  0  0  0  0  0  0  0  0
    8.9976  -14.8754   21.7737 N   0  0  0  0  0  0  0  0  0  0  0  0
    8.3367  -14.9826   20.4880 C   0  0  0  0  0  0  0  0  0  0  0  0
    9.7317  -16.1178   22.1183 O   0  0  0  0  0  0  0  0  0  0  0  0
    9.3465  -17.2589   21.7597 O   0  0  0  0  0  0  0  0  0  0  0  0
   13.5297  -16.5284   21.9686 C   0  0  0  0  0  0  0  0  0  0  0  0
   13.1882  -17.0380   23.2162 C   0  0  2  0  0  0  0  0  0  0  0  0
   11.6928  -17.2609   23.2162 N   0  0  0  0  0  0  0  0  0  0  0  0
   10.9471  -16.0931   22.8951 C   0  0  0  0  0  0  0  0  0  0  0  0
   11.3166  -17.7371   24.5684 O   0  0  0  0  0  0  0  0  0  0  0  0
   10.4776  -17.0640   25.2253 O   0  0  0  0  0  0  0  0  0  0  0  0
  2  1  1  0
  2  3  2  0
  4  2  1  0
  5  4  1  0
  6  5  1  0
  7  8  1  0
  7  6  1  0
  8  9  1  6
 10 16  1  0
 10  8  1  0
 11 10  2  0
 13 15  1  0
 13 12  1  1
 14 13  1  0
 15 16  1  1
 17 18  2  0
 17 15  1  0
 19 20  1  0
 21 20  1  6
 21 22  1  0
 22 17  1  0
 23 21  1  0
 24 23  2  0
 25 23  1  0
M  END
$$$$
