RTS.pdb
     RDKit          3D

 25 24  0  0  1  0  0  0  0  0999 V2000
    9.7793  -15.4593   16.5283 N   0  0  0  0  0  0  0  0  0  0  0  0
    8.6590  -15.0179   15.7501 C   0  0  0  0  0  0  0  0  0  0  0  0
    8.4318  -15.6140   14.6360 N   0  0  0  0  0  0  0  0  0  0  0  0
    7.8892  -13.9612   16.2679 N   0  0  0  0  0  0  0  0  0  0  0  0
    8.3355  -13.2845   17.4682 C   0  0  0  0  0  0  0  0  0  0  0  0
    7.7362  -14.0292   18.6419 C   0  0  0  0  0  0  0  0  0  0  0  0
    7.9122  -13.2693   19.9156 C   0  0  0  0  0  0  0  0  0  0  0  0
    9.1160  -13.7443   20.7249 C   0  0  2  0  0  0  0  0  0  0  0  0
    9.6224  -14.9129   20.0546 N   0  0  0  0  0  0  0  0  0  0  0  0
    8.5554  -14.0984   22.0787 C   0  0  0  0  0  0  0  0  0  0  0  0
    7.8589  -13.2733   22.7225 O   0  0  0  0  0  0  0  0  0  0  0  0
    7.7143  -15.2574   14.0037 C   0  0  0  0  0  0  0  0  0  0  0  0
    6.7093  -17.4661   22.9362 C   0  0  2  0  0  0  0  0  0  0  0  0
    7.7498  -17.1839   23.9615 O   0  0  0  0  0  0  0  0  0  0  0  0
    8.8754  -17.9541   23.6729 C   0  0  2  0  0  0  0  0  0  0  0  0
    8.2114  -15.7298   23.9648 N   0  0  0  0  0  0  0  0  0  0  0  0
    8.7813  -15.3595   22.6844 C   0  0  0  0  0  0  0  0  0  0  0  0
    9.1491  -15.4577   25.0818 O   0  0  0  0  0  0  0  0  0  0  0  0
   10.3973  -15.5322   24.9576 O   0  0  0  0  0  0  0  0  0  0  0  0
    8.5697  -12.6671   27.7277 C   0  0  0  0  0  0  0  0  0  0  0  0
    8.9633  -13.7845   28.4553 C   0  0  2  0  0  0  0  0  0  0  0  0
    9.5521  -14.7739   27.4753 N   0  0  0  0  0  0  0  0  0  0  0  0
    8.6811  -15.0863   26.3950 C   0  0  0  0  0  0  0  0  0  0  0  0
    9.8722  -16.0080   28.2310 O   0  0  0  0  0  0  0  0  0  0  0  0
    9.3470  -17.0902   27.8551 O   0  0  0  0  0  0  0  0  0  0  0  0
  2  1  1  0
  2  3  2  0
  4  2  1  0
  5  4  1  0
  6  5  1  0
  7  8  1  0
  7  6  1  0
  8  9  1  6
 10 16  1  0
 10  8  1  0
 11 10  2  0
 13 15  1  0
 13 12  1  1
 14 13  1  0
 15 16  1  1
 17 18  2  0
 17 15  1  0
 19 20  1  0
 21 20  1  6
 21 22  1  0
 22 17  1  0
 23 21  1  0
 24 23  2  0
 25 23  1  0
M  END
$$$$
