RTS.pdb
     RDKit          3D

 25 24  0  0  1  0  0  0  0  0999 V2000
    6.8370  -13.1136   16.7326 N   0  0  0  0  0  0  0  0  0  0  0  0
    8.0532  -13.7210   16.2771 C   0  0  0  0  0  0  0  0  0  0  0  0
    8.3033  -13.6895   15.0183 N   0  0  0  0  0  0  0  0  0  0  0  0
    8.8850  -14.3076   17.2474 N   0  0  0  0  0  0  0  0  0  0  0  0
    8.2924  -14.8386   18.4577 C   0  0  0  0  0  0  0  0  0  0  0  0
    7.9620  -13.6553   19.3419 C   0  0  0  0  0  0  0  0  0  0  0  0
    7.3067  -14.0909   20.6113 C   0  0  0  0  0  0  0  0  0  0  0  0
    7.5399  -15.5675   20.9198 C   0  0  2  0  0  0  0  0  0  0  0  0
    6.4629  -16.2894   20.2949 N   0  0  0  0  0  0  0  0  0  0  0  0
    7.4562  -15.6657   22.4217 C   0  0  0  0  0  0  0  0  0  0  0  0
    6.3830  -15.4097   23.0244 O   0  0  0  0  0  0  0  0  0  0  0  0
    9.1802  -14.0721   14.6627 C   0  0  0  0  0  0  0  0  0  0  0  0
    7.4777  -18.6359   24.0495 C   0  0  2  0  0  0  0  0  0  0  0  0
    8.5058  -17.8955   24.8296 O   0  0  0  0  0  0  0  0  0  0  0  0
    9.7670  -18.3028   24.3973 C   0  0  2  0  0  0  0  0  0  0  0  0
    8.4456  -16.3853   24.6218 N   0  0  0  0  0  0  0  0  0  0  0  0
    8.5653  -16.0457   23.2177 C   0  0  0  0  0  0  0  0  0  0  0  0
    9.4589  -15.6806   25.4449 O   0  0  0  0  0  0  0  0  0  0  0  0
   10.5570  -15.2829   24.9812 O   0  0  0  0  0  0  0  0  0  0  0  0
    8.3584  -13.7364   28.7394 C   0  0  0  0  0  0  0  0  0  0  0  0
    9.6356  -13.4481   28.2720 C   0  0  1  0  0  0  0  0  0  0  0  0
   10.1858  -14.7156   27.6583 N   0  0  0  0  0  0  0  0  0  0  0  0
    9.2444  -15.4048   26.8447 C   0  0  0  0  0  0  0  0  0  0  0  0
   10.6206  -15.5932   28.7707 O   0  0  0  0  0  0  0  0  0  0  0  0
   10.1325  -16.7531   28.8406 O   0  0  0  0  0  0  0  0  0  0  0  0
  2  1  1  0
  2  3  2  0
  4  2  1  0
  5  4  1  0
  6  5  1  0
  7  8  1  0
  7  6  1  0
  8  9  1  6
 10 16  1  0
 10  8  1  0
 11 10  2  0
 13 15  1  0
 13 12  1  1
 14 13  1  0
 15 16  1  1
 17 18  2  0
 17 15  1  0
 19 20  1  0
 21 20  1  6
 21 22  1  0
 22 17  1  0
 23 21  1  0
 24 23  2  0
 25 23  1  0
M  END
$$$$
