RTS.pdb
     RDKit          3D

 25 24  0  0  1  0  0  0  0  0999 V2000
   17.7357  -15.0812   18.5071 N   0  0  0  0  0  0  0  0  0  0  0  0
   17.1109  -13.9236   17.9371 C   0  0  0  0  0  0  0  0  0  0  0  0
   17.8594  -12.9226   17.6435 N   0  0  0  0  0  0  0  0  0  0  0  0
   15.7193  -13.9715   17.7406 N   0  0  0  0  0  0  0  0  0  0  0  0
   14.9930  -15.1650   18.1227 C   0  0  0  0  0  0  0  0  0  0  0  0
   13.5320  -14.9057   17.8234 C   0  0  0  0  0  0  0  0  0  0  0  0
   12.6960  -16.1098   18.1096 C   0  0  0  0  0  0  0  0  0  0  0  0
   11.2159  -15.8855   17.8114 C   0  0  2  0  0  0  0  0  0  0  0  0
   11.1510  -15.2662   16.5138 N   0  0  0  0  0  0  0  0  0  0  0  0
   10.7450  -14.9389   18.8860 C   0  0  0  0  0  0  0  0  0  0  0  0
   11.1960  -13.7675   18.9543 O   0  0  0  0  0  0  0  0  0  0  0  0
   17.4387  -12.0357   17.3640 C   0  0  0  0  0  0  0  0  0  0  0  0
    7.6996  -13.2647   19.2735 C   0  0  2  0  0  0  0  0  0  0  0  0
    7.8458  -13.9882   20.5654 O   0  0  0  0  0  0  0  0  0  0  0  0
    7.1041  -15.1667   20.4986 C   0  0  2  0  0  0  0  0  0  0  0  0
    9.2841  -14.4002   20.8640 N   0  0  0  0  0  0  0  0  0  0  0  0
    9.7851  -15.3157   19.8580 C   0  0  0  0  0  0  0  0  0  0  0  0
    9.4184  -14.9604   22.2311 O   0  0  0  0  0  0  0  0  0  0  0  0
    9.9131  -16.0930   22.4581 O   0  0  0  0  0  0  0  0  0  0  0  0
    7.3426  -13.2650   25.3188 C   0  0  0  0  0  0  0  0  0  0  0  0
    8.5409  -13.8042   25.7729 C   0  0  1  0  0  0  0  0  0  0  0  0
    9.0291  -14.7677   24.7150 N   0  0  0  0  0  0  0  0  0  0  0  0
    8.9847  -14.2317   23.3983 C   0  0  0  0  0  0  0  0  0  0  0  0
    8.1756  -15.9771   24.7904 O   0  0  0  0  0  0  0  0  0  0  0  0
    7.4548  -16.2608   23.7963 O   0  0  0  0  0  0  0  0  0  0  0  0
  2  1  1  0
  2  3  2  0
  4  2  1  0
  5  4  1  0
  6  5  1  0
  7  8  1  0
  7  6  1  0
  8  9  1  6
 10 16  1  0
 10  8  1  0
 11 10  2  0
 13 15  1  0
 13 12  1  1
 14 13  1  0
 15 16  1  1
 17 18  2  0
 17 15  1  0
 19 20  1  0
 21 20  1  1
 21 22  1  0
 22 17  1  0
 23 21  1  0
 24 23  2  0
 25 23  1  0
M  END
$$$$
