RTS.pdb
     RDKit          3D

 25 24  0  0  1  0  0  0  0  0999 V2000
   12.5362  -16.7217   15.5815 N   0  0  0  0  0  0  0  0  0  0  0  0
   12.3889  -16.9124   14.1682 C   0  0  0  0  0  0  0  0  0  0  0  0
   13.3859  -16.6136   13.4165 N   0  0  0  0  0  0  0  0  0  0  0  0
   11.1586  -17.4154   13.7091 N   0  0  0  0  0  0  0  0  0  0  0  0
   10.0840  -17.6261   14.6571 C   0  0  0  0  0  0  0  0  0  0  0  0
    9.6167  -16.2575   15.1039 C   0  0  0  0  0  0  0  0  0  0  0  0
    8.4937  -16.3589   16.0834 C   0  0  0  0  0  0  0  0  0  0  0  0
    7.9409  -14.9958   16.4911 C   0  0  2  0  0  0  0  0  0  0  0  0
    8.2796  -14.0846   15.4297 N   0  0  0  0  0  0  0  0  0  0  0  0
    8.6761  -14.6450   17.7595 C   0  0  0  0  0  0  0  0  0  0  0  0
    9.7979  -14.0792   17.7174 O   0  0  0  0  0  0  0  0  0  0  0  0
   13.3532  -16.8237   12.4183 C   0  0  0  0  0  0  0  0  0  0  0  0
    7.5412  -12.4495   20.4977 C   0  0  2  0  0  0  0  0  0  0  0  0
    7.9760  -13.7070   21.1637 O   0  0  0  0  0  0  0  0  0  0  0  0
    6.8426  -14.4543   21.4807 C   0  0  2  0  0  0  0  0  0  0  0  0
    8.8404  -14.5919   20.2709 N   0  0  0  0  0  0  0  0  0  0  0  0
    8.1481  -14.9306   19.0432 C   0  0  0  0  0  0  0  0  0  0  0  0
    9.3059  -15.8031   20.9901 O   0  0  0  0  0  0  0  0  0  0  0  0
    8.7970  -16.9384   20.8137 O   0  0  0  0  0  0  0  0  0  0  0  0
   13.0138  -16.0927   22.4774 C   0  0  0  0  0  0  0  0  0  0  0  0
   12.2620  -17.2605   22.4146 C   0  0  1  0  0  0  0  0  0  0  0  0
   10.8237  -16.8838   22.6892 N   0  0  0  0  0  0  0  0  0  0  0  0
   10.3840  -15.7526   21.9475 C   0  0  0  0  0  0  0  0  0  0  0  0
   10.7090  -16.6043   24.1402 O   0  0  0  0  0  0  0  0  0  0  0  0
   10.2772  -15.4754   24.4974 O   0  0  0  0  0  0  0  0  0  0  0  0
  2  1  1  0
  2  3  2  0
  4  2  1  0
  5  4  1  0
  6  5  1  0
  7  8  1  0
  7  6  1  0
  8  9  1  6
 10 16  1  0
 10  8  1  0
 11 10  2  0
 13 15  1  0
 13 12  1  1
 14 13  1  0
 15 16  1  1
 17 18  2  0
 17 15  1  0
 19 20  1  0
 21 20  1  6
 21 22  1  0
 22 17  1  0
 23 21  1  0
 24 23  2  0
 25 23  1  0
M  END
$$$$
