RTS.pdb
     RDKit          3D

 25 24  0  0  1  0  0  0  0  0999 V2000
    7.5971  -16.8746   13.9017 N   0  0  0  0  0  0  0  0  0  0  0  0
    8.8817  -17.4366   14.2009 C   0  0  0  0  0  0  0  0  0  0  0  0
    9.7842  -17.3866   13.2892 N   0  0  0  0  0  0  0  0  0  0  0  0
    9.0580  -18.0022   15.4762 N   0  0  0  0  0  0  0  0  0  0  0  0
    9.1813  -17.1289   16.6250 C   0  0  0  0  0  0  0  0  0  0  0  0
    9.2487  -15.7123   16.0958 C   0  0  0  0  0  0  0  0  0  0  0  0
    9.5127  -14.7337   17.1927 C   0  0  0  0  0  0  0  0  0  0  0  0
    8.2539  -14.3708   17.9760 C   0  0  2  0  0  0  0  0  0  0  0  0
    7.8512  -13.0668   17.5189 N   0  0  0  0  0  0  0  0  0  0  0  0
    8.6955  -14.3257   19.4166 C   0  0  0  0  0  0  0  0  0  0  0  0
    9.4906  -13.4387   19.8183 O   0  0  0  0  0  0  0  0  0  0  0  0
   10.7288  -17.7184   13.4877 C   0  0  0  0  0  0  0  0  0  0  0  0
    7.9697  -15.5475   24.1411 C   0  0  2  0  0  0  0  0  0  0  0  0
    7.5627  -15.5940   22.7108 O   0  0  0  0  0  0  0  0  0  0  0  0
    6.5809  -14.6273   22.4989 C   0  0  1  0  0  0  0  0  0  0  0  0
    8.7028  -15.2685   21.7507 N   0  0  0  0  0  0  0  0  0  0  0  0
    8.2437  -15.2660   20.3758 C   0  0  0  0  0  0  0  0  0  0  0  0
    9.8551  -16.1830   21.9425 O   0  0  0  0  0  0  0  0  0  0  0  0
    9.8970  -17.3391   21.4517 O   0  0  0  0  0  0  0  0  0  0  0  0
   14.3864  -16.9157   23.4176 C   0  0  0  0  0  0  0  0  0  0  0  0
   13.4271  -15.9552   23.1177 C   0  0  1  0  0  0  0  0  0  0  0  0
   12.1037  -16.6721   22.9736 N   0  0  0  0  0  0  0  0  0  0  0  0
   11.0126  -15.7978   22.7128 C   0  0  0  0  0  0  0  0  0  0  0  0
   11.8609  -17.4105   24.2355 O   0  0  0  0  0  0  0  0  0  0  0  0
   11.0019  -16.9545   25.0371 O   0  0  0  0  0  0  0  0  0  0  0  0
  2  1  1  0
  2  3  2  0
  4  2  1  0
  5  4  1  0
  6  5  1  0
  7  8  1  0
  7  6  1  0
  8  9  1  6
 10 16  1  0
 10  8  1  0
 11 10  2  0
 13 15  1  0
 13 12  1  1
 14 13  1  0
 15 16  1  6
 17 18  2  0
 17 15  1  0
 19 20  1  0
 21 20  1  6
 21 22  1  0
 22 17  1  0
 23 21  1  0
 24 23  2  0
 25 23  1  0
M  END
$$$$
