CYR.pdb
     RDKit          3D

 30 30  0  0  1  0  0  0  0  0999 V2000
    7.3308  -19.0135   20.0762 N   0  0  0  0  0  0  0  0  0  0  0  0
    6.8057  -18.5143   21.3113 C   0  0  1  0  0  0  0  0  0  0  0  0
    6.3784  -19.6899   22.1726 C   0  0  0  0  0  0  0  0  0  0  0  0
    5.6866  -19.1197   23.7460 S   0  0  0  0  0  0  0  0  0  0  0  0
    7.7706  -17.6505   22.0383 C   0  0  0  0  0  0  0  0  0  0  0  0
    8.9755  -17.9262   21.9774 O   0  0  0  0  0  0  0  0  0  0  0  0
    8.4546  -12.7618   17.6319 O   0  0  0  0  0  0  0  0  0  0  0  0
    8.2800  -13.1058   18.9787 C   0  0  0  0  0  0  0  0  0  0  0  0
    9.3351  -13.4982   19.7657 C   0  0  0  0  0  0  0  0  0  0  0  0
    9.1685  -13.8374   21.0902 C   0  0  0  0  0  0  0  0  0  0  0  0
    7.9203  -13.7919   21.6714 C   0  0  0  0  0  0  0  0  0  0  0  0
    7.7825  -14.1592   23.0839 C   0  0  0  0  0  0  0  0  0  0  0  0
    8.2384  -15.5677   23.3951 C   0  0  2  0  0  0  0  0  0  0  0  0
    7.3423  -16.5443   22.7813 N   0  0  0  0  0  0  0  0  0  0  0  0
    8.5517  -15.8414   24.7842 C   0  0  0  0  0  0  0  0  0  0  0  0
    9.3938  -15.1409   25.3890 O   0  0  0  0  0  0  0  0  0  0  0  0
    6.8700  -13.3992   20.8806 C   0  0  0  0  0  0  0  0  0  0  0  0
    7.0270  -13.0573   19.5519 C   0  0  0  0  0  0  0  0  0  0  0  0
   11.2167  -20.0646   21.6098 N   0  0  0  0  0  0  0  0  0  0  0  0
   12.3576  -20.1762   22.4806 C   0  0  0  0  0  0  0  0  0  0  0  0
   13.5525  -20.0869   21.9880 N   0  0  0  0  0  0  0  0  0  0  0  0
   12.2280  -20.3819   23.8675 N   0  0  0  0  0  0  0  0  0  0  0  0
   10.9370  -20.5322   24.4888 C   0  0  0  0  0  0  0  0  0  0  0  0
   10.5477  -19.3216   25.3018 C   0  0  0  0  0  0  0  0  0  0  0  0
    9.0906  -18.9718   25.1061 C   0  0  0  0  0  0  0  0  0  0  0  0
    8.6214  -17.9621   26.1435 C   0  0  2  0  0  0  0  0  0  0  0  0
    7.9223  -16.8906   25.4869 N   0  0  0  0  0  0  0  0  0  0  0  0
    9.8394  -17.4301   26.7790 C   0  0  0  0  0  0  0  0  0  0  0  0
   10.9341  -18.0021   26.5830 O   0  0  0  0  0  0  0  0  0  0  0  0
    9.8446  -16.3087   27.5992 O   0  0  0  0  0  0  0  0  0  0  0  0
  2  1  1  6
  2  3  1  0
  3  4  1  0
  5  2  1  0
  6  5  2  0
  8  9  2  0
  8  7  1  0
 10  9  1  0
 11 10  2  0
 12 11  1  0
 13 12  1  1
 13 14  1  0
 14  5  1  0
 15 27  1  0
 15 13  1  0
 16 15  2  0
 17 11  1  0
 17 18  2  0
 18  8  1  0
 20 19  1  0
 21 20  2  0
 22 20  1  0
 23 22  1  0
 24 23  1  0
 25 24  1  0
 26 25  1  6
 26 27  1  0
 28 30  1  0
 28 26  1  0
 29 28  2  0
M  END
$$$$
