CYR.pdb
     RDKit          3D

 30 30  0  0  1  0  0  0  0  0999 V2000
    5.2043  -17.5940   26.6525 N   0  0  0  0  0  0  0  0  0  0  0  0
    6.2133  -18.0697   25.7547 C   0  0  1  0  0  0  0  0  0  0  0  0
    5.5387  -18.6664   24.5317 C   0  0  0  0  0  0  0  0  0  0  0  0
    6.7383  -19.5414   23.4953 S   0  0  0  0  0  0  0  0  0  0  0  0
    7.1778  -17.0110   25.3615 C   0  0  0  0  0  0  0  0  0  0  0  0
    6.7421  -15.8882   25.0772 O   0  0  0  0  0  0  0  0  0  0  0  0
    9.6672  -14.5631   30.8897 O   0  0  0  0  0  0  0  0  0  0  0  0
    9.9414  -14.9931   29.5849 C   0  0  0  0  0  0  0  0  0  0  0  0
    9.8049  -14.1548   28.5054 C   0  0  0  0  0  0  0  0  0  0  0  0
   10.0733  -14.5728   27.2208 C   0  0  0  0  0  0  0  0  0  0  0  0
   10.4924  -15.8628   26.9789 C   0  0  0  0  0  0  0  0  0  0  0  0
   10.7693  -16.2709   25.5984 C   0  0  0  0  0  0  0  0  0  0  0  0
    9.5354  -16.3502   24.7268 C   0  0  2  0  0  0  0  0  0  0  0  0
    8.5538  -17.2619   25.3087 N   0  0  0  0  0  0  0  0  0  0  0  0
    9.7703  -16.5570   23.3108 C   0  0  0  0  0  0  0  0  0  0  0  0
   10.0130  -17.7043   22.8744 O   0  0  0  0  0  0  0  0  0  0  0  0
   10.6270  -16.6957   28.0609 C   0  0  0  0  0  0  0  0  0  0  0  0
   10.3603  -16.2859   29.3524 C   0  0  0  0  0  0  0  0  0  0  0  0
    6.7650  -12.6294   16.1745 N   0  0  0  0  0  0  0  0  0  0  0  0
    7.8498  -13.4707   15.7407 C   0  0  0  0  0  0  0  0  0  0  0  0
    7.9625  -13.7775   14.4870 N   0  0  0  0  0  0  0  0  0  0  0  0
    8.8088  -13.9826   16.6354 N   0  0  0  0  0  0  0  0  0  0  0  0
    8.7698  -13.6695   18.0410 C   0  0  0  0  0  0  0  0  0  0  0  0
    9.8689  -14.3587   18.8125 C   0  0  0  0  0  0  0  0  0  0  0  0
    9.6297  -14.2788   20.3025 C   0  0  0  0  0  0  0  0  0  0  0  0
    9.8377  -15.6313   20.9680 C   0  0  2  0  0  0  0  0  0  0  0  0
    9.7300  -15.4848   22.3946 N   0  0  0  0  0  0  0  0  0  0  0  0
   11.2074  -16.0517   20.6249 C   0  0  0  0  0  0  0  0  0  0  0  0
   12.1661  -15.6444   21.3170 O   0  0  0  0  0  0  0  0  0  0  0  0
   11.5034  -16.8900   19.5573 O   0  0  0  0  0  0  0  0  0  0  0  0
  2  1  1  1
  2  3  1  0
  3  4  1  0
  5  2  1  0
  6  5  2  0
  8  9  2  0
  8  7  1  0
 10  9  1  0
 11 10  2  0
 12 11  1  0
 13 12  1  1
 13 14  1  0
 14  5  1  0
 15 27  1  0
 15 13  1  0
 16 15  2  0
 17 11  1  0
 17 18  2  0
 18  8  1  0
 20 19  1  0
 21 20  2  0
 22 20  1  0
 23 22  1  0
 24 23  1  0
 25 24  1  0
 26 25  1  6
 26 27  1  0
 28 30  1  0
 28 26  1  0
 29 28  2  0
M  END
$$$$
