CYR.pdb
     RDKit          3D

 30 30  0  0  1  0  0  0  0  0999 V2000
    7.7105  -15.4078   18.4733 N   0  0  0  0  0  0  0  0  0  0  0  0
    8.8497  -14.5847   18.7474 C   0  0  1  0  0  0  0  0  0  0  0  0
    8.7578  -13.3249   17.9042 C   0  0  0  0  0  0  0  0  0  0  0  0
    8.0172  -13.6808   16.2905 S   0  0  0  0  0  0  0  0  0  0  0  0
    8.9812  -14.2472   20.1877 C   0  0  0  0  0  0  0  0  0  0  0  0
   10.0445  -13.7552   20.5865 O   0  0  0  0  0  0  0  0  0  0  0  0
    6.9345  -12.8794   28.7045 O   0  0  0  0  0  0  0  0  0  0  0  0
    6.9247  -13.0313   27.3118 C   0  0  0  0  0  0  0  0  0  0  0  0
    7.5264  -12.1170   26.4820 C   0  0  0  0  0  0  0  0  0  0  0  0
    7.5194  -12.2621   25.1124 C   0  0  0  0  0  0  0  0  0  0  0  0
    6.8995  -13.3445   24.5276 C   0  0  0  0  0  0  0  0  0  0  0  0
    6.9137  -13.4652   23.0667 C   0  0  0  0  0  0  0  0  0  0  0  0
    8.0446  -14.3187   22.5362 C   0  0  2  0  0  0  0  0  0  0  0  0
    7.9340  -14.4745   21.0881 N   0  0  0  0  0  0  0  0  0  0  0  0
    8.2937  -15.5570   23.2486 C   0  0  0  0  0  0  0  0  0  0  0  0
    7.4856  -16.5079   23.1588 O   0  0  0  0  0  0  0  0  0  0  0  0
    6.3001  -14.2547   25.3612 C   0  0  0  0  0  0  0  0  0  0  0  0
    6.3018  -14.1179   26.7354 C   0  0  0  0  0  0  0  0  0  0  0  0
   15.7711  -17.0022   24.4744 N   0  0  0  0  0  0  0  0  0  0  0  0
   15.4741  -16.1969   23.3185 C   0  0  0  0  0  0  0  0  0  0  0  0
   16.3442  -15.3352   22.8957 N   0  0  0  0  0  0  0  0  0  0  0  0
   14.2584  -16.3077   22.6168 N   0  0  0  0  0  0  0  0  0  0  0  0
   13.2609  -17.2784   22.9880 C   0  0  0  0  0  0  0  0  0  0  0  0
   12.1503  -16.6729   23.8116 C   0  0  0  0  0  0  0  0  0  0  0  0
   10.9596  -17.5994   23.8969 C   0  0  0  0  0  0  0  0  0  0  0  0
    9.8198  -16.9626   24.6786 C   0  0  2  0  0  0  0  0  0  0  0  0
    9.4417  -15.7250   24.0515 N   0  0  0  0  0  0  0  0  0  0  0  0
   10.3506  -16.6831   26.0243 C   0  0  0  0  0  0  0  0  0  0  0  0
   10.5536  -15.4986   26.3702 O   0  0  0  0  0  0  0  0  0  0  0  0
   10.6448  -17.6764   26.9500 O   0  0  0  0  0  0  0  0  0  0  0  0
  2  1  1  1
  2  3  1  0
  3  4  1  0
  5  2  1  0
  6  5  2  0
  8  9  2  0
  8  7  1  0
 10  9  1  0
 11 10  2  0
 12 11  1  0
 13 12  1  1
 13 14  1  0
 14  5  1  0
 15 27  1  0
 15 13  1  0
 16 15  2  0
 17 11  1  0
 17 18  2  0
 18  8  1  0
 20 19  1  0
 21 20  2  0
 22 20  1  0
 23 22  1  0
 24 23  1  0
 25 24  1  0
 26 25  1  6
 26 27  1  0
 28 30  1  0
 28 26  1  0
 29 28  2  0
M  END
$$$$
