CYR.pdb
     RDKit          3D

 30 30  0  0  1  0  0  0  0  0999 V2000
    6.5120  -20.3912   25.7408 N   0  0  0  0  0  0  0  0  0  0  0  0
    7.1118  -19.1164   25.9972 C   0  0  1  0  0  0  0  0  0  0  0  0
    8.2961  -19.3108   26.9279 C   0  0  0  0  0  0  0  0  0  0  0  0
    8.7824  -17.7418   27.6902 S   0  0  0  0  0  0  0  0  0  0  0  0
    7.5264  -18.4164   24.7547 C   0  0  0  0  0  0  0  0  0  0  0  0
    7.9790  -19.0879   23.8189 O   0  0  0  0  0  0  0  0  0  0  0  0
    8.2637  -12.0537   18.6320 O   0  0  0  0  0  0  0  0  0  0  0  0
    7.9844  -12.7705   19.8028 C   0  0  0  0  0  0  0  0  0  0  0  0
    8.7583  -12.6408   20.9302 C   0  0  0  0  0  0  0  0  0  0  0  0
    8.4877  -13.3433   22.0835 C   0  0  0  0  0  0  0  0  0  0  0  0
    7.4173  -14.2088   22.1396 C   0  0  0  0  0  0  0  0  0  0  0  0
    7.1604  -14.9383   23.3849 C   0  0  0  0  0  0  0  0  0  0  0  0
    7.8840  -16.2638   23.4757 C   0  0  2  0  0  0  0  0  0  0  0  0
    7.4140  -17.0269   24.6290 N   0  0  0  0  0  0  0  0  0  0  0  0
    9.3275  -16.2092   23.3490 C   0  0  0  0  0  0  0  0  0  0  0  0
   10.0435  -16.0734   24.3661 O   0  0  0  0  0  0  0  0  0  0  0  0
    6.6477  -14.3344   21.0107 C   0  0  0  0  0  0  0  0  0  0  0  0
    6.9109  -13.6345   19.8497 C   0  0  0  0  0  0  0  0  0  0  0  0
   16.2826  -16.5972   17.7036 N   0  0  0  0  0  0  0  0  0  0  0  0
   15.5998  -15.3653   18.0016 C   0  0  0  0  0  0  0  0  0  0  0  0
   16.2157  -14.2361   17.8463 N   0  0  0  0  0  0  0  0  0  0  0  0
   14.2696  -15.3349   18.4621 N   0  0  0  0  0  0  0  0  0  0  0  0
   13.5445  -16.5461   18.7491 C   0  0  0  0  0  0  0  0  0  0  0  0
   13.1954  -16.6722   20.2121 C   0  0  0  0  0  0  0  0  0  0  0  0
   11.7472  -16.3224   20.4651 C   0  0  0  0  0  0  0  0  0  0  0  0
   11.3517  -16.6172   21.9046 C   0  0  2  0  0  0  0  0  0  0  0  0
    9.9595  -16.3091   22.0915 N   0  0  0  0  0  0  0  0  0  0  0  0
   12.1646  -15.7214   22.7456 C   0  0  0  0  0  0  0  0  0  0  0  0
   13.3949  -15.9223   22.8456 O   0  0  0  0  0  0  0  0  0  0  0  0
   11.6356  -14.6458   23.4480 O   0  0  0  0  0  0  0  0  0  0  0  0
  2  1  1  6
  2  3  1  0
  3  4  1  0
  5  2  1  0
  6  5  2  0
  8  9  2  0
  8  7  1  0
 10  9  1  0
 11 10  2  0
 12 11  1  0
 13 12  1  1
 13 14  1  0
 14  5  1  0
 15 27  1  0
 15 13  1  0
 16 15  2  0
 17 11  1  0
 17 18  2  0
 18  8  1  0
 20 19  1  0
 21 20  2  0
 22 20  1  0
 23 22  1  0
 24 23  1  0
 25 24  1  0
 26 25  1  6
 26 27  1  0
 28 30  1  0
 28 26  1  0
 29 28  2  0
M  END
$$$$
