CYR.pdb
     RDKit          3D

 30 30  0  0  1  0  0  0  0  0999 V2000
    8.0113  -18.3762   18.9789 N   0  0  0  0  0  0  0  0  0  0  0  0
    9.0325  -17.4114   18.7018 C   0  0  1  0  0  0  0  0  0  0  0  0
    8.7294  -16.7462   17.3705 C   0  0  0  0  0  0  0  0  0  0  0  0
    8.1117  -17.9541   16.1711 S   0  0  0  0  0  0  0  0  0  0  0  0
    9.1725  -16.3980   19.7784 C   0  0  0  0  0  0  0  0  0  0  0  0
   10.0870  -15.5682   19.6960 O   0  0  0  0  0  0  0  0  0  0  0  0
    7.2555  -11.9213   27.2377 O   0  0  0  0  0  0  0  0  0  0  0  0
    7.2105  -12.6788   26.0601 C   0  0  0  0  0  0  0  0  0  0  0  0
    7.4726  -12.1206   24.8328 C   0  0  0  0  0  0  0  0  0  0  0  0
    7.4297  -12.8612   23.6723 C   0  0  0  0  0  0  0  0  0  0  0  0
    7.1180  -14.2026   23.7105 C   0  0  0  0  0  0  0  0  0  0  0  0
    7.0830  -14.9581   22.4548 C   0  0  0  0  0  0  0  0  0  0  0  0
    8.4363  -15.4705   22.0134 C   0  0  2  0  0  0  0  0  0  0  0  0
    8.2968  -16.3684   20.8698 N   0  0  0  0  0  0  0  0  0  0  0  0
    9.2967  -15.9783   23.0645 C   0  0  0  0  0  0  0  0  0  0  0  0
    9.0078  -17.0430   23.6546 O   0  0  0  0  0  0  0  0  0  0  0  0
    6.8572  -14.7549   24.9392 C   0  0  0  0  0  0  0  0  0  0  0  0
    6.8977  -14.0207   26.1081 C   0  0  0  0  0  0  0  0  0  0  0  0
   10.8244  -17.2986   30.6285 N   0  0  0  0  0  0  0  0  0  0  0  0
   10.8315  -15.9554   30.1103 C   0  0  0  0  0  0  0  0  0  0  0  0
   10.9283  -14.9533   30.9256 N   0  0  0  0  0  0  0  0  0  0  0  0
   10.7360  -15.6801   28.7328 N   0  0  0  0  0  0  0  0  0  0  0  0
   11.8693  -15.8266   27.8556 C   0  0  0  0  0  0  0  0  0  0  0  0
   11.5920  -16.7750   26.7146 C   0  0  0  0  0  0  0  0  0  0  0  0
   10.6621  -16.1559   25.6970 C   0  0  0  0  0  0  0  0  0  0  0  0
   11.4081  -15.7785   24.4255 C   0  0  2  0  0  0  0  0  0  0  0  0
   10.4718  -15.2968   23.4459 N   0  0  0  0  0  0  0  0  0  0  0  0
   12.0324  -17.0184   23.9322 C   0  0  0  0  0  0  0  0  0  0  0  0
   11.3284  -17.8683   23.3440 O   0  0  0  0  0  0  0  0  0  0  0  0
   13.3832  -17.3054   24.0845 O   0  0  0  0  0  0  0  0  0  0  0  0
  2  1  1  1
  2  3  1  0
  3  4  1  0
  5  2  1  0
  6  5  2  0
  8  9  2  0
  8  7  1  0
 10  9  1  0
 11 10  2  0
 12 11  1  0
 13 12  1  1
 13 14  1  0
 14  5  1  0
 15 27  1  0
 15 13  1  0
 16 15  2  0
 17 11  1  0
 17 18  2  0
 18  8  1  0
 20 19  1  0
 21 20  2  0
 22 20  1  0
 23 22  1  0
 24 23  1  0
 25 24  1  0
 26 25  1  1
 26 27  1  0
 28 30  1  0
 28 26  1  0
 29 28  2  0
M  END
$$$$
