CYR.pdb
     RDKit          3D

 30 30  0  0  1  0  0  0  0  0999 V2000
    5.9227  -21.7603   25.0507 N   0  0  0  0  0  0  0  0  0  0  0  0
    7.0403  -20.9158   25.3479 C   0  0  1  0  0  0  0  0  0  0  0  0
    8.2493  -21.4135   24.5751 C   0  0  0  0  0  0  0  0  0  0  0  0
    8.8985  -22.9386   25.3044 S   0  0  0  0  0  0  0  0  0  0  0  0
    6.7751  -19.4855   25.0489 C   0  0  0  0  0  0  0  0  0  0  0  0
    6.0180  -19.2066   24.1105 O   0  0  0  0  0  0  0  0  0  0  0  0
    6.5614  -10.6636   25.9203 O   0  0  0  0  0  0  0  0  0  0  0  0
    6.7891  -12.0316   26.1187 C   0  0  0  0  0  0  0  0  0  0  0  0
    5.7840  -12.8806   26.5128 C   0  0  0  0  0  0  0  0  0  0  0  0
    6.0029  -14.2262   26.7092 C   0  0  0  0  0  0  0  0  0  0  0  0
    7.2550  -14.7663   26.5129 C   0  0  0  0  0  0  0  0  0  0  0  0
    7.4493  -16.2028   26.7309 C   0  0  0  0  0  0  0  0  0  0  0  0
    7.2531  -17.0405   25.4866 C   0  0  2  0  0  0  0  0  0  0  0  0
    7.3612  -18.4624   25.8031 N   0  0  0  0  0  0  0  0  0  0  0  0
    8.0128  -16.6332   24.3205 C   0  0  0  0  0  0  0  0  0  0  0  0
    9.2006  -17.0017   24.1833 O   0  0  0  0  0  0  0  0  0  0  0  0
    8.2553  -13.9136   26.1193 C   0  0  0  0  0  0  0  0  0  0  0  0
    8.0456  -12.5633   25.9198 C   0  0  0  0  0  0  0  0  0  0  0  0
   10.0281  -13.4721   18.2198 N   0  0  0  0  0  0  0  0  0  0  0  0
    8.7436  -13.4091   17.5726 C   0  0  0  0  0  0  0  0  0  0  0  0
    8.6580  -13.6070   16.2951 N   0  0  0  0  0  0  0  0  0  0  0  0
    7.5573  -13.1369   18.2804 N   0  0  0  0  0  0  0  0  0  0  0  0
    7.5838  -12.6772   19.6454 C   0  0  0  0  0  0  0  0  0  0  0  0
    8.4698  -13.5302   20.5204 C   0  0  0  0  0  0  0  0  0  0  0  0
    7.7355  -14.0026   21.7538 C   0  0  0  0  0  0  0  0  0  0  0  0
    8.1132  -15.4338   22.1066 C   0  0  2  0  0  0  0  0  0  0  0  0
    7.4415  -15.8219   23.3175 N   0  0  0  0  0  0  0  0  0  0  0  0
    9.5682  -15.4294   22.3382 C   0  0  0  0  0  0  0  0  0  0  0  0
   10.3287  -15.9198   21.4750 O   0  0  0  0  0  0  0  0  0  0  0  0
   10.1574  -14.9026   23.4808 O   0  0  0  0  0  0  0  0  0  0  0  0
  2  1  1  6
  2  3  1  0
  3  4  1  0
  5  2  1  0
  6  5  2  0
  8  9  2  0
  8  7  1  0
 10  9  1  0
 11 10  2  0
 12 11  1  0
 13 12  1  1
 13 14  1  0
 14  5  1  0
 15 27  1  0
 15 13  1  0
 16 15  2  0
 17 11  1  0
 17 18  2  0
 18  8  1  0
 20 19  1  0
 21 20  2  0
 22 20  1  0
 23 22  1  0
 24 23  1  0
 25 24  1  0
 26 25  1  1
 26 27  1  0
 28 30  1  0
 28 26  1  0
 29 28  2  0
M  END
$$$$
