CYR.pdb
     RDKit          3D

 30 30  0  0  1  0  0  0  0  0999 V2000
    7.8364  -12.6670   19.6379 N   0  0  0  0  0  0  0  0  0  0  0  0
    7.1355  -13.0483   20.8269 C   0  0  1  0  0  0  0  0  0  0  0  0
    6.1383  -14.1396   20.4789 C   0  0  0  0  0  0  0  0  0  0  0  0
    6.9874  -15.6954   20.1076 S   0  0  0  0  0  0  0  0  0  0  0  0
    8.0461  -13.4923   21.9130 C   0  0  0  0  0  0  0  0  0  0  0  0
    9.2120  -13.7903   21.6242 O   0  0  0  0  0  0  0  0  0  0  0  0
   10.7459  -15.5519   30.1644 O   0  0  0  0  0  0  0  0  0  0  0  0
   10.0237  -15.0996   29.0524 C   0  0  0  0  0  0  0  0  0  0  0  0
    9.9851  -13.7701   28.7093 C   0  0  0  0  0  0  0  0  0  0  0  0
    9.2766  -13.3206   27.6171 C   0  0  0  0  0  0  0  0  0  0  0  0
    8.5763  -14.2050   26.8263 C   0  0  0  0  0  0  0  0  0  0  0  0
    7.8348  -13.6893   25.6717 C   0  0  0  0  0  0  0  0  0  0  0  0
    8.4130  -14.1095   24.3383 C   0  0  2  0  0  0  0  0  0  0  0  0
    7.6102  -13.5772   23.2403 N   0  0  0  0  0  0  0  0  0  0  0  0
    8.7436  -15.5150   24.2041 C   0  0  0  0  0  0  0  0  0  0  0  0
    7.8457  -16.3521   23.9616 O   0  0  0  0  0  0  0  0  0  0  0  0
    8.6184  -15.5317   27.1736 C   0  0  0  0  0  0  0  0  0  0  0  0
    9.3258  -15.9920   28.2666 C   0  0  0  0  0  0  0  0  0  0  0  0
   12.1903  -19.2911   18.5989 N   0  0  0  0  0  0  0  0  0  0  0  0
   12.7542  -20.2585   19.5038 C   0  0  0  0  0  0  0  0  0  0  0  0
   12.8976  -21.4880   19.1215 N   0  0  0  0  0  0  0  0  0  0  0  0
   13.1629  -19.9198   20.8079 N   0  0  0  0  0  0  0  0  0  0  0  0
   12.9462  -18.6012   21.3460 C   0  0  0  0  0  0  0  0  0  0  0  0
   12.0711  -18.6206   22.5756 C   0  0  0  0  0  0  0  0  0  0  0  0
   11.4649  -17.2622   22.8420 C   0  0  0  0  0  0  0  0  0  0  0  0
   10.5046  -17.3082   24.0216 C   0  0  2  0  0  0  0  0  0  0  0  0
   10.0709  -15.9741   24.3384 N   0  0  0  0  0  0  0  0  0  0  0  0
   11.2726  -17.8515   25.1554 C   0  0  0  0  0  0  0  0  0  0  0  0
   11.6867  -17.0754   26.0444 O   0  0  0  0  0  0  0  0  0  0  0  0
   11.5701  -19.2010   25.2987 O   0  0  0  0  0  0  0  0  0  0  0  0
  2  1  1  6
  2  3  1  0
  3  4  1  0
  5  2  1  0
  6  5  2  0
  8  9  2  0
  8  7  1  0
 10  9  1  0
 11 10  2  0
 12 11  1  0
 13 12  1  1
 13 14  1  0
 14  5  1  0
 15 27  1  0
 15 13  1  0
 16 15  2  0
 17 11  1  0
 17 18  2  0
 18  8  1  0
 20 19  1  0
 21 20  2  0
 22 20  1  0
 23 22  1  0
 24 23  1  0
 25 24  1  0
 26 25  1  6
 26 27  1  0
 28 30  1  0
 28 26  1  0
 29 28  2  0
M  END
$$$$
