CYR.pdb
     RDKit          3D

 30 30  0  0  1  0  0  0  0  0999 V2000
    9.0766  -16.3131   17.6895 N   0  0  0  0  0  0  0  0  0  0  0  0
    8.1319  -16.6237   18.7198 C   0  0  1  0  0  0  0  0  0  0  0  0
    7.9647  -18.1315   18.7926 C   0  0  0  0  0  0  0  0  0  0  0  0
    6.6220  -18.6850   17.7109 S   0  0  0  0  0  0  0  0  0  0  0  0
    8.5220  -16.0716   20.0422 C   0  0  0  0  0  0  0  0  0  0  0  0
    9.7075  -16.1465   20.3894 O   0  0  0  0  0  0  0  0  0  0  0  0
    7.5153  -12.2022   28.0170 O   0  0  0  0  0  0  0  0  0  0  0  0
    7.3235  -12.6754   26.7124 C   0  0  0  0  0  0  0  0  0  0  0  0
    7.7902  -11.9870   25.6193 C   0  0  0  0  0  0  0  0  0  0  0  0
    7.6041  -12.4481   24.3349 C   0  0  0  0  0  0  0  0  0  0  0  0
    6.9346  -13.6304   24.1071 C   0  0  0  0  0  0  0  0  0  0  0  0
    6.7568  -14.0895   22.7263 C   0  0  0  0  0  0  0  0  0  0  0  0
    7.8797  -14.9722   22.2277 C   0  0  2  0  0  0  0  0  0  0  0  0
    7.5807  -15.4760   20.8897 N   0  0  0  0  0  0  0  0  0  0  0  0
    8.3484  -15.9864   23.1521 C   0  0  0  0  0  0  0  0  0  0  0  0
    7.6889  -17.0361   23.3218 O   0  0  0  0  0  0  0  0  0  0  0  0
    6.4706  -14.3139   25.2027 C   0  0  0  0  0  0  0  0  0  0  0  0
    6.6522  -13.8598   26.4941 C   0  0  0  0  0  0  0  0  0  0  0  0
   15.2929  -20.0415   26.4200 N   0  0  0  0  0  0  0  0  0  0  0  0
   14.9821  -20.0831   25.0149 C   0  0  0  0  0  0  0  0  0  0  0  0
   15.3225  -21.1170   24.3124 N   0  0  0  0  0  0  0  0  0  0  0  0
   14.3132  -19.0307   24.3611 N   0  0  0  0  0  0  0  0  0  0  0  0
   13.8455  -17.8738   25.0808 C   0  0  0  0  0  0  0  0  0  0  0  0
   12.3506  -17.8937   25.2887 C   0  0  0  0  0  0  0  0  0  0  0  0
   11.6688  -16.8068   24.4903 C   0  0  0  0  0  0  0  0  0  0  0  0
   10.1592  -16.8489   24.6776 C   0  0  2  0  0  0  0  0  0  0  0  0
    9.5483  -15.8229   23.8763 N   0  0  0  0  0  0  0  0  0  0  0  0
    9.9140  -16.5633   26.1020 C   0  0  0  0  0  0  0  0  0  0  0  0
    9.6035  -15.4032   26.4509 O   0  0  0  0  0  0  0  0  0  0  0  0
   10.0091  -17.5248   27.1004 O   0  0  0  0  0  0  0  0  0  0  0  0
  2  1  1  6
  2  3  1  0
  3  4  1  0
  5  2  1  0
  6  5  2  0
  8  9  2  0
  8  7  1  0
 10  9  1  0
 11 10  2  0
 12 11  1  0
 13 12  1  1
 13 14  1  0
 14  5  1  0
 15 27  1  0
 15 13  1  0
 16 15  2  0
 17 11  1  0
 17 18  2  0
 18  8  1  0
 20 19  1  0
 21 20  2  0
 22 20  1  0
 23 22  1  0
 24 23  1  0
 25 24  1  0
 26 25  1  1
 26 27  1  0
 28 30  1  0
 28 26  1  0
 29 28  2  0
M  END
$$$$
