CYR.pdb
     RDKit          3D

 30 30  0  0  1  0  0  0  0  0999 V2000
    7.9791  -18.3944   18.2441 N   0  0  0  0  0  0  0  0  0  0  0  0
    7.6144  -18.5090   19.6241 C   0  0  1  0  0  0  0  0  0  0  0  0
    7.6353  -19.9763   20.0159 C   0  0  0  0  0  0  0  0  0  0  0  0
    7.2341  -20.1819   21.7697 S   0  0  0  0  0  0  0  0  0  0  0  0
    8.4918  -17.7115   20.5183 C   0  0  0  0  0  0  0  0  0  0  0  0
    9.7108  -17.7089   20.3044 O   0  0  0  0  0  0  0  0  0  0  0  0
    7.5215  -12.0939   17.7082 O   0  0  0  0  0  0  0  0  0  0  0  0
    7.7007  -12.7575   18.9289 C   0  0  0  0  0  0  0  0  0  0  0  0
    6.6432  -13.3009   19.6167 C   0  0  0  0  0  0  0  0  0  0  0  0
    6.8143  -13.9543   20.8171 C   0  0  0  0  0  0  0  0  0  0  0  0
    8.0697  -14.0829   21.3698 C   0  0  0  0  0  0  0  0  0  0  0  0
    8.2124  -14.7857   22.6484 C   0  0  0  0  0  0  0  0  0  0  0  0
    8.7710  -16.1853   22.5160 C   0  0  2  0  0  0  0  0  0  0  0  0
    7.9669  -16.9728   21.5850 N   0  0  0  0  0  0  0  0  0  0  0  0
    9.0769  -16.8672   23.7587 C   0  0  0  0  0  0  0  0  0  0  0  0
    8.1979  -16.9929   24.6402 O   0  0  0  0  0  0  0  0  0  0  0  0
    9.1223  -13.5383   20.6785 C   0  0  0  0  0  0  0  0  0  0  0  0
    8.9608  -12.8815   19.4745 C   0  0  0  0  0  0  0  0  0  0  0  0
   13.8947  -22.4962   20.0821 N   0  0  0  0  0  0  0  0  0  0  0  0
   13.4552  -21.3477   20.8307 C   0  0  0  0  0  0  0  0  0  0  0  0
   13.9275  -20.1757   20.5446 N   0  0  0  0  0  0  0  0  0  0  0  0
   12.5188  -21.4455   21.8776 N   0  0  0  0  0  0  0  0  0  0  0  0
   12.7272  -20.7807   23.1385 C   0  0  0  0  0  0  0  0  0  0  0  0
   11.5684  -19.8899   23.5151 C   0  0  0  0  0  0  0  0  0  0  0  0
   11.8452  -19.1381   24.7965 C   0  0  0  0  0  0  0  0  0  0  0  0
   10.6937  -18.2084   25.1506 C   0  0  2  0  0  0  0  0  0  0  0  0
   10.3578  -17.4047   24.0063 N   0  0  0  0  0  0  0  0  0  0  0  0
   11.1876  -17.3352   26.2295 C   0  0  0  0  0  0  0  0  0  0  0  0
   11.4157  -16.1296   25.9875 O   0  0  0  0  0  0  0  0  0  0  0  0
   11.4197  -17.7799   27.5251 O   0  0  0  0  0  0  0  0  0  0  0  0
  2  1  1  6
  2  3  1  0
  3  4  1  0
  5  2  1  0
  6  5  2  0
  8  9  2  0
  8  7  1  0
 10  9  1  0
 11 10  2  0
 12 11  1  0
 13 12  1  1
 13 14  1  0
 14  5  1  0
 15 27  1  0
 15 13  1  0
 16 15  2  0
 17 11  1  0
 17 18  2  0
 18  8  1  0
 20 19  1  0
 21 20  2  0
 22 20  1  0
 23 22  1  0
 24 23  1  0
 25 24  1  0
 26 25  1  6
 26 27  1  0
 28 30  1  0
 28 26  1  0
 29 28  2  0
M  END
$$$$
