CYR.pdb
     RDKit          3D

 30 30  0  0  1  0  0  0  0  0999 V2000
    9.3042  -15.0590   18.3633 N   0  0  0  0  0  0  0  0  0  0  0  0
    8.2252  -15.2934   19.2752 C   0  0  1  0  0  0  0  0  0  0  0  0
    7.7744  -16.7374   19.1395 C   0  0  0  0  0  0  0  0  0  0  0  0
    6.4428  -17.1104   20.3086 S   0  0  0  0  0  0  0  0  0  0  0  0
    8.5846  -14.9828   20.6823 C   0  0  0  0  0  0  0  0  0  0  0  0
    9.6810  -15.3634   21.1119 O   0  0  0  0  0  0  0  0  0  0  0  0
    7.5186  -11.9258   29.0056 O   0  0  0  0  0  0  0  0  0  0  0  0
    7.4127  -12.1675   27.6297 C   0  0  0  0  0  0  0  0  0  0  0  0
    6.3429  -12.8439   27.0962 C   0  0  0  0  0  0  0  0  0  0  0  0
    6.2344  -13.0840   25.7443 C   0  0  0  0  0  0  0  0  0  0  0  0
    7.2105  -12.6459   24.8763 C   0  0  0  0  0  0  0  0  0  0  0  0
    7.0598  -12.9194   23.4440 C   0  0  0  0  0  0  0  0  0  0  0  0
    7.9481  -14.0352   22.9394 C   0  0  2  0  0  0  0  0  0  0  0  0
    7.7128  -14.2753   21.5180 N   0  0  0  0  0  0  0  0  0  0  0  0
    7.9764  -15.2390   23.7474 C   0  0  0  0  0  0  0  0  0  0  0  0
    7.0164  -16.0409   23.7155 O   0  0  0  0  0  0  0  0  0  0  0  0
    8.2768  -11.9708   25.4147 C   0  0  0  0  0  0  0  0  0  0  0  0
    8.3945  -11.7253   26.7685 C   0  0  0  0  0  0  0  0  0  0  0  0
   13.5320  -20.0345   21.3867 N   0  0  0  0  0  0  0  0  0  0  0  0
   12.2750  -19.6840   20.7786 C   0  0  0  0  0  0  0  0  0  0  0  0
   12.0933  -19.8940   19.5131 N   0  0  0  0  0  0  0  0  0  0  0  0
   11.2176  -19.1133   21.5125 N   0  0  0  0  0  0  0  0  0  0  0  0
   11.3868  -18.7063   22.8840 C   0  0  0  0  0  0  0  0  0  0  0  0
   10.1666  -18.0043   23.4283 C   0  0  0  0  0  0  0  0  0  0  0  0
   10.3801  -17.5548   24.8552 C   0  0  0  0  0  0  0  0  0  0  0  0
    9.1973  -16.7416   25.3604 C   0  0  2  0  0  0  0  0  0  0  0  0
    9.0746  -15.5394   24.5807 N   0  0  0  0  0  0  0  0  0  0  0  0
    9.5094  -16.3859   26.7557 C   0  0  0  0  0  0  0  0  0  0  0  0
    9.5358  -17.2830   27.6266 O   0  0  0  0  0  0  0  0  0  0  0  0
    9.7814  -15.0880   27.1697 O   0  0  0  0  0  0  0  0  0  0  0  0
  2  1  1  6
  2  3  1  0
  3  4  1  0
  5  2  1  0
  6  5  2  0
  8  9  2  0
  8  7  1  0
 10  9  1  0
 11 10  2  0
 12 11  1  0
 13 12  1  1
 13 14  1  0
 14  5  1  0
 15 27  1  0
 15 13  1  0
 16 15  2  0
 17 11  1  0
 17 18  2  0
 18  8  1  0
 20 19  1  0
 21 20  2  0
 22 20  1  0
 23 22  1  0
 24 23  1  0
 25 24  1  0
 26 25  1  6
 26 27  1  0
 28 30  1  0
 28 26  1  0
 29 28  2  0
M  END
$$$$
