CYR.pdb
     RDKit          3D

 30 30  0  0  1  0  0  0  0  0999 V2000
    7.9686  -12.3787   19.3448 N   0  0  0  0  0  0  0  0  0  0  0  0
    7.2684  -13.1100   20.3574 C   0  0  1  0  0  0  0  0  0  0  0  0
    6.6838  -14.3673   19.7377 C   0  0  0  0  0  0  0  0  0  0  0  0
    7.9955  -15.5172   19.2515 S   0  0  0  0  0  0  0  0  0  0  0  0
    8.1276  -13.4457   21.5214 C   0  0  0  0  0  0  0  0  0  0  0  0
    9.3564  -13.4304   21.3750 O   0  0  0  0  0  0  0  0  0  0  0  0
   10.3641  -14.9681   29.9987 O   0  0  0  0  0  0  0  0  0  0  0  0
    9.6570  -14.7400   28.8111 C   0  0  0  0  0  0  0  0  0  0  0  0
    9.4770  -13.4737   28.3104 C   0  0  0  0  0  0  0  0  0  0  0  0
    8.7826  -13.2444   27.1432 C   0  0  0  0  0  0  0  0  0  0  0  0
    8.2409  -14.2944   26.4347 C   0  0  0  0  0  0  0  0  0  0  0  0
    7.5093  -14.0112   25.1963 C   0  0  0  0  0  0  0  0  0  0  0  0
    8.3575  -14.1199   23.9484 C   0  0  2  0  0  0  0  0  0  0  0  0
    7.5748  -13.7748   22.7644 N   0  0  0  0  0  0  0  0  0  0  0  0
    9.1334  -15.3374   23.8120 C   0  0  0  0  0  0  0  0  0  0  0  0
    8.5661  -16.4169   23.5322 O   0  0  0  0  0  0  0  0  0  0  0  0
    8.4238  -15.5571   26.9394 C   0  0  0  0  0  0  0  0  0  0  0  0
    9.1184  -15.7971   28.1086 C   0  0  0  0  0  0  0  0  0  0  0  0
   16.8669  -15.8677   19.7369 N   0  0  0  0  0  0  0  0  0  0  0  0
   15.4886  -15.4543   19.6926 C   0  0  0  0  0  0  0  0  0  0  0  0
   15.1372  -14.4725   18.9238 N   0  0  0  0  0  0  0  0  0  0  0  0
   14.4900  -16.0818   20.4617 N   0  0  0  0  0  0  0  0  0  0  0  0
   14.7551  -16.5584   21.7951 C   0  0  0  0  0  0  0  0  0  0  0  0
   13.5103  -17.0684   22.4796 C   0  0  0  0  0  0  0  0  0  0  0  0
   12.6470  -15.9303   22.9726 C   0  0  0  0  0  0  0  0  0  0  0  0
   11.3904  -16.4474   23.6574 C   0  0  2  0  0  0  0  0  0  0  0  0
   10.5336  -15.3401   23.9858 N   0  0  0  0  0  0  0  0  0  0  0  0
   11.8387  -17.0999   24.9000 C   0  0  0  0  0  0  0  0  0  0  0  0
   11.6230  -16.5424   25.9984 O   0  0  0  0  0  0  0  0  0  0  0  0
   12.4997  -18.3216   24.9246 O   0  0  0  0  0  0  0  0  0  0  0  0
  2  1  1  6
  2  3  1  0
  3  4  1  0
  5  2  1  0
  6  5  2  0
  8  9  2  0
  8  7  1  0
 10  9  1  0
 11 10  2  0
 12 11  1  0
 13 12  1  1
 13 14  1  0
 14  5  1  0
 15 27  1  0
 15 13  1  0
 16 15  2  0
 17 11  1  0
 17 18  2  0
 18  8  1  0
 20 19  1  0
 21 20  2  0
 22 20  1  0
 23 22  1  0
 24 23  1  0
 25 24  1  0
 26 25  1  1
 26 27  1  0
 28 30  1  0
 28 26  1  0
 29 28  2  0
M  END
$$$$
