CYR.pdb
     RDKit          3D

 30 30  0  0  1  0  0  0  0  0999 V2000
    7.3768  -12.3962   18.7500 N   0  0  0  0  0  0  0  0  0  0  0  0
    6.9309  -13.4735   19.5814 C   0  0  1  0  0  0  0  0  0  0  0  0
    6.9721  -14.7615   18.7777 C   0  0  0  0  0  0  0  0  0  0  0  0
    6.5429  -16.1830   19.8142 S   0  0  0  0  0  0  0  0  0  0  0  0
    7.7267  -13.6039   20.8285 C   0  0  0  0  0  0  0  0  0  0  0  0
    8.9598  -13.5284   20.7555 O   0  0  0  0  0  0  0  0  0  0  0  0
    9.6363  -14.4891   29.4667 O   0  0  0  0  0  0  0  0  0  0  0  0
    8.9987  -14.2660   28.2394 C   0  0  0  0  0  0  0  0  0  0  0  0
    9.1449  -13.0843   27.5547 C   0  0  0  0  0  0  0  0  0  0  0  0
    8.5201  -12.8602   26.3479 C   0  0  0  0  0  0  0  0  0  0  0  0
    7.7189  -13.8296   25.7853 C   0  0  0  0  0  0  0  0  0  0  0  0
    7.0713  -13.5550   24.4992 C   0  0  0  0  0  0  0  0  0  0  0  0
    7.8277  -14.0983   23.3071 C   0  0  2  0  0  0  0  0  0  0  0  0
    7.1102  -13.8082   22.0684 N   0  0  0  0  0  0  0  0  0  0  0  0
    8.2886  -15.4688   23.4182 C   0  0  0  0  0  0  0  0  0  0  0  0
    7.5157  -16.4160   23.1519 O   0  0  0  0  0  0  0  0  0  0  0  0
    7.5764  -15.0079   26.4736 C   0  0  0  0  0  0  0  0  0  0  0  0
    8.1987  -15.2419   27.6840 C   0  0  0  0  0  0  0  0  0  0  0  0
   14.4854  -14.2733   20.1571 N   0  0  0  0  0  0  0  0  0  0  0  0
   13.4138  -14.7235   19.3077 C   0  0  0  0  0  0  0  0  0  0  0  0
   13.2041  -14.1355   18.1724 N   0  0  0  0  0  0  0  0  0  0  0  0
   12.5700  -15.7928   19.6641 N   0  0  0  0  0  0  0  0  0  0  0  0
   12.6837  -16.4476   20.9423 C   0  0  0  0  0  0  0  0  0  0  0  0
   11.3509  -16.5825   21.6377 C   0  0  0  0  0  0  0  0  0  0  0  0
   11.5195  -17.0405   23.0679 C   0  0  0  0  0  0  0  0  0  0  0  0
   10.1827  -17.0880   23.7933 C   0  0  2  0  0  0  0  0  0  0  0  0
    9.6063  -15.7708   23.8222 N   0  0  0  0  0  0  0  0  0  0  0  0
   10.4779  -17.5194   25.1707 C   0  0  0  0  0  0  0  0  0  0  0  0
   10.3367  -16.7078   26.1118 O   0  0  0  0  0  0  0  0  0  0  0  0
   10.9125  -18.7990   25.4930 O   0  0  0  0  0  0  0  0  0  0  0  0
  2  1  1  6
  2  3  1  0
  3  4  1  0
  5  2  1  0
  6  5  2  0
  8  9  2  0
  8  7  1  0
 10  9  1  0
 11 10  2  0
 12 11  1  0
 13 12  1  1
 13 14  1  0
 14  5  1  0
 15 27  1  0
 15 13  1  0
 16 15  2  0
 17 11  1  0
 17 18  2  0
 18  8  1  0
 20 19  1  0
 21 20  2  0
 22 20  1  0
 23 22  1  0
 24 23  1  0
 25 24  1  0
 26 25  1  6
 26 27  1  0
 28 30  1  0
 28 26  1  0
 29 28  2  0
M  END
$$$$
