CYR.pdb
     RDKit          3D

 30 30  0  0  1  0  0  0  0  0999 V2000
    4.8722  -21.2943   23.5146 N   0  0  0  0  0  0  0  0  0  0  0  0
    5.8997  -20.9359   24.4454 C   0  0  1  0  0  0  0  0  0  0  0  0
    7.0359  -21.9370   24.3299 C   0  0  0  0  0  0  0  0  0  0  0  0
    8.2250  -21.7221   25.6787 S   0  0  0  0  0  0  0  0  0  0  0  0
    6.3954  -19.5499   24.2481 C   0  0  0  0  0  0  0  0  0  0  0  0
    6.4244  -19.0885   23.1002 O   0  0  0  0  0  0  0  0  0  0  0  0
    7.7867  -11.0072   25.9920 O   0  0  0  0  0  0  0  0  0  0  0  0
    7.4908  -12.3744   26.0669 C   0  0  0  0  0  0  0  0  0  0  0  0
    6.2985  -12.8807   25.6101 C   0  0  0  0  0  0  0  0  0  0  0  0
    6.0031  -14.2241   25.6816 C   0  0  0  0  0  0  0  0  0  0  0  0
    6.9087  -15.1109   26.2214 C   0  0  0  0  0  0  0  0  0  0  0  0
    6.5591  -16.5333   26.2797 C   0  0  0  0  0  0  0  0  0  0  0  0
    7.2388  -17.3723   25.2201 C   0  0  2  0  0  0  0  0  0  0  0  0
    6.8244  -18.7688   25.3274 N   0  0  0  0  0  0  0  0  0  0  0  0
    8.6707  -17.1874   25.0855 C   0  0  0  0  0  0  0  0  0  0  0  0
    9.3289  -16.6731   26.0171 O   0  0  0  0  0  0  0  0  0  0  0  0
    8.0980  -14.5997   26.6762 C   0  0  0  0  0  0  0  0  0  0  0  0
    8.4033  -13.2546   26.6088 C   0  0  0  0  0  0  0  0  0  0  0  0
    7.9709  -14.5731   18.4501 N   0  0  0  0  0  0  0  0  0  0  0  0
    8.0624  -13.1958   18.8591 C   0  0  0  0  0  0  0  0  0  0  0  0
    7.6352  -12.2618   18.0695 N   0  0  0  0  0  0  0  0  0  0  0  0
    8.6054  -12.8145   20.1010 N   0  0  0  0  0  0  0  0  0  0  0  0
    8.3475  -13.5710   21.2995 C   0  0  0  0  0  0  0  0  0  0  0  0
    9.2930  -14.7371   21.4558 C   0  0  0  0  0  0  0  0  0  0  0  0
    8.7765  -15.7335   22.4677 C   0  0  0  0  0  0  0  0  0  0  0  0
    9.8832  -16.6656   22.9390 C   0  0  2  0  0  0  0  0  0  0  0  0
    9.3560  -17.5795   23.9161 N   0  0  0  0  0  0  0  0  0  0  0  0
   10.8994  -15.8084   23.5739 C   0  0  0  0  0  0  0  0  0  0  0  0
   11.6844  -15.1517   22.8553 O   0  0  0  0  0  0  0  0  0  0  0  0
   11.0403  -15.6838   24.9504 O   0  0  0  0  0  0  0  0  0  0  0  0
  2  1  1  6
  2  3  1  0
  3  4  1  0
  5  2  1  0
  6  5  2  0
  8  9  2  0
  8  7  1  0
 10  9  1  0
 11 10  2  0
 12 11  1  0
 13 12  1  1
 13 14  1  0
 14  5  1  0
 15 27  1  0
 15 13  1  0
 16 15  2  0
 17 11  1  0
 17 18  2  0
 18  8  1  0
 20 19  1  0
 21 20  2  0
 22 20  1  0
 23 22  1  0
 24 23  1  0
 25 24  1  0
 26 25  1  1
 26 27  1  0
 28 30  1  0
 28 26  1  0
 29 28  2  0
M  END
$$$$
