CYR.pdb
     RDKit          3D

 30 30  0  0  1  0  0  0  0  0999 V2000
    9.7662  -16.2555   18.4361 N   0  0  0  0  0  0  0  0  0  0  0  0
    8.6317  -16.4477   19.2885 C   0  0  1  0  0  0  0  0  0  0  0  0
    8.3077  -17.9304   19.3456 C   0  0  0  0  0  0  0  0  0  0  0  0
    6.7850  -18.2228   20.2810 S   0  0  0  0  0  0  0  0  0  0  0  0
    8.8392  -15.8999   20.6532 C   0  0  0  0  0  0  0  0  0  0  0  0
    9.9464  -16.0430   21.1873 O   0  0  0  0  0  0  0  0  0  0  0  0
    6.7420  -12.1491   28.4692 O   0  0  0  0  0  0  0  0  0  0  0  0
    6.7647  -12.5540   27.1283 C   0  0  0  0  0  0  0  0  0  0  0  0
    6.0021  -13.6042   26.6787 C   0  0  0  0  0  0  0  0  0  0  0  0
    6.0211  -14.0059   25.3614 C   0  0  0  0  0  0  0  0  0  0  0  0
    6.8174  -13.3560   24.4440 C   0  0  0  0  0  0  0  0  0  0  0  0
    6.8103  -13.8116   23.0508 C   0  0  0  0  0  0  0  0  0  0  0  0
    7.8841  -14.8299   22.7367 C   0  0  2  0  0  0  0  0  0  0  0  0
    7.8143  -15.2332   21.3346 N   0  0  0  0  0  0  0  0  0  0  0  0
    8.0017  -15.9363   23.6667 C   0  0  0  0  0  0  0  0  0  0  0  0
    7.4380  -17.0262   23.4223 O   0  0  0  0  0  0  0  0  0  0  0  0
    7.5770  -12.3076   24.8987 C   0  0  0  0  0  0  0  0  0  0  0  0
    7.5648  -11.8975   26.2172 C   0  0  0  0  0  0  0  0  0  0  0  0
   11.6760  -20.7191   22.1192 N   0  0  0  0  0  0  0  0  0  0  0  0
   12.7505  -20.8365   23.0702 C   0  0  0  0  0  0  0  0  0  0  0  0
   13.2394  -22.0043   23.3455 N   0  0  0  0  0  0  0  0  0  0  0  0
   13.3014  -19.7181   23.7245 N   0  0  0  0  0  0  0  0  0  0  0  0
   12.6816  -18.4200   23.6474 C   0  0  0  0  0  0  0  0  0  0  0  0
   11.4263  -18.3337   24.4810 C   0  0  0  0  0  0  0  0  0  0  0  0
   10.8592  -16.9330   24.4796 C   0  0  0  0  0  0  0  0  0  0  0  0
    9.6281  -16.8353   25.3687 C   0  0  2  0  0  0  0  0  0  0  0  0
    8.7481  -15.8188   24.8583 N   0  0  0  0  0  0  0  0  0  0  0  0
   10.1140  -16.4334   26.7003 C   0  0  0  0  0  0  0  0  0  0  0  0
   10.5090  -15.2607   26.8813 O   0  0  0  0  0  0  0  0  0  0  0  0
   10.1604  -17.2964   27.7880 O   0  0  0  0  0  0  0  0  0  0  0  0
  2  1  1  6
  2  3  1  0
  3  4  1  0
  5  2  1  0
  6  5  2  0
  8  9  2  0
  8  7  1  0
 10  9  1  0
 11 10  2  0
 12 11  1  0
 13 12  1  1
 13 14  1  0
 14  5  1  0
 15 27  1  0
 15 13  1  0
 16 15  2  0
 17 11  1  0
 17 18  2  0
 18  8  1  0
 20 19  1  0
 21 20  2  0
 22 20  1  0
 23 22  1  0
 24 23  1  0
 25 24  1  0
 26 25  1  6
 26 27  1  0
 28 30  1  0
 28 26  1  0
 29 28  2  0
M  END
$$$$
