CYR.pdb
     RDKit          3D

 30 30  0  0  1  0  0  0  0  0999 V2000
    8.9097  -19.7591   21.2657 N   0  0  0  0  0  0  0  0  0  0  0  0
    9.2907  -18.7499   20.3239 C   0  0  1  0  0  0  0  0  0  0  0  0
    8.0722  -18.3578   19.5066 C   0  0  0  0  0  0  0  0  0  0  0  0
    8.5517  -17.3723   18.0650 S   0  0  0  0  0  0  0  0  0  0  0  0
    9.8970  -17.5591   20.9719 C   0  0  0  0  0  0  0  0  0  0  0  0
   10.9636  -17.1193   20.5242 O   0  0  0  0  0  0  0  0  0  0  0  0
    6.3232  -12.7630   18.3608 O   0  0  0  0  0  0  0  0  0  0  0  0
    6.9431  -13.2495   19.5191 C   0  0  0  0  0  0  0  0  0  0  0  0
    6.3288  -14.1682   20.3346 C   0  0  0  0  0  0  0  0  0  0  0  0
    6.9342  -14.6495   21.4743 C   0  0  0  0  0  0  0  0  0  0  0  0
    8.1917  -14.2164   21.8336 C   0  0  0  0  0  0  0  0  0  0  0  0
    8.8041  -14.7520   23.0530 C   0  0  0  0  0  0  0  0  0  0  0  0
    9.8589  -15.8051   22.7940 C   0  0  2  0  0  0  0  0  0  0  0  0
    9.2875  -16.9357   22.0669 N   0  0  0  0  0  0  0  0  0  0  0  0
   10.6723  -16.1829   23.9335 C   0  0  0  0  0  0  0  0  0  0  0  0
   11.1554  -15.3034   24.6809 O   0  0  0  0  0  0  0  0  0  0  0  0
    8.8006  -13.2987   21.0153 C   0  0  0  0  0  0  0  0  0  0  0  0
    8.2019  -12.8103   19.8708 C   0  0  0  0  0  0  0  0  0  0  0  0
   11.0448  -20.3689   31.7930 N   0  0  0  0  0  0  0  0  0  0  0  0
   11.3078  -21.0966   30.5789 C   0  0  0  0  0  0  0  0  0  0  0  0
   10.9896  -22.3500   30.5000 N   0  0  0  0  0  0  0  0  0  0  0  0
   11.9061  -20.4944   29.4556 N   0  0  0  0  0  0  0  0  0  0  0  0
   11.2265  -20.4249   28.1874 C   0  0  0  0  0  0  0  0  0  0  0  0
   12.0014  -19.6301   27.1646 C   0  0  0  0  0  0  0  0  0  0  0  0
   11.0871  -19.0451   26.1133 C   0  0  0  0  0  0  0  0  0  0  0  0
   11.8002  -17.9806   25.2923 C   0  0  2  0  0  0  0  0  0  0  0  0
   10.9373  -17.5365   24.2310 N   0  0  0  0  0  0  0  0  0  0  0  0
   12.9860  -18.6350   24.7126 C   0  0  0  0  0  0  0  0  0  0  0  0
   14.0984  -18.4914   25.2659 O   0  0  0  0  0  0  0  0  0  0  0  0
   12.9415  -19.4174   23.5654 O   0  0  0  0  0  0  0  0  0  0  0  0
  2  1  1  1
  2  3  1  0
  3  4  1  0
  5  2  1  0
  6  5  2  0
  8  9  2  0
  8  7  1  0
 10  9  1  0
 11 10  2  0
 12 11  1  0
 13 12  1  1
 13 14  1  0
 14  5  1  0
 15 27  1  0
 15 13  1  0
 16 15  2  0
 17 11  1  0
 17 18  2  0
 18  8  1  0
 20 19  1  0
 21 20  2  0
 22 20  1  0
 23 22  1  0
 24 23  1  0
 25 24  1  0
 26 25  1  1
 26 27  1  0
 28 30  1  0
 28 26  1  0
 29 28  2  0
M  END
$$$$
