CYR.pdb
     RDKit          3D

 30 30  0  0  1  0  0  0  0  0999 V2000
    7.9953  -12.2984   19.7168 N   0  0  0  0  0  0  0  0  0  0  0  0
    7.3768  -13.2626   20.5760 C   0  0  1  0  0  0  0  0  0  0  0  0
    6.9456  -14.4564   19.7421 C   0  0  0  0  0  0  0  0  0  0  0  0
    6.1446  -15.7097   20.7749 S   0  0  0  0  0  0  0  0  0  0  0  0
    8.2606  -13.6892   21.6907 C   0  0  0  0  0  0  0  0  0  0  0  0
    9.4799  -13.7541   21.4889 O   0  0  0  0  0  0  0  0  0  0  0  0
   10.7083  -15.5511   30.0422 O   0  0  0  0  0  0  0  0  0  0  0  0
   10.0137  -15.1527   28.8927 C   0  0  0  0  0  0  0  0  0  0  0  0
    9.2088  -16.0225   28.1983 C   0  0  0  0  0  0  0  0  0  0  0  0
    8.5239  -15.6355   27.0677 C   0  0  0  0  0  0  0  0  0  0  0  0
    8.6286  -14.3458   26.5945 C   0  0  0  0  0  0  0  0  0  0  0  0
    7.8839  -13.9707   25.3888 C   0  0  0  0  0  0  0  0  0  0  0  0
    8.5532  -14.3979   24.1011 C   0  0  2  0  0  0  0  0  0  0  0  0
    7.7412  -14.0143   22.9491 N   0  0  0  0  0  0  0  0  0  0  0  0
    9.0340  -15.7653   24.0586 C   0  0  0  0  0  0  0  0  0  0  0  0
    8.2223  -16.7173   24.0385 O   0  0  0  0  0  0  0  0  0  0  0  0
    9.4339  -13.4812   27.2921 C   0  0  0  0  0  0  0  0  0  0  0  0
   10.1244  -13.8598   28.4265 C   0  0  0  0  0  0  0  0  0  0  0  0
   13.9983  -14.0449   20.2949 N   0  0  0  0  0  0  0  0  0  0  0  0
   13.3274  -14.9600   19.4088 C   0  0  0  0  0  0  0  0  0  0  0  0
   12.8418  -14.5287   18.2878 N   0  0  0  0  0  0  0  0  0  0  0  0
   13.1741  -16.3260   19.7137 N   0  0  0  0  0  0  0  0  0  0  0  0
   13.3504  -16.8225   21.0544 C   0  0  0  0  0  0  0  0  0  0  0  0
   12.0586  -16.8368   21.8349 C   0  0  0  0  0  0  0  0  0  0  0  0
   12.2616  -17.3900   23.2264 C   0  0  0  0  0  0  0  0  0  0  0  0
   10.9607  -17.3889   24.0159 C   0  0  2  0  0  0  0  0  0  0  0  0
   10.4139  -16.0590   24.0362 N   0  0  0  0  0  0  0  0  0  0  0  0
   11.3132  -17.7902   25.3890 C   0  0  0  0  0  0  0  0  0  0  0  0
   11.2634  -16.9434   26.3079 O   0  0  0  0  0  0  0  0  0  0  0  0
   11.7054  -19.0785   25.7305 O   0  0  0  0  0  0  0  0  0  0  0  0
  2  1  1  6
  2  3  1  0
  3  4  1  0
  5  2  1  0
  6  5  2  0
  8  9  2  0
  8  7  1  0
 10  9  1  0
 11 10  2  0
 12 11  1  0
 13 12  1  1
 13 14  1  0
 14  5  1  0
 15 27  1  0
 15 13  1  0
 16 15  2  0
 17 11  1  0
 17 18  2  0
 18  8  1  0
 20 19  1  0
 21 20  2  0
 22 20  1  0
 23 22  1  0
 24 23  1  0
 25 24  1  0
 26 25  1  6
 26 27  1  0
 28 30  1  0
 28 26  1  0
 29 28  2  0
M  END
$$$$
