CYR.pdb
     RDKit          3D

 30 30  0  0  1  0  0  0  0  0999 V2000
    9.7490  -17.2564   18.1263 N   0  0  0  0  0  0  0  0  0  0  0  0
    8.7354  -17.3163   19.1359 C   0  0  1  0  0  0  0  0  0  0  0  0
    8.5767  -18.7583   19.5856 C   0  0  0  0  0  0  0  0  0  0  0  0
   10.0133  -19.2961   20.5480 S   0  0  0  0  0  0  0  0  0  0  0  0
    9.0244  -16.4314   20.2931 C   0  0  0  0  0  0  0  0  0  0  0  0
   10.1961  -16.0922   20.5019 O   0  0  0  0  0  0  0  0  0  0  0  0
    7.3533  -11.7699   27.7249 O   0  0  0  0  0  0  0  0  0  0  0  0
    7.2594  -12.4347   26.4953 C   0  0  0  0  0  0  0  0  0  0  0  0
    6.7290  -13.6979   26.3968 C   0  0  0  0  0  0  0  0  0  0  0  0
    6.6347  -14.3556   25.1903 C   0  0  0  0  0  0  0  0  0  0  0  0
    7.0762  -13.7560   24.0312 C   0  0  0  0  0  0  0  0  0  0  0  0
    6.9584  -14.4868   22.7660 C   0  0  0  0  0  0  0  0  0  0  0  0
    8.2260  -15.2029   22.3550 C   0  0  2  0  0  0  0  0  0  0  0  0
    8.0042  -15.9818   21.1394 N   0  0  0  0  0  0  0  0  0  0  0  0
    8.9156  -15.9268   23.4054 C   0  0  0  0  0  0  0  0  0  0  0  0
    8.6639  -17.1359   23.6060 O   0  0  0  0  0  0  0  0  0  0  0  0
    7.6050  -12.4942   24.1355 C   0  0  0  0  0  0  0  0  0  0  0  0
    7.7039  -11.8268   25.3404 C   0  0  0  0  0  0  0  0  0  0  0  0
   12.0918  -18.9648   30.6093 N   0  0  0  0  0  0  0  0  0  0  0  0
   10.9623  -19.2986   29.7813 C   0  0  0  0  0  0  0  0  0  0  0  0
   10.7003  -20.5408   29.5232 N   0  0  0  0  0  0  0  0  0  0  0  0
   10.1167  -18.3164   29.2311 N   0  0  0  0  0  0  0  0  0  0  0  0
   10.6082  -17.3393   28.2935 C   0  0  0  0  0  0  0  0  0  0  0  0
   10.6003  -17.8523   26.8740 C   0  0  0  0  0  0  0  0  0  0  0  0
    9.7795  -16.9613   25.9707 C   0  0  0  0  0  0  0  0  0  0  0  0
   10.6611  -15.9721   25.2224 C   0  0  2  0  0  0  0  0  0  0  0  0
    9.8806  -15.2978   24.2203 N   0  0  0  0  0  0  0  0  0  0  0  0
   11.7093  -16.7718   24.5649 C   0  0  0  0  0  0  0  0  0  0  0  0
   11.3811  -17.6744   23.7638 O   0  0  0  0  0  0  0  0  0  0  0  0
   13.0673  -16.5794   24.7861 O   0  0  0  0  0  0  0  0  0  0  0  0
  2  1  1  6
  2  3  1  0
  3  4  1  0
  5  2  1  0
  6  5  2  0
  8  9  2  0
  8  7  1  0
 10  9  1  0
 11 10  2  0
 12 11  1  0
 13 12  1  1
 13 14  1  0
 14  5  1  0
 15 27  1  0
 15 13  1  0
 16 15  2  0
 17 11  1  0
 17 18  2  0
 18  8  1  0
 20 19  1  0
 21 20  2  0
 22 20  1  0
 23 22  1  0
 24 23  1  0
 25 24  1  0
 26 25  1  6
 26 27  1  0
 28 30  1  0
 28 26  1  0
 29 28  2  0
M  END
$$$$
