MAI.pdb
     RDKit          3D

 22 21  0  0  1  0  0  0  0  0999 V2000
    8.0216  -11.8159   19.3413 C   0  0  0  0  0  0  0  0  0  0  0  0
    8.3158  -12.6659   17.7859 S   0  0  0  0  0  0  0  0  0  0  0  0
    8.2458  -14.4671   17.9801 C   0  0  0  0  0  0  0  0  0  0  0  0
    7.9787  -14.7927   19.4496 C   0  0  0  0  0  0  0  0  0  0  0  0
    7.8920  -16.2986   19.5853 C   0  0  2  0  0  0  0  0  0  0  0  0
    6.7724  -16.7687   18.8297 N   0  0  0  0  0  0  0  0  0  0  0  0
    7.8026  -16.6242   21.0262 C   0  0  0  0  0  0  0  0  0  0  0  0
    6.7178  -16.3980   21.6224 O   0  0  0  0  0  0  0  0  0  0  0  0
    9.6983  -18.5488   23.5510 C   0  0  0  0  0  0  0  0  0  0  0  0
    8.7639  -17.4192   23.2115 C   0  0  2  0  0  0  0  0  0  0  0  0
    8.8598  -17.1762   21.7859 N   0  0  0  0  0  0  0  0  0  0  0  0
    9.1132  -16.2224   24.0166 C   0  0  0  0  0  0  0  0  0  0  0  0
   10.1391  -15.5969   23.6512 O   0  0  0  0  0  0  0  0  0  0  0  0
    6.7161  -11.3575   26.8392 C   0  0  0  0  0  0  0  0  0  0  0  0
    7.7933  -12.3847   26.8134 C   0  0  0  0  0  0  0  0  0  0  0  0
    7.4990  -13.6216   26.0191 C   0  0  2  0  0  0  0  0  0  0  0  0
    6.2559  -14.2471   26.6410 C   0  0  0  0  0  0  0  0  0  0  0  0
    8.6056  -14.6024   25.9002 C   0  0  2  0  0  0  0  0  0  0  0  0
    8.3558  -15.7788   25.1419 N   0  0  0  0  0  0  0  0  0  0  0  0
    9.1576  -14.9967   27.2359 C   0  0  0  0  0  0  0  0  0  0  0  0
    9.9355  -14.1030   27.9440 O   0  0  0  0  0  0  0  0  0  0  0  0
    8.9287  -16.1155   27.7206 O   0  0  0  0  0  0  0  0  0  0  0  0
  2  1  1  0
  3  4  1  0
  3  2  1  0
  4  5  1  0
  5  7  1  0
  5  6  1  6
  7 11  1  0
  7  8  2  0
 10  9  1  1
 10 12  1  0
 11 10  1  0
 12 19  1  0
 12 13  2  0
 14 15  1  0
 16 18  1  0
 16 15  1  0
 16 17  1  1
 18 20  1  0
 18 19  1  1
 20 21  1  0
 22 20  2  0
M  END
$$$$
