MAI.pdb
     RDKit          3D

 22 21  0  0  1  0  0  0  0  0999 V2000
    8.3972  -11.7933   19.7419 C   0  0  0  0  0  0  0  0  0  0  0  0
    8.0002  -12.6953   18.2396 S   0  0  0  0  0  0  0  0  0  0  0  0
    7.9507  -14.4853   18.5230 C   0  0  0  0  0  0  0  0  0  0  0  0
    7.6804  -14.7405   20.0058 C   0  0  0  0  0  0  0  0  0  0  0  0
    7.6138  -16.2388   20.2165 C   0  0  2  0  0  0  0  0  0  0  0  0
    6.5026  -16.7614   19.4833 N   0  0  0  0  0  0  0  0  0  0  0  0
    7.5251  -16.4931   21.6718 C   0  0  0  0  0  0  0  0  0  0  0  0
    6.5931  -15.9467   22.3168 O   0  0  0  0  0  0  0  0  0  0  0  0
    9.0492  -18.7906   24.1626 C   0  0  0  0  0  0  0  0  0  0  0  0
    8.3322  -17.5110   23.8269 C   0  0  2  0  0  0  0  0  0  0  0  0
    8.4221  -17.3140   22.3937 N   0  0  0  0  0  0  0  0  0  0  0  0
    8.9280  -16.3882   24.5931 C   0  0  0  0  0  0  0  0  0  0  0  0
    9.9398  -15.8504   24.0789 O   0  0  0  0  0  0  0  0  0  0  0  0
    6.1457  -12.1551   26.2060 C   0  0  0  0  0  0  0  0  0  0  0  0
    7.2421  -13.0866   25.8233 C   0  0  0  0  0  0  0  0  0  0  0  0
    7.9605  -13.7527   26.9582 C   0  0  2  0  0  0  0  0  0  0  0  0
    8.6370  -12.6407   27.7514 C   0  0  0  0  0  0  0  0  0  0  0  0
    8.9183  -14.8235   26.5885 C   0  0  2  0  0  0  0  0  0  0  0  0
    8.4124  -15.9206   25.8389 N   0  0  0  0  0  0  0  0  0  0  0  0
    9.6616  -15.3523   27.7768 C   0  0  0  0  0  0  0  0  0  0  0  0
   10.7488  -14.6571   28.2668 O   0  0  0  0  0  0  0  0  0  0  0  0
    9.3182  -16.4072   28.3320 O   0  0  0  0  0  0  0  0  0  0  0  0
  2  1  1  0
  3  4  1  0
  3  2  1  0
  4  5  1  0
  5  7  1  0
  5  6  1  6
  7 11  1  0
  7  8  2  0
 10  9  1  6
 10 12  1  0
 11 10  1  0
 12 19  1  0
 12 13  2  0
 14 15  1  0
 16 18  1  0
 16 15  1  0
 16 17  1  6
 18 20  1  0
 18 19  1  1
 20 21  1  0
 22 20  2  0
M  END
$$$$
