MAI.pdb
     RDKit          3D

 22 21  0  0  1  0  0  0  0  0999 V2000
    8.5459  -11.5411   19.4653 C   0  0  0  0  0  0  0  0  0  0  0  0
    8.2075  -12.4693   17.9646 S   0  0  0  0  0  0  0  0  0  0  0  0
    8.3955  -14.2541   18.2209 C   0  0  0  0  0  0  0  0  0  0  0  0
    7.8098  -14.6189   19.5850 C   0  0  0  0  0  0  0  0  0  0  0  0
    7.9601  -16.1142   19.7723 C   0  0  2  0  0  0  0  0  0  0  0  0
    6.9872  -16.7829   18.9650 N   0  0  0  0  0  0  0  0  0  0  0  0
    7.8249  -16.4107   21.2160 C   0  0  0  0  0  0  0  0  0  0  0  0
    6.6748  -16.3809   21.7256 O   0  0  0  0  0  0  0  0  0  0  0  0
    9.5925  -18.2153   23.8073 C   0  0  0  0  0  0  0  0  0  0  0  0
    8.7405  -17.0191   23.4795 C   0  0  2  0  0  0  0  0  0  0  0  0
    8.9068  -16.7278   22.0694 N   0  0  0  0  0  0  0  0  0  0  0  0
    9.1277  -15.8773   24.3449 C   0  0  0  0  0  0  0  0  0  0  0  0
   10.1943  -15.2916   24.0341 O   0  0  0  0  0  0  0  0  0  0  0  0
    5.5296  -12.2773   27.0691 C   0  0  0  0  0  0  0  0  0  0  0  0
    6.3889  -13.4752   26.8623 C   0  0  0  0  0  0  0  0  0  0  0  0
    7.7795  -13.2059   26.3711 C   0  0  2  0  0  0  0  0  0  0  0  0
    7.6337  -12.5635   24.9966 C   0  0  0  0  0  0  0  0  0  0  0  0
    8.6991  -14.3695   26.3381 C   0  0  2  0  0  0  0  0  0  0  0  0
    8.3624  -15.4424   25.4682 N   0  0  0  0  0  0  0  0  0  0  0  0
    8.9626  -14.9209   27.7058 C   0  0  0  0  0  0  0  0  0  0  0  0
    8.7088  -16.2526   27.9656 O   0  0  0  0  0  0  0  0  0  0  0  0
    9.4064  -14.2016   28.6139 O   0  0  0  0  0  0  0  0  0  0  0  0
  2  1  1  0
  3  4  1  0
  3  2  1  0
  4  5  1  0
  5  7  1  0
  5  6  1  6
  7 11  1  0
  7  8  2  0
 10  9  1  1
 10 12  1  0
 11 10  1  0
 12 19  1  0
 12 13  2  0
 14 15  1  0
 16 18  1  0
 16 15  1  0
 16 17  1  6
 18 20  1  0
 18 19  1  6
 20 21  1  0
 22 20  2  0
M  END
$$$$
