MAI.pdb
     RDKit          3D

 22 21  0  0  1  0  0  0  0  0999 V2000
    6.0517  -20.4166   22.7975 C   0  0  0  0  0  0  0  0  0  0  0  0
    6.5421  -20.9846   21.1650 S   0  0  0  0  0  0  0  0  0  0  0  0
    7.5777  -19.7655   20.3117 C   0  0  0  0  0  0  0  0  0  0  0  0
    8.0560  -18.7294   21.3288 C   0  0  0  0  0  0  0  0  0  0  0  0
    8.8485  -17.6756   20.5836 C   0  0  2  0  0  0  0  0  0  0  0  0
   10.1383  -18.2047   20.2645 N   0  0  0  0  0  0  0  0  0  0  0  0
    8.9075  -16.4632   21.4302 C   0  0  0  0  0  0  0  0  0  0  0  0
    9.7803  -16.4096   22.3349 O   0  0  0  0  0  0  0  0  0  0  0  0
    7.3659  -13.0713   21.4984 C   0  0  0  0  0  0  0  0  0  0  0  0
    8.0879  -14.2041   22.1764 C   0  0  2  0  0  0  0  0  0  0  0  0
    8.0443  -15.3517   21.2921 N   0  0  0  0  0  0  0  0  0  0  0  0
    7.4623  -14.4783   23.4940 C   0  0  0  0  0  0  0  0  0  0  0  0
    6.4182  -15.1760   23.4700 O   0  0  0  0  0  0  0  0  0  0  0  0
   10.1960  -13.5324   28.6626 C   0  0  0  0  0  0  0  0  0  0  0  0
    9.1556  -13.2939   27.6250 C   0  0  0  0  0  0  0  0  0  0  0  0
    8.4498  -14.5138   27.1136 C   0  0  2  0  0  0  0  0  0  0  0  0
    9.5371  -15.5000   26.7032 C   0  0  0  0  0  0  0  0  0  0  0  0
    7.4686  -14.2939   26.0230 C   0  0  2  0  0  0  0  0  0  0  0  0
    7.9844  -13.9969   24.7318 N   0  0  0  0  0  0  0  0  0  0  0  0
    6.4447  -13.2614   26.3834 C   0  0  0  0  0  0  0  0  0  0  0  0
    5.5530  -13.5123   27.4067 O   0  0  0  0  0  0  0  0  0  0  0  0
    6.3817  -12.1805   25.7779 O   0  0  0  0  0  0  0  0  0  0  0  0
  2  1  1  0
  3  4  1  0
  3  2  1  0
  4  5  1  0
  5  7  1  0
  5  6  1  1
  7 11  1  0
  7  8  2  0
 10  9  1  6
 10 12  1  0
 11 10  1  0
 12 19  1  0
 12 13  2  0
 14 15  1  0
 16 18  1  0
 16 15  1  0
 16 17  1  6
 18 20  1  0
 18 19  1  6
 20 21  1  0
 22 20  2  0
M  END
$$$$
