MAI.pdb
     RDKit          3D

 22 21  0  0  1  0  0  0  0  0999 V2000
    6.9618  -19.4519   24.5331 C   0  0  0  0  0  0  0  0  0  0  0  0
    6.3986  -19.4581   22.8270 S   0  0  0  0  0  0  0  0  0  0  0  0
    6.1548  -17.7772   22.1931 C   0  0  0  0  0  0  0  0  0  0  0  0
    7.1167  -16.8350   22.9168 C   0  0  0  0  0  0  0  0  0  0  0  0
    6.8340  -15.4250   22.4418 C   0  0  2  0  0  0  0  0  0  0  0  0
    7.2557  -15.3006   21.0809 N   0  0  0  0  0  0  0  0  0  0  0  0
    7.5240  -14.4870   23.3554 C   0  0  0  0  0  0  0  0  0  0  0  0
    8.7796  -14.4216   23.3057 O   0  0  0  0  0  0  0  0  0  0  0  0
    6.5062  -12.2977   26.2210 C   0  0  0  0  0  0  0  0  0  0  0  0
    7.5173  -13.1176   25.4663 C   0  0  2  0  0  0  0  0  0  0  0  0
    6.8652  -13.6525   24.2876 N   0  0  0  0  0  0  0  0  0  0  0  0
    8.0572  -14.1816   26.3490 C   0  0  0  0  0  0  0  0  0  0  0  0
    7.2947  -15.1568   26.5607 O   0  0  0  0  0  0  0  0  0  0  0  0
   12.1957  -16.7096   24.7107 C   0  0  0  0  0  0  0  0  0  0  0  0
   10.9992  -16.1785   25.4196 C   0  0  0  0  0  0  0  0  0  0  0  0
   11.2084  -15.7837   26.8507 C   0  0  2  0  0  0  0  0  0  0  0  0
   11.7589  -17.0148   27.5610 C   0  0  0  0  0  0  0  0  0  0  0  0
   10.0282  -15.2257   27.5552 C   0  0  2  0  0  0  0  0  0  0  0  0
    9.3559  -14.1352   26.9387 N   0  0  0  0  0  0  0  0  0  0  0  0
   10.3371  -14.8622   28.9754 C   0  0  0  0  0  0  0  0  0  0  0  0
   10.2335  -13.5470   29.3814 O   0  0  0  0  0  0  0  0  0  0  0  0
   10.6857  -15.7233   29.7975 O   0  0  0  0  0  0  0  0  0  0  0  0
  2  1  1  0
  3  4  1  0
  3  2  1  0
  4  5  1  0
  5  7  1  0
  5  6  1  6
  7 11  1  0
  7  8  2  0
 10  9  1  1
 10 12  1  0
 11 10  1  0
 12 19  1  0
 12 13  2  0
 14 15  1  0
 16 18  1  0
 16 15  1  0
 16 17  1  1
 18 20  1  0
 18 19  1  6
 20 21  1  0
 22 20  2  0
M  END
$$$$
