MAI.pdb
     RDKit          3D

 22 21  0  0  1  0  0  0  0  0999 V2000
    8.3786  -11.6344   19.6867 C   0  0  0  0  0  0  0  0  0  0  0  0
    8.4542  -12.3863   18.0566 S   0  0  0  0  0  0  0  0  0  0  0  0
    8.5311  -14.1950   18.1532 C   0  0  0  0  0  0  0  0  0  0  0  0
    8.0107  -14.6365   19.5211 C   0  0  0  0  0  0  0  0  0  0  0  0
    8.1415  -16.1429   19.6058 C   0  0  2  0  0  0  0  0  0  0  0  0
    7.2011  -16.7413   18.7096 N   0  0  0  0  0  0  0  0  0  0  0  0
    7.9392  -16.5415   21.0167 C   0  0  0  0  0  0  0  0  0  0  0  0
    6.7652  -16.5574   21.4692 O   0  0  0  0  0  0  0  0  0  0  0  0
    9.4934  -18.5330   23.5728 C   0  0  0  0  0  0  0  0  0  0  0  0
    8.7550  -17.2531   23.2882 C   0  0  2  0  0  0  0  0  0  0  0  0
    8.9817  -16.9088   21.8987 N   0  0  0  0  0  0  0  0  0  0  0  0
    9.2157  -16.1927   24.2187 C   0  0  0  0  0  0  0  0  0  0  0  0
   10.3072  -15.6443   23.9268 O   0  0  0  0  0  0  0  0  0  0  0  0
    5.8264  -12.4158   26.3282 C   0  0  0  0  0  0  0  0  0  0  0  0
    6.9613  -13.2193   25.7967 C   0  0  0  0  0  0  0  0  0  0  0  0
    7.8284  -13.8852   26.8225 C   0  0  2  0  0  0  0  0  0  0  0  0
    8.4089  -12.7704   27.6847 C   0  0  0  0  0  0  0  0  0  0  0  0
    8.8875  -14.7836   26.3011 C   0  0  2  0  0  0  0  0  0  0  0  0
    8.4918  -15.7935   25.3820 N   0  0  0  0  0  0  0  0  0  0  0  0
    9.6840  -15.4164   27.4009 C   0  0  0  0  0  0  0  0  0  0  0  0
   10.7845  -14.7587   27.9124 O   0  0  0  0  0  0  0  0  0  0  0  0
    9.3730  -16.5248   27.8632 O   0  0  0  0  0  0  0  0  0  0  0  0
  2  1  1  0
  3  4  1  0
  3  2  1  0
  4  5  1  0
  5  7  1  0
  5  6  1  6
  7 11  1  0
  7  8  2  0
 10  9  1  1
 10 12  1  0
 11 10  1  0
 12 19  1  0
 12 13  2  0
 14 15  1  0
 16 18  1  0
 16 15  1  0
 16 17  1  6
 18 20  1  0
 18 19  1  1
 20 21  1  0
 22 20  2  0
M  END
$$$$
