MAI.pdb
     RDKit          3D

 22 21  0  0  1  0  0  0  0  0999 V2000
    8.1079  -12.3797   19.7088 C   0  0  0  0  0  0  0  0  0  0  0  0
    8.0486  -13.4307   18.2527 S   0  0  0  0  0  0  0  0  0  0  0  0
    7.6939  -15.1559   18.6826 C   0  0  0  0  0  0  0  0  0  0  0  0
    7.2109  -15.2116   20.1319 C   0  0  0  0  0  0  0  0  0  0  0  0
    6.9395  -16.6609   20.4776 C   0  0  2  0  0  0  0  0  0  0  0  0
    5.8511  -17.1324   19.6783 N   0  0  0  0  0  0  0  0  0  0  0  0
    6.6752  -16.7432   21.9314 C   0  0  0  0  0  0  0  0  0  0  0  0
    5.8519  -15.9355   22.4344 O   0  0  0  0  0  0  0  0  0  0  0  0
    7.4242  -19.0039   24.7804 C   0  0  0  0  0  0  0  0  0  0  0  0
    7.1309  -17.6298   24.2418 C   0  0  2  0  0  0  0  0  0  0  0  0
    7.2884  -17.6739   22.8017 N   0  0  0  0  0  0  0  0  0  0  0  0
    8.0320  -16.6393   24.8818 C   0  0  0  0  0  0  0  0  0  0  0  0
    9.1561  -16.4921   24.3412 O   0  0  0  0  0  0  0  0  0  0  0  0
    6.0179  -11.8642   26.6864 C   0  0  0  0  0  0  0  0  0  0  0  0
    6.8742  -12.9515   26.1381 C   0  0  0  0  0  0  0  0  0  0  0  0
    7.7532  -13.6544   27.1284 C   0  0  2  0  0  0  0  0  0  0  0  0
    8.7219  -12.6066   27.6642 C   0  0  0  0  0  0  0  0  0  0  0  0
    8.4655  -14.8579   26.6334 C   0  0  2  0  0  0  0  0  0  0  0  0
    7.6793  -15.8826   26.0391 N   0  0  0  0  0  0  0  0  0  0  0  0
    9.3411  -15.4689   27.6843 C   0  0  0  0  0  0  0  0  0  0  0  0
    8.9979  -16.6871   28.2352 O   0  0  0  0  0  0  0  0  0  0  0  0
   10.3731  -14.8995   28.0712 O   0  0  0  0  0  0  0  0  0  0  0  0
  2  1  1  0
  3  4  1  0
  3  2  1  0
  4  5  1  0
  5  7  1  0
  5  6  1  6
  7 11  1  0
  7  8  2  0
 10  9  1  1
 10 12  1  0
 11 10  1  0
 12 19  1  0
 12 13  2  0
 14 15  1  0
 16 18  1  0
 16 15  1  0
 16 17  1  6
 18 20  1  0
 18 19  1  1
 20 21  1  0
 22 20  2  0
M  END
$$$$
