MAI.pdb
     RDKit          3D

 22 21  0  0  1  0  0  0  0  0999 V2000
    8.9560  -12.4507   19.3315 C   0  0  0  0  0  0  0  0  0  0  0  0
    8.2071  -13.3766   17.9861 S   0  0  0  0  0  0  0  0  0  0  0  0
    7.8783  -15.0968   18.4547 C   0  0  0  0  0  0  0  0  0  0  0  0
    7.2627  -15.1156   19.8538 C   0  0  0  0  0  0  0  0  0  0  0  0
    7.0017  -16.5595   20.2291 C   0  0  2  0  0  0  0  0  0  0  0  0
    5.8790  -17.0371   19.4827 N   0  0  0  0  0  0  0  0  0  0  0  0
    6.7990  -16.6225   21.6938 C   0  0  0  0  0  0  0  0  0  0  0  0
    5.8683  -15.9413   22.1967 O   0  0  0  0  0  0  0  0  0  0  0  0
    7.7354  -18.7807   24.5180 C   0  0  0  0  0  0  0  0  0  0  0  0
    7.3892  -17.4070   24.0106 C   0  0  2  0  0  0  0  0  0  0  0  0
    7.5847  -17.4012   22.5745 N   0  0  0  0  0  0  0  0  0  0  0  0
    8.2247  -16.3936   24.7017 C   0  0  0  0  0  0  0  0  0  0  0  0
    9.3259  -16.1292   24.1588 O   0  0  0  0  0  0  0  0  0  0  0  0
    5.8490  -12.6005   28.4482 C   0  0  0  0  0  0  0  0  0  0  0  0
    6.6080  -13.7793   27.9477 C   0  0  0  0  0  0  0  0  0  0  0  0
    7.6794  -13.4878   26.9403 C   0  0  2  0  0  0  0  0  0  0  0  0
    6.9878  -12.8215   25.7566 C   0  0  0  0  0  0  0  0  0  0  0  0
    8.5079  -14.6418   26.5131 C   0  0  2  0  0  0  0  0  0  0  0  0
    7.8356  -15.7392   25.9087 N   0  0  0  0  0  0  0  0  0  0  0  0
    9.3742  -15.1571   27.6214 C   0  0  0  0  0  0  0  0  0  0  0  0
   10.2650  -14.3059   28.2436 O   0  0  0  0  0  0  0  0  0  0  0  0
    9.3067  -16.3387   27.9930 O   0  0  0  0  0  0  0  0  0  0  0  0
  2  1  1  0
  3  4  1  0
  3  2  1  0
  4  5  1  0
  5  7  1  0
  5  6  1  6
  7 11  1  0
  7  8  2  0
 10  9  1  1
 10 12  1  0
 11 10  1  0
 12 19  1  0
 12 13  2  0
 14 15  1  0
 16 18  1  0
 16 15  1  0
 16 17  1  6
 18 20  1  0
 18 19  1  1
 20 21  1  0
 22 20  2  0
M  END
$$$$
