MAI.pdb
     RDKit          3D

 22 21  0  0  1  0  0  0  0  0999 V2000
    7.1129  -11.3393   25.3046 C   0  0  0  0  0  0  0  0  0  0  0  0
    6.3537  -12.4620   26.4842 S   0  0  0  0  0  0  0  0  0  0  0  0
    5.8068  -13.9991   25.6938 C   0  0  0  0  0  0  0  0  0  0  0  0
    6.6253  -14.2151   24.4209 C   0  0  0  0  0  0  0  0  0  0  0  0
    6.4572  -15.6596   23.9978 C   0  0  2  0  0  0  0  0  0  0  0  0
    5.4650  -16.2728   24.8255 N   0  0  0  0  0  0  0  0  0  0  0  0
    7.7793  -16.3190   24.0846 C   0  0  0  0  0  0  0  0  0  0  0  0
    8.0615  -16.9532   25.1340 O   0  0  0  0  0  0  0  0  0  0  0  0
   10.7778  -16.7462   21.8785 C   0  0  0  0  0  0  0  0  0  0  0  0
   10.0302  -16.9675   23.1655 C   0  0  2  0  0  0  0  0  0  0  0  0
    8.7553  -16.2859   23.0619 N   0  0  0  0  0  0  0  0  0  0  0  0
   10.8441  -16.4796   24.3067 C   0  0  0  0  0  0  0  0  0  0  0  0
   11.6746  -15.5759   24.0402 O   0  0  0  0  0  0  0  0  0  0  0  0
    8.6347  -14.2566   28.4149 C   0  0  0  0  0  0  0  0  0  0  0  0
    9.5738  -14.7753   27.3828 C   0  0  0  0  0  0  0  0  0  0  0  0
   10.5155  -15.8500   27.8362 C   0  0  2  0  0  0  0  0  0  0  0  0
   11.3469  -15.2471   28.9625 C   0  0  0  0  0  0  0  0  0  0  0  0
   11.3711  -16.4565   26.7869 C   0  0  2  0  0  0  0  0  0  0  0  0
   10.7198  -16.9809   25.6370 N   0  0  0  0  0  0  0  0  0  0  0  0
   12.2896  -17.5023   27.3409 C   0  0  0  0  0  0  0  0  0  0  0  0
   13.6013  -17.1785   27.6235 O   0  0  0  0  0  0  0  0  0  0  0  0
   11.8933  -18.6588   27.5517 O   0  0  0  0  0  0  0  0  0  0  0  0
  2  1  1  0
  3  4  1  0
  3  2  1  0
  4  5  1  0
  5  7  1  0
  5  6  1  1
  7 11  1  0
  7  8  2  0
 10  9  1  6
 10 12  1  0
 11 10  1  0
 12 19  1  0
 12 13  2  0
 14 15  1  0
 16 18  1  0
 16 15  1  0
 16 17  1  1
 18 20  1  0
 18 19  1  6
 20 21  1  0
 22 20  2  0
M  END
$$$$
