MAI.pdb
     RDKit          3D

 22 21  0  0  1  0  0  0  0  0999 V2000
    8.6960  -11.5452   19.5304 C   0  0  0  0  0  0  0  0  0  0  0  0
    8.3482  -12.2809   17.9285 S   0  0  0  0  0  0  0  0  0  0  0  0
    8.3232  -14.0918   18.0112 C   0  0  0  0  0  0  0  0  0  0  0  0
    7.9002  -14.5134   19.4184 C   0  0  0  0  0  0  0  0  0  0  0  0
    7.9170  -16.0267   19.4767 C   0  0  2  0  0  0  0  0  0  0  0  0
    6.8083  -16.5320   18.7278 N   0  0  0  0  0  0  0  0  0  0  0  0
    7.8931  -16.4305   20.9003 C   0  0  0  0  0  0  0  0  0  0  0  0
    6.8219  -16.2835   21.5438 O   0  0  0  0  0  0  0  0  0  0  0  0
   10.0049  -18.3767   23.2440 C   0  0  0  0  0  0  0  0  0  0  0  0
    8.9535  -17.3287   22.9980 C   0  0  2  0  0  0  0  0  0  0  0  0
    8.9992  -16.9743   21.5934 N   0  0  0  0  0  0  0  0  0  0  0  0
    9.1918  -16.1635   23.8858 C   0  0  0  0  0  0  0  0  0  0  0  0
   10.1559  -15.4229   23.5705 O   0  0  0  0  0  0  0  0  0  0  0  0
    6.7268  -11.5207   26.8799 C   0  0  0  0  0  0  0  0  0  0  0  0
    7.7253  -12.6232   26.9410 C   0  0  0  0  0  0  0  0  0  0  0  0
    7.5142  -13.7512   25.9763 C   0  0  2  0  0  0  0  0  0  0  0  0
    6.1656  -14.3697   26.3255 C   0  0  0  0  0  0  0  0  0  0  0  0
    8.5880  -14.7731   25.9186 C   0  0  2  0  0  0  0  0  0  0  0  0
    8.3974  -15.8701   25.0345 N   0  0  0  0  0  0  0  0  0  0  0  0
    8.9390  -15.3018   27.2757 C   0  0  0  0  0  0  0  0  0  0  0  0
    9.7381  -14.5518   28.1148 O   0  0  0  0  0  0  0  0  0  0  0  0
    8.5239  -16.4051   27.6623 O   0  0  0  0  0  0  0  0  0  0  0  0
  2  1  1  0
  3  4  1  0
  3  2  1  0
  4  5  1  0
  5  7  1  0
  5  6  1  6
  7 11  1  0
  7  8  2  0
 10  9  1  6
 10 12  1  0
 11 10  1  0
 12 19  1  0
 12 13  2  0
 14 15  1  0
 16 18  1  0
 16 15  1  0
 16 17  1  1
 18 20  1  0
 18 19  1  6
 20 21  1  0
 22 20  2  0
M  END
$$$$
