MAI.pdb
     RDKit          3D

 22 21  0  0  1  0  0  0  0  0999 V2000
    8.0418  -11.5730   20.5141 C   0  0  0  0  0  0  0  0  0  0  0  0
    8.1968  -12.2815   18.8703 S   0  0  0  0  0  0  0  0  0  0  0  0
    8.6904  -14.0248   18.9331 C   0  0  0  0  0  0  0  0  0  0  0  0
    7.7103  -14.7808   19.8301 C   0  0  0  0  0  0  0  0  0  0  0  0
    8.1965  -16.2100   19.9515 C   0  0  2  0  0  0  0  0  0  0  0  0
    7.4032  -17.0436   19.1022 N   0  0  0  0  0  0  0  0  0  0  0  0
    8.1289  -16.5970   21.3784 C   0  0  0  0  0  0  0  0  0  0  0  0
    6.9949  -16.7226   21.9090 O   0  0  0  0  0  0  0  0  0  0  0  0
   10.0247  -18.4194   23.8104 C   0  0  0  0  0  0  0  0  0  0  0  0
    9.1592  -17.2081   23.5912 C   0  0  2  0  0  0  0  0  0  0  0  0
    9.2590  -16.8375   22.1936 N   0  0  0  0  0  0  0  0  0  0  0  0
    9.5880  -16.1163   24.5004 C   0  0  0  0  0  0  0  0  0  0  0  0
   10.6570  -15.5341   24.1911 O   0  0  0  0  0  0  0  0  0  0  0  0
    6.3220  -12.1767   26.3256 C   0  0  0  0  0  0  0  0  0  0  0  0
    7.4418  -13.0593   25.8977 C   0  0  0  0  0  0  0  0  0  0  0  0
    8.1947  -13.7419   26.9999 C   0  0  2  0  0  0  0  0  0  0  0  0
    8.7682  -12.6363   27.8786 C   0  0  0  0  0  0  0  0  0  0  0  0
    9.2405  -14.7062   26.5791 C   0  0  2  0  0  0  0  0  0  0  0  0
    8.8585  -15.7237   25.6624 N   0  0  0  0  0  0  0  0  0  0  0  0
    9.9263  -15.3428   27.7490 C   0  0  0  0  0  0  0  0  0  0  0  0
   10.8915  -14.6388   28.4405 O   0  0  0  0  0  0  0  0  0  0  0  0
    9.6429  -16.4952   28.1106 O   0  0  0  0  0  0  0  0  0  0  0  0
  2  1  1  0
  3  4  1  0
  3  2  1  0
  4  5  1  0
  5  7  1  0
  5  6  1  6
  7 11  1  0
  7  8  2  0
 10  9  1  6
 10 12  1  0
 11 10  1  0
 12 19  1  0
 12 13  2  0
 14 15  1  0
 16 18  1  0
 16 15  1  0
 16 17  1  6
 18 20  1  0
 18 19  1  6
 20 21  1  0
 22 20  2  0
M  END
$$$$
