MAI.pdb
     RDKit          3D

 22 21  0  0  1  0  0  0  0  0999 V2000
    7.5187  -11.8193   18.8112 C   0  0  0  0  0  0  0  0  0  0  0  0
    7.5457  -13.2916   17.7817 S   0  0  0  0  0  0  0  0  0  0  0  0
    8.3222  -14.6922   18.6314 C   0  0  0  0  0  0  0  0  0  0  0  0
    7.6674  -14.8592   20.0026 C   0  0  0  0  0  0  0  0  0  0  0  0
    8.3353  -16.0263   20.6994 C   0  0  2  0  0  0  0  0  0  0  0  0
    8.1351  -17.2083   19.9195 N   0  0  0  0  0  0  0  0  0  0  0  0
    7.7747  -16.1258   22.0655 C   0  0  0  0  0  0  0  0  0  0  0  0
    7.6032  -15.0639   22.7183 O   0  0  0  0  0  0  0  0  0  0  0  0
    6.7804  -18.8702   24.4137 C   0  0  0  0  0  0  0  0  0  0  0  0
    6.9925  -17.4190   24.0773 C   0  0  2  0  0  0  0  0  0  0  0  0
    7.4154  -17.3409   22.6932 N   0  0  0  0  0  0  0  0  0  0  0  0
    7.9862  -16.8299   25.0090 C   0  0  0  0  0  0  0  0  0  0  0  0
    9.1874  -17.1189   24.7830 O   0  0  0  0  0  0  0  0  0  0  0  0
    6.6075  -11.7857   26.6785 C   0  0  0  0  0  0  0  0  0  0  0  0
    7.3583  -12.9761   26.1934 C   0  0  0  0  0  0  0  0  0  0  0  0
    8.0086  -13.8154   27.2519 C   0  0  2  0  0  0  0  0  0  0  0  0
    9.1032  -12.9548   27.8717 C   0  0  0  0  0  0  0  0  0  0  0  0
    8.5290  -15.1339   26.8142 C   0  0  2  0  0  0  0  0  0  0  0  0
    7.6376  -15.9838   26.1041 N   0  0  0  0  0  0  0  0  0  0  0  0
    9.1348  -15.9066   27.9457 C   0  0  0  0  0  0  0  0  0  0  0  0
    8.4674  -16.9997   28.4604 O   0  0  0  0  0  0  0  0  0  0  0  0
   10.2291  -15.5823   28.4317 O   0  0  0  0  0  0  0  0  0  0  0  0
  2  1  1  0
  3  4  1  0
  3  2  1  0
  4  5  1  0
  5  7  1  0
  5  6  1  6
  7 11  1  0
  7  8  2  0
 10  9  1  1
 10 12  1  0
 11 10  1  0
 12 19  1  0
 12 13  2  0
 14 15  1  0
 16 18  1  0
 16 15  1  0
 16 17  1  6
 18 20  1  0
 18 19  1  1
 20 21  1  0
 22 20  2  0
M  END
$$$$
