MAI.pdb
     RDKit          3D

 22 21  0  0  1  0  0  0  0  0999 V2000
    7.9220  -11.7958   19.5167 C   0  0  0  0  0  0  0  0  0  0  0  0
    8.3335  -12.6214   17.9749 S   0  0  0  0  0  0  0  0  0  0  0  0
    8.4428  -14.4191   18.1830 C   0  0  0  0  0  0  0  0  0  0  0  0
    7.9185  -14.7856   19.5713 C   0  0  0  0  0  0  0  0  0  0  0  0
    8.0153  -16.2892   19.7244 C   0  0  2  0  0  0  0  0  0  0  0  0
    7.0090  -16.9036   18.9148 N   0  0  0  0  0  0  0  0  0  0  0  0
    7.8856  -16.6124   21.1629 C   0  0  0  0  0  0  0  0  0  0  0  0
    6.7359  -16.6055   21.6742 O   0  0  0  0  0  0  0  0  0  0  0  0
    9.6498  -18.3972   23.7685 C   0  0  0  0  0  0  0  0  0  0  0  0
    8.8188  -17.1901   23.4272 C   0  0  2  0  0  0  0  0  0  0  0  0
    8.9725  -16.9310   22.0094 N   0  0  0  0  0  0  0  0  0  0  0  0
    9.2412  -16.0395   24.2640 C   0  0  0  0  0  0  0  0  0  0  0  0
   10.3057  -15.4710   23.9162 O   0  0  0  0  0  0  0  0  0  0  0  0
    5.6856  -12.3498   27.0613 C   0  0  0  0  0  0  0  0  0  0  0  0
    6.5787  -13.5337   26.9310 C   0  0  0  0  0  0  0  0  0  0  0  0
    7.8499  -13.3133   26.1674 C   0  0  2  0  0  0  0  0  0  0  0  0
    7.4403  -12.9388   24.7479 C   0  0  0  0  0  0  0  0  0  0  0  0
    8.8239  -14.4321   26.1802 C   0  0  2  0  0  0  0  0  0  0  0  0
    8.5106  -15.5785   25.3998 N   0  0  0  0  0  0  0  0  0  0  0  0
    9.1610  -14.8725   27.5719 C   0  0  0  0  0  0  0  0  0  0  0  0
    9.7669  -13.9871   28.4403 O   0  0  0  0  0  0  0  0  0  0  0  0
    8.9052  -16.0223   27.9614 O   0  0  0  0  0  0  0  0  0  0  0  0
  2  1  1  0
  3  4  1  0
  3  2  1  0
  4  5  1  0
  5  7  1  0
  5  6  1  6
  7 11  1  0
  7  8  2  0
 10  9  1  1
 10 12  1  0
 11 10  1  0
 12 19  1  0
 12 13  2  0
 14 15  1  0
 16 18  1  0
 16 15  1  0
 16 17  1  6
 18 20  1  0
 18 19  1  6
 20 21  1  0
 22 20  2  0
M  END
$$$$
