MAI.pdb
     RDKit          3D

 22 21  0  0  1  0  0  0  0  0999 V2000
    8.9916  -12.1048   19.5035 C   0  0  0  0  0  0  0  0  0  0  0  0
    7.9658  -13.3477   18.7090 S   0  0  0  0  0  0  0  0  0  0  0  0
    6.6096  -13.8879   19.7840 C   0  0  0  0  0  0  0  0  0  0  0  0
    6.1809  -15.2941   19.3649 C   0  0  0  0  0  0  0  0  0  0  0  0
    7.3672  -16.2175   19.5486 C   0  0  2  0  0  0  0  0  0  0  0  0
    7.1012  -17.4531   18.8793 N   0  0  0  0  0  0  0  0  0  0  0  0
    7.6018  -16.3784   21.0010 C   0  0  0  0  0  0  0  0  0  0  0  0
    6.6079  -16.3499   21.7721 O   0  0  0  0  0  0  0  0  0  0  0  0
   10.2633  -17.8596   23.0349 C   0  0  0  0  0  0  0  0  0  0  0  0
    9.0575  -16.9619   22.9687 C   0  0  2  0  0  0  0  0  0  0  0  0
    8.8752  -16.5635   21.5871 N   0  0  0  0  0  0  0  0  0  0  0  0
    9.2478  -15.8015   23.8742 C   0  0  0  0  0  0  0  0  0  0  0  0
   10.0448  -14.9180   23.4720 O   0  0  0  0  0  0  0  0  0  0  0  0
    6.5825  -11.3641   26.7466 C   0  0  0  0  0  0  0  0  0  0  0  0
    7.6655  -12.3789   26.8622 C   0  0  0  0  0  0  0  0  0  0  0  0
    7.5312  -13.5826   25.9786 C   0  0  2  0  0  0  0  0  0  0  0  0
    6.2224  -14.2594   26.3688 C   0  0  0  0  0  0  0  0  0  0  0  0
    8.6676  -14.5360   25.9935 C   0  0  2  0  0  0  0  0  0  0  0  0
    8.5850  -15.6627   25.1303 N   0  0  0  0  0  0  0  0  0  0  0  0
    8.9895  -15.0104   27.3776 C   0  0  0  0  0  0  0  0  0  0  0  0
    8.9813  -16.3625   27.6550 O   0  0  0  0  0  0  0  0  0  0  0  0
    9.2646  -14.2088   28.2836 O   0  0  0  0  0  0  0  0  0  0  0  0
  2  1  1  0
  3  4  1  0
  3  2  1  0
  4  5  1  0
  5  7  1  0
  5  6  1  1
  7 11  1  0
  7  8  2  0
 10  9  1  6
 10 12  1  0
 11 10  1  0
 12 19  1  0
 12 13  2  0
 14 15  1  0
 16 18  1  0
 16 15  1  0
 16 17  1  1
 18 20  1  0
 18 19  1  6
 20 21  1  0
 22 20  2  0
M  END
$$$$
