MAI.pdb
     RDKit          3D

 22 21  0  0  1  0  0  0  0  0999 V2000
    8.3827  -12.0239   19.1941 C   0  0  0  0  0  0  0  0  0  0  0  0
    8.2105  -13.1338   17.7917 S   0  0  0  0  0  0  0  0  0  0  0  0
    8.0698  -14.8634   18.3162 C   0  0  0  0  0  0  0  0  0  0  0  0
    7.6949  -14.8985   19.7978 C   0  0  0  0  0  0  0  0  0  0  0  0
    7.6986  -16.3452   20.2457 C   0  0  2  0  0  0  0  0  0  0  0  0
    6.8114  -17.0922   19.4088 N   0  0  0  0  0  0  0  0  0  0  0  0
    7.3222  -16.3826   21.6766 C   0  0  0  0  0  0  0  0  0  0  0  0
    6.9130  -15.3207   22.2133 O   0  0  0  0  0  0  0  0  0  0  0  0
    7.0941  -18.9606   24.3839 C   0  0  0  0  0  0  0  0  0  0  0  0
    7.0126  -17.5422   23.8882 C   0  0  2  0  0  0  0  0  0  0  0  0
    7.3910  -17.5379   22.4890 N   0  0  0  0  0  0  0  0  0  0  0  0
    7.8857  -16.6726   24.7154 C   0  0  0  0  0  0  0  0  0  0  0  0
    9.1105  -16.7053   24.4396 O   0  0  0  0  0  0  0  0  0  0  0  0
    5.7404  -11.9075   26.6681 C   0  0  0  0  0  0  0  0  0  0  0  0
    6.6419  -12.9346   26.0778 C   0  0  0  0  0  0  0  0  0  0  0  0
    7.4690  -13.7173   27.0530 C   0  0  2  0  0  0  0  0  0  0  0  0
    8.4387  -12.7271   27.6873 C   0  0  0  0  0  0  0  0  0  0  0  0
    8.1739  -14.9041   26.5095 C   0  0  2  0  0  0  0  0  0  0  0  0
    7.4011  -15.8381   25.7667 N   0  0  0  0  0  0  0  0  0  0  0  0
    8.9376  -15.6414   27.5666 C   0  0  0  0  0  0  0  0  0  0  0  0
   10.2180  -15.2394   27.8894 O   0  0  0  0  0  0  0  0  0  0  0  0
    8.4401  -16.6103   28.1604 O   0  0  0  0  0  0  0  0  0  0  0  0
  2  1  1  0
  3  4  1  0
  3  2  1  0
  4  5  1  0
  5  7  1  0
  5  6  1  6
  7 11  1  0
  7  8  2  0
 10  9  1  1
 10 12  1  0
 11 10  1  0
 12 19  1  0
 12 13  2  0
 14 15  1  0
 16 18  1  0
 16 15  1  0
 16 17  1  6
 18 20  1  0
 18 19  1  1
 20 21  1  0
 22 20  2  0
M  END
$$$$
