MAI.pdb
     RDKit          3D

 22 21  0  0  1  0  0  0  0  0999 V2000
    8.5483  -11.2083   27.7838 C   0  0  0  0  0  0  0  0  0  0  0  0
    6.7872  -11.5016   27.5818 S   0  0  0  0  0  0  0  0  0  0  0  0
    6.4263  -13.2542   27.2907 C   0  0  0  0  0  0  0  0  0  0  0  0
    6.6182  -13.5549   25.8043 C   0  0  0  0  0  0  0  0  0  0  0  0
    6.3601  -15.0318   25.5901 C   0  0  2  0  0  0  0  0  0  0  0  0
    6.4024  -15.6983   26.8549 N   0  0  0  0  0  0  0  0  0  0  0  0
    7.3655  -15.5378   24.6292 C   0  0  0  0  0  0  0  0  0  0  0  0
    7.9633  -14.7061   23.8984 O   0  0  0  0  0  0  0  0  0  0  0  0
    8.6792  -18.8775   23.5525 C   0  0  0  0  0  0  0  0  0  0  0  0
    8.6150  -17.3775   23.4519 C   0  0  2  0  0  0  0  0  0  0  0  0
    7.7039  -16.9020   24.4738 N   0  0  0  0  0  0  0  0  0  0  0  0
    8.1899  -16.9859   22.0849 C   0  0  0  0  0  0  0  0  0  0  0  0
    7.0008  -17.2548   21.7832 O   0  0  0  0  0  0  0  0  0  0  0  0
    7.8472  -12.1850   20.2901 C   0  0  0  0  0  0  0  0  0  0  0  0
    7.7922  -13.6592   20.4895 C   0  0  0  0  0  0  0  0  0  0  0  0
    8.6385  -14.4771   19.5609 C   0  0  2  0  0  0  0  0  0  0  0  0
    8.1400  -14.1816   18.1511 C   0  0  0  0  0  0  0  0  0  0  0  0
    8.6867  -15.9349   19.8314 C   0  0  2  0  0  0  0  0  0  0  0  0
    9.0491  -16.3429   21.1443 N   0  0  0  0  0  0  0  0  0  0  0  0
    9.5452  -16.6651   18.8444 C   0  0  0  0  0  0  0  0  0  0  0  0
   10.8429  -16.9944   19.1805 O   0  0  0  0  0  0  0  0  0  0  0  0
    9.1113  -16.9812   17.7260 O   0  0  0  0  0  0  0  0  0  0  0  0
  2  1  1  0
  3  4  1  0
  3  2  1  0
  4  5  1  0
  5  7  1  0
  5  6  1  1
  7 11  1  0
  7  8  2  0
 10  9  1  6
 10 12  1  0
 11 10  1  0
 12 19  1  0
 12 13  2  0
 14 15  1  0
 16 18  1  0
 16 15  1  0
 16 17  1  6
 18 20  1  0
 18 19  1  1
 20 21  1  0
 22 20  2  0
M  END
$$$$
