VLG.pdb
     RDKit          3D

 20 19  0  0  1  0  0  0  0  0999 V2000
   20.7011  -10.5300  -20.3151 C   0  0  0  0  0  0  0  0  0  0  0  0
   19.7832  -11.7260  -20.1735 C   0  0  1  0  0  0  0  0  0  0  0  0
   19.3919  -12.2102  -21.5288 C   0  0  0  0  0  0  0  0  0  0  0  0
   20.5148  -12.7637  -19.3527 C   0  0  2  0  0  0  0  0  0  0  0  0
   19.6964  -13.9468  -19.1797 N   0  0  0  0  0  0  0  0  0  0  0  0
   20.9396  -12.2651  -18.0439 C   0  0  0  0  0  0  0  0  0  0  0  0
   20.0802  -12.1298  -17.1100 O   0  0  0  0  0  0  0  0  0  0  0  0
   22.8842  -13.8515  -14.5857 C   0  0  0  0  0  0  0  0  0  0  0  0
   23.8947  -13.5672  -15.7146 C   0  0  2  0  0  0  0  0  0  0  0  0
   25.1751  -14.2098  -15.2934 C   0  0  0  0  0  0  0  0  0  0  0  0
   23.9009  -12.1053  -15.9144 C   0  0  0  0  0  0  0  0  0  0  0  0
   22.6670  -11.4369  -16.3760 C   0  0  2  0  0  0  0  0  0  0  0  0
   22.2603  -11.9058  -17.7034 N   0  0  0  0  0  0  0  0  0  0  0  0
   22.7517   -9.9693  -16.3356 C   0  0  0  0  0  0  0  0  0  0  0  0
   23.4173   -9.3898  -17.2419 O   0  0  0  0  0  0  0  0  0  0  0  0
   22.1487   -9.1380  -15.3463 N   0  0  0  0  0  0  0  0  0  0  0  0
   22.1570   -7.7205  -15.3024 C   0  0  0  0  0  0  0  0  0  0  0  0
   21.4740   -7.0364  -14.2178 C   0  0  0  0  0  0  0  0  0  0  0  0
   20.7110   -7.4833  -13.3563 O   0  0  0  0  0  0  0  0  0  0  0  0
   21.7067   -5.6359  -14.1150 O   0  0  0  0  0  0  0  0  0  0  0  0
  2  1  1  6
  3  2  1  0
  4  2  1  0
  4  5  1  1
  6 13  1  0
  6  4  1  0
  7  6  2  0
  9  8  1  1
  9 10  1  0
  9 11  1  0
 12 11  1  6
 12 14  1  0
 12 13  1  0
 14 15  2  0
 16 14  1  0
 16 17  1  0
 18 20  1  0
 18 17  1  0
 19 18  2  0
M  END
$$$$
