VLG.pdb
     RDKit          3D

 20 19  0  0  1  0  0  0  0  0999 V2000
   17.7798  -23.3749  -14.5353 C   0  0  0  0  0  0  0  0  0  0  0  0
   18.9048  -22.3645  -14.4522 C   0  0  1  0  0  0  0  0  0  0  0  0
   18.4255  -21.0498  -14.9679 C   0  0  0  0  0  0  0  0  0  0  0  0
   19.3629  -22.3144  -13.0123 C   0  0  2  0  0  0  0  0  0  0  0  0
   18.2896  -21.8602  -12.1513 N   0  0  0  0  0  0  0  0  0  0  0  0
   20.5418  -21.4701  -12.8141 C   0  0  0  0  0  0  0  0  0  0  0  0
   20.3954  -20.2568  -12.4462 O   0  0  0  0  0  0  0  0  0  0  0  0
   26.4541  -21.8835  -11.4584 C   0  0  0  0  0  0  0  0  0  0  0  0
   25.3100  -20.8795  -11.7019 C   0  0  2  0  0  0  0  0  0  0  0  0
   25.1926  -20.0762  -10.4486 C   0  0  0  0  0  0  0  0  0  0  0  0
   24.1360  -21.6725  -12.1140 C   0  0  0  0  0  0  0  0  0  0  0  0
   23.0391  -21.0069  -12.8463 C   0  0  2  0  0  0  0  0  0  0  0  0
   21.8768  -21.8863  -12.9983 N   0  0  0  0  0  0  0  0  0  0  0  0
   23.4582  -20.4541  -14.1430 C   0  0  0  0  0  0  0  0  0  0  0  0
   23.5975  -21.2562  -15.1111 O   0  0  0  0  0  0  0  0  0  0  0  0
   23.7321  -19.0785  -14.4001 N   0  0  0  0  0  0  0  0  0  0  0  0
   24.1524  -18.5072  -15.6283 C   0  0  0  0  0  0  0  0  0  0  0  0
   25.4268  -18.9052  -16.2012 C   0  0  0  0  0  0  0  0  0  0  0  0
   26.2728  -19.6974  -15.7759 O   0  0  0  0  0  0  0  0  0  0  0  0
   25.7719  -18.3010  -17.4430 O   0  0  0  0  0  0  0  0  0  0  0  0
  2  1  1  1
  3  2  1  0
  4  2  1  0
  4  5  1  1
  6 13  1  0
  6  4  1  0
  7  6  2  0
  9  8  1  1
  9 10  1  0
  9 11  1  0
 12 11  1  6
 12 14  1  0
 12 13  1  0
 14 15  2  0
 16 14  1  0
 16 17  1  0
 18 20  1  0
 18 17  1  0
 19 18  2  0
M  END
$$$$
