VLG.pdb
     RDKit          3D

 20 19  0  0  1  0  0  0  0  0999 V2000
   16.6994  -11.1795  -20.6131 C   0  0  0  0  0  0  0  0  0  0  0  0
   17.2706  -10.5557  -19.3570 C   0  0  1  0  0  0  0  0  0  0  0  0
   16.1532  -10.0900  -18.4860 C   0  0  0  0  0  0  0  0  0  0  0  0
   18.1544  -11.5908  -18.6989 C   0  0  2  0  0  0  0  0  0  0  0  0
   17.3915  -12.7781  -18.3706 N   0  0  0  0  0  0  0  0  0  0  0  0
   18.8267  -11.0919  -17.4985 C   0  0  0  0  0  0  0  0  0  0  0  0
   18.3507  -11.3679  -16.3469 O   0  0  0  0  0  0  0  0  0  0  0  0
   24.1271  -10.9156  -15.0650 C   0  0  0  0  0  0  0  0  0  0  0  0
   22.8008  -10.1439  -14.9183 C   0  0  2  0  0  0  0  0  0  0  0  0
   22.2739  -10.4837  -13.5630 C   0  0  0  0  0  0  0  0  0  0  0  0
   21.9710  -10.5100  -16.0821 C   0  0  0  0  0  0  0  0  0  0  0  0
   20.6685   -9.8405  -16.2763 C   0  0  2  0  0  0  0  0  0  0  0  0
   19.9966  -10.3041  -17.4932 N   0  0  0  0  0  0  0  0  0  0  0  0
   20.7600   -8.3730  -16.2480 C   0  0  0  0  0  0  0  0  0  0  0  0
   21.3962   -7.8017  -17.1802 O   0  0  0  0  0  0  0  0  0  0  0  0
   20.1944   -7.5334  -15.2439 N   0  0  0  0  0  0  0  0  0  0  0  0
   20.2609   -6.1183  -15.1779 C   0  0  0  0  0  0  0  0  0  0  0  0
   21.4467   -5.4847  -14.6273 C   0  0  0  0  0  0  0  0  0  0  0  0
   21.6973   -4.2880  -14.4558 O   0  0  0  0  0  0  0  0  0  0  0  0
   22.4916   -6.3598  -14.2165 O   0  0  0  0  0  0  0  0  0  0  0  0
  2  1  1  6
  3  2  1  0
  4  2  1  0
  4  5  1  1
  6 13  1  0
  6  4  1  0
  7  6  2  0
  9  8  1  6
  9 10  1  0
  9 11  1  0
 12 11  1  6
 12 14  1  0
 12 13  1  0
 14 15  2  0
 16 14  1  0
 16 17  1  0
 18 20  1  0
 18 17  1  0
 19 18  2  0
M  END
$$$$
