VLG.pdb
     RDKit          3D

 20 19  0  0  1  0  0  0  0  0999 V2000
   26.1809  -18.8180  -17.0452 C   0  0  0  0  0  0  0  0  0  0  0  0
   27.1606  -19.8748  -17.5108 C   0  0  1  0  0  0  0  0  0  0  0  0
   28.0794  -19.2824  -18.5252 C   0  0  0  0  0  0  0  0  0  0  0  0
   27.8754  -20.4003  -16.2866 C   0  0  2  0  0  0  0  0  0  0  0  0
   28.8160  -21.4401  -16.6525 N   0  0  0  0  0  0  0  0  0  0  0  0
   26.9616  -20.9041  -15.2605 C   0  0  0  0  0  0  0  0  0  0  0  0
   26.3267  -21.9933  -15.4595 O   0  0  0  0  0  0  0  0  0  0  0  0
   25.7691  -19.9240   -9.3052 C   0  0  0  0  0  0  0  0  0  0  0  0
   25.2804  -20.7364  -10.5207 C   0  0  2  0  0  0  0  0  0  0  0  0
   25.3015  -22.1677  -10.0955 C   0  0  0  0  0  0  0  0  0  0  0  0
   26.1402  -20.3514  -11.6563 C   0  0  0  0  0  0  0  0  0  0  0  0
   25.7740  -20.7922  -13.0179 C   0  0  2  0  0  0  0  0  0  0  0  0
   26.7058  -20.2757  -14.0240 N   0  0  0  0  0  0  0  0  0  0  0  0
   24.3821  -20.4793  -13.3749 C   0  0  0  0  0  0  0  0  0  0  0  0
   24.0421  -19.2617  -13.4199 O   0  0  0  0  0  0  0  0  0  0  0  0
   23.3723  -21.4425  -13.6680 N   0  0  0  0  0  0  0  0  0  0  0  0
   21.9994  -21.1902  -13.9186 C   0  0  0  0  0  0  0  0  0  0  0  0
   21.0977  -20.9755  -12.7999 C   0  0  0  0  0  0  0  0  0  0  0  0
   21.3178  -21.0213  -11.5859 O   0  0  0  0  0  0  0  0  0  0  0  0
   19.7493  -20.6634  -13.1325 O   0  0  0  0  0  0  0  0  0  0  0  0
  2  1  1  1
  3  2  1  0
  4  2  1  0
  4  5  1  6
  6 13  1  0
  6  4  1  0
  7  6  2  0
  9  8  1  1
  9 10  1  0
  9 11  1  0
 12 11  1  1
 12 14  1  0
 12 13  1  0
 14 15  2  0
 16 14  1  0
 16 17  1  0
 18 20  1  0
 18 17  1  0
 19 18  2  0
M  END
$$$$
