VLG.pdb
     RDKit          3D

 20 19  0  0  1  0  0  0  0  0999 V2000
   20.0806  -17.3008  -17.9869 C   0  0  0  0  0  0  0  0  0  0  0  0
   20.2094  -18.2705  -16.8309 C   0  0  1  0  0  0  0  0  0  0  0  0
   19.6046  -19.5784  -17.2150 C   0  0  0  0  0  0  0  0  0  0  0  0
   21.6773  -18.3665  -16.4819 C   0  0  2  0  0  0  0  0  0  0  0  0
   21.8878  -19.3352  -15.4250 N   0  0  0  0  0  0  0  0  0  0  0  0
   22.2601  -17.0816  -16.0932 C   0  0  0  0  0  0  0  0  0  0  0  0
   22.0561  -16.6247  -14.9190 O   0  0  0  0  0  0  0  0  0  0  0  0
   25.9403  -15.3629  -14.4952 C   0  0  0  0  0  0  0  0  0  0  0  0
   25.8772  -15.8351  -15.9613 C   0  0  2  0  0  0  0  0  0  0  0  0
   27.2943  -15.9776  -16.4099 C   0  0  0  0  0  0  0  0  0  0  0  0
   25.0309  -14.8630  -16.6795 C   0  0  0  0  0  0  0  0  0  0  0  0
   23.5624  -14.9474  -16.5418 C   0  0  2  0  0  0  0  0  0  0  0  0
   23.0569  -16.2683  -16.9255 N   0  0  0  0  0  0  0  0  0  0  0  0
   22.8497  -13.8789  -17.2579 C   0  0  0  0  0  0  0  0  0  0  0  0
   22.6894  -14.0079  -18.5061 O   0  0  0  0  0  0  0  0  0  0  0  0
   22.3276  -12.6947  -16.6593 N   0  0  0  0  0  0  0  0  0  0  0  0
   21.6566  -11.6314  -17.3154 C   0  0  0  0  0  0  0  0  0  0  0  0
   22.3851  -10.8039  -18.2615 C   0  0  0  0  0  0  0  0  0  0  0  0
   21.9955   -9.8517  -18.9440 O   0  0  0  0  0  0  0  0  0  0  0  0
   23.7602  -11.1231  -18.4445 O   0  0  0  0  0  0  0  0  0  0  0  0
  2  1  1  6
  3  2  1  0
  4  2  1  0
  4  5  1  1
  6 13  1  0
  6  4  1  0
  7  6  2  0
  9  8  1  1
  9 10  1  0
  9 11  1  0
 12 11  1  6
 12 14  1  0
 12 13  1  0
 14 15  2  0
 16 14  1  0
 16 17  1  0
 18 20  1  0
 18 17  1  0
 19 18  2  0
M  END
$$$$
