VLG.pdb
     RDKit          3D

 20 19  0  0  1  0  0  0  0  0999 V2000
   17.3992   -9.7813  -19.2946 C   0  0  0  0  0  0  0  0  0  0  0  0
   18.6991  -10.5457  -19.4333 C   0  0  1  0  0  0  0  0  0  0  0  0
   18.7179  -11.2519  -20.7467 C   0  0  0  0  0  0  0  0  0  0  0  0
   19.8277   -9.5532  -19.2684 C   0  0  2  0  0  0  0  0  0  0  0  0
   21.0811  -10.1280  -19.7136 N   0  0  0  0  0  0  0  0  0  0  0  0
   19.9702   -9.0691  -17.8947 C   0  0  0  0  0  0  0  0  0  0  0  0
   18.9429   -8.6533  -17.2616 O   0  0  0  0  0  0  0  0  0  0  0  0
   21.3962  -11.3102  -14.3854 C   0  0  0  0  0  0  0  0  0  0  0  0
   22.5816  -10.7136  -15.1697 C   0  0  2  0  0  0  0  0  0  0  0  0
   23.8132  -11.3119  -14.5737 C   0  0  0  0  0  0  0  0  0  0  0  0
   22.4357   -9.2471  -15.1002 C   0  0  0  0  0  0  0  0  0  0  0  0
   21.2877   -8.6054  -15.7731 C   0  0  2  0  0  0  0  0  0  0  0  0
   21.1824   -9.0164  -17.1757 N   0  0  0  0  0  0  0  0  0  0  0  0
   21.2866   -7.1401  -15.6489 C   0  0  0  0  0  0  0  0  0  0  0  0
   22.1552   -6.4904  -16.2997 O   0  0  0  0  0  0  0  0  0  0  0  0
   20.3864   -6.3843  -14.8418 N   0  0  0  0  0  0  0  0  0  0  0  0
   20.3910   -4.9799  -14.6442 C   0  0  0  0  0  0  0  0  0  0  0  0
   21.4724   -4.3690  -13.8905 C   0  0  0  0  0  0  0  0  0  0  0  0
   22.4744   -4.8838  -13.3854 O   0  0  0  0  0  0  0  0  0  0  0  0
   21.3822   -2.9622  -13.6929 O   0  0  0  0  0  0  0  0  0  0  0  0
  2  1  1  6
  3  2  1  0
  4  2  1  0
  4  5  1  1
  6 13  1  0
  6  4  1  0
  7  6  2  0
  9  8  1  1
  9 10  1  0
  9 11  1  0
 12 11  1  6
 12 14  1  0
 12 13  1  0
 14 15  2  0
 16 14  1  0
 16 17  1  0
 18 20  1  0
 18 17  1  0
 19 18  2  0
M  END
$$$$
