VLG.pdb
     RDKit          3D

 20 19  0  0  1  0  0  0  0  0999 V2000
   24.3466  -17.1657  -15.6858 C   0  0  0  0  0  0  0  0  0  0  0  0
   25.6221  -17.7378  -16.2682 C   0  0  1  0  0  0  0  0  0  0  0  0
   26.3517  -16.6659  -17.0049 C   0  0  0  0  0  0  0  0  0  0  0  0
   26.4162  -18.3292  -15.1255 C   0  0  2  0  0  0  0  0  0  0  0  0
   27.7286  -18.7443  -15.5779 N   0  0  0  0  0  0  0  0  0  0  0  0
   25.7407  -19.4554  -14.4796 C   0  0  0  0  0  0  0  0  0  0  0  0
   25.6585  -20.5752  -15.0864 O   0  0  0  0  0  0  0  0  0  0  0  0
   26.6449  -22.0709  -10.9231 C   0  0  0  0  0  0  0  0  0  0  0  0
   26.1334  -20.6562  -10.5865 C   0  0  2  0  0  0  0  0  0  0  0  0
   26.3377  -20.4826   -9.1174 C   0  0  0  0  0  0  0  0  0  0  0  0
   24.7505  -20.5777  -11.0948 C   0  0  0  0  0  0  0  0  0  0  0  0
   24.5192  -20.5742  -12.5539 C   0  0  2  0  0  0  0  0  0  0  0  0
   25.1488  -19.4193  -13.1999 N   0  0  0  0  0  0  0  0  0  0  0  0
   23.0976  -20.6743  -12.9168 C   0  0  0  0  0  0  0  0  0  0  0  0
   22.3547  -19.6785  -12.6790 O   0  0  0  0  0  0  0  0  0  0  0  0
   22.4793  -21.8135  -13.5109 N   0  0  0  0  0  0  0  0  0  0  0  0
   21.1023  -21.9796  -13.8074 C   0  0  0  0  0  0  0  0  0  0  0  0
   20.5275  -21.2786  -14.9427 C   0  0  0  0  0  0  0  0  0  0  0  0
   20.9529  -21.1559  -16.0952 O   0  0  0  0  0  0  0  0  0  0  0  0
   19.2832  -20.6266  -14.7123 O   0  0  0  0  0  0  0  0  0  0  0  0
  2  1  1  1
  3  2  1  0
  4  2  1  0
  4  5  1  6
  6 13  1  0
  6  4  1  0
  7  6  2  0
  9  8  1  1
  9 10  1  0
  9 11  1  0
 12 11  1  1
 12 14  1  0
 12 13  1  0
 14 15  2  0
 16 14  1  0
 16 17  1  0
 18 20  1  0
 18 17  1  0
 19 18  2  0
M  END
$$$$
