VLG.pdb
     RDKit          3D

 20 19  0  0  1  0  0  0  0  0999 V2000
   20.0912   -7.2314  -19.1635 C   0  0  0  0  0  0  0  0  0  0  0  0
   19.3253   -8.5378  -19.1696 C   0  0  1  0  0  0  0  0  0  0  0  0
   18.5188   -8.6304  -20.4207 C   0  0  0  0  0  0  0  0  0  0  0  0
   20.3335   -9.6545  -19.0204 C   0  0  2  0  0  0  0  0  0  0  0  0
   19.6708  -10.9431  -19.0201 N   0  0  0  0  0  0  0  0  0  0  0  0
   21.1581   -9.5264  -17.8182 C   0  0  0  0  0  0  0  0  0  0  0  0
   20.7133   -9.9487  -16.6989 O   0  0  0  0  0  0  0  0  0  0  0  0
   26.8220  -10.0115  -16.0151 C   0  0  0  0  0  0  0  0  0  0  0  0
   25.4936   -9.3984  -15.5295 C   0  0  2  0  0  0  0  0  0  0  0  0
   25.1072  -10.1662  -14.3084 C   0  0  0  0  0  0  0  0  0  0  0  0
   24.5685   -9.4369  -16.6783 C   0  0  0  0  0  0  0  0  0  0  0  0
   23.2392   -8.8046  -16.5533 C   0  0  2  0  0  0  0  0  0  0  0  0
   22.4484   -8.9583  -17.7774 N   0  0  0  0  0  0  0  0  0  0  0  0
   23.3033   -7.3955  -16.1375 C   0  0  0  0  0  0  0  0  0  0  0  0
   23.9136   -6.5832  -16.8912 O   0  0  0  0  0  0  0  0  0  0  0  0
   22.7381   -6.8651  -14.9406 N   0  0  0  0  0  0  0  0  0  0  0  0
   22.7031   -5.5041  -14.5436 C   0  0  0  0  0  0  0  0  0  0  0  0
   21.8921   -4.5621  -15.2957 C   0  0  0  0  0  0  0  0  0  0  0  0
   20.7575   -4.1337  -15.0645 O   0  0  0  0  0  0  0  0  0  0  0  0
   22.4765   -4.0413  -16.4846 O   0  0  0  0  0  0  0  0  0  0  0  0
  2  1  1  6
  3  2  1  0
  4  2  1  0
  4  5  1  1
  6 13  1  0
  6  4  1  0
  7  6  2  0
  9  8  1  6
  9 10  1  0
  9 11  1  0
 12 11  1  6
 12 14  1  0
 12 13  1  0
 14 15  2  0
 16 14  1  0
 16 17  1  0
 18 20  1  0
 18 17  1  0
 19 18  2  0
M  END
$$$$
