VLG.pdb
     RDKit          3D

 20 19  0  0  1  0  0  0  0  0999 V2000
   25.2440  -19.3279  -16.1722 C   0  0  0  0  0  0  0  0  0  0  0  0
   26.0712  -20.5605  -16.4716 C   0  0  1  0  0  0  0  0  0  0  0  0
   27.0355  -20.2528  -17.5669 C   0  0  0  0  0  0  0  0  0  0  0  0
   26.7399  -20.9812  -15.1826 C   0  0  2  0  0  0  0  0  0  0  0  0
   27.6180  -22.1113  -15.4090 N   0  0  0  0  0  0  0  0  0  0  0  0
   25.7865  -21.3053  -14.1206 C   0  0  0  0  0  0  0  0  0  0  0  0
   25.1259  -22.3960  -14.1759 O   0  0  0  0  0  0  0  0  0  0  0  0
   26.0455  -21.9648   -9.5997 C   0  0  0  0  0  0  0  0  0  0  0  0
   26.1186  -20.4696   -9.9675 C   0  0  2  0  0  0  0  0  0  0  0  0
   26.3917  -19.7439   -8.6913 C   0  0  0  0  0  0  0  0  0  0  0  0
   24.8650  -20.1498  -10.6770 C   0  0  0  0  0  0  0  0  0  0  0  0
   24.5592  -20.8426  -11.9454 C   0  0  2  0  0  0  0  0  0  0  0  0
   25.5178  -20.4952  -12.9978 N   0  0  0  0  0  0  0  0  0  0  0  0
   23.1758  -20.6375  -12.4002 C   0  0  0  0  0  0  0  0  0  0  0  0
   22.9333  -19.6258  -13.1198 O   0  0  0  0  0  0  0  0  0  0  0  0
   22.0734  -21.4860  -12.0873 N   0  0  0  0  0  0  0  0  0  0  0  0
   20.9425  -21.7507  -12.9012 C   0  0  0  0  0  0  0  0  0  0  0  0
   20.4721  -20.7307  -13.8225 C   0  0  0  0  0  0  0  0  0  0  0  0
   21.0468  -20.2023  -14.7789 O   0  0  0  0  0  0  0  0  0  0  0  0
   19.1483  -20.2537  -13.6070 O   0  0  0  0  0  0  0  0  0  0  0  0
  2  1  1  1
  3  2  1  0
  4  2  1  0
  4  5  1  6
  6 13  1  0
  6  4  1  0
  7  6  2  0
  9  8  1  1
  9 10  1  0
  9 11  1  0
 12 11  1  1
 12 14  1  0
 12 13  1  0
 14 15  2  0
 16 14  1  0
 16 17  1  0
 18 20  1  0
 18 17  1  0
 19 18  2  0
M  END
$$$$
