VLG.pdb
     RDKit          3D

 20 19  0  0  1  0  0  0  0  0999 V2000
   16.1345  -12.4378    7.5350 C   0  0  0  0  0  0  0  0  0  0  0  0
   16.2440  -13.0167    6.1400 C   0  0  1  0  0  0  0  0  0  0  0  0
   14.9469  -12.8335    5.4272 C   0  0  0  0  0  0  0  0  0  0  0  0
   17.4070  -12.3341    5.4565 C   0  0  2  0  0  0  0  0  0  0  0  0
   17.5706  -12.8352    4.1067 N   0  0  0  0  0  0  0  0  0  0  0  0
   18.6664  -12.4756    6.1885 C   0  0  0  0  0  0  0  0  0  0  0  0
   19.3989  -13.5024    5.9931 O   0  0  0  0  0  0  0  0  0  0  0  0
   22.9471  -10.7223    7.1903 C   0  0  0  0  0  0  0  0  0  0  0  0
   21.8037   -9.7736    7.6014 C   0  0  2  0  0  0  0  0  0  0  0  0
   22.4602   -8.5584    8.1689 C   0  0  0  0  0  0  0  0  0  0  0  0
   20.9167  -10.5462    8.4921 C   0  0  0  0  0  0  0  0  0  0  0  0
   20.3176  -11.8027    7.9976 C   0  0  2  0  0  0  0  0  0  0  0  0
   19.1671  -11.5487    7.1263 N   0  0  0  0  0  0  0  0  0  0  0  0
   19.9698  -12.7430    9.0735 C   0  0  0  0  0  0  0  0  0  0  0  0
   18.8870  -12.5524    9.6990 O   0  0  0  0  0  0  0  0  0  0  0  0
   20.7627  -13.8562    9.4804 N   0  0  0  0  0  0  0  0  0  0  0  0
   20.4495  -14.8041   10.4877 C   0  0  0  0  0  0  0  0  0  0  0  0
   19.2514  -15.6153   10.3563 C   0  0  0  0  0  0  0  0  0  0  0  0
   18.3847  -15.6101    9.4771 O   0  0  0  0  0  0  0  0  0  0  0  0
   19.0231  -16.5681   11.3888 O   0  0  0  0  0  0  0  0  0  0  0  0
  2  1  1  1
  3  2  1  0
  4  2  1  0
  4  5  1  6
  6 13  1  0
  6  4  1  0
  7  6  2  0
  9  8  1  1
  9 10  1  0
  9 11  1  0
 12 11  1  1
 12 14  1  0
 12 13  1  0
 14 15  2  0
 16 14  1  0
 16 17  1  0
 18 20  1  0
 18 17  1  0
 19 18  2  0
M  END
$$$$
