VLG.pdb
     RDKit          3D

 20 19  0  0  1  0  0  0  0  0999 V2000
   19.1581   -9.8180  -19.0582 C   0  0  0  0  0  0  0  0  0  0  0  0
   18.4212  -11.0598  -18.6020 C   0  0  1  0  0  0  0  0  0  0  0  0
   17.5158  -11.5241  -19.6924 C   0  0  0  0  0  0  0  0  0  0  0  0
   19.4609  -12.0840  -18.2072 C   0  0  2  0  0  0  0  0  0  0  0  0
   18.8279  -13.3225  -17.8008 N   0  0  0  0  0  0  0  0  0  0  0  0
   20.3523  -11.6167  -17.1448 C   0  0  0  0  0  0  0  0  0  0  0  0
   19.9475  -11.6176  -15.9344 O   0  0  0  0  0  0  0  0  0  0  0  0
   26.1191  -11.5031  -15.4916 C   0  0  0  0  0  0  0  0  0  0  0  0
   24.7952  -10.7712  -15.1955 C   0  0  2  0  0  0  0  0  0  0  0  0
   24.4491  -11.1011  -13.7808 C   0  0  0  0  0  0  0  0  0  0  0  0
   23.8426  -11.1858  -16.2431 C   0  0  0  0  0  0  0  0  0  0  0  0
   22.4993  -10.5720  -16.2781 C   0  0  2  0  0  0  0  0  0  0  0  0
   21.6679  -11.1470  -17.3391 N   0  0  0  0  0  0  0  0  0  0  0  0
   22.5336   -9.1046  -16.3685 C   0  0  0  0  0  0  0  0  0  0  0  0
   22.9493   -8.5876  -17.4456 O   0  0  0  0  0  0  0  0  0  0  0  0
   22.1427   -8.2079  -15.3311 N   0  0  0  0  0  0  0  0  0  0  0  0
   22.1750   -6.7906  -15.3712 C   0  0  0  0  0  0  0  0  0  0  0  0
   21.7120   -6.0336  -14.2208 C   0  0  0  0  0  0  0  0  0  0  0  0
   20.7624   -6.2490  -13.4618 O   0  0  0  0  0  0  0  0  0  0  0  0
   22.4528   -4.8604  -13.9028 O   0  0  0  0  0  0  0  0  0  0  0  0
  2  1  1  6
  3  2  1  0
  4  2  1  0
  4  5  1  1
  6 13  1  0
  6  4  1  0
  7  6  2  0
  9  8  1  6
  9 10  1  0
  9 11  1  0
 12 11  1  6
 12 14  1  0
 12 13  1  0
 14 15  2  0
 16 14  1  0
 16 17  1  0
 18 20  1  0
 18 17  1  0
 19 18  2  0
M  END
$$$$
