VLG.pdb
     RDKit          3D

 20 19  0  0  1  0  0  0  0  0999 V2000
   20.4876  -10.0789  -20.3255 C   0  0  0  0  0  0  0  0  0  0  0  0
   19.7066  -11.2698  -19.8105 C   0  0  1  0  0  0  0  0  0  0  0  0
   19.0162  -11.9372  -20.9516 C   0  0  0  0  0  0  0  0  0  0  0  0
   20.6808  -12.1716  -19.0870 C   0  0  2  0  0  0  0  0  0  0  0  0
   20.0140  -13.3685  -18.6155 N   0  0  0  0  0  0  0  0  0  0  0  0
   21.3520  -11.5103  -17.9671 C   0  0  0  0  0  0  0  0  0  0  0  0
   20.7678  -11.4366  -16.8348 O   0  0  0  0  0  0  0  0  0  0  0  0
   25.6389   -8.7412  -15.7434 C   0  0  0  0  0  0  0  0  0  0  0  0
   25.4062  -10.2456  -15.5006 C   0  0  2  0  0  0  0  0  0  0  0  0
   26.7553  -10.8371  -15.2553 C   0  0  0  0  0  0  0  0  0  0  0  0
   24.6452  -10.7457  -16.6615 C   0  0  0  0  0  0  0  0  0  0  0  0
   23.2750  -10.2447  -16.8936 C   0  0  2  0  0  0  0  0  0  0  0  0
   22.6334  -10.9236  -18.0227 N   0  0  0  0  0  0  0  0  0  0  0  0
   23.2092   -8.7836  -17.0472 C   0  0  0  0  0  0  0  0  0  0  0  0
   23.8272   -8.2625  -18.0202 O   0  0  0  0  0  0  0  0  0  0  0  0
   22.5085   -7.8965  -16.1782 N   0  0  0  0  0  0  0  0  0  0  0  0
   22.4467   -6.4827  -16.2711 C   0  0  0  0  0  0  0  0  0  0  0  0
   21.7048   -5.7338  -15.2713 C   0  0  0  0  0  0  0  0  0  0  0  0
   20.5394   -5.3268  -15.2909 O   0  0  0  0  0  0  0  0  0  0  0  0
   22.4115   -5.4093  -14.0790 O   0  0  0  0  0  0  0  0  0  0  0  0
  2  1  1  6
  3  2  1  0
  4  2  1  0
  4  5  1  1
  6 13  1  0
  6  4  1  0
  7  6  2  0
  9  8  1  6
  9 10  1  0
  9 11  1  0
 12 11  1  6
 12 14  1  0
 12 13  1  0
 14 15  2  0
 16 14  1  0
 16 17  1  0
 18 20  1  0
 18 17  1  0
 19 18  2  0
M  END
$$$$
