VLG.pdb
     RDKit          3D

 20 19  0  0  1  0  0  0  0  0999 V2000
   18.3466   -8.0497  -20.2006 C   0  0  0  0  0  0  0  0  0  0  0  0
   18.8429   -7.4800  -18.8882 C   0  0  1  0  0  0  0  0  0  0  0  0
   17.8136   -6.5554  -18.3316 C   0  0  0  0  0  0  0  0  0  0  0  0
   19.1581   -8.6460  -17.9788 C   0  0  2  0  0  0  0  0  0  0  0  0
   17.9783   -9.4597  -17.7655 N   0  0  0  0  0  0  0  0  0  0  0  0
   19.7100   -8.2338  -16.6875 C   0  0  0  0  0  0  0  0  0  0  0  0
   18.9498   -8.1799  -15.6637 O   0  0  0  0  0  0  0  0  0  0  0  0
   21.7242  -10.1810  -13.4400 C   0  0  0  0  0  0  0  0  0  0  0  0
   22.5321   -9.9539  -14.7331 C   0  0  2  0  0  0  0  0  0  0  0  0
   23.7338  -10.8342  -14.6283 C   0  0  0  0  0  0  0  0  0  0  0  0
   22.7609   -8.4999  -14.8354 C   0  0  0  0  0  0  0  0  0  0  0  0
   21.6189   -7.6109  -15.1318 C   0  0  2  0  0  0  0  0  0  0  0  0
   21.0550   -7.8764  -16.4580 N   0  0  0  0  0  0  0  0  0  0  0  0
   21.9355   -6.1843  -14.9668 C   0  0  0  0  0  0  0  0  0  0  0  0
   22.5876   -5.6125  -15.8876 O   0  0  0  0  0  0  0  0  0  0  0  0
   21.5738   -5.3869  -13.8414 N   0  0  0  0  0  0  0  0  0  0  0  0
   21.8509   -4.0097  -13.6469 C   0  0  0  0  0  0  0  0  0  0  0  0
   20.9944   -3.0148  -14.2692 C   0  0  0  0  0  0  0  0  0  0  0  0
   20.0206   -3.1630  -15.0135 O   0  0  0  0  0  0  0  0  0  0  0  0
   21.3088   -1.6547  -13.9910 O   0  0  0  0  0  0  0  0  0  0  0  0
  2  1  1  6
  3  2  1  0
  4  2  1  0
  4  5  1  1
  6 13  1  0
  6  4  1  0
  7  6  2  0
  9  8  1  1
  9 10  1  0
  9 11  1  0
 12 11  1  6
 12 14  1  0
 12 13  1  0
 14 15  2  0
 16 14  1  0
 16 17  1  0
 18 20  1  0
 18 17  1  0
 19 18  2  0
M  END
$$$$
