SVK.pdb
     RDKit          3D

 23 22  0  0  1  0  0  0  0  0999 V2000
    6.0146  -17.8353   23.9973 O   0  0  0  0  0  0  0  0  0  0  0  0
    5.4292  -18.6100   23.0196 C   0  0  0  0  0  0  0  0  0  0  0  0
    5.1086  -17.8378   21.7706 C   0  0  2  0  0  0  0  0  0  0  0  0
    4.5175  -18.6752   20.7669 N   0  0  0  0  0  0  0  0  0  0  0  0
    6.3464  -17.1682   21.2989 C   0  0  0  0  0  0  0  0  0  0  0  0
    7.1606  -17.8792   20.6414 O   0  0  0  0  0  0  0  0  0  0  0  0
    6.5899  -13.3793   19.9607 C   0  0  0  0  0  0  0  0  0  0  0  0
    7.6647  -13.6990   20.9488 C   0  0  2  0  0  0  0  0  0  0  0  0
    8.9202  -12.9672   20.4742 C   0  0  0  0  0  0  0  0  0  0  0  0
    7.8833  -15.1645   21.0792 C   0  0  2  0  0  0  0  0  0  0  0  0
    6.6482  -15.8188   21.5415 N   0  0  0  0  0  0  0  0  0  0  0  0
    8.9062  -15.4475   22.1040 C   0  0  0  0  0  0  0  0  0  0  0  0
    8.6297  -15.2508   23.3424 O   0  0  0  0  0  0  0  0  0  0  0  0
   10.2046  -15.9363   21.8465 N   0  0  0  0  0  0  0  0  0  0  0  0
   11.1103  -16.2554   22.9822 C   0  0  1  0  0  0  0  0  0  0  0  0
   10.8529  -17.6917   23.3111 C   0  0  0  0  0  0  0  0  0  0  0  0
   10.9171  -17.9765   24.7663 C   0  0  0  0  0  0  0  0  0  0  0  0
   10.8039  -19.4535   25.0821 C   0  0  0  0  0  0  0  0  0  0  0  0
   10.9042  -19.7290   26.5555 C   0  0  0  0  0  0  0  0  0  0  0  0
   10.6998  -21.1566   26.8266 N   0  0  0  0  0  0  0  0  0  0  0  0
   12.5005  -15.9407   22.6121 C   0  0  0  0  0  0  0  0  0  0  0  0
   12.8147  -15.9324   21.3958 O   0  0  0  0  0  0  0  0  0  0  0  0
   13.5157  -15.6453   23.5055 O   0  0  0  0  0  0  0  0  0  0  0  0
  2  1  1  0
  3  4  1  6
  3  2  1  0
  5  6  2  0
  5  3  1  0
  8  7  1  6
  8 10  1  0
  9  8  1  0
 10 11  1  1
 10 12  1  0
 11  5  1  0
 12 14  1  0
 13 12  2  0
 14 15  1  0
 15 21  1  0
 15 16  1  6
 17 16  1  0
 18 17  1  0
 19 18  1  0
 20 19  1  0
 21 22  2  0
 21 23  1  0
M  END
$$$$
