SVK.pdb
     RDKit          3D

 23 22  0  0  1  0  0  0  0  0999 V2000
    7.6678  -18.9716   19.0592 O   0  0  0  0  0  0  0  0  0  0  0  0
    7.2564  -18.3681   17.8907 C   0  0  0  0  0  0  0  0  0  0  0  0
    8.1921  -17.2877   17.4255 C   0  0  2  0  0  0  0  0  0  0  0  0
    9.2450  -17.8150   16.6062 N   0  0  0  0  0  0  0  0  0  0  0  0
    8.7034  -16.5618   18.6149 C   0  0  0  0  0  0  0  0  0  0  0  0
    9.8384  -16.9135   19.0494 O   0  0  0  0  0  0  0  0  0  0  0  0
    7.6529  -12.5852   19.5200 C   0  0  0  0  0  0  0  0  0  0  0  0
    7.6861  -13.5660   20.6474 C   0  0  2  0  0  0  0  0  0  0  0  0
    8.1382  -12.7887   21.8838 C   0  0  0  0  0  0  0  0  0  0  0  0
    8.5747  -14.7221   20.3538 C   0  0  2  0  0  0  0  0  0  0  0  0
    8.0055  -15.5305   19.2631 N   0  0  0  0  0  0  0  0  0  0  0  0
    8.6660  -15.6166   21.5235 C   0  0  0  0  0  0  0  0  0  0  0  0
    7.6578  -16.3460   21.8400 O   0  0  0  0  0  0  0  0  0  0  0  0
    9.7969  -15.7577   22.3554 N   0  0  0  0  0  0  0  0  0  0  0  0
    9.7548  -16.7044   23.5016 C   0  0  1  0  0  0  0  0  0  0  0  0
   10.8941  -17.6492   23.2856 C   0  0  0  0  0  0  0  0  0  0  0  0
   11.0563  -18.6281   24.3893 C   0  0  0  0  0  0  0  0  0  0  0  0
   12.3020  -19.4774   24.2439 C   0  0  0  0  0  0  0  0  0  0  0  0
   12.4812  -20.4254   25.3954 C   0  0  0  0  0  0  0  0  0  0  0  0
   13.6356  -21.3014   25.1653 N   0  0  0  0  0  0  0  0  0  0  0  0
    9.8000  -15.9535   24.7677 C   0  0  0  0  0  0  0  0  0  0  0  0
   10.3014  -14.8017   24.7693 O   0  0  0  0  0  0  0  0  0  0  0  0
    9.3273  -16.4138   25.9846 O   0  0  0  0  0  0  0  0  0  0  0  0
  2  1  1  0
  3  4  1  1
  3  2  1  0
  5  6  2  0
  5  3  1  0
  8  7  1  6
  8 10  1  0
  9  8  1  0
 10 11  1  6
 10 12  1  0
 11  5  1  0
 12 14  1  0
 13 12  2  0
 14 15  1  0
 15 21  1  0
 15 16  1  6
 17 16  1  0
 18 17  1  0
 19 18  1  0
 20 19  1  0
 21 22  2  0
 21 23  1  0
M  END
$$$$
