SVK.pdb
     RDKit          3D

 23 22  0  0  1  0  0  0  0  0999 V2000
    7.5332  -18.8451   18.4349 O   0  0  0  0  0  0  0  0  0  0  0  0
    8.2690  -18.6127   17.2933 C   0  0  0  0  0  0  0  0  0  0  0  0
    8.3980  -17.1519   16.9637 C   0  0  2  0  0  0  0  0  0  0  0  0
    9.2424  -16.9383   15.8238 N   0  0  0  0  0  0  0  0  0  0  0  0
    8.8781  -16.4360   18.1719 C   0  0  0  0  0  0  0  0  0  0  0  0
   10.1128  -16.5281   18.4326 O   0  0  0  0  0  0  0  0  0  0  0  0
    7.2433  -12.8949   19.5809 C   0  0  0  0  0  0  0  0  0  0  0  0
    7.5110  -13.9399   20.6154 C   0  0  2  0  0  0  0  0  0  0  0  0
    7.9261  -13.1958   21.8847 C   0  0  0  0  0  0  0  0  0  0  0  0
    8.5446  -14.9125   20.1700 C   0  0  2  0  0  0  0  0  0  0  0  0
    8.0488  -15.6815   19.0168 N   0  0  0  0  0  0  0  0  0  0  0  0
    8.8217  -15.8980   21.2323 C   0  0  0  0  0  0  0  0  0  0  0  0
    7.8938  -16.7050   21.6018 O   0  0  0  0  0  0  0  0  0  0  0  0
   10.0542  -16.0492   21.9026 N   0  0  0  0  0  0  0  0  0  0  0  0
   10.1697  -17.0221   23.0216 C   0  0  1  0  0  0  0  0  0  0  0  0
   10.9417  -18.1790   22.4711 C   0  0  0  0  0  0  0  0  0  0  0  0
   12.3167  -17.8136   22.0487 C   0  0  0  0  0  0  0  0  0  0  0  0
   13.1193  -19.0036   21.5652 C   0  0  0  0  0  0  0  0  0  0  0  0
   14.4757  -18.6056   21.0566 C   0  0  0  0  0  0  0  0  0  0  0  0
   15.1835  -19.7708   20.5139 N   0  0  0  0  0  0  0  0  0  0  0  0
   10.7805  -16.3651   24.1895 C   0  0  0  0  0  0  0  0  0  0  0  0
   11.1637  -15.1737   24.0807 O   0  0  0  0  0  0  0  0  0  0  0  0
   10.9736  -16.9566   25.4261 O   0  0  0  0  0  0  0  0  0  0  0  0
  2  1  1  0
  3  4  1  6
  3  2  1  0
  5  6  2  0
  5  3  1  0
  8  7  1  6
  8 10  1  0
  9  8  1  0
 10 11  1  6
 10 12  1  0
 11  5  1  0
 12 14  1  0
 13 12  2  0
 14 15  1  0
 15 21  1  0
 15 16  1  6
 17 16  1  0
 18 17  1  0
 19 18  1  0
 20 19  1  0
 21 22  2  0
 21 23  1  0
M  END
$$$$
