SVK.pdb
     RDKit          3D

 23 22  0  0  1  0  0  0  0  0999 V2000
    5.5528  -18.5632   22.1287 O   0  0  0  0  0  0  0  0  0  0  0  0
    4.6299  -17.6961   21.5856 C   0  0  0  0  0  0  0  0  0  0  0  0
    5.0143  -17.2095   20.2164 C   0  0  2  0  0  0  0  0  0  0  0  0
    4.8069  -18.2184   19.2178 N   0  0  0  0  0  0  0  0  0  0  0  0
    6.4189  -16.7320   20.2623 C   0  0  0  0  0  0  0  0  0  0  0  0
    7.2793  -17.4427   19.6662 O   0  0  0  0  0  0  0  0  0  0  0  0
    7.5274  -13.1133   22.2732 C   0  0  0  0  0  0  0  0  0  0  0  0
    8.1303  -13.5163   20.9663 C   0  0  2  0  0  0  0  0  0  0  0  0
    7.2902  -12.8479   19.8780 C   0  0  0  0  0  0  0  0  0  0  0  0
    8.1816  -14.9945   20.8090 C   0  0  2  0  0  0  0  0  0  0  0  0
    6.8268  -15.5600   20.9187 N   0  0  0  0  0  0  0  0  0  0  0  0
    8.9706  -15.6049   21.8960 C   0  0  0  0  0  0  0  0  0  0  0  0
    8.4002  -15.8758   23.0141 O   0  0  0  0  0  0  0  0  0  0  0  0
   10.3400  -15.9371   21.8218 N   0  0  0  0  0  0  0  0  0  0  0  0
   10.9611  -16.7474   22.9033 C   0  0  1  0  0  0  0  0  0  0  0  0
   11.2035  -18.0973   22.3064 C   0  0  0  0  0  0  0  0  0  0  0  0
   10.0706  -19.0349   22.5072 C   0  0  0  0  0  0  0  0  0  0  0  0
   10.3376  -20.4113   21.9342 C   0  0  0  0  0  0  0  0  0  0  0  0
    9.1110  -21.2786   21.9436 C   0  0  0  0  0  0  0  0  0  0  0  0
    9.4382  -22.6368   21.4949 N   0  0  0  0  0  0  0  0  0  0  0  0
   12.1644  -16.0640   23.4069 C   0  0  0  0  0  0  0  0  0  0  0  0
   12.5329  -16.2815   24.5880 O   0  0  0  0  0  0  0  0  0  0  0  0
   12.9449  -15.1835   22.6776 O   0  0  0  0  0  0  0  0  0  0  0  0
  2  1  1  0
  3  4  1  6
  3  2  1  0
  5  6  2  0
  5  3  1  0
  8  7  1  1
  8 10  1  0
  9  8  1  0
 10 11  1  1
 10 12  1  0
 11  5  1  0
 12 14  1  0
 13 12  2  0
 14 15  1  0
 15 21  1  0
 15 16  1  6
 17 16  1  0
 18 17  1  0
 19 18  1  0
 20 19  1  0
 21 22  2  0
 21 23  1  0
M  END
$$$$
