SVK.pdb
     RDKit          3D

 23 22  0  0  1  0  0  0  0  0999 V2000
    7.2907  -19.9245   17.7843 O   0  0  0  0  0  0  0  0  0  0  0  0
    8.0086  -18.9636   18.4626 C   0  0  0  0  0  0  0  0  0  0  0  0
    8.1756  -17.6917   17.6792 C   0  0  2  0  0  0  0  0  0  0  0  0
    8.9669  -17.8956   16.5001 N   0  0  0  0  0  0  0  0  0  0  0  0
    8.7450  -16.6559   18.5768 C   0  0  0  0  0  0  0  0  0  0  0  0
   10.0034  -16.5249   18.5652 O   0  0  0  0  0  0  0  0  0  0  0  0
    7.2334  -12.9799   19.4455 C   0  0  0  0  0  0  0  0  0  0  0  0
    7.5587  -13.7946   20.6557 C   0  0  2  0  0  0  0  0  0  0  0  0
    8.0654  -12.8144   21.7136 C   0  0  0  0  0  0  0  0  0  0  0  0
    8.5499  -14.8629   20.3578 C   0  0  2  0  0  0  0  0  0  0  0  0
    7.9735  -15.8364   19.4159 N   0  0  0  0  0  0  0  0  0  0  0  0
    8.8800  -15.6200   21.5802 C   0  0  0  0  0  0  0  0  0  0  0  0
    8.0740  -16.5290   21.9962 O   0  0  0  0  0  0  0  0  0  0  0  0
   10.0404  -15.4396   22.3625 N   0  0  0  0  0  0  0  0  0  0  0  0
   10.6208  -16.5952   23.0970 C   0  0  1  0  0  0  0  0  0  0  0  0
   11.0112  -17.5853   22.0459 C   0  0  0  0  0  0  0  0  0  0  0  0
   11.6357  -18.8108   22.6035 C   0  0  0  0  0  0  0  0  0  0  0  0
   10.7199  -20.0159   22.5461 C   0  0  0  0  0  0  0  0  0  0  0  0
   11.3839  -21.2596   23.0648 C   0  0  0  0  0  0  0  0  0  0  0  0
   10.4647  -22.4012   22.9932 N   0  0  0  0  0  0  0  0  0  0  0  0
   11.7229  -16.1336   23.9578 C   0  0  0  0  0  0  0  0  0  0  0  0
   11.7478  -16.5037   25.1580 O   0  0  0  0  0  0  0  0  0  0  0  0
   12.7590  -15.3098   23.5527 O   0  0  0  0  0  0  0  0  0  0  0  0
  2  1  1  0
  3  4  1  6
  3  2  1  0
  5  6  2  0
  5  3  1  0
  8  7  1  6
  8 10  1  0
  9  8  1  0
 10 11  1  6
 10 12  1  0
 11  5  1  0
 12 14  1  0
 13 12  2  0
 14 15  1  0
 15 21  1  0
 15 16  1  6
 17 16  1  0
 18 17  1  0
 19 18  1  0
 20 19  1  0
 21 22  2  0
 21 23  1  0
M  END
$$$$
