SVK.pdb
     RDKit          3D

 23 22  0  0  1  0  0  0  0  0999 V2000
    5.3528  -19.3798   22.1206 O   0  0  0  0  0  0  0  0  0  0  0  0
    4.6324  -18.3526   21.5509 C   0  0  0  0  0  0  0  0  0  0  0  0
    5.3170  -17.7443   20.3591 C   0  0  2  0  0  0  0  0  0  0  0  0
    5.5698  -18.7197   19.3380 N   0  0  0  0  0  0  0  0  0  0  0  0
    6.5544  -17.0668   20.8203 C   0  0  0  0  0  0  0  0  0  0  0  0
    7.6505  -17.6260   20.5261 O   0  0  0  0  0  0  0  0  0  0  0  0
    7.2132  -13.0094   21.1490 C   0  0  0  0  0  0  0  0  0  0  0  0
    7.5358  -13.8036   22.3734 C   0  0  2  0  0  0  0  0  0  0  0  0
    8.7444  -13.1278   23.0213 C   0  0  0  0  0  0  0  0  0  0  0  0
    7.7935  -15.2340   22.0574 C   0  0  2  0  0  0  0  0  0  0  0  0
    6.5655  -15.8665   21.5484 N   0  0  0  0  0  0  0  0  0  0  0  0
    8.1624  -15.9767   23.2777 C   0  0  0  0  0  0  0  0  0  0  0  0
    7.2733  -16.1904   24.1791 O   0  0  0  0  0  0  0  0  0  0  0  0
    9.4430  -16.4988   23.5584 N   0  0  0  0  0  0  0  0  0  0  0  0
    9.6906  -17.1863   24.8537 C   0  0  1  0  0  0  0  0  0  0  0  0
   10.1005  -18.5801   24.4978 C   0  0  0  0  0  0  0  0  0  0  0  0
   10.4180  -19.4144   25.6835 C   0  0  0  0  0  0  0  0  0  0  0  0
   10.8645  -20.8141   25.3151 C   0  0  0  0  0  0  0  0  0  0  0  0
   11.1556  -21.6549   26.5256 C   0  0  0  0  0  0  0  0  0  0  0  0
   11.3164  -23.0634   26.1468 N   0  0  0  0  0  0  0  0  0  0  0  0
   10.6796  -16.4272   25.6375 C   0  0  0  0  0  0  0  0  0  0  0  0
   11.4693  -15.6599   25.0329 O   0  0  0  0  0  0  0  0  0  0  0  0
   10.8194  -16.4842   27.0135 O   0  0  0  0  0  0  0  0  0  0  0  0
  2  1  1  0
  3  4  1  6
  3  2  1  0
  5  6  2  0
  5  3  1  0
  8  7  1  6
  8 10  1  0
  9  8  1  0
 10 11  1  1
 10 12  1  0
 11  5  1  0
 12 14  1  0
 13 12  2  0
 14 15  1  0
 15 21  1  0
 15 16  1  6
 17 16  1  0
 18 17  1  0
 19 18  1  0
 20 19  1  0
 21 22  2  0
 21 23  1  0
M  END
$$$$
