SVK.pdb
     RDKit          3D

 23 22  0  0  1  0  0  0  0  0999 V2000
    7.4067  -11.4754   27.3351 O   0  0  0  0  0  0  0  0  0  0  0  0
    7.3138  -12.7320   26.7775 C   0  0  0  0  0  0  0  0  0  0  0  0
    6.4021  -12.7798   25.5834 C   0  0  2  0  0  0  0  0  0  0  0  0
    5.0264  -12.9011   25.9715 N   0  0  0  0  0  0  0  0  0  0  0  0
    6.8443  -13.8841   24.6958 C   0  0  0  0  0  0  0  0  0  0  0  0
    6.3804  -15.0340   24.9470 O   0  0  0  0  0  0  0  0  0  0  0  0
    7.3845  -13.5510   20.7690 C   0  0  0  0  0  0  0  0  0  0  0  0
    8.5210  -14.2887   21.4000 C   0  0  2  0  0  0  0  0  0  0  0  0
    8.9092  -15.4005   20.4252 C   0  0  0  0  0  0  0  0  0  0  0  0
    8.1639  -14.8178   22.7435 C   0  0  2  0  0  0  0  0  0  0  0  0
    7.7297  -13.7170   23.6192 N   0  0  0  0  0  0  0  0  0  0  0  0
    9.3433  -15.4196   23.3943 C   0  0  0  0  0  0  0  0  0  0  0  0
   10.2537  -14.6558   23.8809 O   0  0  0  0  0  0  0  0  0  0  0  0
    9.5740  -16.8035   23.5445 N   0  0  0  0  0  0  0  0  0  0  0  0
   10.8402  -17.2762   24.1652 C   0  0  1  0  0  0  0  0  0  0  0  0
   10.4421  -18.3587   25.1177 C   0  0  0  0  0  0  0  0  0  0  0  0
   11.1145  -18.2505   26.4363 C   0  0  0  0  0  0  0  0  0  0  0  0
   10.6713  -19.3207   27.4122 C   0  0  0  0  0  0  0  0  0  0  0  0
   11.3846  -19.2186   28.7303 C   0  0  0  0  0  0  0  0  0  0  0  0
   10.9301  -20.2731   29.6439 N   0  0  0  0  0  0  0  0  0  0  0  0
   11.7849  -17.6887   23.1134 C   0  0  0  0  0  0  0  0  0  0  0  0
   11.3292  -18.1805   22.0511 O   0  0  0  0  0  0  0  0  0  0  0  0
   13.1626  -17.5791   23.1921 O   0  0  0  0  0  0  0  0  0  0  0  0
  2  1  1  0
  3  4  1  1
  3  2  1  0
  5  6  2  0
  5  3  1  0
  8  7  1  6
  8 10  1  0
  9  8  1  0
 10 11  1  1
 10 12  1  0
 11  5  1  0
 12 14  1  0
 13 12  2  0
 14 15  1  0
 15 21  1  0
 15 16  1  1
 17 16  1  0
 18 17  1  0
 19 18  1  0
 20 19  1  0
 21 22  2  0
 21 23  1  0
M  END
$$$$
