SVK.pdb
     RDKit          3D

 23 22  0  0  1  0  0  0  0  0999 V2000
    4.1871  -18.8494   22.1010 O   0  0  0  0  0  0  0  0  0  0  0  0
    3.8622  -17.8349   21.2270 C   0  0  0  0  0  0  0  0  0  0  0  0
    4.8328  -17.7074   20.0864 C   0  0  2  0  0  0  0  0  0  0  0  0
    5.1498  -18.9846   19.5150 N   0  0  0  0  0  0  0  0  0  0  0  0
    6.0354  -16.9835   20.5687 C   0  0  0  0  0  0  0  0  0  0  0  0
    7.0878  -17.6694   20.7196 O   0  0  0  0  0  0  0  0  0  0  0  0
    6.8553  -13.0700   19.7362 C   0  0  0  0  0  0  0  0  0  0  0  0
    7.0847  -13.4348   21.1674 C   0  0  2  0  0  0  0  0  0  0  0  0
    8.3162  -12.6511   21.6215 C   0  0  0  0  0  0  0  0  0  0  0  0
    7.2533  -14.9016   21.3480 C   0  0  2  0  0  0  0  0  0  0  0  0
    6.0595  -15.6099   20.8577 N   0  0  0  0  0  0  0  0  0  0  0  0
    7.3714  -15.2379   22.7796 C   0  0  0  0  0  0  0  0  0  0  0  0
    6.3070  -15.3954   23.4805 O   0  0  0  0  0  0  0  0  0  0  0  0
    8.5846  -15.4152   23.4779 N   0  0  0  0  0  0  0  0  0  0  0  0
    8.5790  -16.0836   24.8065 C   0  0  1  0  0  0  0  0  0  0  0  0
    7.9637  -17.4278   24.5784 C   0  0  0  0  0  0  0  0  0  0  0  0
    7.9129  -18.2609   25.8056 C   0  0  0  0  0  0  0  0  0  0  0  0
    7.4177  -19.6677   25.5413 C   0  0  0  0  0  0  0  0  0  0  0  0
    7.3701  -20.4979   26.7924 C   0  0  0  0  0  0  0  0  0  0  0  0
    6.6674  -21.7620   26.5443 N   0  0  0  0  0  0  0  0  0  0  0  0
    9.9455  -16.1093   25.3551 C   0  0  0  0  0  0  0  0  0  0  0  0
   10.9165  -16.1072   24.5581 O   0  0  0  0  0  0  0  0  0  0  0  0
   10.2630  -16.1349   26.7022 O   0  0  0  0  0  0  0  0  0  0  0  0
  2  1  1  0
  3  4  1  1
  3  2  1  0
  5  6  2  0
  5  3  1  0
  8  7  1  6
  8 10  1  0
  9  8  1  0
 10 11  1  1
 10 12  1  0
 11  5  1  0
 12 14  1  0
 13 12  2  0
 14 15  1  0
 15 21  1  0
 15 16  1  6
 17 16  1  0
 18 17  1  0
 19 18  1  0
 20 19  1  0
 21 22  2  0
 21 23  1  0
M  END
$$$$
