SVK.pdb
     RDKit          3D

 23 22  0  0  1  0  0  0  0  0999 V2000
    9.0879  -19.2308   18.2814 O   0  0  0  0  0  0  0  0  0  0  0  0
    8.1637  -18.5448   17.5238 C   0  0  0  0  0  0  0  0  0  0  0  0
    8.6723  -17.2175   17.0351 C   0  0  2  0  0  0  0  0  0  0  0  0
    9.7108  -17.3749   16.0580 N   0  0  0  0  0  0  0  0  0  0  0  0
    9.1079  -16.4183   18.2075 C   0  0  0  0  0  0  0  0  0  0  0  0
   10.3507  -16.3870   18.4425 O   0  0  0  0  0  0  0  0  0  0  0  0
    7.0637  -13.0268   19.5332 C   0  0  0  0  0  0  0  0  0  0  0  0
    7.5360  -13.9757   20.5870 C   0  0  2  0  0  0  0  0  0  0  0  0
    7.9048  -13.1242   21.8019 C   0  0  0  0  0  0  0  0  0  0  0  0
    8.6755  -14.8079   20.1166 C   0  0  2  0  0  0  0  0  0  0  0  0
    8.2291  -15.7141   19.0457 N   0  0  0  0  0  0  0  0  0  0  0  0
    9.1714  -15.6715   21.2051 C   0  0  0  0  0  0  0  0  0  0  0  0
    8.5240  -16.7380   21.5090 O   0  0  0  0  0  0  0  0  0  0  0  0
   10.3336  -15.4336   21.9692 N   0  0  0  0  0  0  0  0  0  0  0  0
   10.7311  -16.4012   23.0264 C   0  0  1  0  0  0  0  0  0  0  0  0
   12.2262  -16.4364   22.9985 C   0  0  0  0  0  0  0  0  0  0  0  0
   12.8079  -17.3090   24.0487 C   0  0  0  0  0  0  0  0  0  0  0  0
   13.8696  -18.2468   23.5125 C   0  0  0  0  0  0  0  0  0  0  0  0
   14.4818  -19.0903   24.5945 C   0  0  0  0  0  0  0  0  0  0  0  0
   15.5097  -19.9762   24.0361 N   0  0  0  0  0  0  0  0  0  0  0  0
   10.1416  -15.9988   24.3146 C   0  0  0  0  0  0  0  0  0  0  0  0
    9.7581  -14.8113   24.4588 O   0  0  0  0  0  0  0  0  0  0  0  0
    9.9672  -16.8321   25.4061 O   0  0  0  0  0  0  0  0  0  0  0  0
  2  1  1  0
  3  4  1  6
  3  2  1  0
  5  6  2  0
  5  3  1  0
  8  7  1  6
  8 10  1  0
  9  8  1  0
 10 11  1  6
 10 12  1  0
 11  5  1  0
 12 14  1  0
 13 12  2  0
 14 15  1  0
 15 21  1  0
 15 16  1  1
 17 16  1  0
 18 17  1  0
 19 18  1  0
 20 19  1  0
 21 22  2  0
 21 23  1  0
M  END
$$$$
