SVK.pdb
     RDKit          3D

 23 22  0  0  1  0  0  0  0  0999 V2000
    3.4433  -18.4152   22.6471 O   0  0  0  0  0  0  0  0  0  0  0  0
    4.7656  -18.1521   22.3626 C   0  0  0  0  0  0  0  0  0  0  0  0
    4.9928  -17.7635   20.9286 C   0  0  2  0  0  0  0  0  0  0  0  0
    4.9493  -18.9025   20.0575 N   0  0  0  0  0  0  0  0  0  0  0  0
    6.2765  -17.0240   20.8376 C   0  0  0  0  0  0  0  0  0  0  0  0
    7.3048  -17.7053   20.5564 O   0  0  0  0  0  0  0  0  0  0  0  0
    6.7436  -13.1137   19.5939 C   0  0  0  0  0  0  0  0  0  0  0  0
    7.4426  -13.4590   20.8691 C   0  0  2  0  0  0  0  0  0  0  0  0
    8.7433  -12.6557   20.8806 C   0  0  0  0  0  0  0  0  0  0  0  0
    7.6835  -14.9214   20.9938 C   0  0  2  0  0  0  0  0  0  0  0  0
    6.4001  -15.6408   21.0435 N   0  0  0  0  0  0  0  0  0  0  0  0
    8.3751  -15.2273   22.2605 C   0  0  0  0  0  0  0  0  0  0  0  0
    7.7217  -15.1746   23.3647 O   0  0  0  0  0  0  0  0  0  0  0  0
    9.7333  -15.5906   22.3807 N   0  0  0  0  0  0  0  0  0  0  0  0
   10.2960  -15.9053   23.7209 C   0  0  1  0  0  0  0  0  0  0  0  0
    9.6389  -17.1806   24.1442 C   0  0  0  0  0  0  0  0  0  0  0  0
   10.1303  -17.6831   25.4513 C   0  0  0  0  0  0  0  0  0  0  0  0
    9.5764  -19.0484   25.8025 C   0  0  0  0  0  0  0  0  0  0  0  0
   10.0828  -19.5436   27.1273 C   0  0  0  0  0  0  0  0  0  0  0  0
    9.6332  -20.9196   27.3679 N   0  0  0  0  0  0  0  0  0  0  0  0
   11.7656  -15.9581   23.6424 C   0  0  0  0  0  0  0  0  0  0  0  0
   12.4206  -16.1426   24.6984 O   0  0  0  0  0  0  0  0  0  0  0  0
   12.5071  -15.8207   22.4817 O   0  0  0  0  0  0  0  0  0  0  0  0
  2  1  1  0
  3  4  1  6
  3  2  1  0
  5  6  2  0
  5  3  1  0
  8  7  1  6
  8 10  1  0
  9  8  1  0
 10 11  1  1
 10 12  1  0
 11  5  1  0
 12 14  1  0
 13 12  2  0
 14 15  1  0
 15 21  1  0
 15 16  1  6
 17 16  1  0
 18 17  1  0
 19 18  1  0
 20 19  1  0
 21 22  2  0
 21 23  1  0
M  END
$$$$
