SVK.pdb
     RDKit          3D

 23 22  0  0  1  0  0  0  0  0999 V2000
    8.2921  -18.7257   18.3989 O   0  0  0  0  0  0  0  0  0  0  0  0
    9.1165  -18.4636   17.3263 C   0  0  0  0  0  0  0  0  0  0  0  0
    9.1497  -17.0084   16.9514 C   0  0  2  0  0  0  0  0  0  0  0  0
   10.0779  -16.7564   15.8871 N   0  0  0  0  0  0  0  0  0  0  0  0
    9.4479  -16.2140   18.1691 C   0  0  0  0  0  0  0  0  0  0  0  0
   10.6558  -16.1827   18.5442 O   0  0  0  0  0  0  0  0  0  0  0  0
    7.6719  -12.6973   19.3770 C   0  0  0  0  0  0  0  0  0  0  0  0
    7.6995  -13.7789   20.4082 C   0  0  2  0  0  0  0  0  0  0  0  0
    7.8758  -13.0847   21.7587 C   0  0  0  0  0  0  0  0  0  0  0  0
    8.7728  -14.7739   20.1428 C   0  0  2  0  0  0  0  0  0  0  0  0
    8.4784  -15.5143   18.9049 N   0  0  0  0  0  0  0  0  0  0  0  0
    8.8255  -15.7802   21.2204 C   0  0  0  0  0  0  0  0  0  0  0  0
    8.2289  -16.9062   21.0618 O   0  0  0  0  0  0  0  0  0  0  0  0
    9.4968  -15.6220   22.4514 N   0  0  0  0  0  0  0  0  0  0  0  0
    9.9746  -16.8215   23.1895 C   0  0  1  0  0  0  0  0  0  0  0  0
   10.9401  -17.5012   22.2712 C   0  0  0  0  0  0  0  0  0  0  0  0
   11.5571  -18.7121   22.8676 C   0  0  0  0  0  0  0  0  0  0  0  0
   12.5326  -19.3964   21.9326 C   0  0  0  0  0  0  0  0  0  0  0  0
   13.1728  -20.6012   22.5615 C   0  0  0  0  0  0  0  0  0  0  0  0
   14.2066  -21.1537   21.6788 N   0  0  0  0  0  0  0  0  0  0  0  0
   10.5332  -16.4144   24.4899 C   0  0  0  0  0  0  0  0  0  0  0  0
   11.0842  -15.2895   24.5851 O   0  0  0  0  0  0  0  0  0  0  0  0
   10.5036  -17.1779   25.6441 O   0  0  0  0  0  0  0  0  0  0  0  0
  2  1  1  0
  3  4  1  6
  3  2  1  0
  5  6  2  0
  5  3  1  0
  8  7  1  6
  8 10  1  0
  9  8  1  0
 10 11  1  6
 10 12  1  0
 11  5  1  0
 12 14  1  0
 13 12  2  0
 14 15  1  0
 15 21  1  0
 15 16  1  6
 17 16  1  0
 18 17  1  0
 19 18  1  0
 20 19  1  0
 21 22  2  0
 21 23  1  0
M  END
$$$$
