SVK.pdb
     RDKit          3D

 23 22  0  0  1  0  0  0  0  0999 V2000
    8.8189  -19.2317   18.1806 O   0  0  0  0  0  0  0  0  0  0  0  0
    7.8027  -18.4529   17.6713 C   0  0  0  0  0  0  0  0  0  0  0  0
    8.2944  -17.1732   17.0551 C   0  0  2  0  0  0  0  0  0  0  0  0
    9.2126  -17.4207   15.9810 N   0  0  0  0  0  0  0  0  0  0  0  0
    8.8820  -16.3293   18.1253 C   0  0  0  0  0  0  0  0  0  0  0  0
   10.1437  -16.2386   18.1477 O   0  0  0  0  0  0  0  0  0  0  0  0
    7.2280  -12.8607   19.8334 C   0  0  0  0  0  0  0  0  0  0  0  0
    7.6678  -13.9485   20.7593 C   0  0  2  0  0  0  0  0  0  0  0  0
    8.1576  -13.2603   22.0335 C   0  0  0  0  0  0  0  0  0  0  0  0
    8.7143  -14.8108   20.1480 C   0  0  2  0  0  0  0  0  0  0  0  0
    8.1237  -15.6452   19.0886 N   0  0  0  0  0  0  0  0  0  0  0  0
    9.2655  -15.7456   21.1475 C   0  0  0  0  0  0  0  0  0  0  0  0
    8.6024  -16.8006   21.4577 O   0  0  0  0  0  0  0  0  0  0  0  0
   10.4982  -15.5901   21.8164 N   0  0  0  0  0  0  0  0  0  0  0  0
   10.9479  -16.6271   22.7829 C   0  0  1  0  0  0  0  0  0  0  0  0
   12.4360  -16.6888   22.6439 C   0  0  0  0  0  0  0  0  0  0  0  0
   13.0700  -17.6426   23.5877 C   0  0  0  0  0  0  0  0  0  0  0  0
   14.5812  -17.6539   23.4859 C   0  0  0  0  0  0  0  0  0  0  0  0
   15.2015  -18.7109   24.3548 C   0  0  0  0  0  0  0  0  0  0  0  0
   16.6357  -18.8341   24.0699 N   0  0  0  0  0  0  0  0  0  0  0  0
   10.4619  -16.2924   24.1322 C   0  0  0  0  0  0  0  0  0  0  0  0
   10.1773  -15.0968   24.3924 O   0  0  0  0  0  0  0  0  0  0  0  0
   10.2853  -17.1989   25.1633 O   0  0  0  0  0  0  0  0  0  0  0  0
  2  1  1  0
  3  4  1  6
  3  2  1  0
  5  6  2  0
  5  3  1  0
  8  7  1  6
  8 10  1  0
  9  8  1  0
 10 11  1  6
 10 12  1  0
 11  5  1  0
 12 14  1  0
 13 12  2  0
 14 15  1  0
 15 21  1  0
 15 16  1  1
 17 16  1  0
 18 17  1  0
 19 18  1  0
 20 19  1  0
 21 22  2  0
 21 23  1  0
M  END
$$$$
