SVK.pdb
     RDKit          3D

 23 22  0  0  1  0  0  0  0  0999 V2000
    9.2470  -18.7556   17.5371 O   0  0  0  0  0  0  0  0  0  0  0  0
    9.0387  -17.8304   18.5367 C   0  0  0  0  0  0  0  0  0  0  0  0
    9.5403  -16.4585   18.1825 C   0  0  2  0  0  0  0  0  0  0  0  0
   10.7534  -16.5185   17.4190 N   0  0  0  0  0  0  0  0  0  0  0  0
    9.6912  -15.6736   19.4331 C   0  0  0  0  0  0  0  0  0  0  0  0
   10.6052  -14.7990   19.4470 O   0  0  0  0  0  0  0  0  0  0  0  0
    6.6221  -13.8962   20.8996 C   0  0  0  0  0  0  0  0  0  0  0  0
    8.0737  -13.6424   21.1496 C   0  0  2  0  0  0  0  0  0  0  0  0
    8.6587  -13.1409   19.8293 C   0  0  0  0  0  0  0  0  0  0  0  0
    8.7730  -14.8561   21.6498 C   0  0  2  0  0  0  0  0  0  0  0  0
    8.8886  -15.8513   20.5711 N   0  0  0  0  0  0  0  0  0  0  0  0
    7.9907  -15.5011   22.7215 C   0  0  0  0  0  0  0  0  0  0  0  0
    6.9074  -16.1233   22.4247 O   0  0  0  0  0  0  0  0  0  0  0  0
    8.3326  -15.5055   24.0905 N   0  0  0  0  0  0  0  0  0  0  0  0
    8.2298  -16.7670   24.8715 C   0  0  1  0  0  0  0  0  0  0  0  0
    9.3169  -16.6957   25.8965 C   0  0  0  0  0  0  0  0  0  0  0  0
    9.3591  -17.8842   26.7843 C   0  0  0  0  0  0  0  0  0  0  0  0
   10.4515  -17.7988   27.8300 C   0  0  0  0  0  0  0  0  0  0  0  0
   10.4707  -19.0004   28.7315 C   0  0  0  0  0  0  0  0  0  0  0  0
   11.4404  -18.8134   29.8168 N   0  0  0  0  0  0  0  0  0  0  0  0
    6.8684  -16.9042   25.4161 C   0  0  0  0  0  0  0  0  0  0  0  0
    6.1752  -15.8690   25.5775 O   0  0  0  0  0  0  0  0  0  0  0  0
    6.2698  -18.1001   25.7735 O   0  0  0  0  0  0  0  0  0  0  0  0
  2  1  1  0
  3  4  1  1
  3  2  1  0
  5  6  2  0
  5  3  1  0
  8  7  1  6
  8 10  1  0
  9  8  1  0
 10 11  1  6
 10 12  1  0
 11  5  1  0
 12 14  1  0
 13 12  2  0
 14 15  1  0
 15 21  1  0
 15 16  1  1
 17 16  1  0
 18 17  1  0
 19 18  1  0
 20 19  1  0
 21 22  2  0
 21 23  1  0
M  END
$$$$
