SVK.pdb
     RDKit          3D

 23 22  0  0  1  0  0  0  0  0999 V2000
    8.0989  -19.3036   19.0221 O   0  0  0  0  0  0  0  0  0  0  0  0
    7.1514  -18.6920   18.2303 C   0  0  0  0  0  0  0  0  0  0  0  0
    7.6953  -17.5219   17.4594 C   0  0  2  0  0  0  0  0  0  0  0  0
    8.5709  -17.9434   16.4040 N   0  0  0  0  0  0  0  0  0  0  0  0
    8.3549  -16.5945   18.4121 C   0  0  0  0  0  0  0  0  0  0  0  0
    9.6199  -16.6013   18.4266 O   0  0  0  0  0  0  0  0  0  0  0  0
    6.9967  -12.8532   19.5211 C   0  0  0  0  0  0  0  0  0  0  0  0
    7.3728  -13.7570   20.6506 C   0  0  2  0  0  0  0  0  0  0  0  0
    7.9616  -12.8631   21.7421 C   0  0  0  0  0  0  0  0  0  0  0  0
    8.3210  -14.8196   20.2214 C   0  0  2  0  0  0  0  0  0  0  0  0
    7.6594  -15.7328   19.2750 N   0  0  0  0  0  0  0  0  0  0  0  0
    8.7292  -15.6467   21.3729 C   0  0  0  0  0  0  0  0  0  0  0  0
    7.9698  -16.6066   21.7609 O   0  0  0  0  0  0  0  0  0  0  0  0
    9.9194  -15.4828   22.1130 N   0  0  0  0  0  0  0  0  0  0  0  0
   10.3812  -16.5708   23.0157 C   0  0  1  0  0  0  0  0  0  0  0  0
   10.7081  -17.7244   22.1214 C   0  0  0  0  0  0  0  0  0  0  0  0
   10.7143  -19.0279   22.8310 C   0  0  0  0  0  0  0  0  0  0  0  0
   11.0007  -20.1968   21.9113 C   0  0  0  0  0  0  0  0  0  0  0  0
   11.0952  -21.4972   22.6575 C   0  0  0  0  0  0  0  0  0  0  0  0
   11.1725  -22.6235   21.7201 N   0  0  0  0  0  0  0  0  0  0  0  0
   11.4995  -16.0880   23.8434 C   0  0  0  0  0  0  0  0  0  0  0  0
   12.2962  -15.2497   23.3528 O   0  0  0  0  0  0  0  0  0  0  0  0
   11.7567  -16.4839   25.1447 O   0  0  0  0  0  0  0  0  0  0  0  0
  2  1  1  0
  3  4  1  6
  3  2  1  0
  5  6  2  0
  5  3  1  0
  8  7  1  6
  8 10  1  0
  9  8  1  0
 10 11  1  6
 10 12  1  0
 11  5  1  0
 12 14  1  0
 13 12  2  0
 14 15  1  0
 15 21  1  0
 15 16  1  6
 17 16  1  0
 18 17  1  0
 19 18  1  0
 20 19  1  0
 21 22  2  0
 21 23  1  0
M  END
$$$$
