AWN.pdb
     RDKit          3D

 28 29  0  0  1  0  0  0  0  0999 V2000
    9.9288  -15.4684   20.4295 C   0  0  0  0  0  0  0  0  0  0  0  0
   10.2833  -16.7162   21.2125 C   0  0  2  0  0  0  0  0  0  0  0  0
    9.2746  -17.7135   20.9502 N   0  0  0  0  0  0  0  0  0  0  0  0
   10.2977  -16.3943   22.6677 C   0  0  0  0  0  0  0  0  0  0  0  0
   11.1392  -15.6115   23.1349 O   0  0  0  0  0  0  0  0  0  0  0  0
    9.3809  -16.9423   23.5860 N   0  0  0  0  0  0  0  0  0  0  0  0
    9.3383  -16.6730   25.0061 C   0  0  1  0  0  0  0  0  0  0  0  0
    7.9969  -16.3728   25.5340 C   0  0  0  0  0  0  0  0  0  0  0  0
    7.3518  -15.1421   25.0428 C   0  0  0  0  0  0  0  0  0  0  0  0
    6.6256  -14.9394   23.8690 C   0  0  0  0  0  0  0  0  0  0  0  0
    6.2197  -13.6850   23.7399 N   0  0  0  0  0  0  0  0  0  0  0  0
    6.6614  -12.9912   24.8318 C   0  0  0  0  0  0  0  0  0  0  0  0
    6.5085  -11.6484   25.1993 C   0  0  0  0  0  0  0  0  0  0  0  0
    7.0879  -11.2789   26.3925 C   0  0  0  0  0  0  0  0  0  0  0  0
    7.7830  -12.1359   27.2095 C   0  0  0  0  0  0  0  0  0  0  0  0
    7.9173  -13.4461   26.8256 C   0  0  0  0  0  0  0  0  0  0  0  0
    7.3558  -13.8717   25.6361 C   0  0  0  0  0  0  0  0  0  0  0  0
    9.9998  -17.8266   25.6449 C   0  0  0  0  0  0  0  0  0  0  0  0
    9.4975  -19.0040   25.5436 O   0  0  0  0  0  0  0  0  0  0  0  0
   13.3411  -21.1849   27.8539 N   0  0  0  0  0  0  0  0  0  0  0  0
   13.9222  -20.2066   26.9826 C   0  0  0  0  0  0  0  0  0  0  0  0
   15.1231  -20.3684   26.6524 O   0  0  0  0  0  0  0  0  0  0  0  0
   13.2001  -19.0433   26.4605 C   0  0  0  0  0  0  0  0  0  0  0  0
   11.7502  -19.0136   26.9967 C   0  0  2  0  0  0  0  0  0  0  0  0
   11.2043  -17.7970   26.4046 N   0  0  0  0  0  0  0  0  0  0  0  0
   11.7634  -18.8809   28.4628 C   0  0  0  0  0  0  0  0  0  0  0  0
   11.6534  -17.7634   29.0014 O   0  0  0  0  0  0  0  0  0  0  0  0
   11.9025  -20.0288   29.2659 O   0  0  0  0  0  0  0  0  0  0  0  0
  2  3  1  0
  2  1  1  6
  4  2  1  0
  5  4  2  0
  6  4  1  0
  7  6  1  0
  8  9  1  0
  7  8  1  1
  9 10  2  0
 11 10  1  0
 12 11  1  0
 13 12  2  0
 14 13  1  0
 15 14  2  0
 15 16  1  0
 16 17  2  0
 17 12  1  0
 17  9  1  0
 18  7  1  0
 18 19  2  0
 21 20  1  0
 22 21  2  0
 23 21  1  0
 24 23  1  6
 24 25  1  0
 25 18  1  0
 26 24  1  0
 27 26  2  0
 28 26  1  0
M  END
$$$$
