AWN.pdb
     RDKit          3D

 28 29  0  0  1  0  0  0  0  0999 V2000
    7.2822  -13.5088   20.3162 C   0  0  0  0  0  0  0  0  0  0  0  0
    7.9121  -14.8689   20.5380 C   0  0  2  0  0  0  0  0  0  0  0  0
    6.8529  -15.8295   20.7281 N   0  0  0  0  0  0  0  0  0  0  0  0
    8.7649  -14.8209   21.7594 C   0  0  0  0  0  0  0  0  0  0  0  0
    9.7172  -14.0294   21.8363 O   0  0  0  0  0  0  0  0  0  0  0  0
    8.5525  -15.6487   22.8792 N   0  0  0  0  0  0  0  0  0  0  0  0
    9.3507  -15.6670   24.0848 C   0  0  1  0  0  0  0  0  0  0  0  0
    8.5889  -15.9070   25.3218 C   0  0  0  0  0  0  0  0  0  0  0  0
    7.4418  -15.0174   25.5765 C   0  0  0  0  0  0  0  0  0  0  0  0
    6.0784  -15.2836   25.4489 C   0  0  0  0  0  0  0  0  0  0  0  0
    5.3316  -14.2272   25.7337 N   0  0  0  0  0  0  0  0  0  0  0  0
    6.1723  -13.2020   26.0667 C   0  0  0  0  0  0  0  0  0  0  0  0
    5.9134  -11.8813   26.4543 C   0  0  0  0  0  0  0  0  0  0  0  0
    7.0169  -11.1048   26.7287 C   0  0  0  0  0  0  0  0  0  0  0  0
    8.3128  -11.5504   26.6438 C   0  0  0  0  0  0  0  0  0  0  0  0
    8.5380  -12.8488   26.2621 C   0  0  0  0  0  0  0  0  0  0  0  0
    7.4661  -13.6730   25.9738 C   0  0  0  0  0  0  0  0  0  0  0  0
   10.4237  -16.6472   23.8308 C   0  0  0  0  0  0  0  0  0  0  0  0
   10.6075  -17.1212   22.6517 O   0  0  0  0  0  0  0  0  0  0  0  0
   13.6703  -17.8481   21.7540 N   0  0  0  0  0  0  0  0  0  0  0  0
   13.8358  -16.6253   22.4830 C   0  0  0  0  0  0  0  0  0  0  0  0
   14.4119  -15.6765   21.8953 O   0  0  0  0  0  0  0  0  0  0  0  0
   13.3736  -16.4233   23.8587 C   0  0  0  0  0  0  0  0  0  0  0  0
   12.6433  -17.6822   24.3808 C   0  0  2  0  0  0  0  0  0  0  0  0
   11.3423  -17.1632   24.7894 N   0  0  0  0  0  0  0  0  0  0  0  0
   13.3486  -18.2157   25.5578 C   0  0  0  0  0  0  0  0  0  0  0  0
   13.0271  -17.8604   26.7073 O   0  0  0  0  0  0  0  0  0  0  0  0
   14.3988  -19.1369   25.3832 O   0  0  0  0  0  0  0  0  0  0  0  0
  2  3  1  0
  2  1  1  1
  4  2  1  0
  5  4  2  0
  6  4  1  0
  7  6  1  0
  8  9  1  0
  7  8  1  1
  9 10  2  0
 11 10  1  0
 12 11  1  0
 13 12  2  0
 14 13  1  0
 15 14  2  0
 15 16  1  0
 16 17  2  0
 17 12  1  0
 17  9  1  0
 18  7  1  0
 18 19  2  0
 21 20  1  0
 22 21  2  0
 23 21  1  0
 24 23  1  1
 24 25  1  0
 25 18  1  0
 26 24  1  0
 27 26  2  0
 28 26  1  0
M  END
$$$$
