AWN.pdb
     RDKit          3D

 28 29  0  0  1  0  0  0  0  0999 V2000
    7.9579  -17.3943   20.1980 C   0  0  0  0  0  0  0  0  0  0  0  0
    7.3517  -16.2559   20.9932 C   0  0  2  0  0  0  0  0  0  0  0  0
    6.9748  -15.2133   20.0702 N   0  0  0  0  0  0  0  0  0  0  0  0
    8.3674  -15.7304   21.9491 C   0  0  0  0  0  0  0  0  0  0  0  0
    9.1120  -14.7910   21.6291 O   0  0  0  0  0  0  0  0  0  0  0  0
    8.5454  -16.2508   23.2459 N   0  0  0  0  0  0  0  0  0  0  0  0
    9.4897  -15.7717   24.2306 C   0  0  1  0  0  0  0  0  0  0  0  0
    8.9781  -15.7479   25.6111 C   0  0  0  0  0  0  0  0  0  0  0  0
    7.7340  -14.9929   25.8437 C   0  0  0  0  0  0  0  0  0  0  0  0
    6.4177  -15.4544   25.8665 C   0  0  0  0  0  0  0  0  0  0  0  0
    5.5468  -14.4779   26.0736 N   0  0  0  0  0  0  0  0  0  0  0  0
    6.2509  -13.3130   26.1990 C   0  0  0  0  0  0  0  0  0  0  0  0
    5.8304  -11.9976   26.4324 C   0  0  0  0  0  0  0  0  0  0  0  0
    6.8262  -11.0498   26.5102 C   0  0  0  0  0  0  0  0  0  0  0  0
    8.1644  -11.3255   26.3753 C   0  0  0  0  0  0  0  0  0  0  0  0
    8.5488  -12.6226   26.1478 C   0  0  0  0  0  0  0  0  0  0  0  0
    7.5903  -13.6150   26.0598 C   0  0  0  0  0  0  0  0  0  0  0  0
   10.7017  -16.5921   24.0445 C   0  0  0  0  0  0  0  0  0  0  0  0
   11.7410  -16.3933   24.7719 O   0  0  0  0  0  0  0  0  0  0  0  0
   11.3041  -20.5566   24.9312 N   0  0  0  0  0  0  0  0  0  0  0  0
   10.9135  -20.4906   23.5539 C   0  0  0  0  0  0  0  0  0  0  0  0
    9.8530  -21.0781   23.2259 O   0  0  0  0  0  0  0  0  0  0  0  0
   11.6733  -19.7822   22.5205 C   0  0  0  0  0  0  0  0  0  0  0  0
   12.1243  -18.3932   23.0286 C   0  0  2  0  0  0  0  0  0  0  0  0
   10.8729  -17.6467   23.1025 N   0  0  0  0  0  0  0  0  0  0  0  0
   13.0117  -17.7635   22.0369 C   0  0  0  0  0  0  0  0  0  0  0  0
   12.6219  -16.7940   21.3593 O   0  0  0  0  0  0  0  0  0  0  0  0
   14.3150  -18.2623   21.8510 O   0  0  0  0  0  0  0  0  0  0  0  0
  2  3  1  0
  2  1  1  6
  4  2  1  0
  5  4  2  0
  6  4  1  0
  7  6  1  0
  8  9  1  0
  7  8  1  1
  9 10  2  0
 11 10  1  0
 12 11  1  0
 13 12  2  0
 14 13  1  0
 15 14  2  0
 15 16  1  0
 16 17  2  0
 17 12  1  0
 17  9  1  0
 18  7  1  0
 18 19  2  0
 21 20  1  0
 22 21  2  0
 23 21  1  0
 24 23  1  6
 24 25  1  0
 25 18  1  0
 26 24  1  0
 27 26  2  0
 28 26  1  0
M  END
$$$$
