AWN.pdb
     RDKit          3D

 28 29  0  0  1  0  0  0  0  0999 V2000
    7.7927  -14.5622   19.4458 C   0  0  0  0  0  0  0  0  0  0  0  0
    7.3624  -15.3047   20.6946 C   0  0  2  0  0  0  0  0  0  0  0  0
    6.0141  -14.9035   21.0143 N   0  0  0  0  0  0  0  0  0  0  0  0
    8.2697  -14.9395   21.8192 C   0  0  0  0  0  0  0  0  0  0  0  0
    8.6432  -13.7669   21.9764 O   0  0  0  0  0  0  0  0  0  0  0  0
    8.7511  -15.8761   22.7548 N   0  0  0  0  0  0  0  0  0  0  0  0
    9.6220  -15.5884   23.8726 C   0  0  1  0  0  0  0  0  0  0  0  0
    9.0568  -15.9177   25.1918 C   0  0  0  0  0  0  0  0  0  0  0  0
    7.8499  -15.1765   25.5992 C   0  0  0  0  0  0  0  0  0  0  0  0
    6.5267  -15.6150   25.6549 C   0  0  0  0  0  0  0  0  0  0  0  0
    5.6960  -14.6572   26.0387 N   0  0  0  0  0  0  0  0  0  0  0  0
    6.4358  -13.5288   26.2576 C   0  0  0  0  0  0  0  0  0  0  0  0
    6.0646  -12.2455   26.6783 C   0  0  0  0  0  0  0  0  0  0  0  0
    7.0868  -11.3315   26.8036 C   0  0  0  0  0  0  0  0  0  0  0  0
    8.4060  -11.6109   26.5452 C   0  0  0  0  0  0  0  0  0  0  0  0
    8.7420  -12.8761   26.1350 C   0  0  0  0  0  0  0  0  0  0  0  0
    7.7552  -13.8337   25.9916 C   0  0  0  0  0  0  0  0  0  0  0  0
   10.8929  -16.2724   23.5669 C   0  0  0  0  0  0  0  0  0  0  0  0
   10.9164  -17.5382   23.3522 O   0  0  0  0  0  0  0  0  0  0  0  0
   13.5941  -13.9086   20.7094 N   0  0  0  0  0  0  0  0  0  0  0  0
   13.8719  -15.2248   21.2038 C   0  0  0  0  0  0  0  0  0  0  0  0
   13.6982  -16.1863   20.4146 O   0  0  0  0  0  0  0  0  0  0  0  0
   14.3438  -15.5065   22.5622 C   0  0  0  0  0  0  0  0  0  0  0  0
   13.3792  -16.4735   23.2867 C   0  0  2  0  0  0  0  0  0  0  0  0
   12.1780  -15.6657   23.4697 N   0  0  0  0  0  0  0  0  0  0  0  0
   13.9308  -16.8348   24.6030 C   0  0  0  0  0  0  0  0  0  0  0  0
   14.9811  -17.4981   24.6924 O   0  0  0  0  0  0  0  0  0  0  0  0
   13.2643  -16.4274   25.7742 O   0  0  0  0  0  0  0  0  0  0  0  0
  2  3  1  0
  2  1  1  6
  4  2  1  0
  5  4  2  0
  6  4  1  0
  7  6  1  0
  8  9  1  0
  7  8  1  1
  9 10  2  0
 11 10  1  0
 12 11  1  0
 13 12  2  0
 14 13  1  0
 15 14  2  0
 15 16  1  0
 16 17  2  0
 17 12  1  0
 17  9  1  0
 18  7  1  0
 18 19  2  0
 21 20  1  0
 22 21  2  0
 23 21  1  0
 24 23  1  6
 24 25  1  0
 25 18  1  0
 26 24  1  0
 27 26  2  0
 28 26  1  0
M  END
$$$$
