AWN.pdb
     RDKit          3D

 28 29  0  0  1  0  0  0  0  0999 V2000
    8.4450  -15.5259   19.4062 C   0  0  0  0  0  0  0  0  0  0  0  0
    7.6104  -14.9055   20.5081 C   0  0  2  0  0  0  0  0  0  0  0  0
    7.1708  -13.6060   20.0620 N   0  0  0  0  0  0  0  0  0  0  0  0
    8.4482  -14.7539   21.7314 C   0  0  0  0  0  0  0  0  0  0  0  0
    9.2160  -13.7876   21.8575 O   0  0  0  0  0  0  0  0  0  0  0  0
    8.4251  -15.6731   22.7986 N   0  0  0  0  0  0  0  0  0  0  0  0
    9.2231  -15.5967   24.0020 C   0  0  1  0  0  0  0  0  0  0  0  0
    8.4914  -15.8978   25.2439 C   0  0  0  0  0  0  0  0  0  0  0  0
    7.3632  -15.0110   25.5797 C   0  0  0  0  0  0  0  0  0  0  0  0
    6.0005  -15.3049   25.6328 C   0  0  0  0  0  0  0  0  0  0  0  0
    5.2695  -14.2438   25.9403 N   0  0  0  0  0  0  0  0  0  0  0  0
    6.1208  -13.1873   26.1073 C   0  0  0  0  0  0  0  0  0  0  0  0
    5.8805  -11.8488   26.4422 C   0  0  0  0  0  0  0  0  0  0  0  0
    6.9913  -11.0404   26.5348 C   0  0  0  0  0  0  0  0  0  0  0  0
    8.2775  -11.4712   26.3224 C   0  0  0  0  0  0  0  0  0  0  0  0
    8.4845  -12.7875   25.9961 C   0  0  0  0  0  0  0  0  0  0  0  0
    7.4046  -13.6440   25.8888 C   0  0  0  0  0  0  0  0  0  0  0  0
   10.3891  -16.4664   23.7564 C   0  0  0  0  0  0  0  0  0  0  0  0
   10.2714  -17.5282   23.0439 O   0  0  0  0  0  0  0  0  0  0  0  0
   14.2630  -16.5095   21.8992 N   0  0  0  0  0  0  0  0  0  0  0  0
   14.3075  -15.9264   23.2076 C   0  0  0  0  0  0  0  0  0  0  0  0
   14.6072  -14.7093   23.2871 O   0  0  0  0  0  0  0  0  0  0  0  0
   14.0240  -16.6628   24.4423 C   0  0  0  0  0  0  0  0  0  0  0  0
   12.6527  -17.3717   24.3537 C   0  0  2  0  0  0  0  0  0  0  0  0
   11.7141  -16.2608   24.2373 N   0  0  0  0  0  0  0  0  0  0  0  0
   12.3894  -18.1058   25.6023 C   0  0  0  0  0  0  0  0  0  0  0  0
   11.5623  -17.6781   26.4294 O   0  0  0  0  0  0  0  0  0  0  0  0
   13.0799  -19.3040   25.8658 O   0  0  0  0  0  0  0  0  0  0  0  0
  2  3  1  0
  2  1  1  6
  4  2  1  0
  5  4  2  0
  6  4  1  0
  7  6  1  0
  8  9  1  0
  7  8  1  1
  9 10  2  0
 11 10  1  0
 12 11  1  0
 13 12  2  0
 14 13  1  0
 15 14  2  0
 15 16  1  0
 16 17  2  0
 17 12  1  0
 17  9  1  0
 18  7  1  0
 18 19  2  0
 21 20  1  0
 22 21  2  0
 23 21  1  0
 24 23  1  1
 24 25  1  0
 25 18  1  0
 26 24  1  0
 27 26  2  0
 28 26  1  0
M  END
$$$$
