AWN.pdb
     RDKit          3D

 28 29  0  0  1  0  0  0  0  0999 V2000
   10.6487  -18.3689   19.5942 C   0  0  0  0  0  0  0  0  0  0  0  0
   10.0511  -16.9987   19.3462 C   0  0  2  0  0  0  0  0  0  0  0  0
   10.9348  -16.2755   18.4648 N   0  0  0  0  0  0  0  0  0  0  0  0
    9.9372  -16.2717   20.6423 C   0  0  0  0  0  0  0  0  0  0  0  0
   10.8309  -15.4954   21.0137 O   0  0  0  0  0  0  0  0  0  0  0  0
    8.8363  -16.4130   21.5097 N   0  0  0  0  0  0  0  0  0  0  0  0
    8.6481  -15.7163   22.7627 C   0  0  1  0  0  0  0  0  0  0  0  0
    7.2414  -15.5256   23.1537 C   0  0  0  0  0  0  0  0  0  0  0  0
    6.9965  -14.9703   24.4967 C   0  0  0  0  0  0  0  0  0  0  0  0
    6.5741  -15.6245   25.6542 C   0  0  0  0  0  0  0  0  0  0  0  0
    6.4280  -14.7939   26.6756 N   0  0  0  0  0  0  0  0  0  0  0  0
    6.7497  -13.5389   26.2397 C   0  0  0  0  0  0  0  0  0  0  0  0
    6.7734  -12.3060   26.9037 C   0  0  0  0  0  0  0  0  0  0  0  0
    7.1604  -11.2209   26.1495 C   0  0  0  0  0  0  0  0  0  0  0  0
    7.5122  -11.2900   24.8242 C   0  0  0  0  0  0  0  0  0  0  0  0
    7.4806  -12.5104   24.1982 C   0  0  0  0  0  0  0  0  0  0  0  0
    7.0987  -13.6337   24.9079 C   0  0  0  0  0  0  0  0  0  0  0  0
    9.4593  -16.4552   23.7489 C   0  0  0  0  0  0  0  0  0  0  0  0
    9.5817  -16.0183   24.9501 O   0  0  0  0  0  0  0  0  0  0  0  0
   12.7264  -17.7216   22.4720 N   0  0  0  0  0  0  0  0  0  0  0  0
   12.4821  -19.0920   22.8127 C   0  0  0  0  0  0  0  0  0  0  0  0
   13.0889  -19.9688   22.1490 O   0  0  0  0  0  0  0  0  0  0  0  0
   11.5758  -19.5210   23.8812 C   0  0  0  0  0  0  0  0  0  0  0  0
   10.9432  -18.2986   24.5856 C   0  0  2  0  0  0  0  0  0  0  0  0
   10.1648  -17.6717   23.5226 N   0  0  0  0  0  0  0  0  0  0  0  0
   12.0011  -17.3748   25.0270 C   0  0  0  0  0  0  0  0  0  0  0  0
   12.6587  -17.6071   26.0588 O   0  0  0  0  0  0  0  0  0  0  0  0
   12.2728  -16.2155   24.2759 O   0  0  0  0  0  0  0  0  0  0  0  0
  2  3  1  0
  2  1  1  1
  4  2  1  0
  5  4  2  0
  6  4  1  0
  7  6  1  0
  8  9  1  0
  7  8  1  1
  9 10  2  0
 11 10  1  0
 12 11  1  0
 13 12  2  0
 14 13  1  0
 15 14  2  0
 15 16  1  0
 16 17  2  0
 17 12  1  0
 17  9  1  0
 18  7  1  0
 18 19  2  0
 21 20  1  0
 22 21  2  0
 23 21  1  0
 24 23  1  6
 24 25  1  0
 25 18  1  0
 26 24  1  0
 27 26  2  0
 28 26  1  0
M  END
$$$$
