AWN.pdb
     RDKit          3D

 28 29  0  0  1  0  0  0  0  0999 V2000
    6.8340  -14.1614   20.7750 C   0  0  0  0  0  0  0  0  0  0  0  0
    7.8210  -15.3095   20.8357 C   0  0  2  0  0  0  0  0  0  0  0  0
    7.0782  -16.5318   21.0231 N   0  0  0  0  0  0  0  0  0  0  0  0
    8.7408  -15.1047   21.9905 C   0  0  0  0  0  0  0  0  0  0  0  0
    9.5076  -14.1300   22.0243 O   0  0  0  0  0  0  0  0  0  0  0  0
    8.7995  -15.9805   23.0921 N   0  0  0  0  0  0  0  0  0  0  0  0
    9.6120  -15.8032   24.2751 C   0  0  1  0  0  0  0  0  0  0  0  0
    8.9068  -16.0416   25.5455 C   0  0  0  0  0  0  0  0  0  0  0  0
    7.6619  -15.2839   25.7646 C   0  0  0  0  0  0  0  0  0  0  0  0
    6.3401  -15.7202   25.6725 C   0  0  0  0  0  0  0  0  0  0  0  0
    5.4725  -14.7469   25.9061 N   0  0  0  0  0  0  0  0  0  0  0  0
    6.1845  -13.6095   26.1666 C   0  0  0  0  0  0  0  0  0  0  0  0
    5.7697  -12.3091   26.4803 C   0  0  0  0  0  0  0  0  0  0  0  0
    6.7726  -11.3898   26.6931 C   0  0  0  0  0  0  0  0  0  0  0  0
    8.1123  -11.6795   26.6155 C   0  0  0  0  0  0  0  0  0  0  0  0
    8.4910  -12.9615   26.3069 C   0  0  0  0  0  0  0  0  0  0  0  0
    7.5253  -13.9251   26.0826 C   0  0  0  0  0  0  0  0  0  0  0  0
   10.7985  -16.6551   24.0682 C   0  0  0  0  0  0  0  0  0  0  0  0
   11.6039  -16.8974   25.0386 O   0  0  0  0  0  0  0  0  0  0  0  0
    9.6462  -19.7628   21.0675 N   0  0  0  0  0  0  0  0  0  0  0  0
   10.7988  -19.8173   21.9174 C   0  0  0  0  0  0  0  0  0  0  0  0
   10.7172  -20.5184   22.9563 O   0  0  0  0  0  0  0  0  0  0  0  0
   12.0526  -19.1102   21.6430 C   0  0  0  0  0  0  0  0  0  0  0  0
   12.3817  -18.1181   22.7823 C   0  0  2  0  0  0  0  0  0  0  0  0
   11.1851  -17.2861   22.8511 N   0  0  0  0  0  0  0  0  0  0  0  0
   13.5348  -17.2860   22.4013 C   0  0  0  0  0  0  0  0  0  0  0  0
   13.3998  -16.0638   22.2038 O   0  0  0  0  0  0  0  0  0  0  0  0
   14.8043  -17.8772   22.2574 O   0  0  0  0  0  0  0  0  0  0  0  0
  2  3  1  0
  2  1  1  1
  4  2  1  0
  5  4  2  0
  6  4  1  0
  7  6  1  0
  8  9  1  0
  7  8  1  1
  9 10  2  0
 11 10  1  0
 12 11  1  0
 13 12  2  0
 14 13  1  0
 15 14  2  0
 15 16  1  0
 16 17  2  0
 17 12  1  0
 17  9  1  0
 18  7  1  0
 18 19  2  0
 21 20  1  0
 22 21  2  0
 23 21  1  0
 24 23  1  6
 24 25  1  0
 25 18  1  0
 26 24  1  0
 27 26  2  0
 28 26  1  0
M  END
$$$$
