LQC.pdb
     RDKit          3D

 24 23  0  0  1  0  0  0  0  0999 V2000
   31.9394  -23.8451  -10.0847 C   0  0  0  0  0  0  0  0  0  0  0  0
   32.4643  -22.5654  -10.6939 C   0  0  2  0  0  0  0  0  0  0  0  0
   33.6954  -22.0824   -9.9836 C   0  0  0  0  0  0  0  0  0  0  0  0
   31.3604  -21.5044  -10.7068 C   0  0  0  0  0  0  0  0  0  0  0  0
   30.1946  -22.1125  -11.4426 C   0  0  2  0  0  0  0  0  0  0  0  0
   30.6451  -22.4502  -12.7810 N   0  0  0  0  0  0  0  0  0  0  0  0
   29.0348  -21.2087  -11.5442 C   0  0  0  0  0  0  0  0  0  0  0  0
   28.5432  -20.6606  -10.5077 O   0  0  0  0  0  0  0  0  0  0  0  0
   27.2678  -18.8103  -16.8546 N   0  0  0  0  0  0  0  0  0  0  0  0
   28.0796  -18.0495  -15.9542 C   0  0  0  0  0  0  0  0  0  0  0  0
   28.7857  -17.1449  -16.4757 O   0  0  0  0  0  0  0  0  0  0  0  0
   28.0826  -18.3186  -14.4903 C   0  0  0  0  0  0  0  0  0  0  0  0
   27.0838  -19.3999  -14.2248 C   0  0  0  0  0  0  0  0  0  0  0  0
   27.2292  -20.0390  -12.8718 C   0  0  2  0  0  0  0  0  0  0  0  0
   28.3884  -20.8834  -12.7678 N   0  0  0  0  0  0  0  0  0  0  0  0
   25.9950  -20.6891  -12.4017 C   0  0  0  0  0  0  0  0  0  0  0  0
   25.7329  -21.8373  -12.8169 O   0  0  0  0  0  0  0  0  0  0  0  0
   25.1045  -20.0722  -11.5088 N   0  0  0  0  0  0  0  0  0  0  0  0
   23.9523  -20.7626  -10.9516 C   0  0  1  0  0  0  0  0  0  0  0  0
   23.7074  -20.3295   -9.5093 C   0  0  0  0  0  0  0  0  0  0  0  0
   25.1534  -20.6193   -8.4872 S   0  0  0  0  0  0  0  0  0  0  0  0
   22.7262  -20.4771  -11.7436 C   0  0  0  0  0  0  0  0  0  0  0  0
   22.7974  -19.6412  -12.6624 O   0  0  0  0  0  0  0  0  0  0  0  0
   21.5444  -21.1312  -11.4550 O   0  0  0  0  0  0  0  0  0  0  0  0
  2  1  1  1
  2  3  1  0
  4  2  1  0
  4  5  1  0
  5  7  1  0
  5  6  1  6
  7  8  2  0
  9 10  1  0
 10 11  2  0
 10 12  1  0
 12 13  1  0
 14 13  1  6
 15 14  1  0
 15  7  1  0
 16 17  2  0
 16 14  1  0
 18 16  1  0
 19 18  1  0
 19 20  1  1
 21 20  1  0
 22 19  1  0
 22 24  1  0
 23 22  2  0
M  END
$$$$
