LQC.pdb
     RDKit          3D

 24 23  0  0  1  0  0  0  0  0999 V2000
   19.6893  -17.0961  -16.4049 C   0  0  0  0  0  0  0  0  0  0  0  0
   19.4492  -18.5420  -16.7736 C   0  0  2  0  0  0  0  0  0  0  0  0
   18.0028  -18.7982  -17.0828 C   0  0  0  0  0  0  0  0  0  0  0  0
   19.9643  -19.4557  -15.6581 C   0  0  0  0  0  0  0  0  0  0  0  0
   21.3383  -18.9536  -15.2974 C   0  0  2  0  0  0  0  0  0  0  0  0
   22.1941  -19.1392  -16.4556 N   0  0  0  0  0  0  0  0  0  0  0  0
   21.9329  -19.6590  -14.1479 C   0  0  0  0  0  0  0  0  0  0  0  0
   21.3259  -19.7135  -13.0321 O   0  0  0  0  0  0  0  0  0  0  0  0
   24.8645  -24.9766  -14.2457 N   0  0  0  0  0  0  0  0  0  0  0  0
   23.6151  -24.4959  -14.7521 C   0  0  0  0  0  0  0  0  0  0  0  0
   22.9974  -25.2727  -15.5291 O   0  0  0  0  0  0  0  0  0  0  0  0
   23.0855  -23.1563  -14.3771 C   0  0  0  0  0  0  0  0  0  0  0  0
   24.1048  -22.4917  -13.5072 C   0  0  0  0  0  0  0  0  0  0  0  0
   23.7355  -21.0913  -13.1040 C   0  0  2  0  0  0  0  0  0  0  0  0
   23.1926  -20.3164  -14.1867 N   0  0  0  0  0  0  0  0  0  0  0  0
   24.8084  -20.3956  -12.3749 C   0  0  0  0  0  0  0  0  0  0  0  0
   25.4088  -19.4630  -12.9485 O   0  0  0  0  0  0  0  0  0  0  0  0
   25.1821  -20.7375  -11.0655 N   0  0  0  0  0  0  0  0  0  0  0  0
   26.4662  -20.3622  -10.4957 C   0  0  1  0  0  0  0  0  0  0  0  0
   26.5071  -20.6727   -9.0025 C   0  0  0  0  0  0  0  0  0  0  0  0
   25.4723  -19.5396   -8.0724 S   0  0  0  0  0  0  0  0  0  0  0  0
   27.5777  -21.0945  -11.1594 C   0  0  0  0  0  0  0  0  0  0  0  0
   27.3091  -22.1364  -11.7842 O   0  0  0  0  0  0  0  0  0  0  0  0
   28.8715  -20.6180  -11.0760 O   0  0  0  0  0  0  0  0  0  0  0  0
  2  1  1  1
  2  3  1  0
  4  2  1  0
  4  5  1  0
  5  7  1  0
  5  6  1  6
  7  8  2  0
  9 10  1  0
 10 11  2  0
 10 12  1  0
 12 13  1  0
 14 13  1  6
 15 14  1  0
 15  7  1  0
 16 17  2  0
 16 14  1  0
 18 16  1  0
 19 18  1  0
 19 20  1  1
 21 20  1  0
 22 19  1  0
 22 24  1  0
 23 22  2  0
M  END
$$$$
