LQC.pdb
     RDKit          3D

 24 23  0  0  1  0  0  0  0  0999 V2000
   25.6971  -26.5924  -17.8220 C   0  0  0  0  0  0  0  0  0  0  0  0
   26.6228  -25.8150  -16.9147 C   0  0  2  0  0  0  0  0  0  0  0  0
   27.8681  -26.5928  -16.6023 C   0  0  0  0  0  0  0  0  0  0  0  0
   25.8769  -25.3985  -15.6440 C   0  0  0  0  0  0  0  0  0  0  0  0
   24.7198  -24.5431  -16.0911 C   0  0  2  0  0  0  0  0  0  0  0  0
   25.2581  -23.2702  -16.5362 N   0  0  0  0  0  0  0  0  0  0  0  0
   23.7323  -24.2962  -15.0251 C   0  0  0  0  0  0  0  0  0  0  0  0
   24.0165  -23.5534  -14.0331 O   0  0  0  0  0  0  0  0  0  0  0  0
   18.8641  -21.4542  -15.1869 N   0  0  0  0  0  0  0  0  0  0  0  0
   18.6176  -22.0375  -13.9034 C   0  0  0  0  0  0  0  0  0  0  0  0
   17.6240  -21.5866  -13.2723 O   0  0  0  0  0  0  0  0  0  0  0  0
   19.4890  -23.1127  -13.3554 C   0  0  0  0  0  0  0  0  0  0  0  0
   20.5559  -23.3922  -14.3657 C   0  0  0  0  0  0  0  0  0  0  0  0
   21.4311  -24.5628  -14.0133 C   0  0  2  0  0  0  0  0  0  0  0  0
   22.4225  -24.8483  -15.0148 N   0  0  0  0  0  0  0  0  0  0  0  0
   20.6696  -25.7516  -13.5966 C   0  0  0  0  0  0  0  0  0  0  0  0
   20.0784  -26.4161  -14.4731 O   0  0  0  0  0  0  0  0  0  0  0  0
   20.5820  -26.1665  -12.2582 N   0  0  0  0  0  0  0  0  0  0  0  0
   19.8598  -27.3630  -11.8563 C   0  0  1  0  0  0  0  0  0  0  0  0
   20.2391  -27.7725  -10.4364 C   0  0  0  0  0  0  0  0  0  0  0  0
   19.5836  -29.3921  -10.0279 S   0  0  0  0  0  0  0  0  0  0  0  0
   18.3902  -27.1396  -11.9052 C   0  0  0  0  0  0  0  0  0  0  0  0
   17.9516  -26.0199  -11.5859 O   0  0  0  0  0  0  0  0  0  0  0  0
   17.5448  -28.1592  -12.2974 O   0  0  0  0  0  0  0  0  0  0  0  0
  2  1  1  6
  2  3  1  0
  4  2  1  0
  4  5  1  0
  5  7  1  0
  5  6  1  1
  7  8  2  0
  9 10  1  0
 10 11  2  0
 10 12  1  0
 12 13  1  0
 14 13  1  6
 15 14  1  0
 15  7  1  0
 16 17  2  0
 16 14  1  0
 18 16  1  0
 19 18  1  0
 19 20  1  1
 21 20  1  0
 22 19  1  0
 22 24  1  0
 23 22  2  0
M  END
$$$$
