LQC.pdb
     RDKit          3D

 24 23  0  0  1  0  0  0  0  0999 V2000
   26.2043  -22.2592  -11.4146 C   0  0  0  0  0  0  0  0  0  0  0  0
   26.2035  -20.7882  -11.0671 C   0  0  2  0  0  0  0  0  0  0  0  0
   26.6948  -20.5530   -9.6684 C   0  0  0  0  0  0  0  0  0  0  0  0
   24.8058  -20.2027  -11.2865 C   0  0  0  0  0  0  0  0  0  0  0  0
   24.3349  -20.7150  -12.6229 C   0  0  2  0  0  0  0  0  0  0  0  0
   25.1144  -20.0484  -13.6506 N   0  0  0  0  0  0  0  0  0  0  0  0
   22.9041  -20.4633  -12.8718 C   0  0  0  0  0  0  0  0  0  0  0  0
   22.4147  -19.2976  -12.7372 O   0  0  0  0  0  0  0  0  0  0  0  0
   21.0067  -18.4747  -16.5425 N   0  0  0  0  0  0  0  0  0  0  0  0
   21.3373  -19.8224  -16.8928 C   0  0  0  0  0  0  0  0  0  0  0  0
   21.9201  -19.9794  -17.9994 O   0  0  0  0  0  0  0  0  0  0  0  0
   21.0080  -20.9641  -15.9962 C   0  0  0  0  0  0  0  0  0  0  0  0
   20.3542  -20.4067  -14.7719 C   0  0  0  0  0  0  0  0  0  0  0  0
   20.5874  -21.2278  -13.5343 C   0  0  2  0  0  0  0  0  0  0  0  0
   21.9803  -21.4676  -13.2699 N   0  0  0  0  0  0  0  0  0  0  0  0
   19.7699  -22.4510  -13.4871 C   0  0  0  0  0  0  0  0  0  0  0  0
   20.2653  -23.5138  -13.9164 O   0  0  0  0  0  0  0  0  0  0  0  0
   18.4607  -22.4702  -12.9806 N   0  0  0  0  0  0  0  0  0  0  0  0
   17.6612  -23.6837  -12.9263 C   0  0  1  0  0  0  0  0  0  0  0  0
   16.9341  -23.7932  -11.5895 C   0  0  0  0  0  0  0  0  0  0  0  0
   16.5845  -25.5038  -11.1757 S   0  0  0  0  0  0  0  0  0  0  0  0
   16.6488  -23.7036  -14.0158 C   0  0  0  0  0  0  0  0  0  0  0  0
   16.2543  -22.6170  -14.4759 O   0  0  0  0  0  0  0  0  0  0  0  0
   16.1674  -24.9061  -14.4953 O   0  0  0  0  0  0  0  0  0  0  0  0
  2  1  1  1
  2  3  1  0
  4  2  1  0
  4  5  1  0
  5  7  1  0
  5  6  1  6
  7  8  2  0
  9 10  1  0
 10 11  2  0
 10 12  1  0
 12 13  1  0
 14 13  1  6
 15 14  1  0
 15  7  1  0
 16 17  2  0
 16 14  1  0
 18 16  1  0
 19 18  1  0
 19 20  1  1
 21 20  1  0
 22 19  1  0
 22 24  1  0
 23 22  2  0
M  END
$$$$
