LQC.pdb
     RDKit          3D

 24 23  0  0  1  0  0  0  0  0999 V2000
   12.4334   -7.7175   -7.6300 C   0  0  0  0  0  0  0  0  0  0  0  0
   13.2798   -7.6544   -8.8807 C   0  0  2  0  0  0  0  0  0  0  0  0
   12.5258   -8.1492  -10.0807 C   0  0  0  0  0  0  0  0  0  0  0  0
   14.5828   -8.4294   -8.6666 C   0  0  0  0  0  0  0  0  0  0  0  0
   15.3534   -8.3308   -9.9576 C   0  0  2  0  0  0  0  0  0  0  0  0
   16.3595   -9.3776   -9.9522 N   0  0  0  0  0  0  0  0  0  0  0  0
   16.0210   -7.0293  -10.1393 C   0  0  0  0  0  0  0  0  0  0  0  0
   16.9776   -6.6762   -9.3798 O   0  0  0  0  0  0  0  0  0  0  0  0
   17.3707   -3.8978  -15.2725 N   0  0  0  0  0  0  0  0  0  0  0  0
   18.0730   -4.9777  -14.6486 C   0  0  0  0  0  0  0  0  0  0  0  0
   18.9488   -5.5483  -15.3530 O   0  0  0  0  0  0  0  0  0  0  0  0
   17.7789   -5.3943  -13.2502 C   0  0  0  0  0  0  0  0  0  0  0  0
   16.6785   -4.5207  -12.7375 C   0  0  0  0  0  0  0  0  0  0  0  0
   16.2926   -4.8069  -11.3129 C   0  0  2  0  0  0  0  0  0  0  0  0
   15.6650   -6.0895  -11.1446 N   0  0  0  0  0  0  0  0  0  0  0  0
   15.5426   -3.7079  -10.6831 C   0  0  0  0  0  0  0  0  0  0  0  0
   14.2955   -3.7280  -10.7441 O   0  0  0  0  0  0  0  0  0  0  0  0
   16.1710   -2.6424  -10.0192 N   0  0  0  0  0  0  0  0  0  0  0  0
   15.4297   -1.5223   -9.4620 C   0  0  1  0  0  0  0  0  0  0  0  0
   15.7396   -1.3532   -7.9777 C   0  0  0  0  0  0  0  0  0  0  0  0
   14.9407    0.1068   -7.3071 S   0  0  0  0  0  0  0  0  0  0  0  0
   15.7730   -0.2556  -10.1619 C   0  0  0  0  0  0  0  0  0  0  0  0
   16.9358   -0.1072  -10.5790 O   0  0  0  0  0  0  0  0  0  0  0  0
   14.8144    0.7233  -10.3374 O   0  0  0  0  0  0  0  0  0  0  0  0
  2  1  1  1
  2  3  1  0
  4  2  1  0
  4  5  1  0
  5  7  1  0
  5  6  1  1
  7  8  2  0
  9 10  1  0
 10 11  2  0
 10 12  1  0
 12 13  1  0
 14 13  1  6
 15 14  1  0
 15  7  1  0
 16 17  2  0
 16 14  1  0
 18 16  1  0
 19 18  1  0
 19 20  1  1
 21 20  1  0
 22 19  1  0
 22 24  1  0
 23 22  2  0
M  END
$$$$
