LQC.pdb
     RDKit          3D

 24 23  0  0  1  0  0  0  0  0999 V2000
   27.9749  -16.2646  -16.7387 C   0  0  0  0  0  0  0  0  0  0  0  0
   26.5377  -16.6818  -16.9502 C   0  0  2  0  0  0  0  0  0  0  0  0
   25.7663  -15.6366  -17.7023 C   0  0  0  0  0  0  0  0  0  0  0  0
   25.8880  -17.0109  -15.6032 C   0  0  0  0  0  0  0  0  0  0  0  0
   26.7505  -18.0666  -14.9616 C   0  0  2  0  0  0  0  0  0  0  0  0
   27.0985  -19.0348  -15.9862 N   0  0  0  0  0  0  0  0  0  0  0  0
   26.0826  -18.7681  -13.8506 C   0  0  0  0  0  0  0  0  0  0  0  0
   25.3749  -18.1299  -13.0089 O   0  0  0  0  0  0  0  0  0  0  0  0
   24.6221  -24.8679  -13.5717 N   0  0  0  0  0  0  0  0  0  0  0  0
   23.9954  -23.8566  -14.3673 C   0  0  0  0  0  0  0  0  0  0  0  0
   23.1886  -24.2645  -15.2456 O   0  0  0  0  0  0  0  0  0  0  0  0
   24.2861  -22.4114  -14.1615 C   0  0  0  0  0  0  0  0  0  0  0  0
   25.1412  -22.2890  -12.9404 C   0  0  0  0  0  0  0  0  0  0  0  0
   25.4826  -20.8698  -12.5805 C   0  0  2  0  0  0  0  0  0  0  0  0
   26.1692  -20.1700  -13.6322 N   0  0  0  0  0  0  0  0  0  0  0  0
   26.1472  -20.7468  -11.2728 C   0  0  0  0  0  0  0  0  0  0  0  0
   27.3586  -21.0389  -11.1921 O   0  0  0  0  0  0  0  0  0  0  0  0
   25.4761  -20.3160  -10.1175 N   0  0  0  0  0  0  0  0  0  0  0  0
   26.0701  -20.3959   -8.7925 C   0  0  1  0  0  0  0  0  0  0  0  0
   26.5876  -19.0311   -8.3484 C   0  0  0  0  0  0  0  0  0  0  0  0
   27.2137  -19.0866   -6.6678 S   0  0  0  0  0  0  0  0  0  0  0  0
   25.0778  -20.8715   -7.7919 C   0  0  0  0  0  0  0  0  0  0  0  0
   23.8712  -20.8366   -8.0933 O   0  0  0  0  0  0  0  0  0  0  0  0
   25.4998  -21.3380   -6.5621 O   0  0  0  0  0  0  0  0  0  0  0  0
  2  1  1  1
  2  3  1  0
  4  2  1  0
  4  5  1  0
  5  7  1  0
  5  6  1  6
  7  8  2  0
  9 10  1  0
 10 11  2  0
 10 12  1  0
 12 13  1  0
 14 13  1  6
 15 14  1  0
 15  7  1  0
 16 17  2  0
 16 14  1  0
 18 16  1  0
 19 18  1  0
 19 20  1  1
 21 20  1  0
 22 19  1  0
 22 24  1  0
 23 22  2  0
M  END
$$$$
