LQC.pdb
     RDKit          3D

 24 23  0  0  1  0  0  0  0  0999 V2000
   22.2365  -21.6055  -10.1899 C   0  0  0  0  0  0  0  0  0  0  0  0
   23.1299  -20.6967   -9.3773 C   0  0  2  0  0  0  0  0  0  0  0  0
   22.3306  -19.6959   -8.5944 C   0  0  0  0  0  0  0  0  0  0  0  0
   24.1530  -20.0187  -10.2928 C   0  0  0  0  0  0  0  0  0  0  0  0
   24.8356  -21.1222  -11.0586 C   0  0  2  0  0  0  0  0  0  0  0  0
   26.1384  -21.3378  -10.4550 N   0  0  0  0  0  0  0  0  0  0  0  0
   25.0181  -20.8123  -12.4880 C   0  0  0  0  0  0  0  0  0  0  0  0
   25.7945  -19.8757  -12.8575 O   0  0  0  0  0  0  0  0  0  0  0  0
   25.5801  -25.0579  -15.4096 N   0  0  0  0  0  0  0  0  0  0  0  0
   26.5363  -24.1453  -15.9586 C   0  0  0  0  0  0  0  0  0  0  0  0
   27.6586  -24.6342  -16.2590 O   0  0  0  0  0  0  0  0  0  0  0  0
   26.2143  -22.7059  -16.1590 C   0  0  0  0  0  0  0  0  0  0  0  0
   24.7919  -22.4966  -15.7466 C   0  0  0  0  0  0  0  0  0  0  0  0
   24.5738  -21.2480  -14.9381 C   0  0  2  0  0  0  0  0  0  0  0  0
   24.3644  -21.5099  -13.5399 N   0  0  0  0  0  0  0  0  0  0  0  0
   23.5603  -20.3514  -15.5176 C   0  0  0  0  0  0  0  0  0  0  0  0
   22.3829  -20.4447  -15.1124 O   0  0  0  0  0  0  0  0  0  0  0  0
   23.8635  -19.3993  -16.5038 N   0  0  0  0  0  0  0  0  0  0  0  0
   22.8560  -18.5246  -17.0822 C   0  0  1  0  0  0  0  0  0  0  0  0
   23.4911  -17.2402  -17.6064 C   0  0  0  0  0  0  0  0  0  0  0  0
   22.2607  -16.1524  -18.3291 S   0  0  0  0  0  0  0  0  0  0  0  0
   22.1516  -19.1949  -18.2076 C   0  0  0  0  0  0  0  0  0  0  0  0
   22.8215  -19.8842  -18.9975 O   0  0  0  0  0  0  0  0  0  0  0  0
   20.7867  -19.0469  -18.3599 O   0  0  0  0  0  0  0  0  0  0  0  0
  2  1  1  6
  2  3  1  0
  4  2  1  0
  4  5  1  0
  5  7  1  0
  5  6  1  1
  7  8  2  0
  9 10  1  0
 10 11  2  0
 10 12  1  0
 12 13  1  0
 14 13  1  6
 15 14  1  0
 15  7  1  0
 16 17  2  0
 16 14  1  0
 18 16  1  0
 19 18  1  0
 19 20  1  6
 21 20  1  0
 22 19  1  0
 22 24  1  0
 23 22  2  0
M  END
$$$$
