LQC.pdb
     RDKit          3D

 24 23  0  0  1  0  0  0  0  0999 V2000
   16.0337  -11.3983  -16.1659 C   0  0  0  0  0  0  0  0  0  0  0  0
   16.9404  -12.5785  -15.9026 C   0  0  2  0  0  0  0  0  0  0  0  0
   16.8768  -13.0118  -14.4668 C   0  0  0  0  0  0  0  0  0  0  0  0
   18.3706  -12.2421  -16.3338 C   0  0  0  0  0  0  0  0  0  0  0  0
   18.7629  -11.0011  -15.5746 C   0  0  2  0  0  0  0  0  0  0  0  0
   17.9252   -9.9125  -16.0452 N   0  0  0  0  0  0  0  0  0  0  0  0
   20.1769  -10.6283  -15.7593 C   0  0  0  0  0  0  0  0  0  0  0  0
   21.1094  -11.3669  -15.3106 O   0  0  0  0  0  0  0  0  0  0  0  0
   23.4149   -9.9499  -20.4460 N   0  0  0  0  0  0  0  0  0  0  0  0
   24.3166   -9.2702  -19.5665 C   0  0  0  0  0  0  0  0  0  0  0  0
   25.4470   -8.9849  -20.0457 O   0  0  0  0  0  0  0  0  0  0  0  0
   23.9324   -8.9254  -18.1704 C   0  0  0  0  0  0  0  0  0  0  0  0
   22.4915   -9.2853  -17.9934 C   0  0  0  0  0  0  0  0  0  0  0  0
   21.9806   -9.0673  -16.5963 C   0  0  2  0  0  0  0  0  0  0  0  0
   20.6048   -9.4513  -16.4318 N   0  0  0  0  0  0  0  0  0  0  0  0
   22.2728   -7.7220  -16.0752 C   0  0  0  0  0  0  0  0  0  0  0  0
   23.4671   -7.3769  -15.9571 O   0  0  0  0  0  0  0  0  0  0  0  0
   21.2663   -6.8151  -15.7070 N   0  0  0  0  0  0  0  0  0  0  0  0
   21.5605   -5.4904  -15.1844 C   0  0  1  0  0  0  0  0  0  0  0  0
   20.4106   -4.5289  -15.4689 C   0  0  0  0  0  0  0  0  0  0  0  0
   20.6611   -2.9524  -14.6493 S   0  0  0  0  0  0  0  0  0  0  0  0
   21.7840   -5.5353  -13.7146 C   0  0  0  0  0  0  0  0  0  0  0  0
   21.1510   -6.3719  -13.0459 O   0  0  0  0  0  0  0  0  0  0  0  0
   22.6755   -4.6636  -13.1202 O   0  0  0  0  0  0  0  0  0  0  0  0
  2  1  1  1
  2  3  1  0
  4  2  1  0
  4  5  1  0
  5  7  1  0
  5  6  1  6
  7  8  2  0
  9 10  1  0
 10 11  2  0
 10 12  1  0
 12 13  1  0
 14 13  1  6
 15 14  1  0
 15  7  1  0
 16 17  2  0
 16 14  1  0
 18 16  1  0
 19 18  1  0
 19 20  1  1
 21 20  1  0
 22 19  1  0
 22 24  1  0
 23 22  2  0
M  END
$$$$
