LQC.pdb
     RDKit          3D

 24 23  0  0  1  0  0  0  0  0999 V2000
   28.9122  -17.4885  -17.1845 C   0  0  0  0  0  0  0  0  0  0  0  0
   27.4580  -17.3162  -17.5590 C   0  0  2  0  0  0  0  0  0  0  0  0
   27.2624  -16.1493  -18.4828 C   0  0  0  0  0  0  0  0  0  0  0  0
   26.6062  -17.1902  -16.2929 C   0  0  0  0  0  0  0  0  0  0  0  0
   26.9356  -18.3862  -15.4379 C   0  0  2  0  0  0  0  0  0  0  0  0
   26.8308  -19.5687  -16.2739 N   0  0  0  0  0  0  0  0  0  0  0  0
   26.0361  -18.5399  -14.2804 C   0  0  0  0  0  0  0  0  0  0  0  0
   25.8524  -17.5809  -13.4662 O   0  0  0  0  0  0  0  0  0  0  0  0
   20.7424  -21.5440  -14.0914 N   0  0  0  0  0  0  0  0  0  0  0  0
   20.8480  -21.1539  -12.7184 C   0  0  0  0  0  0  0  0  0  0  0  0
   19.8249  -21.3469  -12.0081 O   0  0  0  0  0  0  0  0  0  0  0  0
   22.0970  -20.5564  -12.1717 C   0  0  0  0  0  0  0  0  0  0  0  0
   23.0954  -20.4933  -13.2837 C   0  0  0  0  0  0  0  0  0  0  0  0
   24.4076  -19.8778  -12.8845 C   0  0  2  0  0  0  0  0  0  0  0  0
   25.3213  -19.7326  -13.9851 N   0  0  0  0  0  0  0  0  0  0  0  0
   25.0155  -20.5201  -11.7078 C   0  0  0  0  0  0  0  0  0  0  0  0
   25.4941  -21.6662  -11.8372 O   0  0  0  0  0  0  0  0  0  0  0  0
   25.0785  -19.8980  -10.4508 N   0  0  0  0  0  0  0  0  0  0  0  0
   25.5961  -20.5712   -9.2703 C   0  0  1  0  0  0  0  0  0  0  0  0
   26.0153  -19.5577   -8.2097 C   0  0  0  0  0  0  0  0  0  0  0  0
   27.0295  -18.2568   -8.9160 S   0  0  0  0  0  0  0  0  0  0  0  0
   24.5719  -21.4739   -8.6801 C   0  0  0  0  0  0  0  0  0  0  0  0
   23.4333  -21.4838   -9.1816 O   0  0  0  0  0  0  0  0  0  0  0  0
   24.8910  -22.2760   -7.6018 O   0  0  0  0  0  0  0  0  0  0  0  0
  2  1  1  1
  2  3  1  0
  4  2  1  0
  4  5  1  0
  5  7  1  0
  5  6  1  6
  7  8  2  0
  9 10  1  0
 10 11  2  0
 10 12  1  0
 12 13  1  0
 14 13  1  6
 15 14  1  0
 15  7  1  0
 16 17  2  0
 16 14  1  0
 18 16  1  0
 19 18  1  0
 19 20  1  1
 21 20  1  0
 22 19  1  0
 22 24  1  0
 23 22  2  0
M  END
$$$$
