LQC.pdb
     RDKit          3D

 24 23  0  0  1  0  0  0  0  0999 V2000
   25.5277  -21.1478   -8.9051 C   0  0  0  0  0  0  0  0  0  0  0  0
   24.4228  -20.6162   -9.7889 C   0  0  2  0  0  0  0  0  0  0  0  0
   23.0712  -21.0502   -9.3011 C   0  0  0  0  0  0  0  0  0  0  0  0
   24.6683  -21.0393  -11.2398 C   0  0  0  0  0  0  0  0  0  0  0  0
   25.2061  -19.8251  -11.9517 C   0  0  2  0  0  0  0  0  0  0  0  0
   24.3507  -18.7012  -11.6153 N   0  0  0  0  0  0  0  0  0  0  0  0
   25.2391  -19.9767  -13.4175 C   0  0  0  0  0  0  0  0  0  0  0  0
   25.8043  -20.9801  -13.9562 O   0  0  0  0  0  0  0  0  0  0  0  0
   20.0698  -20.7916  -15.9478 N   0  0  0  0  0  0  0  0  0  0  0  0
   21.1591  -19.9033  -16.2179 C   0  0  0  0  0  0  0  0  0  0  0  0
   20.8484  -18.7682  -16.6692 O   0  0  0  0  0  0  0  0  0  0  0  0
   22.5716  -20.3060  -15.9767 C   0  0  0  0  0  0  0  0  0  0  0  0
   23.4495  -19.1927  -16.4531 C   0  0  0  0  0  0  0  0  0  0  0  0
   24.7790  -19.1290  -15.7542 C   0  0  2  0  0  0  0  0  0  0  0  0
   24.6616  -19.0460  -14.3236 N   0  0  0  0  0  0  0  0  0  0  0  0
   25.6843  -18.1160  -16.3209 C   0  0  0  0  0  0  0  0  0  0  0  0
   25.5823  -16.9375  -15.9208 O   0  0  0  0  0  0  0  0  0  0  0  0
   26.6539  -18.4208  -17.2893 N   0  0  0  0  0  0  0  0  0  0  0  0
   27.5547  -17.4187  -17.8362 C   0  0  1  0  0  0  0  0  0  0  0  0
   28.9738  -17.6249  -17.3153 C   0  0  0  0  0  0  0  0  0  0  0  0
   30.1373  -16.5410  -18.1466 S   0  0  0  0  0  0  0  0  0  0  0  0
   27.5844  -17.4836  -19.3219 C   0  0  0  0  0  0  0  0  0  0  0  0
   27.4969  -18.5987  -19.8666 O   0  0  0  0  0  0  0  0  0  0  0  0
   27.7067  -16.3262  -20.0658 O   0  0  0  0  0  0  0  0  0  0  0  0
  2  1  1  1
  2  3  1  0
  4  2  1  0
  4  5  1  0
  5  7  1  0
  5  6  1  6
  7  8  2  0
  9 10  1  0
 10 11  2  0
 10 12  1  0
 12 13  1  0
 14 13  1  6
 15 14  1  0
 15  7  1  0
 16 17  2  0
 16 14  1  0
 18 16  1  0
 19 18  1  0
 19 20  1  1
 21 20  1  0
 22 19  1  0
 22 24  1  0
 23 22  2  0
M  END
$$$$
