LQC.pdb
     RDKit          3D

 24 23  0  0  1  0  0  0  0  0999 V2000
   16.7115  -15.4378  -16.0413 C   0  0  0  0  0  0  0  0  0  0  0  0
   18.1185  -15.8318  -15.6548 C   0  0  2  0  0  0  0  0  0  0  0  0
   18.1426  -16.5803  -14.3538 C   0  0  0  0  0  0  0  0  0  0  0  0
   19.0140  -14.5904  -15.6150 C   0  0  0  0  0  0  0  0  0  0  0  0
   19.0855  -14.0722  -17.0280 C   0  0  2  0  0  0  0  0  0  0  0  0
   19.9226  -14.9816  -17.7898 N   0  0  0  0  0  0  0  0  0  0  0  0
   19.6496  -12.7137  -17.1220 C   0  0  0  0  0  0  0  0  0  0  0  0
   20.9074  -12.5316  -17.1582 O   0  0  0  0  0  0  0  0  0  0  0  0
   16.3855   -7.1609  -19.8437 N   0  0  0  0  0  0  0  0  0  0  0  0
   17.1931   -8.3424  -19.8581 C   0  0  0  0  0  0  0  0  0  0  0  0
   17.6417   -8.6924  -20.9828 O   0  0  0  0  0  0  0  0  0  0  0  0
   17.4803   -9.1056  -18.6128 C   0  0  0  0  0  0  0  0  0  0  0  0
   18.8875   -9.6049  -18.6999 C   0  0  0  0  0  0  0  0  0  0  0  0
   19.3925  -10.2169  -17.4229 C   0  0  2  0  0  0  0  0  0  0  0  0
   18.8629  -11.5311  -17.1783 N   0  0  0  0  0  0  0  0  0  0  0  0
   19.2731   -9.3191  -16.2625 C   0  0  0  0  0  0  0  0  0  0  0  0
   18.2514   -9.4022  -15.5495 O   0  0  0  0  0  0  0  0  0  0  0  0
   20.2583   -8.3769  -15.9269 N   0  0  0  0  0  0  0  0  0  0  0  0
   20.1000   -7.4379  -14.8278 C   0  0  1  0  0  0  0  0  0  0  0  0
   21.4589   -7.0093  -14.2824 C   0  0  0  0  0  0  0  0  0  0  0  0
   22.3040   -8.3786  -13.4884 S   0  0  0  0  0  0  0  0  0  0  0  0
   19.3646   -6.2223  -15.2678 C   0  0  0  0  0  0  0  0  0  0  0  0
   19.2690   -5.9986  -16.4880 O   0  0  0  0  0  0  0  0  0  0  0  0
   18.8064   -5.3715  -14.3337 O   0  0  0  0  0  0  0  0  0  0  0  0
  2  1  1  1
  2  3  1  0
  4  2  1  0
  4  5  1  0
  5  7  1  0
  5  6  1  6
  7  8  2  0
  9 10  1  0
 10 11  2  0
 10 12  1  0
 12 13  1  0
 14 13  1  6
 15 14  1  0
 15  7  1  0
 16 17  2  0
 16 14  1  0
 18 16  1  0
 19 18  1  0
 19 20  1  6
 21 20  1  0
 22 19  1  0
 22 24  1  0
 23 22  2  0
M  END
$$$$
