LQC.pdb
     RDKit          3D

 24 23  0  0  1  0  0  0  0  0999 V2000
   11.1622  -12.3052  -12.3743 C   0  0  0  0  0  0  0  0  0  0  0  0
   11.7992  -13.1891  -11.3268 C   0  0  2  0  0  0  0  0  0  0  0  0
   10.8381  -13.5100  -10.2193 C   0  0  0  0  0  0  0  0  0  0  0  0
   13.0779  -12.5323  -10.7996 C   0  0  0  0  0  0  0  0  0  0  0  0
   13.9853  -12.3526  -11.9889 C   0  0  2  0  0  0  0  0  0  0  0  0
   14.5901  -13.6399  -12.2811 N   0  0  0  0  0  0  0  0  0  0  0  0
   15.0550  -11.3644  -11.7612 C   0  0  0  0  0  0  0  0  0  0  0  0
   15.9509  -11.5652  -10.8817 O   0  0  0  0  0  0  0  0  0  0  0  0
   18.5875   -8.3420  -15.6360 N   0  0  0  0  0  0  0  0  0  0  0  0
   17.1991   -8.5929  -15.8766 C   0  0  0  0  0  0  0  0  0  0  0  0
   16.8274   -8.5385  -17.0798 O   0  0  0  0  0  0  0  0  0  0  0  0
   16.2581   -8.8991  -14.7647 C   0  0  0  0  0  0  0  0  0  0  0  0
   17.0488   -8.9291  -13.4954 C   0  0  0  0  0  0  0  0  0  0  0  0
   16.2151   -9.1766  -12.2690 C   0  0  2  0  0  0  0  0  0  0  0  0
   15.1727  -10.1440  -12.4805 N   0  0  0  0  0  0  0  0  0  0  0  0
   15.7359   -7.9382  -11.6337 C   0  0  0  0  0  0  0  0  0  0  0  0
   14.7088   -7.3947  -12.0910 O   0  0  0  0  0  0  0  0  0  0  0  0
   16.3849   -7.3461  -10.5387 N   0  0  0  0  0  0  0  0  0  0  0  0
   15.9161   -6.1141   -9.9246 C   0  0  1  0  0  0  0  0  0  0  0  0
   16.4745   -5.9670   -8.5124 C   0  0  0  0  0  0  0  0  0  0  0  0
   15.9130   -7.2974   -7.4474 S   0  0  0  0  0  0  0  0  0  0  0  0
   16.3331   -4.9296  -10.7216 C   0  0  0  0  0  0  0  0  0  0  0  0
   17.1461   -5.0973  -11.6484 O   0  0  0  0  0  0  0  0  0  0  0  0
   15.8223   -3.6801  -10.4289 O   0  0  0  0  0  0  0  0  0  0  0  0
  2  1  1  6
  2  3  1  0
  4  2  1  0
  4  5  1  0
  5  7  1  0
  5  6  1  1
  7  8  2  0
  9 10  1  0
 10 11  2  0
 10 12  1  0
 12 13  1  0
 14 13  1  6
 15 14  1  0
 15  7  1  0
 16 17  2  0
 16 14  1  0
 18 16  1  0
 19 18  1  0
 19 20  1  1
 21 20  1  0
 22 19  1  0
 22 24  1  0
 23 22  2  0
M  END
$$$$
