GHS.pdb
     RDKit          3D

 21 21  0  0  1  0  0  0  0  0999 V2000
   32.3375  -27.6005  -20.0196 N   0  0  0  0  0  0  0  0  0  0  0  0
   31.0565  -28.2259  -20.1421 C   0  0  0  0  0  0  0  0  0  0  0  0
   30.5752  -28.7749  -18.8302 C   0  0  0  0  0  0  0  0  0  0  0  0
   31.2644  -28.5734  -17.8040 O   0  0  0  0  0  0  0  0  0  0  0  0
   29.3805  -29.5012  -18.7351 N   0  0  0  0  0  0  0  0  0  0  0  0
   28.8283  -30.0462  -17.5344 C   0  0  1  0  0  0  0  0  0  0  0  0
   27.6881  -29.2313  -16.9397 C   0  0  0  0  0  0  0  0  0  0  0  0
   28.0098  -27.7813  -16.9183 C   0  0  0  0  0  0  0  0  0  0  0  0
   27.6359  -26.7928  -17.7954 C   0  0  0  0  0  0  0  0  0  0  0  0
   28.1371  -25.6024  -17.3990 N   0  0  0  0  0  0  0  0  0  0  0  0
   28.8199  -25.8571  -16.2772 C   0  0  0  0  0  0  0  0  0  0  0  0
   28.7628  -27.1470  -15.9646 N   0  0  0  0  0  0  0  0  0  0  0  0
   28.5129  -31.4695  -17.6939 C   0  0  0  0  0  0  0  0  0  0  0  0
   28.1067  -31.9625  -18.7987 O   0  0  0  0  0  0  0  0  0  0  0  0
   30.2678  -34.4602  -15.5346 O   0  0  0  0  0  0  0  0  0  0  0  0
   28.8955  -34.5777  -15.5941 C   0  0  0  0  0  0  0  0  0  0  0  0
   28.3423  -33.8000  -16.7740 C   0  0  2  0  0  0  0  0  0  0  0  0
   28.6429  -32.3905  -16.6171 N   0  0  0  0  0  0  0  0  0  0  0  0
   26.8517  -34.0142  -16.7897 C   0  0  0  0  0  0  0  0  0  0  0  0
   26.0746  -33.0362  -16.6613 O   0  0  0  0  0  0  0  0  0  0  0  0
   26.3062  -35.2589  -16.9418 O   0  0  0  0  0  0  0  0  0  0  0  0
  2  1  1  0
  3  4  2  0
  3  2  1  0
  5  3  1  0
  6  5  1  0
  7  8  1  0
  6  7  1  6
  8 12  1  0
  9  8  2  0
  9 10  1  0
 10 11  1  0
 12 11  2  0
 13 18  1  0
 13  6  1  0
 14 13  2  0
 15 16  1  0
 17 16  1  1
 17 19  1  0
 17 18  1  0
 19 21  1  0
 20 19  2  0
M  END
$$$$
