GHS.pdb
     RDKit          3D

 21 21  0  0  1  0  0  0  0  0999 V2000
   23.0803  -12.2389  -19.3181 N   0  0  0  0  0  0  0  0  0  0  0  0
   22.2861  -11.0612  -19.1466 C   0  0  0  0  0  0  0  0  0  0  0  0
   22.5610  -10.3886  -17.8327 C   0  0  0  0  0  0  0  0  0  0  0  0
   21.8084  -10.6331  -16.8620 O   0  0  0  0  0  0  0  0  0  0  0  0
   23.6341   -9.5011  -17.6755 N   0  0  0  0  0  0  0  0  0  0  0  0
   23.9771   -8.8111  -16.4713 C   0  0  1  0  0  0  0  0  0  0  0  0
   25.4706   -8.7551  -16.1816 C   0  0  0  0  0  0  0  0  0  0  0  0
   26.0570  -10.1165  -16.0851 C   0  0  0  0  0  0  0  0  0  0  0  0
   25.4428  -11.3397  -16.1974 C   0  0  0  0  0  0  0  0  0  0  0  0
   26.3486  -12.3321  -16.0560 N   0  0  0  0  0  0  0  0  0  0  0  0
   27.5215  -11.7205  -15.8566 C   0  0  0  0  0  0  0  0  0  0  0  0
   27.3806  -10.3996  -15.8685 N   0  0  0  0  0  0  0  0  0  0  0  0
   23.3154   -7.5041  -16.4021 C   0  0  0  0  0  0  0  0  0  0  0  0
   23.4877   -6.6003  -17.2864 O   0  0  0  0  0  0  0  0  0  0  0  0
   19.9451   -7.0672  -14.2264 O   0  0  0  0  0  0  0  0  0  0  0  0
   20.2312   -6.1555  -15.2202 C   0  0  0  0  0  0  0  0  0  0  0  0
   21.7253   -5.9025  -15.3006 C   0  0  2  0  0  0  0  0  0  0  0  0
   22.4358   -7.1658  -15.3360 N   0  0  0  0  0  0  0  0  0  0  0  0
   22.1125   -5.1236  -14.0712 C   0  0  0  0  0  0  0  0  0  0  0  0
   21.7260   -3.9370  -13.9311 O   0  0  0  0  0  0  0  0  0  0  0  0
   22.8838   -5.6739  -13.0852 O   0  0  0  0  0  0  0  0  0  0  0  0
  2  1  1  0
  3  4  2  0
  3  2  1  0
  5  3  1  0
  6  5  1  0
  7  8  1  0
  6  7  1  6
  8 12  1  0
  9  8  2  0
  9 10  1  0
 10 11  1  0
 12 11  2  0
 13 18  1  0
 13  6  1  0
 14 13  2  0
 15 16  1  0
 17 16  1  1
 17 19  1  0
 17 18  1  0
 19 21  1  0
 20 19  2  0
M  END
$$$$
