GHS.pdb
     RDKit          3D

 21 21  0  0  1  0  0  0  0  0999 V2000
   22.6766  -12.5580  -18.8869 N   0  0  0  0  0  0  0  0  0  0  0  0
   22.3159  -11.1735  -18.9051 C   0  0  0  0  0  0  0  0  0  0  0  0
   22.8338  -10.4454  -17.6986 C   0  0  0  0  0  0  0  0  0  0  0  0
   22.5529  -10.8886  -16.5613 O   0  0  0  0  0  0  0  0  0  0  0  0
   23.6180   -9.2905  -17.8216 N   0  0  0  0  0  0  0  0  0  0  0  0
   24.1228   -8.5050  -16.7391 C   0  0  1  0  0  0  0  0  0  0  0  0
   25.6418   -8.4327  -16.6688 C   0  0  0  0  0  0  0  0  0  0  0  0
   26.2403   -9.7744  -16.4490 C   0  0  0  0  0  0  0  0  0  0  0  0
   26.8586  -10.2803  -15.3319 C   0  0  0  0  0  0  0  0  0  0  0  0
   27.2505  -11.5544  -15.5514 N   0  0  0  0  0  0  0  0  0  0  0  0
   26.8736  -11.8341  -16.8041 C   0  0  0  0  0  0  0  0  0  0  0  0
   26.2688  -10.7931  -17.3656 N   0  0  0  0  0  0  0  0  0  0  0  0
   23.4686   -7.1936  -16.6851 C   0  0  0  0  0  0  0  0  0  0  0  0
   23.3750   -6.4312  -17.7042 O   0  0  0  0  0  0  0  0  0  0  0  0
   20.3876   -6.3066  -14.2100 O   0  0  0  0  0  0  0  0  0  0  0  0
   21.3591   -5.3287  -14.1887 C   0  0  0  0  0  0  0  0  0  0  0  0
   22.2251   -5.4072  -15.4324 C   0  0  2  0  0  0  0  0  0  0  0  0
   22.8957   -6.6916  -15.4833 N   0  0  0  0  0  0  0  0  0  0  0  0
   23.2377   -4.2962  -15.3415 C   0  0  0  0  0  0  0  0  0  0  0  0
   24.4353   -4.5579  -15.0690 O   0  0  0  0  0  0  0  0  0  0  0  0
   22.8916   -2.9897  -15.5491 O   0  0  0  0  0  0  0  0  0  0  0  0
  2  1  1  0
  3  4  2  0
  3  2  1  0
  5  3  1  0
  6  5  1  0
  7  8  1  0
  6  7  1  6
  8 12  1  0
  9  8  2  0
  9 10  1  0
 10 11  1  0
 12 11  2  0
 13 18  1  0
 13  6  1  0
 14 13  2  0
 15 16  1  0
 17 16  1  1
 17 19  1  0
 17 18  1  0
 19 21  1  0
 20 19  2  0
M  END
$$$$
