GHS.pdb
     RDKit          3D

 21 21  0  0  1  0  0  0  0  0999 V2000
   23.4633   -9.4143  -17.9739 N   0  0  0  0  0  0  0  0  0  0  0  0
   22.4686  -10.2436  -17.3657 C   0  0  0  0  0  0  0  0  0  0  0  0
   22.8644  -11.6918  -17.3792 C   0  0  0  0  0  0  0  0  0  0  0  0
   22.7720  -12.3313  -18.4521 O   0  0  0  0  0  0  0  0  0  0  0  0
   23.3306  -12.3336  -16.2239 N   0  0  0  0  0  0  0  0  0  0  0  0
   23.6969  -13.7120  -16.1249 C   0  0  1  0  0  0  0  0  0  0  0  0
   24.8547  -13.9889  -15.1761 C   0  0  0  0  0  0  0  0  0  0  0  0
   26.1508  -13.5573  -15.7596 C   0  0  0  0  0  0  0  0  0  0  0  0
   26.4110  -12.9994  -16.9872 C   0  0  0  0  0  0  0  0  0  0  0  0
   27.7317  -12.7447  -17.1143 N   0  0  0  0  0  0  0  0  0  0  0  0
   28.2858  -13.1456  -15.9646 C   0  0  0  0  0  0  0  0  0  0  0  0
   27.3693  -13.6346  -15.1365 N   0  0  0  0  0  0  0  0  0  0  0  0
   22.5228  -14.5567  -15.8822 C   0  0  0  0  0  0  0  0  0  0  0  0
   21.7015  -14.3328  -14.9314 O   0  0  0  0  0  0  0  0  0  0  0  0
   21.2004  -17.0525  -18.8159 O   0  0  0  0  0  0  0  0  0  0  0  0
   20.3160  -16.6536  -17.8364 C   0  0  0  0  0  0  0  0  0  0  0  0
   21.0307  -16.4768  -16.5095 C   0  0  2  0  0  0  0  0  0  0  0  0
   22.2294  -15.6837  -16.6996 N   0  0  0  0  0  0  0  0  0  0  0  0
   21.3914  -17.8512  -16.0107 C   0  0  0  0  0  0  0  0  0  0  0  0
   22.5951  -18.2049  -15.9574 O   0  0  0  0  0  0  0  0  0  0  0  0
   20.4363  -18.7425  -15.6068 O   0  0  0  0  0  0  0  0  0  0  0  0
  2  1  1  0
  3  4  2  0
  3  2  1  0
  5  3  1  0
  6  5  1  0
  7  8  1  0
  6  7  1  1
  8 12  1  0
  9  8  2  0
  9 10  1  0
 10 11  1  0
 12 11  2  0
 13 18  1  0
 13  6  1  0
 14 13  2  0
 15 16  1  0
 17 16  1  6
 17 19  1  0
 17 18  1  0
 19 21  1  0
 20 19  2  0
M  END
$$$$
