GHS.pdb
     RDKit          3D

 21 21  0  0  1  0  0  0  0  0999 V2000
   22.9989  -10.5035  -19.0768 N   0  0  0  0  0  0  0  0  0  0  0  0
   23.4758   -9.8535  -17.8948 C   0  0  0  0  0  0  0  0  0  0  0  0
   22.4053   -9.0297  -17.2397 C   0  0  0  0  0  0  0  0  0  0  0  0
   21.6181   -8.3789  -17.9647 O   0  0  0  0  0  0  0  0  0  0  0  0
   22.2729   -8.9768  -15.8456 N   0  0  0  0  0  0  0  0  0  0  0  0
   21.2678   -8.2554  -15.1293 C   0  0  1  0  0  0  0  0  0  0  0  0
   20.5001   -9.0880  -14.1119 C   0  0  0  0  0  0  0  0  0  0  0  0
   19.5641  -10.0308  -14.7763 C   0  0  0  0  0  0  0  0  0  0  0  0
   19.3319  -10.2295  -16.1152 C   0  0  0  0  0  0  0  0  0  0  0  0
   18.4041  -11.1959  -16.2902 N   0  0  0  0  0  0  0  0  0  0  0  0
   18.0644  -11.5932  -15.0588 C   0  0  0  0  0  0  0  0  0  0  0  0
   18.7387  -10.9175  -14.1349 N   0  0  0  0  0  0  0  0  0  0  0  0
   21.8017   -7.0038  -14.5821 C   0  0  0  0  0  0  0  0  0  0  0  0
   22.6694   -6.9792  -13.6467 O   0  0  0  0  0  0  0  0  0  0  0  0
   22.1180   -3.7835  -16.8303 O   0  0  0  0  0  0  0  0  0  0  0  0
   22.7999   -3.8491  -15.6339 C   0  0  0  0  0  0  0  0  0  0  0  0
   21.9413   -4.4965  -14.5632 C   0  0  2  0  0  0  0  0  0  0  0  0
   21.3794   -5.7345  -15.0667 N   0  0  0  0  0  0  0  0  0  0  0  0
   20.8403   -3.5256  -14.2270 C   0  0  0  0  0  0  0  0  0  0  0  0
   19.6578   -3.7728  -14.5698 O   0  0  0  0  0  0  0  0  0  0  0  0
   21.0886   -2.3640  -13.5496 O   0  0  0  0  0  0  0  0  0  0  0  0
  2  1  1  0
  3  4  2  0
  3  2  1  0
  5  3  1  0
  6  5  1  0
  7  8  1  0
  6  7  1  1
  8 12  1  0
  9  8  2  0
  9 10  1  0
 10 11  1  0
 12 11  2  0
 13 18  1  0
 13  6  1  0
 14 13  2  0
 15 16  1  0
 17 16  1  6
 17 19  1  0
 17 18  1  0
 19 21  1  0
 20 19  2  0
M  END
$$$$
