GHS.pdb
     RDKit          3D

 21 21  0  0  1  0  0  0  0  0999 V2000
   24.7529  -12.1010  -19.1989 N   0  0  0  0  0  0  0  0  0  0  0  0
   23.5659  -11.3418  -19.4475 C   0  0  0  0  0  0  0  0  0  0  0  0
   23.2574  -10.4017  -18.3183 C   0  0  0  0  0  0  0  0  0  0  0  0
   22.5493  -10.8116  -17.3700 O   0  0  0  0  0  0  0  0  0  0  0  0
   23.7430   -9.0872  -18.3072 N   0  0  0  0  0  0  0  0  0  0  0  0
   23.6283   -8.1641  -17.2216 C   0  0  1  0  0  0  0  0  0  0  0  0
   24.9595   -7.6966  -16.6497 C   0  0  0  0  0  0  0  0  0  0  0  0
   25.8027   -8.8442  -16.2273 C   0  0  0  0  0  0  0  0  0  0  0  0
   25.5233   -9.8483  -15.3329 C   0  0  0  0  0  0  0  0  0  0  0  0
   26.5662  -10.7029  -15.2490 N   0  0  0  0  0  0  0  0  0  0  0  0
   27.4888  -10.2258  -16.0920 C   0  0  0  0  0  0  0  0  0  0  0  0
   27.0634   -9.1186  -16.6904 N   0  0  0  0  0  0  0  0  0  0  0  0
   22.7128   -7.0672  -17.5525 C   0  0  0  0  0  0  0  0  0  0  0  0
   22.7902   -6.4157  -18.6471 O   0  0  0  0  0  0  0  0  0  0  0  0
   18.8658   -7.1503  -16.5631 O   0  0  0  0  0  0  0  0  0  0  0  0
   19.4021   -5.9163  -16.2624 C   0  0  0  0  0  0  0  0  0  0  0  0
   20.6798   -5.6823  -17.0469 C   0  0  2  0  0  0  0  0  0  0  0  0
   21.6770   -6.6629  -16.6648 N   0  0  0  0  0  0  0  0  0  0  0  0
   21.1610   -4.2951  -16.7119 C   0  0  0  0  0  0  0  0  0  0  0  0
   22.2577   -4.1356  -16.1214 O   0  0  0  0  0  0  0  0  0  0  0  0
   20.4318   -3.1842  -17.0344 O   0  0  0  0  0  0  0  0  0  0  0  0
  2  1  1  0
  3  4  2  0
  3  2  1  0
  5  3  1  0
  6  5  1  0
  7  8  1  0
  6  7  1  6
  8 12  1  0
  9  8  2  0
  9 10  1  0
 10 11  1  0
 12 11  2  0
 13 18  1  0
 13  6  1  0
 14 13  2  0
 15 16  1  0
 17 16  1  1
 17 19  1  0
 17 18  1  0
 19 21  1  0
 20 19  2  0
M  END
$$$$
