GHS.pdb
     RDKit          3D

 21 21  0  0  1  0  0  0  0  0999 V2000
   33.0130  -30.5040  -18.1658 N   0  0  0  0  0  0  0  0  0  0  0  0
   31.8439  -30.1403  -18.9059 C   0  0  0  0  0  0  0  0  0  0  0  0
   30.6212  -30.1018  -18.0355 C   0  0  0  0  0  0  0  0  0  0  0  0
   30.7483  -30.3203  -16.8088 O   0  0  0  0  0  0  0  0  0  0  0  0
   29.3534  -29.8285  -18.5663 N   0  0  0  0  0  0  0  0  0  0  0  0
   28.1475  -29.6790  -17.8131 C   0  0  1  0  0  0  0  0  0  0  0  0
   27.6088  -28.2560  -17.7636 C   0  0  0  0  0  0  0  0  0  0  0  0
   28.6175  -27.3115  -17.2186 C   0  0  0  0  0  0  0  0  0  0  0  0
   29.5012  -26.4996  -17.8864 C   0  0  0  0  0  0  0  0  0  0  0  0
   30.2377  -25.7869  -17.0061 N   0  0  0  0  0  0  0  0  0  0  0  0
   29.8078  -26.1594  -15.7954 C   0  0  0  0  0  0  0  0  0  0  0  0
   28.8422  -27.0670  -15.8887 N   0  0  0  0  0  0  0  0  0  0  0  0
   27.1461  -30.6733  -18.2122 C   0  0  0  0  0  0  0  0  0  0  0  0
   26.8489  -30.8956  -19.4332 O   0  0  0  0  0  0  0  0  0  0  0  0
   24.9746  -32.8332  -15.3498 O   0  0  0  0  0  0  0  0  0  0  0  0
   25.3491  -33.4880  -16.5037 C   0  0  0  0  0  0  0  0  0  0  0  0
   25.5227  -32.5037  -17.6456 C   0  0  2  0  0  0  0  0  0  0  0  0
   26.4424  -31.4539  -17.2531 N   0  0  0  0  0  0  0  0  0  0  0  0
   24.1661  -31.9210  -17.9423 C   0  0  0  0  0  0  0  0  0  0  0  0
   23.2460  -32.6584  -18.3743 O   0  0  0  0  0  0  0  0  0  0  0  0
   23.8973  -30.5936  -17.7541 O   0  0  0  0  0  0  0  0  0  0  0  0
  2  1  1  0
  3  4  2  0
  3  2  1  0
  5  3  1  0
  6  5  1  0
  7  8  1  0
  6  7  1  6
  8 12  1  0
  9  8  2  0
  9 10  1  0
 10 11  1  0
 12 11  2  0
 13 18  1  0
 13  6  1  0
 14 13  2  0
 15 16  1  0
 17 16  1  1
 17 19  1  0
 17 18  1  0
 19 21  1  0
 20 19  2  0
M  END
$$$$
