GHS.pdb
     RDKit          3D

 21 21  0  0  1  0  0  0  0  0999 V2000
   21.6384  -13.0403  -18.4674 N   0  0  0  0  0  0  0  0  0  0  0  0
   22.1664  -12.3226  -17.3479 C   0  0  0  0  0  0  0  0  0  0  0  0
   21.4051  -11.0551  -17.0876 C   0  0  0  0  0  0  0  0  0  0  0  0
   20.8519  -10.4763  -18.0508 O   0  0  0  0  0  0  0  0  0  0  0  0
   21.3038  -10.5140  -15.7989 N   0  0  0  0  0  0  0  0  0  0  0  0
   20.5790   -9.3340  -15.4436 C   0  0  1  0  0  0  0  0  0  0  0  0
   19.4211   -9.5716  -14.4842 C   0  0  0  0  0  0  0  0  0  0  0  0
   18.3594  -10.4019  -15.1087 C   0  0  0  0  0  0  0  0  0  0  0  0
   17.6704  -10.1993  -16.2793 C   0  0  0  0  0  0  0  0  0  0  0  0
   16.7944  -11.2068  -16.4862 N   0  0  0  0  0  0  0  0  0  0  0  0
   16.9435  -12.0307  -15.4429 C   0  0  0  0  0  0  0  0  0  0  0  0
   17.8691  -11.5784  -14.6042 N   0  0  0  0  0  0  0  0  0  0  0  0
   21.4856   -8.2630  -15.0172 C   0  0  0  0  0  0  0  0  0  0  0  0
   22.3919   -8.4414  -14.1366 O   0  0  0  0  0  0  0  0  0  0  0  0
   22.9843   -3.6703  -15.6386 O   0  0  0  0  0  0  0  0  0  0  0  0
   22.2068   -4.7192  -16.0815 C   0  0  0  0  0  0  0  0  0  0  0  0
   22.2544   -5.8736  -15.0976 C   0  0  2  0  0  0  0  0  0  0  0  0
   21.4063   -6.9523  -15.5654 N   0  0  0  0  0  0  0  0  0  0  0  0
   21.7524   -5.3543  -13.7762 C   0  0  0  0  0  0  0  0  0  0  0  0
   20.5324   -5.4371  -13.4907 O   0  0  0  0  0  0  0  0  0  0  0  0
   22.5943   -4.7859  -12.8608 O   0  0  0  0  0  0  0  0  0  0  0  0
  2  1  1  0
  3  4  2  0
  3  2  1  0
  5  3  1  0
  6  5  1  0
  7  8  1  0
  6  7  1  1
  8 12  1  0
  9  8  2  0
  9 10  1  0
 10 11  1  0
 12 11  2  0
 13 18  1  0
 13  6  1  0
 14 13  2  0
 15 16  1  0
 17 16  1  6
 17 19  1  0
 17 18  1  0
 19 21  1  0
 20 19  2  0
M  END
$$$$
