GHS.pdb
     RDKit          3D

 21 21  0  0  1  0  0  0  0  0999 V2000
   18.8277  -13.6444  -17.1233 N   0  0  0  0  0  0  0  0  0  0  0  0
   18.2190  -12.4236  -17.5548 C   0  0  0  0  0  0  0  0  0  0  0  0
   18.4794  -11.2995  -16.5943 C   0  0  0  0  0  0  0  0  0  0  0  0
   17.7543  -11.1954  -15.5784 O   0  0  0  0  0  0  0  0  0  0  0  0
   19.5092  -10.3744  -16.8125 N   0  0  0  0  0  0  0  0  0  0  0  0
   19.7793   -9.2216  -16.0113 C   0  0  1  0  0  0  0  0  0  0  0  0
   21.1803   -9.1824  -15.4170 C   0  0  0  0  0  0  0  0  0  0  0  0
   21.3984   -7.9478  -14.6202 C   0  0  0  0  0  0  0  0  0  0  0  0
   21.1068   -7.6990  -13.3015 C   0  0  0  0  0  0  0  0  0  0  0  0
   21.4804   -6.4439  -12.9691 N   0  0  0  0  0  0  0  0  0  0  0  0
   22.0027   -5.9190  -14.0832 C   0  0  0  0  0  0  0  0  0  0  0  0
   21.9682   -6.7909  -15.0849 N   0  0  0  0  0  0  0  0  0  0  0  0
   19.4029   -7.9891  -16.7114 C   0  0  0  0  0  0  0  0  0  0  0  0
   19.7875   -7.7308  -17.9005 O   0  0  0  0  0  0  0  0  0  0  0  0
   16.3954   -5.6406  -15.3124 O   0  0  0  0  0  0  0  0  0  0  0  0
   16.8255   -5.4005  -16.6000 C   0  0  0  0  0  0  0  0  0  0  0  0
   18.2991   -5.7336  -16.7432 C   0  0  2  0  0  0  0  0  0  0  0  0
   18.5803   -7.0021  -16.1000 N   0  0  0  0  0  0  0  0  0  0  0  0
   19.0730   -4.6291  -16.0730 C   0  0  0  0  0  0  0  0  0  0  0  0
   19.6678   -4.8466  -14.9887 O   0  0  0  0  0  0  0  0  0  0  0  0
   19.1515   -3.3759  -16.6145 O   0  0  0  0  0  0  0  0  0  0  0  0
  2  1  1  0
  3  4  2  0
  3  2  1  0
  5  3  1  0
  6  5  1  0
  7  8  1  0
  6  7  1  6
  8 12  1  0
  9  8  2  0
  9 10  1  0
 10 11  1  0
 12 11  2  0
 13 18  1  0
 13  6  1  0
 14 13  2  0
 15 16  1  0
 17 16  1  1
 17 19  1  0
 17 18  1  0
 19 21  1  0
 20 19  2  0
M  END
$$$$
