EVS.pdb
     RDKit          3D

 23 22  0  0  1  0  0  0  0  0999 V2000
    9.0150  -17.7605   16.5100 N   0  0  0  0  0  0  0  0  0  0  0  0
    8.1486  -17.6283   17.6627 C   0  0  1  0  0  0  0  0  0  0  0  0
    7.9471  -18.9990   18.2689 C   0  0  0  0  0  0  0  0  0  0  0  0
    8.3933  -20.0038   17.2027 C   0  0  0  0  0  0  0  0  0  0  0  0
    8.2511  -21.3773   17.7510 C   0  0  0  0  0  0  0  0  0  0  0  0
    9.1984  -22.0016   18.2846 O   0  0  0  0  0  0  0  0  0  0  0  0
    8.7829  -16.6928   18.6383 C   0  0  0  0  0  0  0  0  0  0  0  0
   10.0506  -16.6102   18.7145 O   0  0  0  0  0  0  0  0  0  0  0  0
    7.0202  -22.0006   17.6721 O   0  0  0  0  0  0  0  0  0  0  0  0
    7.3856  -12.9300   19.6723 C   0  0  0  0  0  0  0  0  0  0  0  0
    7.6771  -13.8540   20.8035 C   0  0  2  0  0  0  0  0  0  0  0  0
    8.2150  -12.9877   21.9485 C   0  0  0  0  0  0  0  0  0  0  0  0
    8.6219  -14.9854   20.4985 C   0  0  2  0  0  0  0  0  0  0  0  0
    8.0023  -15.8785   19.4986 N   0  0  0  0  0  0  0  0  0  0  0  0
    9.0083  -15.7824   21.6891 C   0  0  0  0  0  0  0  0  0  0  0  0
    8.1266  -16.5204   22.2713 O   0  0  0  0  0  0  0  0  0  0  0  0
   12.8885  -15.8641   23.1322 O   0  0  0  0  0  0  0  0  0  0  0  0
   12.1528  -17.0321   23.2753 C   0  0  0  0  0  0  0  0  0  0  0  0
   10.6564  -16.7040   23.3555 C   0  0  2  0  0  0  0  0  0  0  0  0
   10.2949  -15.8162   22.2689 N   0  0  0  0  0  0  0  0  0  0  0  0
   10.4536  -16.0209   24.6496 C   0  0  0  0  0  0  0  0  0  0  0  0
   10.0849  -14.8251   24.6551 O   0  0  0  0  0  0  0  0  0  0  0  0
   10.6633  -16.6774   25.8431 O   0  0  0  0  0  0  0  0  0  0  0  0
  2  1  1  6
  2  7  1  0
  3  2  1  0
  4  3  1  0
  5  4  1  0
  6  5  2  0
  7  8  2  0
  9  5  1  0
 11 10  1  6
 11 12  1  0
 13 11  1  0
 14  7  1  0
 13 14  1  6
 15 16  2  0
 15 13  1  0
 18 17  1  0
 19 18  1  6
 19 20  1  0
 20 15  1  0
 21 23  1  0
 21 19  1  0
 22 21  2  0
M  END
$$$$
