EVS.pdb
     RDKit          3D

 23 22  0  0  1  0  0  0  0  0999 V2000
    8.6693  -16.4967   15.9262 N   0  0  0  0  0  0  0  0  0  0  0  0
    8.2949  -16.9901   17.2351 C   0  0  1  0  0  0  0  0  0  0  0  0
    8.7156  -18.4390   17.3380 C   0  0  0  0  0  0  0  0  0  0  0  0
    7.8645  -19.2011   16.3179 C   0  0  0  0  0  0  0  0  0  0  0  0
    8.2118  -20.6439   16.3885 C   0  0  0  0  0  0  0  0  0  0  0  0
    7.6659  -21.5141   15.6698 O   0  0  0  0  0  0  0  0  0  0  0  0
    8.9667  -16.1561   18.2754 C   0  0  0  0  0  0  0  0  0  0  0  0
   10.1630  -15.7576   18.1022 O   0  0  0  0  0  0  0  0  0  0  0  0
    9.1806  -21.0516   17.2859 O   0  0  0  0  0  0  0  0  0  0  0  0
    6.7456  -14.3079   21.5525 C   0  0  0  0  0  0  0  0  0  0  0  0
    8.0299  -13.8683   20.9393 C   0  0  2  0  0  0  0  0  0  0  0  0
    7.6629  -12.9704   19.7519 C   0  0  0  0  0  0  0  0  0  0  0  0
    8.9618  -14.9696   20.5101 C   0  0  2  0  0  0  0  0  0  0  0  0
    8.3011  -15.7873   19.4727 N   0  0  0  0  0  0  0  0  0  0  0  0
    9.3991  -15.8526   21.6198 C   0  0  0  0  0  0  0  0  0  0  0  0
    8.6586  -16.8486   21.9667 O   0  0  0  0  0  0  0  0  0  0  0  0
   13.1574  -15.6223   23.1396 O   0  0  0  0  0  0  0  0  0  0  0  0
   12.5153  -16.8354   23.3447 C   0  0  0  0  0  0  0  0  0  0  0  0
   10.9974  -16.6226   23.4072 C   0  0  2  0  0  0  0  0  0  0  0  0
   10.5918  -15.7064   22.3604 N   0  0  0  0  0  0  0  0  0  0  0  0
   10.7195  -16.0268   24.7302 C   0  0  0  0  0  0  0  0  0  0  0  0
   10.2046  -14.8879   24.7885 O   0  0  0  0  0  0  0  0  0  0  0  0
   11.0173  -16.7031   25.8936 O   0  0  0  0  0  0  0  0  0  0  0  0
  2  1  1  6
  2  7  1  0
  3  2  1  0
  4  3  1  0
  5  4  1  0
  6  5  2  0
  7  8  2  0
  9  5  1  0
 11 10  1  6
 11 12  1  0
 13 11  1  0
 14  7  1  0
 13 14  1  6
 15 16  2  0
 15 13  1  0
 18 17  1  0
 19 18  1  1
 19 20  1  0
 20 15  1  0
 21 23  1  0
 21 19  1  0
 22 21  2  0
M  END
$$$$
