EVS.pdb
     RDKit          3D

 23 22  0  0  1  0  0  0  0  0999 V2000
    8.6635  -16.5195   15.7115 N   0  0  0  0  0  0  0  0  0  0  0  0
    7.8520  -16.5069   16.9107 C   0  0  1  0  0  0  0  0  0  0  0  0
    7.4111  -17.9233   17.2043 C   0  0  0  0  0  0  0  0  0  0  0  0
    8.6655  -18.6708   17.6662 C   0  0  0  0  0  0  0  0  0  0  0  0
    8.2957  -20.0740   17.9846 C   0  0  0  0  0  0  0  0  0  0  0  0
    7.7876  -20.8542   17.1450 O   0  0  0  0  0  0  0  0  0  0  0  0
    8.6605  -15.9477   18.0345 C   0  0  0  0  0  0  0  0  0  0  0  0
    9.9319  -15.9865   17.9896 O   0  0  0  0  0  0  0  0  0  0  0  0
    8.5198  -20.5469   19.2637 O   0  0  0  0  0  0  0  0  0  0  0  0
    6.7481  -14.0911   21.5357 C   0  0  0  0  0  0  0  0  0  0  0  0
    8.0380  -13.6744   20.9184 C   0  0  2  0  0  0  0  0  0  0  0  0
    7.7031  -12.5704   19.9085 C   0  0  0  0  0  0  0  0  0  0  0  0
    8.8373  -14.7712   20.2674 C   0  0  2  0  0  0  0  0  0  0  0  0
    8.0446  -15.3639   19.1713 N   0  0  0  0  0  0  0  0  0  0  0  0
    9.2544  -15.8457   21.2021 C   0  0  0  0  0  0  0  0  0  0  0  0
    8.5015  -16.8804   21.3548 O   0  0  0  0  0  0  0  0  0  0  0  0
   13.0866  -16.5145   22.1397 O   0  0  0  0  0  0  0  0  0  0  0  0
   12.1643  -17.5333   22.3329 C   0  0  0  0  0  0  0  0  0  0  0  0
   10.8328  -16.9507   22.8238 C   0  0  2  0  0  0  0  0  0  0  0  0
   10.4399  -15.8491   21.9683 N   0  0  0  0  0  0  0  0  0  0  0  0
   11.0796  -16.4578   24.1943 C   0  0  0  0  0  0  0  0  0  0  0  0
   10.9613  -15.2349   24.4315 O   0  0  0  0  0  0  0  0  0  0  0  0
   11.4360  -17.3199   25.2089 O   0  0  0  0  0  0  0  0  0  0  0  0
  2  1  1  6
  2  7  1  0
  3  2  1  0
  4  3  1  0
  5  4  1  0
  6  5  2  0
  7  8  2  0
  9  5  1  0
 11 10  1  6
 11 12  1  0
 13 11  1  0
 14  7  1  0
 13 14  1  6
 15 16  2  0
 15 13  1  0
 18 17  1  0
 19 18  1  6
 19 20  1  0
 20 15  1  0
 21 23  1  0
 21 19  1  0
 22 21  2  0
M  END
$$$$
