EVS.pdb
     RDKit          3D

 23 22  0  0  1  0  0  0  0  0999 V2000
    9.0162  -16.3019   15.4731 N   0  0  0  0  0  0  0  0  0  0  0  0
    8.4644  -16.9144   16.6637 C   0  0  1  0  0  0  0  0  0  0  0  0
    8.8592  -18.3741   16.6770 C   0  0  0  0  0  0  0  0  0  0  0  0
    8.3072  -18.9507   17.9841 C   0  0  0  0  0  0  0  0  0  0  0  0
    8.6828  -20.3855   18.0699 C   0  0  0  0  0  0  0  0  0  0  0  0
    9.6375  -20.8015   18.7680 O   0  0  0  0  0  0  0  0  0  0  0  0
    8.9931  -16.1996   17.8631 C   0  0  0  0  0  0  0  0  0  0  0  0
   10.2332  -15.9268   17.9509 O   0  0  0  0  0  0  0  0  0  0  0  0
    7.9498  -21.3091   17.3490 O   0  0  0  0  0  0  0  0  0  0  0  0
    7.2624  -12.9521   19.6112 C   0  0  0  0  0  0  0  0  0  0  0  0
    7.5676  -14.0788   20.5363 C   0  0  2  0  0  0  0  0  0  0  0  0
    7.9350  -13.4498   21.8854 C   0  0  0  0  0  0  0  0  0  0  0  0
    8.6409  -15.0298   20.0787 C   0  0  2  0  0  0  0  0  0  0  0  0
    8.1408  -15.8079   18.9274 N   0  0  0  0  0  0  0  0  0  0  0  0
    9.1037  -15.9652   21.1337 C   0  0  0  0  0  0  0  0  0  0  0  0
    8.3049  -16.8804   21.5641 O   0  0  0  0  0  0  0  0  0  0  0  0
   12.9102  -15.7825   22.7318 O   0  0  0  0  0  0  0  0  0  0  0  0
   12.3246  -17.0406   22.7269 C   0  0  0  0  0  0  0  0  0  0  0  0
   10.7963  -16.9089   22.7421 C   0  0  2  0  0  0  0  0  0  0  0  0
   10.3810  -15.9540   21.7344 N   0  0  0  0  0  0  0  0  0  0  0  0
   10.4398  -16.4074   24.0851 C   0  0  0  0  0  0  0  0  0  0  0  0
    9.8430  -15.3123   24.1870 O   0  0  0  0  0  0  0  0  0  0  0  0
   10.7529  -17.1238   25.2202 O   0  0  0  0  0  0  0  0  0  0  0  0
  2  1  1  6
  2  7  1  0
  3  2  1  0
  4  3  1  0
  5  4  1  0
  6  5  2  0
  7  8  2  0
  9  5  1  0
 11 10  1  6
 11 12  1  0
 13 11  1  0
 14  7  1  0
 13 14  1  6
 15 16  2  0
 15 13  1  0
 18 17  1  0
 19 18  1  1
 19 20  1  0
 20 15  1  0
 21 23  1  0
 21 19  1  0
 22 21  2  0
M  END
$$$$
