EVS.pdb
     RDKit          3D

 23 22  0  0  1  0  0  0  0  0999 V2000
    8.9042  -17.7666   16.0561 N   0  0  0  0  0  0  0  0  0  0  0  0
    7.8970  -17.3119   16.9920 C   0  0  1  0  0  0  0  0  0  0  0  0
    7.1513  -18.5189   17.5153 C   0  0  0  0  0  0  0  0  0  0  0  0
    7.1669  -19.5505   16.3834 C   0  0  0  0  0  0  0  0  0  0  0  0
    6.4061  -20.7499   16.8193 C   0  0  0  0  0  0  0  0  0  0  0  0
    6.9580  -21.7910   17.2474 O   0  0  0  0  0  0  0  0  0  0  0  0
    8.5680  -16.5681   18.0991 C   0  0  0  0  0  0  0  0  0  0  0  0
    9.7659  -16.8487   18.4249 O   0  0  0  0  0  0  0  0  0  0  0  0
    5.0260  -20.7226   16.7520 O   0  0  0  0  0  0  0  0  0  0  0  0
    8.3312  -12.6266   21.2151 C   0  0  0  0  0  0  0  0  0  0  0  0
    7.7698  -13.5296   20.1720 C   0  0  2  0  0  0  0  0  0  0  0  0
    6.3503  -13.8915   20.6247 C   0  0  0  0  0  0  0  0  0  0  0  0
    8.5710  -14.7696   19.8787 C   0  0  2  0  0  0  0  0  0  0  0  0
    7.8997  -15.5398   18.8122 N   0  0  0  0  0  0  0  0  0  0  0  0
    8.7730  -15.6468   21.0584 C   0  0  0  0  0  0  0  0  0  0  0  0
    7.7717  -16.2969   21.5438 O   0  0  0  0  0  0  0  0  0  0  0  0
   12.0905  -17.5321   21.7407 O   0  0  0  0  0  0  0  0  0  0  0  0
   11.0006  -17.9342   22.4998 C   0  0  0  0  0  0  0  0  0  0  0  0
   10.1460  -16.7177   22.8779 C   0  0  2  0  0  0  0  0  0  0  0  0
    9.9997  -15.8501   21.7265 N   0  0  0  0  0  0  0  0  0  0  0  0
   10.8835  -16.0127   23.9463 C   0  0  0  0  0  0  0  0  0  0  0  0
   11.3201  -14.8609   23.7261 O   0  0  0  0  0  0  0  0  0  0  0  0
   11.0961  -16.6016   25.1741 O   0  0  0  0  0  0  0  0  0  0  0  0
  2  1  1  6
  2  7  1  0
  3  2  1  0
  4  3  1  0
  5  4  1  0
  6  5  2  0
  7  8  2  0
  9  5  1  0
 11 10  1  1
 11 12  1  0
 13 11  1  0
 14  7  1  0
 13 14  1  6
 15 16  2  0
 15 13  1  0
 18 17  1  0
 19 18  1  6
 19 20  1  0
 20 15  1  0
 21 23  1  0
 21 19  1  0
 22 21  2  0
M  END
$$$$
