EVS.pdb
     RDKit          3D

 23 22  0  0  1  0  0  0  0  0999 V2000
    8.9080  -15.4227   20.8058 N   0  0  0  0  0  0  0  0  0  0  0  0
    8.0691  -15.7252   21.9467 C   0  0  1  0  0  0  0  0  0  0  0  0
    8.1624  -17.2080   22.2287 C   0  0  0  0  0  0  0  0  0  0  0  0
    9.3248  -17.7290   21.3784 C   0  0  0  0  0  0  0  0  0  0  0  0
    9.4208  -19.2015   21.5511 C   0  0  0  0  0  0  0  0  0  0  0  0
    8.6276  -19.8589   22.2655 O   0  0  0  0  0  0  0  0  0  0  0  0
    8.5356  -14.9214   23.1152 C   0  0  0  0  0  0  0  0  0  0  0  0
    9.7370  -14.5044   23.1666 O   0  0  0  0  0  0  0  0  0  0  0  0
   10.4289  -19.8834   20.8964 O   0  0  0  0  0  0  0  0  0  0  0  0
    6.6589  -11.8942   25.0861 C   0  0  0  0  0  0  0  0  0  0  0  0
    7.0565  -13.0410   25.9495 C   0  0  2  0  0  0  0  0  0  0  0  0
    7.4550  -12.4492   27.3067 C   0  0  0  0  0  0  0  0  0  0  0  0
    8.1503  -13.9212   25.4070 C   0  0  2  0  0  0  0  0  0  0  0  0
    7.6658  -14.6023   24.1894 N   0  0  0  0  0  0  0  0  0  0  0  0
    8.6368  -14.9381   26.3721 C   0  0  0  0  0  0  0  0  0  0  0  0
    7.8347  -15.8617   26.7778 O   0  0  0  0  0  0  0  0  0  0  0  0
   12.0090  -16.4828   26.1556 O   0  0  0  0  0  0  0  0  0  0  0  0
   11.8180  -16.4252   27.5289 C   0  0  0  0  0  0  0  0  0  0  0  0
   10.3718  -16.0205   27.8419 C   0  0  2  0  0  0  0  0  0  0  0  0
    9.9407  -14.9988   26.9092 N   0  0  0  0  0  0  0  0  0  0  0  0
   10.3854  -15.4732   29.2140 C   0  0  0  0  0  0  0  0  0  0  0  0
   10.0848  -14.2718   29.3927 O   0  0  0  0  0  0  0  0  0  0  0  0
   10.7222  -16.2618   30.2930 O   0  0  0  0  0  0  0  0  0  0  0  0
  2  1  1  6
  2  7  1  0
  3  2  1  0
  4  3  1  0
  5  4  1  0
  6  5  2  0
  7  8  2  0
  9  5  1  0
 11 10  1  6
 11 12  1  0
 13 11  1  0
 14  7  1  0
 13 14  1  6
 15 16  2  0
 15 13  1  0
 18 17  1  0
 19 18  1  6
 19 20  1  0
 20 15  1  0
 21 23  1  0
 21 19  1  0
 22 21  2  0
M  END
$$$$
