EVS.pdb
     RDKit          3D

 23 22  0  0  1  0  0  0  0  0999 V2000
    7.7083  -14.2269   20.7552 N   0  0  0  0  0  0  0  0  0  0  0  0
    7.0676  -14.6447   21.9848 C   0  0  1  0  0  0  0  0  0  0  0  0
    6.8984  -16.1470   21.9491 C   0  0  0  0  0  0  0  0  0  0  0  0
    8.3011  -16.7269   21.7447 C   0  0  0  0  0  0  0  0  0  0  0  0
    8.2039  -18.2087   21.7009 C   0  0  0  0  0  0  0  0  0  0  0  0
    7.3209  -18.8168   21.0510 O   0  0  0  0  0  0  0  0  0  0  0  0
    7.9162  -14.2227   23.1385 C   0  0  0  0  0  0  0  0  0  0  0  0
    9.1683  -14.0546   22.9844 O   0  0  0  0  0  0  0  0  0  0  0  0
    9.1267  -18.9569   22.4071 O   0  0  0  0  0  0  0  0  0  0  0  0
    6.1245  -12.9484   26.8899 C   0  0  0  0  0  0  0  0  0  0  0  0
    7.4622  -12.5482   26.3714 C   0  0  2  0  0  0  0  0  0  0  0  0
    7.2470  -11.2779   25.5401 C   0  0  0  0  0  0  0  0  0  0  0  0
    8.1949  -13.5929   25.5730 C   0  0  2  0  0  0  0  0  0  0  0  0
    7.3603  -13.9992   24.4243 N   0  0  0  0  0  0  0  0  0  0  0  0
    8.5636  -14.7980   26.3566 C   0  0  0  0  0  0  0  0  0  0  0  0
    7.6784  -15.7097   26.5715 O   0  0  0  0  0  0  0  0  0  0  0  0
   12.3566  -16.0897   26.8478 O   0  0  0  0  0  0  0  0  0  0  0  0
   11.3250  -16.9751   27.1267 C   0  0  0  0  0  0  0  0  0  0  0  0
   10.1306  -16.2193   27.7229 C   0  0  2  0  0  0  0  0  0  0  0  0
    9.8363  -15.0567   26.9095 N   0  0  0  0  0  0  0  0  0  0  0  0
   10.5467  -15.7929   29.0747 C   0  0  0  0  0  0  0  0  0  0  0  0
   10.5621  -14.5723   29.3499 O   0  0  0  0  0  0  0  0  0  0  0  0
   10.9157  -16.7143   30.0311 O   0  0  0  0  0  0  0  0  0  0  0  0
  2  1  1  6
  2  7  1  0
  3  2  1  0
  4  3  1  0
  5  4  1  0
  6  5  2  0
  7  8  2  0
  9  5  1  0
 11 10  1  6
 11 12  1  0
 13 11  1  0
 14  7  1  0
 13 14  1  6
 15 16  2  0
 15 13  1  0
 18 17  1  0
 19 18  1  6
 19 20  1  0
 20 15  1  0
 21 23  1  0
 21 19  1  0
 22 21  2  0
M  END
$$$$
