EVS.pdb
     RDKit          3D

 23 22  0  0  1  0  0  0  0  0999 V2000
    9.1735  -17.3697   16.5391 N   0  0  0  0  0  0  0  0  0  0  0  0
    8.2746  -17.2310   17.6659 C   0  0  1  0  0  0  0  0  0  0  0  0
    7.9008  -18.6133   18.1521 C   0  0  0  0  0  0  0  0  0  0  0  0
    7.0006  -19.2147   17.0687 C   0  0  0  0  0  0  0  0  0  0  0  0
    6.5833  -20.5753   17.4951 C   0  0  0  0  0  0  0  0  0  0  0  0
    7.1227  -21.6219   17.0643 O   0  0  0  0  0  0  0  0  0  0  0  0
    8.9601  -16.4477   18.7363 C   0  0  0  0  0  0  0  0  0  0  0  0
   10.2272  -16.4895   18.8484 O   0  0  0  0  0  0  0  0  0  0  0  0
    5.5537  -20.6995   18.4086 O   0  0  0  0  0  0  0  0  0  0  0  0
    6.7279  -13.9708   21.6672 C   0  0  0  0  0  0  0  0  0  0  0  0
    8.0594  -13.6776   21.0676 C   0  0  2  0  0  0  0  0  0  0  0  0
    7.8001  -12.8140   19.8275 C   0  0  0  0  0  0  0  0  0  0  0  0
    8.8994  -14.8770   20.7189 C   0  0  2  0  0  0  0  0  0  0  0  0
    8.2298  -15.6435   19.6487 N   0  0  0  0  0  0  0  0  0  0  0  0
    9.1664  -15.7774   21.8679 C   0  0  0  0  0  0  0  0  0  0  0  0
    8.2727  -16.6359   22.2214 O   0  0  0  0  0  0  0  0  0  0  0  0
   12.8739  -16.6261   23.0650 O   0  0  0  0  0  0  0  0  0  0  0  0
   11.8744  -17.4913   23.4873 C   0  0  0  0  0  0  0  0  0  0  0  0
   10.5754  -16.7134   23.7336 C   0  0  2  0  0  0  0  0  0  0  0  0
   10.3477  -15.7898   22.6405 N   0  0  0  0  0  0  0  0  0  0  0  0
   10.7770  -15.9631   24.9901 C   0  0  0  0  0  0  0  0  0  0  0  0
   10.6774  -14.7159   24.9766 O   0  0  0  0  0  0  0  0  0  0  0  0
   11.0713  -16.6130   26.1694 O   0  0  0  0  0  0  0  0  0  0  0  0
  2  1  1  6
  2  7  1  0
  3  2  1  0
  4  3  1  0
  5  4  1  0
  6  5  2  0
  7  8  2  0
  9  5  1  0
 11 10  1  6
 11 12  1  0
 13 11  1  0
 14  7  1  0
 13 14  1  6
 15 16  2  0
 15 13  1  0
 18 17  1  0
 19 18  1  6
 19 20  1  0
 20 15  1  0
 21 23  1  0
 21 19  1  0
 22 21  2  0
M  END
$$$$
