EVS.pdb
     RDKit          3D

 23 22  0  0  1  0  0  0  0  0999 V2000
    8.8173  -16.2248   15.6645 N   0  0  0  0  0  0  0  0  0  0  0  0
    8.1283  -16.6096   16.8787 C   0  0  1  0  0  0  0  0  0  0  0  0
    8.0996  -18.1197   16.9538 C   0  0  0  0  0  0  0  0  0  0  0  0
    7.4273  -18.4652   18.2858 C   0  0  0  0  0  0  0  0  0  0  0  0
    7.4812  -19.9371   18.4807 C   0  0  0  0  0  0  0  0  0  0  0  0
    8.0746  -20.7097   17.6915 O   0  0  0  0  0  0  0  0  0  0  0  0
    8.8476  -16.0229   18.0481 C   0  0  0  0  0  0  0  0  0  0  0  0
   10.1182  -16.0684   18.1067 O   0  0  0  0  0  0  0  0  0  0  0  0
    6.8499  -20.4858   19.5809 O   0  0  0  0  0  0  0  0  0  0  0  0
    6.6851  -13.9289   21.2559 C   0  0  0  0  0  0  0  0  0  0  0  0
    8.0551  -13.6185   20.7605 C   0  0  2  0  0  0  0  0  0  0  0  0
    7.8940  -12.5600   19.6631 C   0  0  0  0  0  0  0  0  0  0  0  0
    8.8521  -14.7929   20.2591 C   0  0  2  0  0  0  0  0  0  0  0  0
    8.1463  -15.4052   19.1154 N   0  0  0  0  0  0  0  0  0  0  0  0
    9.1027  -15.8318   21.2886 C   0  0  0  0  0  0  0  0  0  0  0  0
    8.1847  -16.6969   21.5527 O   0  0  0  0  0  0  0  0  0  0  0  0
   12.7233  -17.2263   22.1360 O   0  0  0  0  0  0  0  0  0  0  0  0
   11.6133  -17.9647   22.5213 C   0  0  0  0  0  0  0  0  0  0  0  0
   10.5014  -17.0268   23.0085 C   0  0  2  0  0  0  0  0  0  0  0  0
   10.2924  -15.9743   22.0347 N   0  0  0  0  0  0  0  0  0  0  0  0
   10.9805  -16.4460   24.2795 C   0  0  0  0  0  0  0  0  0  0  0  0
   11.1868  -15.2136   24.3456 O   0  0  0  0  0  0  0  0  0  0  0  0
   11.2021  -17.2369   25.3862 O   0  0  0  0  0  0  0  0  0  0  0  0
  2  1  1  6
  2  7  1  0
  3  2  1  0
  4  3  1  0
  5  4  1  0
  6  5  2  0
  7  8  2  0
  9  5  1  0
 11 10  1  6
 11 12  1  0
 13 11  1  0
 14  7  1  0
 13 14  1  6
 15 16  2  0
 15 13  1  0
 18 17  1  0
 19 18  1  6
 19 20  1  0
 20 15  1  0
 21 23  1  0
 21 19  1  0
 22 21  2  0
M  END
$$$$
