EVS.pdb
     RDKit          3D

 23 22  0  0  1  0  0  0  0  0999 V2000
    9.3073  -15.3645   20.8831 N   0  0  0  0  0  0  0  0  0  0  0  0
    8.3983  -15.8090   21.9191 C   0  0  1  0  0  0  0  0  0  0  0  0
    8.4798  -17.3161   22.0120 C   0  0  0  0  0  0  0  0  0  0  0  0
    7.9878  -17.8513   20.6640 C   0  0  0  0  0  0  0  0  0  0  0  0
    7.9534  -19.3354   20.7227 C   0  0  0  0  0  0  0  0  0  0  0  0
    8.9573  -20.0517   20.4970 O   0  0  0  0  0  0  0  0  0  0  0  0
    8.7856  -15.1653   23.2094 C   0  0  0  0  0  0  0  0  0  0  0  0
   10.0124  -14.9618   23.4804 O   0  0  0  0  0  0  0  0  0  0  0  0
    6.7627  -19.9610   21.0402 O   0  0  0  0  0  0  0  0  0  0  0  0
    6.8390  -12.0739   25.0768 C   0  0  0  0  0  0  0  0  0  0  0  0
    7.0932  -13.2663   25.9324 C   0  0  2  0  0  0  0  0  0  0  0  0
    7.3882  -12.7387   27.3415 C   0  0  0  0  0  0  0  0  0  0  0  0
    8.1885  -14.1867   25.4649 C   0  0  2  0  0  0  0  0  0  0  0  0
    7.8111  -14.7662   24.1599 N   0  0  0  0  0  0  0  0  0  0  0  0
    8.4956  -15.2852   26.4142 C   0  0  0  0  0  0  0  0  0  0  0  0
    7.5956  -16.1711   26.6709 O   0  0  0  0  0  0  0  0  0  0  0  0
   12.1713  -16.6585   27.0133 O   0  0  0  0  0  0  0  0  0  0  0  0
   11.1018  -17.4497   27.4085 C   0  0  0  0  0  0  0  0  0  0  0  0
    9.9840  -16.5721   27.9861 C   0  0  2  0  0  0  0  0  0  0  0  0
    9.7226  -15.4651   27.0883 N   0  0  0  0  0  0  0  0  0  0  0  0
   10.4873  -16.0618   29.2778 C   0  0  0  0  0  0  0  0  0  0  0  0
   10.6042  -14.8266   29.4401 O   0  0  0  0  0  0  0  0  0  0  0  0
   10.8277  -16.9212   30.3002 O   0  0  0  0  0  0  0  0  0  0  0  0
  2  1  1  6
  2  7  1  0
  3  2  1  0
  4  3  1  0
  5  4  1  0
  6  5  2  0
  7  8  2  0
  9  5  1  0
 11 10  1  6
 11 12  1  0
 13 11  1  0
 14  7  1  0
 13 14  1  6
 15 16  2  0
 15 13  1  0
 18 17  1  0
 19 18  1  6
 19 20  1  0
 20 15  1  0
 21 23  1  0
 21 19  1  0
 22 21  2  0
M  END
$$$$
