EVS.pdb
     RDKit          3D

 23 22  0  0  1  0  0  0  0  0999 V2000
    7.3222  -17.1346   17.2545 N   0  0  0  0  0  0  0  0  0  0  0  0
    8.7676  -17.1322   17.1655 C   0  0  1  0  0  0  0  0  0  0  0  0
    9.1629  -16.5561   15.8244 C   0  0  0  0  0  0  0  0  0  0  0  0
    8.1399  -17.0881   14.8163 C   0  0  0  0  0  0  0  0  0  0  0  0
    8.4925  -16.5814   13.4649 C   0  0  0  0  0  0  0  0  0  0  0  0
    9.5082  -15.8813   13.2411 O   0  0  0  0  0  0  0  0  0  0  0  0
    9.3186  -16.3170   18.2885 C   0  0  0  0  0  0  0  0  0  0  0  0
   10.5734  -16.2825   18.4989 O   0  0  0  0  0  0  0  0  0  0  0  0
    7.6665  -16.8928   12.4015 O   0  0  0  0  0  0  0  0  0  0  0  0
    6.7660  -13.9072   21.0820 C   0  0  0  0  0  0  0  0  0  0  0  0
    8.1086  -13.5946   20.5179 C   0  0  2  0  0  0  0  0  0  0  0  0
    7.8671  -12.8131   19.2210 C   0  0  0  0  0  0  0  0  0  0  0  0
    9.0071  -14.7767   20.2714 C   0  0  2  0  0  0  0  0  0  0  0  0
    8.4718  -15.5661   19.1438 N   0  0  0  0  0  0  0  0  0  0  0  0
    9.1708  -15.6626   21.4507 C   0  0  0  0  0  0  0  0  0  0  0  0
    8.1954  -16.4234   21.8121 O   0  0  0  0  0  0  0  0  0  0  0  0
   11.5856  -18.2093   21.8905 O   0  0  0  0  0  0  0  0  0  0  0  0
   10.5630  -18.1177   22.8243 C   0  0  0  0  0  0  0  0  0  0  0  0
   10.4640  -16.6822   23.3561 C   0  0  2  0  0  0  0  0  0  0  0  0
   10.3332  -15.7607   22.2454 N   0  0  0  0  0  0  0  0  0  0  0  0
   11.7270  -16.4223   24.0770 C   0  0  0  0  0  0  0  0  0  0  0  0
   12.0134  -17.1221   25.0740 O   0  0  0  0  0  0  0  0  0  0  0  0
   12.5887  -15.4267   23.6698 O   0  0  0  0  0  0  0  0  0  0  0  0
  2  1  1  6
  2  7  1  0
  3  2  1  0
  4  3  1  0
  5  4  1  0
  6  5  2  0
  7  8  2  0
  9  5  1  0
 11 10  1  6
 11 12  1  0
 13 11  1  0
 14  7  1  0
 13 14  1  6
 15 16  2  0
 15 13  1  0
 18 17  1  0
 19 18  1  6
 19 20  1  0
 20 15  1  0
 21 23  1  0
 21 19  1  0
 22 21  2  0
M  END
$$$$
