EVS.pdb
     RDKit          3D

 23 22  0  0  1  0  0  0  0  0999 V2000
    8.9204  -15.3022   20.6159 N   0  0  0  0  0  0  0  0  0  0  0  0
    8.0940  -15.6786   21.7439 C   0  0  1  0  0  0  0  0  0  0  0  0
    8.1370  -17.1834   21.8868 C   0  0  0  0  0  0  0  0  0  0  0  0
    7.5915  -17.7498   20.5725 C   0  0  0  0  0  0  0  0  0  0  0  0
    7.5006  -19.2281   20.6903 C   0  0  0  0  0  0  0  0  0  0  0  0
    8.1746  -20.0128   19.9818 O   0  0  0  0  0  0  0  0  0  0  0  0
    8.6143  -15.0033   22.9697 C   0  0  0  0  0  0  0  0  0  0  0  0
    9.8684  -14.8862   23.1526 O   0  0  0  0  0  0  0  0  0  0  0  0
    6.6350  -19.7690   21.6220 O   0  0  0  0  0  0  0  0  0  0  0  0
    7.6007  -12.1421   26.9493 C   0  0  0  0  0  0  0  0  0  0  0  0
    7.2278  -12.8732   25.7063 C   0  0  2  0  0  0  0  0  0  0  0  0
    5.8915  -13.5684   25.9920 C   0  0  0  0  0  0  0  0  0  0  0  0
    8.2452  -13.8577   25.1951 C   0  0  2  0  0  0  0  0  0  0  0  0
    7.7385  -14.4787   23.9547 N   0  0  0  0  0  0  0  0  0  0  0  0
    8.5897  -14.9244   26.1675 C   0  0  0  0  0  0  0  0  0  0  0  0
    7.7922  -15.9253   26.3193 O   0  0  0  0  0  0  0  0  0  0  0  0
   12.3329  -15.7837   27.1740 O   0  0  0  0  0  0  0  0  0  0  0  0
   11.3533  -16.7310   27.4365 C   0  0  0  0  0  0  0  0  0  0  0  0
   10.0590  -16.0387   27.8827 C   0  0  2  0  0  0  0  0  0  0  0  0
    9.7491  -14.9550   26.9721 N   0  0  0  0  0  0  0  0  0  0  0  0
   10.3249  -15.4992   29.2319 C   0  0  0  0  0  0  0  0  0  0  0  0
   10.1985  -14.2705   29.4316 O   0  0  0  0  0  0  0  0  0  0  0  0
   10.7076  -16.3245   30.2673 O   0  0  0  0  0  0  0  0  0  0  0  0
  2  1  1  6
  2  7  1  0
  3  2  1  0
  4  3  1  0
  5  4  1  0
  6  5  2  0
  7  8  2  0
  9  5  1  0
 11 10  1  1
 11 12  1  0
 13 11  1  0
 14  7  1  0
 13 14  1  6
 15 16  2  0
 15 13  1  0
 18 17  1  0
 19 18  1  6
 19 20  1  0
 20 15  1  0
 21 23  1  0
 21 19  1  0
 22 21  2  0
M  END
$$$$
