KGT.pdb
     RDKit          3D

 21 20  0  0  1  0  0  0  0  0999 V2000
   25.8535  -22.1168  -11.6484 N   0  0  0  0  0  0  0  0  0  0  0  0
   25.0840  -21.3610  -12.6131 C   0  0  1  0  0  0  0  0  0  0  0  0
   23.7961  -20.8222  -12.0839 C   0  0  0  0  0  0  0  0  0  0  0  0
   22.5698  -21.1697  -12.8362 C   0  0  0  0  0  0  0  0  0  0  0  0
   21.5383  -21.9492  -12.0982 C   0  0  0  0  0  0  0  0  0  0  0  0
   20.4193  -22.3814  -13.0391 C   0  0  0  0  0  0  0  0  0  0  0  0
   19.3700  -23.0721  -12.3519 N   0  0  0  0  0  0  0  0  0  0  0  0
   25.9011  -20.1966  -13.0359 C   0  0  0  0  0  0  0  0  0  0  0  0
   27.0083  -20.0427  -12.4293 O   0  0  0  0  0  0  0  0  0  0  0  0
   25.4493  -19.3309  -14.0525 N   0  0  0  0  0  0  0  0  0  0  0  0
   26.3141  -18.2802  -14.5167 C   0  0  0  0  0  0  0  0  0  0  0  0
   25.6381  -17.3979  -15.5085 C   0  0  0  0  0  0  0  0  0  0  0  0
   24.4264  -17.5876  -15.8020 O   0  0  0  0  0  0  0  0  0  0  0  0
   26.3066  -13.4621  -15.6746 C   0  0  0  0  0  0  0  0  0  0  0  0
   26.4187  -14.1217  -17.0362 C   0  0  1  0  0  0  0  0  0  0  0  0
   27.7692  -14.4055  -17.2322 O   0  0  0  0  0  0  0  0  0  0  0  0
   25.6001  -15.4203  -17.0816 C   0  0  2  0  0  0  0  0  0  0  0  0
   26.2971  -16.3290  -16.1580 N   0  0  0  0  0  0  0  0  0  0  0  0
   25.7109  -15.9308  -18.4584 C   0  0  0  0  0  0  0  0  0  0  0  0
   26.4678  -16.8882  -18.7079 O   0  0  0  0  0  0  0  0  0  0  0  0
   24.9782  -15.3499  -19.4676 O   0  0  0  0  0  0  0  0  0  0  0  0
  2  3  1  0
  2  1  1  1
  4  3  1  0
  5  4  1  0
  6  5  1  0
  7  6  1  0
  8  2  1  0
  8  9  2  0
 10  8  1  0
 11 10  1  0
 11 12  1  0
 12 13  2  0
 15 14  1  1
 15 16  1  0
 17 15  1  0
 18 12  1  0
 17 18  1  1
 19 21  1  0
 19 17  1  0
 20 19  2  0
M  END
$$$$
