KGT.pdb
     RDKit          3D

 21 20  0  0  1  0  0  0  0  0999 V2000
   25.3118  -20.5915   -9.6218 N   0  0  0  0  0  0  0  0  0  0  0  0
   25.1593  -21.2233  -10.9147 C   0  0  1  0  0  0  0  0  0  0  0  0
   23.8602  -20.9321  -11.5904 C   0  0  0  0  0  0  0  0  0  0  0  0
   22.6295  -21.2699  -10.8408 C   0  0  0  0  0  0  0  0  0  0  0  0
   21.3389  -21.0249  -11.5411 C   0  0  0  0  0  0  0  0  0  0  0  0
   20.1646  -21.2654  -10.5989 C   0  0  0  0  0  0  0  0  0  0  0  0
   18.9149  -20.8787  -11.1810 N   0  0  0  0  0  0  0  0  0  0  0  0
   26.2342  -20.7120  -11.8011 C   0  0  0  0  0  0  0  0  0  0  0  0
   26.4061  -19.4519  -11.7993 O   0  0  0  0  0  0  0  0  0  0  0  0
   27.0016  -21.5963  -12.5861 N   0  0  0  0  0  0  0  0  0  0  0  0
   27.8423  -21.0651  -13.6246 C   0  0  0  0  0  0  0  0  0  0  0  0
   27.2080  -21.1762  -14.9679 C   0  0  0  0  0  0  0  0  0  0  0  0
   27.8566  -21.6578  -15.9363 O   0  0  0  0  0  0  0  0  0  0  0  0
   24.4752  -23.2780  -15.8181 C   0  0  0  0  0  0  0  0  0  0  0  0
   24.0206  -21.8807  -16.1954 C   0  0  1  0  0  0  0  0  0  0  0  0
   23.3380  -21.3715  -15.0920 O   0  0  0  0  0  0  0  0  0  0  0  0
   25.2250  -20.9858  -16.5231 C   0  0  2  0  0  0  0  0  0  0  0  0
   25.8816  -20.7604  -15.2259 N   0  0  0  0  0  0  0  0  0  0  0  0
   24.6724  -19.7174  -17.0270 C   0  0  0  0  0  0  0  0  0  0  0  0
   24.7053  -18.6972  -16.3130 O   0  0  0  0  0  0  0  0  0  0  0  0
   24.1205  -19.6603  -18.2860 O   0  0  0  0  0  0  0  0  0  0  0  0
  2  3  1  0
  2  1  1  1
  4  3  1  0
  5  4  1  0
  6  5  1  0
  7  6  1  0
  8  2  1  0
  8  9  2  0
 10  8  1  0
 11 10  1  0
 11 12  1  0
 12 13  2  0
 15 14  1  1
 15 16  1  0
 17 15  1  0
 18 12  1  0
 17 18  1  1
 19 21  1  0
 19 17  1  0
 20 19  2  0
M  END
$$$$
