KGT.pdb
     RDKit          3D

 21 20  0  0  1  0  0  0  0  0999 V2000
   17.3274  -12.0082  -15.5189 N   0  0  0  0  0  0  0  0  0  0  0  0
   16.7807  -11.4211  -16.7233 C   0  0  1  0  0  0  0  0  0  0  0  0
   15.2974  -11.2527  -16.7050 C   0  0  0  0  0  0  0  0  0  0  0  0
   14.5310  -12.1929  -15.8569 C   0  0  0  0  0  0  0  0  0  0  0  0
   13.0724  -11.9264  -15.7235 C   0  0  0  0  0  0  0  0  0  0  0  0
   12.4083  -13.0000  -14.8686 C   0  0  0  0  0  0  0  0  0  0  0  0
   11.0044  -12.7708  -14.7051 N   0  0  0  0  0  0  0  0  0  0  0  0
   17.3698  -10.0678  -16.8783 C   0  0  0  0  0  0  0  0  0  0  0  0
   17.0303   -9.4283  -17.9239 O   0  0  0  0  0  0  0  0  0  0  0  0
   18.2503   -9.5502  -15.9068 N   0  0  0  0  0  0  0  0  0  0  0  0
   18.8015   -8.2346  -16.0875 C   0  0  0  0  0  0  0  0  0  0  0  0
   19.4840   -7.7416  -14.8586 C   0  0  0  0  0  0  0  0  0  0  0  0
   19.0435   -8.0574  -13.7200 O   0  0  0  0  0  0  0  0  0  0  0  0
   21.9335   -8.9919  -13.3585 C   0  0  0  0  0  0  0  0  0  0  0  0
   22.5064   -7.6098  -13.6097 C   0  0  1  0  0  0  0  0  0  0  0  0
   23.1810   -7.6728  -14.8278 O   0  0  0  0  0  0  0  0  0  0  0  0
   21.3867   -6.5615  -13.6863 C   0  0  2  0  0  0  0  0  0  0  0  0
   20.6309   -6.9158  -14.8978 N   0  0  0  0  0  0  0  0  0  0  0  0
   22.0504   -5.2610  -13.8777 C   0  0  0  0  0  0  0  0  0  0  0  0
   22.0175   -4.7036  -14.9913 O   0  0  0  0  0  0  0  0  0  0  0  0
   22.7062   -4.6630  -12.8265 O   0  0  0  0  0  0  0  0  0  0  0  0
  2  3  1  0
  2  1  1  1
  4  3  1  0
  5  4  1  0
  6  5  1  0
  7  6  1  0
  8  2  1  0
  8  9  2  0
 10  8  1  0
 11 10  1  0
 11 12  1  0
 12 13  2  0
 15 14  1  6
 15 16  1  0
 17 15  1  0
 18 12  1  0
 17 18  1  6
 19 21  1  0
 19 17  1  0
 20 19  2  0
M  END
$$$$
