KGT.pdb
     RDKit          3D

 21 20  0  0  1  0  0  0  0  0999 V2000
   24.9776  -20.9965  -10.7051 N   0  0  0  0  0  0  0  0  0  0  0  0
   24.1604  -21.4770  -11.7985 C   0  0  1  0  0  0  0  0  0  0  0  0
   22.8527  -20.7714  -11.9431 C   0  0  0  0  0  0  0  0  0  0  0  0
   21.8964  -20.9052  -10.8214 C   0  0  0  0  0  0  0  0  0  0  0  0
   21.1920  -22.2115  -10.7036 C   0  0  0  0  0  0  0  0  0  0  0  0
   20.1521  -22.1602   -9.5899 C   0  0  0  0  0  0  0  0  0  0  0  0
   19.4453  -23.3977   -9.4512 N   0  0  0  0  0  0  0  0  0  0  0  0
   24.9130  -21.2599  -13.0591 C   0  0  0  0  0  0  0  0  0  0  0  0
   24.4248  -21.8028  -14.1004 O   0  0  0  0  0  0  0  0  0  0  0  0
   26.0954  -20.4925  -13.0687 N   0  0  0  0  0  0  0  0  0  0  0  0
   26.8654  -20.4032  -14.2797 C   0  0  0  0  0  0  0  0  0  0  0  0
   26.4884  -19.2147  -15.0947 C   0  0  0  0  0  0  0  0  0  0  0  0
   25.7364  -18.3266  -14.6086 O   0  0  0  0  0  0  0  0  0  0  0  0
   28.7366  -16.6925  -16.4205 C   0  0  0  0  0  0  0  0  0  0  0  0
   27.9867  -17.2503  -17.6154 C   0  0  1  0  0  0  0  0  0  0  0  0
   28.7741  -18.2748  -18.1381 O   0  0  0  0  0  0  0  0  0  0  0  0
   26.6202  -17.8072  -17.1897 C   0  0  2  0  0  0  0  0  0  0  0  0
   26.9389  -19.0203  -16.4206 N   0  0  0  0  0  0  0  0  0  0  0  0
   25.9192  -18.1761  -18.4310 C   0  0  0  0  0  0  0  0  0  0  0  0
   25.7856  -19.3762  -18.7369 O   0  0  0  0  0  0  0  0  0  0  0  0
   25.4125  -17.1949  -19.2515 O   0  0  0  0  0  0  0  0  0  0  0  0
  2  3  1  0
  2  1  1  1
  4  3  1  0
  5  4  1  0
  6  5  1  0
  7  6  1  0
  8  2  1  0
  8  9  2  0
 10  8  1  0
 11 10  1  0
 11 12  1  0
 12 13  2  0
 15 14  1  1
 15 16  1  0
 17 15  1  0
 18 12  1  0
 17 18  1  1
 19 21  1  0
 19 17  1  0
 20 19  2  0
M  END
$$$$
