KGT.pdb
     RDKit          3D

 21 20  0  0  1  0  0  0  0  0999 V2000
   24.6971  -17.0963  -19.4363 N   0  0  0  0  0  0  0  0  0  0  0  0
   23.2983  -16.9951  -19.0797 C   0  0  1  0  0  0  0  0  0  0  0  0
   22.3593  -17.1432  -20.2309 C   0  0  0  0  0  0  0  0  0  0  0  0
   22.7726  -16.5255  -21.5109 C   0  0  0  0  0  0  0  0  0  0  0  0
   21.8447  -16.7016  -22.6616 C   0  0  0  0  0  0  0  0  0  0  0  0
   22.3780  -15.9802  -23.8943 C   0  0  0  0  0  0  0  0  0  0  0  0
   21.5287  -16.1544  -25.0338 N   0  0  0  0  0  0  0  0  0  0  0  0
   22.9914  -18.0893  -18.1252 C   0  0  0  0  0  0  0  0  0  0  0  0
   22.1173  -18.9316  -18.5048 O   0  0  0  0  0  0  0  0  0  0  0  0
   23.6469  -18.1631  -16.8795 N   0  0  0  0  0  0  0  0  0  0  0  0
   23.4221  -19.3037  -16.0334 C   0  0  0  0  0  0  0  0  0  0  0  0
   22.2904  -19.0845  -15.0897 C   0  0  0  0  0  0  0  0  0  0  0  0
   22.4069  -18.2603  -14.1424 O   0  0  0  0  0  0  0  0  0  0  0  0
   18.8558  -21.4619  -15.4824 C   0  0  0  0  0  0  0  0  0  0  0  0
   18.7085  -20.0481  -14.9522 C   0  0  1  0  0  0  0  0  0  0  0  0
   17.6276  -20.0624  -14.0723 O   0  0  0  0  0  0  0  0  0  0  0  0
   19.9798  -19.6091  -14.2107 C   0  0  2  0  0  0  0  0  0  0  0  0
   21.0577  -19.7680  -15.1993 N   0  0  0  0  0  0  0  0  0  0  0  0
   20.1692  -20.5695  -13.1107 C   0  0  0  0  0  0  0  0  0  0  0  0
   19.4374  -20.5149  -12.1041 O   0  0  0  0  0  0  0  0  0  0  0  0
   21.1543  -21.5262  -13.1959 O   0  0  0  0  0  0  0  0  0  0  0  0
  2  3  1  0
  2  1  1  6
  4  3  1  0
  5  4  1  0
  6  5  1  0
  7  6  1  0
  8  2  1  0
  8  9  2  0
 10  8  1  0
 11 10  1  0
 11 12  1  0
 12 13  2  0
 15 14  1  1
 15 16  1  0
 17 15  1  0
 18 12  1  0
 17 18  1  6
 19 21  1  0
 19 17  1  0
 20 19  2  0
M  END
$$$$
