KGT.pdb
     RDKit          3D

 21 20  0  0  1  0  0  0  0  0999 V2000
   16.1684  -17.7468    3.4104 N   0  0  0  0  0  0  0  0  0  0  0  0
   15.2947  -18.5161    4.2700 C   0  0  1  0  0  0  0  0  0  0  0  0
   14.6958  -19.7183    3.6180 C   0  0  0  0  0  0  0  0  0  0  0  0
   15.2301  -20.0905    2.2889 C   0  0  0  0  0  0  0  0  0  0  0  0
   14.5744  -21.2417    1.6098 C   0  0  0  0  0  0  0  0  0  0  0  0
   15.3135  -21.5966    0.3245 C   0  0  0  0  0  0  0  0  0  0  0  0
   14.7676  -22.7574   -0.3115 N   0  0  0  0  0  0  0  0  0  0  0  0
   16.0981  -19.0005    5.4199 C   0  0  0  0  0  0  0  0  0  0  0  0
   15.9211  -20.2155    5.7514 O   0  0  0  0  0  0  0  0  0  0  0  0
   16.9956  -18.1403    6.0844 N   0  0  0  0  0  0  0  0  0  0  0  0
   17.7716  -18.6472    7.1835 C   0  0  0  0  0  0  0  0  0  0  0  0
   18.7732  -17.6549    7.6645 C   0  0  0  0  0  0  0  0  0  0  0  0
   18.8826  -16.5371    7.0909 O   0  0  0  0  0  0  0  0  0  0  0  0
   22.0392  -16.4361   11.2276 C   0  0  0  0  0  0  0  0  0  0  0  0
   21.0720  -17.4153   10.5895 C   0  0  1  0  0  0  0  0  0  0  0  0
   19.9564  -17.4749   11.4231 O   0  0  0  0  0  0  0  0  0  0  0  0
   20.6543  -16.9359    9.1915 C   0  0  2  0  0  0  0  0  0  0  0  0
   19.6328  -17.9025    8.7592 N   0  0  0  0  0  0  0  0  0  0  0  0
   21.8480  -17.0600    8.3383 C   0  0  0  0  0  0  0  0  0  0  0  0
   22.2154  -18.1822    7.9417 O   0  0  0  0  0  0  0  0  0  0  0  0
   22.5562  -15.9362    7.9799 O   0  0  0  0  0  0  0  0  0  0  0  0
  2  3  1  0
  2  1  1  6
  4  3  1  0
  5  4  1  0
  6  5  1  0
  7  6  1  0
  8  2  1  0
  8  9  2  0
 10  8  1  0
 11 10  1  0
 11 12  1  0
 12 13  2  0
 15 14  1  1
 15 16  1  0
 17 15  1  0
 18 12  1  0
 17 18  1  6
 19 21  1  0
 19 17  1  0
 20 19  2  0
M  END
$$$$
