KGT.pdb
     RDKit          3D

 21 20  0  0  1  0  0  0  0  0999 V2000
   15.9335  -11.7519  -16.0826 N   0  0  0  0  0  0  0  0  0  0  0  0
   17.2644  -11.8462  -15.5223 C   0  0  1  0  0  0  0  0  0  0  0  0
   17.9339  -13.1612  -15.7493 C   0  0  0  0  0  0  0  0  0  0  0  0
   17.2550  -14.3572  -15.2022 C   0  0  0  0  0  0  0  0  0  0  0  0
   17.8695  -15.6740  -15.5257 C   0  0  0  0  0  0  0  0  0  0  0  0
   16.9711  -16.8133  -15.0576 C   0  0  0  0  0  0  0  0  0  0  0  0
   17.5190  -18.0987  -15.3701 N   0  0  0  0  0  0  0  0  0  0  0  0
   18.1067  -10.8118  -16.1726 C   0  0  0  0  0  0  0  0  0  0  0  0
   18.2106  -10.8918  -17.4377 O   0  0  0  0  0  0  0  0  0  0  0  0
   18.7406   -9.8130  -15.4061 N   0  0  0  0  0  0  0  0  0  0  0  0
   19.5579   -8.8322  -16.0675 C   0  0  0  0  0  0  0  0  0  0  0  0
   20.1393   -7.8516  -15.1086 C   0  0  0  0  0  0  0  0  0  0  0  0
   19.6727   -7.7552  -13.9410 O   0  0  0  0  0  0  0  0  0  0  0  0
   23.3409   -4.0397  -14.5848 C   0  0  0  0  0  0  0  0  0  0  0  0
   22.6691   -5.1153  -15.4174 C   0  0  1  0  0  0  0  0  0  0  0  0
   23.6746   -5.9898  -15.8261 O   0  0  0  0  0  0  0  0  0  0  0  0
   21.6233   -5.8736  -14.5867 C   0  0  2  0  0  0  0  0  0  0  0  0
   21.2156   -6.9981  -15.4433 N   0  0  0  0  0  0  0  0  0  0  0  0
   20.4903   -4.9505  -14.4063 C   0  0  0  0  0  0  0  0  0  0  0  0
   20.2991   -4.4088  -13.3010 O   0  0  0  0  0  0  0  0  0  0  0  0
   19.6441   -4.6874  -15.4587 O   0  0  0  0  0  0  0  0  0  0  0  0
  2  3  1  0
  2  1  1  6
  4  3  1  0
  5  4  1  0
  6  5  1  0
  7  6  1  0
  8  2  1  0
  8  9  2  0
 10  8  1  0
 11 10  1  0
 11 12  1  0
 12 13  2  0
 15 14  1  1
 15 16  1  0
 17 15  1  0
 18 12  1  0
 17 18  1  6
 19 21  1  0
 19 17  1  0
 20 19  2  0
M  END
$$$$
