KGT.pdb
     RDKit          3D

 21 20  0  0  1  0  0  0  0  0999 V2000
   26.1987  -20.2299  -14.0538 N   0  0  0  0  0  0  0  0  0  0  0  0
   25.1823  -21.2339  -13.8235 C   0  0  1  0  0  0  0  0  0  0  0  0
   24.6001  -21.2135  -12.4490 C   0  0  0  0  0  0  0  0  0  0  0  0
   25.5306  -20.9194  -11.3361 C   0  0  0  0  0  0  0  0  0  0  0  0
   24.9267  -20.8056   -9.9801 C   0  0  0  0  0  0  0  0  0  0  0  0
   25.9659  -20.3334   -8.9694 C   0  0  0  0  0  0  0  0  0  0  0  0
   25.4039  -20.1331   -7.6678 N   0  0  0  0  0  0  0  0  0  0  0  0
   24.0685  -20.9800  -14.7709 C   0  0  0  0  0  0  0  0  0  0  0  0
   23.2053  -21.9077  -14.8781 O   0  0  0  0  0  0  0  0  0  0  0  0
   23.9997  -19.7721  -15.4943 N   0  0  0  0  0  0  0  0  0  0  0  0
   22.8733  -19.5314  -16.3549 C   0  0  0  0  0  0  0  0  0  0  0  0
   22.7997  -18.1098  -16.7938 C   0  0  0  0  0  0  0  0  0  0  0  0
   23.3603  -17.2076  -16.1139 O   0  0  0  0  0  0  0  0  0  0  0  0
   23.5782  -16.8916  -20.3755 C   0  0  0  0  0  0  0  0  0  0  0  0
   22.2058  -16.4024  -19.9529 C   0  0  1  0  0  0  0  0  0  0  0  0
   21.2858  -17.3356  -20.4278 O   0  0  0  0  0  0  0  0  0  0  0  0
   22.1091  -16.3055  -18.4232 C   0  0  2  0  0  0  0  0  0  0  0  0
   22.1171  -17.7030  -17.9631 N   0  0  0  0  0  0  0  0  0  0  0  0
   20.8024  -15.6935  -18.1295 C   0  0  0  0  0  0  0  0  0  0  0  0
   19.8443  -16.4094  -17.7813 O   0  0  0  0  0  0  0  0  0  0  0  0
   20.6411  -14.3317  -18.2400 O   0  0  0  0  0  0  0  0  0  0  0  0
  2  3  1  0
  2  1  1  1
  4  3  1  0
  5  4  1  0
  6  5  1  0
  7  6  1  0
  8  2  1  0
  8  9  2  0
 10  8  1  0
 11 10  1  0
 11 12  1  0
 12 13  2  0
 15 14  1  1
 15 16  1  0
 17 15  1  0
 18 12  1  0
 17 18  1  1
 19 21  1  0
 19 17  1  0
 20 19  2  0
M  END
$$$$
