KGT.pdb
     RDKit          3D

 21 20  0  0  1  0  0  0  0  0999 V2000
   21.0705  -19.1078  -14.1173 N   0  0  0  0  0  0  0  0  0  0  0  0
   21.8488  -20.2084  -13.5909 C   0  0  1  0  0  0  0  0  0  0  0  0
   21.1305  -21.5171  -13.5786 C   0  0  0  0  0  0  0  0  0  0  0  0
   19.6937  -21.4848  -13.2246 C   0  0  0  0  0  0  0  0  0  0  0  0
   18.9828  -22.7927  -13.2204 C   0  0  0  0  0  0  0  0  0  0  0  0
   17.5085  -22.5994  -12.8834 C   0  0  0  0  0  0  0  0  0  0  0  0
   16.7649  -23.8187  -12.9855 N   0  0  0  0  0  0  0  0  0  0  0  0
   23.0431  -20.3763  -14.4558 C   0  0  0  0  0  0  0  0  0  0  0  0
   23.9225  -21.1952  -14.0392 O   0  0  0  0  0  0  0  0  0  0  0  0
   23.1658  -19.6565  -15.6615 N   0  0  0  0  0  0  0  0  0  0  0  0
   24.3091  -19.8850  -16.5031 C   0  0  0  0  0  0  0  0  0  0  0  0
   24.8871  -18.6119  -17.0173 C   0  0  0  0  0  0  0  0  0  0  0  0
   24.4617  -17.5049  -16.5885 O   0  0  0  0  0  0  0  0  0  0  0  0
   28.6567  -18.2781  -17.7412 C   0  0  0  0  0  0  0  0  0  0  0  0
   27.7351  -17.0752  -17.6672 C   0  0  1  0  0  0  0  0  0  0  0  0
   28.4478  -15.9942  -18.1832 O   0  0  0  0  0  0  0  0  0  0  0  0
   26.4659  -17.3092  -18.4997 C   0  0  2  0  0  0  0  0  0  0  0  0
   25.9154  -18.5735  -17.9868 N   0  0  0  0  0  0  0  0  0  0  0  0
   26.9119  -17.4902  -19.8914 C   0  0  0  0  0  0  0  0  0  0  0  0
   26.9704  -18.6336  -20.3822 O   0  0  0  0  0  0  0  0  0  0  0  0
   27.2634  -16.3963  -20.6480 O   0  0  0  0  0  0  0  0  0  0  0  0
  2  3  1  0
  2  1  1  6
  4  3  1  0
  5  4  1  0
  6  5  1  0
  7  6  1  0
  8  2  1  0
  8  9  2  0
 10  8  1  0
 11 10  1  0
 11 12  1  0
 12 13  2  0
 15 14  1  6
 15 16  1  0
 17 15  1  0
 18 12  1  0
 17 18  1  1
 19 21  1  0
 19 17  1  0
 20 19  2  0
M  END
$$$$
