KGT.pdb
     RDKit          3D

 21 20  0  0  1  0  0  0  0  0999 V2000
   20.9118  -10.8071  -19.2350 N   0  0  0  0  0  0  0  0  0  0  0  0
   21.0943  -11.5957  -18.0355 C   0  0  1  0  0  0  0  0  0  0  0  0
   21.8640  -12.8581  -18.2425 C   0  0  0  0  0  0  0  0  0  0  0  0
   21.2931  -13.8375  -19.1941 C   0  0  0  0  0  0  0  0  0  0  0  0
   22.0839  -15.0780  -19.4222 C   0  0  0  0  0  0  0  0  0  0  0  0
   21.4147  -15.9530  -20.4762 C   0  0  0  0  0  0  0  0  0  0  0  0
   22.1572  -17.1488  -20.7387 N   0  0  0  0  0  0  0  0  0  0  0  0
   21.8584  -10.7754  -17.0630 C   0  0  0  0  0  0  0  0  0  0  0  0
   22.0278  -11.2891  -15.9119 O   0  0  0  0  0  0  0  0  0  0  0  0
   22.3539   -9.5062  -17.4241 N   0  0  0  0  0  0  0  0  0  0  0  0
   23.0672   -8.7266  -16.4490 C   0  0  0  0  0  0  0  0  0  0  0  0
   22.4545   -7.3832  -16.2516 C   0  0  0  0  0  0  0  0  0  0  0  0
   22.1074   -6.6932  -17.2485 O   0  0  0  0  0  0  0  0  0  0  0  0
   19.4118   -6.5252  -15.5561 C   0  0  0  0  0  0  0  0  0  0  0  0
   20.1354   -5.8585  -14.4014 C   0  0  1  0  0  0  0  0  0  0  0  0
   20.1308   -6.7706  -13.3474 O   0  0  0  0  0  0  0  0  0  0  0  0
   21.5813   -5.5160  -14.7894 C   0  0  2  0  0  0  0  0  0  0  0  0
   22.2339   -6.8217  -14.9730 N   0  0  0  0  0  0  0  0  0  0  0  0
   22.1686   -4.8263  -13.6284 C   0  0  0  0  0  0  0  0  0  0  0  0
   22.9175   -5.4465  -12.8497 O   0  0  0  0  0  0  0  0  0  0  0  0
   21.8895   -3.4978  -13.4049 O   0  0  0  0  0  0  0  0  0  0  0  0
  2  3  1  0
  2  1  1  6
  4  3  1  0
  5  4  1  0
  6  5  1  0
  7  6  1  0
  8  2  1  0
  8  9  2  0
 10  8  1  0
 11 10  1  0
 11 12  1  0
 12 13  2  0
 15 14  1  6
 15 16  1  0
 17 15  1  0
 18 12  1  0
 17 18  1  1
 19 21  1  0
 19 17  1  0
 20 19  2  0
M  END
$$$$
