KGT.pdb
     RDKit          3D

 21 20  0  0  1  0  0  0  0  0999 V2000
   20.9209  -11.8326  -16.9796 N   0  0  0  0  0  0  0  0  0  0  0  0
   19.6331  -11.5541  -17.5780 C   0  0  1  0  0  0  0  0  0  0  0  0
   18.4927  -12.2811  -16.9458 C   0  0  0  0  0  0  0  0  0  0  0  0
   18.7645  -13.6528  -16.4609 C   0  0  0  0  0  0  0  0  0  0  0  0
   17.6201  -14.3750  -15.8403 C   0  0  0  0  0  0  0  0  0  0  0  0
   18.0102  -15.8109  -15.5081 C   0  0  0  0  0  0  0  0  0  0  0  0
   16.9193  -16.5544  -14.9538 N   0  0  0  0  0  0  0  0  0  0  0  0
   19.3630  -10.1031  -17.4226 C   0  0  0  0  0  0  0  0  0  0  0  0
   18.2709   -9.6827  -17.9207 O   0  0  0  0  0  0  0  0  0  0  0  0
   20.2822   -9.2668  -16.7573 N   0  0  0  0  0  0  0  0  0  0  0  0
   20.0178   -7.8557  -16.6767 C   0  0  0  0  0  0  0  0  0  0  0  0
   21.0136   -7.1490  -15.8233 C   0  0  0  0  0  0  0  0  0  0  0  0
   21.8346   -7.8089  -15.1299 O   0  0  0  0  0  0  0  0  0  0  0  0
   22.8577   -2.7158  -14.4213 C   0  0  0  0  0  0  0  0  0  0  0  0
   21.8059   -3.5588  -15.1175 C   0  0  1  0  0  0  0  0  0  0  0  0
   21.9147   -3.2873  -16.4803 O   0  0  0  0  0  0  0  0  0  0  0  0
   22.0487   -5.0535  -14.8617 C   0  0  2  0  0  0  0  0  0  0  0  0
   21.0924   -5.7397  -15.7445 N   0  0  0  0  0  0  0  0  0  0  0  0
   21.6879   -5.2961  -13.4548 C   0  0  0  0  0  0  0  0  0  0  0  0
   20.4937   -5.4534  -13.1370 O   0  0  0  0  0  0  0  0  0  0  0  0
   22.6700   -5.3489  -12.4929 O   0  0  0  0  0  0  0  0  0  0  0  0
  2  3  1  0
  2  1  1  1
  4  3  1  0
  5  4  1  0
  6  5  1  0
  7  6  1  0
  8  2  1  0
  8  9  2  0
 10  8  1  0
 11 10  1  0
 11 12  1  0
 12 13  2  0
 15 14  1  1
 15 16  1  0
 17 15  1  0
 18 12  1  0
 17 18  1  6
 19 21  1  0
 19 17  1  0
 20 19  2  0
M  END
$$$$
