KGT.pdb
     RDKit          3D

 21 20  0  0  1  0  0  0  0  0999 V2000
   19.0760  -20.7900  -12.2322 N   0  0  0  0  0  0  0  0  0  0  0  0
   19.9807  -21.8881  -11.9682 C   0  0  1  0  0  0  0  0  0  0  0  0
   19.5262  -23.2019  -12.5122 C   0  0  0  0  0  0  0  0  0  0  0  0
   18.5426  -23.9540  -11.7013 C   0  0  0  0  0  0  0  0  0  0  0  0
   19.0712  -24.6491  -10.4956 C   0  0  0  0  0  0  0  0  0  0  0  0
   17.9294  -25.2310   -9.6697 C   0  0  0  0  0  0  0  0  0  0  0  0
   18.4007  -25.9512   -8.5254 N   0  0  0  0  0  0  0  0  0  0  0  0
   21.2785  -21.5749  -12.6164 C   0  0  0  0  0  0  0  0  0  0  0  0
   21.9078  -22.5635  -13.1106 O   0  0  0  0  0  0  0  0  0  0  0  0
   21.7578  -20.2502  -12.6653 N   0  0  0  0  0  0  0  0  0  0  0  0
   23.0214  -19.9829  -13.2971 C   0  0  0  0  0  0  0  0  0  0  0  0
   22.8575  -19.5572  -14.7153 C   0  0  0  0  0  0  0  0  0  0  0  0
   23.8566  -19.1668  -15.3784 O   0  0  0  0  0  0  0  0  0  0  0  0
   21.3845  -21.4636  -17.6226 C   0  0  0  0  0  0  0  0  0  0  0  0
   20.5930  -20.1824  -17.4395 C   0  0  1  0  0  0  0  0  0  0  0  0
   19.5057  -20.4978  -16.6265 O   0  0  0  0  0  0  0  0  0  0  0  0
   21.4526  -19.1024  -16.7662 C   0  0  2  0  0  0  0  0  0  0  0  0
   21.6092  -19.5664  -15.3789 N   0  0  0  0  0  0  0  0  0  0  0  0
   20.6544  -17.8652  -16.7889 C   0  0  0  0  0  0  0  0  0  0  0  0
   20.1605  -17.4240  -15.7339 O   0  0  0  0  0  0  0  0  0  0  0  0
   20.4551  -17.1978  -17.9754 O   0  0  0  0  0  0  0  0  0  0  0  0
  2  3  1  0
  2  1  1  6
  4  3  1  0
  5  4  1  0
  6  5  1  0
  7  6  1  0
  8  2  1  0
  8  9  2  0
 10  8  1  0
 11 10  1  0
 11 12  1  0
 12 13  2  0
 15 14  1  1
 15 16  1  0
 17 15  1  0
 18 12  1  0
 17 18  1  1
 19 21  1  0
 19 17  1  0
 20 19  2  0
M  END
$$$$
