KGT.pdb
     RDKit          3D

 21 20  0  0  1  0  0  0  0  0999 V2000
   21.3847  -11.7673  -18.1409 N   0  0  0  0  0  0  0  0  0  0  0  0
   20.1932  -11.7284  -17.3205 C   0  0  1  0  0  0  0  0  0  0  0  0
   19.7546  -13.0618  -16.8121 C   0  0  0  0  0  0  0  0  0  0  0  0
   18.7277  -13.7724  -17.6066 C   0  0  0  0  0  0  0  0  0  0  0  0
   18.3145  -15.1129  -17.1079 C   0  0  0  0  0  0  0  0  0  0  0  0
   17.3605  -15.7795  -18.0927 C   0  0  0  0  0  0  0  0  0  0  0  0
   16.9076  -17.0561  -17.6287 N   0  0  0  0  0  0  0  0  0  0  0  0
   20.4844  -10.8854  -16.1343 C   0  0  0  0  0  0  0  0  0  0  0  0
   19.5216  -10.7161  -15.3207 O   0  0  0  0  0  0  0  0  0  0  0  0
   21.7623  -10.3201  -15.9488 N   0  0  0  0  0  0  0  0  0  0  0  0
   21.9883   -9.4454  -14.8303 C   0  0  0  0  0  0  0  0  0  0  0  0
   22.0314   -8.0141  -15.2406 C   0  0  0  0  0  0  0  0  0  0  0  0
   22.1741   -7.7080  -16.4557 O   0  0  0  0  0  0  0  0  0  0  0  0
   20.3683   -3.6430  -15.1496 C   0  0  0  0  0  0  0  0  0  0  0  0
   20.4915   -5.1320  -14.8870 C   0  0  1  0  0  0  0  0  0  0  0  0
   19.9317   -5.7791  -15.9873 O   0  0  0  0  0  0  0  0  0  0  0  0
   21.9648   -5.5386  -14.7359 C   0  0  2  0  0  0  0  0  0  0  0  0
   21.9182   -6.9486  -14.3183 N   0  0  0  0  0  0  0  0  0  0  0  0
   22.5109   -4.7152  -13.6441 C   0  0  0  0  0  0  0  0  0  0  0  0
   22.4844   -5.1382  -12.4727 O   0  0  0  0  0  0  0  0  0  0  0  0
   23.0499   -3.4796  -13.9188 O   0  0  0  0  0  0  0  0  0  0  0  0
  2  3  1  0
  2  1  1  6
  4  3  1  0
  5  4  1  0
  6  5  1  0
  7  6  1  0
  8  2  1  0
  8  9  2  0
 10  8  1  0
 11 10  1  0
 11 12  1  0
 12 13  2  0
 15 14  1  6
 15 16  1  0
 17 15  1  0
 18 12  1  0
 17 18  1  1
 19 21  1  0
 19 17  1  0
 20 19  2  0
M  END
$$$$
