KGT.pdb
     RDKit          3D

 21 20  0  0  1  0  0  0  0  0999 V2000
   26.3292  -21.0670  -13.6431 N   0  0  0  0  0  0  0  0  0  0  0  0
   24.8945  -21.2267  -13.5418 C   0  0  1  0  0  0  0  0  0  0  0  0
   24.3183  -20.7825  -12.2380 C   0  0  0  0  0  0  0  0  0  0  0  0
   25.0979  -21.1040  -11.0216 C   0  0  0  0  0  0  0  0  0  0  0  0
   24.4504  -20.7917   -9.7180 C   0  0  0  0  0  0  0  0  0  0  0  0
   25.3487  -21.2118   -8.5600 C   0  0  0  0  0  0  0  0  0  0  0  0
   24.7527  -20.9422   -7.2864 N   0  0  0  0  0  0  0  0  0  0  0  0
   24.2679  -20.3953  -14.5994 C   0  0  0  0  0  0  0  0  0  0  0  0
   23.0024  -20.4772  -14.6965 O   0  0  0  0  0  0  0  0  0  0  0  0
   25.0558  -19.5740  -15.4310 N   0  0  0  0  0  0  0  0  0  0  0  0
   24.4111  -18.7334  -16.4031 C   0  0  0  0  0  0  0  0  0  0  0  0
   25.3844  -17.8681  -17.1263 C   0  0  0  0  0  0  0  0  0  0  0  0
   26.0664  -17.0167  -16.4935 O   0  0  0  0  0  0  0  0  0  0  0  0
   28.4549  -18.5931  -18.4879 C   0  0  0  0  0  0  0  0  0  0  0  0
   27.6686  -18.0747  -19.6772 C   0  0  1  0  0  0  0  0  0  0  0  0
   27.0930  -19.1863  -20.2903 O   0  0  0  0  0  0  0  0  0  0  0  0
   26.5706  -17.1021  -19.2224 C   0  0  2  0  0  0  0  0  0  0  0  0
   25.5929  -17.9497  -18.5222 N   0  0  0  0  0  0  0  0  0  0  0  0
   25.9665  -16.5573  -20.4498 C   0  0  0  0  0  0  0  0  0  0  0  0
   26.5987  -15.7386  -21.1439 O   0  0  0  0  0  0  0  0  0  0  0  0
   24.7045  -16.9530  -20.8287 O   0  0  0  0  0  0  0  0  0  0  0  0
  2  3  1  0
  2  1  1  1
  4  3  1  0
  5  4  1  0
  6  5  1  0
  7  6  1  0
  8  2  1  0
  8  9  2  0
 10  8  1  0
 11 10  1  0
 11 12  1  0
 12 13  2  0
 15 14  1  1
 15 16  1  0
 17 15  1  0
 18 12  1  0
 17 18  1  6
 19 21  1  0
 19 17  1  0
 20 19  2  0
M  END
$$$$
