WMH.pdb
     RDKit          3D

 33 35  0  0  1  0  0  0  0  0999 V2000
   25.9289  -21.3521  -13.7275 N   0  0  0  0  0  0  0  0  0  0  0  0
   25.6085  -20.3859  -12.6627 C   0  0  1  0  0  0  0  0  0  0  0  0
   24.4572  -19.5408  -13.1321 C   0  0  0  0  0  0  0  0  0  0  0  0
   24.6075  -18.8901  -14.4297 C   0  0  0  0  0  0  0  0  0  0  0  0
   23.6895  -19.0429  -15.4781 C   0  0  0  0  0  0  0  0  0  0  0  0
   24.1122  -18.3520  -16.5522 N   0  0  0  0  0  0  0  0  0  0  0  0
   25.2863  -17.7378  -16.2594 C   0  0  0  0  0  0  0  0  0  0  0  0
   26.1079  -16.9123  -17.0012 C   0  0  0  0  0  0  0  0  0  0  0  0
   27.2551  -16.3930  -16.4602 C   0  0  0  0  0  0  0  0  0  0  0  0
   27.5474  -16.7315  -15.1501 C   0  0  0  0  0  0  0  0  0  0  0  0
   26.7363  -17.5534  -14.4021 C   0  0  0  0  0  0  0  0  0  0  0  0
   25.5800  -18.0730  -14.9587 C   0  0  0  0  0  0  0  0  0  0  0  0
   25.3877  -21.0938  -11.4210 C   0  0  0  0  0  0  0  0  0  0  0  0
   24.7957  -22.2014  -11.4222 O   0  0  0  0  0  0  0  0  0  0  0  0
   29.0921  -18.4992   -6.8207 C   0  0  0  0  0  0  0  0  0  0  0  0
   28.1204  -19.8992   -6.2614 S   0  0  0  0  0  0  0  0  0  0  0  0
   27.3030  -20.7302   -7.6258 C   0  0  0  0  0  0  0  0  0  0  0  0
   25.8278  -20.6353   -7.6407 C   0  0  0  0  0  0  0  0  0  0  0  0
   25.1220  -20.9819   -8.8976 C   0  0  2  0  0  0  0  0  0  0  0  0
   25.8022  -20.6256  -10.1173 N   0  0  0  0  0  0  0  0  0  0  0  0
   23.6842  -20.5877   -8.9313 C   0  0  0  0  0  0  0  0  0  0  0  0
   23.2229  -19.7187   -9.7211 O   0  0  0  0  0  0  0  0  0  0  0  0
   22.7492  -21.1927   -8.0518 N   0  0  0  0  0  0  0  0  0  0  0  0
   21.3526  -21.4303   -8.4438 C   0  0  1  0  0  0  0  0  0  0  0  0
   21.4704  -22.1644   -9.7869 C   0  0  0  0  0  0  0  0  0  0  0  0
   20.1862  -22.5032  -10.3782 C   0  0  0  0  0  0  0  0  0  0  0  0
   18.9528  -22.2529   -9.8362 C   0  0  0  0  0  0  0  0  0  0  0  0
   18.0136  -22.7107  -10.6688 N   0  0  0  0  0  0  0  0  0  0  0  0
   18.6399  -23.2408  -11.7184 C   0  0  0  0  0  0  0  0  0  0  0  0
   19.9836  -23.1184  -11.5500 N   0  0  0  0  0  0  0  0  0  0  0  0
   20.6312  -22.2142   -7.4456 C   0  0  0  0  0  0  0  0  0  0  0  0
   19.4409  -21.9706   -7.1848 O   0  0  0  0  0  0  0  0  0  0  0  0
   21.2587  -23.2432   -6.7706 O   0  0  0  0  0  0  0  0  0  0  0  0
  2  1  1  6
  3  4  1  0
  3  2  1  0
  4  5  2  0
  6  5  1  0
  7  6  1  0
  8  7  2  0
  9  8  1  0
 10 11  1  0
 10  9  2  0
 11 12  2  0
 12  7  1  0
 12  4  1  0
 13  2  1  0
 13 14  2  0
 16 15  1  0
 17 16  1  0
 17 18  1  0
 19 20  1  0
 19 18  1  1
 20 13  1  0
 21 19  1  0
 22 21  2  0
 23 21  1  0
 24 23  1  0
 25 26  1  0
 24 25  1  6
 26 27  2  0
 28 27  1  0
 29 28  1  0
 30 29  2  0
 30 26  1  0
 31 33  1  0
 31 24  1  0
 32 31  2  0
M  END
$$$$
