WMH.pdb
     RDKit          3D

 33 35  0  0  1  0  0  0  0  0999 V2000
   27.8405  -20.9392  -15.1881 N   0  0  0  0  0  0  0  0  0  0  0  0
   27.0154  -20.0380  -14.3654 C   0  0  1  0  0  0  0  0  0  0  0  0
   26.1662  -19.2108  -15.2899 C   0  0  0  0  0  0  0  0  0  0  0  0
   26.8626  -18.2377  -16.1253 C   0  0  0  0  0  0  0  0  0  0  0  0
   27.3676  -18.5377  -17.3980 C   0  0  0  0  0  0  0  0  0  0  0  0
   27.9828  -17.4546  -17.9062 N   0  0  0  0  0  0  0  0  0  0  0  0
   27.9069  -16.4339  -17.0153 C   0  0  0  0  0  0  0  0  0  0  0  0
   28.3597  -15.1303  -17.0623 C   0  0  0  0  0  0  0  0  0  0  0  0
   28.1359  -14.2709  -16.0184 C   0  0  0  0  0  0  0  0  0  0  0  0
   27.4424  -14.7663  -14.9275 C   0  0  0  0  0  0  0  0  0  0  0  0
   26.9872  -16.0634  -14.8699 C   0  0  0  0  0  0  0  0  0  0  0  0
   27.2193  -16.9232  -15.9298 C   0  0  0  0  0  0  0  0  0  0  0  0
   26.2859  -20.8130  -13.3862 C   0  0  0  0  0  0  0  0  0  0  0  0
   25.6368  -21.8281  -13.7406 O   0  0  0  0  0  0  0  0  0  0  0  0
   28.7221  -20.9047   -6.9460 C   0  0  0  0  0  0  0  0  0  0  0  0
   27.0322  -20.5734   -7.4477 S   0  0  0  0  0  0  0  0  0  0  0  0
   26.7327  -21.0679   -9.1464 C   0  0  0  0  0  0  0  0  0  0  0  0
   25.3758  -20.7903   -9.6634 C   0  0  0  0  0  0  0  0  0  0  0  0
   25.1443  -20.9348  -11.1206 C   0  0  2  0  0  0  0  0  0  0  0  0
   26.2293  -20.5164  -11.9722 N   0  0  0  0  0  0  0  0  0  0  0  0
   23.8333  -20.4071  -11.5965 C   0  0  0  0  0  0  0  0  0  0  0  0
   23.7072  -19.3037  -12.1950 O   0  0  0  0  0  0  0  0  0  0  0  0
   22.6400  -21.1471  -11.3907 N   0  0  0  0  0  0  0  0  0  0  0  0
   21.4823  -21.0227  -12.2878 C   0  0  1  0  0  0  0  0  0  0  0  0
   21.9693  -21.6507  -13.6013 C   0  0  0  0  0  0  0  0  0  0  0  0
   20.9668  -21.6455  -14.6542 C   0  0  0  0  0  0  0  0  0  0  0  0
   20.0587  -22.6382  -14.9140 C   0  0  0  0  0  0  0  0  0  0  0  0
   19.3071  -22.2747  -15.9571 N   0  0  0  0  0  0  0  0  0  0  0  0
   19.7309  -21.0744  -16.3506 C   0  0  0  0  0  0  0  0  0  0  0  0
   20.7568  -20.6751  -15.5526 N   0  0  0  0  0  0  0  0  0  0  0  0
   20.3032  -21.6984  -11.7545 C   0  0  0  0  0  0  0  0  0  0  0  0
   19.1839  -21.1614  -11.8085 O   0  0  0  0  0  0  0  0  0  0  0  0
   20.4091  -22.9496  -11.1787 O   0  0  0  0  0  0  0  0  0  0  0  0
  2  1  1  6
  3  4  1  0
  3  2  1  0
  4  5  2  0
  6  5  1  0
  7  6  1  0
  8  7  2  0
  9  8  1  0
 10 11  1  0
 10  9  2  0
 11 12  2  0
 12  7  1  0
 12  4  1  0
 13  2  1  0
 13 14  2  0
 16 15  1  0
 17 16  1  0
 17 18  1  0
 19 20  1  0
 19 18  1  1
 20 13  1  0
 21 19  1  0
 22 21  2  0
 23 21  1  0
 24 23  1  0
 25 26  1  0
 24 25  1  6
 26 27  2  0
 28 27  1  0
 29 28  1  0
 30 29  2  0
 30 26  1  0
 31 33  1  0
 31 24  1  0
 32 31  2  0
M  END
$$$$
