WMH.pdb
     RDKit          3D

 33 35  0  0  1  0  0  0  0  0999 V2000
   28.0134  -21.5214  -15.7499 N   0  0  0  0  0  0  0  0  0  0  0  0
   27.4016  -20.6069  -14.7705 C   0  0  1  0  0  0  0  0  0  0  0  0
   26.3228  -19.8287  -15.4710 C   0  0  0  0  0  0  0  0  0  0  0  0
   26.5104  -18.3844  -15.5628 C   0  0  0  0  0  0  0  0  0  0  0  0
   27.5505  -17.7010  -14.9177 C   0  0  0  0  0  0  0  0  0  0  0  0
   27.4434  -16.3823  -15.1613 N   0  0  0  0  0  0  0  0  0  0  0  0
   26.3636  -16.1565  -15.9515 C   0  0  0  0  0  0  0  0  0  0  0  0
   25.8373  -14.9984  -16.4887 C   0  0  0  0  0  0  0  0  0  0  0  0
   24.7249  -15.0373  -17.2884 C   0  0  0  0  0  0  0  0  0  0  0  0
   24.1609  -16.2785  -17.5292 C   0  0  0  0  0  0  0  0  0  0  0  0
   24.6767  -17.4384  -16.9987 C   0  0  0  0  0  0  0  0  0  0  0  0
   25.8004  -17.3875  -16.1916 C   0  0  0  0  0  0  0  0  0  0  0  0
   26.9670  -21.3601  -13.6149 C   0  0  0  0  0  0  0  0  0  0  0  0
   26.2378  -22.3725  -13.7587 O   0  0  0  0  0  0  0  0  0  0  0  0
   27.3124  -20.4225   -6.0514 C   0  0  0  0  0  0  0  0  0  0  0  0
   26.2991  -19.8266   -7.4062 S   0  0  0  0  0  0  0  0  0  0  0  0
   26.0257  -21.0980   -8.6427 C   0  0  0  0  0  0  0  0  0  0  0  0
   26.9517  -21.0790   -9.7949 C   0  0  0  0  0  0  0  0  0  0  0  0
   26.3682  -21.1400  -11.1564 C   0  0  2  0  0  0  0  0  0  0  0  0
   27.3072  -21.0435  -12.2457 N   0  0  0  0  0  0  0  0  0  0  0  0
   25.1863  -20.2553  -11.3657 C   0  0  0  0  0  0  0  0  0  0  0  0
   25.2804  -19.0355  -11.6740 O   0  0  0  0  0  0  0  0  0  0  0  0
   23.8693  -20.7647  -11.2239 N   0  0  0  0  0  0  0  0  0  0  0  0
   22.7374  -20.2196  -11.9868 C   0  0  1  0  0  0  0  0  0  0  0  0
   23.1683  -20.3893  -13.4505 C   0  0  0  0  0  0  0  0  0  0  0  0
   22.1661  -19.9463  -14.4060 C   0  0  0  0  0  0  0  0  0  0  0  0
   20.9238  -19.4515  -14.1072 C   0  0  0  0  0  0  0  0  0  0  0  0
   20.2911  -19.1545  -15.2459 N   0  0  0  0  0  0  0  0  0  0  0  0
   21.1171  -19.4553  -16.2471 C   0  0  0  0  0  0  0  0  0  0  0  0
   22.2794  -19.9457  -15.7401 N   0  0  0  0  0  0  0  0  0  0  0  0
   21.4915  -20.9210  -11.6914 C   0  0  0  0  0  0  0  0  0  0  0  0
   21.3912  -22.1452  -11.8796 O   0  0  0  0  0  0  0  0  0  0  0  0
   20.3986  -20.2364  -11.1963 O   0  0  0  0  0  0  0  0  0  0  0  0
  2  1  1  6
  3  4  1  0
  3  2  1  0
  4  5  2  0
  6  5  1  0
  7  6  1  0
  8  7  2  0
  9  8  1  0
 10 11  1  0
 10  9  2  0
 11 12  2  0
 12  7  1  0
 12  4  1  0
 13  2  1  0
 13 14  2  0
 16 15  1  0
 17 16  1  0
 17 18  1  0
 19 20  1  0
 19 18  1  1
 20 13  1  0
 21 19  1  0
 22 21  2  0
 23 21  1  0
 24 23  1  0
 25 26  1  0
 24 25  1  6
 26 27  2  0
 28 27  1  0
 29 28  1  0
 30 29  2  0
 30 26  1  0
 31 33  1  0
 31 24  1  0
 32 31  2  0
M  END
$$$$
