WMH.pdb
     RDKit          3D

 33 35  0  0  1  0  0  0  0  0999 V2000
   20.7213  -15.1936  -17.5916 N   0  0  0  0  0  0  0  0  0  0  0  0
   21.2365  -13.9984  -18.2813 C   0  0  1  0  0  0  0  0  0  0  0  0
   20.0864  -13.3370  -18.9885 C   0  0  0  0  0  0  0  0  0  0  0  0
   19.5700  -14.0126  -20.1744 C   0  0  0  0  0  0  0  0  0  0  0  0
   18.7063  -15.1152  -20.1171 C   0  0  0  0  0  0  0  0  0  0  0  0
   18.4309  -15.5380  -21.3643 N   0  0  0  0  0  0  0  0  0  0  0  0
   19.0817  -14.7533  -22.2599 C   0  0  0  0  0  0  0  0  0  0  0  0
   19.1175  -14.7600  -23.6403 C   0  0  0  0  0  0  0  0  0  0  0  0
   19.8519  -13.8297  -24.3284 C   0  0  0  0  0  0  0  0  0  0  0  0
   20.5479  -12.8940  -23.5823 C   0  0  0  0  0  0  0  0  0  0  0  0
   20.5197  -12.8784  -22.2069 C   0  0  0  0  0  0  0  0  0  0  0  0
   19.7750  -13.8233  -21.5218 C   0  0  0  0  0  0  0  0  0  0  0  0
   21.9409  -13.1624  -17.3344 C   0  0  0  0  0  0  0  0  0  0  0  0
   21.5228  -13.0534  -16.1551 O   0  0  0  0  0  0  0  0  0  0  0  0
   27.9987   -9.5621  -17.0750 C   0  0  0  0  0  0  0  0  0  0  0  0
   26.4759   -9.3444  -16.1526 S   0  0  0  0  0  0  0  0  0  0  0  0
   25.8938  -10.8912  -15.4534 C   0  0  0  0  0  0  0  0  0  0  0  0
   25.1920  -11.7928  -16.3915 C   0  0  0  0  0  0  0  0  0  0  0  0
   23.7640  -11.5190  -16.6813 C   0  0  2  0  0  0  0  0  0  0  0  0
   23.1360  -12.4040  -17.6298 N   0  0  0  0  0  0  0  0  0  0  0  0
   23.4517  -10.0895  -16.9687 C   0  0  0  0  0  0  0  0  0  0  0  0
   23.6161   -9.5591  -18.1015 O   0  0  0  0  0  0  0  0  0  0  0  0
   22.9406   -9.2436  -15.9502 N   0  0  0  0  0  0  0  0  0  0  0  0
   22.4970   -7.8702  -16.2287 C   0  0  1  0  0  0  0  0  0  0  0  0
   21.3848   -8.0504  -17.2715 C   0  0  0  0  0  0  0  0  0  0  0  0
   20.6792   -6.8189  -17.5866 C   0  0  0  0  0  0  0  0  0  0  0  0
   21.2334   -5.5697  -17.6862 C   0  0  0  0  0  0  0  0  0  0  0  0
   20.2716   -4.6928  -17.9880 N   0  0  0  0  0  0  0  0  0  0  0  0
   19.1299   -5.3735  -18.0781 C   0  0  0  0  0  0  0  0  0  0  0  0
   19.3694   -6.6891  -17.8318 N   0  0  0  0  0  0  0  0  0  0  0  0
   22.0228   -7.1949  -15.0244 C   0  0  0  0  0  0  0  0  0  0  0  0
   21.7210   -7.8439  -14.0086 O   0  0  0  0  0  0  0  0  0  0  0  0
   21.9003   -5.8193  -14.9907 O   0  0  0  0  0  0  0  0  0  0  0  0
  2  1  1  1
  3  4  1  0
  3  2  1  0
  4  5  2  0
  6  5  1  0
  7  6  1  0
  8  7  2  0
  9  8  1  0
 10 11  1  0
 10  9  2  0
 11 12  2  0
 12  7  1  0
 12  4  1  0
 13  2  1  0
 13 14  2  0
 16 15  1  0
 17 16  1  0
 17 18  1  0
 19 20  1  0
 19 18  1  6
 20 13  1  0
 21 19  1  0
 22 21  2  0
 23 21  1  0
 24 23  1  0
 25 26  1  0
 24 25  1  6
 26 27  2  0
 28 27  1  0
 29 28  1  0
 30 29  2  0
 30 26  1  0
 31 33  1  0
 31 24  1  0
 32 31  2  0
M  END
$$$$
