WMH.pdb
     RDKit          3D

 33 35  0  0  1  0  0  0  0  0999 V2000
   26.7963  -21.2068  -14.4957 N   0  0  0  0  0  0  0  0  0  0  0  0
   27.0376  -20.3422  -13.3278 C   0  0  1  0  0  0  0  0  0  0  0  0
   26.2792  -19.0604  -13.5329 C   0  0  0  0  0  0  0  0  0  0  0  0
   26.6802  -18.2357  -14.6681 C   0  0  0  0  0  0  0  0  0  0  0  0
   25.7980  -17.3896  -15.3543 C   0  0  0  0  0  0  0  0  0  0  0  0
   26.4464  -16.7878  -16.3678 N   0  0  0  0  0  0  0  0  0  0  0  0
   27.7386  -17.2018  -16.3849 C   0  0  0  0  0  0  0  0  0  0  0  0
   28.8029  -16.8760  -17.2021 C   0  0  0  0  0  0  0  0  0  0  0  0
   30.0404  -17.4284  -16.9976 C   0  0  0  0  0  0  0  0  0  0  0  0
   30.1708  -18.3181  -15.9450 C   0  0  0  0  0  0  0  0  0  0  0  0
   29.1171  -18.6502  -15.1250 C   0  0  0  0  0  0  0  0  0  0  0  0
   27.8711  -18.0867  -15.3410 C   0  0  0  0  0  0  0  0  0  0  0  0
   26.7113  -21.0649  -12.1183 C   0  0  0  0  0  0  0  0  0  0  0  0
   25.8067  -21.9361  -12.1279 O   0  0  0  0  0  0  0  0  0  0  0  0
   27.5097  -18.3121   -5.4484 C   0  0  0  0  0  0  0  0  0  0  0  0
   27.7199  -20.0796   -5.6699 S   0  0  0  0  0  0  0  0  0  0  0  0
   26.7710  -20.6937   -7.0637 C   0  0  0  0  0  0  0  0  0  0  0  0
   27.4499  -20.6336   -8.3755 C   0  0  0  0  0  0  0  0  0  0  0  0
   26.6700  -21.0083   -9.5794 C   0  0  2  0  0  0  0  0  0  0  0  0
   27.3567  -20.8704  -10.8392 N   0  0  0  0  0  0  0  0  0  0  0  0
   25.2957  -20.4320   -9.6332 C   0  0  0  0  0  0  0  0  0  0  0  0
   25.0531  -19.2550  -10.0173 O   0  0  0  0  0  0  0  0  0  0  0  0
   24.1724  -21.2072   -9.2445 N   0  0  0  0  0  0  0  0  0  0  0  0
   22.7973  -20.8039   -9.5719 C   0  0  1  0  0  0  0  0  0  0  0  0
   22.6777  -21.1004  -11.0734 C   0  0  0  0  0  0  0  0  0  0  0  0
   21.3885  -20.7341  -11.6369 C   0  0  0  0  0  0  0  0  0  0  0  0
   20.3296  -20.1944  -10.9550 C   0  0  0  0  0  0  0  0  0  0  0  0
   19.3211  -19.9964  -11.8088 N   0  0  0  0  0  0  0  0  0  0  0  0
   19.7335  -20.4027  -13.0087 C   0  0  0  0  0  0  0  0  0  0  0  0
   21.0102  -20.8609  -12.9149 N   0  0  0  0  0  0  0  0  0  0  0  0
   21.8111  -21.5358   -8.7826 C   0  0  0  0  0  0  0  0  0  0  0  0
   22.1357  -22.5490   -8.1406 O   0  0  0  0  0  0  0  0  0  0  0  0
   20.4960  -21.1156   -8.7341 O   0  0  0  0  0  0  0  0  0  0  0  0
  2  1  1  6
  3  4  1  0
  3  2  1  0
  4  5  2  0
  6  5  1  0
  7  6  1  0
  8  7  2  0
  9  8  1  0
 10 11  1  0
 10  9  2  0
 11 12  2  0
 12  7  1  0
 12  4  1  0
 13  2  1  0
 13 14  2  0
 16 15  1  0
 17 16  1  0
 17 18  1  0
 19 20  1  0
 19 18  1  1
 20 13  1  0
 21 19  1  0
 22 21  2  0
 23 21  1  0
 24 23  1  0
 25 26  1  0
 24 25  1  6
 26 27  2  0
 28 27  1  0
 29 28  1  0
 30 29  2  0
 30 26  1  0
 31 33  1  0
 31 24  1  0
 32 31  2  0
M  END
$$$$
