WMH.pdb
     RDKit          3D

 33 35  0  0  1  0  0  0  0  0999 V2000
   28.5495  -20.7136  -15.0837 N   0  0  0  0  0  0  0  0  0  0  0  0
   27.4992  -20.0016  -14.3355 C   0  0  1  0  0  0  0  0  0  0  0  0
   26.4799  -19.5049  -15.3226 C   0  0  0  0  0  0  0  0  0  0  0  0
   26.9312  -18.5034  -16.2834 C   0  0  0  0  0  0  0  0  0  0  0  0
   27.1449  -18.7806  -17.6407 C   0  0  0  0  0  0  0  0  0  0  0  0
   27.5873  -17.6731  -18.2633 N   0  0  0  0  0  0  0  0  0  0  0  0
   27.6772  -16.6581  -17.3671 C   0  0  0  0  0  0  0  0  0  0  0  0
   28.0580  -15.3376  -17.5013 C   0  0  0  0  0  0  0  0  0  0  0  0
   28.0450  -14.4899  -16.4244 C   0  0  0  0  0  0  0  0  0  0  0  0
   27.6365  -15.0146  -15.2101 C   0  0  0  0  0  0  0  0  0  0  0  0
   27.2556  -16.3286  -15.0651 C   0  0  0  0  0  0  0  0  0  0  0  0
   27.2732  -17.1764  -16.1595 C   0  0  0  0  0  0  0  0  0  0  0  0
   26.9816  -20.8627  -13.2952 C   0  0  0  0  0  0  0  0  0  0  0  0
   26.6532  -22.0457  -13.5600 O   0  0  0  0  0  0  0  0  0  0  0  0
   28.4138  -20.7307   -6.6255 C   0  0  0  0  0  0  0  0  0  0  0  0
   26.8213  -20.8861   -7.4360 S   0  0  0  0  0  0  0  0  0  0  0  0
   26.8198  -20.1124   -9.0552 C   0  0  0  0  0  0  0  0  0  0  0  0
   25.5438  -20.1865   -9.7979 C   0  0  0  0  0  0  0  0  0  0  0  0
   25.5765  -20.7091  -11.1850 C   0  0  2  0  0  0  0  0  0  0  0  0
   26.7966  -20.4732  -11.9151 N   0  0  0  0  0  0  0  0  0  0  0  0
   24.3721  -20.3810  -12.0007 C   0  0  0  0  0  0  0  0  0  0  0  0
   24.4342  -19.9547  -13.1865 O   0  0  0  0  0  0  0  0  0  0  0  0
   23.0694  -20.5411  -11.4610 N   0  0  0  0  0  0  0  0  0  0  0  0
   21.9560  -21.0735  -12.2593 C   0  0  1  0  0  0  0  0  0  0  0  0
   22.3689  -22.5255  -12.5388 C   0  0  0  0  0  0  0  0  0  0  0  0
   22.9188  -22.7271  -13.8694 C   0  0  0  0  0  0  0  0  0  0  0  0
   23.1322  -21.7576  -14.8139 C   0  0  0  0  0  0  0  0  0  0  0  0
   23.6463  -22.3258  -15.9084 N   0  0  0  0  0  0  0  0  0  0  0  0
   23.7567  -23.6305  -15.6619 C   0  0  0  0  0  0  0  0  0  0  0  0
   23.3099  -23.8905  -14.4043 N   0  0  0  0  0  0  0  0  0  0  0  0
   20.6838  -20.9865  -11.5484 C   0  0  0  0  0  0  0  0  0  0  0  0
   20.6328  -21.1361  -10.3159 O   0  0  0  0  0  0  0  0  0  0  0  0
   19.5105  -20.7359  -12.2331 O   0  0  0  0  0  0  0  0  0  0  0  0
  2  1  1  6
  3  4  1  0
  3  2  1  0
  4  5  2  0
  6  5  1  0
  7  6  1  0
  8  7  2  0
  9  8  1  0
 10 11  1  0
 10  9  2  0
 11 12  2  0
 12  7  1  0
 12  4  1  0
 13  2  1  0
 13 14  2  0
 16 15  1  0
 17 16  1  0
 17 18  1  0
 19 20  1  0
 19 18  1  1
 20 13  1  0
 21 19  1  0
 22 21  2  0
 23 21  1  0
 24 23  1  0
 25 26  1  0
 24 25  1  1
 26 27  2  0
 28 27  1  0
 29 28  1  0
 30 29  2  0
 30 26  1  0
 31 33  1  0
 31 24  1  0
 32 31  2  0
M  END
$$$$
