WMH.pdb
     RDKit          3D

 33 35  0  0  1  0  0  0  0  0999 V2000
   20.3362  -12.2784  -18.3472 N   0  0  0  0  0  0  0  0  0  0  0  0
   19.2582  -11.2765  -18.2850 C   0  0  1  0  0  0  0  0  0  0  0  0
   18.1501  -11.8372  -17.4376 C   0  0  0  0  0  0  0  0  0  0  0  0
   17.4122  -12.9694  -17.9882 C   0  0  0  0  0  0  0  0  0  0  0  0
   17.8064  -13.6554  -19.1454 C   0  0  0  0  0  0  0  0  0  0  0  0
   16.9146  -14.6241  -19.4216 N   0  0  0  0  0  0  0  0  0  0  0  0
   15.9323  -14.6123  -18.4855 C   0  0  0  0  0  0  0  0  0  0  0  0
   14.8116  -15.4000  -18.3117 C   0  0  0  0  0  0  0  0  0  0  0  0
   13.9663  -15.1949  -17.2525 C   0  0  0  0  0  0  0  0  0  0  0  0
   14.2860  -14.1725  -16.3755 C   0  0  0  0  0  0  0  0  0  0  0  0
   15.3996  -13.3815  -16.5394 C   0  0  0  0  0  0  0  0  0  0  0  0
   16.2465  -13.5969  -17.6133 C   0  0  0  0  0  0  0  0  0  0  0  0
   19.8002  -10.0136  -17.8345 C   0  0  0  0  0  0  0  0  0  0  0  0
   20.3937   -9.9391  -16.7302 O   0  0  0  0  0  0  0  0  0  0  0  0
   23.0292   -4.6757  -21.2990 C   0  0  0  0  0  0  0  0  0  0  0  0
   21.3157   -5.2055  -21.3172 S   0  0  0  0  0  0  0  0  0  0  0  0
   21.0531   -6.6467  -20.2808 C   0  0  0  0  0  0  0  0  0  0  0  0
   20.2988   -6.4074  -19.0321 C   0  0  0  0  0  0  0  0  0  0  0  0
   20.2075   -7.5161  -18.0521 C   0  0  2  0  0  0  0  0  0  0  0  0
   19.7196   -8.7703  -18.5681 N   0  0  0  0  0  0  0  0  0  0  0  0
   19.5478   -7.1542  -16.7647 C   0  0  0  0  0  0  0  0  0  0  0  0
   18.3008   -7.0058  -16.6434 O   0  0  0  0  0  0  0  0  0  0  0  0
   20.3183   -6.9577  -15.5892 N   0  0  0  0  0  0  0  0  0  0  0  0
   19.7083   -6.5374  -14.3197 C   0  0  1  0  0  0  0  0  0  0  0  0
   19.0696   -7.8240  -13.7780 C   0  0  0  0  0  0  0  0  0  0  0  0
   18.6047   -7.7083  -12.4054 C   0  0  0  0  0  0  0  0  0  0  0  0
   18.7288   -6.6087  -11.5973 C   0  0  0  0  0  0  0  0  0  0  0  0
   18.1844   -6.8821  -10.4082 N   0  0  0  0  0  0  0  0  0  0  0  0
   17.7239   -8.1312  -10.4620 C   0  0  0  0  0  0  0  0  0  0  0  0
   17.9781   -8.6523  -11.6919 N   0  0  0  0  0  0  0  0  0  0  0  0
   20.6938   -5.9782  -13.3991 C   0  0  0  0  0  0  0  0  0  0  0  0
   20.3425   -5.2410  -12.4625 O   0  0  0  0  0  0  0  0  0  0  0  0
   22.0379   -6.2583  -13.5517 O   0  0  0  0  0  0  0  0  0  0  0  0
  2  1  1  1
  3  4  1  0
  3  2  1  0
  4  5  2  0
  6  5  1  0
  7  6  1  0
  8  7  2  0
  9  8  1  0
 10 11  1  0
 10  9  2  0
 11 12  2  0
 12  7  1  0
 12  4  1  0
 13  2  1  0
 13 14  2  0
 16 15  1  0
 17 16  1  0
 17 18  1  0
 19 20  1  0
 19 18  1  6
 20 13  1  0
 21 19  1  0
 22 21  2  0
 23 21  1  0
 24 23  1  0
 25 26  1  0
 24 25  1  1
 26 27  2  0
 28 27  1  0
 29 28  1  0
 30 29  2  0
 30 26  1  0
 31 33  1  0
 31 24  1  0
 32 31  2  0
M  END
$$$$
