WMH.pdb
     RDKit          3D

 33 35  0  0  1  0  0  0  0  0999 V2000
   33.9254  -38.2290   -7.6679 N   0  0  0  0  0  0  0  0  0  0  0  0
   34.0940  -37.2160   -6.6120 C   0  0  1  0  0  0  0  0  0  0  0  0
   34.6797  -35.9820   -7.2400 C   0  0  0  0  0  0  0  0  0  0  0  0
   36.0527  -36.0812   -7.7243 C   0  0  0  0  0  0  0  0  0  0  0  0
   36.3828  -36.2101   -9.0806 C   0  0  0  0  0  0  0  0  0  0  0  0
   37.7178  -36.3114   -9.2124 N   0  0  0  0  0  0  0  0  0  0  0  0
   38.2972  -36.2538   -7.9867 C   0  0  0  0  0  0  0  0  0  0  0  0
   39.6178  -36.2969   -7.5855 C   0  0  0  0  0  0  0  0  0  0  0  0
   39.9529  -36.1982   -6.2602 C   0  0  0  0  0  0  0  0  0  0  0  0
   38.9164  -36.0548   -5.3537 C   0  0  0  0  0  0  0  0  0  0  0  0
   37.5974  -36.0112   -5.7423 C   0  0  0  0  0  0  0  0  0  0  0  0
   37.2700  -36.1124   -7.0837 C   0  0  0  0  0  0  0  0  0  0  0  0
   32.8354  -37.0210   -5.9267 C   0  0  0  0  0  0  0  0  0  0  0  0
   31.7596  -37.0048   -6.5745 O   0  0  0  0  0  0  0  0  0  0  0  0
   34.3755  -35.6353    0.5952 C   0  0  0  0  0  0  0  0  0  0  0  0
   33.0759  -36.6147   -0.1590 S   0  0  0  0  0  0  0  0  0  0  0  0
   32.4352  -35.8397   -1.6453 C   0  0  0  0  0  0  0  0  0  0  0  0
   31.4198  -36.6185   -2.3855 C   0  0  0  0  0  0  0  0  0  0  0  0
   31.4295  -36.5429   -3.8661 C   0  0  2  0  0  0  0  0  0  0  0  0
   32.6909  -36.8333   -4.5004 N   0  0  0  0  0  0  0  0  0  0  0  0
   30.7975  -35.3153   -4.4295 C   0  0  0  0  0  0  0  0  0  0  0  0
   31.4376  -34.2550   -4.6697 O   0  0  0  0  0  0  0  0  0  0  0  0
   29.4104  -35.2900   -4.7282 N   0  0  0  0  0  0  0  0  0  0  0  0
   28.7502  -34.0886   -5.2587 C   0  0  1  0  0  0  0  0  0  0  0  0
   28.1456  -34.5615   -6.5882 C   0  0  0  0  0  0  0  0  0  0  0  0
   27.3521  -33.5450   -7.2596 C   0  0  0  0  0  0  0  0  0  0  0  0
   27.8352  -32.4829   -7.9781 C   0  0  0  0  0  0  0  0  0  0  0  0
   26.8049  -31.7692   -8.4407 N   0  0  0  0  0  0  0  0  0  0  0  0
   25.6902  -32.3678   -8.0234 C   0  0  0  0  0  0  0  0  0  0  0  0
   26.0159  -33.4669   -7.2921 N   0  0  0  0  0  0  0  0  0  0  0  0
   27.7377  -33.5724   -4.3423 C   0  0  0  0  0  0  0  0  0  0  0  0
   27.6618  -32.3563   -4.0985 O   0  0  0  0  0  0  0  0  0  0  0  0
   26.8432  -34.4271   -3.7278 O   0  0  0  0  0  0  0  0  0  0  0  0
  2  1  1  6
  3  4  1  0
  3  2  1  0
  4  5  2  0
  6  5  1  0
  7  6  1  0
  8  7  2  0
  9  8  1  0
 10 11  1  0
 10  9  2  0
 11 12  2  0
 12  7  1  0
 12  4  1  0
 13  2  1  0
 13 14  2  0
 16 15  1  0
 17 16  1  0
 17 18  1  0
 19 20  1  0
 19 18  1  1
 20 13  1  0
 21 19  1  0
 22 21  2  0
 23 21  1  0
 24 23  1  0
 25 26  1  0
 24 25  1  6
 26 27  2  0
 28 27  1  0
 29 28  1  0
 30 29  2  0
 30 26  1  0
 31 33  1  0
 31 24  1  0
 32 31  2  0
M  END
$$$$
