WMH.pdb
     RDKit          3D

 33 35  0  0  1  0  0  0  0  0999 V2000
   23.5203  -13.0799  -20.5214 N   0  0  0  0  0  0  0  0  0  0  0  0
   22.8094  -11.7914  -20.4582 C   0  0  1  0  0  0  0  0  0  0  0  0
   21.3714  -12.0347  -20.8232 C   0  0  0  0  0  0  0  0  0  0  0  0
   21.1245  -12.8105  -22.0343 C   0  0  0  0  0  0  0  0  0  0  0  0
   21.5314  -12.3958  -23.3100 C   0  0  0  0  0  0  0  0  0  0  0  0
   21.1352  -13.2984  -24.2256 N   0  0  0  0  0  0  0  0  0  0  0  0
   20.4747  -14.3087  -23.6057 C   0  0  0  0  0  0  0  0  0  0  0  0
   19.8931  -15.4651  -24.0867 C   0  0  0  0  0  0  0  0  0  0  0  0
   19.2905  -16.3547  -23.2358 C   0  0  0  0  0  0  0  0  0  0  0  0
   19.2927  -16.0422  -21.8871 C   0  0  0  0  0  0  0  0  0  0  0  0
   19.8686  -14.8928  -21.3972 C   0  0  0  0  0  0  0  0  0  0  0  0
   20.4742  -14.0008  -22.2657 C   0  0  0  0  0  0  0  0  0  0  0  0
   23.0226  -11.1871  -19.1616 C   0  0  0  0  0  0  0  0  0  0  0  0
   22.8756  -11.8673  -18.1161 O   0  0  0  0  0  0  0  0  0  0  0  0
   27.8535  -11.2317  -16.0842 C   0  0  0  0  0  0  0  0  0  0  0  0
   26.2224  -10.4947  -16.1999 S   0  0  0  0  0  0  0  0  0  0  0  0
   26.1813   -9.1512  -17.3888 C   0  0  0  0  0  0  0  0  0  0  0  0
   24.8896   -8.4422  -17.5080 C   0  0  0  0  0  0  0  0  0  0  0  0
   23.6584   -9.2581  -17.6367 C   0  0  2  0  0  0  0  0  0  0  0  0
   23.4061   -9.8101  -18.9440 N   0  0  0  0  0  0  0  0  0  0  0  0
   22.4357   -8.6331  -17.0554 C   0  0  0  0  0  0  0  0  0  0  0  0
   21.8401   -7.6546  -17.5841 O   0  0  0  0  0  0  0  0  0  0  0  0
   21.8754   -9.1291  -15.8495 N   0  0  0  0  0  0  0  0  0  0  0  0
   20.7123   -8.4948  -15.2128 C   0  0  1  0  0  0  0  0  0  0  0  0
   20.1647   -9.5866  -14.2829 C   0  0  0  0  0  0  0  0  0  0  0  0
   19.0366   -9.1504  -13.4762 C   0  0  0  0  0  0  0  0  0  0  0  0
   17.9854   -8.3811  -13.9012 C   0  0  0  0  0  0  0  0  0  0  0  0
   17.1497   -8.1869  -12.8770 N   0  0  0  0  0  0  0  0  0  0  0  0
   17.6616   -8.8213  -11.8232 C   0  0  0  0  0  0  0  0  0  0  0  0
   18.8283   -9.4207  -12.1815 N   0  0  0  0  0  0  0  0  0  0  0  0
   21.0806   -7.2827  -14.4872 C   0  0  0  0  0  0  0  0  0  0  0  0
   20.3128   -6.3064  -14.4493 O   0  0  0  0  0  0  0  0  0  0  0  0
   22.2915   -7.1976  -13.8278 O   0  0  0  0  0  0  0  0  0  0  0  0
  2  1  1  1
  3  4  1  0
  3  2  1  0
  4  5  2  0
  6  5  1  0
  7  6  1  0
  8  7  2  0
  9  8  1  0
 10 11  1  0
 10  9  2  0
 11 12  2  0
 12  7  1  0
 12  4  1  0
 13  2  1  0
 13 14  2  0
 16 15  1  0
 17 16  1  0
 17 18  1  0
 19 20  1  0
 19 18  1  6
 20 13  1  0
 21 19  1  0
 22 21  2  0
 23 21  1  0
 24 23  1  0
 25 26  1  0
 24 25  1  1
 26 27  2  0
 28 27  1  0
 29 28  1  0
 30 29  2  0
 30 26  1  0
 31 33  1  0
 31 24  1  0
 32 31  2  0
M  END
$$$$
