WMH.pdb
     RDKit          3D

 33 35  0  0  1  0  0  0  0  0999 V2000
   25.2026  -21.1941  -11.2219 N   0  0  0  0  0  0  0  0  0  0  0  0
   26.3232  -20.2387  -11.1873 C   0  0  1  0  0  0  0  0  0  0  0  0
   27.3262  -20.7338  -10.1827 C   0  0  0  0  0  0  0  0  0  0  0  0
   27.0025  -20.5249   -8.7752 C   0  0  0  0  0  0  0  0  0  0  0  0
   25.7083  -20.6631   -8.2545 C   0  0  0  0  0  0  0  0  0  0  0  0
   25.7177  -20.3763   -6.9401 N   0  0  0  0  0  0  0  0  0  0  0  0
   26.9787  -20.0501   -6.5593 C   0  0  0  0  0  0  0  0  0  0  0  0
   27.5126  -19.6972   -5.3357 C   0  0  0  0  0  0  0  0  0  0  0  0
   28.8499  -19.4275   -5.2043 C   0  0  0  0  0  0  0  0  0  0  0  0
   29.6307  -19.5247   -6.3434 C   0  0  0  0  0  0  0  0  0  0  0  0
   29.1091  -19.8749   -7.5674 C   0  0  0  0  0  0  0  0  0  0  0  0
   27.7566  -20.1446   -7.6890 C   0  0  0  0  0  0  0  0  0  0  0  0
   26.8346  -20.0480  -12.5266 C   0  0  0  0  0  0  0  0  0  0  0  0
   27.9141  -19.4326  -12.7086 O   0  0  0  0  0  0  0  0  0  0  0  0
   28.7917  -24.9517  -15.7443 C   0  0  0  0  0  0  0  0  0  0  0  0
   28.1759  -23.3222  -16.1719 S   0  0  0  0  0  0  0  0  0  0  0  0
   28.5470  -22.1145  -14.8976 C   0  0  0  0  0  0  0  0  0  0  0  0
   28.1692  -20.7196  -15.2093 C   0  0  0  0  0  0  0  0  0  0  0  0
   26.7471  -20.3325  -15.0489 C   0  0  2  0  0  0  0  0  0  0  0  0
   26.1911  -20.5197  -13.7324 N   0  0  0  0  0  0  0  0  0  0  0  0
   25.8386  -20.8515  -16.1114 C   0  0  0  0  0  0  0  0  0  0  0  0
   25.0713  -21.8390  -15.9446 O   0  0  0  0  0  0  0  0  0  0  0  0
   25.7980  -20.2368  -17.3899 N   0  0  0  0  0  0  0  0  0  0  0  0
   24.6119  -19.5122  -17.8680 C   0  0  1  0  0  0  0  0  0  0  0  0
   24.4033  -18.4169  -16.8128 C   0  0  0  0  0  0  0  0  0  0  0  0
   23.0066  -18.1904  -16.4789 C   0  0  0  0  0  0  0  0  0  0  0  0
   21.9275  -18.8327  -17.0273 C   0  0  0  0  0  0  0  0  0  0  0  0
   20.8110  -18.3548  -16.4705 N   0  0  0  0  0  0  0  0  0  0  0  0
   21.1757  -17.4275  -15.5861 C   0  0  0  0  0  0  0  0  0  0  0  0
   22.5309  -17.3171  -15.5825 N   0  0  0  0  0  0  0  0  0  0  0  0
   24.8106  -18.9620  -19.2056 C   0  0  0  0  0  0  0  0  0  0  0  0
   23.9904  -19.1834  -20.1124 O   0  0  0  0  0  0  0  0  0  0  0  0
   25.9160  -18.1836  -19.4894 O   0  0  0  0  0  0  0  0  0  0  0  0
  2  1  1  6
  3  4  1  0
  3  2  1  0
  4  5  2  0
  6  5  1  0
  7  6  1  0
  8  7  2  0
  9  8  1  0
 10 11  1  0
 10  9  2  0
 11 12  2  0
 12  7  1  0
 12  4  1  0
 13  2  1  0
 13 14  2  0
 16 15  1  0
 17 16  1  0
 17 18  1  0
 19 20  1  0
 19 18  1  1
 20 13  1  0
 21 19  1  0
 22 21  2  0
 23 21  1  0
 24 23  1  0
 25 26  1  0
 24 25  1  1
 26 27  2  0
 28 27  1  0
 29 28  1  0
 30 29  2  0
 30 26  1  0
 31 33  1  0
 31 24  1  0
 32 31  2  0
M  END
$$$$
