WMH.pdb
     RDKit          3D

 33 35  0  0  1  0  0  0  0  0999 V2000
   22.7888  -11.6572  -21.4757 N   0  0  0  0  0  0  0  0  0  0  0  0
   21.4979  -11.0623  -21.0890 C   0  0  1  0  0  0  0  0  0  0  0  0
   20.6809  -12.1250  -20.4084 C   0  0  0  0  0  0  0  0  0  0  0  0
   20.2187  -13.2307  -21.2411 C   0  0  0  0  0  0  0  0  0  0  0  0
   20.8041  -14.5043  -21.2236 C   0  0  0  0  0  0  0  0  0  0  0  0
   20.1861  -15.2974  -22.1174 N   0  0  0  0  0  0  0  0  0  0  0  0
   19.2017  -14.5974  -22.7359 C   0  0  0  0  0  0  0  0  0  0  0  0
   18.2839  -14.9521  -23.7046 C   0  0  0  0  0  0  0  0  0  0  0  0
   17.3596  -14.0487  -24.1609 C   0  0  0  0  0  0  0  0  0  0  0  0
   17.3899  -12.7787  -23.6107 C   0  0  0  0  0  0  0  0  0  0  0  0
   18.3002  -12.4145  -22.6456 C   0  0  0  0  0  0  0  0  0  0  0  0
   19.2298  -13.3348  -22.1923 C   0  0  0  0  0  0  0  0  0  0  0  0
   21.7330   -9.8693  -20.3060 C   0  0  0  0  0  0  0  0  0  0  0  0
   22.6252   -9.8598  -19.4221 O   0  0  0  0  0  0  0  0  0  0  0  0
   22.1362   -3.8421  -23.6768 C   0  0  0  0  0  0  0  0  0  0  0  0
   21.1289   -4.2465  -22.2489 S   0  0  0  0  0  0  0  0  0  0  0  0
   21.6080   -5.8138  -21.5181 C   0  0  0  0  0  0  0  0  0  0  0  0
   20.9321   -6.1612  -20.2501 C   0  0  0  0  0  0  0  0  0  0  0  0
   21.2496   -7.4695  -19.6292 C   0  0  2  0  0  0  0  0  0  0  0  0
   21.0043   -8.6289  -20.4497 N   0  0  0  0  0  0  0  0  0  0  0  0
   20.7163   -7.6472  -18.2480 C   0  0  0  0  0  0  0  0  0  0  0  0
   19.5614   -8.0926  -18.0038 O   0  0  0  0  0  0  0  0  0  0  0  0
   21.5098   -7.3141  -17.1196 N   0  0  0  0  0  0  0  0  0  0  0  0
   20.9972   -7.4272  -15.7467 C   0  0  1  0  0  0  0  0  0  0  0  0
   21.9008   -8.4902  -15.1061 C   0  0  0  0  0  0  0  0  0  0  0  0
   21.6258   -8.7130  -13.6960 C   0  0  0  0  0  0  0  0  0  0  0  0
   20.6070   -8.1534  -12.9704 C   0  0  0  0  0  0  0  0  0  0  0  0
   20.6800   -8.5943  -11.7113 N   0  0  0  0  0  0  0  0  0  0  0  0
   21.7250   -9.4177  -11.6406 C   0  0  0  0  0  0  0  0  0  0  0  0
   22.3177   -9.4989  -12.8616 N   0  0  0  0  0  0  0  0  0  0  0  0
   21.0521   -6.1528  -15.0366 C   0  0  0  0  0  0  0  0  0  0  0  0
   21.9266   -5.3121  -15.3061 O   0  0  0  0  0  0  0  0  0  0  0  0
   20.1317   -5.8564  -14.0501 O   0  0  0  0  0  0  0  0  0  0  0  0
  2  1  1  1
  3  4  1  0
  3  2  1  0
  4  5  2  0
  6  5  1  0
  7  6  1  0
  8  7  2  0
  9  8  1  0
 10 11  1  0
 10  9  2  0
 11 12  2  0
 12  7  1  0
 12  4  1  0
 13  2  1  0
 13 14  2  0
 16 15  1  0
 17 16  1  0
 17 18  1  0
 19 20  1  0
 19 18  1  6
 20 13  1  0
 21 19  1  0
 22 21  2  0
 23 21  1  0
 24 23  1  0
 25 26  1  0
 24 25  1  1
 26 27  2  0
 28 27  1  0
 29 28  1  0
 30 29  2  0
 30 26  1  0
 31 33  1  0
 31 24  1  0
 32 31  2  0
M  END
$$$$
