WMH.pdb
     RDKit          3D

 33 35  0  0  1  0  0  0  0  0999 V2000
   26.8065  -18.2528  -16.6026 N   0  0  0  0  0  0  0  0  0  0  0  0
   26.6460  -18.1465  -15.1422 C   0  0  1  0  0  0  0  0  0  0  0  0
   25.4872  -17.2292  -14.8668 C   0  0  0  0  0  0  0  0  0  0  0  0
   25.5068  -15.9302  -15.5315 C   0  0  0  0  0  0  0  0  0  0  0  0
   24.4351  -15.4370  -16.2887 C   0  0  0  0  0  0  0  0  0  0  0  0
   24.7593  -14.2360  -16.8008 N   0  0  0  0  0  0  0  0  0  0  0  0
   26.0162  -13.9045  -16.4110 C   0  0  0  0  0  0  0  0  0  0  0  0
   26.7945  -12.7895  -16.6510 C   0  0  0  0  0  0  0  0  0  0  0  0
   28.0523  -12.6827  -16.1171 C   0  0  0  0  0  0  0  0  0  0  0  0
   28.4999  -13.7337  -15.3350 C   0  0  0  0  0  0  0  0  0  0  0  0
   27.7331  -14.8495  -15.0900 C   0  0  0  0  0  0  0  0  0  0  0  0
   26.4640  -14.9472  -15.6348 C   0  0  0  0  0  0  0  0  0  0  0  0
   26.5327  -19.4711  -14.5729 C   0  0  0  0  0  0  0  0  0  0  0  0
   26.1638  -20.4360  -15.2872 O   0  0  0  0  0  0  0  0  0  0  0  0
   26.2038  -20.0939   -7.6726 C   0  0  0  0  0  0  0  0  0  0  0  0
   26.1147  -21.1446   -9.1236 S   0  0  0  0  0  0  0  0  0  0  0  0
   27.4464  -20.8021  -10.2767 C   0  0  0  0  0  0  0  0  0  0  0  0
   27.4031  -21.5583  -11.5462 C   0  0  0  0  0  0  0  0  0  0  0  0
   26.4860  -21.0806  -12.6086 C   0  0  2  0  0  0  0  0  0  0  0  0
   26.8161  -19.8061  -13.1952 N   0  0  0  0  0  0  0  0  0  0  0  0
   25.0376  -21.1730  -12.2665 C   0  0  0  0  0  0  0  0  0  0  0  0
   24.3759  -20.2102  -11.7903 O   0  0  0  0  0  0  0  0  0  0  0  0
   24.3237  -22.3825  -12.4699 N   0  0  0  0  0  0  0  0  0  0  0  0
   23.0667  -22.4261  -13.2306 C   0  0  1  0  0  0  0  0  0  0  0  0
   22.9120  -20.9943  -13.7622 C   0  0  0  0  0  0  0  0  0  0  0  0
   21.8690  -20.2352  -13.0916 C   0  0  0  0  0  0  0  0  0  0  0  0
   21.1112  -20.6599  -12.0319 C   0  0  0  0  0  0  0  0  0  0  0  0
   20.2588  -19.6886  -11.6931 N   0  0  0  0  0  0  0  0  0  0  0  0
   20.4726  -18.6678  -12.5222 C   0  0  0  0  0  0  0  0  0  0  0  0
   21.4659  -18.9942  -13.3914 N   0  0  0  0  0  0  0  0  0  0  0  0
   23.1125  -23.4138  -14.3047 C   0  0  0  0  0  0  0  0  0  0  0  0
   24.1942  -23.7428  -14.8201 O   0  0  0  0  0  0  0  0  0  0  0  0
   21.9524  -24.0024  -14.7696 O   0  0  0  0  0  0  0  0  0  0  0  0
  2  1  1  6
  3  4  1  0
  3  2  1  0
  4  5  2  0
  6  5  1  0
  7  6  1  0
  8  7  2  0
  9  8  1  0
 10 11  1  0
 10  9  2  0
 11 12  2  0
 12  7  1  0
 12  4  1  0
 13  2  1  0
 13 14  2  0
 16 15  1  0
 17 16  1  0
 17 18  1  0
 19 20  1  0
 19 18  1  1
 20 13  1  0
 21 19  1  0
 22 21  2  0
 23 21  1  0
 24 23  1  0
 25 26  1  0
 24 25  1  6
 26 27  2  0
 28 27  1  0
 29 28  1  0
 30 29  2  0
 30 26  1  0
 31 33  1  0
 31 24  1  0
 32 31  2  0
M  END
$$$$
