WMH.pdb
     RDKit          3D

 33 35  0  0  1  0  0  0  0  0999 V2000
   20.1545  -11.2740  -17.5148 N   0  0  0  0  0  0  0  0  0  0  0  0
   19.2521  -10.1113  -17.4565 C   0  0  1  0  0  0  0  0  0  0  0  0
   18.2867  -10.3275  -16.3244 C   0  0  0  0  0  0  0  0  0  0  0  0
   17.3105  -11.3994  -16.4907 C   0  0  0  0  0  0  0  0  0  0  0  0
   17.4271  -12.6498  -15.8678 C   0  0  0  0  0  0  0  0  0  0  0  0
   16.3986  -13.4350  -16.2360 N   0  0  0  0  0  0  0  0  0  0  0  0
   15.5924  -12.7516  -17.0871 C   0  0  0  0  0  0  0  0  0  0  0  0
   14.4183  -13.0975  -17.7265 C   0  0  0  0  0  0  0  0  0  0  0  0
   13.7708  -12.2031  -18.5384 C   0  0  0  0  0  0  0  0  0  0  0  0
   14.3431  -10.9511  -18.6850 C   0  0  0  0  0  0  0  0  0  0  0  0
   15.5126  -10.5961  -18.0532 C   0  0  0  0  0  0  0  0  0  0  0  0
   16.1588  -11.5077  -17.2357 C   0  0  0  0  0  0  0  0  0  0  0  0
   20.0350   -8.8979  -17.3759 C   0  0  0  0  0  0  0  0  0  0  0  0
   21.0836   -8.8678  -16.6854 O   0  0  0  0  0  0  0  0  0  0  0  0
   22.5141   -2.0265  -20.5270 C   0  0  0  0  0  0  0  0  0  0  0  0
   21.3514   -3.3894  -20.6152 S   0  0  0  0  0  0  0  0  0  0  0  0
   21.4275   -4.4256  -19.1521 C   0  0  0  0  0  0  0  0  0  0  0  0
   20.5343   -5.6036  -19.1558 C   0  0  0  0  0  0  0  0  0  0  0  0
   20.5287   -6.4751  -17.9565 C   0  0  2  0  0  0  0  0  0  0  0  0
   19.7101   -7.6581  -18.0451 N   0  0  0  0  0  0  0  0  0  0  0  0
   20.3222   -5.7555  -16.6669 C   0  0  0  0  0  0  0  0  0  0  0  0
   19.1882   -5.3903  -16.2517 O   0  0  0  0  0  0  0  0  0  0  0  0
   21.4248   -5.4446  -15.8293 N   0  0  0  0  0  0  0  0  0  0  0  0
   21.2555   -4.7486  -14.5458 C   0  0  1  0  0  0  0  0  0  0  0  0
   21.8487   -5.7249  -13.5202 C   0  0  0  0  0  0  0  0  0  0  0  0
   20.9665   -6.8343  -13.1968 C   0  0  0  0  0  0  0  0  0  0  0  0
   19.7528   -7.1001  -13.7746 C   0  0  0  0  0  0  0  0  0  0  0  0
   19.2391   -8.1994  -13.2155 N   0  0  0  0  0  0  0  0  0  0  0  0
   20.1109   -8.6222  -12.3010 C   0  0  0  0  0  0  0  0  0  0  0  0
   21.1829   -7.7861  -12.2804 N   0  0  0  0  0  0  0  0  0  0  0  0
   21.9309   -3.4543  -14.5333 C   0  0  0  0  0  0  0  0  0  0  0  0
   22.8987   -3.2350  -15.2812 O   0  0  0  0  0  0  0  0  0  0  0  0
   21.5065   -2.4471  -13.6885 O   0  0  0  0  0  0  0  0  0  0  0  0
  2  1  1  1
  3  4  1  0
  3  2  1  0
  4  5  2  0
  6  5  1  0
  7  6  1  0
  8  7  2  0
  9  8  1  0
 10 11  1  0
 10  9  2  0
 11 12  2  0
 12  7  1  0
 12  4  1  0
 13  2  1  0
 13 14  2  0
 16 15  1  0
 17 16  1  0
 17 18  1  0
 19 20  1  0
 19 18  1  6
 20 13  1  0
 21 19  1  0
 22 21  2  0
 23 21  1  0
 24 23  1  0
 25 26  1  0
 24 25  1  1
 26 27  2  0
 28 27  1  0
 29 28  1  0
 30 29  2  0
 30 26  1  0
 31 33  1  0
 31 24  1  0
 32 31  2  0
M  END
$$$$
