PYP.pdb
     RDKit          3D

 27 29  0  0  1  0  0  0  0  0999 V2000
   26.8841  -20.2739  -13.8679 N   0  0  0  0  0  0  0  0  0  0  0  0
   27.7430  -20.6862  -14.9658 C   0  0  0  0  0  0  0  0  0  0  0  0
   29.1151  -20.8844  -14.4033 C   0  0  0  0  0  0  0  0  0  0  0  0
   28.9651  -20.4699  -12.9397 C   0  0  0  0  0  0  0  0  0  0  0  0
   27.5205  -20.8202  -12.6839 C   0  0  1  0  0  0  0  0  0  0  0  0
   26.9784  -20.2743  -11.4397 C   0  0  0  0  0  0  0  0  0  0  0  0
   26.4523  -19.1427  -11.4098 O   0  0  0  0  0  0  0  0  0  0  0  0
   20.6666  -19.5975  -11.6716 O   0  0  0  0  0  0  0  0  0  0  0  0
   21.7889  -20.0250  -10.9673 C   0  0  0  0  0  0  0  0  0  0  0  0
   22.0531  -19.4754   -9.7293 C   0  0  0  0  0  0  0  0  0  0  0  0
   23.1619  -19.8813   -9.0061 C   0  0  0  0  0  0  0  0  0  0  0  0
   24.0387  -20.8330   -9.4739 C   0  0  0  0  0  0  0  0  0  0  0  0
   25.2315  -21.2167   -8.7263 C   0  0  0  0  0  0  0  0  0  0  0  0
   26.4942  -20.4662   -8.9736 C   0  0  2  0  0  0  0  0  0  0  0  0
   27.0455  -21.0284  -10.2493 N   0  0  0  0  0  0  0  0  0  0  0  0
   27.4955  -20.6970   -7.9312 C   0  0  0  0  0  0  0  0  0  0  0  0
   28.1291  -21.8155   -7.9807 O   0  0  0  0  0  0  0  0  0  0  0  0
   23.7503  -21.3756  -10.7319 C   0  0  0  0  0  0  0  0  0  0  0  0
   22.6494  -20.9788  -11.4598 C   0  0  0  0  0  0  0  0  0  0  0  0
   27.8264  -19.7923   -6.8896 N   0  0  0  0  0  0  0  0  0  0  0  0
   27.4017  -18.4220   -6.6973 C   0  0  0  0  0  0  0  0  0  0  0  0
   28.6393  -17.7505   -6.0606 C   0  0  0  0  0  0  0  0  0  0  0  0
   28.9923  -18.8383   -5.0536 C   0  0  0  0  0  0  0  0  0  0  0  0
   28.7541  -20.1110   -5.8017 C   0  0  1  0  0  0  0  0  0  0  0  0
   28.1816  -21.1973   -4.9937 C   0  0  0  0  0  0  0  0  0  0  0  0
   27.0106  -21.5708   -5.1814 O   0  0  0  0  0  0  0  0  0  0  0  0
   28.9446  -21.8144   -4.0147 O   0  0  0  0  0  0  0  0  0  0  0  0
  1  2  1  0
  2  3  1  0
  4  3  1  0
  5  6  1  1
  5  4  1  0
  5  1  1  0
  6  7  2  0
  8  9  1  0
  9 19  2  0
 10  9  1  0
 10 11  2  0
 11 12  1  0
 12 18  2  0
 12 13  1  0
 14 13  1  1
 14 15  1  0
 14 16  1  0
 15  6  1  0
 16 20  1  0
 17 16  2  0
 19 18  1  0
 20 21  1  0
 20 24  1  0
 21 22  1  0
 22 23  1  0
 24 23  1  0
 25 27  1  0
 24 25  1  1
 26 25  2  0
M  END
$$$$
