PYP.pdb
     RDKit          3D

 27 29  0  0  1  0  0  0  0  0999 V2000
   26.3262  -19.9228  -13.9519 N   0  0  0  0  0  0  0  0  0  0  0  0
   26.7372  -19.7876  -15.3397 C   0  0  0  0  0  0  0  0  0  0  0  0
   27.8652  -20.7451  -15.5619 C   0  0  0  0  0  0  0  0  0  0  0  0
   28.0979  -21.3512  -14.1782 C   0  0  0  0  0  0  0  0  0  0  0  0
   26.7117  -21.2737  -13.5887 C   0  0  1  0  0  0  0  0  0  0  0  0
   26.6544  -21.5170  -12.1474 C   0  0  0  0  0  0  0  0  0  0  0  0
   26.9125  -22.6432  -11.6750 O   0  0  0  0  0  0  0  0  0  0  0  0
   28.5221  -19.5399   -3.7305 O   0  0  0  0  0  0  0  0  0  0  0  0
   28.1850  -19.5500   -5.0813 C   0  0  0  0  0  0  0  0  0  0  0  0
   28.7735  -20.4816   -5.9122 C   0  0  0  0  0  0  0  0  0  0  0  0
   28.4573  -20.5154   -7.2599 C   0  0  0  0  0  0  0  0  0  0  0  0
   27.5596  -19.6412   -7.8282 C   0  0  0  0  0  0  0  0  0  0  0  0
   27.2718  -19.6526   -9.2585 C   0  0  0  0  0  0  0  0  0  0  0  0
   26.3445  -20.6923   -9.7860 C   0  0  2  0  0  0  0  0  0  0  0  0
   26.3034  -20.4711  -11.2681 N   0  0  0  0  0  0  0  0  0  0  0  0
   24.9782  -20.5286   -9.2866 C   0  0  0  0  0  0  0  0  0  0  0  0
   24.2068  -19.7557   -9.9664 O   0  0  0  0  0  0  0  0  0  0  0  0
   26.9760  -18.7052   -6.9658 C   0  0  0  0  0  0  0  0  0  0  0  0
   27.2836  -18.6631   -5.6231 C   0  0  0  0  0  0  0  0  0  0  0  0
   24.4406  -21.1549   -8.1326 N   0  0  0  0  0  0  0  0  0  0  0  0
   25.1125  -21.9419   -7.1205 C   0  0  0  0  0  0  0  0  0  0  0  0
   24.0559  -23.0002   -6.7312 C   0  0  0  0  0  0  0  0  0  0  0  0
   22.8418  -22.0837   -6.6421 C   0  0  0  0  0  0  0  0  0  0  0  0
   23.0158  -21.1444   -7.7926 C   0  0  1  0  0  0  0  0  0  0  0  0
   22.6039  -19.7601   -7.5197 C   0  0  0  0  0  0  0  0  0  0  0  0
   23.4549  -18.8593   -7.4169 O   0  0  0  0  0  0  0  0  0  0  0  0
   21.2612  -19.4482   -7.3746 O   0  0  0  0  0  0  0  0  0  0  0  0
  1  2  1  0
  2  3  1  0
  4  3  1  0
  5  6  1  1
  5  4  1  0
  5  1  1  0
  6  7  2  0
  8  9  1  0
  9 19  2  0
 10  9  1  0
 10 11  2  0
 11 12  1  0
 12 18  2  0
 12 13  1  0
 14 13  1  1
 14 15  1  0
 14 16  1  0
 15  6  1  0
 16 20  1  0
 17 16  2  0
 19 18  1  0
 20 21  1  0
 20 24  1  0
 21 22  1  0
 22 23  1  0
 24 23  1  0
 25 27  1  0
 24 25  1  1
 26 25  2  0
M  END
$$$$
