PYP.pdb
     RDKit          3D

 27 29  0  0  1  0  0  0  0  0999 V2000
   27.8215  -19.4139  -18.3787 N   0  0  0  0  0  0  0  0  0  0  0  0
   28.6479  -18.9001  -19.4585 C   0  0  0  0  0  0  0  0  0  0  0  0
   28.5934  -17.4067  -19.3848 C   0  0  0  0  0  0  0  0  0  0  0  0
   27.6126  -17.1405  -18.2431 C   0  0  0  0  0  0  0  0  0  0  0  0
   27.8295  -18.3595  -17.3818 C   0  0  1  0  0  0  0  0  0  0  0  0
   26.8202  -18.5496  -16.3401 C   0  0  0  0  0  0  0  0  0  0  0  0
   26.6406  -17.6884  -15.4544 O   0  0  0  0  0  0  0  0  0  0  0  0
   20.8360  -15.6419  -17.9247 O   0  0  0  0  0  0  0  0  0  0  0  0
   21.5498  -16.7591  -17.4996 C   0  0  0  0  0  0  0  0  0  0  0  0
   21.3080  -17.2702  -16.2407 C   0  0  0  0  0  0  0  0  0  0  0  0
   22.0027  -18.3804  -15.7912 C   0  0  0  0  0  0  0  0  0  0  0  0
   22.9495  -19.0178  -16.5596 C   0  0  0  0  0  0  0  0  0  0  0  0
   23.7118  -20.1560  -16.0572 C   0  0  0  0  0  0  0  0  0  0  0  0
   24.9608  -19.8889  -15.2906 C   0  0  2  0  0  0  0  0  0  0  0  0
   26.0320  -19.7196  -16.3255 N   0  0  0  0  0  0  0  0  0  0  0  0
   25.3510  -21.0187  -14.4455 C   0  0  0  0  0  0  0  0  0  0  0  0
   25.9042  -22.0165  -15.0398 O   0  0  0  0  0  0  0  0  0  0  0  0
   23.1779  -18.4811  -17.8323 C   0  0  0  0  0  0  0  0  0  0  0  0
   22.4918  -17.3767  -18.2894 C   0  0  0  0  0  0  0  0  0  0  0  0
   25.1792  -21.0956  -13.0393 N   0  0  0  0  0  0  0  0  0  0  0  0
   24.5996  -20.1274  -12.1330 C   0  0  0  0  0  0  0  0  0  0  0  0
   25.4368  -20.2976  -10.8453 C   0  0  0  0  0  0  0  0  0  0  0  0
   25.4662  -21.8204  -10.7959 C   0  0  0  0  0  0  0  0  0  0  0  0
   25.6413  -22.2226  -12.2255 C   0  0  1  0  0  0  0  0  0  0  0  0
   24.8961  -23.4274  -12.6176 C   0  0  0  0  0  0  0  0  0  0  0  0
   23.8150  -23.3286  -13.2239 O   0  0  0  0  0  0  0  0  0  0  0  0
   25.3940  -24.6847  -12.3136 O   0  0  0  0  0  0  0  0  0  0  0  0
  1  2  1  0
  2  3  1  0
  4  3  1  0
  5  6  1  1
  5  4  1  0
  5  1  1  0
  6  7  2  0
  8  9  1  0
  9 19  2  0
 10  9  1  0
 10 11  2  0
 11 12  1  0
 12 18  2  0
 12 13  1  0
 14 13  1  6
 14 15  1  0
 14 16  1  0
 15  6  1  0
 16 20  1  0
 17 16  2  0
 19 18  1  0
 20 21  1  0
 20 24  1  0
 21 22  1  0
 22 23  1  0
 24 23  1  0
 25 27  1  0
 24 25  1  6
 26 25  2  0
M  END
$$$$
