PYP.pdb
     RDKit          3D

 27 29  0  0  1  0  0  0  0  0999 V2000
   28.4959  -21.8487  -17.3635 N   0  0  0  0  0  0  0  0  0  0  0  0
   29.7156  -22.4298  -17.8998 C   0  0  0  0  0  0  0  0  0  0  0  0
   30.0438  -23.6229  -17.0588 C   0  0  0  0  0  0  0  0  0  0  0  0
   28.9664  -23.6038  -15.9747 C   0  0  0  0  0  0  0  0  0  0  0  0
   27.8213  -22.9563  -16.7127 C   0  0  1  0  0  0  0  0  0  0  0  0
   26.7158  -22.5287  -15.8554 C   0  0  0  0  0  0  0  0  0  0  0  0
   26.0630  -23.3570  -15.1875 O   0  0  0  0  0  0  0  0  0  0  0  0
   24.7406  -20.8338   -8.4314 O   0  0  0  0  0  0  0  0  0  0  0  0
   25.0499  -20.5830   -9.7655 C   0  0  0  0  0  0  0  0  0  0  0  0
   24.1027  -19.9866  -10.5727 C   0  0  0  0  0  0  0  0  0  0  0  0
   24.3824  -19.7249  -11.9033 C   0  0  0  0  0  0  0  0  0  0  0  0
   25.5928  -20.0390  -12.4773 C   0  0  0  0  0  0  0  0  0  0  0  0
   25.8591  -19.8052  -13.8927 C   0  0  0  0  0  0  0  0  0  0  0  0
   25.2439  -20.7246  -14.8903 C   0  0  2  0  0  0  0  0  0  0  0  0
   26.3728  -21.1627  -15.7740 N   0  0  0  0  0  0  0  0  0  0  0  0
   24.2641  -20.0500  -15.7433 C   0  0  0  0  0  0  0  0  0  0  0  0
   24.7336  -19.3536  -16.7176 O   0  0  0  0  0  0  0  0  0  0  0  0
   26.5374  -20.6436  -11.6391 C   0  0  0  0  0  0  0  0  0  0  0  0
   26.2692  -20.9082  -10.3135 C   0  0  0  0  0  0  0  0  0  0  0  0
   22.8550  -20.1106  -15.5892 N   0  0  0  0  0  0  0  0  0  0  0  0
   22.0672  -20.9090  -14.6744 C   0  0  0  0  0  0  0  0  0  0  0  0
   20.7997  -21.2434  -15.4928 C   0  0  0  0  0  0  0  0  0  0  0  0
   20.5464  -19.8640  -16.0887 C   0  0  0  0  0  0  0  0  0  0  0  0
   21.9140  -19.3617  -16.4255 C   0  0  1  0  0  0  0  0  0  0  0  0
   22.1123  -17.9242  -16.1916 C   0  0  0  0  0  0  0  0  0  0  0  0
   22.7267  -17.5297  -15.1850 O   0  0  0  0  0  0  0  0  0  0  0  0
   21.6150  -16.9962  -17.0930 O   0  0  0  0  0  0  0  0  0  0  0  0
  1  2  1  0
  2  3  1  0
  4  3  1  0
  5  6  1  1
  5  4  1  0
  5  1  1  0
  6  7  2  0
  8  9  1  0
  9 19  2  0
 10  9  1  0
 10 11  2  0
 11 12  1  0
 12 18  2  0
 12 13  1  0
 14 13  1  1
 14 15  1  0
 14 16  1  0
 15  6  1  0
 16 20  1  0
 17 16  2  0
 19 18  1  0
 20 21  1  0
 20 24  1  0
 21 22  1  0
 22 23  1  0
 24 23  1  0
 25 27  1  0
 24 25  1  1
 26 25  2  0
M  END
$$$$
