PYP.pdb
     RDKit          3D

 27 29  0  0  1  0  0  0  0  0999 V2000
   28.0843  -21.5129  -12.9913 N   0  0  0  0  0  0  0  0  0  0  0  0
   28.2762  -21.6686  -14.4237 C   0  0  0  0  0  0  0  0  0  0  0  0
   27.6364  -20.4895  -15.0862 C   0  0  0  0  0  0  0  0  0  0  0  0
   27.0083  -19.7227  -13.9227 C   0  0  0  0  0  0  0  0  0  0  0  0
   27.9455  -20.0817  -12.7968 C   0  0  1  0  0  0  0  0  0  0  0  0
   27.4515  -19.7306  -11.4654 C   0  0  0  0  0  0  0  0  0  0  0  0
   27.0661  -18.5715  -11.2079 O   0  0  0  0  0  0  0  0  0  0  0  0
   21.0077  -20.0982  -12.2004 O   0  0  0  0  0  0  0  0  0  0  0  0
   22.1336  -20.4369  -11.4547 C   0  0  0  0  0  0  0  0  0  0  0  0
   22.2913  -19.8957  -10.1951 C   0  0  0  0  0  0  0  0  0  0  0  0
   23.4009  -20.2147   -9.4307 C   0  0  0  0  0  0  0  0  0  0  0  0
   24.3824  -21.0693   -9.8774 C   0  0  0  0  0  0  0  0  0  0  0  0
   25.5724  -21.3590   -9.0844 C   0  0  0  0  0  0  0  0  0  0  0  0
   26.7169  -20.4079   -9.1515 C   0  0  2  0  0  0  0  0  0  0  0  0
   27.4054  -20.7078  -10.4489 N   0  0  0  0  0  0  0  0  0  0  0  0
   27.6924  -20.6302   -8.0830 C   0  0  0  0  0  0  0  0  0  0  0  0
   28.3792  -21.7160   -8.1489 O   0  0  0  0  0  0  0  0  0  0  0  0
   24.2008  -21.6054  -11.1580 C   0  0  0  0  0  0  0  0  0  0  0  0
   23.1002  -21.2946  -11.9269 C   0  0  0  0  0  0  0  0  0  0  0  0
   27.9451  -19.7497   -6.9996 N   0  0  0  0  0  0  0  0  0  0  0  0
   27.4674  -18.4003   -6.7854 C   0  0  0  0  0  0  0  0  0  0  0  0
   28.6517  -17.7113   -6.0708 C   0  0  0  0  0  0  0  0  0  0  0  0
   28.9933  -18.8195   -5.0823 C   0  0  0  0  0  0  0  0  0  0  0  0
   28.8316  -20.0742   -5.8796 C   0  0  1  0  0  0  0  0  0  0  0  0
   28.2585  -21.2034   -5.1332 C   0  0  0  0  0  0  0  0  0  0  0  0
   28.9406  -21.8103   -4.2891 O   0  0  0  0  0  0  0  0  0  0  0  0
   26.9510  -21.6006   -5.3655 O   0  0  0  0  0  0  0  0  0  0  0  0
  1  2  1  0
  2  3  1  0
  4  3  1  0
  5  6  1  1
  5  4  1  0
  5  1  1  0
  6  7  2  0
  8  9  1  0
  9 19  2  0
 10  9  1  0
 10 11  2  0
 11 12  1  0
 12 18  2  0
 12 13  1  0
 14 13  1  1
 14 15  1  0
 14 16  1  0
 15  6  1  0
 16 20  1  0
 17 16  2  0
 19 18  1  0
 20 21  1  0
 20 24  1  0
 21 22  1  0
 22 23  1  0
 24 23  1  0
 25 27  1  0
 24 25  1  1
 26 25  2  0
M  END
$$$$
