PYP.pdb
     RDKit          3D

 27 29  0  0  1  0  0  0  0  0999 V2000
   28.6703  -19.8748  -13.3352 N   0  0  0  0  0  0  0  0  0  0  0  0
   30.0717  -19.8726  -12.9493 C   0  0  0  0  0  0  0  0  0  0  0  0
   30.2352  -20.8979  -11.8720 C   0  0  0  0  0  0  0  0  0  0  0  0
   28.8109  -21.4001  -11.6369 C   0  0  0  0  0  0  0  0  0  0  0  0
   28.2045  -21.2087  -13.0046 C   0  0  1  0  0  0  0  0  0  0  0  0
   26.7472  -21.3311  -13.0411 C   0  0  0  0  0  0  0  0  0  0  0  0
   26.1827  -22.3917  -12.7024 O   0  0  0  0  0  0  0  0  0  0  0  0
   23.5250  -21.4329   -7.0193 O   0  0  0  0  0  0  0  0  0  0  0  0
   23.6975  -20.8939   -8.2913 C   0  0  0  0  0  0  0  0  0  0  0  0
   22.7069  -21.0726   -9.2353 C   0  0  0  0  0  0  0  0  0  0  0  0
   22.8509  -20.5476  -10.5084 C   0  0  0  0  0  0  0  0  0  0  0  0
   23.9650  -19.8361  -10.8902 C   0  0  0  0  0  0  0  0  0  0  0  0
   24.1293  -19.3308  -12.2491 C   0  0  0  0  0  0  0  0  0  0  0  0
   24.4654  -20.3000  -13.3292 C   0  0  2  0  0  0  0  0  0  0  0  0
   25.9573  -20.2412  -13.4636 N   0  0  0  0  0  0  0  0  0  0  0  0
   23.8994  -19.9145  -14.6229 C   0  0  0  0  0  0  0  0  0  0  0  0
   24.5171  -18.9882  -15.2672 O   0  0  0  0  0  0  0  0  0  0  0  0
   24.9565  -19.6682   -9.9160 C   0  0  0  0  0  0  0  0  0  0  0  0
   24.8229  -20.1864   -8.6460 C   0  0  0  0  0  0  0  0  0  0  0  0
   22.7439  -20.4813  -15.2201 N   0  0  0  0  0  0  0  0  0  0  0  0
   21.9038  -21.5605  -14.7466 C   0  0  0  0  0  0  0  0  0  0  0  0
   21.4723  -22.2744  -16.0474 C   0  0  0  0  0  0  0  0  0  0  0  0
   21.1418  -21.0424  -16.8810 C   0  0  0  0  0  0  0  0  0  0  0  0
   22.2178  -20.0675  -16.5231 C   0  0  1  0  0  0  0  0  0  0  0  0
   21.7713  -18.6701  -16.4320 C   0  0  0  0  0  0  0  0  0  0  0  0
   21.6394  -18.1230  -15.3231 O   0  0  0  0  0  0  0  0  0  0  0  0
   21.4935  -17.9505  -17.5836 O   0  0  0  0  0  0  0  0  0  0  0  0
  1  2  1  0
  2  3  1  0
  4  3  1  0
  5  6  1  1
  5  4  1  0
  5  1  1  0
  6  7  2  0
  8  9  1  0
  9 19  2  0
 10  9  1  0
 10 11  2  0
 11 12  1  0
 12 18  2  0
 12 13  1  0
 14 13  1  1
 14 15  1  0
 14 16  1  0
 15  6  1  0
 16 20  1  0
 17 16  2  0
 19 18  1  0
 20 21  1  0
 20 24  1  0
 21 22  1  0
 22 23  1  0
 24 23  1  0
 25 27  1  0
 24 25  1  1
 26 25  2  0
M  END
$$$$
