PYP.pdb
     RDKit          3D

 27 29  0  0  1  0  0  0  0  0999 V2000
   20.9205  -21.6218  -14.4651 N   0  0  0  0  0  0  0  0  0  0  0  0
   19.5553  -21.8031  -14.9305 C   0  0  0  0  0  0  0  0  0  0  0  0
   18.8425  -20.5036  -14.7267 C   0  0  0  0  0  0  0  0  0  0  0  0
   19.8883  -19.6258  -14.0396 C   0  0  0  0  0  0  0  0  0  0  0  0
   21.1652  -20.1982  -14.6026 C   0  0  1  0  0  0  0  0  0  0  0  0
   22.3788  -19.7574  -13.9151 C   0  0  0  0  0  0  0  0  0  0  0  0
   22.7343  -18.5611  -13.9422 O   0  0  0  0  0  0  0  0  0  0  0  0
   28.2419  -19.5003   -7.3007 O   0  0  0  0  0  0  0  0  0  0  0  0
   27.2468  -19.8145   -8.2224 C   0  0  0  0  0  0  0  0  0  0  0  0
   27.3254  -21.0063   -8.9138 C   0  0  0  0  0  0  0  0  0  0  0  0
   26.3502  -21.3453   -9.8364 C   0  0  0  0  0  0  0  0  0  0  0  0
   25.2755  -20.5294  -10.1058 C   0  0  0  0  0  0  0  0  0  0  0  0
   24.2806  -20.8728  -11.1164 C   0  0  0  0  0  0  0  0  0  0  0  0
   24.3790  -20.2268  -12.4551 C   0  0  2  0  0  0  0  0  0  0  0  0
   23.1676  -20.6888  -13.2076 N   0  0  0  0  0  0  0  0  0  0  0  0
   25.5520  -20.6745  -13.2075 C   0  0  0  0  0  0  0  0  0  0  0  0
   25.5863  -21.9190  -13.5312 O   0  0  0  0  0  0  0  0  0  0  0  0
   25.2175  -19.3259   -9.3927 C   0  0  0  0  0  0  0  0  0  0  0  0
   26.1827  -18.9791   -8.4722 C   0  0  0  0  0  0  0  0  0  0  0  0
   26.6359  -19.8533  -13.6123 N   0  0  0  0  0  0  0  0  0  0  0  0
   26.8922  -18.4609  -13.3115 C   0  0  0  0  0  0  0  0  0  0  0  0
   27.5620  -17.9344  -14.6008 C   0  0  0  0  0  0  0  0  0  0  0  0
   28.5169  -19.0958  -14.8484 C   0  0  0  0  0  0  0  0  0  0  0  0
   27.7090  -20.3052  -14.5010 C   0  0  1  0  0  0  0  0  0  0  0  0
   28.4637  -21.3723  -13.8284 C   0  0  0  0  0  0  0  0  0  0  0  0
   28.2975  -21.5917  -12.6158 O   0  0  0  0  0  0  0  0  0  0  0  0
   29.3679  -22.1430  -14.5422 O   0  0  0  0  0  0  0  0  0  0  0  0
  1  2  1  0
  2  3  1  0
  4  3  1  0
  5  6  1  1
  5  4  1  0
  5  1  1  0
  6  7  2  0
  8  9  1  0
  9 19  2  0
 10  9  1  0
 10 11  2  0
 11 12  1  0
 12 18  2  0
 12 13  1  0
 14 13  1  1
 14 15  1  0
 14 16  1  0
 15  6  1  0
 16 20  1  0
 17 16  2  0
 19 18  1  0
 20 21  1  0
 20 24  1  0
 21 22  1  0
 22 23  1  0
 24 23  1  0
 25 27  1  0
 24 25  1  1
 26 25  2  0
M  END
$$$$
