PYP.pdb
     RDKit          3D

 27 29  0  0  1  0  0  0  0  0999 V2000
   28.1003  -21.5001  -12.8545 N   0  0  0  0  0  0  0  0  0  0  0  0
   28.3210  -21.6965  -14.2778 C   0  0  0  0  0  0  0  0  0  0  0  0
   27.6444  -20.5680  -14.9900 C   0  0  0  0  0  0  0  0  0  0  0  0
   26.9671  -19.7886  -13.8630 C   0  0  0  0  0  0  0  0  0  0  0  0
   27.9001  -20.0701  -12.7119 C   0  0  1  0  0  0  0  0  0  0  0  0
   27.3712  -19.6945  -11.4007 C   0  0  0  0  0  0  0  0  0  0  0  0
   26.9763  -18.5318  -11.1760 O   0  0  0  0  0  0  0  0  0  0  0  0
   20.9691  -19.9715  -12.2114 O   0  0  0  0  0  0  0  0  0  0  0  0
   22.0757  -20.3095  -11.4370 C   0  0  0  0  0  0  0  0  0  0  0  0
   22.2295  -19.7251  -10.1963 C   0  0  0  0  0  0  0  0  0  0  0  0
   23.3200  -20.0423   -9.4041 C   0  0  0  0  0  0  0  0  0  0  0  0
   24.2857  -20.9371   -9.8040 C   0  0  0  0  0  0  0  0  0  0  0  0
   25.4569  -21.2260   -8.9832 C   0  0  0  0  0  0  0  0  0  0  0  0
   26.6276  -20.3092   -9.0722 C   0  0  2  0  0  0  0  0  0  0  0  0
   27.3013  -20.6518  -10.3668 N   0  0  0  0  0  0  0  0  0  0  0  0
   27.6013  -20.5399   -8.0039 C   0  0  0  0  0  0  0  0  0  0  0  0
   28.2593  -21.6441   -8.0549 O   0  0  0  0  0  0  0  0  0  0  0  0
   24.1084  -21.5166  -11.0661 C   0  0  0  0  0  0  0  0  0  0  0  0
   23.0267  -21.2080  -11.8623 C   0  0  0  0  0  0  0  0  0  0  0  0
   27.8813  -19.6490   -6.9357 N   0  0  0  0  0  0  0  0  0  0  0  0
   27.4123  -18.2961   -6.7244 C   0  0  0  0  0  0  0  0  0  0  0  0
   28.6147  -17.6034   -6.0444 C   0  0  0  0  0  0  0  0  0  0  0  0
   28.9759  -18.7024   -5.0526 C   0  0  0  0  0  0  0  0  0  0  0  0
   28.7925  -19.9647   -5.8330 C   0  0  1  0  0  0  0  0  0  0  0  0
   28.2335  -21.0845   -5.0621 C   0  0  0  0  0  0  0  0  0  0  0  0
   27.0689  -21.4694   -5.2665 O   0  0  0  0  0  0  0  0  0  0  0  0
   29.0021  -21.7207   -4.1000 O   0  0  0  0  0  0  0  0  0  0  0  0
  1  2  1  0
  2  3  1  0
  4  3  1  0
  5  6  1  1
  5  4  1  0
  5  1  1  0
  6  7  2  0
  8  9  1  0
  9 19  2  0
 10  9  1  0
 10 11  2  0
 11 12  1  0
 12 18  2  0
 12 13  1  0
 14 13  1  1
 14 15  1  0
 14 16  1  0
 15  6  1  0
 16 20  1  0
 17 16  2  0
 19 18  1  0
 20 21  1  0
 20 24  1  0
 21 22  1  0
 22 23  1  0
 24 23  1  0
 25 27  1  0
 24 25  1  1
 26 25  2  0
M  END
$$$$
