PYP.pdb
     RDKit          3D

 27 29  0  0  1  0  0  0  0  0999 V2000
   27.7027  -19.0789  -18.5226 N   0  0  0  0  0  0  0  0  0  0  0  0
   28.5219  -18.5181  -19.5844 C   0  0  0  0  0  0  0  0  0  0  0  0
   28.9385  -17.1497  -19.1455 C   0  0  0  0  0  0  0  0  0  0  0  0
   28.2206  -16.9689  -17.8083 C   0  0  0  0  0  0  0  0  0  0  0  0
   28.1458  -18.3948  -17.3221 C   0  0  1  0  0  0  0  0  0  0  0  0
   27.2494  -18.5980  -16.1841 C   0  0  0  0  0  0  0  0  0  0  0  0
   27.5179  -18.1225  -15.0615 O   0  0  0  0  0  0  0  0  0  0  0  0
   19.3688  -20.2088  -12.2801 O   0  0  0  0  0  0  0  0  0  0  0  0
   20.4329  -20.0154  -13.1569 C   0  0  0  0  0  0  0  0  0  0  0  0
   21.1598  -21.1092  -13.5807 C   0  0  0  0  0  0  0  0  0  0  0  0
   22.2231  -20.9472  -14.4526 C   0  0  0  0  0  0  0  0  0  0  0  0
   22.6020  -19.7141  -14.9314 C   0  0  0  0  0  0  0  0  0  0  0  0
   23.7553  -19.5488  -15.8098 C   0  0  0  0  0  0  0  0  0  0  0  0
   25.1112  -19.4941  -15.1954 C   0  0  2  0  0  0  0  0  0  0  0  0
   26.0609  -19.3408  -16.3451 N   0  0  0  0  0  0  0  0  0  0  0  0
   25.4637  -20.7366  -14.5064 C   0  0  0  0  0  0  0  0  0  0  0  0
   25.8749  -21.7063  -15.2448 O   0  0  0  0  0  0  0  0  0  0  0  0
   21.8502  -18.6197  -14.4873 C   0  0  0  0  0  0  0  0  0  0  0  0
   20.7900  -18.7700  -13.6197 C   0  0  0  0  0  0  0  0  0  0  0  0
   25.3986  -20.9506  -13.1053 N   0  0  0  0  0  0  0  0  0  0  0  0
   24.8811  -20.0825  -12.0692 C   0  0  0  0  0  0  0  0  0  0  0  0
   25.8139  -20.3627  -10.8695 C   0  0  0  0  0  0  0  0  0  0  0  0
   25.8591  -21.8825  -10.9699 C   0  0  0  0  0  0  0  0  0  0  0  0
   25.9296  -22.1432  -12.4407 C   0  0  1  0  0  0  0  0  0  0  0  0
   25.1666  -23.3160  -12.8912 C   0  0  0  0  0  0  0  0  0  0  0  0
   24.0928  -23.1713  -13.5014 O   0  0  0  0  0  0  0  0  0  0  0  0
   25.6394  -24.5942  -12.6386 O   0  0  0  0  0  0  0  0  0  0  0  0
  1  2  1  0
  2  3  1  0
  4  3  1  0
  5  6  1  1
  5  4  1  0
  5  1  1  0
  6  7  2  0
  8  9  1  0
  9 19  2  0
 10  9  1  0
 10 11  2  0
 11 12  1  0
 12 18  2  0
 12 13  1  0
 14 13  1  6
 14 15  1  0
 14 16  1  0
 15  6  1  0
 16 20  1  0
 17 16  2  0
 19 18  1  0
 20 21  1  0
 20 24  1  0
 21 22  1  0
 22 23  1  0
 24 23  1  0
 25 27  1  0
 24 25  1  1
 26 25  2  0
M  END
$$$$
