PYP.pdb
     RDKit          3D

 27 29  0  0  1  0  0  0  0  0999 V2000
   21.9315  -23.0380  -17.8377 N   0  0  0  0  0  0  0  0  0  0  0  0
   20.8955  -23.5427  -18.7238 C   0  0  0  0  0  0  0  0  0  0  0  0
   19.7929  -22.5314  -18.7358 C   0  0  0  0  0  0  0  0  0  0  0  0
   20.2606  -21.4802  -17.7296 C   0  0  0  0  0  0  0  0  0  0  0  0
   21.7587  -21.5975  -17.8600 C   0  0  1  0  0  0  0  0  0  0  0  0
   22.5113  -20.9147  -16.8078 C   0  0  0  0  0  0  0  0  0  0  0  0
   22.3660  -19.6918  -16.6040 O   0  0  0  0  0  0  0  0  0  0  0  0
   26.2395  -20.1659   -8.7599 O   0  0  0  0  0  0  0  0  0  0  0  0
   25.7340  -20.5720   -9.9920 C   0  0  0  0  0  0  0  0  0  0  0  0
   24.4045  -20.3408  -10.2805 C   0  0  0  0  0  0  0  0  0  0  0  0
   23.8743  -20.7336  -11.4978 C   0  0  0  0  0  0  0  0  0  0  0  0
   24.6291  -21.3611  -12.4620 C   0  0  0  0  0  0  0  0  0  0  0  0
   24.0485  -21.8162  -13.7209 C   0  0  0  0  0  0  0  0  0  0  0  0
   24.1796  -20.9404  -14.9187 C   0  0  2  0  0  0  0  0  0  0  0  0
   23.4179  -21.6384  -16.0049 N   0  0  0  0  0  0  0  0  0  0  0  0
   25.5657  -20.8178  -15.3731 C   0  0  0  0  0  0  0  0  0  0  0  0
   26.0381  -21.8050  -16.0492 O   0  0  0  0  0  0  0  0  0  0  0  0
   25.9746  -21.5853  -12.1466 C   0  0  0  0  0  0  0  0  0  0  0  0
   26.5122  -21.1982  -10.9381 C   0  0  0  0  0  0  0  0  0  0  0  0
   26.4158  -19.7063  -15.1391 N   0  0  0  0  0  0  0  0  0  0  0  0
   26.1591  -18.5004  -14.3810 C   0  0  0  0  0  0  0  0  0  0  0  0
   26.9319  -17.4150  -15.1638 C   0  0  0  0  0  0  0  0  0  0  0  0
   28.2226  -18.1881  -15.4054 C   0  0  0  0  0  0  0  0  0  0  0  0
   27.7578  -19.5760  -15.7117 C   0  0  1  0  0  0  0  0  0  0  0  0
   28.6114  -20.6411  -15.1661 C   0  0  0  0  0  0  0  0  0  0  0  0
   28.3672  -21.1333  -14.0506 O   0  0  0  0  0  0  0  0  0  0  0  0
   29.6967  -21.1054  -15.8925 O   0  0  0  0  0  0  0  0  0  0  0  0
  1  2  1  0
  2  3  1  0
  4  3  1  0
  5  6  1  1
  5  4  1  0
  5  1  1  0
  6  7  2  0
  8  9  1  0
  9 19  2  0
 10  9  1  0
 10 11  2  0
 11 12  1  0
 12 18  2  0
 12 13  1  0
 14 13  1  1
 14 15  1  0
 14 16  1  0
 15  6  1  0
 16 20  1  0
 17 16  2  0
 19 18  1  0
 20 21  1  0
 20 24  1  0
 21 22  1  0
 22 23  1  0
 24 23  1  0
 25 27  1  0
 24 25  1  1
 26 25  2  0
M  END
$$$$
