PYP.pdb
     RDKit          3D

 27 29  0  0  1  0  0  0  0  0999 V2000
   22.3809  -20.7408  -16.2131 N   0  0  0  0  0  0  0  0  0  0  0  0
   22.8114  -20.6061  -17.5950 C   0  0  0  0  0  0  0  0  0  0  0  0
   23.5282  -19.2977  -17.7092 C   0  0  0  0  0  0  0  0  0  0  0  0
   23.3855  -18.6888  -16.3146 C   0  0  0  0  0  0  0  0  0  0  0  0
   23.3189  -19.9296  -15.4597 C   0  0  1  0  0  0  0  0  0  0  0  0
   22.8902  -19.6907  -14.0816 C   0  0  0  0  0  0  0  0  0  0  0  0
   23.5237  -18.9146  -13.3369 O   0  0  0  0  0  0  0  0  0  0  0  0
   19.3743  -14.2709  -14.9708 O   0  0  0  0  0  0  0  0  0  0  0  0
   19.4535  -15.5480  -14.4219 C   0  0  0  0  0  0  0  0  0  0  0  0
   19.7344  -15.6838  -13.0776 C   0  0  0  0  0  0  0  0  0  0  0  0
   19.8190  -16.9413  -12.5043 C   0  0  0  0  0  0  0  0  0  0  0  0
   19.6315  -18.0956  -13.2293 C   0  0  0  0  0  0  0  0  0  0  0  0
   19.7730  -19.4167  -12.6262 C   0  0  0  0  0  0  0  0  0  0  0  0
   21.1407  -19.8937  -12.2786 C   0  0  2  0  0  0  0  0  0  0  0  0
   21.7453  -20.3413  -13.5753 N   0  0  0  0  0  0  0  0  0  0  0  0
   21.1186  -21.0554  -11.3883 C   0  0  0  0  0  0  0  0  0  0  0  0
   20.8856  -22.1953  -11.9369 O   0  0  0  0  0  0  0  0  0  0  0  0
   19.3482  -17.9328  -14.5906 C   0  0  0  0  0  0  0  0  0  0  0  0
   19.2616  -16.6858  -15.1711 C   0  0  0  0  0  0  0  0  0  0  0  0
   21.3413  -21.0261   -9.9874 N   0  0  0  0  0  0  0  0  0  0  0  0
   21.6702  -19.9031   -9.1355 C   0  0  0  0  0  0  0  0  0  0  0  0
   22.6038  -20.5232   -8.0716 C   0  0  0  0  0  0  0  0  0  0  0  0
   21.8107  -21.7933   -7.7894 C   0  0  0  0  0  0  0  0  0  0  0  0
   21.3227  -22.2189   -9.1373 C   0  0  1  0  0  0  0  0  0  0  0  0
   19.9666  -22.7859   -9.1459 C   0  0  0  0  0  0  0  0  0  0  0  0
   19.0157  -22.1349   -9.6130 O   0  0  0  0  0  0  0  0  0  0  0  0
   19.7375  -24.0527   -8.6323 O   0  0  0  0  0  0  0  0  0  0  0  0
  1  2  1  0
  2  3  1  0
  4  3  1  0
  5  6  1  1
  5  4  1  0
  5  1  1  0
  6  7  2  0
  8  9  1  0
  9 19  2  0
 10  9  1  0
 10 11  2  0
 11 12  1  0
 12 18  2  0
 12 13  1  0
 14 13  1  6
 14 15  1  0
 14 16  1  0
 15  6  1  0
 16 20  1  0
 17 16  2  0
 19 18  1  0
 20 21  1  0
 20 24  1  0
 21 22  1  0
 22 23  1  0
 24 23  1  0
 25 27  1  0
 24 25  1  1
 26 25  2  0
M  END
$$$$
