EEV.pdb
     RDKit          3D

 26 25  0  0  1  0  0  0  0  0999 V2000
   37.3099  -28.2965  -15.2653 N   0  0  0  0  0  0  0  0  0  0  0  0
   36.2436  -28.5058  -16.2289 C   0  0  1  0  0  0  0  0  0  0  0  0
   36.1541  -27.2625  -17.0957 C   0  0  0  0  0  0  0  0  0  0  0  0
   35.5792  -26.0975  -16.3571 C   0  0  0  0  0  0  0  0  0  0  0  0
   35.5216  -24.8697  -17.1718 C   0  0  0  0  0  0  0  0  0  0  0  0
   35.8602  -24.9102  -18.3754 O   0  0  0  0  0  0  0  0  0  0  0  0
   36.5950  -29.6985  -17.0391 C   0  0  0  0  0  0  0  0  0  0  0  0
   37.8054  -30.0178  -17.1213 O   0  0  0  0  0  0  0  0  0  0  0  0
   35.1003  -23.6788  -16.6260 O   0  0  0  0  0  0  0  0  0  0  0  0
   35.6586  -30.4916  -17.7194 N   0  0  0  0  0  0  0  0  0  0  0  0
   36.0762  -31.7008  -18.4005 C   0  0  1  0  0  0  0  0  0  0  0  0
   35.6581  -32.9339  -17.7079 C   0  0  0  0  0  0  0  0  0  0  0  0
   36.1461  -34.1610  -18.4183 C   0  0  0  0  0  0  0  0  0  0  0  0
   35.6714  -35.4042  -17.6957 C   0  0  0  0  0  0  0  0  0  0  0  0
   34.9349  -36.2053  -18.3030 O   0  0  0  0  0  0  0  0  0  0  0  0
   35.4458  -31.6516  -19.7469 C   0  0  0  0  0  0  0  0  0  0  0  0
   34.2627  -31.3241  -19.9864 O   0  0  0  0  0  0  0  0  0  0  0  0
   36.0418  -35.6511  -16.3945 O   0  0  0  0  0  0  0  0  0  0  0  0
   37.9026  -31.3618  -23.2202 C   0  0  0  0  0  0  0  0  0  0  0  0
   36.4745  -30.9448  -23.0759 C   0  0  2  0  0  0  0  0  0  0  0  0
   36.3942  -29.5428  -22.5140 C   0  0  0  0  0  0  0  0  0  0  0  0
   35.6487  -31.9188  -22.2557 C   0  0  2  0  0  0  0  0  0  0  0  0
   36.1910  -31.9964  -20.9401 N   0  0  0  0  0  0  0  0  0  0  0  0
   35.4405  -33.2084  -22.9118 C   0  0  0  0  0  0  0  0  0  0  0  0
   34.4957  -33.3033  -23.9240 O   0  0  0  0  0  0  0  0  0  0  0  0
   36.0656  -34.2729  -22.6269 O   0  0  0  0  0  0  0  0  0  0  0  0
  2  7  1  0
  2  1  1  1
  3  2  1  0
  4  5  1  0
  4  3  1  0
  5  6  2  0
  7 10  1  0
  8  7  2  0
  9  5  1  0
 10 11  1  0
 11 12  1  1
 12 13  1  0
 13 14  1  0
 14 15  2  0
 14 18  1  0
 16 17  2  0
 16 11  1  0
 20 19  1  1
 20 22  1  0
 21 20  1  0
 22 24  1  0
 22 23  1  1
 23 16  1  0
 24 25  1  0
 26 24  2  0
M  END
$$$$
