EEV.pdb
     RDKit          3D

 26 25  0  0  1  0  0  0  0  0999 V2000
   15.9656  -10.0207  -18.0293 N   0  0  0  0  0  0  0  0  0  0  0  0
   15.7833   -9.0129  -16.9996 C   0  0  1  0  0  0  0  0  0  0  0  0
   15.3981   -9.7279  -15.7168 C   0  0  0  0  0  0  0  0  0  0  0  0
   16.4038  -10.7597  -15.3198 C   0  0  0  0  0  0  0  0  0  0  0  0
   16.0922  -11.4022  -14.0296 C   0  0  0  0  0  0  0  0  0  0  0  0
   15.4699  -10.7609  -13.1542 O   0  0  0  0  0  0  0  0  0  0  0  0
   17.0696   -8.2895  -16.8432 C   0  0  0  0  0  0  0  0  0  0  0  0
   18.1204   -8.8741  -17.2008 O   0  0  0  0  0  0  0  0  0  0  0  0
   16.4769  -12.6986  -13.7749 O   0  0  0  0  0  0  0  0  0  0  0  0
   17.1847   -6.9926  -16.3200 N   0  0  0  0  0  0  0  0  0  0  0  0
   18.4594   -6.3034  -16.3378 C   0  0  1  0  0  0  0  0  0  0  0  0
   18.3281   -4.8371  -16.4261 C   0  0  0  0  0  0  0  0  0  0  0  0
   17.9201   -4.3992  -17.8010 C   0  0  0  0  0  0  0  0  0  0  0  0
   17.7251   -2.8979  -17.8326 C   0  0  0  0  0  0  0  0  0  0  0  0
   16.8295   -2.4255  -18.5591 O   0  0  0  0  0  0  0  0  0  0  0  0
   19.1380   -6.6634  -15.0640 C   0  0  0  0  0  0  0  0  0  0  0  0
   18.5756   -6.8242  -13.9585 O   0  0  0  0  0  0  0  0  0  0  0  0
   18.5170   -2.0655  -17.0768 O   0  0  0  0  0  0  0  0  0  0  0  0
   23.2650   -8.0960  -15.0099 C   0  0  0  0  0  0  0  0  0  0  0  0
   22.1747   -8.3493  -14.0193 C   0  0  2  0  0  0  0  0  0  0  0  0
   21.3752   -9.5681  -14.4233 C   0  0  0  0  0  0  0  0  0  0  0  0
   21.2771   -7.1455  -13.7995 C   0  0  2  0  0  0  0  0  0  0  0  0
   20.5712   -6.8645  -15.0052 N   0  0  0  0  0  0  0  0  0  0  0  0
   21.9670   -5.9996  -13.2098 C   0  0  0  0  0  0  0  0  0  0  0  0
   22.3580   -6.0616  -11.8796 O   0  0  0  0  0  0  0  0  0  0  0  0
   22.2448   -4.9283  -13.8264 O   0  0  0  0  0  0  0  0  0  0  0  0
  2  7  1  0
  2  1  1  6
  3  2  1  0
  4  5  1  0
  4  3  1  0
  5  6  2  0
  7 10  1  0
  8  7  2  0
  9  5  1  0
 10 11  1  0
 11 12  1  1
 12 13  1  0
 13 14  1  0
 14 15  2  0
 14 18  1  0
 16 17  2  0
 16 11  1  0
 20 19  1  6
 20 22  1  0
 21 20  1  0
 22 24  1  0
 22 23  1  6
 23 16  1  0
 24 25  1  0
 26 24  2  0
M  END
$$$$
