EEV.pdb
     RDKit          3D

 26 25  0  0  1  0  0  0  0  0999 V2000
   20.6703  -19.7501  -16.6620 N   0  0  0  0  0  0  0  0  0  0  0  0
   21.5319  -18.9955  -15.7690 C   0  0  1  0  0  0  0  0  0  0  0  0
   20.6900  -18.5406  -14.5904 C   0  0  0  0  0  0  0  0  0  0  0  0
   19.2328  -18.7945  -14.8039 C   0  0  0  0  0  0  0  0  0  0  0  0
   18.3741  -17.7399  -14.2339 C   0  0  0  0  0  0  0  0  0  0  0  0
   18.5205  -17.4027  -13.0382 O   0  0  0  0  0  0  0  0  0  0  0  0
   22.6257  -19.8967  -15.3287 C   0  0  0  0  0  0  0  0  0  0  0  0
   22.3320  -20.8504  -14.5686 O   0  0  0  0  0  0  0  0  0  0  0  0
   17.4128  -17.1209  -14.9997 O   0  0  0  0  0  0  0  0  0  0  0  0
   23.9683  -19.7491  -15.7090 N   0  0  0  0  0  0  0  0  0  0  0  0
   24.9810  -20.6495  -15.1951 C   0  0  1  0  0  0  0  0  0  0  0  0
   26.2228  -20.6451  -15.9907 C   0  0  0  0  0  0  0  0  0  0  0  0
   27.2179  -21.6388  -15.4700 C   0  0  0  0  0  0  0  0  0  0  0  0
   28.4431  -21.6634  -16.3596 C   0  0  0  0  0  0  0  0  0  0  0  0
   28.5423  -20.8137  -17.2657 O   0  0  0  0  0  0  0  0  0  0  0  0
   25.2775  -20.1871  -13.8128 C   0  0  0  0  0  0  0  0  0  0  0  0
   25.3932  -18.9952  -13.4518 O   0  0  0  0  0  0  0  0  0  0  0  0
   29.4313  -22.6022  -16.1769 O   0  0  0  0  0  0  0  0  0  0  0  0
   23.4541  -20.9311  -10.7251 C   0  0  0  0  0  0  0  0  0  0  0  0
   24.8687  -21.2980  -10.4115 C   0  0  2  0  0  0  0  0  0  0  0  0
   25.2162  -20.8788   -9.0003 C   0  0  0  0  0  0  0  0  0  0  0  0
   25.8646  -20.7457  -11.4148 C   0  0  2  0  0  0  0  0  0  0  0  0
   25.4637  -21.1284  -12.7278 N   0  0  0  0  0  0  0  0  0  0  0  0
   27.2567  -21.0457  -11.0851 C   0  0  0  0  0  0  0  0  0  0  0  0
   27.9986  -21.8345  -11.9533 O   0  0  0  0  0  0  0  0  0  0  0  0
   27.8576  -20.6358  -10.0479 O   0  0  0  0  0  0  0  0  0  0  0  0
  2  7  1  0
  2  1  1  6
  3  2  1  0
  4  5  1  0
  4  3  1  0
  5  6  2  0
  7 10  1  0
  8  7  2  0
  9  5  1  0
 10 11  1  0
 11 12  1  6
 12 13  1  0
 13 14  1  0
 14 15  2  0
 14 18  1  0
 16 17  2  0
 16 11  1  0
 20 19  1  6
 20 22  1  0
 21 20  1  0
 22 24  1  0
 22 23  1  6
 23 16  1  0
 24 25  1  0
 26 24  2  0
M  END
$$$$
