EEV.pdb
     RDKit          3D

 26 25  0  0  1  0  0  0  0  0999 V2000
   24.8058  -27.5456  -17.4942 N   0  0  0  0  0  0  0  0  0  0  0  0
   23.7699  -26.8316  -16.7687 C   0  0  1  0  0  0  0  0  0  0  0  0
   23.3854  -27.6734  -15.5652 C   0  0  0  0  0  0  0  0  0  0  0  0
   22.2785  -28.6291  -15.8730 C   0  0  0  0  0  0  0  0  0  0  0  0
   20.9541  -27.9822  -15.9188 C   0  0  0  0  0  0  0  0  0  0  0  0
   20.7492  -26.9456  -15.2492 O   0  0  0  0  0  0  0  0  0  0  0  0
   24.3323  -25.5239  -16.3491 C   0  0  0  0  0  0  0  0  0  0  0  0
   25.5761  -25.4353  -16.2123 O   0  0  0  0  0  0  0  0  0  0  0  0
   19.9395  -28.5036  -16.6884 O   0  0  0  0  0  0  0  0  0  0  0  0
   23.5602  -24.3800  -16.0953 N   0  0  0  0  0  0  0  0  0  0  0  0
   24.1976  -23.1238  -15.7548 C   0  0  1  0  0  0  0  0  0  0  0  0
   23.9170  -22.0468  -16.7225 C   0  0  0  0  0  0  0  0  0  0  0  0
   25.1721  -21.3485  -17.1536 C   0  0  0  0  0  0  0  0  0  0  0  0
   25.0616  -19.8633  -16.8802 C   0  0  0  0  0  0  0  0  0  0  0  0
   25.9661  -19.3052  -16.2295 O   0  0  0  0  0  0  0  0  0  0  0  0
   23.6632  -22.7413  -14.4204 C   0  0  0  0  0  0  0  0  0  0  0  0
   22.4969  -22.9440  -14.0166 O   0  0  0  0  0  0  0  0  0  0  0  0
   23.9868  -19.1376  -17.3381 O   0  0  0  0  0  0  0  0  0  0  0  0
   26.1923  -22.1823  -11.1428 C   0  0  0  0  0  0  0  0  0  0  0  0
   25.1678  -21.1136  -11.3488 C   0  0  2  0  0  0  0  0  0  0  0  0
   24.7008  -20.5740  -10.0151 C   0  0  0  0  0  0  0  0  0  0  0  0
   23.9983  -21.5654  -12.2041 C   0  0  2  0  0  0  0  0  0  0  0  0
   24.4939  -22.0724  -13.4403 N   0  0  0  0  0  0  0  0  0  0  0  0
   22.9421  -20.5628  -12.3301 C   0  0  0  0  0  0  0  0  0  0  0  0
   21.8699  -20.6010  -11.4495 O   0  0  0  0  0  0  0  0  0  0  0  0
   22.9229  -19.6391  -13.1969 O   0  0  0  0  0  0  0  0  0  0  0  0
  2  7  1  0
  2  1  1  1
  3  2  1  0
  4  5  1  0
  4  3  1  0
  5  6  2  0
  7 10  1  0
  8  7  2  0
  9  5  1  0
 10 11  1  0
 11 12  1  6
 12 13  1  0
 13 14  1  0
 14 15  2  0
 14 18  1  0
 16 17  2  0
 16 11  1  0
 20 19  1  1
 20 22  1  0
 21 20  1  0
 22 24  1  0
 22 23  1  6
 23 16  1  0
 24 25  1  0
 26 24  2  0
M  END
$$$$
