EEV.pdb
     RDKit          3D

 26 25  0  0  1  0  0  0  0  0999 V2000
   19.9592  -11.9750  -18.9965 N   0  0  0  0  0  0  0  0  0  0  0  0
   20.1054  -11.6732  -17.5834 C   0  0  1  0  0  0  0  0  0  0  0  0
   21.5777  -11.7985  -17.2346 C   0  0  0  0  0  0  0  0  0  0  0  0
   22.4092  -10.7525  -17.9038 C   0  0  0  0  0  0  0  0  0  0  0  0
   23.6363  -10.4247  -17.1545 C   0  0  0  0  0  0  0  0  0  0  0  0
   23.9142  -11.0618  -16.1145 O   0  0  0  0  0  0  0  0  0  0  0  0
   19.6201  -10.2879  -17.3651 C   0  0  0  0  0  0  0  0  0  0  0  0
   20.1313   -9.3706  -18.0512 O   0  0  0  0  0  0  0  0  0  0  0  0
   24.4808   -9.4266  -17.5839 O   0  0  0  0  0  0  0  0  0  0  0  0
   18.6253   -9.9392  -16.4389 N   0  0  0  0  0  0  0  0  0  0  0  0
   18.1055   -8.5872  -16.3927 C   0  0  1  0  0  0  0  0  0  0  0  0
   16.6568   -8.5285  -16.1230 C   0  0  0  0  0  0  0  0  0  0  0  0
   16.1300   -7.1284  -16.2276 C   0  0  0  0  0  0  0  0  0  0  0  0
   14.6393   -7.1120  -15.9620 C   0  0  0  0  0  0  0  0  0  0  0  0
   14.0853   -8.1652  -15.5921 O   0  0  0  0  0  0  0  0  0  0  0  0
   18.8410   -7.9025  -15.2959 C   0  0  0  0  0  0  0  0  0  0  0  0
   19.1389   -8.4079  -14.1914 O   0  0  0  0  0  0  0  0  0  0  0  0
   13.9045   -5.9608  -16.1235 O   0  0  0  0  0  0  0  0  0  0  0  0
   22.1670   -6.6522  -15.1629 C   0  0  0  0  0  0  0  0  0  0  0  0
   21.3415   -5.4545  -14.8187 C   0  0  2  0  0  0  0  0  0  0  0  0
   22.0469   -4.6167  -13.7754 C   0  0  0  0  0  0  0  0  0  0  0  0
   19.9306   -5.8073  -14.3850 C   0  0  2  0  0  0  0  0  0  0  0  0
   19.2892   -6.5318  -15.4312 N   0  0  0  0  0  0  0  0  0  0  0  0
   19.1725   -4.6674  -13.8722 C   0  0  0  0  0  0  0  0  0  0  0  0
   19.4127   -4.2274  -12.5780 O   0  0  0  0  0  0  0  0  0  0  0  0
   18.2932   -4.0320  -14.5263 O   0  0  0  0  0  0  0  0  0  0  0  0
  2  7  1  0
  2  1  1  6
  3  2  1  0
  4  5  1  0
  4  3  1  0
  5  6  2  0
  7 10  1  0
  8  7  2  0
  9  5  1  0
 10 11  1  0
 11 12  1  1
 12 13  1  0
 13 14  1  0
 14 15  2  0
 14 18  1  0
 16 17  2  0
 16 11  1  0
 20 19  1  1
 20 22  1  0
 21 20  1  0
 22 24  1  0
 22 23  1  6
 23 16  1  0
 24 25  1  0
 26 24  2  0
M  END
$$$$
