EEV.pdb
     RDKit          3D

 26 25  0  0  1  0  0  0  0  0999 V2000
   24.1917  -33.0188   -6.0193 N   0  0  0  0  0  0  0  0  0  0  0  0
   23.8130  -33.7834   -4.8441 C   0  0  1  0  0  0  0  0  0  0  0  0
   24.9451  -33.6750   -3.8383 C   0  0  0  0  0  0  0  0  0  0  0  0
   26.2231  -34.2473   -4.3604 C   0  0  0  0  0  0  0  0  0  0  0  0
   27.3421  -34.1232   -3.4080 C   0  0  0  0  0  0  0  0  0  0  0  0
   27.9508  -33.0349   -3.3080 O   0  0  0  0  0  0  0  0  0  0  0  0
   22.5616  -33.1943   -4.3063 C   0  0  0  0  0  0  0  0  0  0  0  0
   22.1455  -32.1279   -4.8195 O   0  0  0  0  0  0  0  0  0  0  0  0
   27.7265  -35.1890   -2.6269 O   0  0  0  0  0  0  0  0  0  0  0  0
   21.8142  -33.7549   -3.2594 N   0  0  0  0  0  0  0  0  0  0  0  0
   20.5262  -33.1987   -2.8959 C   0  0  1  0  0  0  0  0  0  0  0  0
   19.5638  -34.2139   -2.4286 C   0  0  0  0  0  0  0  0  0  0  0  0
   18.2266  -33.6093   -2.1208 C   0  0  0  0  0  0  0  0  0  0  0  0
   17.2754  -34.6765   -1.6213 C   0  0  0  0  0  0  0  0  0  0  0  0
   17.5571  -35.8730   -1.8259 O   0  0  0  0  0  0  0  0  0  0  0  0
   20.7930  -32.2287   -1.8002 C   0  0  0  0  0  0  0  0  0  0  0  0
   21.6821  -32.3407   -0.9278 O   0  0  0  0  0  0  0  0  0  0  0  0
   16.1212  -34.3393   -0.9539 O   0  0  0  0  0  0  0  0  0  0  0  0
   20.5805  -28.3415   -2.4363 C   0  0  0  0  0  0  0  0  0  0  0  0
   19.8734  -28.6795   -1.1636 C   0  0  2  0  0  0  0  0  0  0  0  0
   20.1213  -27.6057   -0.1275 C   0  0  0  0  0  0  0  0  0  0  0  0
   20.2284  -30.0557   -0.6313 C   0  0  2  0  0  0  0  0  0  0  0  0
   20.0043  -31.0226   -1.6540 N   0  0  0  0  0  0  0  0  0  0  0  0
   19.6061  -30.3656    0.6546 C   0  0  0  0  0  0  0  0  0  0  0  0
   20.0502  -29.7071    1.7927 O   0  0  0  0  0  0  0  0  0  0  0  0
   18.6723  -31.2054    0.8212 O   0  0  0  0  0  0  0  0  0  0  0  0
  2  7  1  0
  2  1  1  6
  3  2  1  0
  4  5  1  0
  4  3  1  0
  5  6  2  0
  7 10  1  0
  8  7  2  0
  9  5  1  0
 10 11  1  0
 11 12  1  1
 12 13  1  0
 13 14  1  0
 14 15  2  0
 14 18  1  0
 16 17  2  0
 16 11  1  0
 20 19  1  6
 20 22  1  0
 21 20  1  0
 22 24  1  0
 22 23  1  6
 23 16  1  0
 24 25  1  0
 26 24  2  0
M  END
$$$$
