EEV.pdb
     RDKit          3D

 26 25  0  0  1  0  0  0  0  0999 V2000
   19.0856  -13.7262  -19.0937 N   0  0  0  0  0  0  0  0  0  0  0  0
   18.3452  -12.5888  -18.5766 C   0  0  1  0  0  0  0  0  0  0  0  0
   17.6377  -13.0358  -17.3098 C   0  0  0  0  0  0  0  0  0  0  0  0
   16.8817  -11.9221  -16.6605 C   0  0  0  0  0  0  0  0  0  0  0  0
   16.1621  -12.3455  -15.4449 C   0  0  0  0  0  0  0  0  0  0  0  0
   16.5674  -13.3386  -14.8011 O   0  0  0  0  0  0  0  0  0  0  0  0
   19.3206  -11.5074  -18.2911 C   0  0  0  0  0  0  0  0  0  0  0  0
   20.4093  -11.8239  -17.7542 O   0  0  0  0  0  0  0  0  0  0  0  0
   15.0498  -11.6628  -15.0086 O   0  0  0  0  0  0  0  0  0  0  0  0
   19.1018  -10.1526  -18.5837 N   0  0  0  0  0  0  0  0  0  0  0  0
   20.1618   -9.1811  -18.4029 C   0  0  1  0  0  0  0  0  0  0  0  0
   19.9752   -7.9584  -19.2062 C   0  0  0  0  0  0  0  0  0  0  0  0
   21.1395   -7.0233  -19.0706 C   0  0  0  0  0  0  0  0  0  0  0  0
   20.9052   -5.7769  -19.8980 C   0  0  0  0  0  0  0  0  0  0  0  0
   20.7498   -5.8956  -21.1287 O   0  0  0  0  0  0  0  0  0  0  0  0
   20.1533   -8.8293  -16.9576 C   0  0  0  0  0  0  0  0  0  0  0  0
   19.1345   -8.6041  -16.2680 O   0  0  0  0  0  0  0  0  0  0  0  0
   20.8633   -4.5346  -19.3095 O   0  0  0  0  0  0  0  0  0  0  0  0
   23.6491   -9.4999  -14.5176 C   0  0  0  0  0  0  0  0  0  0  0  0
   22.2276   -9.4008  -14.0662 C   0  0  2  0  0  0  0  0  0  0  0  0
   21.5624  -10.7575  -14.1344 C   0  0  0  0  0  0  0  0  0  0  0  0
   21.4323   -8.3547  -14.8255 C   0  0  2  0  0  0  0  0  0  0  0  0
   21.3847   -8.7154  -16.2033 N   0  0  0  0  0  0  0  0  0  0  0  0
   21.8666   -6.9837  -14.5636 C   0  0  0  0  0  0  0  0  0  0  0  0
   21.7298   -6.4680  -13.2823 O   0  0  0  0  0  0  0  0  0  0  0  0
   22.3699   -6.2078  -15.4294 O   0  0  0  0  0  0  0  0  0  0  0  0
  2  7  1  0
  2  1  1  1
  3  2  1  0
  4  5  1  0
  4  3  1  0
  5  6  2  0
  7 10  1  0
  8  7  2  0
  9  5  1  0
 10 11  1  0
 11 12  1  6
 12 13  1  0
 13 14  1  0
 14 15  2  0
 14 18  1  0
 16 17  2  0
 16 11  1  0
 20 19  1  6
 20 22  1  0
 21 20  1  0
 22 24  1  0
 22 23  1  6
 23 16  1  0
 24 25  1  0
 26 24  2  0
M  END
$$$$
