EEV.pdb
     RDKit          3D

 26 25  0  0  1  0  0  0  0  0999 V2000
   15.6892   -7.1272  -19.5522 N   0  0  0  0  0  0  0  0  0  0  0  0
   17.1166   -6.8616  -19.5154 C   0  0  1  0  0  0  0  0  0  0  0  0
   17.3461   -5.4869  -20.1176 C   0  0  0  0  0  0  0  0  0  0  0  0
   17.8278   -5.5610  -21.5304 C   0  0  0  0  0  0  0  0  0  0  0  0
   16.9020   -6.2890  -22.4179 C   0  0  0  0  0  0  0  0  0  0  0  0
   17.3066   -7.2952  -23.0414 O   0  0  0  0  0  0  0  0  0  0  0  0
   17.5467   -6.9020  -18.0956 C   0  0  0  0  0  0  0  0  0  0  0  0
   16.8533   -6.2830  -17.2531 O   0  0  0  0  0  0  0  0  0  0  0  0
   15.5981   -5.8765  -22.5699 O   0  0  0  0  0  0  0  0  0  0  0  0
   18.6806   -7.5890  -17.6359 N   0  0  0  0  0  0  0  0  0  0  0  0
   18.9359   -7.7183  -16.2152 C   0  0  1  0  0  0  0  0  0  0  0  0
   19.2723   -9.0947  -15.8063 C   0  0  0  0  0  0  0  0  0  0  0  0
   18.0597   -9.9764  -15.7779 C   0  0  0  0  0  0  0  0  0  0  0  0
   18.4456  -11.3791  -15.3578 C   0  0  0  0  0  0  0  0  0  0  0  0
   19.6154  -11.5918  -14.9846 O   0  0  0  0  0  0  0  0  0  0  0  0
   20.0848   -6.8203  -15.9217 C   0  0  0  0  0  0  0  0  0  0  0  0
   21.0615   -6.6159  -16.6757 O   0  0  0  0  0  0  0  0  0  0  0  0
   17.5284  -12.4034  -15.3850 O   0  0  0  0  0  0  0  0  0  0  0  0
   20.4601   -3.3555  -15.6713 C   0  0  0  0  0  0  0  0  0  0  0  0
   20.9026   -3.8265  -14.3235 C   0  0  2  0  0  0  0  0  0  0  0  0
   22.0229   -2.9515  -13.8066 C   0  0  0  0  0  0  0  0  0  0  0  0
   21.2904   -5.2937  -14.3022 C   0  0  2  0  0  0  0  0  0  0  0  0
   20.1627   -6.0789  -14.6798 N   0  0  0  0  0  0  0  0  0  0  0  0
   21.9418   -5.7100  -13.0616 C   0  0  0  0  0  0  0  0  0  0  0  0
   23.2802   -5.3981  -12.8673 O   0  0  0  0  0  0  0  0  0  0  0  0
   21.3731   -6.3472  -12.1260 O   0  0  0  0  0  0  0  0  0  0  0  0
  2  7  1  0
  2  1  1  1
  3  2  1  0
  4  5  1  0
  4  3  1  0
  5  6  2  0
  7 10  1  0
  8  7  2  0
  9  5  1  0
 10 11  1  0
 11 12  1  6
 12 13  1  0
 13 14  1  0
 14 15  2  0
 14 18  1  0
 16 17  2  0
 16 11  1  0
 20 19  1  6
 20 22  1  0
 21 20  1  0
 22 24  1  0
 22 23  1  1
 23 16  1  0
 24 25  1  0
 26 24  2  0
M  END
$$$$
