EEV.pdb
     RDKit          3D

 26 25  0  0  1  0  0  0  0  0999 V2000
   16.8848  -13.0225  -18.3316 N   0  0  0  0  0  0  0  0  0  0  0  0
   16.7960  -12.3016  -17.0739 C   0  0  1  0  0  0  0  0  0  0  0  0
   17.1089  -13.2814  -15.9572 C   0  0  0  0  0  0  0  0  0  0  0  0
   15.9720  -14.2127  -15.6859 C   0  0  0  0  0  0  0  0  0  0  0  0
   14.8340  -13.5544  -15.0179 C   0  0  0  0  0  0  0  0  0  0  0  0
   15.0412  -12.5811  -14.2600 O   0  0  0  0  0  0  0  0  0  0  0  0
   17.7902  -11.2006  -17.1136 C   0  0  0  0  0  0  0  0  0  0  0  0
   18.9992  -11.5045  -17.2544 O   0  0  0  0  0  0  0  0  0  0  0  0
   13.5461  -13.9964  -15.2169 O   0  0  0  0  0  0  0  0  0  0  0  0
   17.4633   -9.8405  -17.0031 N   0  0  0  0  0  0  0  0  0  0  0  0
   18.4883   -8.8249  -17.1374 C   0  0  1  0  0  0  0  0  0  0  0  0
   17.9436   -7.4606  -17.2683 C   0  0  0  0  0  0  0  0  0  0  0  0
   17.3469   -7.2300  -18.6245 C   0  0  0  0  0  0  0  0  0  0  0  0
   16.8353   -5.8089  -18.7333 C   0  0  0  0  0  0  0  0  0  0  0  0
   16.1256   -5.5011  -19.7103 O   0  0  0  0  0  0  0  0  0  0  0  0
   19.3152   -8.9112  -15.9039 C   0  0  0  0  0  0  0  0  0  0  0  0
   18.8801   -9.0963  -14.7460 O   0  0  0  0  0  0  0  0  0  0  0  0
   17.1437   -4.8707  -17.7762 O   0  0  0  0  0  0  0  0  0  0  0  0
   22.1065  -11.2548  -15.3234 C   0  0  0  0  0  0  0  0  0  0  0  0
   22.6646   -9.9000  -15.0285 C   0  0  2  0  0  0  0  0  0  0  0  0
   23.6228   -9.9731  -13.8603 C   0  0  0  0  0  0  0  0  0  0  0  0
   21.5927   -8.8499  -14.8012 C   0  0  2  0  0  0  0  0  0  0  0  0
   20.7569   -8.7807  -15.9534 N   0  0  0  0  0  0  0  0  0  0  0  0
   22.1185   -7.5645  -14.3450 C   0  0  0  0  0  0  0  0  0  0  0  0
   22.1424   -6.4954  -15.2297 O   0  0  0  0  0  0  0  0  0  0  0  0
   22.5649   -7.3390  -13.1810 O   0  0  0  0  0  0  0  0  0  0  0  0
  2  7  1  0
  2  1  1  6
  3  2  1  0
  4  5  1  0
  4  3  1  0
  5  6  2  0
  7 10  1  0
  8  7  2  0
  9  5  1  0
 10 11  1  0
 11 12  1  1
 12 13  1  0
 13 14  1  0
 14 15  2  0
 14 18  1  0
 16 17  2  0
 16 11  1  0
 20 19  1  1
 20 22  1  0
 21 20  1  0
 22 24  1  0
 22 23  1  6
 23 16  1  0
 24 25  1  0
 26 24  2  0
M  END
$$$$
