EEV.pdb
     RDKit          3D

 26 25  0  0  1  0  0  0  0  0999 V2000
   15.3336  -13.0749  -13.8964 N   0  0  0  0  0  0  0  0  0  0  0  0
   15.0857  -11.6520  -14.0488 C   0  0  1  0  0  0  0  0  0  0  0  0
   13.6332  -11.3953  -13.6892 C   0  0  0  0  0  0  0  0  0  0  0  0
   12.7047  -11.7273  -14.8121 C   0  0  0  0  0  0  0  0  0  0  0  0
   11.3003  -11.3855  -14.5194 C   0  0  0  0  0  0  0  0  0  0  0  0
   10.8484  -10.2737  -14.8724 O   0  0  0  0  0  0  0  0  0  0  0  0
   16.0000  -10.9334  -13.1268 C   0  0  0  0  0  0  0  0  0  0  0  0
   16.4338  -11.5539  -12.1266 O   0  0  0  0  0  0  0  0  0  0  0  0
   10.4793  -12.2734  -13.8627 O   0  0  0  0  0  0  0  0  0  0  0  0
   16.4098   -9.6030  -13.3032 N   0  0  0  0  0  0  0  0  0  0  0  0
   17.3058   -8.9775  -12.3513 C   0  0  1  0  0  0  0  0  0  0  0  0
   18.5741   -8.5265  -12.9539 C   0  0  0  0  0  0  0  0  0  0  0  0
   19.4674   -7.8740  -11.9415 C   0  0  0  0  0  0  0  0  0  0  0  0
   20.7729   -7.4615  -12.5884 C   0  0  0  0  0  0  0  0  0  0  0  0
   21.7614   -8.2116  -12.4736 O   0  0  0  0  0  0  0  0  0  0  0  0
   16.5717   -7.8037  -11.8073 C   0  0  0  0  0  0  0  0  0  0  0  0
   16.0865   -6.8700  -12.4833 O   0  0  0  0  0  0  0  0  0  0  0  0
   20.8733   -6.2834  -13.2907 O   0  0  0  0  0  0  0  0  0  0  0  0
   14.8002   -7.8634   -7.8707 C   0  0  0  0  0  0  0  0  0  0  0  0
   14.4580   -7.0195   -9.0560 C   0  0  2  0  0  0  0  0  0  0  0  0
   13.5061   -7.7615   -9.9678 C   0  0  0  0  0  0  0  0  0  0  0  0
   15.6794   -6.5285   -9.8112 C   0  0  2  0  0  0  0  0  0  0  0  0
   16.3530   -7.6460  -10.3842 N   0  0  0  0  0  0  0  0  0  0  0  0
   16.5301   -5.6319   -9.0307 C   0  0  0  0  0  0  0  0  0  0  0  0
   16.0663   -4.3594   -8.7274 O   0  0  0  0  0  0  0  0  0  0  0  0
   17.6835   -5.9263   -8.5972 O   0  0  0  0  0  0  0  0  0  0  0  0
  2  7  1  0
  2  1  1  1
  3  2  1  0
  4  5  1  0
  4  3  1  0
  5  6  2  0
  7 10  1  0
  8  7  2  0
  9  5  1  0
 10 11  1  0
 11 12  1  6
 12 13  1  0
 13 14  1  0
 14 15  2  0
 14 18  1  0
 16 17  2  0
 16 11  1  0
 20 19  1  1
 20 22  1  0
 21 20  1  0
 22 24  1  0
 22 23  1  1
 23 16  1  0
 24 25  1  0
 26 24  2  0
M  END
$$$$
