EEV.pdb
     RDKit          3D

 26 25  0  0  1  0  0  0  0  0999 V2000
   16.2607  -13.6128  -13.8150 N   0  0  0  0  0  0  0  0  0  0  0  0
   15.3171  -12.5102  -13.8707 C   0  0  1  0  0  0  0  0  0  0  0  0
   14.0766  -12.9249  -13.0998 C   0  0  0  0  0  0  0  0  0  0  0  0
   13.2540  -13.9248  -13.8462 C   0  0  0  0  0  0  0  0  0  0  0  0
   12.0691  -14.3746  -13.0924 C   0  0  0  0  0  0  0  0  0  0  0  0
   11.9548  -15.5813  -12.7831 O   0  0  0  0  0  0  0  0  0  0  0  0
   15.9648  -11.3298  -13.2467 C   0  0  0  0  0  0  0  0  0  0  0  0
   16.6387  -11.5112  -12.2042 O   0  0  0  0  0  0  0  0  0  0  0  0
   11.0863  -13.4845  -12.7242 O   0  0  0  0  0  0  0  0  0  0  0  0
   15.8707  -10.0230  -13.7491 N   0  0  0  0  0  0  0  0  0  0  0  0
   16.6423   -8.9498  -13.1548 C   0  0  1  0  0  0  0  0  0  0  0  0
   17.4133   -8.1706  -14.1415 C   0  0  0  0  0  0  0  0  0  0  0  0
   18.2804   -7.1417  -13.4796 C   0  0  0  0  0  0  0  0  0  0  0  0
   19.5892   -7.7664  -13.0438 C   0  0  0  0  0  0  0  0  0  0  0  0
   20.1847   -8.5225  -13.8355 O   0  0  0  0  0  0  0  0  0  0  0  0
   15.6576   -8.0603  -12.4826 C   0  0  0  0  0  0  0  0  0  0  0  0
   14.5929   -7.6394  -12.9861 O   0  0  0  0  0  0  0  0  0  0  0  0
   20.1166   -7.5089  -11.8001 O   0  0  0  0  0  0  0  0  0  0  0  0
   15.9400   -7.3081   -8.1867 C   0  0  0  0  0  0  0  0  0  0  0  0
   14.7146   -7.3383   -9.0419 C   0  0  2  0  0  0  0  0  0  0  0  0
   14.1588   -8.7435   -9.1084 C   0  0  0  0  0  0  0  0  0  0  0  0
   14.9411   -6.7656  -10.4291 C   0  0  2  0  0  0  0  0  0  0  0  0
   15.8681   -7.5918  -11.1283 N   0  0  0  0  0  0  0  0  0  0  0  0
   15.2662   -5.3404  -10.4291 C   0  0  0  0  0  0  0  0  0  0  0  0
   16.5294   -4.9387  -10.8405 O   0  0  0  0  0  0  0  0  0  0  0  0
   14.4719   -4.4186  -10.0767 O   0  0  0  0  0  0  0  0  0  0  0  0
  2  7  1  0
  2  1  1  1
  3  2  1  0
  4  5  1  0
  4  3  1  0
  5  6  2  0
  7 10  1  0
  8  7  2  0
  9  5  1  0
 10 11  1  0
 11 12  1  6
 12 13  1  0
 13 14  1  0
 14 15  2  0
 14 18  1  0
 16 17  2  0
 16 11  1  0
 20 19  1  1
 20 22  1  0
 21 20  1  0
 22 24  1  0
 22 23  1  1
 23 16  1  0
 24 25  1  0
 26 24  2  0
M  END
$$$$
