EEV.pdb
     RDKit          3D

 26 25  0  0  1  0  0  0  0  0999 V2000
   18.3681  -12.2711  -17.6540 N   0  0  0  0  0  0  0  0  0  0  0  0
   17.7746  -10.9634  -17.4375 C   0  0  1  0  0  0  0  0  0  0  0  0
   16.9586  -11.0328  -16.1591 C   0  0  0  0  0  0  0  0  0  0  0  0
   15.7196  -11.8524  -16.3220 C   0  0  0  0  0  0  0  0  0  0  0  0
   14.8544  -11.8333  -15.1279 C   0  0  0  0  0  0  0  0  0  0  0  0
   14.1093  -10.8501  -14.9203 O   0  0  0  0  0  0  0  0  0  0  0  0
   18.8800   -9.9810  -17.3138 C   0  0  0  0  0  0  0  0  0  0  0  0
   20.0024  -10.4019  -16.9441 O   0  0  0  0  0  0  0  0  0  0  0  0
   14.8553  -12.8829  -14.2380 O   0  0  0  0  0  0  0  0  0  0  0  0
   18.7487   -8.6103  -17.5840 N   0  0  0  0  0  0  0  0  0  0  0  0
   19.9008   -7.7339  -17.5148 C   0  0  1  0  0  0  0  0  0  0  0  0
   19.7217   -6.4755  -18.2627 C   0  0  0  0  0  0  0  0  0  0  0  0
   20.9535   -5.6217  -18.2138 C   0  0  0  0  0  0  0  0  0  0  0  0
   20.7509   -4.3679  -19.0382 C   0  0  0  0  0  0  0  0  0  0  0  0
   20.8980   -4.4335  -20.2740 O   0  0  0  0  0  0  0  0  0  0  0  0
   20.0974   -7.4283  -16.0724 C   0  0  0  0  0  0  0  0  0  0  0  0
   19.1890   -7.1816  -15.2490 O   0  0  0  0  0  0  0  0  0  0  0  0
   20.4109   -3.1762  -18.4418 O   0  0  0  0  0  0  0  0  0  0  0  0
   21.8085   -9.6772  -13.8333 C   0  0  0  0  0  0  0  0  0  0  0  0
   22.4445   -8.3561  -13.5429 C   0  0  2  0  0  0  0  0  0  0  0  0
   22.6874   -8.2091  -12.0572 C   0  0  0  0  0  0  0  0  0  0  0  0
   21.6580   -7.1814  -14.0949 C   0  0  2  0  0  0  0  0  0  0  0  0
   21.4206   -7.3915  -15.4842 N   0  0  0  0  0  0  0  0  0  0  0  0
   22.2343   -5.8805  -13.7595 C   0  0  0  0  0  0  0  0  0  0  0  0
   22.1020   -5.4001  -12.4641 O   0  0  0  0  0  0  0  0  0  0  0  0
   22.8598   -5.1367  -14.5722 O   0  0  0  0  0  0  0  0  0  0  0  0
  2  7  1  0
  2  1  1  1
  3  2  1  0
  4  5  1  0
  4  3  1  0
  5  6  2  0
  7 10  1  0
  8  7  2  0
  9  5  1  0
 10 11  1  0
 11 12  1  6
 12 13  1  0
 13 14  1  0
 14 15  2  0
 14 18  1  0
 16 17  2  0
 16 11  1  0
 20 19  1  1
 20 22  1  0
 21 20  1  0
 22 24  1  0
 22 23  1  6
 23 16  1  0
 24 25  1  0
 26 24  2  0
M  END
$$$$
