EEV.pdb
     RDKit          3D

 26 25  0  0  1  0  0  0  0  0999 V2000
   17.9449  -13.9722  -18.8359 N   0  0  0  0  0  0  0  0  0  0  0  0
   17.3610  -13.2440  -17.7232 C   0  0  1  0  0  0  0  0  0  0  0  0
   17.5501  -14.0831  -16.4722 C   0  0  0  0  0  0  0  0  0  0  0  0
   16.6134  -15.2465  -16.4238 C   0  0  0  0  0  0  0  0  0  0  0  0
   15.9338  -15.3860  -15.1224 C   0  0  0  0  0  0  0  0  0  0  0  0
   14.9753  -14.6328  -14.8420 O   0  0  0  0  0  0  0  0  0  0  0  0
   18.0726  -11.9466  -17.6097 C   0  0  0  0  0  0  0  0  0  0  0  0
   19.2793  -11.9059  -17.9501 O   0  0  0  0  0  0  0  0  0  0  0  0
   16.3399  -16.3340  -14.2115 O   0  0  0  0  0  0  0  0  0  0  0  0
   17.4807  -10.7622  -17.1451 N   0  0  0  0  0  0  0  0  0  0  0  0
   18.2406   -9.5290  -17.1008 C   0  0  1  0  0  0  0  0  0  0  0  0
   17.3930   -8.3243  -17.0283 C   0  0  0  0  0  0  0  0  0  0  0  0
   18.2142   -7.0699  -17.0016 C   0  0  0  0  0  0  0  0  0  0  0  0
   17.3097   -5.8566  -16.9509 C   0  0  0  0  0  0  0  0  0  0  0  0
   16.4296   -5.7289  -17.8239 O   0  0  0  0  0  0  0  0  0  0  0  0
   19.0870   -9.6126  -15.8805 C   0  0  0  0  0  0  0  0  0  0  0  0
   18.7178  -10.0412  -14.7651 O   0  0  0  0  0  0  0  0  0  0  0  0
   17.4505   -4.9098  -15.9634 O   0  0  0  0  0  0  0  0  0  0  0  0
   22.1960  -11.4549  -15.4283 C   0  0  0  0  0  0  0  0  0  0  0  0
   22.5340  -10.0524  -15.0375 C   0  0  2  0  0  0  0  0  0  0  0  0
   23.4998  -10.0532  -13.8733 C   0  0  0  0  0  0  0  0  0  0  0  0
   21.3106   -9.2043  -14.7421 C   0  0  2  0  0  0  0  0  0  0  0  0
   20.4701   -9.1826  -15.8928 N   0  0  0  0  0  0  0  0  0  0  0  0
   21.6284   -7.8894  -14.1881 C   0  0  0  0  0  0  0  0  0  0  0  0
   21.7811   -7.7572  -12.8150 O   0  0  0  0  0  0  0  0  0  0  0  0
   21.7801   -6.8346  -14.8732 O   0  0  0  0  0  0  0  0  0  0  0  0
  2  7  1  0
  2  1  1  6
  3  2  1  0
  4  5  1  0
  4  3  1  0
  5  6  2  0
  7 10  1  0
  8  7  2  0
  9  5  1  0
 10 11  1  0
 11 12  1  1
 12 13  1  0
 13 14  1  0
 14 15  2  0
 14 18  1  0
 16 17  2  0
 16 11  1  0
 20 19  1  1
 20 22  1  0
 21 20  1  0
 22 24  1  0
 22 23  1  6
 23 16  1  0
 24 25  1  0
 26 24  2  0
M  END
$$$$
