PQP.pdb
     RDKit          3D

 24 25  0  0  1  0  0  0  0  0999 V2000
    8.9173  -14.7633   19.8959 N   0  0  0  0  0  0  0  0  0  0  0  0
    8.3986  -14.8476   18.5474 C   0  0  0  0  0  0  0  0  0  0  0  0
    7.9957  -13.4191   18.1937 C   0  0  0  0  0  0  0  0  0  0  0  0
    7.4156  -12.9515   19.5132 C   0  0  0  0  0  0  0  0  0  0  0  0
    8.3712  -13.5807   20.5034 C   0  0  1  0  0  0  0  0  0  0  0  0
    7.7313  -13.9275   21.7737 C   0  0  0  0  0  0  0  0  0  0  0  0
    7.1627  -12.9951   22.4301 O   0  0  0  0  0  0  0  0  0  0  0  0
    7.1307  -19.6999   24.7810 N   0  0  0  0  0  0  0  0  0  0  0  0
    6.5709  -18.7140   25.6312 C   0  0  0  0  0  0  0  0  0  0  0  0
    6.0769  -19.0880   26.7198 O   0  0  0  0  0  0  0  0  0  0  0  0
    6.5461  -17.2770   25.2925 C   0  0  0  0  0  0  0  0  0  0  0  0
    7.1313  -16.9406   23.9641 C   0  0  0  0  0  0  0  0  0  0  0  0
    7.1608  -15.4582   23.6524 C   0  0  2  0  0  0  0  0  0  0  0  0
    7.6977  -15.2236   22.3273 N   0  0  0  0  0  0  0  0  0  0  0  0
    8.0209  -14.7807   24.6838 C   0  0  0  0  0  0  0  0  0  0  0  0
    9.2852  -14.8745   24.5082 O   0  0  0  0  0  0  0  0  0  0  0  0
    7.4836  -14.0789   25.7828 N   0  0  0  0  0  0  0  0  0  0  0  0
    6.1175  -14.0264   26.2669 C   0  0  0  0  0  0  0  0  0  0  0  0
    6.0009  -12.5913   26.7671 C   0  0  0  0  0  0  0  0  0  0  0  0
    7.3562  -12.2875   27.3119 C   0  0  0  0  0  0  0  0  0  0  0  0
    8.3014  -13.2240   26.6483 C   0  0  1  0  0  0  0  0  0  0  0  0
    8.9516  -14.1045   27.6321 C   0  0  0  0  0  0  0  0  0  0  0  0
    9.9817  -13.6798   28.4578 O   0  0  0  0  0  0  0  0  0  0  0  0
    8.5500  -15.3012   27.7251 O   0  0  0  0  0  0  0  0  0  0  0  0
  1  5  1  0
  2  1  1  0
  3  2  1  0
  3  4  1  0
  4  5  1  0
  6  7  2  0
  5  6  1  1
  8  9  1  0
  9 11  1  0
 10  9  2  0
 11 12  1  0
 13 12  1  1
 13 14  1  0
 13 15  1  0
 14  6  1  0
 15 16  2  0
 17 15  1  0
 17 21  1  0
 18 17  1  0
 18 19  1  0
 19 20  1  0
 21 20  1  0
 22 23  1  0
 21 22  1  1
 24 22  2  0
M  END
$$$$
