PQP.pdb
     RDKit          3D

 24 25  0  0  1  0  0  0  0  0999 V2000
    8.8429  -15.0853   19.9494 N   0  0  0  0  0  0  0  0  0  0  0  0
    8.2258  -15.1603   18.6425 C   0  0  0  0  0  0  0  0  0  0  0  0
    7.9652  -13.7091   18.2497 C   0  0  0  0  0  0  0  0  0  0  0  0
    7.5353  -13.1262   19.5806 C   0  0  0  0  0  0  0  0  0  0  0  0
    8.4790  -13.8243   20.5354 C   0  0  1  0  0  0  0  0  0  0  0  0
    7.8933  -14.0445   21.8589 C   0  0  0  0  0  0  0  0  0  0  0  0
    7.3580  -13.0496   22.4480 O   0  0  0  0  0  0  0  0  0  0  0  0
    6.9223  -19.6945   24.7361 N   0  0  0  0  0  0  0  0  0  0  0  0
    6.0418  -19.0615   23.8238 C   0  0  0  0  0  0  0  0  0  0  0  0
    5.1796  -19.7680   23.2524 O   0  0  0  0  0  0  0  0  0  0  0  0
    6.0958  -17.6174   23.5212 C   0  0  0  0  0  0  0  0  0  0  0  0
    7.1647  -16.8701   24.2417 C   0  0  0  0  0  0  0  0  0  0  0  0
    7.2813  -15.4118   23.8473 C   0  0  2  0  0  0  0  0  0  0  0  0
    7.8779  -15.2823   22.5334 N   0  0  0  0  0  0  0  0  0  0  0  0
    8.1363  -14.7175   24.8717 C   0  0  0  0  0  0  0  0  0  0  0  0
    9.4011  -14.8571   24.7334 O   0  0  0  0  0  0  0  0  0  0  0  0
    7.5941  -13.9534   25.9259 N   0  0  0  0  0  0  0  0  0  0  0  0
    6.2073  -13.7294   26.2861 C   0  0  0  0  0  0  0  0  0  0  0  0
    6.2267  -12.2910   26.7899 C   0  0  0  0  0  0  0  0  0  0  0  0
    7.5546  -12.1599   27.4573 C   0  0  0  0  0  0  0  0  0  0  0  0
    8.4311  -13.2080   26.8707 C   0  0  1  0  0  0  0  0  0  0  0  0
    8.8743  -14.1631   27.8989 C   0  0  0  0  0  0  0  0  0  0  0  0
    9.8912  -13.8823   28.7992 O   0  0  0  0  0  0  0  0  0  0  0  0
    8.2997  -15.2892   27.9605 O   0  0  0  0  0  0  0  0  0  0  0  0
  1  5  1  0
  2  1  1  0
  3  2  1  0
  3  4  1  0
  4  5  1  0
  6  7  2  0
  5  6  1  1
  8  9  1  0
  9 11  1  0
 10  9  2  0
 11 12  1  0
 13 12  1  1
 13 14  1  0
 13 15  1  0
 14  6  1  0
 15 16  2  0
 17 15  1  0
 17 21  1  0
 18 17  1  0
 18 19  1  0
 19 20  1  0
 21 20  1  0
 22 23  1  0
 21 22  1  1
 24 22  2  0
M  END
$$$$
