PQP.pdb
     RDKit          3D

 24 25  0  0  1  0  0  0  0  0999 V2000
    8.9275  -14.8474   19.8428 N   0  0  0  0  0  0  0  0  0  0  0  0
    8.3464  -14.9081   18.5188 C   0  0  0  0  0  0  0  0  0  0  0  0
    7.9772  -13.4651   18.1876 C   0  0  0  0  0  0  0  0  0  0  0  0
    7.4732  -12.9838   19.5331 C   0  0  0  0  0  0  0  0  0  0  0  0
    8.4500  -13.6495   20.4776 C   0  0  1  0  0  0  0  0  0  0  0  0
    7.8561  -13.9798   21.7744 C   0  0  0  0  0  0  0  0  0  0  0  0
    7.2585  -13.0520   22.4112 O   0  0  0  0  0  0  0  0  0  0  0  0
    7.9628  -19.4660   25.9013 N   0  0  0  0  0  0  0  0  0  0  0  0
    6.7690  -18.7334   25.6853 C   0  0  0  0  0  0  0  0  0  0  0  0
    5.6790  -19.3424   25.7859 O   0  0  0  0  0  0  0  0  0  0  0  0
    6.7550  -17.2954   25.3508 C   0  0  0  0  0  0  0  0  0  0  0  0
    7.2546  -16.9691   23.9855 C   0  0  0  0  0  0  0  0  0  0  0  0
    7.3214  -15.4860   23.6831 C   0  0  2  0  0  0  0  0  0  0  0  0
    7.8969  -15.2552   22.3737 N   0  0  0  0  0  0  0  0  0  0  0  0
    8.1678  -14.8312   24.7402 C   0  0  0  0  0  0  0  0  0  0  0  0
    9.4274  -15.0444   24.6611 O   0  0  0  0  0  0  0  0  0  0  0  0
    7.6234  -14.0265   25.7626 N   0  0  0  0  0  0  0  0  0  0  0  0
    6.2357  -13.7827   26.1061 C   0  0  0  0  0  0  0  0  0  0  0  0
    6.2596  -12.3269   26.5571 C   0  0  0  0  0  0  0  0  0  0  0  0
    7.5842  -12.1781   27.2272 C   0  0  0  0  0  0  0  0  0  0  0  0
    8.4587  -13.2512   26.6845 C   0  0  1  0  0  0  0  0  0  0  0  0
    8.8911  -14.1702   27.7496 C   0  0  0  0  0  0  0  0  0  0  0  0
    9.9177  -13.8701   28.6323 O   0  0  0  0  0  0  0  0  0  0  0  0
    8.2973  -15.2825   27.8609 O   0  0  0  0  0  0  0  0  0  0  0  0
  1  5  1  0
  2  1  1  0
  3  2  1  0
  3  4  1  0
  4  5  1  0
  6  7  2  0
  5  6  1  1
  8  9  1  0
  9 11  1  0
 10  9  2  0
 11 12  1  0
 13 12  1  1
 13 14  1  0
 13 15  1  0
 14  6  1  0
 15 16  2  0
 17 15  1  0
 17 21  1  0
 18 17  1  0
 18 19  1  0
 19 20  1  0
 21 20  1  0
 22 23  1  0
 21 22  1  1
 24 22  2  0
M  END
$$$$
