PQP.pdb
     RDKit          3D

 24 25  0  0  1  0  0  0  0  0999 V2000
    8.2758  -15.0963   19.4983 N   0  0  0  0  0  0  0  0  0  0  0  0
    7.7193  -14.5947   18.2600 C   0  0  0  0  0  0  0  0  0  0  0  0
    7.9556  -13.0881   18.3074 C   0  0  0  0  0  0  0  0  0  0  0  0
    7.6843  -12.8028   19.7706 C   0  0  0  0  0  0  0  0  0  0  0  0
    8.3146  -14.0071   20.4353 C   0  0  1  0  0  0  0  0  0  0  0  0
    7.6376  -14.3958   21.6739 C   0  0  0  0  0  0  0  0  0  0  0  0
    6.5407  -13.8152   21.9623 O   0  0  0  0  0  0  0  0  0  0  0  0
    7.3355  -19.7506   25.1409 N   0  0  0  0  0  0  0  0  0  0  0  0
    6.8131  -18.7196   25.9609 C   0  0  0  0  0  0  0  0  0  0  0  0
    6.2985  -19.0432   27.0561 O   0  0  0  0  0  0  0  0  0  0  0  0
    6.8500  -17.2926   25.5836 C   0  0  0  0  0  0  0  0  0  0  0  0
    7.4729  -17.0150   24.2588 C   0  0  0  0  0  0  0  0  0  0  0  0
    7.4981  -15.5493   23.8756 C   0  0  2  0  0  0  0  0  0  0  0  0
    8.1122  -15.3698   22.5758 N   0  0  0  0  0  0  0  0  0  0  0  0
    8.2818  -14.8060   24.9225 C   0  0  0  0  0  0  0  0  0  0  0  0
    9.5559  -14.8908   24.8339 O   0  0  0  0  0  0  0  0  0  0  0  0
    7.6664  -14.0548   25.9453 N   0  0  0  0  0  0  0  0  0  0  0  0
    6.2597  -13.9109   26.2670 C   0  0  0  0  0  0  0  0  0  0  0  0
    6.1764  -12.4635   26.7373 C   0  0  0  0  0  0  0  0  0  0  0  0
    7.4763  -12.2344   27.4330 C   0  0  0  0  0  0  0  0  0  0  0  0
    8.4311  -13.2377   26.8921 C   0  0  1  0  0  0  0  0  0  0  0  0
    8.9070  -14.1403   27.9526 C   0  0  0  0  0  0  0  0  0  0  0  0
    9.8944  -13.7830   28.8586 O   0  0  0  0  0  0  0  0  0  0  0  0
    8.3899  -15.2924   28.0378 O   0  0  0  0  0  0  0  0  0  0  0  0
  1  5  1  0
  2  1  1  0
  3  2  1  0
  3  4  1  0
  4  5  1  0
  6  7  2  0
  5  6  1  1
  8  9  1  0
  9 11  1  0
 10  9  2  0
 11 12  1  0
 13 12  1  1
 13 14  1  0
 13 15  1  0
 14  6  1  0
 15 16  2  0
 17 15  1  0
 17 21  1  0
 18 17  1  0
 18 19  1  0
 19 20  1  0
 21 20  1  0
 22 23  1  0
 21 22  1  1
 24 22  2  0
M  END
$$$$
