PQP.pdb
     RDKit          3D

 24 25  0  0  1  0  0  0  0  0999 V2000
    8.9461  -15.2226   20.0384 N   0  0  0  0  0  0  0  0  0  0  0  0
    8.3844  -15.3782   18.7137 C   0  0  0  0  0  0  0  0  0  0  0  0
    8.1006  -13.9558   18.2402 C   0  0  0  0  0  0  0  0  0  0  0  0
    7.6017  -13.3224   19.5231 C   0  0  0  0  0  0  0  0  0  0  0  0
    8.5248  -13.9460   20.5470 C   0  0  1  0  0  0  0  0  0  0  0  0
    7.8924  -14.1193   21.8560 C   0  0  0  0  0  0  0  0  0  0  0  0
    7.2467  -13.1344   22.3423 O   0  0  0  0  0  0  0  0  0  0  0  0
    5.4264  -19.9812   22.9581 N   0  0  0  0  0  0  0  0  0  0  0  0
    6.0333  -19.0215   23.8061 C   0  0  0  0  0  0  0  0  0  0  0  0
    6.4259  -19.3983   24.9343 O   0  0  0  0  0  0  0  0  0  0  0  0
    6.2219  -17.6090   23.4198 C   0  0  0  0  0  0  0  0  0  0  0  0
    7.1066  -16.8278   24.3294 C   0  0  0  0  0  0  0  0  0  0  0  0
    7.3041  -15.3828   23.9189 C   0  0  2  0  0  0  0  0  0  0  0  0
    7.9455  -15.3014   22.6223 N   0  0  0  0  0  0  0  0  0  0  0  0
    8.1600  -14.7141   24.9595 C   0  0  0  0  0  0  0  0  0  0  0  0
    9.4218  -14.8993   24.8507 O   0  0  0  0  0  0  0  0  0  0  0  0
    7.6216  -13.9258   25.9978 N   0  0  0  0  0  0  0  0  0  0  0  0
    6.2357  -13.6702   26.3399 C   0  0  0  0  0  0  0  0  0  0  0  0
    6.2779  -12.2259   26.8252 C   0  0  0  0  0  0  0  0  0  0  0  0
    7.6009  -12.1120   27.5053 C   0  0  0  0  0  0  0  0  0  0  0  0
    8.4629  -13.1845   26.9419 C   0  0  1  0  0  0  0  0  0  0  0  0
    8.8764  -14.1344   27.9872 C   0  0  0  0  0  0  0  0  0  0  0  0
    8.3338  -15.4050   28.1074 O   0  0  0  0  0  0  0  0  0  0  0  0
    9.7665  -13.7714   28.8108 O   0  0  0  0  0  0  0  0  0  0  0  0
  1  5  1  0
  2  1  1  0
  3  2  1  0
  3  4  1  0
  4  5  1  0
  6  7  2  0
  5  6  1  1
  8  9  1  0
  9 11  1  0
 10  9  2  0
 11 12  1  0
 13 12  1  1
 13 14  1  0
 13 15  1  0
 14  6  1  0
 15 16  2  0
 17 15  1  0
 17 21  1  0
 18 17  1  0
 18 19  1  0
 19 20  1  0
 21 20  1  0
 22 23  1  0
 21 22  1  1
 24 22  2  0
M  END
$$$$
