PQP.pdb
     RDKit          3D

 24 25  0  0  1  0  0  0  0  0999 V2000
    8.9507  -14.9358   19.7490 N   0  0  0  0  0  0  0  0  0  0  0  0
    8.3587  -14.9804   18.4291 C   0  0  0  0  0  0  0  0  0  0  0  0
    8.0789  -13.5223   18.0770 C   0  0  0  0  0  0  0  0  0  0  0  0
    7.6144  -12.9894   19.4173 C   0  0  0  0  0  0  0  0  0  0  0  0
    8.5533  -13.7006   20.3672 C   0  0  1  0  0  0  0  0  0  0  0  0
    7.9479  -13.9727   21.6721 C   0  0  0  0  0  0  0  0  0  0  0  0
    7.5209  -12.9823   22.3505 O   0  0  0  0  0  0  0  0  0  0  0  0
    7.8017  -19.2532   25.3111 N   0  0  0  0  0  0  0  0  0  0  0  0
    6.7853  -18.4116   25.8276 C   0  0  0  0  0  0  0  0  0  0  0  0
    6.2507  -18.7336   26.9137 O   0  0  0  0  0  0  0  0  0  0  0  0
    6.3339  -17.1815   25.1470 C   0  0  0  0  0  0  0  0  0  0  0  0
    7.0073  -16.9069   23.8465 C   0  0  0  0  0  0  0  0  0  0  0  0
    7.2066  -15.4354   23.5452 C   0  0  2  0  0  0  0  0  0  0  0  0
    7.8018  -15.2562   22.2365 N   0  0  0  0  0  0  0  0  0  0  0  0
    8.1070  -14.8594   24.6036 C   0  0  0  0  0  0  0  0  0  0  0  0
    9.3449  -15.1730   24.5175 O   0  0  0  0  0  0  0  0  0  0  0  0
    7.6331  -14.0213   25.6342 N   0  0  0  0  0  0  0  0  0  0  0  0
    6.2736  -13.6345   25.9586 C   0  0  0  0  0  0  0  0  0  0  0  0
    6.4468  -12.1996   26.4429 C   0  0  0  0  0  0  0  0  0  0  0  0
    7.7661  -12.2104   27.1396 C   0  0  0  0  0  0  0  0  0  0  0  0
    8.5292  -13.3612   26.5881 C   0  0  1  0  0  0  0  0  0  0  0  0
    8.8375  -14.3438   27.6394 C   0  0  0  0  0  0  0  0  0  0  0  0
    9.8366  -14.1502   28.5816 O   0  0  0  0  0  0  0  0  0  0  0  0
    8.1587  -15.4113   27.6817 O   0  0  0  0  0  0  0  0  0  0  0  0
  1  5  1  0
  2  1  1  0
  3  2  1  0
  3  4  1  0
  4  5  1  0
  6  7  2  0
  5  6  1  1
  8  9  1  0
  9 11  1  0
 10  9  2  0
 11 12  1  0
 13 12  1  1
 13 14  1  0
 13 15  1  0
 14  6  1  0
 15 16  2  0
 17 15  1  0
 17 21  1  0
 18 17  1  0
 18 19  1  0
 19 20  1  0
 21 20  1  0
 22 23  1  0
 21 22  1  1
 24 22  2  0
M  END
$$$$
