PQP.pdb
     RDKit          3D

 24 25  0  0  1  0  0  0  0  0999 V2000
    8.9893  -14.9788   19.8988 N   0  0  0  0  0  0  0  0  0  0  0  0
    8.4208  -15.0954   18.5729 C   0  0  0  0  0  0  0  0  0  0  0  0
    8.0317  -13.6711   18.1880 C   0  0  0  0  0  0  0  0  0  0  0  0
    7.5083  -13.1510   19.5115 C   0  0  0  0  0  0  0  0  0  0  0  0
    8.4872  -13.7672   20.4869 C   0  0  1  0  0  0  0  0  0  0  0  0
    7.8873  -14.0613   21.7896 C   0  0  0  0  0  0  0  0  0  0  0  0
    7.3112  -13.1093   22.4103 O   0  0  0  0  0  0  0  0  0  0  0  0
    6.9350  -19.7565   24.8187 N   0  0  0  0  0  0  0  0  0  0  0  0
    6.6585  -18.7308   25.7567 C   0  0  0  0  0  0  0  0  0  0  0  0
    6.3275  -19.0684   26.9167 O   0  0  0  0  0  0  0  0  0  0  0  0
    6.7441  -17.2938   25.4287 C   0  0  0  0  0  0  0  0  0  0  0  0
    7.1837  -16.9984   24.0359 C   0  0  0  0  0  0  0  0  0  0  0  0
    7.3183  -15.5219   23.7237 C   0  0  2  0  0  0  0  0  0  0  0  0
    7.9002  -15.3265   22.4113 N   0  0  0  0  0  0  0  0  0  0  0  0
    8.1973  -14.9003   24.7743 C   0  0  0  0  0  0  0  0  0  0  0  0
    9.4448  -15.1757   24.6958 O   0  0  0  0  0  0  0  0  0  0  0  0
    7.6943  -14.0611   25.7901 N   0  0  0  0  0  0  0  0  0  0  0  0
    6.3295  -13.6498   26.0571 C   0  0  0  0  0  0  0  0  0  0  0  0
    6.5089  -12.2226   26.5613 C   0  0  0  0  0  0  0  0  0  0  0  0
    7.7954  -12.2652   27.3158 C   0  0  0  0  0  0  0  0  0  0  0  0
    8.5597  -13.4266   26.7887 C   0  0  1  0  0  0  0  0  0  0  0  0
    8.8015  -14.4234   27.8441 C   0  0  0  0  0  0  0  0  0  0  0  0
    8.1223  -15.6308   27.9094 O   0  0  0  0  0  0  0  0  0  0  0  0
    9.6680  -14.1631   28.7292 O   0  0  0  0  0  0  0  0  0  0  0  0
  1  5  1  0
  2  1  1  0
  3  2  1  0
  3  4  1  0
  4  5  1  0
  6  7  2  0
  5  6  1  1
  8  9  1  0
  9 11  1  0
 10  9  2  0
 11 12  1  0
 13 12  1  1
 13 14  1  0
 13 15  1  0
 14  6  1  0
 15 16  2  0
 17 15  1  0
 17 21  1  0
 18 17  1  0
 18 19  1  0
 19 20  1  0
 21 20  1  0
 22 23  1  0
 21 22  1  1
 24 22  2  0
M  END
$$$$
