PQP.pdb
     RDKit          3D

 24 25  0  0  1  0  0  0  0  0999 V2000
    9.1517  -14.7266   19.7656 N   0  0  0  0  0  0  0  0  0  0  0  0
    8.6768  -14.8361   18.4029 C   0  0  0  0  0  0  0  0  0  0  0  0
    8.2394  -13.4235   18.0269 C   0  0  0  0  0  0  0  0  0  0  0  0
    7.6052  -12.9664   19.3250 C   0  0  0  0  0  0  0  0  0  0  0  0
    8.5501  -13.5583   20.3479 C   0  0  1  0  0  0  0  0  0  0  0  0
    7.8836  -13.9174   21.6010 C   0  0  0  0  0  0  0  0  0  0  0  0
    7.1853  -13.0247   22.1831 O   0  0  0  0  0  0  0  0  0  0  0  0
    7.6636  -19.5101   25.7571 N   0  0  0  0  0  0  0  0  0  0  0  0
    6.5549  -18.7233   25.3571 C   0  0  0  0  0  0  0  0  0  0  0  0
    5.4459  -19.2916   25.2296 O   0  0  0  0  0  0  0  0  0  0  0  0
    6.6496  -17.2747   25.0875 C   0  0  0  0  0  0  0  0  0  0  0  0
    7.2502  -16.9249   23.7695 C   0  0  0  0  0  0  0  0  0  0  0  0
    7.3200  -15.4373   23.4905 C   0  0  2  0  0  0  0  0  0  0  0  0
    7.9579  -15.1845   22.2144 N   0  0  0  0  0  0  0  0  0  0  0  0
    8.1077  -14.7907   24.5969 C   0  0  0  0  0  0  0  0  0  0  0  0
    9.3794  -14.9176   24.5275 O   0  0  0  0  0  0  0  0  0  0  0  0
    7.4983  -14.0822   25.6532 N   0  0  0  0  0  0  0  0  0  0  0  0
    6.0926  -13.9402   25.9804 C   0  0  0  0  0  0  0  0  0  0  0  0
    6.0223  -12.5155   26.5175 C   0  0  0  0  0  0  0  0  0  0  0  0
    7.3235  -12.3312   27.2238 C   0  0  0  0  0  0  0  0  0  0  0  0
    8.2695  -13.3172   26.6374 C   0  0  1  0  0  0  0  0  0  0  0  0
    8.7359  -14.2725   27.6552 C   0  0  0  0  0  0  0  0  0  0  0  0
    9.7264  -13.9674   28.5765 O   0  0  0  0  0  0  0  0  0  0  0  0
    8.2071  -15.4221   27.6871 O   0  0  0  0  0  0  0  0  0  0  0  0
  1  5  1  0
  2  1  1  0
  3  2  1  0
  3  4  1  0
  4  5  1  0
  6  7  2  0
  5  6  1  1
  8  9  1  0
  9 11  1  0
 10  9  2  0
 11 12  1  0
 13 12  1  1
 13 14  1  0
 13 15  1  0
 14  6  1  0
 15 16  2  0
 17 15  1  0
 17 21  1  0
 18 17  1  0
 18 19  1  0
 19 20  1  0
 21 20  1  0
 22 23  1  0
 21 22  1  1
 24 22  2  0
M  END
$$$$
