PQP.pdb
     RDKit          3D

 24 25  0  0  1  0  0  0  0  0999 V2000
    8.8311  -15.1214   19.8606 N   0  0  0  0  0  0  0  0  0  0  0  0
    8.3238  -15.2686   18.5132 C   0  0  0  0  0  0  0  0  0  0  0  0
    8.1822  -13.8419   17.9911 C   0  0  0  0  0  0  0  0  0  0  0  0
    7.6754  -13.1335   19.2310 C   0  0  0  0  0  0  0  0  0  0  0  0
    8.4926  -13.8007   20.3157 C   0  0  1  0  0  0  0  0  0  0  0  0
    7.7848  -13.8844   21.5945 C   0  0  0  0  0  0  0  0  0  0  0  0
    7.2802  -12.8149   22.0688 O   0  0  0  0  0  0  0  0  0  0  0  0
    5.6256  -19.1097   24.9166 N   0  0  0  0  0  0  0  0  0  0  0  0
    6.9729  -18.6797   24.8249 C   0  0  0  0  0  0  0  0  0  0  0  0
    7.8432  -19.3370   25.4410 O   0  0  0  0  0  0  0  0  0  0  0  0
    7.3913  -17.5009   24.0404 C   0  0  0  0  0  0  0  0  0  0  0  0
    6.3580  -16.4339   23.9212 C   0  0  0  0  0  0  0  0  0  0  0  0
    6.9134  -15.0593   23.6090 C   0  0  2  0  0  0  0  0  0  0  0  0
    7.6196  -15.0669   22.3439 N   0  0  0  0  0  0  0  0  0  0  0  0
    7.8506  -14.6705   24.7195 C   0  0  0  0  0  0  0  0  0  0  0  0
    9.0648  -15.0535   24.5878 O   0  0  0  0  0  0  0  0  0  0  0  0
    7.4341  -13.9278   25.8437 N   0  0  0  0  0  0  0  0  0  0  0  0
    6.0942  -13.5825   26.2780 C   0  0  0  0  0  0  0  0  0  0  0  0
    6.2893  -12.1926   26.8727 C   0  0  0  0  0  0  0  0  0  0  0  0
    7.6470  -12.2507   27.4885 C   0  0  0  0  0  0  0  0  0  0  0  0
    8.3815  -13.3433   26.7974 C   0  0  1  0  0  0  0  0  0  0  0  0
    8.7546  -14.4091   27.7411 C   0  0  0  0  0  0  0  0  0  0  0  0
    9.8637  -14.3270   28.5697 O   0  0  0  0  0  0  0  0  0  0  0  0
    8.0287  -15.4446   27.7955 O   0  0  0  0  0  0  0  0  0  0  0  0
  1  5  1  0
  2  1  1  0
  3  2  1  0
  3  4  1  0
  4  5  1  0
  6  7  2  0
  5  6  1  1
  8  9  1  0
  9 11  1  0
 10  9  2  0
 11 12  1  0
 13 12  1  1
 13 14  1  0
 13 15  1  0
 14  6  1  0
 15 16  2  0
 17 15  1  0
 17 21  1  0
 18 17  1  0
 18 19  1  0
 19 20  1  0
 21 20  1  0
 22 23  1  0
 21 22  1  1
 24 22  2  0
M  END
$$$$
