PQP.pdb
     RDKit          3D

 24 25  0  0  1  0  0  0  0  0999 V2000
    8.0095  -15.2709   19.5047 N   0  0  0  0  0  0  0  0  0  0  0  0
    7.4435  -14.7420   18.2823 C   0  0  0  0  0  0  0  0  0  0  0  0
    7.7881  -13.2557   18.3033 C   0  0  0  0  0  0  0  0  0  0  0  0
    7.5935  -12.9387   19.7722 C   0  0  0  0  0  0  0  0  0  0  0  0
    8.1613  -14.1790   20.4270 C   0  0  1  0  0  0  0  0  0  0  0  0
    7.5058  -14.5071   21.6943 C   0  0  0  0  0  0  0  0  0  0  0  0
    6.3413  -14.0346   21.9042 O   0  0  0  0  0  0  0  0  0  0  0  0
    6.7590  -19.6509   24.9568 N   0  0  0  0  0  0  0  0  0  0  0  0
    6.0826  -19.0217   23.8821 C   0  0  0  0  0  0  0  0  0  0  0  0
    5.2618  -19.7024   23.2248 O   0  0  0  0  0  0  0  0  0  0  0  0
    6.3011  -17.6103   23.5077 C   0  0  0  0  0  0  0  0  0  0  0  0
    7.2492  -16.8723   24.3890 C   0  0  0  0  0  0  0  0  0  0  0  0
    7.4513  -15.4192   24.0101 C   0  0  2  0  0  0  0  0  0  0  0  0
    8.0710  -15.3112   22.7050 N   0  0  0  0  0  0  0  0  0  0  0  0
    8.3302  -14.7825   25.0516 C   0  0  0  0  0  0  0  0  0  0  0  0
    9.5895  -14.9578   24.9052 O   0  0  0  0  0  0  0  0  0  0  0  0
    7.8147  -14.0331   26.1295 N   0  0  0  0  0  0  0  0  0  0  0  0
    6.4378  -13.8200   26.5316 C   0  0  0  0  0  0  0  0  0  0  0  0
    6.4649  -12.3872   27.0509 C   0  0  0  0  0  0  0  0  0  0  0  0
    7.8107  -12.2572   27.6817 C   0  0  0  0  0  0  0  0  0  0  0  0
    8.6749  -13.2943   27.0585 C   0  0  1  0  0  0  0  0  0  0  0  0
    9.1517  -14.2587   28.0627 C   0  0  0  0  0  0  0  0  0  0  0  0
    8.6549  -15.5496   28.1624 O   0  0  0  0  0  0  0  0  0  0  0  0
   10.0547  -13.8893   28.8691 O   0  0  0  0  0  0  0  0  0  0  0  0
  1  5  1  0
  2  1  1  0
  3  2  1  0
  3  4  1  0
  4  5  1  0
  6  7  2  0
  5  6  1  1
  8  9  1  0
  9 11  1  0
 10  9  2  0
 11 12  1  0
 13 12  1  1
 13 14  1  0
 13 15  1  0
 14  6  1  0
 15 16  2  0
 17 15  1  0
 17 21  1  0
 18 17  1  0
 18 19  1  0
 19 20  1  0
 21 20  1  0
 22 23  1  0
 21 22  1  1
 24 22  2  0
M  END
$$$$
