PQP.pdb
     RDKit          3D

 24 25  0  0  1  0  0  0  0  0999 V2000
    8.8382  -14.8314   19.8207 N   0  0  0  0  0  0  0  0  0  0  0  0
    8.1979  -14.9568   18.5289 C   0  0  0  0  0  0  0  0  0  0  0  0
    7.7728  -13.5375   18.1641 C   0  0  0  0  0  0  0  0  0  0  0  0
    7.3186  -13.0201   19.5139 C   0  0  0  0  0  0  0  0  0  0  0  0
    8.3570  -13.6239   20.4341 C   0  0  1  0  0  0  0  0  0  0  0  0
    7.8339  -13.9214   21.7687 C   0  0  0  0  0  0  0  0  0  0  0  0
    7.2809  -12.9749   22.4181 O   0  0  0  0  0  0  0  0  0  0  0  0
    7.3976  -19.6109   24.9354 N   0  0  0  0  0  0  0  0  0  0  0  0
    6.8469  -18.6141   25.7788 C   0  0  0  0  0  0  0  0  0  0  0  0
    6.4041  -18.9679   26.8958 O   0  0  0  0  0  0  0  0  0  0  0  0
    6.7742  -17.1885   25.4012 C   0  0  0  0  0  0  0  0  0  0  0  0
    7.2937  -16.8781   24.0396 C   0  0  0  0  0  0  0  0  0  0  0  0
    7.3272  -15.4005   23.7061 C   0  0  2  0  0  0  0  0  0  0  0  0
    7.8974  -15.1844   22.3918 N   0  0  0  0  0  0  0  0  0  0  0  0
    8.1586  -14.7047   24.7488 C   0  0  0  0  0  0  0  0  0  0  0  0
    9.4267  -14.8330   24.6315 O   0  0  0  0  0  0  0  0  0  0  0  0
    7.5920  -13.9512   25.7977 N   0  0  0  0  0  0  0  0  0  0  0  0
    6.1973  -13.7047   26.1093 C   0  0  0  0  0  0  0  0  0  0  0  0
    6.2271  -12.2778   26.6443 C   0  0  0  0  0  0  0  0  0  0  0  0
    7.5306  -12.1895   27.3648 C   0  0  0  0  0  0  0  0  0  0  0  0
    8.4071  -13.2439   26.7897 C   0  0  1  0  0  0  0  0  0  0  0  0
    8.7901  -14.2295   27.8133 C   0  0  0  0  0  0  0  0  0  0  0  0
    9.7784  -13.9904   28.7564 O   0  0  0  0  0  0  0  0  0  0  0  0
    8.1887  -15.3431   27.8299 O   0  0  0  0  0  0  0  0  0  0  0  0
  1  5  1  0
  2  1  1  0
  3  2  1  0
  3  4  1  0
  4  5  1  0
  6  7  2  0
  5  6  1  1
  8  9  1  0
  9 11  1  0
 10  9  2  0
 11 12  1  0
 13 12  1  1
 13 14  1  0
 13 15  1  0
 14  6  1  0
 15 16  2  0
 17 15  1  0
 17 21  1  0
 18 17  1  0
 18 19  1  0
 19 20  1  0
 21 20  1  0
 22 23  1  0
 21 22  1  1
 24 22  2  0
M  END
$$$$
