QTE.pdb
     RDKit          3D

 26 25  0  0  1  0  0  0  0  0999 V2000
   19.3820  -17.8864  -17.0399 N   0  0  0  0  0  0  0  0  0  0  0  0
   19.7378  -19.2731  -16.8237 C   0  0  0  0  0  0  0  0  0  0  0  0
   19.0713  -20.0968  -17.4941 O   0  0  0  0  0  0  0  0  0  0  0  0
   20.8034  -19.6369  -15.8756 C   0  0  0  0  0  0  0  0  0  0  0  0
   21.5106  -18.5098  -15.2009 C   0  0  0  0  0  0  0  0  0  0  0  0
   22.8481  -18.2698  -15.7936 C   0  0  2  0  0  0  0  0  0  0  0  0
   23.7125  -19.4144  -15.7360 N   0  0  0  0  0  0  0  0  0  0  0  0
   23.5487  -17.0964  -15.2570 C   0  0  0  0  0  0  0  0  0  0  0  0
   23.6973  -16.9556  -14.0113 O   0  0  0  0  0  0  0  0  0  0  0  0
   26.8290  -13.6450  -15.2720 C   0  0  0  0  0  0  0  0  0  0  0  0
   26.1886  -14.9320  -15.7524 C   0  0  1  0  0  0  0  0  0  0  0  0
   26.7652  -15.9666  -15.0185 O   0  0  0  0  0  0  0  0  0  0  0  0
   24.6887  -14.8916  -15.5902 C   0  0  2  0  0  0  0  0  0  0  0  0
   24.0657  -16.1070  -16.1241 N   0  0  0  0  0  0  0  0  0  0  0  0
   24.0791  -13.6808  -16.1661 C   0  0  0  0  0  0  0  0  0  0  0  0
   23.6800  -13.7182  -17.3722 O   0  0  0  0  0  0  0  0  0  0  0  0
   23.9120  -12.4699  -15.4452 N   0  0  0  0  0  0  0  0  0  0  0  0
   23.1826  -11.3178  -15.9913 C   0  0  1  0  0  0  0  0  0  0  0  0
   22.2939  -10.7101  -14.9698 C   0  0  0  0  0  0  0  0  0  0  0  0
   21.5368   -9.5446  -15.5386 C   0  0  0  0  0  0  0  0  0  0  0  0
   20.6975   -8.8835  -14.4851 C   0  0  0  0  0  0  0  0  0  0  0  0
   21.2339   -7.9909  -13.7833 O   0  0  0  0  0  0  0  0  0  0  0  0
   24.1059  -10.3680  -16.6276 C   0  0  0  0  0  0  0  0  0  0  0  0
   25.3033  -10.3302  -16.1772 O   0  0  0  0  0  0  0  0  0  0  0  0
   19.3804   -9.2501  -14.2999 O   0  0  0  0  0  0  0  0  0  0  0  0
   23.8401   -9.5072  -17.6603 O   0  0  0  0  0  0  0  0  0  0  0  0
  2  1  1  0
  2  3  2  0
  4  5  1  0
  4  2  1  0
  6  5  1  0
  6  7  1  1
  8  6  1  0
  9  8  2  0
 11 10  1  1
 11 12  1  0
 13 11  1  0
 13 14  1  6
 14  8  1  0
 15 13  1  0
 15 17  1  0
 16 15  2  0
 18 17  1  0
 18 19  1  1
 19 20  1  0
 20 21  1  0
 21 25  1  0
 21 22  2  0
 23 26  1  0
 23 18  1  0
 24 23  2  0
M  END
$$$$
