QTE.pdb
     RDKit          3D

 26 25  0  0  1  0  0  0  0  0999 V2000
   29.0686  -19.8150  -18.7674 N   0  0  0  0  0  0  0  0  0  0  0  0
   28.8010  -18.6064  -18.0163 C   0  0  0  0  0  0  0  0  0  0  0  0
   29.4666  -17.6065  -18.3761 O   0  0  0  0  0  0  0  0  0  0  0  0
   27.8181  -18.6041  -16.9205 C   0  0  0  0  0  0  0  0  0  0  0  0
   27.1301  -19.8973  -16.6377 C   0  0  0  0  0  0  0  0  0  0  0  0
   27.7575  -20.6139  -15.5015 C   0  0  2  0  0  0  0  0  0  0  0  0
   28.6935  -21.6230  -15.9091 N   0  0  0  0  0  0  0  0  0  0  0  0
   26.8037  -21.1856  -14.5428 C   0  0  0  0  0  0  0  0  0  0  0  0
   26.4333  -22.3877  -14.6499 O   0  0  0  0  0  0  0  0  0  0  0  0
   24.7865  -21.1262  -10.0739 C   0  0  0  0  0  0  0  0  0  0  0  0
   25.7664  -20.5841  -11.0954 C   0  0  1  0  0  0  0  0  0  0  0  0
   27.0233  -21.0737  -10.7464 O   0  0  0  0  0  0  0  0  0  0  0  0
   25.3735  -20.9827  -12.4970 C   0  0  2  0  0  0  0  0  0  0  0  0
   26.2848  -20.4010  -13.4877 N   0  0  0  0  0  0  0  0  0  0  0  0
   23.9694  -20.6700  -12.8130 C   0  0  0  0  0  0  0  0  0  0  0  0
   23.6425  -19.4533  -12.9805 O   0  0  0  0  0  0  0  0  0  0  0  0
   22.9576  -21.6567  -12.9416 N   0  0  0  0  0  0  0  0  0  0  0  0
   21.5474  -21.3185  -13.1754 C   0  0  1  0  0  0  0  0  0  0  0  0
   20.7571  -22.5230  -13.5317 C   0  0  0  0  0  0  0  0  0  0  0  0
   19.4953  -22.5992  -12.7209 C   0  0  0  0  0  0  0  0  0  0  0  0
   18.3365  -23.0325  -13.5699 C   0  0  0  0  0  0  0  0  0  0  0  0
   18.0179  -24.2471  -13.5508 O   0  0  0  0  0  0  0  0  0  0  0  0
   20.9998  -20.5508  -12.0484 C   0  0  0  0  0  0  0  0  0  0  0  0
   21.3293  -20.9304  -10.8713 O   0  0  0  0  0  0  0  0  0  0  0  0
   17.6489  -22.1201  -14.3433 O   0  0  0  0  0  0  0  0  0  0  0  0
   20.1700  -19.4615  -12.1028 O   0  0  0  0  0  0  0  0  0  0  0  0
  2  1  1  0
  2  3  2  0
  4  5  1  0
  4  2  1  0
  6  5  1  0
  6  7  1  6
  8  6  1  0
  9  8  2  0
 11 10  1  1
 11 12  1  0
 13 11  1  0
 13 14  1  6
 14  8  1  0
 15 13  1  0
 15 17  1  0
 16 15  2  0
 18 17  1  0
 18 19  1  1
 19 20  1  0
 20 21  1  0
 21 25  1  0
 21 22  2  0
 23 26  1  0
 23 18  1  0
 24 23  2  0
M  END
$$$$
