QTE.pdb
     RDKit          3D

 26 25  0  0  1  0  0  0  0  0999 V2000
   17.4962  -12.1102  -12.1997 N   0  0  0  0  0  0  0  0  0  0  0  0
   16.3805  -11.3734  -12.7552 C   0  0  0  0  0  0  0  0  0  0  0  0
   16.3052  -11.3993  -14.0066 O   0  0  0  0  0  0  0  0  0  0  0  0
   15.4378  -10.6611  -11.8773 C   0  0  0  0  0  0  0  0  0  0  0  0
   15.7028  -10.7373  -10.4110 C   0  0  0  0  0  0  0  0  0  0  0  0
   14.6516  -10.0446   -9.6282 C   0  0  2  0  0  0  0  0  0  0  0  0
   13.3380  -10.5872   -9.8298 N   0  0  0  0  0  0  0  0  0  0  0  0
   14.6165   -8.5885   -9.8135 C   0  0  0  0  0  0  0  0  0  0  0  0
   13.8177   -8.0691  -10.6417 O   0  0  0  0  0  0  0  0  0  0  0  0
   15.4543   -4.0655   -8.1352 C   0  0  0  0  0  0  0  0  0  0  0  0
   15.5296   -5.5671   -7.9429 C   0  0  1  0  0  0  0  0  0  0  0  0
   14.4816   -5.9170   -7.0940 O   0  0  0  0  0  0  0  0  0  0  0  0
   15.4539   -6.2932   -9.2637 C   0  0  2  0  0  0  0  0  0  0  0  0
   15.4752   -7.7468   -9.0705 N   0  0  0  0  0  0  0  0  0  0  0  0
   16.4915   -5.8651  -10.2173 C   0  0  0  0  0  0  0  0  0  0  0  0
   17.4860   -6.6314  -10.4151 O   0  0  0  0  0  0  0  0  0  0  0  0
   16.4414   -4.6392  -10.9303 N   0  0  0  0  0  0  0  0  0  0  0  0
   17.2700   -4.3780  -12.1147 C   0  0  1  0  0  0  0  0  0  0  0  0
   17.1260   -5.4590  -13.1213 C   0  0  0  0  0  0  0  0  0  0  0  0
   17.9999   -5.2036  -14.3155 C   0  0  0  0  0  0  0  0  0  0  0  0
   17.8665   -6.3060  -15.3245 C   0  0  0  0  0  0  0  0  0  0  0  0
   17.9276   -7.4900  -14.9104 O   0  0  0  0  0  0  0  0  0  0  0  0
   17.0204   -3.0287  -12.6405 C   0  0  0  0  0  0  0  0  0  0  0  0
   15.8361   -2.5621  -12.5066 O   0  0  0  0  0  0  0  0  0  0  0  0
   17.6830   -6.0199  -16.6616 O   0  0  0  0  0  0  0  0  0  0  0  0
   17.9124   -2.1953  -13.2632 O   0  0  0  0  0  0  0  0  0  0  0  0
  2  1  1  0
  2  3  2  0
  4  5  1  0
  4  2  1  0
  6  5  1  0
  6  7  1  6
  8  6  1  0
  9  8  2  0
 11 10  1  6
 11 12  1  0
 13 11  1  0
 13 14  1  1
 14  8  1  0
 15 13  1  0
 15 17  1  0
 16 15  2  0
 18 17  1  0
 18 19  1  6
 19 20  1  0
 20 21  1  0
 21 25  1  0
 21 22  2  0
 23 26  1  0
 23 18  1  0
 24 23  2  0
M  END
$$$$
