QTE.pdb
     RDKit          3D

 26 25  0  0  1  0  0  0  0  0999 V2000
   15.8146  -13.3513  -14.6476 N   0  0  0  0  0  0  0  0  0  0  0  0
   15.8810  -13.1994  -16.0859 C   0  0  0  0  0  0  0  0  0  0  0  0
   14.8151  -13.4629  -16.6915 O   0  0  0  0  0  0  0  0  0  0  0  0
   17.1282  -12.7710  -16.7401 C   0  0  0  0  0  0  0  0  0  0  0  0
   18.3242  -12.6167  -15.8618 C   0  0  0  0  0  0  0  0  0  0  0  0
   19.5114  -12.1676  -16.6278 C   0  0  2  0  0  0  0  0  0  0  0  0
   20.2040  -13.2377  -17.2878 N   0  0  0  0  0  0  0  0  0  0  0  0
   20.4672  -11.3668  -15.8526 C   0  0  0  0  0  0  0  0  0  0  0  0
   21.2805  -11.9274  -15.0665 O   0  0  0  0  0  0  0  0  0  0  0  0
   23.0832  -11.1214  -15.5322 C   0  0  0  0  0  0  0  0  0  0  0  0
   22.9138   -9.6309  -15.7494 C   0  0  1  0  0  0  0  0  0  0  0  0
   23.1492   -9.3921  -17.1019 O   0  0  0  0  0  0  0  0  0  0  0  0
   21.5421   -9.1675  -15.3239 C   0  0  2  0  0  0  0  0  0  0  0  0
   20.4914   -9.9586  -15.9725 N   0  0  0  0  0  0  0  0  0  0  0  0
   21.3307   -7.7248  -15.5318 C   0  0  0  0  0  0  0  0  0  0  0  0
   20.7137   -7.3472  -16.5768 O   0  0  0  0  0  0  0  0  0  0  0  0
   21.7796   -6.7294  -14.6255 N   0  0  0  0  0  0  0  0  0  0  0  0
   21.3638   -5.3240  -14.7239 C   0  0  1  0  0  0  0  0  0  0  0  0
   19.9158   -5.1699  -14.4376 C   0  0  0  0  0  0  0  0  0  0  0  0
   19.5105   -3.7243  -14.4710 C   0  0  0  0  0  0  0  0  0  0  0  0
   18.0649   -3.5801  -14.8465 C   0  0  0  0  0  0  0  0  0  0  0  0
   17.4773   -2.5198  -14.5188 O   0  0  0  0  0  0  0  0  0  0  0  0
   22.2333   -4.4631  -13.9100 C   0  0  0  0  0  0  0  0  0  0  0  0
   22.7746   -4.9924  -12.8781 O   0  0  0  0  0  0  0  0  0  0  0  0
   17.4101   -4.5844  -15.5293 O   0  0  0  0  0  0  0  0  0  0  0  0
   22.5426   -3.1453  -14.1240 O   0  0  0  0  0  0  0  0  0  0  0  0
  2  1  1  0
  2  3  2  0
  4  5  1  0
  4  2  1  0
  6  5  1  0
  6  7  1  1
  8  6  1  0
  9  8  2  0
 11 10  1  6
 11 12  1  0
 13 11  1  0
 13 14  1  6
 14  8  1  0
 15 13  1  0
 15 17  1  0
 16 15  2  0
 18 17  1  0
 18 19  1  1
 19 20  1  0
 20 21  1  0
 21 25  1  0
 21 22  2  0
 23 26  1  0
 23 18  1  0
 24 23  2  0
M  END
$$$$
