QTE.pdb
     RDKit          3D

 26 25  0  0  1  0  0  0  0  0999 V2000
   23.4915  -12.0470  -19.0953 N   0  0  0  0  0  0  0  0  0  0  0  0
   22.7276  -13.2359  -18.7802 C   0  0  0  0  0  0  0  0  0  0  0  0
   23.2858  -14.3156  -19.0884 O   0  0  0  0  0  0  0  0  0  0  0  0
   21.4007  -13.1324  -18.1514 C   0  0  0  0  0  0  0  0  0  0  0  0
   20.9219  -11.7578  -17.8244 C   0  0  0  0  0  0  0  0  0  0  0  0
   19.6046  -11.7845  -17.1446 C   0  0  2  0  0  0  0  0  0  0  0  0
   18.5663  -12.3842  -17.9338 N   0  0  0  0  0  0  0  0  0  0  0  0
   19.1522  -10.4799  -16.6454 C   0  0  0  0  0  0  0  0  0  0  0  0
   18.4844   -9.7082  -17.3885 O   0  0  0  0  0  0  0  0  0  0  0  0
   17.6223   -7.5943  -13.1043 C   0  0  0  0  0  0  0  0  0  0  0  0
   18.1113   -8.9345  -13.6165 C   0  0  1  0  0  0  0  0  0  0  0  0
   16.9785   -9.6930  -13.9039 O   0  0  0  0  0  0  0  0  0  0  0  0
   19.0015   -8.7680  -14.8237 C   0  0  2  0  0  0  0  0  0  0  0  0
   19.4574  -10.0672  -15.3283 N   0  0  0  0  0  0  0  0  0  0  0  0
   20.1358   -7.8599  -14.5828 C   0  0  0  0  0  0  0  0  0  0  0  0
   21.0805   -8.2566  -13.8307 O   0  0  0  0  0  0  0  0  0  0  0  0
   20.2322   -6.5613  -15.1467 N   0  0  0  0  0  0  0  0  0  0  0  0
   21.3266   -5.6367  -14.8222 C   0  0  1  0  0  0  0  0  0  0  0  0
   21.0937   -4.2972  -15.4173 C   0  0  0  0  0  0  0  0  0  0  0  0
   22.2380   -3.3703  -15.1232 C   0  0  0  0  0  0  0  0  0  0  0  0
   21.9736   -1.9993  -15.6726 C   0  0  0  0  0  0  0  0  0  0  0  0
   20.9123   -1.8221  -16.3201 O   0  0  0  0  0  0  0  0  0  0  0  0
   21.5824   -5.6163  -13.3753 C   0  0  0  0  0  0  0  0  0  0  0  0
   22.8062   -5.5949  -13.0012 O   0  0  0  0  0  0  0  0  0  0  0  0
   22.8722   -0.9725  -15.4686 O   0  0  0  0  0  0  0  0  0  0  0  0
   20.6593   -5.6148  -12.3624 O   0  0  0  0  0  0  0  0  0  0  0  0
  2  1  1  0
  2  3  2  0
  4  5  1  0
  4  2  1  0
  6  5  1  0
  6  7  1  6
  8  6  1  0
  9  8  2  0
 11 10  1  6
 11 12  1  0
 13 11  1  0
 13 14  1  1
 14  8  1  0
 15 13  1  0
 15 17  1  0
 16 15  2  0
 18 17  1  0
 18 19  1  1
 19 20  1  0
 20 21  1  0
 21 25  1  0
 21 22  2  0
 23 26  1  0
 23 18  1  0
 24 23  2  0
M  END
$$$$
