QTE.pdb
     RDKit          3D

 26 25  0  0  1  0  0  0  0  0999 V2000
   16.7560  -12.9671  -14.8615 N   0  0  0  0  0  0  0  0  0  0  0  0
   17.5603  -14.1196  -15.2095 C   0  0  0  0  0  0  0  0  0  0  0  0
   17.0687  -15.2234  -14.8743 O   0  0  0  0  0  0  0  0  0  0  0  0
   18.8506  -13.9557  -15.8987 C   0  0  0  0  0  0  0  0  0  0  0  0
   19.2448  -12.5619  -16.2559 C   0  0  0  0  0  0  0  0  0  0  0  0
   18.5922  -12.1127  -17.5089 C   0  0  2  0  0  0  0  0  0  0  0  0
   19.0848  -12.7795  -18.6808 N   0  0  0  0  0  0  0  0  0  0  0  0
   18.6194  -10.6601  -17.7211 C   0  0  0  0  0  0  0  0  0  0  0  0
   19.5835  -10.1219  -18.3334 O   0  0  0  0  0  0  0  0  0  0  0  0
   15.8754   -8.7278  -19.3581 C   0  0  0  0  0  0  0  0  0  0  0  0
   16.2077   -7.9806  -18.0818 C   0  0  1  0  0  0  0  0  0  0  0  0
   15.1714   -8.2344  -17.1857 O   0  0  0  0  0  0  0  0  0  0  0  0
   17.5475   -8.4047  -17.5316 C   0  0  2  0  0  0  0  0  0  0  0  0
   17.5702   -9.8423  -17.2432 N   0  0  0  0  0  0  0  0  0  0  0  0
   17.9644   -7.6172  -16.3588 C   0  0  0  0  0  0  0  0  0  0  0  0
   17.8248   -8.1297  -15.2041 O   0  0  0  0  0  0  0  0  0  0  0  0
   18.5157   -6.3127  -16.4477 N   0  0  0  0  0  0  0  0  0  0  0  0
   18.9463   -5.5532  -15.2664 C   0  0  1  0  0  0  0  0  0  0  0  0
   20.4264   -5.4882  -15.1785 C   0  0  0  0  0  0  0  0  0  0  0  0
   20.8611   -4.7181  -13.9648 C   0  0  0  0  0  0  0  0  0  0  0  0
   22.3575   -4.6788  -13.8610 C   0  0  0  0  0  0  0  0  0  0  0  0
   22.9416   -5.7007  -13.4234 O   0  0  0  0  0  0  0  0  0  0  0  0
   18.2823   -4.2432  -15.2162 C   0  0  0  0  0  0  0  0  0  0  0  0
   17.8374   -3.7738  -16.3206 O   0  0  0  0  0  0  0  0  0  0  0  0
   23.0610   -3.5528  -14.2361 O   0  0  0  0  0  0  0  0  0  0  0  0
   18.0752   -3.4519  -14.1166 O   0  0  0  0  0  0  0  0  0  0  0  0
  2  1  1  0
  2  3  2  0
  4  5  1  0
  4  2  1  0
  6  5  1  0
  6  7  1  6
  8  6  1  0
  9  8  2  0
 11 10  1  6
 11 12  1  0
 13 11  1  0
 13 14  1  1
 14  8  1  0
 15 13  1  0
 15 17  1  0
 16 15  2  0
 18 17  1  0
 18 19  1  6
 19 20  1  0
 20 21  1  0
 21 25  1  0
 21 22  2  0
 23 26  1  0
 23 18  1  0
 24 23  2  0
M  END
$$$$
