QTE.pdb
     RDKit          3D

 26 25  0  0  1  0  0  0  0  0999 V2000
   18.9889  -16.2639  -16.3122 N   0  0  0  0  0  0  0  0  0  0  0  0
   18.3727  -15.3548  -17.2556 C   0  0  0  0  0  0  0  0  0  0  0  0
   17.6026  -15.8986  -18.0823 O   0  0  0  0  0  0  0  0  0  0  0  0
   18.6639  -13.9126  -17.2101 C   0  0  0  0  0  0  0  0  0  0  0  0
   19.5767  -13.4494  -16.1247 C   0  0  0  0  0  0  0  0  0  0  0  0
   20.9808  -13.3589  -16.5920 C   0  0  2  0  0  0  0  0  0  0  0  0
   21.6426  -14.6307  -16.6629 N   0  0  0  0  0  0  0  0  0  0  0  0
   21.8122  -12.4126  -15.8376 C   0  0  0  0  0  0  0  0  0  0  0  0
   22.5748  -12.8237  -14.9194 O   0  0  0  0  0  0  0  0  0  0  0  0
   24.3153  -11.9163  -15.2273 C   0  0  0  0  0  0  0  0  0  0  0  0
   24.0834  -10.4509  -15.5375 C   0  0  1  0  0  0  0  0  0  0  0  0
   24.5546  -10.2340  -16.8307 O   0  0  0  0  0  0  0  0  0  0  0  0
   22.6259  -10.0853  -15.3981 C   0  0  2  0  0  0  0  0  0  0  0  0
   21.7715  -11.0293  -16.1255 N   0  0  0  0  0  0  0  0  0  0  0  0
   22.3405   -8.6944  -15.7896 C   0  0  0  0  0  0  0  0  0  0  0  0
   21.9968   -8.4615  -16.9909 O   0  0  0  0  0  0  0  0  0  0  0  0
   22.4283   -7.5959  -14.8957 N   0  0  0  0  0  0  0  0  0  0  0  0
   22.0464   -6.2304  -15.2796 C   0  0  1  0  0  0  0  0  0  0  0  0
   20.6438   -6.1794  -15.7620 C   0  0  0  0  0  0  0  0  0  0  0  0
   19.6842   -6.5576  -14.6704 C   0  0  0  0  0  0  0  0  0  0  0  0
   18.2658   -6.4921  -15.1555 C   0  0  0  0  0  0  0  0  0  0  0  0
   18.0474   -5.9206  -16.2522 O   0  0  0  0  0  0  0  0  0  0  0  0
   22.3465   -5.2801  -14.1997 C   0  0  0  0  0  0  0  0  0  0  0  0
   22.6036   -5.7722  -13.0466 O   0  0  0  0  0  0  0  0  0  0  0  0
   17.2411   -7.0440  -14.4149 O   0  0  0  0  0  0  0  0  0  0  0  0
   22.3882   -3.9125  -14.2765 O   0  0  0  0  0  0  0  0  0  0  0  0
  2  1  1  0
  2  3  2  0
  4  5  1  0
  4  2  1  0
  6  5  1  0
  6  7  1  1
  8  6  1  0
  9  8  2  0
 11 10  1  6
 11 12  1  0
 13 11  1  0
 13 14  1  6
 14  8  1  0
 15 13  1  0
 15 17  1  0
 16 15  2  0
 18 17  1  0
 18 19  1  1
 19 20  1  0
 20 21  1  0
 21 25  1  0
 21 22  2  0
 23 26  1  0
 23 18  1  0
 24 23  2  0
M  END
$$$$
