QTE.pdb
     RDKit          3D

 26 25  0  0  1  0  0  0  0  0999 V2000
   15.1615  -10.3519  -18.8744 N   0  0  0  0  0  0  0  0  0  0  0  0
   15.8290  -11.6159  -19.1045 C   0  0  0  0  0  0  0  0  0  0  0  0
   15.2950  -12.3405  -19.9775 O   0  0  0  0  0  0  0  0  0  0  0  0
   17.0356  -11.9787  -18.3432 C   0  0  0  0  0  0  0  0  0  0  0  0
   17.5295  -10.9749  -17.3563 C   0  0  0  0  0  0  0  0  0  0  0  0
   18.7613  -11.4386  -16.6739 C   0  0  2  0  0  0  0  0  0  0  0  0
   18.6076  -12.7048  -16.0154 N   0  0  0  0  0  0  0  0  0  0  0  0
   19.3415  -10.4654  -15.7402 C   0  0  0  0  0  0  0  0  0  0  0  0
   18.8280  -10.2890  -14.6004 O   0  0  0  0  0  0  0  0  0  0  0  0
   22.0934  -10.6088  -13.8030 C   0  0  0  0  0  0  0  0  0  0  0  0
   22.3592   -9.3278  -14.5685 C   0  0  1  0  0  0  0  0  0  0  0  0
   23.2986   -9.6339  -15.5510 O   0  0  0  0  0  0  0  0  0  0  0  0
   21.0876   -8.7673  -15.1572 C   0  0  2  0  0  0  0  0  0  0  0  0
   20.4808   -9.7108  -16.1017 N   0  0  0  0  0  0  0  0  0  0  0  0
   21.2718   -7.4409  -15.7701 C   0  0  0  0  0  0  0  0  0  0  0  0
   20.9323   -7.2821  -16.9846 O   0  0  0  0  0  0  0  0  0  0  0  0
   21.8096   -6.3259  -15.0763 N   0  0  0  0  0  0  0  0  0  0  0  0
   21.9040   -4.9894  -15.6784 C   0  0  1  0  0  0  0  0  0  0  0  0
   20.5837   -4.5284  -16.1752 C   0  0  0  0  0  0  0  0  0  0  0  0
   20.6929   -3.1783  -16.8235 C   0  0  0  0  0  0  0  0  0  0  0  0
   19.3608   -2.7216  -17.3415 C   0  0  0  0  0  0  0  0  0  0  0  0
   19.2655   -2.4646  -18.5671 O   0  0  0  0  0  0  0  0  0  0  0  0
   22.5646   -4.0487  -14.7629 C   0  0  0  0  0  0  0  0  0  0  0  0
   22.5305   -4.3307  -13.5149 O   0  0  0  0  0  0  0  0  0  0  0  0
   18.2811   -2.5910  -16.4927 O   0  0  0  0  0  0  0  0  0  0  0  0
   23.2243   -2.8915  -15.0851 O   0  0  0  0  0  0  0  0  0  0  0  0
  2  1  1  0
  2  3  2  0
  4  5  1  0
  4  2  1  0
  6  5  1  0
  6  7  1  1
  8  6  1  0
  9  8  2  0
 11 10  1  6
 11 12  1  0
 13 11  1  0
 13 14  1  6
 14  8  1  0
 15 13  1  0
 15 17  1  0
 16 15  2  0
 18 17  1  0
 18 19  1  1
 19 20  1  0
 20 21  1  0
 21 25  1  0
 21 22  2  0
 23 26  1  0
 23 18  1  0
 24 23  2  0
M  END
$$$$
