QTE.pdb
     RDKit          3D

 26 25  0  0  1  0  0  0  0  0999 V2000
   27.8071  -21.0220  -11.7048 N   0  0  0  0  0  0  0  0  0  0  0  0
   27.3434  -20.9360  -10.3359 C   0  0  0  0  0  0  0  0  0  0  0  0
   28.2403  -20.7018   -9.4915 O   0  0  0  0  0  0  0  0  0  0  0  0
   25.9197  -21.1216  -10.0112 C   0  0  0  0  0  0  0  0  0  0  0  0
   25.0022  -21.3863  -11.1574 C   0  0  0  0  0  0  0  0  0  0  0  0
   23.9239  -20.3722  -11.2406 C   0  0  2  0  0  0  0  0  0  0  0  0
   22.8926  -20.5527  -10.2586 N   0  0  0  0  0  0  0  0  0  0  0  0
   23.3183  -20.2373  -12.5714 C   0  0  0  0  0  0  0  0  0  0  0  0
   24.0218  -20.3768  -13.6104 O   0  0  0  0  0  0  0  0  0  0  0  0
   23.0276  -21.5561  -14.8636 C   0  0  0  0  0  0  0  0  0  0  0  0
   21.5457  -21.2590  -14.7480 C   0  0  1  0  0  0  0  0  0  0  0  0
   20.9703  -22.3373  -14.0791 O   0  0  0  0  0  0  0  0  0  0  0  0
   21.3028  -19.9537  -14.0306 C   0  0  2  0  0  0  0  0  0  0  0  0
   21.9417  -19.9485  -12.7106 N   0  0  0  0  0  0  0  0  0  0  0  0
   19.8750  -19.6054  -13.9351 C   0  0  0  0  0  0  0  0  0  0  0  0
   19.2890  -19.7517  -12.8169 O   0  0  0  0  0  0  0  0  0  0  0  0
   19.1147  -19.1132  -15.0275 N   0  0  0  0  0  0  0  0  0  0  0  0
   17.7109  -18.7020  -14.8935 C   0  0  1  0  0  0  0  0  0  0  0  0
   17.2302  -18.0204  -16.1210 C   0  0  0  0  0  0  0  0  0  0  0  0
   17.7617  -16.6182  -16.2023 C   0  0  0  0  0  0  0  0  0  0  0  0
   17.1327  -15.8704  -17.3410 C   0  0  0  0  0  0  0  0  0  0  0  0
   16.9551  -16.4875  -18.4203 O   0  0  0  0  0  0  0  0  0  0  0  0
   16.8737  -19.8311  -14.4649 C   0  0  0  0  0  0  0  0  0  0  0  0
   17.0982  -20.9640  -15.0165 O   0  0  0  0  0  0  0  0  0  0  0  0
   16.7646  -14.5484  -17.1988 O   0  0  0  0  0  0  0  0  0  0  0  0
   15.8696  -19.8213  -13.5323 O   0  0  0  0  0  0  0  0  0  0  0  0
  2  1  1  0
  2  3  2  0
  4  5  1  0
  4  2  1  0
  6  5  1  0
  6  7  1  1
  8  6  1  0
  9  8  2  0
 11 10  1  1
 11 12  1  0
 13 11  1  0
 13 14  1  1
 14  8  1  0
 15 13  1  0
 15 17  1  0
 16 15  2  0
 18 17  1  0
 18 19  1  6
 19 20  1  0
 20 21  1  0
 21 25  1  0
 21 22  2  0
 23 26  1  0
 23 18  1  0
 24 23  2  0
M  END
$$$$
