QTE.pdb
     RDKit          3D

 26 25  0  0  1  0  0  0  0  0999 V2000
   24.5533  -11.5898  -17.3929 N   0  0  0  0  0  0  0  0  0  0  0  0
   24.2410  -12.6860  -18.2857 C   0  0  0  0  0  0  0  0  0  0  0  0
   25.0842  -13.6140  -18.2927 O   0  0  0  0  0  0  0  0  0  0  0  0
   23.0182  -12.6636  -19.1049 C   0  0  0  0  0  0  0  0  0  0  0  0
   22.1048  -11.5002  -18.9100 C   0  0  0  0  0  0  0  0  0  0  0  0
   21.2031  -11.7007  -17.7504 C   0  0  2  0  0  0  0  0  0  0  0  0
   20.2827  -12.7885  -17.9236 N   0  0  0  0  0  0  0  0  0  0  0  0
   20.4710  -10.4977  -17.3352 C   0  0  0  0  0  0  0  0  0  0  0  0
   19.5160  -10.0580  -18.0342 O   0  0  0  0  0  0  0  0  0  0  0  0
   18.1052   -9.9492  -15.0180 C   0  0  0  0  0  0  0  0  0  0  0  0
   19.1402   -8.9239  -14.5999 C   0  0  1  0  0  0  0  0  0  0  0  0
   19.8004   -9.4481  -13.4904 O   0  0  0  0  0  0  0  0  0  0  0  0
   20.0917   -8.6136  -15.7295 C   0  0  2  0  0  0  0  0  0  0  0  0
   20.8232   -9.8130  -16.1498 N   0  0  0  0  0  0  0  0  0  0  0  0
   21.0124   -7.5065  -15.4200 C   0  0  0  0  0  0  0  0  0  0  0  0
   22.2248   -7.7823  -15.1567 O   0  0  0  0  0  0  0  0  0  0  0  0
   20.6186   -6.1433  -15.4000 N   0  0  0  0  0  0  0  0  0  0  0  0
   21.5057   -5.0700  -14.9324 C   0  0  1  0  0  0  0  0  0  0  0  0
   20.9553   -3.7329  -15.2668 C   0  0  0  0  0  0  0  0  0  0  0  0
   19.6985   -3.4581  -14.4920 C   0  0  0  0  0  0  0  0  0  0  0  0
   19.1737   -2.0843  -14.7892 C   0  0  0  0  0  0  0  0  0  0  0  0
   18.4607   -1.9381  -15.8126 O   0  0  0  0  0  0  0  0  0  0  0  0
   21.8367   -5.2466  -13.5116 C   0  0  0  0  0  0  0  0  0  0  0  0
   22.8414   -4.5930  -13.0628 O   0  0  0  0  0  0  0  0  0  0  0  0
   19.4694   -1.0218  -13.9603 O   0  0  0  0  0  0  0  0  0  0  0  0
   21.1916   -6.0339  -12.5940 O   0  0  0  0  0  0  0  0  0  0  0  0
  2  1  1  0
  2  3  2  0
  4  5  1  0
  4  2  1  0
  6  5  1  0
  6  7  1  6
  8  6  1  0
  9  8  2  0
 11 10  1  6
 11 12  1  0
 13 11  1  0
 13 14  1  1
 14  8  1  0
 15 13  1  0
 15 17  1  0
 16 15  2  0
 18 17  1  0
 18 19  1  1
 19 20  1  0
 20 21  1  0
 21 25  1  0
 21 22  2  0
 23 26  1  0
 23 18  1  0
 24 23  2  0
M  END
$$$$
