QTE.pdb
     RDKit          3D

 26 25  0  0  1  0  0  0  0  0999 V2000
   18.6813  -15.4297  -15.8100 N   0  0  0  0  0  0  0  0  0  0  0  0
   17.8166  -14.9399  -16.8629 C   0  0  0  0  0  0  0  0  0  0  0  0
   17.4059  -15.8194  -17.6567 O   0  0  0  0  0  0  0  0  0  0  0  0
   17.4793  -13.5100  -16.9548 C   0  0  0  0  0  0  0  0  0  0  0  0
   18.0927  -12.6121  -15.9334 C   0  0  0  0  0  0  0  0  0  0  0  0
   18.7550  -11.4429  -16.5598 C   0  0  2  0  0  0  0  0  0  0  0  0
   19.5740  -11.7863  -17.6875 N   0  0  0  0  0  0  0  0  0  0  0  0
   19.5248  -10.6095  -15.6278 C   0  0  0  0  0  0  0  0  0  0  0  0
   19.1500  -10.4779  -14.4295 O   0  0  0  0  0  0  0  0  0  0  0  0
   22.9923  -11.0838  -14.5969 C   0  0  0  0  0  0  0  0  0  0  0  0
   22.9221   -9.6451  -15.0688 C   0  0  1  0  0  0  0  0  0  0  0  0
   23.5304   -9.6026  -16.3217 O   0  0  0  0  0  0  0  0  0  0  0  0
   21.4964   -9.1527  -15.1154 C   0  0  2  0  0  0  0  0  0  0  0  0
   20.6945   -9.9415  -16.0563 N   0  0  0  0  0  0  0  0  0  0  0  0
   21.3933   -7.7117  -15.4021 C   0  0  0  0  0  0  0  0  0  0  0  0
   21.5188   -7.3227  -16.6055 O   0  0  0  0  0  0  0  0  0  0  0  0
   21.1604   -6.7299  -14.4043 N   0  0  0  0  0  0  0  0  0  0  0  0
   21.2416   -5.2889  -14.6775 C   0  0  1  0  0  0  0  0  0  0  0  0
   19.8989   -4.6577  -14.6409 C   0  0  0  0  0  0  0  0  0  0  0  0
   19.9783   -3.2004  -14.9946 C   0  0  0  0  0  0  0  0  0  0  0  0
   18.6140   -2.5761  -15.0099 C   0  0  0  0  0  0  0  0  0  0  0  0
   17.6253   -3.3235  -14.8077 O   0  0  0  0  0  0  0  0  0  0  0  0
   22.2330   -4.6459  -13.8041 C   0  0  0  0  0  0  0  0  0  0  0  0
   22.7513   -3.5518  -14.2192 O   0  0  0  0  0  0  0  0  0  0  0  0
   18.4595   -1.2245  -15.2393 O   0  0  0  0  0  0  0  0  0  0  0  0
   22.6756   -5.0779  -12.5811 O   0  0  0  0  0  0  0  0  0  0  0  0
  2  1  1  0
  2  3  2  0
  4  5  1  0
  4  2  1  0
  6  5  1  0
  6  7  1  6
  8  6  1  0
  9  8  2  0
 11 10  1  6
 11 12  1  0
 13 11  1  0
 13 14  1  6
 14  8  1  0
 15 13  1  0
 15 17  1  0
 16 15  2  0
 18 17  1  0
 18 19  1  1
 19 20  1  0
 20 21  1  0
 21 25  1  0
 21 22  2  0
 23 26  1  0
 23 18  1  0
 24 23  2  0
M  END
$$$$
