QTE.pdb
     RDKit          3D

 26 25  0  0  1  0  0  0  0  0999 V2000
   18.1842   -9.7927  -20.6151 N   0  0  0  0  0  0  0  0  0  0  0  0
   17.1350  -10.7476  -20.3259 C   0  0  0  0  0  0  0  0  0  0  0  0
   16.6352  -11.3000  -21.3345 O   0  0  0  0  0  0  0  0  0  0  0  0
   16.7195  -11.0111  -18.9385 C   0  0  0  0  0  0  0  0  0  0  0  0
   17.4145  -10.2309  -17.8735 C   0  0  0  0  0  0  0  0  0  0  0  0
   18.2521  -11.1023  -17.0152 C   0  0  2  0  0  0  0  0  0  0  0  0
   17.5256  -12.1893  -16.4226 N   0  0  0  0  0  0  0  0  0  0  0  0
   19.0047  -10.3886  -15.9759 C   0  0  0  0  0  0  0  0  0  0  0  0
   18.5410  -10.2893  -14.8059 O   0  0  0  0  0  0  0  0  0  0  0  0
   23.1204   -9.0317  -13.8941 C   0  0  0  0  0  0  0  0  0  0  0  0
   22.3528   -9.7410  -14.9919 C   0  0  1  0  0  0  0  0  0  0  0  0
   22.2238  -11.0711  -14.5976 O   0  0  0  0  0  0  0  0  0  0  0  0
   21.0127   -9.0899  -15.2321 C   0  0  2  0  0  0  0  0  0  0  0  0
   20.2568   -9.8013  -16.2680 N   0  0  0  0  0  0  0  0  0  0  0  0
   21.1164   -7.6529  -15.5375 C   0  0  0  0  0  0  0  0  0  0  0  0
   21.6408   -7.3043  -16.6415 O   0  0  0  0  0  0  0  0  0  0  0  0
   20.6609   -6.6320  -14.6634 N   0  0  0  0  0  0  0  0  0  0  0  0
   20.9345   -5.2081  -14.8986 C   0  0  1  0  0  0  0  0  0  0  0  0
   19.8096   -4.3598  -14.4324 C   0  0  0  0  0  0  0  0  0  0  0  0
   18.5740   -4.6058  -15.2497 C   0  0  0  0  0  0  0  0  0  0  0  0
   17.4591   -3.6959  -14.8252 C   0  0  0  0  0  0  0  0  0  0  0  0
   17.3078   -2.6207  -15.4560 O   0  0  0  0  0  0  0  0  0  0  0  0
   22.2430   -4.8289  -14.3477 C   0  0  0  0  0  0  0  0  0  0  0  0
   22.8360   -3.8329  -14.8902 O   0  0  0  0  0  0  0  0  0  0  0  0
   16.6317   -4.0368  -13.7751 O   0  0  0  0  0  0  0  0  0  0  0  0
   22.9152   -5.4169  -13.3082 O   0  0  0  0  0  0  0  0  0  0  0  0
  2  1  1  0
  2  3  2  0
  4  5  1  0
  4  2  1  0
  6  5  1  0
  6  7  1  1
  8  6  1  0
  9  8  2  0
 11 10  1  1
 11 12  1  0
 13 11  1  0
 13 14  1  6
 14  8  1  0
 15 13  1  0
 15 17  1  0
 16 15  2  0
 18 17  1  0
 18 19  1  1
 19 20  1  0
 20 21  1  0
 21 25  1  0
 21 22  2  0
 23 26  1  0
 23 18  1  0
 24 23  2  0
M  END
$$$$
