TWP.pdb
     RDKit          3D

 29 31  0  0  1  0  0  0  0  0999 V2000
   21.6068  -19.7248  -18.0435 C   0  0  0  0  0  0  0  0  0  0  0  0
   21.0306  -18.4488  -17.5406 C   0  0  1  0  0  0  0  0  0  0  0  0
   19.8195  -18.1911  -18.1421 O   0  0  0  0  0  0  0  0  0  0  0  0
   20.9313  -18.3914  -16.0207 C   0  0  2  0  0  0  0  0  0  0  0  0
   20.2519  -17.1336  -15.7300 N   0  0  0  0  0  0  0  0  0  0  0  0
   22.2921  -18.4496  -15.3968 C   0  0  0  0  0  0  0  0  0  0  0  0
   23.1306  -17.5849  -15.7505 O   0  0  0  0  0  0  0  0  0  0  0  0
   22.6030  -19.4291  -14.4485 N   0  0  0  0  0  0  0  0  0  0  0  0
   23.8644  -19.7769  -13.9206 C   0  0  1  0  0  0  0  0  0  0  0  0
   23.6413  -20.8351  -12.7768 C   0  0  0  0  0  0  0  0  0  0  0  0
   24.8882  -21.0518  -12.0088 C   0  0  0  0  0  0  0  0  0  0  0  0
   25.9681  -21.8147  -12.4882 C   0  0  0  0  0  0  0  0  0  0  0  0
   26.9466  -21.8504  -11.5778 N   0  0  0  0  0  0  0  0  0  0  0  0
   26.5539  -21.1218  -10.4893 C   0  0  0  0  0  0  0  0  0  0  0  0
   27.2028  -20.8607   -9.3080 C   0  0  0  0  0  0  0  0  0  0  0  0
   26.5303  -20.0718   -8.3781 C   0  0  0  0  0  0  0  0  0  0  0  0
   25.2762  -19.5798   -8.6264 C   0  0  0  0  0  0  0  0  0  0  0  0
   24.6492  -19.8577   -9.8138 C   0  0  0  0  0  0  0  0  0  0  0  0
   25.2794  -20.6374  -10.7721 C   0  0  0  0  0  0  0  0  0  0  0  0
   24.8727  -20.2861  -14.8244 C   0  0  0  0  0  0  0  0  0  0  0  0
   24.5988  -21.1497  -15.7287 O   0  0  0  0  0  0  0  0  0  0  0  0
   26.2434  -19.8665  -14.7832 N   0  0  0  0  0  0  0  0  0  0  0  0
   26.8688  -19.0679  -13.7924 C   0  0  0  0  0  0  0  0  0  0  0  0
   27.7261  -18.1042  -14.6372 C   0  0  0  0  0  0  0  0  0  0  0  0
   28.1807  -18.9889  -15.7519 C   0  0  0  0  0  0  0  0  0  0  0  0
   27.2255  -20.1333  -15.8420 C   0  0  1  0  0  0  0  0  0  0  0  0
   27.9628  -21.3857  -15.5364 C   0  0  0  0  0  0  0  0  0  0  0  0
   28.9003  -21.9607  -16.3624 O   0  0  0  0  0  0  0  0  0  0  0  0
   27.7555  -22.0249  -14.4394 O   0  0  0  0  0  0  0  0  0  0  0  0
  2  1  1  1
  2  3  1  0
  4  2  1  0
  4  5  1  6
  6  7  2  0
  6  4  1  0
  8  6  1  0
  9  8  1  0
  9 10  1  1
 10 11  1  0
 11 19  1  0
 11 12  2  0
 12 13  1  0
 14 13  1  0
 14 15  2  0
 16 15  1  0
 17 16  2  0
 18 19  2  0
 18 17  1  0
 19 14  1  0
 20  9  1  0
 21 20  2  0
 22 20  1  0
 22 26  1  0
 23 24  1  0
 23 22  1  0
 24 25  1  0
 25 26  1  0
 26 27  1  1
 27 28  1  0
 29 27  2  0
M  END
$$$$
