TWP.pdb
     RDKit          3D

 29 31  0  0  1  0  0  0  0  0999 V2000
   14.3749  -22.2258    3.9164 C   0  0  0  0  0  0  0  0  0  0  0  0
   14.8293  -22.4027    2.5109 C   0  0  1  0  0  0  0  0  0  0  0  0
   13.8428  -22.9890    1.7505 O   0  0  0  0  0  0  0  0  0  0  0  0
   15.3415  -21.1144    1.8776 C   0  0  2  0  0  0  0  0  0  0  0  0
   15.5384  -21.4342    0.4680 N   0  0  0  0  0  0  0  0  0  0  0  0
   16.6127  -20.6688    2.5334 C   0  0  0  0  0  0  0  0  0  0  0  0
   17.6765  -21.2364    2.1835 O   0  0  0  0  0  0  0  0  0  0  0  0
   16.6047  -19.6501    3.4912 N   0  0  0  0  0  0  0  0  0  0  0  0
   17.6588  -19.2096    4.3192 C   0  0  1  0  0  0  0  0  0  0  0  0
   17.3526  -17.7283    4.7548 C   0  0  0  0  0  0  0  0  0  0  0  0
   17.7706  -16.7729    3.7041 C   0  0  0  0  0  0  0  0  0  0  0  0
   16.9911  -15.6717    3.3068 C   0  0  0  0  0  0  0  0  0  0  0  0
   17.6098  -14.9974    2.3322 N   0  0  0  0  0  0  0  0  0  0  0  0
   18.7985  -15.6171    2.0622 C   0  0  0  0  0  0  0  0  0  0  0  0
   19.7806  -15.3085    1.1539 C   0  0  0  0  0  0  0  0  0  0  0  0
   20.8929  -16.1456    1.1163 C   0  0  0  0  0  0  0  0  0  0  0  0
   21.0036  -17.2308    1.9448 C   0  0  0  0  0  0  0  0  0  0  0  0
   20.0069  -17.5183    2.8415 C   0  0  0  0  0  0  0  0  0  0  0  0
   18.8805  -16.7128    2.9176 C   0  0  0  0  0  0  0  0  0  0  0  0
   17.9720  -19.9791    5.5035 C   0  0  0  0  0  0  0  0  0  0  0  0
   17.1571  -20.8388    5.9887 O   0  0  0  0  0  0  0  0  0  0  0  0
   19.2078  -19.8454    6.2187 N   0  0  0  0  0  0  0  0  0  0  0  0
   20.3432  -19.0855    5.8391 C   0  0  0  0  0  0  0  0  0  0  0  0
   21.5065  -20.0427    6.1677 C   0  0  0  0  0  0  0  0  0  0  0  0
   21.0217  -20.7032    7.4168 C   0  0  0  0  0  0  0  0  0  0  0  0
   19.5348  -20.5694    7.4539 C   0  0  1  0  0  0  0  0  0  0  0  0
   19.1667  -19.7422    8.6310 C   0  0  0  0  0  0  0  0  0  0  0  0
   18.9833  -20.2328    9.9028 O   0  0  0  0  0  0  0  0  0  0  0  0
   18.9927  -18.4726    8.5194 O   0  0  0  0  0  0  0  0  0  0  0  0
  2  1  1  1
  2  3  1  0
  4  2  1  0
  4  5  1  6
  6  7  2  0
  6  4  1  0
  8  6  1  0
  9  8  1  0
  9 10  1  1
 10 11  1  0
 11 19  1  0
 11 12  2  0
 12 13  1  0
 14 13  1  0
 14 15  2  0
 16 15  1  0
 17 16  2  0
 18 19  2  0
 18 17  1  0
 19 14  1  0
 20  9  1  0
 21 20  2  0
 22 20  1  0
 22 26  1  0
 23 24  1  0
 23 22  1  0
 24 25  1  0
 25 26  1  0
 26 27  1  1
 27 28  1  0
 29 27  2  0
M  END
$$$$
