TWP.pdb
     RDKit          3D

 29 31  0  0  1  0  0  0  0  0999 V2000
   26.1146  -21.6374  -17.9367 C   0  0  0  0  0  0  0  0  0  0  0  0
   27.4318  -22.2960  -18.1481 C   0  0  1  0  0  0  0  0  0  0  0  0
   27.6731  -22.4821  -19.4905 O   0  0  0  0  0  0  0  0  0  0  0  0
   28.5836  -21.5718  -17.4610 C   0  0  2  0  0  0  0  0  0  0  0  0
   29.7555  -22.4075  -17.6984 N   0  0  0  0  0  0  0  0  0  0  0  0
   28.3060  -21.3992  -15.9990 C   0  0  0  0  0  0  0  0  0  0  0  0
   28.5057  -22.3864  -15.2495 O   0  0  0  0  0  0  0  0  0  0  0  0
   27.8514  -20.1760  -15.4965 N   0  0  0  0  0  0  0  0  0  0  0  0
   27.4475  -19.8574  -14.1827 C   0  0  1  0  0  0  0  0  0  0  0  0
   27.2421  -18.2990  -14.0982 C   0  0  0  0  0  0  0  0  0  0  0  0
   26.3065  -17.8332  -15.1466 C   0  0  0  0  0  0  0  0  0  0  0  0
   24.9120  -17.7835  -14.9711 C   0  0  0  0  0  0  0  0  0  0  0  0
   24.3232  -17.3393  -16.0861 N   0  0  0  0  0  0  0  0  0  0  0  0
   25.2922  -17.0814  -17.0159 C   0  0  0  0  0  0  0  0  0  0  0  0
   25.1934  -16.6126  -18.3025 C   0  0  0  0  0  0  0  0  0  0  0  0
   26.3821  -16.4512  -19.0097 C   0  0  0  0  0  0  0  0  0  0  0  0
   27.5967  -16.7491  -18.4509 C   0  0  0  0  0  0  0  0  0  0  0  0
   27.6673  -17.2182  -17.1644 C   0  0  0  0  0  0  0  0  0  0  0  0
   26.5109  -17.3938  -16.4192 C   0  0  0  0  0  0  0  0  0  0  0  0
   26.2685  -20.5037  -13.6487 C   0  0  0  0  0  0  0  0  0  0  0  0
   25.4698  -21.1762  -14.3892 O   0  0  0  0  0  0  0  0  0  0  0  0
   25.9059  -20.4472  -12.2624 N   0  0  0  0  0  0  0  0  0  0  0  0
   26.5987  -19.7826  -11.2188 C   0  0  0  0  0  0  0  0  0  0  0  0
   26.5459  -20.8165  -10.0762 C   0  0  0  0  0  0  0  0  0  0  0  0
   25.1879  -21.4118  -10.2585 C   0  0  0  0  0  0  0  0  0  0  0  0
   24.7703  -21.1666  -11.6712 C   0  0  1  0  0  0  0  0  0  0  0  0
   23.5724  -20.2888  -11.6614 C   0  0  0  0  0  0  0  0  0  0  0  0
   23.5988  -18.9302  -11.8738 O   0  0  0  0  0  0  0  0  0  0  0  0
   22.3999  -20.7716  -11.4449 O   0  0  0  0  0  0  0  0  0  0  0  0
  2  1  1  6
  2  3  1  0
  4  2  1  0
  4  5  1  1
  6  7  2  0
  6  4  1  0
  8  6  1  0
  9  8  1  0
  9 10  1  6
 10 11  1  0
 11 19  1  0
 11 12  2  0
 12 13  1  0
 14 13  1  0
 14 15  2  0
 16 15  1  0
 17 16  2  0
 18 19  2  0
 18 17  1  0
 19 14  1  0
 20  9  1  0
 21 20  2  0
 22 20  1  0
 22 26  1  0
 23 24  1  0
 23 22  1  0
 24 25  1  0
 25 26  1  0
 26 27  1  1
 27 28  1  0
 29 27  2  0
M  END
$$$$
