TWP.pdb
     RDKit          3D

 29 31  0  0  1  0  0  0  0  0999 V2000
   16.6851   -9.9503  -16.5477 C   0  0  0  0  0  0  0  0  0  0  0  0
   17.0724  -11.2909  -16.0320 C   0  0  1  0  0  0  0  0  0  0  0  0
   16.1116  -12.2273  -16.3402 O   0  0  0  0  0  0  0  0  0  0  0  0
   18.4590  -11.7323  -16.4857 C   0  0  2  0  0  0  0  0  0  0  0  0
   18.6472  -13.0567  -15.9038 N   0  0  0  0  0  0  0  0  0  0  0  0
   19.5033  -10.7635  -16.0218 C   0  0  0  0  0  0  0  0  0  0  0  0
   19.6331  -10.5982  -14.7840 O   0  0  0  0  0  0  0  0  0  0  0  0
   20.3056  -10.0814  -16.9417 N   0  0  0  0  0  0  0  0  0  0  0  0
   21.2196   -9.0323  -16.7075 C   0  0  1  0  0  0  0  0  0  0  0  0
   22.1967   -8.9505  -17.9390 C   0  0  0  0  0  0  0  0  0  0  0  0
   23.2132   -7.8937  -17.7359 C   0  0  0  0  0  0  0  0  0  0  0  0
   24.2860   -8.0164  -16.8347 C   0  0  0  0  0  0  0  0  0  0  0  0
   25.0298   -6.9056  -16.8503 N   0  0  0  0  0  0  0  0  0  0  0  0
   24.4852   -6.0308  -17.7492 C   0  0  0  0  0  0  0  0  0  0  0  0
   24.8808   -4.7696  -18.1203 C   0  0  0  0  0  0  0  0  0  0  0  0
   24.1063   -4.1201  -19.0781 C   0  0  0  0  0  0  0  0  0  0  0  0
   22.9970   -4.7090  -19.6250 C   0  0  0  0  0  0  0  0  0  0  0  0
   22.6222   -5.9690  -19.2350 C   0  0  0  0  0  0  0  0  0  0  0  0
   23.3629   -6.6568  -18.2854 C   0  0  0  0  0  0  0  0  0  0  0  0
   20.6971   -7.7083  -16.4496 C   0  0  0  0  0  0  0  0  0  0  0  0
   19.7062   -7.2309  -17.1045 O   0  0  0  0  0  0  0  0  0  0  0  0
   21.2379   -6.8355  -15.4484 N   0  0  0  0  0  0  0  0  0  0  0  0
   22.3462   -7.0833  -14.5993 C   0  0  0  0  0  0  0  0  0  0  0  0
   21.8427   -6.5629  -13.2381 C   0  0  0  0  0  0  0  0  0  0  0  0
   21.0401   -5.3686  -13.6399 C   0  0  0  0  0  0  0  0  0  0  0  0
   20.6547   -5.5412  -15.0723 C   0  0  1  0  0  0  0  0  0  0  0  0
   21.2903   -4.4572  -15.8637 C   0  0  0  0  0  0  0  0  0  0  0  0
   22.3937   -4.6223  -16.6681 O   0  0  0  0  0  0  0  0  0  0  0  0
   20.8244   -3.2584  -15.8378 O   0  0  0  0  0  0  0  0  0  0  0  0
  2  1  1  6
  2  3  1  0
  4  2  1  0
  4  5  1  1
  6  7  2  0
  6  4  1  0
  8  6  1  0
  9  8  1  0
  9 10  1  6
 10 11  1  0
 11 19  1  0
 11 12  2  0
 12 13  1  0
 14 13  1  0
 14 15  2  0
 16 15  1  0
 17 16  2  0
 18 19  2  0
 18 17  1  0
 19 14  1  0
 20  9  1  0
 21 20  2  0
 22 20  1  0
 22 26  1  0
 23 24  1  0
 23 22  1  0
 24 25  1  0
 25 26  1  0
 26 27  1  6
 27 28  1  0
 29 27  2  0
M  END
$$$$
