TWP.pdb
     RDKit          3D

 29 31  0  0  1  0  0  0  0  0999 V2000
   25.1213  -16.4507  -20.0246 C   0  0  0  0  0  0  0  0  0  0  0  0
   25.2053  -17.6158  -19.1033 C   0  0  1  0  0  0  0  0  0  0  0  0
   24.4862  -18.6803  -19.5978 O   0  0  0  0  0  0  0  0  0  0  0  0
   26.6374  -18.0102  -18.7614 C   0  0  2  0  0  0  0  0  0  0  0  0
   27.2294  -18.4315  -20.0263 N   0  0  0  0  0  0  0  0  0  0  0  0
   26.6572  -19.1071  -17.7412 C   0  0  0  0  0  0  0  0  0  0  0  0
   26.5397  -20.2867  -18.1546 O   0  0  0  0  0  0  0  0  0  0  0  0
   26.8119  -18.8174  -16.3820 N   0  0  0  0  0  0  0  0  0  0  0  0
   26.6127  -19.6644  -15.2713 C   0  0  1  0  0  0  0  0  0  0  0  0
   27.3475  -19.0285  -14.0330 C   0  0  0  0  0  0  0  0  0  0  0  0
   27.3916  -19.9806  -12.9003 C   0  0  0  0  0  0  0  0  0  0  0  0
   28.3784  -20.9732  -12.7632 C   0  0  0  0  0  0  0  0  0  0  0  0
   28.1576  -21.6924  -11.6581 N   0  0  0  0  0  0  0  0  0  0  0  0
   27.0409  -21.2043  -11.0380 C   0  0  0  0  0  0  0  0  0  0  0  0
   26.4156  -21.6010   -9.8820 C   0  0  0  0  0  0  0  0  0  0  0  0
   25.2776  -20.8932   -9.5036 C   0  0  0  0  0  0  0  0  0  0  0  0
   24.7991  -19.8496  -10.2508 C   0  0  0  0  0  0  0  0  0  0  0  0
   25.4413  -19.4750  -11.4030 C   0  0  0  0  0  0  0  0  0  0  0  0
   26.5798  -20.1484  -11.8200 C   0  0  0  0  0  0  0  0  0  0  0  0
   25.2563  -19.9843  -14.8835 C   0  0  0  0  0  0  0  0  0  0  0  0
   24.3191  -19.1127  -14.9132 O   0  0  0  0  0  0  0  0  0  0  0  0
   24.8558  -21.2891  -14.4435 N   0  0  0  0  0  0  0  0  0  0  0  0
   25.6900  -22.4122  -14.2122 C   0  0  0  0  0  0  0  0  0  0  0  0
   24.8806  -23.5613  -14.8461 C   0  0  0  0  0  0  0  0  0  0  0  0
   23.4772  -23.1750  -14.5096 C   0  0  0  0  0  0  0  0  0  0  0  0
   23.4621  -21.7059  -14.2419 C   0  0  1  0  0  0  0  0  0  0  0  0
   23.0757  -21.4907  -12.8242 C   0  0  0  0  0  0  0  0  0  0  0  0
   21.7803  -21.3671  -12.3787 O   0  0  0  0  0  0  0  0  0  0  0  0
   23.9672  -21.4047  -11.9009 O   0  0  0  0  0  0  0  0  0  0  0  0
  2  1  1  6
  2  3  1  0
  4  2  1  0
  4  5  1  6
  6  7  2  0
  6  4  1  0
  8  6  1  0
  9  8  1  0
  9 10  1  1
 10 11  1  0
 11 19  1  0
 11 12  2  0
 12 13  1  0
 14 13  1  0
 14 15  2  0
 16 15  1  0
 17 16  2  0
 18 19  2  0
 18 17  1  0
 19 14  1  0
 20  9  1  0
 21 20  2  0
 22 20  1  0
 22 26  1  0
 23 24  1  0
 23 22  1  0
 24 25  1  0
 25 26  1  0
 26 27  1  1
 27 28  1  0
 29 27  2  0
M  END
$$$$
