TWP.pdb
     RDKit          3D

 29 31  0  0  1  0  0  0  0  0999 V2000
   25.9317  -17.5492  -14.8071 C   0  0  0  0  0  0  0  0  0  0  0  0
   27.0976  -18.2440  -15.4163 C   0  0  1  0  0  0  0  0  0  0  0  0
   27.5692  -17.5425  -16.5028 O   0  0  0  0  0  0  0  0  0  0  0  0
   28.2060  -18.5496  -14.4156 C   0  0  2  0  0  0  0  0  0  0  0  0
   29.2855  -19.1293  -15.2071 N   0  0  0  0  0  0  0  0  0  0  0  0
   27.7206  -19.4913  -13.3563 C   0  0  0  0  0  0  0  0  0  0  0  0
   27.6607  -20.7111  -13.6470 O   0  0  0  0  0  0  0  0  0  0  0  0
   27.3600  -19.0196  -12.0902 N   0  0  0  0  0  0  0  0  0  0  0  0
   26.8215  -19.7379  -11.0018 C   0  0  1  0  0  0  0  0  0  0  0  0
   27.0531  -18.8919   -9.6946 C   0  0  0  0  0  0  0  0  0  0  0  0
   26.6759  -19.6673   -8.4913 C   0  0  0  0  0  0  0  0  0  0  0  0
   25.4752  -20.3916   -8.3839 C   0  0  0  0  0  0  0  0  0  0  0  0
   25.3963  -20.9770   -7.1846 N   0  0  0  0  0  0  0  0  0  0  0  0
   26.5239  -20.6679   -6.4754 C   0  0  0  0  0  0  0  0  0  0  0  0
   26.9080  -21.0271   -5.2072 C   0  0  0  0  0  0  0  0  0  0  0  0
   28.1348  -20.5454   -4.7578 C   0  0  0  0  0  0  0  0  0  0  0  0
   28.9238  -19.7461   -5.5420 C   0  0  0  0  0  0  0  0  0  0  0  0
   28.5155  -19.4000   -6.8044 C   0  0  0  0  0  0  0  0  0  0  0  0
   27.3022  -19.8568   -7.2972 C   0  0  0  0  0  0  0  0  0  0  0  0
   25.4291  -20.1266  -11.0543 C   0  0  0  0  0  0  0  0  0  0  0  0
   24.4903  -19.2678  -11.1950 O   0  0  0  0  0  0  0  0  0  0  0  0
   24.9935  -21.4895  -10.9581 N   0  0  0  0  0  0  0  0  0  0  0  0
   25.7500  -22.6050  -10.5175 C   0  0  0  0  0  0  0  0  0  0  0  0
   25.3696  -23.6893  -11.5456 C   0  0  0  0  0  0  0  0  0  0  0  0
   23.9247  -23.3956  -11.7863 C   0  0  0  0  0  0  0  0  0  0  0  0
   23.6794  -21.9743  -11.3994 C   0  0  1  0  0  0  0  0  0  0  0  0
   22.7300  -21.9554  -10.2576 C   0  0  0  0  0  0  0  0  0  0  0  0
   23.1000  -21.8573   -8.9366 O   0  0  0  0  0  0  0  0  0  0  0  0
   21.4606  -22.0330  -10.4510 O   0  0  0  0  0  0  0  0  0  0  0  0
  2  1  1  1
  2  3  1  0
  4  2  1  0
  4  5  1  6
  6  7  2  0
  6  4  1  0
  8  6  1  0
  9  8  1  0
  9 10  1  1
 10 11  1  0
 11 19  1  0
 11 12  2  0
 12 13  1  0
 14 13  1  0
 14 15  2  0
 16 15  1  0
 17 16  2  0
 18 19  2  0
 18 17  1  0
 19 14  1  0
 20  9  1  0
 21 20  2  0
 22 20  1  0
 22 26  1  0
 23 24  1  0
 23 22  1  0
 24 25  1  0
 25 26  1  0
 26 27  1  1
 27 28  1  0
 29 27  2  0
M  END
$$$$
