TWP.pdb
     RDKit          3D

 29 31  0  0  1  0  0  0  0  0999 V2000
   20.3669  -22.9162  -13.6315 C   0  0  0  0  0  0  0  0  0  0  0  0
   21.6581  -22.1834  -13.7257 C   0  0  1  0  0  0  0  0  0  0  0  0
   21.8272  -21.6549  -14.9855 O   0  0  0  0  0  0  0  0  0  0  0  0
   21.8305  -21.1267  -12.6408 C   0  0  2  0  0  0  0  0  0  0  0  0
   20.7630  -20.1607  -12.8761 N   0  0  0  0  0  0  0  0  0  0  0  0
   23.1861  -20.4945  -12.7255 C   0  0  0  0  0  0  0  0  0  0  0  0
   23.2631  -19.3525  -13.2414 O   0  0  0  0  0  0  0  0  0  0  0  0
   24.3161  -21.1565  -12.2354 N   0  0  0  0  0  0  0  0  0  0  0  0
   25.6775  -20.8719  -12.4732 C   0  0  1  0  0  0  0  0  0  0  0  0
   26.5360  -21.6835  -11.4329 C   0  0  0  0  0  0  0  0  0  0  0  0
   26.4941  -21.0412  -10.0998 C   0  0  0  0  0  0  0  0  0  0  0  0
   25.3213  -20.5079   -9.5357 C   0  0  0  0  0  0  0  0  0  0  0  0
   25.5862  -19.9798   -8.3364 N   0  0  0  0  0  0  0  0  0  0  0  0
   26.9173  -20.1482   -8.0721 C   0  0  0  0  0  0  0  0  0  0  0  0
   27.6645  -19.7817   -6.9802 C   0  0  0  0  0  0  0  0  0  0  0  0
   29.0203  -20.0982   -7.0067 C   0  0  0  0  0  0  0  0  0  0  0  0
   29.5869  -20.7431   -8.0742 C   0  0  0  0  0  0  0  0  0  0  0  0
   28.8184  -21.0959   -9.1536 C   0  0  0  0  0  0  0  0  0  0  0  0
   27.4628  -20.8040   -9.1728 C   0  0  0  0  0  0  0  0  0  0  0  0
   26.2112  -21.1152  -13.7956 C   0  0  0  0  0  0  0  0  0  0  0  0
   25.7613  -22.0486  -14.5472 O   0  0  0  0  0  0  0  0  0  0  0  0
   27.2721  -20.3370  -14.3660 N   0  0  0  0  0  0  0  0  0  0  0  0
   28.0494  -19.3406  -13.7228 C   0  0  0  0  0  0  0  0  0  0  0  0
   28.1172  -18.2324  -14.7927 C   0  0  0  0  0  0  0  0  0  0  0  0
   28.2141  -19.0252  -16.0552 C   0  0  0  0  0  0  0  0  0  0  0  0
   27.6740  -20.3895  -15.7775 C   0  0  1  0  0  0  0  0  0  0  0  0
   28.7730  -21.3736  -15.9485 C   0  0  0  0  0  0  0  0  0  0  0  0
   29.2811  -21.7728  -17.1627 O   0  0  0  0  0  0  0  0  0  0  0  0
   29.3302  -21.9271  -14.9297 O   0  0  0  0  0  0  0  0  0  0  0  0
  2  1  1  6
  2  3  1  0
  4  2  1  0
  4  5  1  6
  6  7  2  0
  6  4  1  0
  8  6  1  0
  9  8  1  0
  9 10  1  1
 10 11  1  0
 11 19  1  0
 11 12  2  0
 12 13  1  0
 14 13  1  0
 14 15  2  0
 16 15  1  0
 17 16  2  0
 18 19  2  0
 18 17  1  0
 19 14  1  0
 20  9  1  0
 21 20  2  0
 22 20  1  0
 22 26  1  0
 23 24  1  0
 23 22  1  0
 24 25  1  0
 25 26  1  0
 26 27  1  1
 27 28  1  0
 29 27  2  0
M  END
$$$$
