TWP.pdb
     RDKit          3D

 29 31  0  0  1  0  0  0  0  0999 V2000
   22.7585  -16.5780  -21.2924 C   0  0  0  0  0  0  0  0  0  0  0  0
   23.7722  -17.2776  -20.4580 C   0  0  1  0  0  0  0  0  0  0  0  0
   24.5599  -18.0973  -21.2343 O   0  0  0  0  0  0  0  0  0  0  0  0
   24.6087  -16.3295  -19.6068 C   0  0  2  0  0  0  0  0  0  0  0  0
   25.3145  -15.4818  -20.5615 N   0  0  0  0  0  0  0  0  0  0  0  0
   25.5540  -17.0946  -18.7321 C   0  0  0  0  0  0  0  0  0  0  0  0
   26.6010  -17.5424  -19.2607 O   0  0  0  0  0  0  0  0  0  0  0  0
   25.2758  -17.2883  -17.3754 N   0  0  0  0  0  0  0  0  0  0  0  0
   25.9644  -18.0883  -16.4392 C   0  0  1  0  0  0  0  0  0  0  0  0
   25.4894  -17.6727  -14.9971 C   0  0  0  0  0  0  0  0  0  0  0  0
   26.1672  -18.4876  -13.9637 C   0  0  0  0  0  0  0  0  0  0  0  0
   27.5600  -18.4857  -13.7688 C   0  0  0  0  0  0  0  0  0  0  0  0
   27.8879  -19.3256  -12.7818 N   0  0  0  0  0  0  0  0  0  0  0  0
   26.7429  -19.8958  -12.2982 C   0  0  0  0  0  0  0  0  0  0  0  0
   26.5571  -20.8127  -11.2935 C   0  0  0  0  0  0  0  0  0  0  0  0
   25.2474  -21.2062  -11.0307 C   0  0  0  0  0  0  0  0  0  0  0  0
   24.1901  -20.7053  -11.7432 C   0  0  0  0  0  0  0  0  0  0  0  0
   24.4035  -19.7922  -12.7436 C   0  0  0  0  0  0  0  0  0  0  0  0
   25.6900  -19.3681  -13.0411 C   0  0  0  0  0  0  0  0  0  0  0  0
   25.8643  -19.5267  -16.5568 C   0  0  0  0  0  0  0  0  0  0  0  0
   24.7680  -20.1065  -16.8740 O   0  0  0  0  0  0  0  0  0  0  0  0
   26.9731  -20.4085  -16.3340 N   0  0  0  0  0  0  0  0  0  0  0  0
   28.2647  -20.0635  -15.8614 C   0  0  0  0  0  0  0  0  0  0  0  0
   29.1851  -20.8904  -16.7815 C   0  0  0  0  0  0  0  0  0  0  0  0
   28.4023  -22.1513  -16.9517 C   0  0  0  0  0  0  0  0  0  0  0  0
   26.9718  -21.8415  -16.6551 C   0  0  1  0  0  0  0  0  0  0  0  0
   26.5602  -22.6216  -15.4603 C   0  0  0  0  0  0  0  0  0  0  0  0
   26.3024  -23.9727  -15.4613 O   0  0  0  0  0  0  0  0  0  0  0  0
   26.4169  -22.0526  -14.3156 O   0  0  0  0  0  0  0  0  0  0  0  0
  2  1  1  6
  2  3  1  0
  4  2  1  0
  4  5  1  6
  6  7  2  0
  6  4  1  0
  8  6  1  0
  9  8  1  0
  9 10  1  1
 10 11  1  0
 11 19  1  0
 11 12  2  0
 12 13  1  0
 14 13  1  0
 14 15  2  0
 16 15  1  0
 17 16  2  0
 18 19  2  0
 18 17  1  0
 19 14  1  0
 20  9  1  0
 21 20  2  0
 22 20  1  0
 22 26  1  0
 23 24  1  0
 23 22  1  0
 24 25  1  0
 25 26  1  0
 26 27  1  1
 27 28  1  0
 29 27  2  0
M  END
$$$$
