TWP.pdb
     RDKit          3D

 29 31  0  0  1  0  0  0  0  0999 V2000
   28.5522  -16.4829  -14.7455 C   0  0  0  0  0  0  0  0  0  0  0  0
   27.7094  -17.7088  -14.7431 C   0  0  1  0  0  0  0  0  0  0  0  0
   26.8283  -17.6958  -15.8007 O   0  0  0  0  0  0  0  0  0  0  0  0
   28.5221  -18.9975  -14.6994 C   0  0  2  0  0  0  0  0  0  0  0  0
   29.2477  -19.0340  -15.9644 N   0  0  0  0  0  0  0  0  0  0  0  0
   27.6252  -20.1860  -14.5340 C   0  0  0  0  0  0  0  0  0  0  0  0
   27.2376  -20.7703  -15.5754 O   0  0  0  0  0  0  0  0  0  0  0  0
   27.2480  -20.6262  -13.2615 N   0  0  0  0  0  0  0  0  0  0  0  0
   26.2706  -21.5820  -12.9126 C   0  0  1  0  0  0  0  0  0  0  0  0
   26.6305  -22.1533  -11.4906 C   0  0  0  0  0  0  0  0  0  0  0  0
   26.4200  -21.1293  -10.4425 C   0  0  0  0  0  0  0  0  0  0  0  0
   25.3169  -20.2571  -10.4249 C   0  0  0  0  0  0  0  0  0  0  0  0
   25.3979  -19.4333   -9.3751 N   0  0  0  0  0  0  0  0  0  0  0  0
   26.5340  -19.7322   -8.6752 C   0  0  0  0  0  0  0  0  0  0  0  0
   27.0521  -19.1742   -7.5328 C   0  0  0  0  0  0  0  0  0  0  0  0
   28.2467  -19.7065   -7.0546 C   0  0  0  0  0  0  0  0  0  0  0  0
   28.8807  -20.7383   -7.6948 C   0  0  0  0  0  0  0  0  0  0  0  0
   28.3431  -21.2761   -8.8358 C   0  0  0  0  0  0  0  0  0  0  0  0
   27.1538  -20.7809   -9.3497 C   0  0  0  0  0  0  0  0  0  0  0  0
   24.8822  -21.1758  -12.9042 C   0  0  0  0  0  0  0  0  0  0  0  0
   24.5217  -20.0004  -12.5476 O   0  0  0  0  0  0  0  0  0  0  0  0
   23.8106  -22.0456  -13.2939 N   0  0  0  0  0  0  0  0  0  0  0  0
   23.8805  -23.4410  -13.5358 C   0  0  0  0  0  0  0  0  0  0  0  0
   23.0308  -23.5981  -14.8128 C   0  0  0  0  0  0  0  0  0  0  0  0
   21.9446  -22.5974  -14.5881 C   0  0  0  0  0  0  0  0  0  0  0  0
   22.4462  -21.5966  -13.5996 C   0  0  1  0  0  0  0  0  0  0  0  0
   21.6061  -21.6812  -12.3779 C   0  0  0  0  0  0  0  0  0  0  0  0
   20.4091  -21.0257  -12.2071 O   0  0  0  0  0  0  0  0  0  0  0  0
   21.9677  -22.4004  -11.3745 O   0  0  0  0  0  0  0  0  0  0  0  0
  2  1  1  6
  2  3  1  0
  4  2  1  0
  4  5  1  6
  6  7  2  0
  6  4  1  0
  8  6  1  0
  9  8  1  0
  9 10  1  1
 10 11  1  0
 11 19  1  0
 11 12  2  0
 12 13  1  0
 14 13  1  0
 14 15  2  0
 16 15  1  0
 17 16  2  0
 18 19  2  0
 18 17  1  0
 19 14  1  0
 20  9  1  0
 21 20  2  0
 22 20  1  0
 22 26  1  0
 23 24  1  0
 23 22  1  0
 24 25  1  0
 25 26  1  0
 26 27  1  1
 27 28  1  0
 29 27  2  0
M  END
$$$$
