RLS.pdb
     RDKit          3D

 26 25  0  0  1  0  0  0  0  0999 V2000
   10.6677  -21.3613   19.8550 N   0  0  0  0  0  0  0  0  0  0  0  0
    9.6159  -21.0531   18.9556 C   0  0  0  0  0  0  0  0  0  0  0  0
    9.7726  -21.1800   17.6968 N   0  0  0  0  0  0  0  0  0  0  0  0
    8.3651  -20.5955   19.4564 N   0  0  0  0  0  0  0  0  0  0  0  0
    8.2681  -20.3867   20.8848 C   0  0  0  0  0  0  0  0  0  0  0  0
    9.1015  -19.1767   21.2378 C   0  0  0  0  0  0  0  0  0  0  0  0
    8.2731  -18.1536   21.9607 C   0  0  0  0  0  0  0  0  0  0  0  0
    8.6748  -16.7465   21.6525 C   0  0  2  0  0  0  0  0  0  0  0  0
    9.6581  -16.7170   20.6186 N   0  0  0  0  0  0  0  0  0  0  0  0
    9.0768  -15.9838   22.8584 C   0  0  0  0  0  0  0  0  0  0  0  0
   10.3096  -15.9140   23.1879 O   0  0  0  0  0  0  0  0  0  0  0  0
    8.9918  -20.9326   17.0319 C   0  0  0  0  0  0  0  0  0  0  0  0
    8.0072  -11.5972   26.3277 C   0  0  2  0  0  0  0  0  0  0  0  0
    7.1703  -12.8048   26.2237 C   0  0  0  0  0  0  0  0  0  0  0  0
    5.7114  -12.3259   26.4245 C   0  0  0  0  0  0  0  0  0  0  0  0
    7.2663  -13.6912   25.0680 C   0  0  1  0  0  0  0  0  0  0  0  0
    8.4245  -14.5720   24.8459 N   0  0  0  0  0  0  0  0  0  0  0  0
    8.0723  -15.3463   23.6208 C   0  0  0  0  0  0  0  0  0  0  0  0
    8.7197  -15.5977   25.8539 O   0  0  0  0  0  0  0  0  0  0  0  0
    7.9254  -16.5584   25.9982 O   0  0  0  0  0  0  0  0  0  0  0  0
   11.9486  -18.4433   27.5754 C   0  0  0  0  0  0  0  0  0  0  0  0
   11.5251  -17.3615   26.8423 C   0  0  1  0  0  0  0  0  0  0  0  0
   10.2426  -16.7605   27.4311 N   0  0  0  0  0  0  0  0  0  0  0  0
    9.8543  -15.5901   26.6955 C   0  0  0  0  0  0  0  0  0  0  0  0
   10.4529  -16.4085   28.8556 O   0  0  0  0  0  0  0  0  0  0  0  0
   10.2913  -15.1382   29.3681 O   0  0  0  0  0  0  0  0  0  0  0  0
  2  4  1  0
  2  1  1  0
  3  2  2  0
  5  6  1  0
  5  4  1  0
  6  7  1  0
  8  7  1  0
  8  9  1  6
 10  8  1  0
 10 17  1  0
 11 10  2  0
 13 12  1  1
 14 13  1  0
 15 13  1  0
 16 15  1  6
 16 17  1  0
 18 16  1  0
 19 18  2  0
 20 21  1  0
 22 23  1  0
 22 21  1  6
 23 18  1  0
 24 22  1  0
 25 24  1  0
 26 24  2  0
M  END
$$$$
