RLS.pdb
     RDKit          3D

 26 25  0  0  1  0  0  0  0  0999 V2000
    9.8279  -13.4140   18.3934 N   0  0  0  0  0  0  0  0  0  0  0  0
    8.4970  -12.9296   18.4585 C   0  0  0  0  0  0  0  0  0  0  0  0
    8.2526  -11.6791   18.4144 N   0  0  0  0  0  0  0  0  0  0  0  0
    7.4135  -13.8446   18.5747 N   0  0  0  0  0  0  0  0  0  0  0  0
    7.7508  -15.2428   18.7322 C   0  0  0  0  0  0  0  0  0  0  0  0
    7.2127  -15.7059   20.0661 C   0  0  0  0  0  0  0  0  0  0  0  0
    8.2988  -15.7131   21.1035 C   0  0  0  0  0  0  0  0  0  0  0  0
    8.0736  -16.7217   22.1843 C   0  0  2  0  0  0  0  0  0  0  0  0
    6.6933  -17.0750   22.2658 N   0  0  0  0  0  0  0  0  0  0  0  0
    8.6454  -16.3081   23.4879 C   0  0  0  0  0  0  0  0  0  0  0  0
    9.9091  -16.1646   23.6139 O   0  0  0  0  0  0  0  0  0  0  0  0
    7.2580  -11.3277   18.4016 C   0  0  0  0  0  0  0  0  0  0  0  0
    6.0470  -12.3835   26.2615 C   0  0  1  0  0  0  0  0  0  0  0  0
    7.1213  -13.2835   25.8082 C   0  0  0  0  0  0  0  0  0  0  0  0
    8.4412  -12.4982   26.0056 C   0  0  0  0  0  0  0  0  0  0  0  0
    7.2441  -14.6377   26.3389 C   0  0  2  0  0  0  0  0  0  0  0  0
    8.2809  -15.5737   25.8747 N   0  0  0  0  0  0  0  0  0  0  0  0
    7.7658  -16.0809   24.5701 C   0  0  0  0  0  0  0  0  0  0  0  0
    8.5266  -16.7854   26.6662 O   0  0  0  0  0  0  0  0  0  0  0  0
    7.5492  -17.4715   27.0518 O   0  0  0  0  0  0  0  0  0  0  0  0
   11.4502  -19.3296   26.2367 C   0  0  0  0  0  0  0  0  0  0  0  0
   10.3791  -19.6244   27.0447 C   0  0  1  0  0  0  0  0  0  0  0  0
    9.9620  -18.4066   27.8788 N   0  0  0  0  0  0  0  0  0  0  0  0
    9.8068  -17.2530   27.0381 C   0  0  0  0  0  0  0  0  0  0  0  0
   10.9789  -18.1317   28.9217 O   0  0  0  0  0  0  0  0  0  0  0  0
   11.3517  -19.0372   29.8931 O   0  0  0  0  0  0  0  0  0  0  0  0
  2  4  1  0
  2  1  1  0
  3  2  2  0
  5  6  1  0
  5  4  1  0
  6  7  1  0
  8  7  1  0
  8  9  1  1
 10  8  1  0
 10 17  1  0
 11 10  2  0
 13 12  1  6
 14 13  1  0
 15 13  1  0
 16 15  1  6
 16 17  1  0
 18 16  1  0
 19 18  2  0
 20 21  1  0
 22 23  1  0
 22 21  1  6
 23 18  1  0
 24 22  1  0
 25 24  1  0
 26 24  2  0
M  END
$$$$
