RLS.pdb
     RDKit          3D

 26 25  0  0  1  0  0  0  0  0999 V2000
    8.6483  -14.7428   16.7950 N   0  0  0  0  0  0  0  0  0  0  0  0
    8.0847  -13.7183   17.5970 C   0  0  0  0  0  0  0  0  0  0  0  0
    8.6636  -12.5889   17.7184 N   0  0  0  0  0  0  0  0  0  0  0  0
    6.8567  -13.9455   18.2790 N   0  0  0  0  0  0  0  0  0  0  0  0
    6.9421  -14.3367   19.6692 C   0  0  0  0  0  0  0  0  0  0  0  0
    7.4296  -15.7660   19.7234 C   0  0  0  0  0  0  0  0  0  0  0  0
    7.8671  -16.1256   21.1144 C   0  0  0  0  0  0  0  0  0  0  0  0
    8.8782  -15.1783   21.6768 C   0  0  2  0  0  0  0  0  0  0  0  0
   10.1347  -15.3308   21.0174 N   0  0  0  0  0  0  0  0  0  0  0  0
    8.9838  -15.2564   23.1532 C   0  0  0  0  0  0  0  0  0  0  0  0
   10.0377  -15.7370   23.6933 O   0  0  0  0  0  0  0  0  0  0  0  0
    8.2269  -11.8224   18.2969 C   0  0  0  0  0  0  0  0  0  0  0  0
    5.7166  -11.7162   26.1803 C   0  0  1  0  0  0  0  0  0  0  0  0
    6.8931  -12.5281   25.8249 C   0  0  0  0  0  0  0  0  0  0  0  0
    8.0513  -12.0020   26.7078 C   0  0  0  0  0  0  0  0  0  0  0  0
    6.8409  -13.9864   25.8601 C   0  0  2  0  0  0  0  0  0  0  0  0
    7.9691  -14.8249   25.4233 N   0  0  0  0  0  0  0  0  0  0  0  0
    7.9017  -14.7912   23.9338 C   0  0  0  0  0  0  0  0  0  0  0  0
    7.9418  -16.2541   25.7578 O   0  0  0  0  0  0  0  0  0  0  0  0
    7.1939  -17.0202   25.1034 O   0  0  0  0  0  0  0  0  0  0  0  0
   10.4203  -19.6929   25.2655 C   0  0  0  0  0  0  0  0  0  0  0  0
    9.9500  -18.4066   25.3713 C   0  0  1  0  0  0  0  0  0  0  0  0
    9.1665  -18.2081   26.6749 N   0  0  0  0  0  0  0  0  0  0  0  0
    8.7091  -16.8513   26.7827 C   0  0  0  0  0  0  0  0  0  0  0  0
   10.0223  -18.5409   27.8386 O   0  0  0  0  0  0  0  0  0  0  0  0
   10.2881  -19.8279   28.2575 O   0  0  0  0  0  0  0  0  0  0  0  0
  2  4  1  0
  2  1  1  0
  3  2  2  0
  5  6  1  0
  5  4  1  0
  6  7  1  0
  8  7  1  0
  8  9  1  6
 10  8  1  0
 10 17  1  0
 11 10  2  0
 13 12  1  6
 14 13  1  0
 15 13  1  0
 16 15  1  6
 16 17  1  0
 18 16  1  0
 19 18  2  0
 20 21  1  0
 22 23  1  0
 22 21  1  6
 23 18  1  0
 24 22  1  0
 25 24  1  0
 26 24  2  0
M  END
$$$$
