RLS.pdb
     RDKit          3D

 26 25  0  0  1  0  0  0  0  0999 V2000
    9.2550  -12.6231   16.2791 N   0  0  0  0  0  0  0  0  0  0  0  0
    8.4814  -13.7995   16.1115 C   0  0  0  0  0  0  0  0  0  0  0  0
    8.0189  -14.1215   14.9679 N   0  0  0  0  0  0  0  0  0  0  0  0
    8.2129  -14.6376   17.2296 N   0  0  0  0  0  0  0  0  0  0  0  0
    8.6636  -14.1697   18.5223 C   0  0  0  0  0  0  0  0  0  0  0  0
    8.3685  -15.2482   19.5387 C   0  0  0  0  0  0  0  0  0  0  0  0
    8.8731  -14.8512   20.8963 C   0  0  0  0  0  0  0  0  0  0  0  0
    8.6783  -15.9136   21.9305 C   0  0  2  0  0  0  0  0  0  0  0  0
    7.3490  -16.4305   21.8793 N   0  0  0  0  0  0  0  0  0  0  0  0
    9.0798  -15.4772   23.2890 C   0  0  0  0  0  0  0  0  0  0  0  0
   10.2676  -15.0544   23.4986 O   0  0  0  0  0  0  0  0  0  0  0  0
    7.3344  -14.9184   14.8718 C   0  0  0  0  0  0  0  0  0  0  0  0
    5.5879  -12.2332   26.0906 C   0  0  1  0  0  0  0  0  0  0  0  0
    6.8269  -12.8887   25.6383 C   0  0  0  0  0  0  0  0  0  0  0  0
    7.9796  -11.9362   26.0406 C   0  0  0  0  0  0  0  0  0  0  0  0
    7.1366  -14.2623   26.0230 C   0  0  2  0  0  0  0  0  0  0  0  0
    8.4028  -14.9162   25.6547 N   0  0  0  0  0  0  0  0  0  0  0  0
    8.1256  -15.5415   24.3292 C   0  0  0  0  0  0  0  0  0  0  0  0
    8.8793  -16.0259   26.4894 O   0  0  0  0  0  0  0  0  0  0  0  0
    8.9736  -15.8602   27.7297 O   0  0  0  0  0  0  0  0  0  0  0  0
    9.9131  -19.7833   24.9792 C   0  0  0  0  0  0  0  0  0  0  0  0
    9.4937  -19.7070   26.2850 C   0  0  1  0  0  0  0  0  0  0  0  0
    9.7584  -18.3149   26.8721 N   0  0  0  0  0  0  0  0  0  0  0  0
    9.2496  -17.2969   25.9964 C   0  0  0  0  0  0  0  0  0  0  0  0
   11.2133  -18.1169   27.0762 O   0  0  0  0  0  0  0  0  0  0  0  0
   11.9791  -18.8660   27.9449 O   0  0  0  0  0  0  0  0  0  0  0  0
  2  4  1  0
  2  1  1  0
  3  2  2  0
  5  6  1  0
  5  4  1  0
  6  7  1  0
  8  7  1  0
  8  9  1  1
 10  8  1  0
 10 17  1  0
 11 10  2  0
 13 12  1  6
 14 13  1  0
 15 13  1  0
 16 15  1  6
 16 17  1  0
 18 16  1  0
 19 18  2  0
 20 21  1  0
 22 23  1  0
 22 21  1  1
 23 18  1  0
 24 22  1  0
 25 24  1  0
 26 24  2  0
M  END
$$$$
