RLS.pdb
     RDKit          3D

 26 25  0  0  1  0  0  0  0  0999 V2000
    7.8247  -12.9250   16.0071 N   0  0  0  0  0  0  0  0  0  0  0  0
    8.7201  -14.0012   16.2314 C   0  0  0  0  0  0  0  0  0  0  0  0
    9.4739  -14.4311   15.2974 N   0  0  0  0  0  0  0  0  0  0  0  0
    8.7846  -14.6154   17.5133 N   0  0  0  0  0  0  0  0  0  0  0  0
    7.5311  -14.8164   18.2073 C   0  0  0  0  0  0  0  0  0  0  0  0
    7.3812  -13.7142   19.2300 C   0  0  0  0  0  0  0  0  0  0  0  0
    8.5270  -13.7311   20.2009 C   0  0  0  0  0  0  0  0  0  0  0  0
    8.4792  -14.8876   21.1477 C   0  0  2  0  0  0  0  0  0  0  0  0
    7.2165  -15.5485   21.0743 N   0  0  0  0  0  0  0  0  0  0  0  0
    8.8612  -14.5170   22.5312 C   0  0  0  0  0  0  0  0  0  0  0  0
    9.9794  -13.9387   22.7515 O   0  0  0  0  0  0  0  0  0  0  0  0
   10.0742  -15.2861   15.4440 C   0  0  0  0  0  0  0  0  0  0  0  0
    5.9424  -12.0326   26.9287 C   0  0  1  0  0  0  0  0  0  0  0  0
    6.7723  -12.4495   25.7856 C   0  0  0  0  0  0  0  0  0  0  0  0
    8.1309  -11.7284   25.9651 C   0  0  0  0  0  0  0  0  0  0  0  0
    6.9763  -13.8617   25.4775 C   0  0  2  0  0  0  0  0  0  0  0  0
    8.2600  -14.3808   24.9785 N   0  0  0  0  0  0  0  0  0  0  0  0
    7.9665  -14.8174   23.5829 C   0  0  0  0  0  0  0  0  0  0  0  0
    8.8241  -15.5731   25.6231 O   0  0  0  0  0  0  0  0  0  0  0  0
    8.9862  -15.5756   26.8674 O   0  0  0  0  0  0  0  0  0  0  0  0
   10.0725  -18.9739   23.5370 C   0  0  0  0  0  0  0  0  0  0  0  0
    9.5282  -19.1608   24.7843 C   0  0  1  0  0  0  0  0  0  0  0  0
    9.6784  -17.9030   25.6491 N   0  0  0  0  0  0  0  0  0  0  0  0
    9.2088  -16.7472   24.9381 C   0  0  0  0  0  0  0  0  0  0  0  0
   11.0988  -17.7131   26.0287 O   0  0  0  0  0  0  0  0  0  0  0  0
   11.8171  -18.6043   26.7982 O   0  0  0  0  0  0  0  0  0  0  0  0
  2  4  1  0
  2  1  1  0
  3  2  2  0
  5  6  1  0
  5  4  1  0
  6  7  1  0
  8  7  1  0
  8  9  1  1
 10  8  1  0
 10 17  1  0
 11 10  2  0
 13 12  1  6
 14 13  1  0
 15 13  1  0
 16 15  1  6
 16 17  1  0
 18 16  1  0
 19 18  2  0
 20 21  1  0
 22 23  1  0
 22 21  1  1
 23 18  1  0
 24 22  1  0
 25 24  1  0
 26 24  2  0
M  END
$$$$
