RLS.pdb
     RDKit          3D

 26 25  0  0  1  0  0  0  0  0999 V2000
    4.3918  -19.2696   18.2706 N   0  0  0  0  0  0  0  0  0  0  0  0
    5.5732  -19.0478   17.5187 C   0  0  0  0  0  0  0  0  0  0  0  0
    5.6213  -19.3299   16.2764 N   0  0  0  0  0  0  0  0  0  0  0  0
    6.7253  -18.5030   18.1517 N   0  0  0  0  0  0  0  0  0  0  0  0
    6.5842  -18.0990   19.5338 C   0  0  0  0  0  0  0  0  0  0  0  0
    7.9304  -17.6131   20.0184 C   0  0  0  0  0  0  0  0  0  0  0  0
    7.8597  -17.2051   21.4620 C   0  0  0  0  0  0  0  0  0  0  0  0
    7.8968  -15.7230   21.6574 C   0  0  2  0  0  0  0  0  0  0  0  0
    8.4606  -15.0772   20.5165 N   0  0  0  0  0  0  0  0  0  0  0  0
    8.5446  -15.3245   22.9297 C   0  0  0  0  0  0  0  0  0  0  0  0
    9.8174  -15.2300   22.9956 O   0  0  0  0  0  0  0  0  0  0  0  0
    6.5189  -19.2127   15.7347 C   0  0  0  0  0  0  0  0  0  0  0  0
    5.7597  -11.9105   26.2558 C   0  0  1  0  0  0  0  0  0  0  0  0
    6.8723  -12.6232   25.6048 C   0  0  0  0  0  0  0  0  0  0  0  0
    8.0662  -11.6370   25.6105 C   0  0  0  0  0  0  0  0  0  0  0  0
    7.2933  -13.9432   26.0641 C   0  0  2  0  0  0  0  0  0  0  0  0
    8.3319  -14.7231   25.3715 N   0  0  0  0  0  0  0  0  0  0  0  0
    7.7261  -15.0566   24.0500 C   0  0  0  0  0  0  0  0  0  0  0  0
    8.7158  -16.0228   25.9357 O   0  0  0  0  0  0  0  0  0  0  0  0
    7.8417  -16.9136   26.0671 O   0  0  0  0  0  0  0  0  0  0  0  0
   12.2990  -17.3627   25.5920 C   0  0  0  0  0  0  0  0  0  0  0  0
   11.4806  -18.3066   26.1631 C   0  0  1  0  0  0  0  0  0  0  0  0
   10.3151  -17.6494   26.9130 N   0  0  0  0  0  0  0  0  0  0  0  0
   10.0226  -16.3600   26.3531 C   0  0  0  0  0  0  0  0  0  0  0  0
   10.6509  -17.5057   28.3497 O   0  0  0  0  0  0  0  0  0  0  0  0
   11.0240  -18.5552   29.1632 O   0  0  0  0  0  0  0  0  0  0  0  0
  2  4  1  0
  2  1  1  0
  3  2  2  0
  5  6  1  0
  5  4  1  0
  6  7  1  0
  8  7  1  0
  8  9  1  6
 10  8  1  0
 10 17  1  0
 11 10  2  0
 13 12  1  6
 14 13  1  0
 15 13  1  0
 16 15  1  6
 16 17  1  0
 18 16  1  0
 19 18  2  0
 20 21  1  0
 22 23  1  0
 22 21  1  6
 23 18  1  0
 24 22  1  0
 25 24  1  0
 26 24  2  0
M  END
$$$$
