RLS.pdb
     RDKit          3D

 26 25  0  0  1  0  0  0  0  0999 V2000
    8.0640  -15.0591   15.5617 N   0  0  0  0  0  0  0  0  0  0  0  0
    8.2723  -13.7624   16.0960 C   0  0  0  0  0  0  0  0  0  0  0  0
    8.8732  -12.8644   15.4194 N   0  0  0  0  0  0  0  0  0  0  0  0
    7.8076  -13.4508   17.4043 N   0  0  0  0  0  0  0  0  0  0  0  0
    6.9432  -14.4208   18.0408 C   0  0  0  0  0  0  0  0  0  0  0  0
    7.8066  -15.3439   18.8688 C   0  0  0  0  0  0  0  0  0  0  0  0
    8.2174  -14.6788   20.1512 C   0  0  0  0  0  0  0  0  0  0  0  0
    8.4916  -15.6488   21.2558 C   0  0  2  0  0  0  0  0  0  0  0  0
    7.3873  -16.5347   21.4356 N   0  0  0  0  0  0  0  0  0  0  0  0
    8.9164  -14.9874   22.5125 C   0  0  0  0  0  0  0  0  0  0  0  0
    9.9888  -14.2927   22.5373 O   0  0  0  0  0  0  0  0  0  0  0  0
    9.0018  -11.8938   15.8122 C   0  0  0  0  0  0  0  0  0  0  0  0
    7.6129  -11.5498   26.4326 C   0  0  2  0  0  0  0  0  0  0  0  0
    6.9834  -12.8814   26.4298 C   0  0  0  0  0  0  0  0  0  0  0  0
    5.4892  -12.6427   26.7588 C   0  0  0  0  0  0  0  0  0  0  0  0
    7.1215  -13.7780   25.2862 C   0  0  1  0  0  0  0  0  0  0  0  0
    8.4108  -14.3798   24.9093 N   0  0  0  0  0  0  0  0  0  0  0  0
    8.1131  -15.1453   23.6643 C   0  0  0  0  0  0  0  0  0  0  0  0
    9.0048  -15.3714   25.8144 O   0  0  0  0  0  0  0  0  0  0  0  0
    9.3235  -15.0232   26.9771 O   0  0  0  0  0  0  0  0  0  0  0  0
    9.3185  -19.4540   24.9385 C   0  0  0  0  0  0  0  0  0  0  0  0
    9.2163  -19.0344   26.2425 C   0  0  1  0  0  0  0  0  0  0  0  0
    9.8184  -17.6353   26.4237 N   0  0  0  0  0  0  0  0  0  0  0  0
    9.2527  -16.7196   25.4732 C   0  0  0  0  0  0  0  0  0  0  0  0
   11.2898  -17.6884   26.2517 O   0  0  0  0  0  0  0  0  0  0  0  0
   12.1390  -18.3858   27.0852 O   0  0  0  0  0  0  0  0  0  0  0  0
  2  4  1  0
  2  1  1  0
  3  2  2  0
  5  6  1  0
  5  4  1  0
  6  7  1  0
  8  7  1  0
  8  9  1  1
 10  8  1  0
 10 17  1  0
 11 10  2  0
 13 12  1  1
 14 13  1  0
 15 13  1  0
 16 15  1  6
 16 17  1  0
 18 16  1  0
 19 18  2  0
 20 21  1  0
 22 23  1  0
 22 21  1  1
 23 18  1  0
 24 22  1  0
 25 24  1  0
 26 24  2  0
M  END
$$$$
