RLS.pdb
     RDKit          3D

 26 25  0  0  1  0  0  0  0  0999 V2000
    7.9953  -15.9143   16.7388 N   0  0  0  0  0  0  0  0  0  0  0  0
    7.6899  -14.5344   16.6257 C   0  0  0  0  0  0  0  0  0  0  0  0
    8.2618  -13.8071   15.7486 N   0  0  0  0  0  0  0  0  0  0  0  0
    6.7332  -13.9454   17.4989 N   0  0  0  0  0  0  0  0  0  0  0  0
    6.7683  -14.3600   18.8846 C   0  0  0  0  0  0  0  0  0  0  0  0
    8.2020  -14.6777   19.2412 C   0  0  0  0  0  0  0  0  0  0  0  0
    8.3221  -15.0286   20.6965 C   0  0  0  0  0  0  0  0  0  0  0  0
    8.7832  -13.8844   21.5418 C   0  0  2  0  0  0  0  0  0  0  0  0
    9.9199  -13.2502   20.9566 N   0  0  0  0  0  0  0  0  0  0  0  0
    8.9947  -14.2625   22.9593 C   0  0  0  0  0  0  0  0  0  0  0  0
   10.1554  -14.6184   23.3587 O   0  0  0  0  0  0  0  0  0  0  0  0
    8.0961  -12.7655   15.7255 C   0  0  0  0  0  0  0  0  0  0  0  0
    5.6560  -11.7416   26.6692 C   0  0  1  0  0  0  0  0  0  0  0  0
    6.8500  -12.3835   26.0934 C   0  0  0  0  0  0  0  0  0  0  0  0
    8.0509  -11.8575   26.9174 C   0  0  0  0  0  0  0  0  0  0  0  0
    6.9266  -13.8331   25.9405 C   0  0  2  0  0  0  0  0  0  0  0  0
    8.0716  -14.4971   25.2965 N   0  0  0  0  0  0  0  0  0  0  0  0
    7.8923  -14.2185   23.8422 C   0  0  0  0  0  0  0  0  0  0  0  0
    8.1623  -15.9599   25.3796 O   0  0  0  0  0  0  0  0  0  0  0  0
    7.1357  -16.6486   25.1642 O   0  0  0  0  0  0  0  0  0  0  0  0
   11.5625  -18.1884   24.9672 C   0  0  0  0  0  0  0  0  0  0  0  0
   10.3141  -18.7524   24.8654 C   0  0  1  0  0  0  0  0  0  0  0  0
    9.3295  -18.1002   25.8442 N   0  0  0  0  0  0  0  0  0  0  0  0
    9.3418  -16.6726   25.6904 C   0  0  0  0  0  0  0  0  0  0  0  0
    9.6871  -18.4557   27.2382 O   0  0  0  0  0  0  0  0  0  0  0  0
    9.7555  -19.7497   27.7108 O   0  0  0  0  0  0  0  0  0  0  0  0
  2  4  1  0
  2  1  1  0
  3  2  2  0
  5  6  1  0
  5  4  1  0
  6  7  1  0
  8  7  1  0
  8  9  1  6
 10  8  1  0
 10 17  1  0
 11 10  2  0
 13 12  1  6
 14 13  1  0
 15 13  1  0
 16 15  1  1
 16 17  1  0
 18 16  1  0
 19 18  2  0
 20 21  1  0
 22 23  1  0
 22 21  1  6
 23 18  1  0
 24 22  1  0
 25 24  1  0
 26 24  2  0
M  END
$$$$
