RLS.pdb
     RDKit          3D

 26 25  0  0  1  0  0  0  0  0999 V2000
    9.8079  -15.0968   17.1800 N   0  0  0  0  0  0  0  0  0  0  0  0
    8.9020  -14.2474   16.4958 C   0  0  0  0  0  0  0  0  0  0  0  0
    8.6155  -14.4476   15.2698 N   0  0  0  0  0  0  0  0  0  0  0  0
    8.2999  -13.1543   17.1795 N   0  0  0  0  0  0  0  0  0  0  0  0
    8.7776  -12.8744   18.5162 C   0  0  0  0  0  0  0  0  0  0  0  0
    7.8839  -13.6018   19.4937 C   0  0  0  0  0  0  0  0  0  0  0  0
    8.3880  -13.4363   20.8988 C   0  0  0  0  0  0  0  0  0  0  0  0
    8.4523  -14.7239   21.6565 C   0  0  2  0  0  0  0  0  0  0  0  0
    7.2254  -15.4428   21.5356 N   0  0  0  0  0  0  0  0  0  0  0  0
    8.8844  -14.5449   23.0631 C   0  0  0  0  0  0  0  0  0  0  0  0
   10.0354  -14.0521   23.3194 O   0  0  0  0  0  0  0  0  0  0  0  0
    7.8550  -13.8883   14.7990 C   0  0  0  0  0  0  0  0  0  0  0  0
    5.4423  -12.3414   26.4412 C   0  0  1  0  0  0  0  0  0  0  0  0
    6.6958  -12.8482   25.8571 C   0  0  0  0  0  0  0  0  0  0  0  0
    7.7755  -11.7896   26.1913 C   0  0  0  0  0  0  0  0  0  0  0  0
    7.1804  -14.1910   26.1616 C   0  0  2  0  0  0  0  0  0  0  0  0
    8.3823  -14.7565   25.5273 N   0  0  0  0  0  0  0  0  0  0  0  0
    8.0001  -14.9293   24.0960 C   0  0  0  0  0  0  0  0  0  0  0  0
    8.8278  -16.0899   25.9498 O   0  0  0  0  0  0  0  0  0  0  0  0
    8.8063  -16.3828   27.1698 O   0  0  0  0  0  0  0  0  0  0  0  0
   10.4040  -18.9442   23.3241 C   0  0  0  0  0  0  0  0  0  0  0  0
    9.8048  -19.4031   24.4718 C   0  0  1  0  0  0  0  0  0  0  0  0
    9.8191  -18.3332   25.5708 N   0  0  0  0  0  0  0  0  0  0  0  0
    9.2903  -17.0951   25.0716 C   0  0  0  0  0  0  0  0  0  0  0  0
   11.2029  -18.1246   26.0599 O   0  0  0  0  0  0  0  0  0  0  0  0
   11.9556  -19.0980   26.6829 O   0  0  0  0  0  0  0  0  0  0  0  0
  2  4  1  0
  2  1  1  0
  3  2  2  0
  5  6  1  0
  5  4  1  0
  6  7  1  0
  8  7  1  0
  8  9  1  1
 10  8  1  0
 10 17  1  0
 11 10  2  0
 13 12  1  6
 14 13  1  0
 15 13  1  0
 16 15  1  6
 16 17  1  0
 18 16  1  0
 19 18  2  0
 20 21  1  0
 22 23  1  0
 22 21  1  1
 23 18  1  0
 24 22  1  0
 25 24  1  0
 26 24  2  0
M  END
$$$$
