RLS.pdb
     RDKit          3D

 26 25  0  0  1  0  0  0  0  0999 V2000
    7.2487  -13.6745   14.9533 N   0  0  0  0  0  0  0  0  0  0  0  0
    8.0114  -13.8218   16.1395 C   0  0  0  0  0  0  0  0  0  0  0  0
    8.4639  -12.8027   16.7575 N   0  0  0  0  0  0  0  0  0  0  0  0
    8.2799  -15.1210   16.6539 N   0  0  0  0  0  0  0  0  0  0  0  0
    9.0755  -15.1966   17.8600 C   0  0  0  0  0  0  0  0  0  0  0  0
    8.1765  -14.8825   19.0332 C   0  0  0  0  0  0  0  0  0  0  0  0
    8.9524  -14.9084   20.3189 C   0  0  0  0  0  0  0  0  0  0  0  0
    8.2765  -15.6916   21.3986 C   0  0  2  0  0  0  0  0  0  0  0  0
    6.8601  -15.5329   21.3264 N   0  0  0  0  0  0  0  0  0  0  0  0
    8.8248  -15.4086   22.7464 C   0  0  0  0  0  0  0  0  0  0  0  0
   10.0894  -15.3488   22.9214 O   0  0  0  0  0  0  0  0  0  0  0  0
    9.0347  -12.9192   17.6370 C   0  0  0  0  0  0  0  0  0  0  0  0
    5.7272  -12.2930   26.1804 C   0  0  1  0  0  0  0  0  0  0  0  0
    6.9392  -12.8928   25.5968 C   0  0  0  0  0  0  0  0  0  0  0  0
    8.1024  -11.9406   25.9686 C   0  0  0  0  0  0  0  0  0  0  0  0
    7.3016  -14.2796   25.8726 C   0  0  2  0  0  0  0  0  0  0  0  0
    8.4239  -14.9492   25.1954 N   0  0  0  0  0  0  0  0  0  0  0  0
    7.9222  -15.2103   23.8153 C   0  0  0  0  0  0  0  0  0  0  0  0
    8.8441  -16.2673   25.6866 O   0  0  0  0  0  0  0  0  0  0  0  0
    8.0086  -17.2031   25.7152 O   0  0  0  0  0  0  0  0  0  0  0  0
   12.1164  -19.6405   26.2740 C   0  0  0  0  0  0  0  0  0  0  0  0
   11.7287  -18.4032   25.8207 C   0  0  1  0  0  0  0  0  0  0  0  0
   10.4895  -17.9006   26.5720 N   0  0  0  0  0  0  0  0  0  0  0  0
   10.1459  -16.5747   26.1410 C   0  0  0  0  0  0  0  0  0  0  0  0
   10.7448  -17.9009   28.0322 O   0  0  0  0  0  0  0  0  0  0  0  0
   10.9856  -19.0393   28.7728 O   0  0  0  0  0  0  0  0  0  0  0  0
  2  4  1  0
  2  1  1  0
  3  2  2  0
  5  6  1  0
  5  4  1  0
  6  7  1  0
  8  7  1  0
  8  9  1  1
 10  8  1  0
 10 17  1  0
 11 10  2  0
 13 12  1  6
 14 13  1  0
 15 13  1  0
 16 15  1  6
 16 17  1  0
 18 16  1  0
 19 18  2  0
 20 21  1  0
 22 23  1  0
 22 21  1  6
 23 18  1  0
 24 22  1  0
 25 24  1  0
 26 24  2  0
M  END
$$$$
