RLS.pdb
     RDKit          3D

 26 25  0  0  1  0  0  0  0  0999 V2000
    8.5729  -15.6583   15.8556 N   0  0  0  0  0  0  0  0  0  0  0  0
    8.3118  -14.2653   15.8121 C   0  0  0  0  0  0  0  0  0  0  0  0
    8.1348  -13.6669   14.7005 N   0  0  0  0  0  0  0  0  0  0  0  0
    8.2449  -13.5178   17.0210 N   0  0  0  0  0  0  0  0  0  0  0  0
    9.1578  -13.8972   18.0773 C   0  0  0  0  0  0  0  0  0  0  0  0
    8.3789  -14.6782   19.1101 C   0  0  0  0  0  0  0  0  0  0  0  0
    8.7310  -14.2228   20.4973 C   0  0  0  0  0  0  0  0  0  0  0  0
    8.8176  -15.3455   21.4811 C   0  0  2  0  0  0  0  0  0  0  0  0
    7.6521  -16.1663   21.4147 N   0  0  0  0  0  0  0  0  0  0  0  0
    9.1266  -14.8856   22.8560 C   0  0  0  0  0  0  0  0  0  0  0  0
   10.3298  -14.5993   23.1781 O   0  0  0  0  0  0  0  0  0  0  0  0
    8.0167  -12.6190   14.6689 C   0  0  0  0  0  0  0  0  0  0  0  0
    7.8462  -11.5216   26.9753 C   0  0  2  0  0  0  0  0  0  0  0  0
    6.9737  -12.6734   26.6899 C   0  0  0  0  0  0  0  0  0  0  0  0
    5.5236  -12.1542   26.8491 C   0  0  0  0  0  0  0  0  0  0  0  0
    7.1139  -13.4372   25.4540 C   0  0  1  0  0  0  0  0  0  0  0  0
    8.3125  -14.2377   25.1553 N   0  0  0  0  0  0  0  0  0  0  0  0
    8.0681  -14.7749   23.7855 C   0  0  0  0  0  0  0  0  0  0  0  0
    8.5733  -15.4285   25.9733 O   0  0  0  0  0  0  0  0  0  0  0  0
    8.8764  -15.2842   27.1825 O   0  0  0  0  0  0  0  0  0  0  0  0
    8.6443  -19.3630   24.4831 C   0  0  0  0  0  0  0  0  0  0  0  0
    8.2142  -19.1628   25.7723 C   0  0  1  0  0  0  0  0  0  0  0  0
    8.7971  -17.8701   26.3570 N   0  0  0  0  0  0  0  0  0  0  0  0
    8.5089  -16.7569   25.4970 C   0  0  0  0  0  0  0  0  0  0  0  0
   10.2636  -18.0042   26.5263 O   0  0  0  0  0  0  0  0  0  0  0  0
   10.8627  -18.9257   27.3596 O   0  0  0  0  0  0  0  0  0  0  0  0
  2  4  1  0
  2  1  1  0
  3  2  2  0
  5  6  1  0
  5  4  1  0
  6  7  1  0
  8  7  1  0
  8  9  1  1
 10  8  1  0
 10 17  1  0
 11 10  2  0
 13 12  1  1
 14 13  1  0
 15 13  1  0
 16 15  1  6
 16 17  1  0
 18 16  1  0
 19 18  2  0
 20 21  1  0
 22 23  1  0
 22 21  1  1
 23 18  1  0
 24 22  1  0
 25 24  1  0
 26 24  2  0
M  END
$$$$
