RLS.pdb
     RDKit          3D

 26 25  0  0  1  0  0  0  0  0999 V2000
    7.9380  -15.5867   16.1959 N   0  0  0  0  0  0  0  0  0  0  0  0
    8.1062  -14.1958   15.9780 C   0  0  0  0  0  0  0  0  0  0  0  0
    8.3331  -13.7390   14.8097 N   0  0  0  0  0  0  0  0  0  0  0  0
    8.0220  -13.2907   17.0728 N   0  0  0  0  0  0  0  0  0  0  0  0
    8.5770  -13.7338   18.3333 C   0  0  0  0  0  0  0  0  0  0  0  0
    7.4435  -13.8597   19.3245 C   0  0  0  0  0  0  0  0  0  0  0  0
    7.9511  -13.7263   20.7317 C   0  0  0  0  0  0  0  0  0  0  0  0
    8.2858  -15.0396   21.3637 C   0  0  2  0  0  0  0  0  0  0  0  0
    7.1793  -15.9370   21.2798 N   0  0  0  0  0  0  0  0  0  0  0  0
    8.8165  -14.8989   22.7406 C   0  0  0  0  0  0  0  0  0  0  0  0
   10.0079  -14.4748   22.9253 O   0  0  0  0  0  0  0  0  0  0  0  0
    8.5416  -12.7149   14.6660 C   0  0  0  0  0  0  0  0  0  0  0  0
    5.7647  -12.4513   26.4016 C   0  0  1  0  0  0  0  0  0  0  0  0
    6.9776  -13.0191   25.7884 C   0  0  0  0  0  0  0  0  0  0  0  0
    8.1543  -12.1513   26.2983 C   0  0  0  0  0  0  0  0  0  0  0  0
    7.2926  -14.4387   25.9154 C   0  0  2  0  0  0  0  0  0  0  0  0
    8.4415  -15.0541   25.2315 N   0  0  0  0  0  0  0  0  0  0  0  0
    7.9794  -15.2424   23.8259 C   0  0  0  0  0  0  0  0  0  0  0  0
    8.8676  -16.3926   25.6581 O   0  0  0  0  0  0  0  0  0  0  0  0
    8.0235  -17.3205   25.6913 O   0  0  0  0  0  0  0  0  0  0  0  0
   12.7892  -17.6375   25.7417 C   0  0  0  0  0  0  0  0  0  0  0  0
   11.7630  -18.5459   25.6487 C   0  0  1  0  0  0  0  0  0  0  0  0
   10.5287  -18.0695   26.4247 N   0  0  0  0  0  0  0  0  0  0  0  0
   10.1844  -16.7285   26.0440 C   0  0  0  0  0  0  0  0  0  0  0  0
   10.7922  -18.1230   27.8825 O   0  0  0  0  0  0  0  0  0  0  0  0
   11.1111  -19.2773   28.5668 O   0  0  0  0  0  0  0  0  0  0  0  0
  2  4  1  0
  2  1  1  0
  3  2  2  0
  5  6  1  0
  5  4  1  0
  6  7  1  0
  8  7  1  0
  8  9  1  1
 10  8  1  0
 10 17  1  0
 11 10  2  0
 13 12  1  6
 14 13  1  0
 15 13  1  0
 16 15  1  6
 16 17  1  0
 18 16  1  0
 19 18  2  0
 20 21  1  0
 22 23  1  0
 22 21  1  6
 23 18  1  0
 24 22  1  0
 25 24  1  0
 26 24  2  0
M  END
$$$$
