RLS.pdb
     RDKit          3D

 26 25  0  0  1  0  0  0  0  0999 V2000
    8.3844  -12.3318   17.0703 N   0  0  0  0  0  0  0  0  0  0  0  0
    8.1860  -13.6694   16.6439 C   0  0  0  0  0  0  0  0  0  0  0  0
    8.7332  -14.1047   15.5778 N   0  0  0  0  0  0  0  0  0  0  0  0
    7.3667  -14.5445   17.4105 N   0  0  0  0  0  0  0  0  0  0  0  0
    7.2048  -14.2293   18.8133 C   0  0  0  0  0  0  0  0  0  0  0  0
    8.5737  -13.9572   19.3922 C   0  0  0  0  0  0  0  0  0  0  0  0
    8.4962  -13.7876   20.8824 C   0  0  0  0  0  0  0  0  0  0  0  0
    8.4739  -15.0869   21.6223 C   0  0  2  0  0  0  0  0  0  0  0  0
    7.1756  -15.6769   21.5679 N   0  0  0  0  0  0  0  0  0  0  0  0
    9.0034  -14.9745   23.0023 C   0  0  0  0  0  0  0  0  0  0  0  0
   10.1929  -14.5495   23.1969 O   0  0  0  0  0  0  0  0  0  0  0  0
    8.6014  -15.1078   15.2790 C   0  0  0  0  0  0  0  0  0  0  0  0
    5.7771  -12.6117   26.3591 C   0  0  1  0  0  0  0  0  0  0  0  0
    7.0035  -13.1799   25.7738 C   0  0  0  0  0  0  0  0  0  0  0  0
    8.1104  -12.1217   26.0038 C   0  0  0  0  0  0  0  0  0  0  0  0
    7.4746  -14.5081   26.1538 C   0  0  2  0  0  0  0  0  0  0  0  0
    8.6160  -15.1581   25.4893 N   0  0  0  0  0  0  0  0  0  0  0  0
    8.1672  -15.3452   24.0793 C   0  0  0  0  0  0  0  0  0  0  0  0
    9.0021  -16.5037   25.9314 O   0  0  0  0  0  0  0  0  0  0  0  0
    8.1211  -17.3926   26.0228 O   0  0  0  0  0  0  0  0  0  0  0  0
   12.9142  -17.8359   26.2126 C   0  0  0  0  0  0  0  0  0  0  0  0
   11.8907  -18.7469   26.1153 C   0  0  1  0  0  0  0  0  0  0  0  0
   10.6059  -18.2082   26.7568 N   0  0  0  0  0  0  0  0  0  0  0  0
   10.3185  -16.8881   26.2705 C   0  0  0  0  0  0  0  0  0  0  0  0
   10.7480  -18.1772   28.2321 O   0  0  0  0  0  0  0  0  0  0  0  0
   11.0020  -19.2903   29.0059 O   0  0  0  0  0  0  0  0  0  0  0  0
  2  4  1  0
  2  1  1  0
  3  2  2  0
  5  6  1  0
  5  4  1  0
  6  7  1  0
  8  7  1  0
  8  9  1  1
 10  8  1  0
 10 17  1  0
 11 10  2  0
 13 12  1  6
 14 13  1  0
 15 13  1  0
 16 15  1  6
 16 17  1  0
 18 16  1  0
 19 18  2  0
 20 21  1  0
 22 23  1  0
 22 21  1  6
 23 18  1  0
 24 22  1  0
 25 24  1  0
 26 24  2  0
M  END
$$$$
