ESQ.pdb
     RDKit          3D

 25 24  0  0  1  0  0  0  0  0999 V2000
   11.4279  -18.6332   16.2279 N   0  0  0  0  0  0  0  0  0  0  0  0
   10.9419  -19.2148   17.4433 C   0  0  1  0  0  0  0  0  0  0  0  0
   11.7443  -20.4618   17.7330 C   0  0  0  0  0  0  0  0  0  0  0  0
   13.0263  -20.3483   16.9072 C   0  0  0  0  0  0  0  0  0  0  0  0
   13.9182  -21.5141   17.1656 C   0  0  0  0  0  0  0  0  0  0  0  0
   13.9407  -22.5228   16.4155 O   0  0  0  0  0  0  0  0  0  0  0  0
   11.0078  -18.2309   18.5326 C   0  0  0  0  0  0  0  0  0  0  0  0
   12.0359  -17.5658   18.8192 O   0  0  0  0  0  0  0  0  0  0  0  0
   14.7551  -21.5020   18.2626 O   0  0  0  0  0  0  0  0  0  0  0  0
    7.8775  -17.9057   21.3835 O   0  0  0  0  0  0  0  0  0  0  0  0
    8.4972  -16.7290   20.9599 C   0  0  0  0  0  0  0  0  0  0  0  0
    9.8534  -17.0643   20.4405 C   0  0  2  0  0  0  0  0  0  0  0  0
    9.8633  -17.9770   19.3444 N   0  0  0  0  0  0  0  0  0  0  0  0
   10.7126  -17.5130   21.5711 C   0  0  0  0  0  0  0  0  0  0  0  0
   11.0227  -18.7246   21.7107 O   0  0  0  0  0  0  0  0  0  0  0  0
   16.9578  -16.3380   24.7822 N   0  0  0  0  0  0  0  0  0  0  0  0
   15.7748  -16.1027   24.0253 C   0  0  0  0  0  0  0  0  0  0  0  0
   15.8573  -15.3475   23.0350 O   0  0  0  0  0  0  0  0  0  0  0  0
   14.4840  -16.7178   24.3804 C   0  0  0  0  0  0  0  0  0  0  0  0
   13.4341  -16.4648   23.3626 C   0  0  0  0  0  0  0  0  0  0  0  0
   12.0832  -17.0636   23.6520 C   0  0  2  0  0  0  0  0  0  0  0  0
   11.2245  -16.6156   22.5424 N   0  0  0  0  0  0  0  0  0  0  0  0
   11.5899  -16.4622   24.9321 C   0  0  0  0  0  0  0  0  0  0  0  0
   10.7310  -15.5219   24.8722 O   0  0  0  0  0  0  0  0  0  0  0  0
   11.9924  -16.8466   26.1777 O   0  0  0  0  0  0  0  0  0  0  0  0
  2  3  1  0
  2  1  1  6
  4  3  1  0
  5  4  1  0
  6  5  2  0
  7  2  1  0
  8  7  2  0
  9  5  1  0
 11 10  1  0
 12 11  1  1
 12 14  1  0
 12 13  1  0
 13  7  1  0
 14 15  2  0
 16 17  1  0
 17 18  2  0
 19 17  1  0
 19 20  1  0
 21 20  1  6
 22 21  1  0
 22 14  1  0
 23 21  1  0
 24 23  2  0
 25 23  1  0
M  END
$$$$
