ESQ.pdb
     RDKit          3D

 25 24  0  0  1  0  0  0  0  0999 V2000
    9.8615  -13.5319   18.3563 N   0  0  0  0  0  0  0  0  0  0  0  0
   10.0335  -14.7827   19.0329 C   0  0  1  0  0  0  0  0  0  0  0  0
   11.3854  -15.3465   18.6628 C   0  0  0  0  0  0  0  0  0  0  0  0
   12.4011  -14.2346   18.9286 C   0  0  0  0  0  0  0  0  0  0  0  0
   13.7861  -14.7206   18.6701 C   0  0  0  0  0  0  0  0  0  0  0  0
   14.4059  -14.4526   17.6095 O   0  0  0  0  0  0  0  0  0  0  0  0
    9.8727  -14.5965   20.4815 C   0  0  0  0  0  0  0  0  0  0  0  0
   10.4142  -13.6696   21.1366 O   0  0  0  0  0  0  0  0  0  0  0  0
   14.4253  -15.4933   19.6180 O   0  0  0  0  0  0  0  0  0  0  0  0
    7.3073  -17.1599   22.6772 O   0  0  0  0  0  0  0  0  0  0  0  0
    7.4061  -15.8114   23.0231 C   0  0  0  0  0  0  0  0  0  0  0  0
    8.7507  -15.3121   22.6176 C   0  0  2  0  0  0  0  0  0  0  0  0
    9.0633  -15.4944   21.2379 N   0  0  0  0  0  0  0  0  0  0  0  0
    9.7810  -15.8924   23.5229 C   0  0  0  0  0  0  0  0  0  0  0  0
   10.5963  -16.7573   23.1098 O   0  0  0  0  0  0  0  0  0  0  0  0
    9.5035  -13.7160   29.2103 N   0  0  0  0  0  0  0  0  0  0  0  0
    9.7181  -15.1221   29.2773 C   0  0  0  0  0  0  0  0  0  0  0  0
    9.7755  -15.6495   30.4070 O   0  0  0  0  0  0  0  0  0  0  0  0
    9.8718  -15.9482   28.0672 C   0  0  0  0  0  0  0  0  0  0  0  0
   10.7798  -15.3312   27.0687 C   0  0  0  0  0  0  0  0  0  0  0  0
   10.9315  -16.0792   25.7706 C   0  0  2  0  0  0  0  0  0  0  0  0
    9.9026  -15.5107   24.8832 N   0  0  0  0  0  0  0  0  0  0  0  0
   10.6111  -17.5172   26.0405 C   0  0  0  0  0  0  0  0  0  0  0  0
   11.4823  -18.2346   26.6336 O   0  0  0  0  0  0  0  0  0  0  0  0
    9.4420  -18.1310   25.6974 O   0  0  0  0  0  0  0  0  0  0  0  0
  2  3  1  0
  2  1  1  6
  4  3  1  0
  5  4  1  0
  6  5  2  0
  7  2  1  0
  8  7  2  0
  9  5  1  0
 11 10  1  0
 12 11  1  1
 12 14  1  0
 12 13  1  0
 13  7  1  0
 14 15  2  0
 16 17  1  0
 17 18  2  0
 19 17  1  0
 19 20  1  0
 21 20  1  1
 22 21  1  0
 22 14  1  0
 23 21  1  0
 24 23  2  0
 25 23  1  0
M  END
$$$$
