ESQ.pdb
     RDKit          3D

 25 24  0  0  1  0  0  0  0  0999 V2000
    8.4445  -14.0742   15.8904 N   0  0  0  0  0  0  0  0  0  0  0  0
    7.8710  -14.8434   16.9539 C   0  0  1  0  0  0  0  0  0  0  0  0
    8.0463  -16.3096   16.6342 C   0  0  0  0  0  0  0  0  0  0  0  0
    7.7308  -16.4647   15.1459 C   0  0  0  0  0  0  0  0  0  0  0  0
    7.7596  -17.9023   14.7537 C   0  0  0  0  0  0  0  0  0  0  0  0
    8.7305  -18.4121   14.1387 O   0  0  0  0  0  0  0  0  0  0  0  0
    8.4827  -14.4640   18.2348 C   0  0  0  0  0  0  0  0  0  0  0  0
    9.7078  -14.2238   18.3862 O   0  0  0  0  0  0  0  0  0  0  0  0
    6.6911  -18.7164   15.0690 O   0  0  0  0  0  0  0  0  0  0  0  0
    6.1822  -14.6624   21.7473 O   0  0  0  0  0  0  0  0  0  0  0  0
    7.2014  -13.7090   21.7319 C   0  0  0  0  0  0  0  0  0  0  0  0
    8.2121  -14.1075   20.7114 C   0  0  2  0  0  0  0  0  0  0  0  0
    7.6820  -14.3471   19.4090 N   0  0  0  0  0  0  0  0  0  0  0  0
    9.0043  -15.2566   21.2309 C   0  0  0  0  0  0  0  0  0  0  0  0
    8.8618  -16.4125   20.7544 O   0  0  0  0  0  0  0  0  0  0  0  0
   14.8151  -15.0253   22.4869 N   0  0  0  0  0  0  0  0  0  0  0  0
   14.5283  -16.2129   23.2184 C   0  0  0  0  0  0  0  0  0  0  0  0
   15.4913  -16.8661   23.6695 O   0  0  0  0  0  0  0  0  0  0  0  0
   13.1487  -16.6764   23.4472 C   0  0  0  0  0  0  0  0  0  0  0  0
   12.1351  -15.7107   22.9550 C   0  0  0  0  0  0  0  0  0  0  0  0
   10.7429  -16.2559   22.7766 C   0  0  2  0  0  0  0  0  0  0  0  0
    9.9516  -15.1186   22.2771 N   0  0  0  0  0  0  0  0  0  0  0  0
   10.2385  -16.6519   24.1302 C   0  0  0  0  0  0  0  0  0  0  0  0
    9.4870  -15.8386   24.7623 O   0  0  0  0  0  0  0  0  0  0  0  0
   10.5230  -17.8328   24.7512 O   0  0  0  0  0  0  0  0  0  0  0  0
  2  3  1  0
  2  1  1  6
  4  3  1  0
  5  4  1  0
  6  5  2  0
  7  2  1  0
  8  7  2  0
  9  5  1  0
 11 10  1  0
 12 11  1  1
 12 14  1  0
 12 13  1  0
 13  7  1  0
 14 15  2  0
 16 17  1  0
 17 18  2  0
 19 17  1  0
 19 20  1  0
 21 20  1  1
 22 21  1  0
 22 14  1  0
 23 21  1  0
 24 23  2  0
 25 23  1  0
M  END
$$$$
