ESQ.pdb
     RDKit          3D

 25 24  0  0  1  0  0  0  0  0999 V2000
    9.0699  -18.6894   18.4005 N   0  0  0  0  0  0  0  0  0  0  0  0
    9.3908  -19.3433   19.6338 C   0  0  1  0  0  0  0  0  0  0  0  0
   10.8675  -19.6624   19.6377 C   0  0  0  0  0  0  0  0  0  0  0  0
   11.5730  -18.4348   19.0599 C   0  0  0  0  0  0  0  0  0  0  0  0
   13.0445  -18.6624   18.9926 C   0  0  0  0  0  0  0  0  0  0  0  0
   13.6143  -19.5746   19.6435 O   0  0  0  0  0  0  0  0  0  0  0  0
    8.9885  -18.5009   20.7685 C   0  0  0  0  0  0  0  0  0  0  0  0
    8.8841  -17.2489   20.7137 O   0  0  0  0  0  0  0  0  0  0  0  0
   13.8235  -17.8520   18.1923 O   0  0  0  0  0  0  0  0  0  0  0  0
    7.4751  -20.2154   24.3951 O   0  0  0  0  0  0  0  0  0  0  0  0
    7.0406  -19.0051   23.8527 C   0  0  0  0  0  0  0  0  0  0  0  0
    8.1850  -18.3593   23.1493 C   0  0  2  0  0  0  0  0  0  0  0  0
    8.6870  -19.0898   22.0318 N   0  0  0  0  0  0  0  0  0  0  0  0
    9.2439  -18.0263   24.1422 C   0  0  0  0  0  0  0  0  0  0  0  0
   10.3569  -18.6132   24.1268 O   0  0  0  0  0  0  0  0  0  0  0  0
    8.7188  -13.2036   28.1861 N   0  0  0  0  0  0  0  0  0  0  0  0
    9.8294  -13.9145   28.7235 C   0  0  0  0  0  0  0  0  0  0  0  0
   10.3445  -13.4820   29.7748 O   0  0  0  0  0  0  0  0  0  0  0  0
   10.3715  -15.1224   28.0771 C   0  0  0  0  0  0  0  0  0  0  0  0
    9.5831  -15.5346   26.8894 C   0  0  0  0  0  0  0  0  0  0  0  0
   10.1114  -16.7246   26.1331 C   0  0  2  0  0  0  0  0  0  0  0  0
    9.0636  -17.0434   25.1483 N   0  0  0  0  0  0  0  0  0  0  0  0
   10.2355  -17.8566   27.1061 C   0  0  0  0  0  0  0  0  0  0  0  0
    9.2243  -18.6092   27.2973 O   0  0  0  0  0  0  0  0  0  0  0  0
   11.3626  -18.1521   27.8157 O   0  0  0  0  0  0  0  0  0  0  0  0
  2  3  1  0
  2  1  1  6
  4  3  1  0
  5  4  1  0
  6  5  2  0
  7  2  1  0
  8  7  2  0
  9  5  1  0
 11 10  1  0
 12 11  1  1
 12 14  1  0
 12 13  1  0
 13  7  1  0
 14 15  2  0
 16 17  1  0
 17 18  2  0
 19 17  1  0
 19 20  1  0
 21 20  1  1
 22 21  1  0
 22 14  1  0
 23 21  1  0
 24 23  2  0
 25 23  1  0
M  END
$$$$
