ESQ.pdb
     RDKit          3D

 25 24  0  0  1  0  0  0  0  0999 V2000
    9.1371  -17.0914   16.5300 N   0  0  0  0  0  0  0  0  0  0  0  0
    8.3764  -17.4009   17.7035 C   0  0  1  0  0  0  0  0  0  0  0  0
    8.3485  -18.9016   17.8754 C   0  0  0  0  0  0  0  0  0  0  0  0
    9.7799  -19.3214   18.2122 C   0  0  0  0  0  0  0  0  0  0  0  0
    9.8563  -20.7954   18.4192 C   0  0  0  0  0  0  0  0  0  0  0  0
   10.3399  -21.5714   17.5562 O   0  0  0  0  0  0  0  0  0  0  0  0
    8.9434  -16.7061   18.8675 C   0  0  0  0  0  0  0  0  0  0  0  0
   10.1675  -16.4564   19.0109 O   0  0  0  0  0  0  0  0  0  0  0  0
    9.3841  -21.3440   19.5939 O   0  0  0  0  0  0  0  0  0  0  0  0
    6.6572  -15.9998   22.3385 O   0  0  0  0  0  0  0  0  0  0  0  0
    7.4687  -14.9507   21.9040 C   0  0  0  0  0  0  0  0  0  0  0  0
    8.5524  -15.5092   21.0466 C   0  0  2  0  0  0  0  0  0  0  0  0
    8.0965  -16.2672   19.9276 N   0  0  0  0  0  0  0  0  0  0  0  0
    9.5115  -16.2634   21.9005 C   0  0  0  0  0  0  0  0  0  0  0  0
    9.6572  -17.5067   21.7722 O   0  0  0  0  0  0  0  0  0  0  0  0
   15.9375  -16.0482   23.1564 N   0  0  0  0  0  0  0  0  0  0  0  0
   14.7215  -16.7186   23.4718 C   0  0  0  0  0  0  0  0  0  0  0  0
   14.5258  -17.8408   22.9620 O   0  0  0  0  0  0  0  0  0  0  0  0
   13.7118  -16.1268   24.3668 C   0  0  0  0  0  0  0  0  0  0  0  0
   12.5493  -15.5756   23.6272 C   0  0  0  0  0  0  0  0  0  0  0  0
   11.2791  -16.3800   23.7096 C   0  0  2  0  0  0  0  0  0  0  0  0
   10.3052  -15.6351   22.8936 N   0  0  0  0  0  0  0  0  0  0  0  0
   10.8339  -16.3717   25.1397 C   0  0  0  0  0  0  0  0  0  0  0  0
    9.9352  -15.5393   25.4933 O   0  0  0  0  0  0  0  0  0  0  0  0
   11.3207  -17.1975   26.1105 O   0  0  0  0  0  0  0  0  0  0  0  0
  2  3  1  0
  2  1  1  6
  4  3  1  0
  5  4  1  0
  6  5  2  0
  7  2  1  0
  8  7  2  0
  9  5  1  0
 11 10  1  0
 12 11  1  1
 12 14  1  0
 12 13  1  0
 13  7  1  0
 14 15  2  0
 16 17  1  0
 17 18  2  0
 19 17  1  0
 19 20  1  0
 21 20  1  1
 22 21  1  0
 22 14  1  0
 23 21  1  0
 24 23  2  0
 25 23  1  0
M  END
$$$$
