ESQ.pdb
     RDKit          3D

 25 24  0  0  1  0  0  0  0  0999 V2000
   11.1090  -17.4667   17.8643 N   0  0  0  0  0  0  0  0  0  0  0  0
   11.4237  -17.8747   19.2008 C   0  0  1  0  0  0  0  0  0  0  0  0
   12.8942  -17.6276   19.4443 C   0  0  0  0  0  0  0  0  0  0  0  0
   13.6206  -18.0788   18.1765 C   0  0  0  0  0  0  0  0  0  0  0  0
   15.0969  -18.0062   18.3674 C   0  0  0  0  0  0  0  0  0  0  0  0
   15.7552  -16.9619   18.1293 O   0  0  0  0  0  0  0  0  0  0  0  0
   10.5624  -17.1671   20.1581 C   0  0  0  0  0  0  0  0  0  0  0  0
    9.5491  -16.4977   19.8321 O   0  0  0  0  0  0  0  0  0  0  0  0
   15.7809  -19.1156   18.8208 O   0  0  0  0  0  0  0  0  0  0  0  0
    8.0715  -18.7381   23.3458 O   0  0  0  0  0  0  0  0  0  0  0  0
    9.0560  -18.6837   22.3580 C   0  0  0  0  0  0  0  0  0  0  0  0
    9.8672  -17.4498   22.5603 C   0  0  2  0  0  0  0  0  0  0  0  0
   10.8496  -17.2104   21.5543 N   0  0  0  0  0  0  0  0  0  0  0  0
   10.4415  -17.4623   23.9343 C   0  0  0  0  0  0  0  0  0  0  0  0
   11.3484  -18.2747   24.2523 O   0  0  0  0  0  0  0  0  0  0  0  0
    8.6427  -13.2939   28.3230 N   0  0  0  0  0  0  0  0  0  0  0  0
    9.7330  -13.9421   28.9700 C   0  0  0  0  0  0  0  0  0  0  0  0
   10.0308  -13.5698   30.1234 O   0  0  0  0  0  0  0  0  0  0  0  0
   10.5003  -15.0185   28.3195 C   0  0  0  0  0  0  0  0  0  0  0  0
   10.0145  -15.3153   26.9490 C   0  0  0  0  0  0  0  0  0  0  0  0
   10.7170  -16.4387   26.2337 C   0  0  2  0  0  0  0  0  0  0  0  0
   10.0073  -16.5732   24.9502 N   0  0  0  0  0  0  0  0  0  0  0  0
   10.5144  -17.6828   27.0428 C   0  0  0  0  0  0  0  0  0  0  0  0
   11.2793  -17.8915   28.0413 O   0  0  0  0  0  0  0  0  0  0  0  0
    9.5610  -18.6261   26.7931 O   0  0  0  0  0  0  0  0  0  0  0  0
  2  3  1  0
  2  1  1  6
  4  3  1  0
  5  4  1  0
  6  5  2  0
  7  2  1  0
  8  7  2  0
  9  5  1  0
 11 10  1  0
 12 11  1  6
 12 14  1  0
 12 13  1  0
 13  7  1  0
 14 15  2  0
 16 17  1  0
 17 18  2  0
 19 17  1  0
 19 20  1  0
 21 20  1  1
 22 21  1  0
 22 14  1  0
 23 21  1  0
 24 23  2  0
 25 23  1  0
M  END
$$$$
