ESQ.pdb
     RDKit          3D

 25 24  0  0  1  0  0  0  0  0999 V2000
   12.6035  -19.0748   19.7629 N   0  0  0  0  0  0  0  0  0  0  0  0
   13.5729  -18.6047   20.7068 C   0  0  1  0  0  0  0  0  0  0  0  0
   14.7725  -18.0895   19.9465 C   0  0  0  0  0  0  0  0  0  0  0  0
   14.2402  -17.0509   18.9584 C   0  0  0  0  0  0  0  0  0  0  0  0
   15.3525  -16.4938   18.1375 C   0  0  0  0  0  0  0  0  0  0  0  0
   15.4350  -16.6862   16.8978 O   0  0  0  0  0  0  0  0  0  0  0  0
   12.9722  -17.5858   21.5787 C   0  0  0  0  0  0  0  0  0  0  0  0
   13.6139  -16.9246   22.4345 O   0  0  0  0  0  0  0  0  0  0  0  0
   16.3347  -15.7378   18.7440 O   0  0  0  0  0  0  0  0  0  0  0  0
    8.8231  -17.5559   22.3085 O   0  0  0  0  0  0  0  0  0  0  0  0
    9.4256  -16.3080   22.1421 C   0  0  0  0  0  0  0  0  0  0  0  0
   10.8864  -16.4448   22.4043 C   0  0  2  0  0  0  0  0  0  0  0  0
   11.5800  -17.2906   21.4887 N   0  0  0  0  0  0  0  0  0  0  0  0
   11.0931  -16.8419   23.8246 C   0  0  0  0  0  0  0  0  0  0  0  0
   11.5074  -17.9916   24.1243 O   0  0  0  0  0  0  0  0  0  0  0  0
    9.4530  -13.1438   28.6671 N   0  0  0  0  0  0  0  0  0  0  0  0
   10.1894  -14.1690   29.3262 C   0  0  0  0  0  0  0  0  0  0  0  0
   10.2975  -14.1023   30.5677 O   0  0  0  0  0  0  0  0  0  0  0  0
   10.8134  -15.2811   28.5884 C   0  0  0  0  0  0  0  0  0  0  0  0
   10.6212  -15.1693   27.1212 C   0  0  0  0  0  0  0  0  0  0  0  0
   11.1195  -16.3322   26.3046 C   0  0  2  0  0  0  0  0  0  0  0  0
   10.8393  -15.9615   24.9070 N   0  0  0  0  0  0  0  0  0  0  0  0
   10.2945  -17.5266   26.6736 C   0  0  0  0  0  0  0  0  0  0  0  0
    9.1771  -17.7008   26.0849 O   0  0  0  0  0  0  0  0  0  0  0  0
   10.6490  -18.4590   27.6043 O   0  0  0  0  0  0  0  0  0  0  0  0
  2  3  1  0
  2  1  1  6
  4  3  1  0
  5  4  1  0
  6  5  2  0
  7  2  1  0
  8  7  2  0
  9  5  1  0
 11 10  1  0
 12 11  1  6
 12 14  1  0
 12 13  1  0
 13  7  1  0
 14 15  2  0
 16 17  1  0
 17 18  2  0
 19 17  1  0
 19 20  1  0
 21 20  1  1
 22 21  1  0
 22 14  1  0
 23 21  1  0
 24 23  2  0
 25 23  1  0
M  END
$$$$
