ESQ.pdb
     RDKit          3D

 25 24  0  0  1  0  0  0  0  0999 V2000
    8.5116  -14.3865   15.5394 N   0  0  0  0  0  0  0  0  0  0  0  0
    7.8797  -15.1806   16.5502 C   0  0  1  0  0  0  0  0  0  0  0  0
    7.9959  -16.6355   16.1600 C   0  0  0  0  0  0  0  0  0  0  0  0
    9.4922  -16.9338   16.0578 C   0  0  0  0  0  0  0  0  0  0  0  0
    9.7155  -18.3567   15.6743 C   0  0  0  0  0  0  0  0  0  0  0  0
   10.0544  -18.6946   14.5117 O   0  0  0  0  0  0  0  0  0  0  0  0
    8.4784  -14.8943   17.8612 C   0  0  0  0  0  0  0  0  0  0  0  0
    9.7148  -14.7802   18.0606 O   0  0  0  0  0  0  0  0  0  0  0  0
    9.5484  -19.3508   16.6167 O   0  0  0  0  0  0  0  0  0  0  0  0
    6.2210  -15.1359   21.4253 O   0  0  0  0  0  0  0  0  0  0  0  0
    7.0992  -14.0574   21.3084 C   0  0  0  0  0  0  0  0  0  0  0  0
    8.1480  -14.4025   20.3072 C   0  0  2  0  0  0  0  0  0  0  0  0
    7.6507  -14.7269   19.0102 N   0  0  0  0  0  0  0  0  0  0  0  0
    9.0287  -15.4644   20.8682 C   0  0  0  0  0  0  0  0  0  0  0  0
    9.0536  -16.6191   20.3687 O   0  0  0  0  0  0  0  0  0  0  0  0
   14.7440  -14.6790   22.0507 N   0  0  0  0  0  0  0  0  0  0  0  0
   14.5849  -15.9383   22.6960 C   0  0  0  0  0  0  0  0  0  0  0  0
   15.6101  -16.5078   23.1229 O   0  0  0  0  0  0  0  0  0  0  0  0
   13.2642  -16.5691   22.8647 C   0  0  0  0  0  0  0  0  0  0  0  0
   12.1623  -15.7358   22.3229 C   0  0  0  0  0  0  0  0  0  0  0  0
   10.7727  -16.2847   22.5102 C   0  0  2  0  0  0  0  0  0  0  0  0
    9.8784  -15.2408   21.9812 N   0  0  0  0  0  0  0  0  0  0  0  0
   10.5426  -16.4323   23.9829 C   0  0  0  0  0  0  0  0  0  0  0  0
    9.9326  -15.4987   24.6009 O   0  0  0  0  0  0  0  0  0  0  0  0
   10.9395  -17.5038   24.7284 O   0  0  0  0  0  0  0  0  0  0  0  0
  2  3  1  0
  2  1  1  6
  4  3  1  0
  5  4  1  0
  6  5  2  0
  7  2  1  0
  8  7  2  0
  9  5  1  0
 11 10  1  0
 12 11  1  1
 12 14  1  0
 12 13  1  0
 13  7  1  0
 14 15  2  0
 16 17  1  0
 17 18  2  0
 19 17  1  0
 19 20  1  0
 21 20  1  1
 22 21  1  0
 22 14  1  0
 23 21  1  0
 24 23  2  0
 25 23  1  0
M  END
$$$$
