ESQ.pdb
     RDKit          3D

 25 24  0  0  1  0  0  0  0  0999 V2000
    7.5295  -18.5645   17.5338 N   0  0  0  0  0  0  0  0  0  0  0  0
    8.9472  -18.5061   17.7294 C   0  0  1  0  0  0  0  0  0  0  0  0
    9.6050  -18.2388   16.3957 C   0  0  0  0  0  0  0  0  0  0  0  0
    8.7003  -17.2478   15.6623 C   0  0  0  0  0  0  0  0  0  0  0  0
    9.2643  -16.9197   14.3223 C   0  0  0  0  0  0  0  0  0  0  0  0
   10.3558  -16.3114   14.1827 O   0  0  0  0  0  0  0  0  0  0  0  0
    9.2738  -17.4887   18.7380 C   0  0  0  0  0  0  0  0  0  0  0  0
   10.4445  -17.2078   19.1012 O   0  0  0  0  0  0  0  0  0  0  0  0
    8.5769  -17.2894   13.1844 O   0  0  0  0  0  0  0  0  0  0  0  0
    6.2245  -16.0694   21.3121 O   0  0  0  0  0  0  0  0  0  0  0  0
    7.2332  -15.1684   20.9678 C   0  0  0  0  0  0  0  0  0  0  0  0
    8.4331  -15.9385   20.5336 C   0  0  2  0  0  0  0  0  0  0  0  0
    8.2361  -16.7458   19.3742 N   0  0  0  0  0  0  0  0  0  0  0  0
    8.9624  -16.7123   21.6907 C   0  0  0  0  0  0  0  0  0  0  0  0
    9.2552  -17.9309   21.5784 O   0  0  0  0  0  0  0  0  0  0  0  0
   14.6438  -17.3333   22.7882 N   0  0  0  0  0  0  0  0  0  0  0  0
   13.6941  -17.5066   23.8349 C   0  0  0  0  0  0  0  0  0  0  0  0
   14.0841  -17.3407   25.0088 O   0  0  0  0  0  0  0  0  0  0  0  0
   12.2921  -17.8711   23.5662 C   0  0  0  0  0  0  0  0  0  0  0  0
   11.4324  -16.6858   23.3252 C   0  0  0  0  0  0  0  0  0  0  0  0
   10.0708  -16.7226   23.9672 C   0  0  2  0  0  0  0  0  0  0  0  0
    9.1647  -16.1307   22.9682 N   0  0  0  0  0  0  0  0  0  0  0  0
   10.1195  -15.8382   25.1750 C   0  0  0  0  0  0  0  0  0  0  0  0
   10.2263  -14.5792   25.0044 O   0  0  0  0  0  0  0  0  0  0  0  0
   10.0572  -16.2791   26.4646 O   0  0  0  0  0  0  0  0  0  0  0  0
  2  3  1  0
  2  1  1  6
  4  3  1  0
  5  4  1  0
  6  5  2  0
  7  2  1  0
  8  7  2  0
  9  5  1  0
 11 10  1  0
 12 11  1  1
 12 14  1  0
 12 13  1  0
 13  7  1  0
 14 15  2  0
 16 17  1  0
 17 18  2  0
 19 17  1  0
 19 20  1  0
 21 20  1  6
 22 21  1  0
 22 14  1  0
 23 21  1  0
 24 23  2  0
 25 23  1  0
M  END
$$$$
