ESQ.pdb
     RDKit          3D

 25 24  0  0  1  0  0  0  0  0999 V2000
   12.2548  -17.0601   19.4002 N   0  0  0  0  0  0  0  0  0  0  0  0
   12.9560  -16.2453   20.3469 C   0  0  1  0  0  0  0  0  0  0  0  0
   13.4065  -14.9818   19.6517 C   0  0  0  0  0  0  0  0  0  0  0  0
   14.1023  -15.4255   18.3643 C   0  0  0  0  0  0  0  0  0  0  0  0
   14.6573  -14.2478   17.6388 C   0  0  0  0  0  0  0  0  0  0  0  0
   15.8935  -14.0434   17.5347 O   0  0  0  0  0  0  0  0  0  0  0  0
   12.1005  -15.9790   21.5115 C   0  0  0  0  0  0  0  0  0  0  0  0
   12.3901  -15.1665   22.4266 O   0  0  0  0  0  0  0  0  0  0  0  0
   13.7978  -13.3399   17.0548 O   0  0  0  0  0  0  0  0  0  0  0  0
    8.8715  -18.5725   22.5142 O   0  0  0  0  0  0  0  0  0  0  0  0
    8.6911  -17.1996   22.6887 C   0  0  0  0  0  0  0  0  0  0  0  0
   10.0288  -16.5553   22.8189 C   0  0  2  0  0  0  0  0  0  0  0  0
   10.8550  -16.6572   21.6607 N   0  0  0  0  0  0  0  0  0  0  0  0
   10.6974  -17.0617   24.0495 C   0  0  0  0  0  0  0  0  0  0  0  0
   11.6107  -17.9249   23.9846 O   0  0  0  0  0  0  0  0  0  0  0  0
   10.6429  -12.2812   28.0320 N   0  0  0  0  0  0  0  0  0  0  0  0
   10.6604  -13.6870   28.2583 C   0  0  0  0  0  0  0  0  0  0  0  0
   10.4286  -14.0937   29.4152 O   0  0  0  0  0  0  0  0  0  0  0  0
   10.9416  -14.6493   27.1788 C   0  0  0  0  0  0  0  0  0  0  0  0
   10.7533  -16.0572   27.6084 C   0  0  0  0  0  0  0  0  0  0  0  0
   11.0233  -17.1039   26.5600 C   0  0  2  0  0  0  0  0  0  0  0  0
   10.3501  -16.6081   25.3475 N   0  0  0  0  0  0  0  0  0  0  0  0
   10.3621  -18.3706   27.0090 C   0  0  0  0  0  0  0  0  0  0  0  0
   10.8729  -19.0114   27.9858 O   0  0  0  0  0  0  0  0  0  0  0  0
    9.2381  -18.9024   26.4477 O   0  0  0  0  0  0  0  0  0  0  0  0
  2  3  1  0
  2  1  1  6
  4  3  1  0
  5  4  1  0
  6  5  2  0
  7  2  1  0
  8  7  2  0
  9  5  1  0
 11 10  1  0
 12 11  1  6
 12 14  1  0
 12 13  1  0
 13  7  1  0
 14 15  2  0
 16 17  1  0
 17 18  2  0
 19 17  1  0
 19 20  1  0
 21 20  1  1
 22 21  1  0
 22 14  1  0
 23 21  1  0
 24 23  2  0
 25 23  1  0
M  END
$$$$
