ESQ.pdb
     RDKit          3D

 25 24  0  0  1  0  0  0  0  0999 V2000
    7.9620  -16.3698   15.8270 N   0  0  0  0  0  0  0  0  0  0  0  0
    9.3810  -16.2467   15.9778 C   0  0  1  0  0  0  0  0  0  0  0  0
    9.9246  -15.4796   14.7951 C   0  0  0  0  0  0  0  0  0  0  0  0
   10.7880  -16.4642   14.0055 C   0  0  0  0  0  0  0  0  0  0  0  0
   11.4310  -15.7816   12.8471 C   0  0  0  0  0  0  0  0  0  0  0  0
   12.5492  -16.1354   12.3941 O   0  0  0  0  0  0  0  0  0  0  0  0
    9.6961  -15.6076   17.2629 C   0  0  0  0  0  0  0  0  0  0  0  0
   10.8399  -15.6039   17.7855 O   0  0  0  0  0  0  0  0  0  0  0  0
   10.7897  -14.7221   12.2386 O   0  0  0  0  0  0  0  0  0  0  0  0
    6.6525  -14.5781   20.0561 O   0  0  0  0  0  0  0  0  0  0  0  0
    7.6935  -13.6690   19.8619 C   0  0  0  0  0  0  0  0  0  0  0  0
    8.8693  -14.4006   19.3106 C   0  0  2  0  0  0  0  0  0  0  0  0
    8.6781  -14.9372   18.0029 N   0  0  0  0  0  0  0  0  0  0  0  0
    9.3120  -15.4267   20.2949 C   0  0  0  0  0  0  0  0  0  0  0  0
    9.5719  -16.6038   19.9341 O   0  0  0  0  0  0  0  0  0  0  0  0
   14.3062  -14.7730   20.9378 N   0  0  0  0  0  0  0  0  0  0  0  0
   14.2413  -15.4129   22.2082 C   0  0  0  0  0  0  0  0  0  0  0  0
   15.3131  -15.6106   22.8164 O   0  0  0  0  0  0  0  0  0  0  0  0
   12.9633  -15.8380   22.8052 C   0  0  0  0  0  0  0  0  0  0  0  0
   11.7888  -15.3699   22.0283 C   0  0  0  0  0  0  0  0  0  0  0  0
   10.4469  -15.8447   22.5193 C   0  0  2  0  0  0  0  0  0  0  0  0
    9.4646  -15.1426   21.6758 N   0  0  0  0  0  0  0  0  0  0  0  0
   10.2987  -15.3847   23.9371 C   0  0  0  0  0  0  0  0  0  0  0  0
    9.8010  -14.2312   24.1545 O   0  0  0  0  0  0  0  0  0  0  0  0
   10.6590  -16.1134   25.0327 O   0  0  0  0  0  0  0  0  0  0  0  0
  2  3  1  0
  2  1  1  6
  4  3  1  0
  5  4  1  0
  6  5  2  0
  7  2  1  0
  8  7  2  0
  9  5  1  0
 11 10  1  0
 12 11  1  1
 12 14  1  0
 12 13  1  0
 13  7  1  0
 14 15  2  0
 16 17  1  0
 17 18  2  0
 19 17  1  0
 19 20  1  0
 21 20  1  6
 22 21  1  0
 22 14  1  0
 23 21  1  0
 24 23  2  0
 25 23  1  0
M  END
$$$$
