ESQ.pdb
     RDKit          3D

 25 24  0  0  1  0  0  0  0  0999 V2000
   10.6679  -19.2081   19.3754 N   0  0  0  0  0  0  0  0  0  0  0  0
   11.8159  -18.4150   19.6992 C   0  0  1  0  0  0  0  0  0  0  0  0
   12.4442  -17.9326   18.4127 C   0  0  0  0  0  0  0  0  0  0  0  0
   11.3455  -17.9911   17.3506 C   0  0  0  0  0  0  0  0  0  0  0  0
   11.8493  -17.4669   16.0495 C   0  0  0  0  0  0  0  0  0  0  0  0
   12.3937  -16.3385   15.9446 O   0  0  0  0  0  0  0  0  0  0  0  0
   11.4298  -17.3130   20.5912 C   0  0  0  0  0  0  0  0  0  0  0  0
   12.2270  -16.4370   21.0135 O   0  0  0  0  0  0  0  0  0  0  0  0
   11.7217  -18.2347   14.9101 O   0  0  0  0  0  0  0  0  0  0  0  0
    7.6254  -17.3266   22.5511 O   0  0  0  0  0  0  0  0  0  0  0  0
    8.1859  -16.1072   22.1680 C   0  0  0  0  0  0  0  0  0  0  0  0
    9.6623  -16.2762   22.0522 C   0  0  2  0  0  0  0  0  0  0  0  0
   10.0807  -17.1839   21.0345 N   0  0  0  0  0  0  0  0  0  0  0  0
   10.2220  -16.6139   23.3904 C   0  0  0  0  0  0  0  0  0  0  0  0
   10.8157  -17.7052   23.5899 O   0  0  0  0  0  0  0  0  0  0  0  0
    9.5680  -12.7720   28.3626 N   0  0  0  0  0  0  0  0  0  0  0  0
   10.1605  -13.9214   28.9589 C   0  0  0  0  0  0  0  0  0  0  0  0
   10.3551  -13.9035   30.1916 O   0  0  0  0  0  0  0  0  0  0  0  0
   10.5410  -15.1045   28.1675 C   0  0  0  0  0  0  0  0  0  0  0  0
   10.2133  -14.9554   26.7279 C   0  0  0  0  0  0  0  0  0  0  0  0
   10.5740  -16.1239   25.8494 C   0  0  2  0  0  0  0  0  0  0  0  0
   10.1207  -15.7391   24.5019 N   0  0  0  0  0  0  0  0  0  0  0  0
    9.7787  -17.3025   26.3203 C   0  0  0  0  0  0  0  0  0  0  0  0
   10.2978  -18.0812   27.1862 O   0  0  0  0  0  0  0  0  0  0  0  0
    8.5222  -17.6146   25.8902 O   0  0  0  0  0  0  0  0  0  0  0  0
  2  3  1  0
  2  1  1  6
  4  3  1  0
  5  4  1  0
  6  5  2  0
  7  2  1  0
  8  7  2  0
  9  5  1  0
 11 10  1  0
 12 11  1  1
 12 14  1  0
 12 13  1  0
 13  7  1  0
 14 15  2  0
 16 17  1  0
 17 18  2  0
 19 17  1  0
 19 20  1  0
 21 20  1  1
 22 21  1  0
 22 14  1  0
 23 21  1  0
 24 23  2  0
 25 23  1  0
M  END
$$$$
