ESQ.pdb
     RDKit          3D

 25 24  0  0  1  0  0  0  0  0999 V2000
    8.2979  -18.8139   18.3011 N   0  0  0  0  0  0  0  0  0  0  0  0
    9.6627  -18.3922   18.4072 C   0  0  1  0  0  0  0  0  0  0  0  0
   10.2042  -18.1647   17.0152 C   0  0  0  0  0  0  0  0  0  0  0  0
    9.1247  -17.3923   16.2560 C   0  0  0  0  0  0  0  0  0  0  0  0
    9.5782  -17.0889   14.8691 C   0  0  0  0  0  0  0  0  0  0  0  0
    8.9718  -16.2760   14.1260 O   0  0  0  0  0  0  0  0  0  0  0  0
    9.7543  -17.1956   19.2551 C   0  0  0  0  0  0  0  0  0  0  0  0
   10.8217  -16.5679   19.4739 O   0  0  0  0  0  0  0  0  0  0  0  0
   10.7016  -17.7136   14.3674 O   0  0  0  0  0  0  0  0  0  0  0  0
    6.4517  -16.3864   21.8323 O   0  0  0  0  0  0  0  0  0  0  0  0
    7.3027  -15.3321   21.4976 C   0  0  0  0  0  0  0  0  0  0  0  0
    8.6205  -15.8946   21.0870 C   0  0  2  0  0  0  0  0  0  0  0  0
    8.5904  -16.6733   19.8923 N   0  0  0  0  0  0  0  0  0  0  0  0
    9.2188  -16.6275   22.2370 C   0  0  0  0  0  0  0  0  0  0  0  0
    9.5988  -17.8214   22.1201 O   0  0  0  0  0  0  0  0  0  0  0  0
   14.9488  -17.6478   22.5565 N   0  0  0  0  0  0  0  0  0  0  0  0
   13.9707  -16.7368   23.0473 C   0  0  0  0  0  0  0  0  0  0  0  0
   14.3468  -15.5863   23.3516 O   0  0  0  0  0  0  0  0  0  0  0  0
   12.5555  -17.1168   23.2009 C   0  0  0  0  0  0  0  0  0  0  0  0
   11.7374  -16.0333   23.8001 C   0  0  0  0  0  0  0  0  0  0  0  0
   10.4475  -16.4665   24.4450 C   0  0  2  0  0  0  0  0  0  0  0  0
    9.3932  -16.0328   23.5125 N   0  0  0  0  0  0  0  0  0  0  0  0
   10.3116  -15.7100   25.7306 C   0  0  0  0  0  0  0  0  0  0  0  0
    9.7002  -14.5912   25.7174 O   0  0  0  0  0  0  0  0  0  0  0  0
   10.7971  -16.1293   26.9346 O   0  0  0  0  0  0  0  0  0  0  0  0
  2  3  1  0
  2  1  1  6
  4  3  1  0
  5  4  1  0
  6  5  2  0
  7  2  1  0
  8  7  2  0
  9  5  1  0
 11 10  1  0
 12 11  1  1
 12 14  1  0
 12 13  1  0
 13  7  1  0
 14 15  2  0
 16 17  1  0
 17 18  2  0
 19 17  1  0
 19 20  1  0
 21 20  1  6
 22 21  1  0
 22 14  1  0
 23 21  1  0
 24 23  2  0
 25 23  1  0
M  END
$$$$
