PDK.pdb
     RDKit          3D

 25 25  0  0  1  0  0  0  0  0999 V2000
    9.3929  -14.3761   17.8043 N   0  0  0  0  0  0  0  0  0  0  0  0
    8.1675  -14.3481   17.0882 C   0  0  0  0  0  0  0  0  0  0  0  0
    7.1347  -13.7823   18.0685 C   0  0  0  0  0  0  0  0  0  0  0  0
    7.9850  -13.0024   19.0362 C   0  0  0  0  0  0  0  0  0  0  0  0
    9.2562  -13.8163   19.0952 C   0  0  1  0  0  0  0  0  0  0  0  0
    9.0970  -14.7949   20.2002 C   0  0  0  0  0  0  0  0  0  0  0  0
    8.0760  -14.6079   20.9398 O   0  0  0  0  0  0  0  0  0  0  0  0
    9.9714  -15.8712   20.4675 N   0  0  0  0  0  0  0  0  0  0  0  0
    9.7648  -16.7678   21.5782 C   0  0  1  0  0  0  0  0  0  0  0  0
   10.6098  -17.9901   21.5220 C   0  0  0  0  0  0  0  0  0  0  0  0
   10.3906  -18.7537   20.2724 C   0  0  0  0  0  0  0  0  0  0  0  0
    9.3087  -19.3491   20.0521 O   0  0  0  0  0  0  0  0  0  0  0  0
    9.8555  -16.0030   22.8279 C   0  0  0  0  0  0  0  0  0  0  0  0
   10.8942  -15.3253   23.0212 O   0  0  0  0  0  0  0  0  0  0  0  0
   11.3615  -18.8543   19.2801 O   0  0  0  0  0  0  0  0  0  0  0  0
    8.8710  -15.9682   23.8280 N   0  0  0  0  0  0  0  0  0  0  0  0
    9.0052  -15.1438   25.0637 C   0  0  1  0  0  0  0  0  0  0  0  0
    7.8045  -14.3100   25.2493 C   0  0  0  0  0  0  0  0  0  0  0  0
    7.7601  -13.4353   26.4344 C   0  0  0  0  0  0  0  0  0  0  0  0
    6.7017  -12.4362   26.6077 C   0  0  0  0  0  0  0  0  0  0  0  0
    6.6728  -11.4649   27.7041 C   0  0  0  0  0  0  0  0  0  0  0  0
    5.4967  -10.6630   27.8478 N   0  0  0  0  0  0  0  0  0  0  0  0
    9.2319  -16.1011   26.1923 C   0  0  0  0  0  0  0  0  0  0  0  0
    8.9507  -17.2896   26.0947 O   0  0  0  0  0  0  0  0  0  0  0  0
    9.7718  -15.6314   27.3737 O   0  0  0  0  0  0  0  0  0  0  0  0
  1  2  1  0
  3  2  1  0
  4  3  1  0
  5  6  1  1
  5  4  1  0
  5  1  1  0
  6  7  2  0
  8  9  1  0
  8  6  1  0
  9 13  1  0
 10 11  1  0
  9 10  1  1
 11 15  1  0
 12 11  2  0
 13 14  2  0
 13 16  1  0
 16 17  1  0
 17 23  1  0
 17 18  1  1
 19 18  1  0
 20 19  1  0
 21 20  1  0
 22 21  1  0
 23 24  2  0
 23 25  1  0
M  END
$$$$
