PDK.pdb
     RDKit          3D

 25 25  0  0  1  0  0  0  0  0999 V2000
    9.4938  -14.1282   18.0909 N   0  0  0  0  0  0  0  0  0  0  0  0
    8.3657  -14.1601   17.2300 C   0  0  0  0  0  0  0  0  0  0  0  0
    7.1692  -13.7857   18.1108 C   0  0  0  0  0  0  0  0  0  0  0  0
    7.8097  -13.0116   19.2326 C   0  0  0  0  0  0  0  0  0  0  0  0
    9.1458  -13.6978   19.3918 C   0  0  1  0  0  0  0  0  0  0  0  0
    8.9648  -14.7788   20.3932 C   0  0  0  0  0  0  0  0  0  0  0  0
    7.8754  -14.7230   21.0522 O   0  0  0  0  0  0  0  0  0  0  0  0
    9.8877  -15.8174   20.6467 N   0  0  0  0  0  0  0  0  0  0  0  0
    9.7186  -16.7416   21.7409 C   0  0  1  0  0  0  0  0  0  0  0  0
   10.6165  -17.9246   21.6654 C   0  0  0  0  0  0  0  0  0  0  0  0
   10.1286  -19.0405   22.5073 C   0  0  0  0  0  0  0  0  0  0  0  0
    9.1382  -18.9026   23.2648 O   0  0  0  0  0  0  0  0  0  0  0  0
    9.7736  -15.9958   23.0041 C   0  0  0  0  0  0  0  0  0  0  0  0
   10.8552  -15.4319   23.3003 O   0  0  0  0  0  0  0  0  0  0  0  0
   10.7335  -20.2941   22.5076 O   0  0  0  0  0  0  0  0  0  0  0  0
    8.7105  -15.8619   23.9110 N   0  0  0  0  0  0  0  0  0  0  0  0
    8.8431  -15.1374   25.2080 C   0  0  1  0  0  0  0  0  0  0  0  0
    7.5897  -14.4295   25.5233 C   0  0  0  0  0  0  0  0  0  0  0  0
    7.6935  -13.1584   26.2617 C   0  0  0  0  0  0  0  0  0  0  0  0
    6.4998  -12.4218   26.6868 C   0  0  0  0  0  0  0  0  0  0  0  0
    6.5451  -11.1699   27.4465 C   0  0  0  0  0  0  0  0  0  0  0  0
    5.2981  -10.5759   27.8193 N   0  0  0  0  0  0  0  0  0  0  0  0
    9.2080  -16.1644   26.2346 C   0  0  0  0  0  0  0  0  0  0  0  0
    8.9255  -17.3478   26.0900 O   0  0  0  0  0  0  0  0  0  0  0  0
    9.8805  -15.7666   27.3735 O   0  0  0  0  0  0  0  0  0  0  0  0
  1  2  1  0
  3  2  1  0
  4  3  1  0
  5  6  1  1
  5  4  1  0
  5  1  1  0
  6  7  2  0
  8  9  1  0
  8  6  1  0
  9 13  1  0
 10 11  1  0
  9 10  1  1
 11 15  1  0
 12 11  2  0
 13 14  2  0
 13 16  1  0
 16 17  1  0
 17 23  1  0
 17 18  1  1
 19 18  1  0
 20 19  1  0
 21 20  1  0
 22 21  1  0
 23 24  2  0
 23 25  1  0
M  END
$$$$
