PDK.pdb
     RDKit          3D

 25 25  0  0  1  0  0  0  0  0999 V2000
    9.5901  -14.2523   17.9208 N   0  0  0  0  0  0  0  0  0  0  0  0
    8.5058  -14.5111   17.0421 C   0  0  0  0  0  0  0  0  0  0  0  0
    7.2417  -14.2105   17.8540 C   0  0  0  0  0  0  0  0  0  0  0  0
    7.7403  -13.2566   18.9072 C   0  0  0  0  0  0  0  0  0  0  0  0
    9.1455  -13.7473   19.1642 C   0  0  1  0  0  0  0  0  0  0  0  0
    9.0666  -14.7414   20.2639 C   0  0  0  0  0  0  0  0  0  0  0  0
    8.0175  -14.6636   20.9834 O   0  0  0  0  0  0  0  0  0  0  0  0
   10.0420  -15.7229   20.5464 N   0  0  0  0  0  0  0  0  0  0  0  0
    9.9177  -16.6263   21.6639 C   0  0  1  0  0  0  0  0  0  0  0  0
   10.8513  -17.7822   21.6018 C   0  0  0  0  0  0  0  0  0  0  0  0
   10.6606  -18.7056   22.7434 C   0  0  0  0  0  0  0  0  0  0  0  0
    9.5145  -19.0251   23.1407 O   0  0  0  0  0  0  0  0  0  0  0  0
    9.9670  -15.8501   22.9087 C   0  0  0  0  0  0  0  0  0  0  0  0
   10.9812  -15.1387   23.1111 O   0  0  0  0  0  0  0  0  0  0  0  0
   11.7302  -19.2670   23.4350 O   0  0  0  0  0  0  0  0  0  0  0  0
    8.9681  -15.8391   23.8950 N   0  0  0  0  0  0  0  0  0  0  0  0
    9.0169  -14.9380   25.0826 C   0  0  1  0  0  0  0  0  0  0  0  0
    7.7770  -14.1465   25.1692 C   0  0  0  0  0  0  0  0  0  0  0  0
    7.6129  -13.2649   26.3386 C   0  0  0  0  0  0  0  0  0  0  0  0
    6.4034  -12.4580   26.5236 C   0  0  0  0  0  0  0  0  0  0  0  0
    6.1828  -11.5760   27.6725 C   0  0  0  0  0  0  0  0  0  0  0  0
    4.9729  -10.8130   27.6992 N   0  0  0  0  0  0  0  0  0  0  0  0
    9.2338  -15.8164   26.2755 C   0  0  0  0  0  0  0  0  0  0  0  0
    9.6351  -15.3661   27.3420 O   0  0  0  0  0  0  0  0  0  0  0  0
    8.9747  -17.1689   26.1702 O   0  0  0  0  0  0  0  0  0  0  0  0
  1  2  1  0
  3  2  1  0
  4  3  1  0
  5  6  1  1
  5  4  1  0
  5  1  1  0
  6  7  2  0
  8  9  1  0
  8  6  1  0
  9 13  1  0
 10 11  1  0
  9 10  1  1
 11 15  1  0
 12 11  2  0
 13 14  2  0
 13 16  1  0
 16 17  1  0
 17 23  1  0
 17 18  1  1
 19 18  1  0
 20 19  1  0
 21 20  1  0
 22 21  1  0
 23 24  2  0
 23 25  1  0
M  END
$$$$
