PDK.pdb
     RDKit          3D

 25 25  0  0  1  0  0  0  0  0999 V2000
    8.8314  -14.0629   17.9872 N   0  0  0  0  0  0  0  0  0  0  0  0
    7.4711  -13.8274   17.6567 C   0  0  0  0  0  0  0  0  0  0  0  0
    6.8231  -13.3049   18.9430 C   0  0  0  0  0  0  0  0  0  0  0  0
    7.9952  -12.7422   19.7028 C   0  0  0  0  0  0  0  0  0  0  0  0
    9.1220  -13.6699   19.3137 C   0  0  1  0  0  0  0  0  0  0  0  0
    9.1477  -14.7682   20.3122 C   0  0  0  0  0  0  0  0  0  0  0  0
    8.4043  -14.5848   21.3311 O   0  0  0  0  0  0  0  0  0  0  0  0
    9.9132  -15.9500   20.2039 N   0  0  0  0  0  0  0  0  0  0  0  0
    9.8772  -16.9807   21.2121 C   0  0  1  0  0  0  0  0  0  0  0  0
   10.2365  -18.3292   20.6983 C   0  0  0  0  0  0  0  0  0  0  0  0
    9.2497  -18.8228   19.7109 C   0  0  0  0  0  0  0  0  0  0  0  0
    8.0166  -18.6833   19.8942 O   0  0  0  0  0  0  0  0  0  0  0  0
   10.6480  -16.5310   22.3775 C   0  0  0  0  0  0  0  0  0  0  0  0
   11.7230  -15.9194   22.1634 O   0  0  0  0  0  0  0  0  0  0  0  0
    9.6283  -19.4634   18.5346 O   0  0  0  0  0  0  0  0  0  0  0  0
   10.2788  -16.7303   23.7172 N   0  0  0  0  0  0  0  0  0  0  0  0
   11.0964  -16.2340   24.8617 C   0  0  1  0  0  0  0  0  0  0  0  0
   10.2184  -15.8326   25.9750 C   0  0  0  0  0  0  0  0  0  0  0  0
   10.8606  -15.4646   27.2493 C   0  0  0  0  0  0  0  0  0  0  0  0
   10.0705  -15.0443   28.4100 C   0  0  0  0  0  0  0  0  0  0  0  0
   10.6590  -14.5845   29.6704 C   0  0  0  0  0  0  0  0  0  0  0  0
    9.7659  -14.1316   30.6922 N   0  0  0  0  0  0  0  0  0  0  0  0
   12.0345  -17.3420   25.2277 C   0  0  0  0  0  0  0  0  0  0  0  0
   13.1682  -17.1177   25.6344 O   0  0  0  0  0  0  0  0  0  0  0  0
   11.6100  -18.6504   25.1032 O   0  0  0  0  0  0  0  0  0  0  0  0
  1  2  1  0
  3  2  1  0
  4  3  1  0
  5  6  1  1
  5  4  1  0
  5  1  1  0
  6  7  2  0
  8  9  1  0
  8  6  1  0
  9 13  1  0
 10 11  1  0
  9 10  1  6
 11 15  1  0
 12 11  2  0
 13 14  2  0
 13 16  1  0
 16 17  1  0
 17 23  1  0
 17 18  1  1
 19 18  1  0
 20 19  1  0
 21 20  1  0
 22 21  1  0
 23 24  2  0
 23 25  1  0
M  END
$$$$
