PDK.pdb
     RDKit          3D

 25 25  0  0  1  0  0  0  0  0999 V2000
    8.7557  -14.8197   17.7822 N   0  0  0  0  0  0  0  0  0  0  0  0
    7.5358  -14.1659   17.4667 C   0  0  0  0  0  0  0  0  0  0  0  0
    7.3087  -13.1575   18.5977 C   0  0  0  0  0  0  0  0  0  0  0  0
    8.7007  -12.9266   19.1236 C   0  0  0  0  0  0  0  0  0  0  0  0
    9.3550  -14.2758   18.9413 C   0  0  1  0  0  0  0  0  0  0  0  0
    9.1317  -15.0420   20.1931 C   0  0  0  0  0  0  0  0  0  0  0  0
    8.0676  -14.7387   20.8254 O   0  0  0  0  0  0  0  0  0  0  0  0
    9.9910  -16.0411   20.7010 N   0  0  0  0  0  0  0  0  0  0  0  0
    9.6507  -16.8256   21.8624 C   0  0  1  0  0  0  0  0  0  0  0  0
   10.4275  -18.0884   21.9765 C   0  0  0  0  0  0  0  0  0  0  0  0
   11.8849  -17.8344   22.0386 C   0  0  0  0  0  0  0  0  0  0  0  0
   12.4926  -17.7819   23.1347 O   0  0  0  0  0  0  0  0  0  0  0  0
    9.6892  -15.9597   23.0471 C   0  0  0  0  0  0  0  0  0  0  0  0
   10.5872  -15.0843   23.0991 O   0  0  0  0  0  0  0  0  0  0  0  0
   12.6574  -17.6411   20.8969 O   0  0  0  0  0  0  0  0  0  0  0  0
    8.7996  -16.0319   24.1307 N   0  0  0  0  0  0  0  0  0  0  0  0
    8.8106  -15.0466   25.2504 C   0  0  1  0  0  0  0  0  0  0  0  0
    7.5280  -14.3228   25.3009 C   0  0  0  0  0  0  0  0  0  0  0  0
    7.3321  -13.3614   26.4004 C   0  0  0  0  0  0  0  0  0  0  0  0
    6.1329  -12.5222   26.4772 C   0  0  0  0  0  0  0  0  0  0  0  0
    5.9417  -11.4676   27.4761 C   0  0  0  0  0  0  0  0  0  0  0  0
    4.7328  -10.7053   27.4113 N   0  0  0  0  0  0  0  0  0  0  0  0
    9.0927  -15.8232   26.4990 C   0  0  0  0  0  0  0  0  0  0  0  0
    8.9781  -17.0424   26.5385 O   0  0  0  0  0  0  0  0  0  0  0  0
    9.4922  -15.1470   27.6351 O   0  0  0  0  0  0  0  0  0  0  0  0
  1  2  1  0
  3  2  1  0
  4  3  1  0
  5  6  1  1
  5  4  1  0
  5  1  1  0
  6  7  2  0
  8  9  1  0
  8  6  1  0
  9 13  1  0
 10 11  1  0
  9 10  1  1
 11 15  1  0
 12 11  2  0
 13 14  2  0
 13 16  1  0
 16 17  1  0
 17 23  1  0
 17 18  1  1
 19 18  1  0
 20 19  1  0
 21 20  1  0
 22 21  1  0
 23 24  2  0
 23 25  1  0
M  END
$$$$
