PDK.pdb
     RDKit          3D

 25 25  0  0  1  0  0  0  0  0999 V2000
    8.2502  -14.5639   18.1024 N   0  0  0  0  0  0  0  0  0  0  0  0
    7.1700  -13.6656   18.3056 C   0  0  0  0  0  0  0  0  0  0  0  0
    7.5445  -12.8514   19.5483 C   0  0  0  0  0  0  0  0  0  0  0  0
    9.0462  -12.9593   19.5782 C   0  0  0  0  0  0  0  0  0  0  0  0
    9.2926  -14.3460   19.0322 C   0  0  1  0  0  0  0  0  0  0  0  0
    9.3165  -15.2735   20.1911 C   0  0  0  0  0  0  0  0  0  0  0  0
    8.1885  -15.4566   20.7553 O   0  0  0  0  0  0  0  0  0  0  0  0
   10.4641  -15.9339   20.6825 N   0  0  0  0  0  0  0  0  0  0  0  0
   10.4089  -16.8228   21.8169 C   0  0  1  0  0  0  0  0  0  0  0  0
   11.4934  -17.8403   21.8294 C   0  0  0  0  0  0  0  0  0  0  0  0
   11.4573  -18.6979   20.6229 C   0  0  0  0  0  0  0  0  0  0  0  0
   10.4592  -19.4099   20.3573 O   0  0  0  0  0  0  0  0  0  0  0  0
   10.2901  -16.0220   23.0414 C   0  0  0  0  0  0  0  0  0  0  0  0
   11.1516  -15.1309   23.2397 O   0  0  0  0  0  0  0  0  0  0  0  0
   12.5169  -18.7635   19.7228 O   0  0  0  0  0  0  0  0  0  0  0  0
    9.2874  -16.1728   24.0121 N   0  0  0  0  0  0  0  0  0  0  0  0
    9.1822  -15.2871   25.2076 C   0  0  1  0  0  0  0  0  0  0  0  0
    7.8929  -14.5737   25.1977 C   0  0  0  0  0  0  0  0  0  0  0  0
    7.5796  -13.7183   26.3561 C   0  0  0  0  0  0  0  0  0  0  0  0
    6.4918  -12.7371   26.3097 C   0  0  0  0  0  0  0  0  0  0  0  0
    6.1557  -11.8434   27.4208 C   0  0  0  0  0  0  0  0  0  0  0  0
    5.0172  -10.9912   27.2643 N   0  0  0  0  0  0  0  0  0  0  0  0
    9.3537  -16.1672   26.4066 C   0  0  0  0  0  0  0  0  0  0  0  0
    9.2398  -17.3848   26.3330 O   0  0  0  0  0  0  0  0  0  0  0  0
    9.6480  -15.5907   27.6267 O   0  0  0  0  0  0  0  0  0  0  0  0
  1  2  1  0
  3  2  1  0
  4  3  1  0
  5  6  1  1
  5  4  1  0
  5  1  1  0
  6  7  2  0
  8  9  1  0
  8  6  1  0
  9 13  1  0
 10 11  1  0
  9 10  1  1
 11 15  1  0
 12 11  2  0
 13 14  2  0
 13 16  1  0
 16 17  1  0
 17 23  1  0
 17 18  1  1
 19 18  1  0
 20 19  1  0
 21 20  1  0
 22 21  1  0
 23 24  2  0
 23 25  1  0
M  END
$$$$
