PDK.pdb
     RDKit          3D

 25 25  0  0  1  0  0  0  0  0999 V2000
    9.2019  -15.0758   20.1022 N   0  0  0  0  0  0  0  0  0  0  0  0
    8.6820  -14.8050   18.8094 C   0  0  0  0  0  0  0  0  0  0  0  0
    7.7171  -13.6294   18.9955 C   0  0  0  0  0  0  0  0  0  0  0  0
    8.2260  -12.9755   20.2529 C   0  0  0  0  0  0  0  0  0  0  0  0
    8.7296  -14.1490   21.0596 C   0  0  1  0  0  0  0  0  0  0  0  0
    7.5986  -14.6199   21.8980 C   0  0  0  0  0  0  0  0  0  0  0  0
    7.1007  -13.7382   22.6719 O   0  0  0  0  0  0  0  0  0  0  0  0
    7.0671  -15.9284   21.8887 N   0  0  0  0  0  0  0  0  0  0  0  0
    5.9719  -16.3160   22.7433 C   0  0  1  0  0  0  0  0  0  0  0  0
    5.0299  -17.2743   22.1064 C   0  0  0  0  0  0  0  0  0  0  0  0
    5.7423  -18.2982   21.3085 C   0  0  0  0  0  0  0  0  0  0  0  0
    6.5297  -17.9764   20.3866 O   0  0  0  0  0  0  0  0  0  0  0  0
    6.5105  -16.7394   24.0415 C   0  0  0  0  0  0  0  0  0  0  0  0
    5.7164  -17.2706   24.8557 O   0  0  0  0  0  0  0  0  0  0  0  0
    5.5817  -19.6626   21.5323 O   0  0  0  0  0  0  0  0  0  0  0  0
    7.8468  -16.5976   24.4477 N   0  0  0  0  0  0  0  0  0  0  0  0
    8.3279  -17.0119   25.7973 C   0  0  1  0  0  0  0  0  0  0  0  0
    8.1812  -18.4688   25.9623 C   0  0  0  0  0  0  0  0  0  0  0  0
    8.6388  -19.0592   27.2326 C   0  0  0  0  0  0  0  0  0  0  0  0
    8.5536  -20.5014   27.4796 C   0  0  0  0  0  0  0  0  0  0  0  0
    8.9143  -21.1306   28.7526 C   0  0  0  0  0  0  0  0  0  0  0  0
    8.7295  -22.5445   28.8684 N   0  0  0  0  0  0  0  0  0  0  0  0
    9.7488  -16.5522   25.9030 C   0  0  0  0  0  0  0  0  0  0  0  0
   10.3897  -16.2097   24.9166 O   0  0  0  0  0  0  0  0  0  0  0  0
   10.3520  -16.5135   27.1449 O   0  0  0  0  0  0  0  0  0  0  0  0
  1  2  1  0
  3  2  1  0
  4  3  1  0
  5  6  1  6
  5  4  1  0
  5  1  1  0
  6  7  2  0
  8  9  1  0
  8  6  1  0
  9 13  1  0
 10 11  1  0
  9 10  1  6
 11 15  1  0
 12 11  2  0
 13 14  2  0
 13 16  1  0
 16 17  1  0
 17 23  1  0
 17 18  1  6
 19 18  1  0
 20 19  1  0
 21 20  1  0
 22 21  1  0
 23 24  2  0
 23 25  1  0
M  END
$$$$
