PDK.pdb
     RDKit          3D

 25 25  0  0  1  0  0  0  0  0999 V2000
    7.1823  -14.2624   19.7758 N   0  0  0  0  0  0  0  0  0  0  0  0
    7.6318  -12.9226   19.9088 C   0  0  0  0  0  0  0  0  0  0  0  0
    8.9973  -12.8793   19.2151 C   0  0  0  0  0  0  0  0  0  0  0  0
    8.9209  -14.0369   18.2550 C   0  0  0  0  0  0  0  0  0  0  0  0
    8.0785  -15.0400   19.0072 C   0  0  1  0  0  0  0  0  0  0  0  0
    9.0094  -15.8949   19.7860 C   0  0  0  0  0  0  0  0  0  0  0  0
    9.5355  -16.8522   19.1294 O   0  0  0  0  0  0  0  0  0  0  0  0
    9.3305  -15.7175   21.1498 N   0  0  0  0  0  0  0  0  0  0  0  0
   10.2781  -16.5659   21.8299 C   0  0  1  0  0  0  0  0  0  0  0  0
   11.5142  -16.8264   21.0453 C   0  0  0  0  0  0  0  0  0  0  0  0
   12.2952  -17.9523   21.6063 C   0  0  0  0  0  0  0  0  0  0  0  0
   12.0765  -18.3867   22.7626 O   0  0  0  0  0  0  0  0  0  0  0  0
   10.4966  -16.0425   23.1837 C   0  0  0  0  0  0  0  0  0  0  0  0
   11.3983  -15.1828   23.3367 O   0  0  0  0  0  0  0  0  0  0  0  0
   13.3065  -18.5876   20.8914 O   0  0  0  0  0  0  0  0  0  0  0  0
    9.7761  -16.4272   24.3255 N   0  0  0  0  0  0  0  0  0  0  0  0
    9.5132  -15.4999   25.4637 C   0  0  1  0  0  0  0  0  0  0  0  0
    8.3199  -14.6814   25.1851 C   0  0  0  0  0  0  0  0  0  0  0  0
    7.9204  -13.6926   26.2021 C   0  0  0  0  0  0  0  0  0  0  0  0
    6.7123  -12.8781   26.0431 C   0  0  0  0  0  0  0  0  0  0  0  0
    6.2869  -11.8589   27.0057 C   0  0  0  0  0  0  0  0  0  0  0  0
    5.0485  -11.1874   26.7556 N   0  0  0  0  0  0  0  0  0  0  0  0
    9.3636  -16.3544   26.6840 C   0  0  0  0  0  0  0  0  0  0  0  0
    9.0756  -17.5428   26.6064 O   0  0  0  0  0  0  0  0  0  0  0  0
    9.5552  -15.7877   27.9289 O   0  0  0  0  0  0  0  0  0  0  0  0
  1  2  1  0
  3  2  1  0
  4  3  1  0
  5  6  1  1
  5  4  1  0
  5  1  1  0
  6  7  2  0
  8  9  1  0
  8  6  1  0
  9 13  1  0
 10 11  1  0
  9 10  1  6
 11 15  1  0
 12 11  2  0
 13 14  2  0
 13 16  1  0
 16 17  1  0
 17 23  1  0
 17 18  1  6
 19 18  1  0
 20 19  1  0
 21 20  1  0
 22 21  1  0
 23 24  2  0
 23 25  1  0
M  END
$$$$
