PDK.pdb
     RDKit          3D

 25 25  0  0  1  0  0  0  0  0999 V2000
    9.0638  -13.4770   17.9904 N   0  0  0  0  0  0  0  0  0  0  0  0
    8.0370  -13.9121   17.1122 C   0  0  0  0  0  0  0  0  0  0  0  0
    6.8055  -14.1261   17.9983 C   0  0  0  0  0  0  0  0  0  0  0  0
    7.0858  -13.2360   19.1802 C   0  0  0  0  0  0  0  0  0  0  0  0
    8.5882  -13.3191   19.3123 C   0  0  1  0  0  0  0  0  0  0  0  0
    8.8837  -14.4445   20.2342 C   0  0  0  0  0  0  0  0  0  0  0  0
    8.1892  -14.4596   21.3027 O   0  0  0  0  0  0  0  0  0  0  0  0
    9.8461  -15.4529   20.0067 N   0  0  0  0  0  0  0  0  0  0  0  0
   10.0570  -16.5340   20.9378 C   0  0  1  0  0  0  0  0  0  0  0  0
    9.7428  -17.8742   20.3753 C   0  0  0  0  0  0  0  0  0  0  0  0
   10.0648  -18.9604   21.3285 C   0  0  0  0  0  0  0  0  0  0  0  0
    9.6142  -18.9570   22.4992 O   0  0  0  0  0  0  0  0  0  0  0  0
   11.3966  -16.4010   21.5230 C   0  0  0  0  0  0  0  0  0  0  0  0
   12.3001  -17.1547   21.0856 O   0  0  0  0  0  0  0  0  0  0  0  0
   10.8773  -20.0372   20.9851 O   0  0  0  0  0  0  0  0  0  0  0  0
   11.7504  -15.4958   22.5359 N   0  0  0  0  0  0  0  0  0  0  0  0
   12.5304  -15.8989   23.7417 C   0  0  1  0  0  0  0  0  0  0  0  0
   11.6578  -16.6039   24.6972 C   0  0  0  0  0  0  0  0  0  0  0  0
   12.3052  -17.3079   25.8183 C   0  0  0  0  0  0  0  0  0  0  0  0
   11.5232  -18.0704   26.7957 C   0  0  0  0  0  0  0  0  0  0  0  0
   12.0872  -18.6373   28.0232 C   0  0  0  0  0  0  0  0  0  0  0  0
   11.2059  -19.3683   28.8810 N   0  0  0  0  0  0  0  0  0  0  0  0
   13.6647  -16.7449   23.2524 C   0  0  0  0  0  0  0  0  0  0  0  0
   14.8328  -16.4233   23.4342 O   0  0  0  0  0  0  0  0  0  0  0  0
   13.3860  -17.9180   22.5788 O   0  0  0  0  0  0  0  0  0  0  0  0
  1  2  1  0
  3  2  1  0
  4  3  1  0
  5  6  1  1
  5  4  1  0
  5  1  1  0
  6  7  2  0
  8  9  1  0
  8  6  1  0
  9 13  1  0
 10 11  1  0
  9 10  1  6
 11 15  1  0
 12 11  2  0
 13 14  2  0
 13 16  1  0
 16 17  1  0
 17 23  1  0
 17 18  1  1
 19 18  1  0
 20 19  1  0
 21 20  1  0
 22 21  1  0
 23 24  2  0
 23 25  1  0
M  END
$$$$
