PDK.pdb
     RDKit          3D

 25 25  0  0  1  0  0  0  0  0999 V2000
    7.0569  -14.1595   20.4361 N   0  0  0  0  0  0  0  0  0  0  0  0
    7.5729  -13.1247   19.6127 C   0  0  0  0  0  0  0  0  0  0  0  0
    8.5033  -13.8225   18.6152 C   0  0  0  0  0  0  0  0  0  0  0  0
    7.9719  -15.2314   18.5922 C   0  0  0  0  0  0  0  0  0  0  0  0
    7.4994  -15.4336   20.0126 C   0  0  1  0  0  0  0  0  0  0  0  0
    8.6408  -15.9977   20.7761 C   0  0  0  0  0  0  0  0  0  0  0  0
    9.0058  -17.1634   20.4128 O   0  0  0  0  0  0  0  0  0  0  0  0
    9.3143  -15.3475   21.8336 N   0  0  0  0  0  0  0  0  0  0  0  0
   10.3198  -16.0132   22.6249 C   0  0  1  0  0  0  0  0  0  0  0  0
   11.6675  -15.3938   22.5187 C   0  0  0  0  0  0  0  0  0  0  0  0
   12.3670  -15.8066   21.2807 C   0  0  0  0  0  0  0  0  0  0  0  0
   12.8675  -14.9614   20.5005 O   0  0  0  0  0  0  0  0  0  0  0  0
    9.8142  -16.1774   23.9932 C   0  0  0  0  0  0  0  0  0  0  0  0
    8.7813  -15.5397   24.3123 O   0  0  0  0  0  0  0  0  0  0  0  0
   12.5085  -17.1419   20.9142 O   0  0  0  0  0  0  0  0  0  0  0  0
   10.3948  -16.9930   24.9773 N   0  0  0  0  0  0  0  0  0  0  0  0
    9.6694  -17.4063   26.2133 C   0  0  1  0  0  0  0  0  0  0  0  0
    8.6178  -18.3836   25.8806 C   0  0  0  0  0  0  0  0  0  0  0  0
    7.8312  -18.9423   26.9945 C   0  0  0  0  0  0  0  0  0  0  0  0
    6.7990  -19.9577   26.7674 C   0  0  0  0  0  0  0  0  0  0  0  0
    5.9775  -20.5344   27.8346 C   0  0  0  0  0  0  0  0  0  0  0  0
    4.9201  -21.4188   27.4521 N   0  0  0  0  0  0  0  0  0  0  0  0
   10.7009  -17.9543   27.1499 C   0  0  0  0  0  0  0  0  0  0  0  0
   10.5069  -18.0132   28.3582 O   0  0  0  0  0  0  0  0  0  0  0  0
   11.9020  -18.4046   26.6378 O   0  0  0  0  0  0  0  0  0  0  0  0
  1  2  1  0
  3  2  1  0
  4  3  1  0
  5  6  1  1
  5  4  1  0
  5  1  1  0
  6  7  2  0
  8  9  1  0
  8  6  1  0
  9 13  1  0
 10 11  1  0
  9 10  1  1
 11 15  1  0
 12 11  2  0
 13 14  2  0
 13 16  1  0
 16 17  1  0
 17 23  1  0
 17 18  1  6
 19 18  1  0
 20 19  1  0
 21 20  1  0
 22 21  1  0
 23 24  2  0
 23 25  1  0
M  END
$$$$
