PDK.pdb
     RDKit          3D

 25 25  0  0  1  0  0  0  0  0999 V2000
    8.3714  -13.3165   20.8356 N   0  0  0  0  0  0  0  0  0  0  0  0
    8.6961  -13.4078   19.4568 C   0  0  0  0  0  0  0  0  0  0  0  0
    8.1727  -14.7748   19.0038 C   0  0  0  0  0  0  0  0  0  0  0  0
    7.0932  -15.0697   20.0115 C   0  0  0  0  0  0  0  0  0  0  0  0
    7.6333  -14.4398   21.2738 C   0  0  1  0  0  0  0  0  0  0  0  0
    8.4194  -15.4825   21.9801 C   0  0  0  0  0  0  0  0  0  0  0  0
    7.7985  -16.5765   22.1842 O   0  0  0  0  0  0  0  0  0  0  0  0
    9.7539  -15.3386   22.4193 N   0  0  0  0  0  0  0  0  0  0  0  0
   10.4412  -16.3852   23.1353 C   0  0  1  0  0  0  0  0  0  0  0  0
   11.9192  -16.2217   23.1550 C   0  0  0  0  0  0  0  0  0  0  0  0
   12.5032  -16.3315   21.7988 C   0  0  0  0  0  0  0  0  0  0  0  0
   13.2326  -15.4268   21.3266 O   0  0  0  0  0  0  0  0  0  0  0  0
    9.8137  -16.5499   24.4520 C   0  0  0  0  0  0  0  0  0  0  0  0
    9.6644  -15.5228   25.1580 O   0  0  0  0  0  0  0  0  0  0  0  0
   12.2796  -17.4330   20.9777 O   0  0  0  0  0  0  0  0  0  0  0  0
    9.3654  -17.7676   24.9875 N   0  0  0  0  0  0  0  0  0  0  0  0
    8.6477  -17.8597   26.2918 C   0  0  1  0  0  0  0  0  0  0  0  0
    7.6698  -18.9615   26.2552 C   0  0  0  0  0  0  0  0  0  0  0  0
    6.7698  -19.0341   25.0906 C   0  0  0  0  0  0  0  0  0  0  0  0
    5.8654  -20.1704   24.8933 C   0  0  0  0  0  0  0  0  0  0  0  0
    4.9532  -20.2946   23.7536 C   0  0  0  0  0  0  0  0  0  0  0  0
    4.1185  -21.4552   23.6967 N   0  0  0  0  0  0  0  0  0  0  0  0
    9.6970  -18.0446   27.3437 C   0  0  0  0  0  0  0  0  0  0  0  0
   10.8552  -18.3217   27.0560 O   0  0  0  0  0  0  0  0  0  0  0  0
    9.3494  -17.8987   28.6724 O   0  0  0  0  0  0  0  0  0  0  0  0
  1  2  1  0
  3  2  1  0
  4  3  1  0
  5  6  1  6
  5  4  1  0
  5  1  1  0
  6  7  2  0
  8  9  1  0
  8  6  1  0
  9 13  1  0
 10 11  1  0
  9 10  1  1
 11 15  1  0
 12 11  2  0
 13 14  2  0
 13 16  1  0
 16 17  1  0
 17 23  1  0
 17 18  1  6
 19 18  1  0
 20 19  1  0
 21 20  1  0
 22 21  1  0
 23 24  2  0
 23 25  1  0
M  END
$$$$
