PDK.pdb
     RDKit          3D

 25 25  0  0  1  0  0  0  0  0999 V2000
    9.3556  -14.6166   17.7974 N   0  0  0  0  0  0  0  0  0  0  0  0
    8.1412  -14.5017   17.0713 C   0  0  0  0  0  0  0  0  0  0  0  0
    7.1701  -13.7803   18.0116 C   0  0  0  0  0  0  0  0  0  0  0  0
    8.0942  -13.0405   18.9425 C   0  0  0  0  0  0  0  0  0  0  0  0
    9.2745  -13.9764   19.0552 C   0  0  1  0  0  0  0  0  0  0  0  0
    9.0128  -14.8719   20.2100 C   0  0  0  0  0  0  0  0  0  0  0  0
    7.9824  -14.5733   20.8980 O   0  0  0  0  0  0  0  0  0  0  0  0
    9.8034  -15.9841   20.5740 N   0  0  0  0  0  0  0  0  0  0  0  0
    9.4952  -16.7992   21.7233 C   0  0  1  0  0  0  0  0  0  0  0  0
   10.2729  -18.0654   21.7811 C   0  0  0  0  0  0  0  0  0  0  0  0
   10.0328  -18.9136   20.5915 C   0  0  0  0  0  0  0  0  0  0  0  0
    8.8713  -19.1452   20.1781 O   0  0  0  0  0  0  0  0  0  0  0  0
    9.5690  -15.9656   22.9292 C   0  0  0  0  0  0  0  0  0  0  0  0
   10.6536  -15.3800   23.1663 O   0  0  0  0  0  0  0  0  0  0  0  0
   11.0704  -19.4971   19.8702 O   0  0  0  0  0  0  0  0  0  0  0  0
    8.5207  -15.7695   23.8421 N   0  0  0  0  0  0  0  0  0  0  0  0
    8.6181  -14.8236   24.9912 C   0  0  1  0  0  0  0  0  0  0  0  0
    7.3609  -14.0682   25.1336 C   0  0  0  0  0  0  0  0  0  0  0  0
    7.2703  -13.1003   26.2411 C   0  0  0  0  0  0  0  0  0  0  0  0
    6.1340  -12.1827   26.3632 C   0  0  0  0  0  0  0  0  0  0  0  0
    6.0584  -11.1109   27.3592 C   0  0  0  0  0  0  0  0  0  0  0  0
    4.8729  -10.3103   27.3819 N   0  0  0  0  0  0  0  0  0  0  0  0
    8.9431  -15.6495   26.1969 C   0  0  0  0  0  0  0  0  0  0  0  0
    9.5005  -15.1680   27.1760 O   0  0  0  0  0  0  0  0  0  0  0  0
    8.6055  -16.9888   26.2049 O   0  0  0  0  0  0  0  0  0  0  0  0
  1  2  1  0
  3  2  1  0
  4  3  1  0
  5  6  1  1
  5  4  1  0
  5  1  1  0
  6  7  2  0
  8  9  1  0
  8  6  1  0
  9 13  1  0
 10 11  1  0
  9 10  1  1
 11 15  1  0
 12 11  2  0
 13 14  2  0
 13 16  1  0
 16 17  1  0
 17 23  1  0
 17 18  1  1
 19 18  1  0
 20 19  1  0
 21 20  1  0
 22 21  1  0
 23 24  2  0
 23 25  1  0
M  END
$$$$
