PDK.pdb
     RDKit          3D

 25 25  0  0  1  0  0  0  0  0999 V2000
    9.5911  -14.1012   17.9427 N   0  0  0  0  0  0  0  0  0  0  0  0
    8.5400  -14.2295   16.9973 C   0  0  0  0  0  0  0  0  0  0  0  0
    7.2554  -13.9109   17.7693 C   0  0  0  0  0  0  0  0  0  0  0  0
    7.7537  -13.0672   18.9129 C   0  0  0  0  0  0  0  0  0  0  0  0
    9.1133  -13.6602   19.1980 C   0  0  1  0  0  0  0  0  0  0  0  0
    8.9209  -14.7239   20.2157 C   0  0  0  0  0  0  0  0  0  0  0  0
    7.8591  -14.6147   20.9120 O   0  0  0  0  0  0  0  0  0  0  0  0
    9.8060  -15.7999   20.4469 N   0  0  0  0  0  0  0  0  0  0  0  0
    9.6003  -16.7438   21.5179 C   0  0  1  0  0  0  0  0  0  0  0  0
   10.4638  -17.9507   21.4219 C   0  0  0  0  0  0  0  0  0  0  0  0
   10.0328  -19.0118   22.3602 C   0  0  0  0  0  0  0  0  0  0  0  0
   10.4353  -19.0363   23.5480 O   0  0  0  0  0  0  0  0  0  0  0  0
    9.6661  -16.0294   22.7985 C   0  0  0  0  0  0  0  0  0  0  0  0
   10.6749  -15.3147   23.0150 O   0  0  0  0  0  0  0  0  0  0  0  0
    9.1652  -20.0330   21.9833 O   0  0  0  0  0  0  0  0  0  0  0  0
    8.6882  -16.0811   23.8044 N   0  0  0  0  0  0  0  0  0  0  0  0
    8.8093  -15.3286   25.0865 C   0  0  1  0  0  0  0  0  0  0  0  0
    7.5640  -14.5897   25.3597 C   0  0  0  0  0  0  0  0  0  0  0  0
    7.6742  -13.3219   26.1029 C   0  0  0  0  0  0  0  0  0  0  0  0
    6.4849  -12.6049   26.5716 C   0  0  0  0  0  0  0  0  0  0  0  0
    6.5378  -11.3941   27.3947 C   0  0  0  0  0  0  0  0  0  0  0  0
    5.2944  -10.8098   27.7941 N   0  0  0  0  0  0  0  0  0  0  0  0
    9.1339  -16.3376   26.1440 C   0  0  0  0  0  0  0  0  0  0  0  0
    8.8570  -17.5234   26.0090 O   0  0  0  0  0  0  0  0  0  0  0  0
    9.7616  -15.9199   27.3012 O   0  0  0  0  0  0  0  0  0  0  0  0
  1  2  1  0
  3  2  1  0
  4  3  1  0
  5  6  1  1
  5  4  1  0
  5  1  1  0
  6  7  2  0
  8  9  1  0
  8  6  1  0
  9 13  1  0
 10 11  1  0
  9 10  1  1
 11 15  1  0
 12 11  2  0
 13 14  2  0
 13 16  1  0
 16 17  1  0
 17 23  1  0
 17 18  1  1
 19 18  1  0
 20 19  1  0
 21 20  1  0
 22 21  1  0
 23 24  2  0
 23 25  1  0
M  END
$$$$
