HHG.pdb
     RDKit          3D

 25 26  0  0  1  0  0  0  0  0999 V2000
   16.2325  -16.3455    6.5809 N   0  0  0  0  0  0  0  0  0  0  0  0
   16.8276  -16.6361    7.8696 C   0  0  1  0  0  0  0  0  0  0  0  0
   16.6664  -18.0957    8.2302 C   0  0  0  0  0  0  0  0  0  0  0  0
   15.2195  -18.3673    8.4341 C   0  0  0  0  0  0  0  0  0  0  0  0
   14.3244  -17.5150    9.0632 C   0  0  0  0  0  0  0  0  0  0  0  0
   13.1230  -18.1189    9.0460 N   0  0  0  0  0  0  0  0  0  0  0  0
   13.2103  -19.3003    8.4433 C   0  0  0  0  0  0  0  0  0  0  0  0
   14.5001  -19.4400    8.0733 N   0  0  0  0  0  0  0  0  0  0  0  0
   18.2725  -16.2593    7.8424 C   0  0  0  0  0  0  0  0  0  0  0  0
   19.0189  -16.6158    6.9025 O   0  0  0  0  0  0  0  0  0  0  0  0
   18.8225  -15.4917    8.8808 N   0  0  0  0  0  0  0  0  0  0  0  0
   20.1868  -15.0848    8.9969 C   0  0  1  0  0  0  0  0  0  0  0  0
   20.4036  -13.6363    9.2555 C   0  0  0  0  0  0  0  0  0  0  0  0
   20.2500  -12.8636    8.0030 C   0  0  0  0  0  0  0  0  0  0  0  0
   20.0278  -13.2979    6.7227 C   0  0  0  0  0  0  0  0  0  0  0  0
   19.9643  -12.2103    5.9415 N   0  0  0  0  0  0  0  0  0  0  0  0
   20.1379  -11.0935    6.6751 C   0  0  0  0  0  0  0  0  0  0  0  0
   20.3111  -11.5253    7.9369 N   0  0  0  0  0  0  0  0  0  0  0  0
   20.7752  -15.8748   10.1407 C   0  0  0  0  0  0  0  0  0  0  0  0
   20.1782  -16.0095   11.2392 O   0  0  0  0  0  0  0  0  0  0  0  0
   22.0412  -16.5044   10.0194 N   0  0  0  0  0  0  0  0  0  0  0  0
   22.6444  -17.1796   11.1777 C   0  0  0  0  0  0  0  0  0  0  0  0
   22.0416  -18.5116   11.3402 C   0  0  0  0  0  0  0  0  0  0  0  0
   21.0977  -18.8626   10.5974 O   0  0  0  0  0  0  0  0  0  0  0  0
   22.4656  -19.4321   12.2936 O   0  0  0  0  0  0  0  0  0  0  0  0
  2  1  1  6
  2  9  1  0
  3  2  1  0
  4  3  1  0
  5  4  2  0
  6  5  1  0
  7  8  2  0
  7  6  1  0
  8  4  1  0
  9 10  2  0
 11 12  1  0
 11  9  1  0
 12 19  1  0
 13 14  1  0
 12 13  1  1
 14 15  2  0
 15 16  1  0
 17 16  1  0
 18 14  1  0
 18 17  2  0
 19 21  1  0
 20 19  2  0
 21 22  1  0
 23 22  1  0
 24 23  2  0
 25 23  1  0
M  END
$$$$
