HHG.pdb
     RDKit          3D

 25 26  0  0  1  0  0  0  0  0999 V2000
   24.8627  -34.4899  -11.5586 N   0  0  0  0  0  0  0  0  0  0  0  0
   25.6000  -34.9041  -10.3820 C   0  0  1  0  0  0  0  0  0  0  0  0
   26.9140  -35.5502  -10.7591 C   0  0  0  0  0  0  0  0  0  0  0  0
   26.6214  -36.8549  -11.4080 C   0  0  0  0  0  0  0  0  0  0  0  0
   26.2516  -38.0153  -10.7448 C   0  0  0  0  0  0  0  0  0  0  0  0
   26.0786  -38.9677  -11.6784 N   0  0  0  0  0  0  0  0  0  0  0  0
   26.3179  -38.4740  -12.8891 C   0  0  0  0  0  0  0  0  0  0  0  0
   26.6493  -37.1788  -12.7091 N   0  0  0  0  0  0  0  0  0  0  0  0
   25.8316  -33.7197   -9.5023 C   0  0  0  0  0  0  0  0  0  0  0  0
   26.3294  -32.6632   -9.9534 O   0  0  0  0  0  0  0  0  0  0  0  0
   25.4914  -33.7726   -8.1416 N   0  0  0  0  0  0  0  0  0  0  0  0
   25.6146  -32.7059   -7.1996 C   0  0  1  0  0  0  0  0  0  0  0  0
   24.3352  -32.0871   -6.7613 C   0  0  0  0  0  0  0  0  0  0  0  0
   23.7751  -31.2476   -7.8433 C   0  0  0  0  0  0  0  0  0  0  0  0
   24.2684  -30.9775   -9.0926 C   0  0  0  0  0  0  0  0  0  0  0  0
   23.3916  -30.1628   -9.6966 N   0  0  0  0  0  0  0  0  0  0  0  0
   22.3531  -29.9006   -8.8791 C   0  0  0  0  0  0  0  0  0  0  0  0
   22.6155  -30.5799   -7.7485 N   0  0  0  0  0  0  0  0  0  0  0  0
   26.3153  -33.2783   -5.9913 C   0  0  0  0  0  0  0  0  0  0  0  0
   25.8558  -34.2588   -5.3521 O   0  0  0  0  0  0  0  0  0  0  0  0
   27.5354  -32.7250   -5.5233 N   0  0  0  0  0  0  0  0  0  0  0  0
   28.0860  -33.1420   -4.2256 C   0  0  0  0  0  0  0  0  0  0  0  0
   28.9952  -34.2819   -4.4197 C   0  0  0  0  0  0  0  0  0  0  0  0
   28.9115  -34.9753   -5.4581 O   0  0  0  0  0  0  0  0  0  0  0  0
   29.9698  -34.6491   -3.4968 O   0  0  0  0  0  0  0  0  0  0  0  0
  2  1  1  6
  2  9  1  0
  3  2  1  0
  4  3  1  0
  5  4  2  0
  6  5  1  0
  7  8  2  0
  7  6  1  0
  8  4  1  0
  9 10  2  0
 11 12  1  0
 11  9  1  0
 12 19  1  0
 13 14  1  0
 12 13  1  1
 14 15  2  0
 15 16  1  0
 17 16  1  0
 18 14  1  0
 18 17  2  0
 19 21  1  0
 20 19  2  0
 21 22  1  0
 23 22  1  0
 24 23  2  0
 25 23  1  0
M  END
$$$$
