HHG.pdb
     RDKit          3D

 25 26  0  0  1  0  0  0  0  0999 V2000
   22.3894  -32.3375    1.1882 N   0  0  0  0  0  0  0  0  0  0  0  0
   23.4475  -32.0851    2.1454 C   0  0  1  0  0  0  0  0  0  0  0  0
   22.9814  -32.3509    3.5591 C   0  0  0  0  0  0  0  0  0  0  0  0
   22.1164  -31.2195    3.9840 C   0  0  0  0  0  0  0  0  0  0  0  0
   22.5389  -30.1150    4.7085 C   0  0  0  0  0  0  0  0  0  0  0  0
   21.4655  -29.3255    4.8901 N   0  0  0  0  0  0  0  0  0  0  0  0
   20.3934  -29.8688    4.3225 C   0  0  0  0  0  0  0  0  0  0  0  0
   20.8061  -31.0287    3.7710 N   0  0  0  0  0  0  0  0  0  0  0  0
   24.6275  -32.9382    1.8134 C   0  0  0  0  0  0  0  0  0  0  0  0
   24.4866  -34.1272    1.4472 O   0  0  0  0  0  0  0  0  0  0  0  0
   25.9266  -32.4153    1.9074 N   0  0  0  0  0  0  0  0  0  0  0  0
   27.1297  -33.0677    1.4983 C   0  0  1  0  0  0  0  0  0  0  0  0
   27.8082  -32.4768    0.3140 C   0  0  0  0  0  0  0  0  0  0  0  0
   26.9450  -32.5933   -0.8821 C   0  0  0  0  0  0  0  0  0  0  0  0
   26.4520  -33.7089   -1.5064 C   0  0  0  0  0  0  0  0  0  0  0  0
   25.7209  -33.2884   -2.5485 N   0  0  0  0  0  0  0  0  0  0  0  0
   25.7273  -31.9426   -2.6150 C   0  0  0  0  0  0  0  0  0  0  0  0
   26.4866  -31.5431   -1.5795 N   0  0  0  0  0  0  0  0  0  0  0  0
   28.0721  -33.0097    2.6760 C   0  0  0  0  0  0  0  0  0  0  0  0
   28.2903  -31.9446    3.3078 O   0  0  0  0  0  0  0  0  0  0  0  0
   28.7574  -34.1696    3.1219 N   0  0  0  0  0  0  0  0  0  0  0  0
   29.6289  -34.1040    4.3040 C   0  0  0  0  0  0  0  0  0  0  0  0
   30.9655  -33.6368    3.9052 C   0  0  0  0  0  0  0  0  0  0  0  0
   31.1993  -33.3696    2.7052 O   0  0  0  0  0  0  0  0  0  0  0  0
   32.0161  -33.4681    4.8019 O   0  0  0  0  0  0  0  0  0  0  0  0
  2  1  1  6
  2  9  1  0
  3  2  1  0
  4  3  1  0
  5  4  2  0
  6  5  1  0
  7  8  2  0
  7  6  1  0
  8  4  1  0
  9 10  2  0
 11 12  1  0
 11  9  1  0
 12 19  1  0
 13 14  1  0
 12 13  1  6
 14 15  2  0
 15 16  1  0
 17 16  1  0
 18 14  1  0
 18 17  2  0
 19 21  1  0
 20 19  2  0
 21 22  1  0
 23 22  1  0
 24 23  2  0
 25 23  1  0
M  END
$$$$
