HHG.pdb
     RDKit          3D

 25 26  0  0  1  0  0  0  0  0999 V2000
   27.4050  -22.4522  -17.1179 N   0  0  0  0  0  0  0  0  0  0  0  0
   26.3418  -22.8209  -16.2051 C   0  0  1  0  0  0  0  0  0  0  0  0
   26.8074  -23.8659  -15.2164 C   0  0  0  0  0  0  0  0  0  0  0  0
   27.1368  -25.1043  -15.9692 C   0  0  0  0  0  0  0  0  0  0  0  0
   26.3050  -26.2056  -16.1049 C   0  0  0  0  0  0  0  0  0  0  0  0
   26.9626  -27.1096  -16.8524 N   0  0  0  0  0  0  0  0  0  0  0  0
   28.1586  -26.6412  -17.1945 C   0  0  0  0  0  0  0  0  0  0  0  0
   28.2525  -25.4119  -16.6469 N   0  0  0  0  0  0  0  0  0  0  0  0
   25.8594  -21.6014  -15.4907 C   0  0  0  0  0  0  0  0  0  0  0  0
   26.5642  -21.0346  -14.6248 O   0  0  0  0  0  0  0  0  0  0  0  0
   24.5952  -21.0655  -15.7815 N   0  0  0  0  0  0  0  0  0  0  0  0
   24.0312  -19.8811  -15.2164 C   0  0  1  0  0  0  0  0  0  0  0  0
   23.8664  -18.7390  -16.1547 C   0  0  0  0  0  0  0  0  0  0  0  0
   25.1877  -18.2683  -16.6258 C   0  0  0  0  0  0  0  0  0  0  0  0
   26.2409  -17.7505  -15.9188 C   0  0  0  0  0  0  0  0  0  0  0  0
   27.2122  -17.4750  -16.8008 N   0  0  0  0  0  0  0  0  0  0  0  0
   26.8196  -17.7977  -18.0488 C   0  0  0  0  0  0  0  0  0  0  0  0
   25.5728  -18.2823  -17.9107 N   0  0  0  0  0  0  0  0  0  0  0  0
   22.6745  -20.2656  -14.6778 C   0  0  0  0  0  0  0  0  0  0  0  0
   21.9562  -21.1369  -15.2310 O   0  0  0  0  0  0  0  0  0  0  0  0
   22.1499  -19.6510  -13.5112 N   0  0  0  0  0  0  0  0  0  0  0  0
   20.8077  -20.0069  -13.0286 C   0  0  0  0  0  0  0  0  0  0  0  0
   19.7990  -19.2168  -13.7510 C   0  0  0  0  0  0  0  0  0  0  0  0
   20.1593  -18.3968  -14.6251 O   0  0  0  0  0  0  0  0  0  0  0  0
   18.4314  -19.3255  -13.5184 O   0  0  0  0  0  0  0  0  0  0  0  0
  2  1  1  6
  2  9  1  0
  3  2  1  0
  4  3  1  0
  5  4  2  0
  6  5  1  0
  7  8  2  0
  7  6  1  0
  8  4  1  0
  9 10  2  0
 11 12  1  0
 11  9  1  0
 12 19  1  0
 13 14  1  0
 12 13  1  6
 14 15  2  0
 15 16  1  0
 17 16  1  0
 18 14  1  0
 18 17  2  0
 19 21  1  0
 20 19  2  0
 21 22  1  0
 23 22  1  0
 24 23  2  0
 25 23  1  0
M  END
$$$$
