HHG.pdb
     RDKit          3D

 25 26  0  0  1  0  0  0  0  0999 V2000
   23.0101  -31.5244    3.0330 N   0  0  0  0  0  0  0  0  0  0  0  0
   23.8394  -31.5024    4.2209 C   0  0  1  0  0  0  0  0  0  0  0  0
   25.2173  -30.9592    3.9164 C   0  0  0  0  0  0  0  0  0  0  0  0
   25.8426  -31.8287    2.8859 C   0  0  0  0  0  0  0  0  0  0  0  0
   26.6176  -32.9492    3.1448 C   0  0  0  0  0  0  0  0  0  0  0  0
   26.9929  -33.4551    1.9567 N   0  0  0  0  0  0  0  0  0  0  0  0
   26.4993  -32.7185    0.9664 C   0  0  0  0  0  0  0  0  0  0  0  0
   25.7967  -31.7255    1.5495 N   0  0  0  0  0  0  0  0  0  0  0  0
   23.1724  -30.6794    5.2736 C   0  0  0  0  0  0  0  0  0  0  0  0
   23.0440  -29.4406    5.1449 O   0  0  0  0  0  0  0  0  0  0  0  0
   22.6735  -31.2877    6.4359 N   0  0  0  0  0  0  0  0  0  0  0  0
   21.8241  -30.6775    7.4088 C   0  0  1  0  0  0  0  0  0  0  0  0
   20.4309  -30.4072    6.9638 C   0  0  0  0  0  0  0  0  0  0  0  0
   20.3607  -29.1068    6.2613 C   0  0  0  0  0  0  0  0  0  0  0  0
   20.6271  -27.8434    6.7195 C   0  0  0  0  0  0  0  0  0  0  0  0
   20.4160  -26.9998    5.6993 N   0  0  0  0  0  0  0  0  0  0  0  0
   20.0236  -27.6772    4.6025 C   0  0  0  0  0  0  0  0  0  0  0  0
   19.9985  -28.9685    4.9771 N   0  0  0  0  0  0  0  0  0  0  0  0
   21.7820  -31.6148    8.5912 C   0  0  0  0  0  0  0  0  0  0  0  0
   21.0867  -31.3760    9.6114 O   0  0  0  0  0  0  0  0  0  0  0  0
   22.5351  -32.8176    8.5979 N   0  0  0  0  0  0  0  0  0  0  0  0
   22.5016  -33.7037    9.7705 C   0  0  0  0  0  0  0  0  0  0  0  0
   23.3567  -33.1494   10.8313 C   0  0  0  0  0  0  0  0  0  0  0  0
   23.9307  -32.0510   10.6580 O   0  0  0  0  0  0  0  0  0  0  0  0
   23.5745  -33.7859   12.0494 O   0  0  0  0  0  0  0  0  0  0  0  0
  2  1  1  6
  2  9  1  0
  3  2  1  0
  4  3  1  0
  5  4  2  0
  6  5  1  0
  7  8  2  0
  7  6  1  0
  8  4  1  0
  9 10  2  0
 11 12  1  0
 11  9  1  0
 12 19  1  0
 13 14  1  0
 12 13  1  6
 14 15  2  0
 15 16  1  0
 17 16  1  0
 18 14  1  0
 18 17  2  0
 19 21  1  0
 20 19  2  0
 21 22  1  0
 23 22  1  0
 24 23  2  0
 25 23  1  0
M  END
$$$$
