HHG.pdb
     RDKit          3D

 25 26  0  0  1  0  0  0  0  0999 V2000
   21.8387  -15.7419  -17.3266 N   0  0  0  0  0  0  0  0  0  0  0  0
   21.2528  -16.3380  -16.1431 C   0  0  1  0  0  0  0  0  0  0  0  0
   19.7428  -16.2753  -16.1891 C   0  0  0  0  0  0  0  0  0  0  0  0
   19.3339  -14.8487  -16.1092 C   0  0  0  0  0  0  0  0  0  0  0  0
   18.8187  -14.1020  -17.1581 C   0  0  0  0  0  0  0  0  0  0  0  0
   18.5764  -12.8670  -16.6843 N   0  0  0  0  0  0  0  0  0  0  0  0
   18.9091  -12.7936  -15.3995 C   0  0  0  0  0  0  0  0  0  0  0  0
   19.3717  -14.0144  -15.0598 N   0  0  0  0  0  0  0  0  0  0  0  0
   21.7153  -17.7528  -16.0223 C   0  0  0  0  0  0  0  0  0  0  0  0
   22.0291  -18.4220  -17.0329 O   0  0  0  0  0  0  0  0  0  0  0  0
   21.8067  -18.3614  -14.7608 N   0  0  0  0  0  0  0  0  0  0  0  0
   22.2857  -19.6803  -14.4937 C   0  0  1  0  0  0  0  0  0  0  0  0
   23.3367  -19.7804  -13.4461 C   0  0  0  0  0  0  0  0  0  0  0  0
   23.8181  -21.1752  -13.3351 C   0  0  0  0  0  0  0  0  0  0  0  0
   23.4528  -22.2911  -14.0411 C   0  0  0  0  0  0  0  0  0  0  0  0
   24.1774  -23.3143  -13.5663 N   0  0  0  0  0  0  0  0  0  0  0  0
   24.9947  -22.8944  -12.5808 C   0  0  0  0  0  0  0  0  0  0  0  0
   24.7525  -21.5771  -12.4606 N   0  0  0  0  0  0  0  0  0  0  0  0
   21.0896  -20.4924  -14.0595 C   0  0  0  0  0  0  0  0  0  0  0  0
   20.3962  -20.1812  -13.0577 O   0  0  0  0  0  0  0  0  0  0  0  0
   20.6958  -21.6536  -14.7740 N   0  0  0  0  0  0  0  0  0  0  0  0
   19.4542  -22.3550  -14.4170 C   0  0  0  0  0  0  0  0  0  0  0  0
   19.7662  -23.4920  -13.5374 C   0  0  0  0  0  0  0  0  0  0  0  0
   20.5235  -24.4025  -13.9417 O   0  0  0  0  0  0  0  0  0  0  0  0
   19.2591  -23.6238  -12.2483 O   0  0  0  0  0  0  0  0  0  0  0  0
  2  1  1  6
  2  9  1  0
  3  2  1  0
  4  3  1  0
  5  4  2  0
  6  5  1  0
  7  8  2  0
  7  6  1  0
  8  4  1  0
  9 10  2  0
 11 12  1  0
 11  9  1  0
 12 19  1  0
 13 14  1  0
 12 13  1  1
 14 15  2  0
 15 16  1  0
 17 16  1  0
 18 14  1  0
 18 17  2  0
 19 21  1  0
 20 19  2  0
 21 22  1  0
 23 22  1  0
 24 23  2  0
 25 23  1  0
M  END
$$$$
