HHG.pdb
     RDKit          3D

 25 26  0  0  1  0  0  0  0  0999 V2000
   22.3416  -12.5565  -19.2521 N   0  0  0  0  0  0  0  0  0  0  0  0
   22.7072  -13.1884  -18.0005 C   0  0  1  0  0  0  0  0  0  0  0  0
   23.6853  -14.3197  -18.2239 C   0  0  0  0  0  0  0  0  0  0  0  0
   23.0322  -15.3347  -19.0910 C   0  0  0  0  0  0  0  0  0  0  0  0
   22.3196  -16.4356  -18.6401 C   0  0  0  0  0  0  0  0  0  0  0  0
   21.8916  -17.1031  -19.7263 N   0  0  0  0  0  0  0  0  0  0  0  0
   22.2934  -16.4865  -20.8332 C   0  0  0  0  0  0  0  0  0  0  0  0
   22.9910  -15.4047  -20.4297 N   0  0  0  0  0  0  0  0  0  0  0  0
   23.2903  -12.1648  -17.0826 C   0  0  0  0  0  0  0  0  0  0  0  0
   23.7295  -12.4803  -15.9534 O   0  0  0  0  0  0  0  0  0  0  0  0
   23.3560  -10.8189  -17.4752 N   0  0  0  0  0  0  0  0  0  0  0  0
   23.8022   -9.7266  -16.6700 C   0  0  1  0  0  0  0  0  0  0  0  0
   25.1951   -9.2709  -16.9233 C   0  0  0  0  0  0  0  0  0  0  0  0
   26.1610  -10.2794  -16.4340 C   0  0  0  0  0  0  0  0  0  0  0  0
   25.9421  -11.4608  -15.7757 C   0  0  0  0  0  0  0  0  0  0  0  0
   27.1414  -12.0153  -15.5488 N   0  0  0  0  0  0  0  0  0  0  0  0
   28.1221  -11.2315  -16.0382 C   0  0  0  0  0  0  0  0  0  0  0  0
   27.4906  -10.1729  -16.5759 N   0  0  0  0  0  0  0  0  0  0  0  0
   22.8598   -8.5791  -16.9417 C   0  0  0  0  0  0  0  0  0  0  0  0
   22.5099   -8.2607  -18.1068 O   0  0  0  0  0  0  0  0  0  0  0  0
   22.3250   -7.8049  -15.8794 N   0  0  0  0  0  0  0  0  0  0  0  0
   21.4086   -6.6915  -16.1653 C   0  0  0  0  0  0  0  0  0  0  0  0
   21.0751   -5.9943  -14.9138 C   0  0  0  0  0  0  0  0  0  0  0  0
   21.3893   -6.5035  -13.8146 O   0  0  0  0  0  0  0  0  0  0  0  0
   20.4141   -4.7705  -14.8723 O   0  0  0  0  0  0  0  0  0  0  0  0
  2  1  1  6
  2  9  1  0
  3  2  1  0
  4  3  1  0
  5  4  2  0
  6  5  1  0
  7  8  2  0
  7  6  1  0
  8  4  1  0
  9 10  2  0
 11 12  1  0
 11  9  1  0
 12 19  1  0
 13 14  1  0
 12 13  1  6
 14 15  2  0
 15 16  1  0
 17 16  1  0
 18 14  1  0
 18 17  2  0
 19 21  1  0
 20 19  2  0
 21 22  1  0
 23 22  1  0
 24 23  2  0
 25 23  1  0
M  END
$$$$
