HHG.pdb
     RDKit          3D

 25 26  0  0  1  0  0  0  0  0999 V2000
   26.3051  -23.4779  -16.7034 N   0  0  0  0  0  0  0  0  0  0  0  0
   27.5081  -22.9298  -16.1102 C   0  0  1  0  0  0  0  0  0  0  0  0
   28.7101  -23.1604  -16.9981 C   0  0  0  0  0  0  0  0  0  0  0  0
   28.8584  -24.6241  -17.2091 C   0  0  0  0  0  0  0  0  0  0  0  0
   29.0086  -25.5681  -16.2043 C   0  0  0  0  0  0  0  0  0  0  0  0
   29.1101  -26.7692  -16.8005 N   0  0  0  0  0  0  0  0  0  0  0  0
   29.0325  -26.6356  -18.1208 C   0  0  0  0  0  0  0  0  0  0  0  0
   28.8785  -25.3165  -18.3575 N   0  0  0  0  0  0  0  0  0  0  0  0
   27.3140  -21.4705  -15.8592 C   0  0  0  0  0  0  0  0  0  0  0  0
   28.2850  -20.6803  -15.8396 O   0  0  0  0  0  0  0  0  0  0  0  0
   26.0269  -20.9562  -15.6389 N   0  0  0  0  0  0  0  0  0  0  0  0
   25.6864  -19.5791  -15.4711 C   0  0  1  0  0  0  0  0  0  0  0  0
   25.5753  -18.7890  -16.7263 C   0  0  0  0  0  0  0  0  0  0  0  0
   26.9212  -18.4595  -17.2451 C   0  0  0  0  0  0  0  0  0  0  0  0
   27.4703  -18.6927  -18.4785 C   0  0  0  0  0  0  0  0  0  0  0  0
   28.7189  -18.2052  -18.4543 N   0  0  0  0  0  0  0  0  0  0  0  0
   28.9904  -17.6674  -17.2490 C   0  0  0  0  0  0  0  0  0  0  0  0
   27.8687  -17.8379  -16.5272 N   0  0  0  0  0  0  0  0  0  0  0  0
   24.3554  -19.5488  -14.7597 C   0  0  0  0  0  0  0  0  0  0  0  0
   23.7602  -18.4727  -14.4972 O   0  0  0  0  0  0  0  0  0  0  0  0
   23.7156  -20.7488  -14.3543 N   0  0  0  0  0  0  0  0  0  0  0  0
   22.3747  -20.7045  -13.7534 C   0  0  0  0  0  0  0  0  0  0  0  0
   21.3575  -20.7540  -14.8148 C   0  0  0  0  0  0  0  0  0  0  0  0
   21.7103  -20.7629  -16.0154 O   0  0  0  0  0  0  0  0  0  0  0  0
   19.9896  -20.7925  -14.5625 O   0  0  0  0  0  0  0  0  0  0  0  0
  2  1  1  6
  2  9  1  0
  3  2  1  0
  4  3  1  0
  5  4  2  0
  6  5  1  0
  7  8  2  0
  7  6  1  0
  8  4  1  0
  9 10  2  0
 11 12  1  0
 11  9  1  0
 12 19  1  0
 13 14  1  0
 12 13  1  6
 14 15  2  0
 15 16  1  0
 17 16  1  0
 18 14  1  0
 18 17  2  0
 19 21  1  0
 20 19  2  0
 21 22  1  0
 23 22  1  0
 24 23  2  0
 25 23  1  0
M  END
$$$$
