HHG.pdb
     RDKit          3D

 25 26  0  0  1  0  0  0  0  0999 V2000
   22.4601   -9.3424  -18.1761 N   0  0  0  0  0  0  0  0  0  0  0  0
   21.7355   -8.8914  -19.3470 C   0  0  1  0  0  0  0  0  0  0  0  0
   21.0379  -10.0426  -20.0358 C   0  0  0  0  0  0  0  0  0  0  0  0
   22.0557  -11.0758  -20.3606 C   0  0  0  0  0  0  0  0  0  0  0  0
   22.8028  -11.7853  -19.4324 C   0  0  0  0  0  0  0  0  0  0  0  0
   23.6043  -12.6172  -20.1209 N   0  0  0  0  0  0  0  0  0  0  0  0
   23.4049  -12.4722  -21.4270 C   0  0  0  0  0  0  0  0  0  0  0  0
   22.4537  -11.5249  -21.5600 N   0  0  0  0  0  0  0  0  0  0  0  0
   20.7484   -7.8456  -18.9443 C   0  0  0  0  0  0  0  0  0  0  0  0
   20.0285   -7.2712  -19.7924 O   0  0  0  0  0  0  0  0  0  0  0  0
   20.6105   -7.4862  -17.5945 N   0  0  0  0  0  0  0  0  0  0  0  0
   19.7360   -6.4838  -17.0741 C   0  0  1  0  0  0  0  0  0  0  0  0
   18.4884   -6.9879  -16.4407 C   0  0  0  0  0  0  0  0  0  0  0  0
   17.4976   -7.3508  -17.4780 C   0  0  0  0  0  0  0  0  0  0  0  0
   17.0038   -6.6112  -18.5203 C   0  0  0  0  0  0  0  0  0  0  0  0
   16.1291   -7.3870  -19.1763 N   0  0  0  0  0  0  0  0  0  0  0  0
   16.0442   -8.5982  -18.5918 C   0  0  0  0  0  0  0  0  0  0  0  0
   16.8953   -8.5471  -17.5519 N   0  0  0  0  0  0  0  0  0  0  0  0
   20.5273   -5.7163  -16.0428 C   0  0  0  0  0  0  0  0  0  0  0  0
   20.0707   -4.6923  -15.4737 O   0  0  0  0  0  0  0  0  0  0  0  0
   21.8341   -6.1257  -15.6706 N   0  0  0  0  0  0  0  0  0  0  0  0
   22.5688   -5.3938  -14.6287 C   0  0  0  0  0  0  0  0  0  0  0  0
   22.2276   -5.9429  -13.3074 C   0  0  0  0  0  0  0  0  0  0  0  0
   21.3370   -6.8164  -13.2072 O   0  0  0  0  0  0  0  0  0  0  0  0
   22.8489   -5.5421  -12.1286 O   0  0  0  0  0  0  0  0  0  0  0  0
  2  1  1  1
  2  9  1  0
  3  2  1  0
  4  3  1  0
  5  4  2  0
  6  5  1  0
  7  8  2  0
  7  6  1  0
  8  4  1  0
  9 10  2  0
 11 12  1  0
 11  9  1  0
 12 19  1  0
 13 14  1  0
 12 13  1  1
 14 15  2  0
 15 16  1  0
 17 16  1  0
 18 14  1  0
 18 17  2  0
 19 21  1  0
 20 19  2  0
 21 22  1  0
 23 22  1  0
 24 23  2  0
 25 23  1  0
M  END
$$$$
