HHG.pdb
     RDKit          3D

 25 26  0  0  1  0  0  0  0  0999 V2000
   29.3799  -21.1753  -17.8902 N   0  0  0  0  0  0  0  0  0  0  0  0
   30.3680  -22.2307  -17.7940 C   0  0  1  0  0  0  0  0  0  0  0  0
   31.6112  -21.7528  -17.0781 C   0  0  0  0  0  0  0  0  0  0  0  0
   32.2744  -20.7311  -17.9296 C   0  0  0  0  0  0  0  0  0  0  0  0
   33.5081  -20.8787  -18.5455 C   0  0  0  0  0  0  0  0  0  0  0  0
   33.7535  -19.7411  -19.2195 N   0  0  0  0  0  0  0  0  0  0  0  0
   32.7467  -18.8875  -19.0634 C   0  0  0  0  0  0  0  0  0  0  0  0
   31.8474  -19.5065  -18.2710 N   0  0  0  0  0  0  0  0  0  0  0  0
   29.7720  -23.4019  -17.0845 C   0  0  0  0  0  0  0  0  0  0  0  0
   28.8933  -23.2502  -16.2055 O   0  0  0  0  0  0  0  0  0  0  0  0
   30.1916  -24.7048  -17.3948 N   0  0  0  0  0  0  0  0  0  0  0  0
   29.4540  -25.9058  -17.1626 C   0  0  1  0  0  0  0  0  0  0  0  0
   28.1004  -25.9554  -17.7768 C   0  0  0  0  0  0  0  0  0  0  0  0
   27.4266  -27.2262  -17.4297 C   0  0  0  0  0  0  0  0  0  0  0  0
   26.9631  -27.6750  -16.2210 C   0  0  0  0  0  0  0  0  0  0  0  0
   26.4313  -28.8882  -16.4269 N   0  0  0  0  0  0  0  0  0  0  0  0
   26.5372  -29.2339  -17.7250 C   0  0  0  0  0  0  0  0  0  0  0  0
   27.1522  -28.1945  -18.3165 N   0  0  0  0  0  0  0  0  0  0  0  0
   30.2831  -27.0350  -17.7249 C   0  0  0  0  0  0  0  0  0  0  0  0
   30.6813  -27.0446  -18.9176 O   0  0  0  0  0  0  0  0  0  0  0  0
   30.6504  -28.1440  -16.9192 N   0  0  0  0  0  0  0  0  0  0  0  0
   31.5075  -29.2045  -17.4685 C   0  0  0  0  0  0  0  0  0  0  0  0
   30.6768  -30.1951  -18.1703 C   0  0  0  0  0  0  0  0  0  0  0  0
   29.9364  -29.8319  -19.1116 O   0  0  0  0  0  0  0  0  0  0  0  0
   30.6609  -31.5481  -17.8456 O   0  0  0  0  0  0  0  0  0  0  0  0
  2  1  1  1
  2  9  1  0
  3  2  1  0
  4  3  1  0
  5  4  2  0
  6  5  1  0
  7  8  2  0
  7  6  1  0
  8  4  1  0
  9 10  2  0
 11 12  1  0
 11  9  1  0
 12 19  1  0
 13 14  1  0
 12 13  1  6
 14 15  2  0
 15 16  1  0
 17 16  1  0
 18 14  1  0
 18 17  2  0
 19 21  1  0
 20 19  2  0
 21 22  1  0
 23 22  1  0
 24 23  2  0
 25 23  1  0
M  END
$$$$
