HHG.pdb
     RDKit          3D

 25 26  0  0  1  0  0  0  0  0999 V2000
   21.0406  -12.6974  -15.6245 N   0  0  0  0  0  0  0  0  0  0  0  0
   20.5054  -11.5866  -16.3856 C   0  0  1  0  0  0  0  0  0  0  0  0
   18.9940  -11.5721  -16.3434 C   0  0  0  0  0  0  0  0  0  0  0  0
   18.4978  -12.7919  -17.0325 C   0  0  0  0  0  0  0  0  0  0  0  0
   19.0748  -13.3709  -18.1528 C   0  0  0  0  0  0  0  0  0  0  0  0
   18.3350  -14.4489  -18.4676 N   0  0  0  0  0  0  0  0  0  0  0  0
   17.3272  -14.5814  -17.6112 C   0  0  0  0  0  0  0  0  0  0  0  0
   17.4387  -13.5598  -16.7373 N   0  0  0  0  0  0  0  0  0  0  0  0
   21.0571  -10.3077  -15.8469 C   0  0  0  0  0  0  0  0  0  0  0  0
   21.0625  -10.0695  -14.6177 O   0  0  0  0  0  0  0  0  0  0  0  0
   21.5839   -9.3423  -16.7189 N   0  0  0  0  0  0  0  0  0  0  0  0
   22.2392   -8.1311  -16.3392 C   0  0  1  0  0  0  0  0  0  0  0  0
   23.6615   -8.0136  -16.7578 C   0  0  0  0  0  0  0  0  0  0  0  0
   24.4698   -9.0832  -16.1317 C   0  0  0  0  0  0  0  0  0  0  0  0
   24.1150  -10.0240  -15.2010 C   0  0  0  0  0  0  0  0  0  0  0  0
   25.2035  -10.7666  -14.9544 N   0  0  0  0  0  0  0  0  0  0  0  0
   26.2442  -10.3357  -15.6939 C   0  0  0  0  0  0  0  0  0  0  0  0
   25.7644   -9.3014  -16.4069 N   0  0  0  0  0  0  0  0  0  0  0  0
   21.4549   -7.0035  -16.9653 C   0  0  0  0  0  0  0  0  0  0  0  0
   21.0395   -7.0537  -18.1511 O   0  0  0  0  0  0  0  0  0  0  0  0
   21.1519   -5.8276  -16.2308 N   0  0  0  0  0  0  0  0  0  0  0  0
   20.3817   -4.7433  -16.8572 C   0  0  0  0  0  0  0  0  0  0  0  0
   20.1116   -3.6932  -15.8631 C   0  0  0  0  0  0  0  0  0  0  0  0
   19.7740   -4.0088  -14.7001 O   0  0  0  0  0  0  0  0  0  0  0  0
   20.2103   -2.3333  -16.1407 O   0  0  0  0  0  0  0  0  0  0  0  0
  2  1  1  1
  2  9  1  0
  3  2  1  0
  4  3  1  0
  5  4  2  0
  6  5  1  0
  7  8  2  0
  7  6  1  0
  8  4  1  0
  9 10  2  0
 11 12  1  0
 11  9  1  0
 12 19  1  0
 13 14  1  0
 12 13  1  6
 14 15  2  0
 15 16  1  0
 17 16  1  0
 18 14  1  0
 18 17  2  0
 19 21  1  0
 20 19  2  0
 21 22  1  0
 23 22  1  0
 24 23  2  0
 25 23  1  0
M  END
$$$$
