HHG.pdb
     RDKit          3D

 25 26  0  0  1  0  0  0  0  0999 V2000
   18.6904  -11.2580  -17.5661 N   0  0  0  0  0  0  0  0  0  0  0  0
   19.0049   -9.8727  -17.2808 C   0  0  1  0  0  0  0  0  0  0  0  0
   17.7480   -9.0564  -17.0800 C   0  0  0  0  0  0  0  0  0  0  0  0
   16.9992   -9.0321  -18.3636 C   0  0  0  0  0  0  0  0  0  0  0  0
   17.5676   -8.8964  -19.6212 C   0  0  0  0  0  0  0  0  0  0  0  0
   16.5632   -8.9210  -20.5151 N   0  0  0  0  0  0  0  0  0  0  0  0
   15.3972   -9.0641  -19.8933 C   0  0  0  0  0  0  0  0  0  0  0  0
   15.6787   -9.1309  -18.5756 N   0  0  0  0  0  0  0  0  0  0  0  0
   19.8744   -9.8033  -16.0686 C   0  0  0  0  0  0  0  0  0  0  0  0
   19.6582  -10.5297  -15.0721 O   0  0  0  0  0  0  0  0  0  0  0  0
   20.9589   -8.9134  -16.0267 N   0  0  0  0  0  0  0  0  0  0  0  0
   21.9044   -8.7860  -14.9635 C   0  0  1  0  0  0  0  0  0  0  0  0
   23.3006   -9.1746  -15.2976 C   0  0  0  0  0  0  0  0  0  0  0  0
   23.3972  -10.6411  -15.4687 C   0  0  0  0  0  0  0  0  0  0  0  0
   23.6750  -11.6180  -14.5491 C   0  0  0  0  0  0  0  0  0  0  0  0
   23.6467  -12.7911  -15.1974 N   0  0  0  0  0  0  0  0  0  0  0  0
   23.3606  -12.6015  -16.5004 C   0  0  0  0  0  0  0  0  0  0  0  0
   23.2126  -11.2720  -16.6380 N   0  0  0  0  0  0  0  0  0  0  0  0
   21.8913   -7.3349  -14.5481 C   0  0  0  0  0  0  0  0  0  0  0  0
   22.6121   -6.8984  -13.6148 O   0  0  0  0  0  0  0  0  0  0  0  0
   21.0543   -6.3944  -15.2030 N   0  0  0  0  0  0  0  0  0  0  0  0
   20.9155   -5.0316  -14.6693 C   0  0  0  0  0  0  0  0  0  0  0  0
   21.9651   -4.1713  -15.2366 C   0  0  0  0  0  0  0  0  0  0  0  0
   22.7941   -4.6497  -16.0429 O   0  0  0  0  0  0  0  0  0  0  0  0
   22.0992   -2.8216  -14.9256 O   0  0  0  0  0  0  0  0  0  0  0  0
  2  1  1  1
  2  9  1  0
  3  2  1  0
  4  3  1  0
  5  4  2  0
  6  5  1  0
  7  8  2  0
  7  6  1  0
  8  4  1  0
  9 10  2  0
 11 12  1  0
 11  9  1  0
 12 19  1  0
 13 14  1  0
 12 13  1  6
 14 15  2  0
 15 16  1  0
 17 16  1  0
 18 14  1  0
 18 17  2  0
 19 21  1  0
 20 19  2  0
 21 22  1  0
 23 22  1  0
 24 23  2  0
 25 23  1  0
M  END
$$$$
