VTI.pdb
     RDKit          3D

 23 22  0  0  1  0  0  0  0  0999 V2000
   15.0733  -11.7342  -17.4235 C   0  0  0  0  0  0  0  0  0  0  0  0
   16.0880  -12.7928  -17.0593 C   0  0  2  0  0  0  0  0  0  0  0  0
   15.4274  -14.0226  -16.4820 C   0  0  0  0  0  0  0  0  0  0  0  0
   17.0429  -12.1559  -16.0413 C   0  0  2  0  0  0  0  0  0  0  0  0
   16.2202  -11.7563  -14.9191 N   0  0  0  0  0  0  0  0  0  0  0  0
   17.7346  -10.9903  -16.6415 C   0  0  0  0  0  0  0  0  0  0  0  0
   18.5579  -11.2261  -17.5773 O   0  0  0  0  0  0  0  0  0  0  0  0
   16.7914   -8.2524  -18.7540 C   0  0  0  0  0  0  0  0  0  0  0  0
   17.2538   -7.6484  -17.4626 C   0  0  1  0  0  0  0  0  0  0  0  0
   16.1248   -7.3494  -16.7020 O   0  0  0  0  0  0  0  0  0  0  0  0
   18.1558   -8.5610  -16.6676 C   0  0  2  0  0  0  0  0  0  0  0  0
   17.4494   -9.7117  -16.1541 N   0  0  0  0  0  0  0  0  0  0  0  0
   18.8334   -7.8765  -15.5620 C   0  0  0  0  0  0  0  0  0  0  0  0
   18.3334   -7.8683  -14.4111 O   0  0  0  0  0  0  0  0  0  0  0  0
   23.2155   -9.2614  -13.6611 C   0  0  0  0  0  0  0  0  0  0  0  0
   21.8081   -8.6714  -13.8381 C   0  0  0  0  0  0  0  0  0  0  0  0
   21.9883   -7.2831  -14.3419 C   0  0  2  0  0  0  0  0  0  0  0  0
   22.9231   -6.4835  -13.4615 C   0  0  0  0  0  0  0  0  0  0  0  0
   20.7127   -6.5330  -14.6347 C   0  0  2  0  0  0  0  0  0  0  0  0
   20.0658   -7.2018  -15.7361 N   0  0  0  0  0  0  0  0  0  0  0  0
   20.9005   -5.0992  -14.8635 C   0  0  0  0  0  0  0  0  0  0  0  0
   20.9314   -4.5960  -16.1394 O   0  0  0  0  0  0  0  0  0  0  0  0
   21.0346   -4.3151  -13.9151 O   0  0  0  0  0  0  0  0  0  0  0  0
  2  4  1  0
  2  3  1  1
  2  1  1  0
  4  5  1  1
  6  4  1  0
  6  7  2  0
  9  8  1  6
  9 10  1  0
  9 11  1  0
 11 12  1  1
 12  6  1  0
 13 11  1  0
 14 13  2  0
 15 16  1  0
 17 16  1  0
 17 19  1  0
 17 18  1  1
 19 20  1  6
 19 21  1  0
 20 13  1  0
 21 22  1  0
 23 21  2  0
M  END
$$$$
