VTI.pdb
     RDKit          3D

 23 22  0  0  1  0  0  0  0  0999 V2000
   26.5743  -15.0386  -16.6983 C   0  0  0  0  0  0  0  0  0  0  0  0
   25.9443  -15.8049  -15.5587 C   0  0  2  0  0  0  0  0  0  0  0  0
   26.5877  -15.4641  -14.2351 C   0  0  0  0  0  0  0  0  0  0  0  0
   26.1150  -17.2949  -15.8823 C   0  0  2  0  0  0  0  0  0  0  0  0
   25.6797  -17.4573  -17.2534 N   0  0  0  0  0  0  0  0  0  0  0  0
   25.2999  -18.1201  -14.9592 C   0  0  0  0  0  0  0  0  0  0  0  0
   24.0619  -18.2226  -15.2161 O   0  0  0  0  0  0  0  0  0  0  0  0
   24.3445  -20.7310  -15.3306 C   0  0  0  0  0  0  0  0  0  0  0  0
   25.1054  -21.0338  -14.0754 C   0  0  1  0  0  0  0  0  0  0  0  0
   26.3594  -21.5191  -14.4422 O   0  0  0  0  0  0  0  0  0  0  0  0
   25.2849  -19.8299  -13.1827 C   0  0  2  0  0  0  0  0  0  0  0  0
   25.9263  -18.7334  -13.8705 N   0  0  0  0  0  0  0  0  0  0  0  0
   26.0283  -20.1319  -11.9553 C   0  0  0  0  0  0  0  0  0  0  0  0
   27.1755  -19.6589  -11.7685 O   0  0  0  0  0  0  0  0  0  0  0  0
   27.1952  -18.3801   -7.2761 C   0  0  0  0  0  0  0  0  0  0  0  0
   27.2215  -19.8170   -7.8192 C   0  0  0  0  0  0  0  0  0  0  0  0
   26.3689  -19.8272   -9.0385 C   0  0  2  0  0  0  0  0  0  0  0  0
   25.0357  -19.1548   -8.7969 C   0  0  0  0  0  0  0  0  0  0  0  0
   26.2080  -21.1728   -9.7012 C   0  0  2  0  0  0  0  0  0  0  0  0
   25.4964  -20.9592  -10.9369 N   0  0  0  0  0  0  0  0  0  0  0  0
   25.5879  -22.1892   -8.8494 C   0  0  0  0  0  0  0  0  0  0  0  0
   26.3350  -22.8713   -7.9228 O   0  0  0  0  0  0  0  0  0  0  0  0
   24.3824  -22.4530   -8.9473 O   0  0  0  0  0  0  0  0  0  0  0  0
  2  4  1  0
  2  3  1  1
  2  1  1  0
  4  5  1  6
  6  4  1  0
  6  7  2  0
  9  8  1  6
  9 10  1  0
  9 11  1  0
 11 12  1  6
 12  6  1  0
 13 11  1  0
 14 13  2  0
 15 16  1  0
 17 16  1  0
 17 19  1  0
 17 18  1  1
 19 20  1  6
 19 21  1  0
 20 13  1  0
 21 22  1  0
 23 21  2  0
M  END
$$$$
