VTI.pdb
     RDKit          3D

 23 22  0  0  1  0  0  0  0  0999 V2000
   18.2373  -19.2070  -16.4471 C   0  0  0  0  0  0  0  0  0  0  0  0
   19.4896  -20.0470  -16.3506 C   0  0  2  0  0  0  0  0  0  0  0  0
   19.2104  -21.3936  -15.7255 C   0  0  0  0  0  0  0  0  0  0  0  0
   20.4912  -19.2489  -15.5059 C   0  0  2  0  0  0  0  0  0  0  0  0
   20.5533  -17.9307  -16.1011 N   0  0  0  0  0  0  0  0  0  0  0  0
   21.8192  -19.9075  -15.5209 C   0  0  0  0  0  0  0  0  0  0  0  0
   21.9069  -21.0437  -14.9636 O   0  0  0  0  0  0  0  0  0  0  0  0
   26.3136  -20.0647  -17.5433 C   0  0  0  0  0  0  0  0  0  0  0  0
   24.9224  -19.5101  -17.4835 C   0  0  1  0  0  0  0  0  0  0  0  0
   24.2223  -19.9921  -18.5880 O   0  0  0  0  0  0  0  0  0  0  0  0
   24.1821  -19.8936  -16.2252 C   0  0  2  0  0  0  0  0  0  0  0  0
   22.8897  -19.2542  -16.1381 N   0  0  0  0  0  0  0  0  0  0  0  0
   24.9436  -19.6132  -15.0038 C   0  0  0  0  0  0  0  0  0  0  0  0
   25.1003  -18.4344  -14.6032 O   0  0  0  0  0  0  0  0  0  0  0  0
   24.1799  -21.2106  -10.2443 C   0  0  0  0  0  0  0  0  0  0  0  0
   24.5932  -20.4115  -11.4897 C   0  0  0  0  0  0  0  0  0  0  0  0
   25.9263  -20.9264  -11.9033 C   0  0  2  0  0  0  0  0  0  0  0  0
   26.9307  -20.8545  -10.7744 C   0  0  0  0  0  0  0  0  0  0  0  0
   26.4746  -20.3426  -13.1816 C   0  0  2  0  0  0  0  0  0  0  0  0
   25.5303  -20.6427  -14.2290 N   0  0  0  0  0  0  0  0  0  0  0  0
   27.8386  -20.7700  -13.4981 C   0  0  0  0  0  0  0  0  0  0  0  0
   28.0647  -21.7197  -14.4620 O   0  0  0  0  0  0  0  0  0  0  0  0
   28.8114  -20.2855  -12.9055 O   0  0  0  0  0  0  0  0  0  0  0  0
  2  4  1  0
  2  3  1  1
  2  1  1  0
  4  5  1  6
  6  4  1  0
  6  7  2  0
  9  8  1  1
  9 10  1  0
  9 11  1  0
 11 12  1  1
 12  6  1  0
 13 11  1  0
 14 13  2  0
 15 16  1  0
 17 16  1  0
 17 19  1  0
 17 18  1  1
 19 20  1  6
 19 21  1  0
 20 13  1  0
 21 22  1  0
 23 21  2  0
M  END
$$$$
