VTI.pdb
     RDKit          3D

 23 22  0  0  1  0  0  0  0  0999 V2000
   14.3514  -12.7675  -11.9426 C   0  0  0  0  0  0  0  0  0  0  0  0
   13.9881  -12.2102  -13.2992 C   0  0  2  0  0  0  0  0  0  0  0  0
   13.1749  -13.1948  -14.1063 C   0  0  0  0  0  0  0  0  0  0  0  0
   15.3083  -11.8804  -14.0078 C   0  0  2  0  0  0  0  0  0  0  0  0
   16.0299  -13.1314  -14.1083 N   0  0  0  0  0  0  0  0  0  0  0  0
   16.0757  -10.8792  -13.2294 C   0  0  0  0  0  0  0  0  0  0  0  0
   16.8226  -11.3171  -12.3023 O   0  0  0  0  0  0  0  0  0  0  0  0
   17.1133   -7.3815  -15.1226 C   0  0  0  0  0  0  0  0  0  0  0  0
   17.7630   -7.9219  -13.8848 C   0  0  1  0  0  0  0  0  0  0  0  0
   18.4239   -6.8692  -13.2544 O   0  0  0  0  0  0  0  0  0  0  0  0
   16.7814   -8.5373  -12.9172 C   0  0  2  0  0  0  0  0  0  0  0  0
   15.9398   -9.5257  -13.5509 N   0  0  0  0  0  0  0  0  0  0  0  0
   15.9383   -7.5431  -12.2457 C   0  0  0  0  0  0  0  0  0  0  0  0
   14.7926   -7.2753  -12.6821 O   0  0  0  0  0  0  0  0  0  0  0  0
   15.1603   -7.3605   -7.0505 C   0  0  0  0  0  0  0  0  0  0  0  0
   14.8954   -7.2517   -8.5599 C   0  0  0  0  0  0  0  0  0  0  0  0
   15.5618   -6.0038   -9.0206 C   0  0  2  0  0  0  0  0  0  0  0  0
   15.0475   -4.7876   -8.2829 C   0  0  0  0  0  0  0  0  0  0  0  0
   15.5726   -5.7925  -10.5142 C   0  0  2  0  0  0  0  0  0  0  0  0
   16.3688   -6.8475  -11.0903 N   0  0  0  0  0  0  0  0  0  0  0  0
   16.0049   -4.4559  -10.9266 C   0  0  0  0  0  0  0  0  0  0  0  0
   15.0825   -3.4698  -11.1692 O   0  0  0  0  0  0  0  0  0  0  0  0
   17.2058   -4.1893  -11.0642 O   0  0  0  0  0  0  0  0  0  0  0  0
  2  4  1  0
  2  3  1  6
  2  1  1  0
  4  5  1  1
  6  4  1  0
  6  7  2  0
  9  8  1  6
  9 10  1  0
  9 11  1  0
 11 12  1  6
 12  6  1  0
 13 11  1  0
 14 13  2  0
 15 16  1  0
 17 16  1  0
 17 19  1  0
 17 18  1  1
 19 20  1  6
 19 21  1  0
 20 13  1  0
 21 22  1  0
 23 21  2  0
M  END
$$$$
