VTI.pdb
     RDKit          3D

 23 22  0  0  1  0  0  0  0  0999 V2000
   26.0501  -21.2242  -17.1388 C   0  0  0  0  0  0  0  0  0  0  0  0
   27.5284  -20.9666  -16.9617 C   0  0  2  0  0  0  0  0  0  0  0  0
   28.3511  -21.7196  -17.9807 C   0  0  0  0  0  0  0  0  0  0  0  0
   27.8849  -21.4084  -15.5364 C   0  0  2  0  0  0  0  0  0  0  0  0
   27.4334  -22.7789  -15.4194 N   0  0  0  0  0  0  0  0  0  0  0  0
   27.2147  -20.5360  -14.5429 C   0  0  0  0  0  0  0  0  0  0  0  0
   27.4952  -19.2994  -14.5776 O   0  0  0  0  0  0  0  0  0  0  0  0
   24.0512  -19.2084  -14.1992 C   0  0  0  0  0  0  0  0  0  0  0  0
   24.2328  -20.0240  -12.9549 C   0  0  1  0  0  0  0  0  0  0  0  0
   23.5723  -21.2373  -13.1389 O   0  0  0  0  0  0  0  0  0  0  0  0
   25.6810  -20.2961  -12.6273 C   0  0  2  0  0  0  0  0  0  0  0  0
   26.3225  -21.1106  -13.6332 N   0  0  0  0  0  0  0  0  0  0  0  0
   25.8642  -20.9183  -11.3122 C   0  0  0  0  0  0  0  0  0  0  0  0
   26.0414  -22.1563  -11.2084 O   0  0  0  0  0  0  0  0  0  0  0  0
   28.4684  -18.8927   -7.0915 C   0  0  0  0  0  0  0  0  0  0  0  0
   27.9018  -19.8993   -8.1045 C   0  0  0  0  0  0  0  0  0  0  0  0
   26.4467  -20.0185   -7.8183 C   0  0  2  0  0  0  0  0  0  0  0  0
   26.1898  -20.5028   -6.4085 C   0  0  0  0  0  0  0  0  0  0  0  0
   25.6518  -20.7998   -8.8348 C   0  0  2  0  0  0  0  0  0  0  0  0
   25.8503  -20.1646  -10.1138 N   0  0  0  0  0  0  0  0  0  0  0  0
   24.2389  -20.9672   -8.4896 C   0  0  0  0  0  0  0  0  0  0  0  0
   23.8461  -21.9567   -7.6244 O   0  0  0  0  0  0  0  0  0  0  0  0
   23.3737  -20.2229   -8.9690 O   0  0  0  0  0  0  0  0  0  0  0  0
  2  4  1  0
  2  3  1  6
  2  1  1  0
  4  5  1  1
  6  4  1  0
  6  7  2  0
  9  8  1  6
  9 10  1  0
  9 11  1  0
 11 12  1  6
 12  6  1  0
 13 11  1  0
 14 13  2  0
 15 16  1  0
 17 16  1  0
 17 19  1  0
 17 18  1  1
 19 20  1  6
 19 21  1  0
 20 13  1  0
 21 22  1  0
 23 21  2  0
M  END
$$$$
