VTI.pdb
     RDKit          3D

 23 22  0  0  1  0  0  0  0  0999 V2000
   17.4688  -12.3766  -17.4934 C   0  0  0  0  0  0  0  0  0  0  0  0
   18.7029  -12.2070  -18.3485 C   0  0  2  0  0  0  0  0  0  0  0  0
   18.8757  -13.3577  -19.3118 C   0  0  0  0  0  0  0  0  0  0  0  0
   19.8953  -12.1144  -17.3874 C   0  0  2  0  0  0  0  0  0  0  0  0
   19.9556  -13.3889  -16.7034 N   0  0  0  0  0  0  0  0  0  0  0  0
   19.7007  -11.0000  -16.4295 C   0  0  0  0  0  0  0  0  0  0  0  0
   18.9395  -11.2166  -15.4381 O   0  0  0  0  0  0  0  0  0  0  0  0
   22.3043   -9.6443  -14.4136 C   0  0  0  0  0  0  0  0  0  0  0  0
   21.6949   -8.4587  -15.0988 C   0  0  1  0  0  0  0  0  0  0  0  0
   22.5486   -8.0766  -16.1320 O   0  0  0  0  0  0  0  0  0  0  0  0
   20.3258   -8.7393  -15.6692 C   0  0  2  0  0  0  0  0  0  0  0  0
   20.3549   -9.7871  -16.6632 N   0  0  0  0  0  0  0  0  0  0  0  0
   19.6875   -7.5489  -16.2400 C   0  0  0  0  0  0  0  0  0  0  0  0
   19.3596   -7.5163  -17.4508 O   0  0  0  0  0  0  0  0  0  0  0  0
   15.6073   -6.3616  -18.0729 C   0  0  0  0  0  0  0  0  0  0  0  0
   17.0005   -5.7460  -17.8719 C   0  0  0  0  0  0  0  0  0  0  0  0
   17.3075   -5.8516  -16.4200 C   0  0  2  0  0  0  0  0  0  0  0  0
   16.1833   -5.3065  -15.5674 C   0  0  0  0  0  0  0  0  0  0  0  0
   18.6480   -5.2996  -16.0029 C   0  0  2  0  0  0  0  0  0  0  0  0
   19.4141   -6.3961  -15.4649 N   0  0  0  0  0  0  0  0  0  0  0  0
   18.5673   -4.1547  -15.0939 C   0  0  0  0  0  0  0  0  0  0  0  0
   18.5578   -2.8742  -15.5862 O   0  0  0  0  0  0  0  0  0  0  0  0
   18.5062   -4.3176  -13.8684 O   0  0  0  0  0  0  0  0  0  0  0  0
  2  4  1  0
  2  3  1  6
  2  1  1  0
  4  5  1  1
  6  4  1  0
  6  7  2  0
  9  8  1  6
  9 10  1  0
  9 11  1  0
 11 12  1  6
 12  6  1  0
 13 11  1  0
 14 13  2  0
 15 16  1  0
 17 16  1  0
 17 19  1  0
 17 18  1  1
 19 20  1  1
 19 21  1  0
 20 13  1  0
 21 22  1  0
 23 21  2  0
M  END
$$$$
