VTI.pdb
     RDKit          3D

 23 22  0  0  1  0  0  0  0  0999 V2000
   17.1646  -17.7605  -20.2963 C   0  0  0  0  0  0  0  0  0  0  0  0
   17.6100  -16.6708  -19.3492 C   0  0  2  0  0  0  0  0  0  0  0  0
   17.0425  -15.3265  -19.7403 C   0  0  0  0  0  0  0  0  0  0  0  0
   19.1436  -16.6503  -19.3914 C   0  0  2  0  0  0  0  0  0  0  0  0
   19.5713  -17.9690  -18.9744 N   0  0  0  0  0  0  0  0  0  0  0  0
   19.6708  -15.6033  -18.4840 C   0  0  0  0  0  0  0  0  0  0  0  0
   19.6137  -15.8360  -17.2384 O   0  0  0  0  0  0  0  0  0  0  0  0
   23.1465  -14.3218  -18.4418 C   0  0  0  0  0  0  0  0  0  0  0  0
   22.2333  -13.1434  -18.5970 C   0  0  1  0  0  0  0  0  0  0  0  0
   22.2544  -12.7599  -19.9368 O   0  0  0  0  0  0  0  0  0  0  0  0
   20.8093  -13.4360  -18.1906 C   0  0  2  0  0  0  0  0  0  0  0  0
   20.1955  -14.4320  -19.0378 N   0  0  0  0  0  0  0  0  0  0  0  0
   19.9638  -12.2383  -18.1615 C   0  0  0  0  0  0  0  0  0  0  0  0
   19.1198  -12.0280  -19.0660 O   0  0  0  0  0  0  0  0  0  0  0  0
   15.6121  -10.1180  -15.7708 C   0  0  0  0  0  0  0  0  0  0  0  0
   16.8537   -9.4744  -16.4067 C   0  0  0  0  0  0  0  0  0  0  0  0
   17.8928  -10.5365  -16.4821 C   0  0  2  0  0  0  0  0  0  0  0  0
   18.0998  -11.2151  -15.1461 C   0  0  0  0  0  0  0  0  0  0  0  0
   19.1996  -10.1164  -17.1078 C   0  0  2  0  0  0  0  0  0  0  0  0
   20.0569  -11.2755  -17.1277 N   0  0  0  0  0  0  0  0  0  0  0  0
   19.8210   -8.9531  -16.4722 C   0  0  0  0  0  0  0  0  0  0  0  0
   19.3524   -7.6887  -16.7247 O   0  0  0  0  0  0  0  0  0  0  0  0
   20.7774   -9.0857  -15.6976 O   0  0  0  0  0  0  0  0  0  0  0  0
  2  4  1  0
  2  3  1  6
  2  1  1  0
  4  5  1  1
  6  4  1  0
  6  7  2  0
  9  8  1  6
  9 10  1  0
  9 11  1  0
 11 12  1  6
 12  6  1  0
 13 11  1  0
 14 13  2  0
 15 16  1  0
 17 16  1  0
 17 19  1  0
 17 18  1  1
 19 20  1  1
 19 21  1  0
 20 13  1  0
 21 22  1  0
 23 21  2  0
M  END
$$$$
