VTI.pdb
     RDKit          3D

 23 22  0  0  1  0  0  0  0  0999 V2000
   12.8516  -11.4791  -11.7876 C   0  0  0  0  0  0  0  0  0  0  0  0
   13.2922  -11.3117  -13.2232 C   0  0  2  0  0  0  0  0  0  0  0  0
   12.4241  -12.1080  -14.1689 C   0  0  0  0  0  0  0  0  0  0  0  0
   14.7513  -11.7808  -13.2937 C   0  0  2  0  0  0  0  0  0  0  0  0
   14.7380  -13.1807  -12.9251 N   0  0  0  0  0  0  0  0  0  0  0  0
   15.5932  -10.9894  -12.3652 C   0  0  0  0  0  0  0  0  0  0  0  0
   15.8213  -11.4906  -11.2224 O   0  0  0  0  0  0  0  0  0  0  0  0
   18.9011   -7.4590  -11.7012 C   0  0  0  0  0  0  0  0  0  0  0  0
   18.0610   -8.3133  -12.6016 C   0  0  1  0  0  0  0  0  0  0  0  0
   18.8738   -9.3231  -13.1135 O   0  0  0  0  0  0  0  0  0  0  0  0
   16.8814   -8.9395  -11.8981 C   0  0  2  0  0  0  0  0  0  0  0  0
   16.0850   -9.7514  -12.7888 N   0  0  0  0  0  0  0  0  0  0  0  0
   16.0176   -7.9545  -11.2394 C   0  0  0  0  0  0  0  0  0  0  0  0
   15.1519   -7.3233  -11.8927 O   0  0  0  0  0  0  0  0  0  0  0  0
   12.5523   -8.5344   -7.6627 C   0  0  0  0  0  0  0  0  0  0  0  0
   13.3872   -8.0191   -8.8449 C   0  0  0  0  0  0  0  0  0  0  0  0
   14.4306   -7.1263   -8.2726 C   0  0  2  0  0  0  0  0  0  0  0  0
   13.8290   -6.0485   -7.3981 C   0  0  0  0  0  0  0  0  0  0  0  0
   15.4113   -6.5595   -9.2689 C   0  0  2  0  0  0  0  0  0  0  0  0
   16.1166   -7.6717   -9.8557 N   0  0  0  0  0  0  0  0  0  0  0  0
   16.3046   -5.5399   -8.7160 C   0  0  0  0  0  0  0  0  0  0  0  0
   16.0800   -4.2093   -8.9634 O   0  0  0  0  0  0  0  0  0  0  0  0
   17.2763   -5.8558   -8.0173 O   0  0  0  0  0  0  0  0  0  0  0  0
  2  4  1  0
  2  3  1  6
  2  1  1  0
  4  5  1  1
  6  4  1  0
  6  7  2  0
  9  8  1  1
  9 10  1  0
  9 11  1  0
 11 12  1  6
 12  6  1  0
 13 11  1  0
 14 13  2  0
 15 16  1  0
 17 16  1  0
 17 19  1  0
 17 18  1  6
 19 20  1  1
 19 21  1  0
 20 13  1  0
 21 22  1  0
 23 21  2  0
M  END
$$$$
