VTI.pdb
     RDKit          3D

 23 22  0  0  1  0  0  0  0  0999 V2000
   33.3957  -23.1127  -11.7242 C   0  0  0  0  0  0  0  0  0  0  0  0
   32.2990  -22.0748  -11.6690 C   0  0  2  0  0  0  0  0  0  0  0  0
   31.6600  -22.0118  -10.3016 C   0  0  0  0  0  0  0  0  0  0  0  0
   31.2688  -22.4655  -12.7367 C   0  0  2  0  0  0  0  0  0  0  0  0
   31.9670  -22.4089  -14.0036 N   0  0  0  0  0  0  0  0  0  0  0  0
   30.1212  -21.5275  -12.7141 C   0  0  0  0  0  0  0  0  0  0  0  0
   30.3634  -20.3115  -12.9820 O   0  0  0  0  0  0  0  0  0  0  0  0
   25.5464  -20.3015  -13.0977 C   0  0  0  0  0  0  0  0  0  0  0  0
   26.7376  -21.1838  -13.3189 C   0  0  1  0  0  0  0  0  0  0  0  0
   27.3500  -20.7857  -14.5058 O   0  0  0  0  0  0  0  0  0  0  0  0
   27.7457  -21.1156  -12.1974 C   0  0  2  0  0  0  0  0  0  0  0  0
   28.8512  -22.0222  -12.4037 N   0  0  0  0  0  0  0  0  0  0  0  0
   27.1545  -21.3660  -10.8791 C   0  0  0  0  0  0  0  0  0  0  0  0
   26.9653  -22.5385  -10.4742 O   0  0  0  0  0  0  0  0  0  0  0  0
   28.2080  -19.2940   -5.7468 C   0  0  0  0  0  0  0  0  0  0  0  0
   27.4928  -20.3752   -6.5713 C   0  0  0  0  0  0  0  0  0  0  0  0
   26.8559  -19.6812   -7.7229 C   0  0  2  0  0  0  0  0  0  0  0  0
   25.9456  -18.5613   -7.2697 C   0  0  0  0  0  0  0  0  0  0  0  0
   26.1808  -20.5833   -8.7259 C   0  0  2  0  0  0  0  0  0  0  0  0
   26.7741  -20.3134  -10.0120 N   0  0  0  0  0  0  0  0  0  0  0  0
   24.7203  -20.4821   -8.7344 C   0  0  0  0  0  0  0  0  0  0  0  0
   24.0803  -19.7265   -9.6838 O   0  0  0  0  0  0  0  0  0  0  0  0
   24.0361  -21.0734   -7.8891 O   0  0  0  0  0  0  0  0  0  0  0  0
  2  4  1  0
  2  3  1  1
  2  1  1  0
  4  5  1  6
  6  4  1  0
  6  7  2  0
  9  8  1  1
  9 10  1  0
  9 11  1  0
 11 12  1  6
 12  6  1  0
 13 11  1  0
 14 13  2  0
 15 16  1  0
 17 16  1  0
 17 19  1  0
 17 18  1  1
 19 20  1  6
 19 21  1  0
 20 13  1  0
 21 22  1  0
 23 21  2  0
M  END
$$$$
