VTI.pdb
     RDKit          3D

 23 22  0  0  1  0  0  0  0  0999 V2000
   18.2871  -17.2837  -18.0133 C   0  0  0  0  0  0  0  0  0  0  0  0
   18.6480  -15.8549  -18.3471 C   0  0  2  0  0  0  0  0  0  0  0  0
   19.7272  -15.7848  -19.4020 C   0  0  0  0  0  0  0  0  0  0  0  0
   19.1172  -15.2023  -17.0403 C   0  0  2  0  0  0  0  0  0  0  0  0
   18.0596  -15.4310  -16.0786 N   0  0  0  0  0  0  0  0  0  0  0  0
   19.3539  -13.7531  -17.2431 C   0  0  0  0  0  0  0  0  0  0  0  0
   20.3415  -13.4250  -17.9685 O   0  0  0  0  0  0  0  0  0  0  0  0
   17.6916   -9.1345  -16.6959 C   0  0  0  0  0  0  0  0  0  0  0  0
   17.4596  -10.6151  -16.7210 C   0  0  1  0  0  0  0  0  0  0  0  0
   16.7128  -10.9115  -17.8598 O   0  0  0  0  0  0  0  0  0  0  0  0
   18.7377  -11.4178  -16.7473 C   0  0  2  0  0  0  0  0  0  0  0  0
   18.4913  -12.8367  -16.6349 N   0  0  0  0  0  0  0  0  0  0  0  0
   19.6927  -11.0093  -15.7122 C   0  0  0  0  0  0  0  0  0  0  0  0
   19.5314  -11.3591  -14.5180 O   0  0  0  0  0  0  0  0  0  0  0  0
   25.2842  -11.0620  -14.4853 C   0  0  0  0  0  0  0  0  0  0  0  0
   24.0482  -10.2338  -14.1022 C   0  0  0  0  0  0  0  0  0  0  0  0
   23.0361  -10.4606  -15.1688 C   0  0  2  0  0  0  0  0  0  0  0  0
   23.6026  -10.1943  -16.5459 C   0  0  0  0  0  0  0  0  0  0  0  0
   21.7136   -9.7653  -14.9609 C   0  0  2  0  0  0  0  0  0  0  0  0
   20.8258  -10.2126  -16.0051 N   0  0  0  0  0  0  0  0  0  0  0  0
   21.8110   -8.3070  -14.8751 C   0  0  0  0  0  0  0  0  0  0  0  0
   21.4670   -7.5220  -15.9463 O   0  0  0  0  0  0  0  0  0  0  0  0
   22.2039   -7.7548  -13.8392 O   0  0  0  0  0  0  0  0  0  0  0  0
  2  4  1  0
  2  3  1  6
  2  1  1  0
  4  5  1  1
  6  4  1  0
  6  7  2  0
  9  8  1  6
  9 10  1  0
  9 11  1  0
 11 12  1  1
 12  6  1  0
 13 11  1  0
 14 13  2  0
 15 16  1  0
 17 16  1  0
 17 19  1  0
 17 18  1  6
 19 20  1  6
 19 21  1  0
 20 13  1  0
 21 22  1  0
 23 21  2  0
M  END
$$$$
