VTI.pdb
     RDKit          3D

 23 22  0  0  1  0  0  0  0  0999 V2000
   20.1162  -16.5148  -18.4711 C   0  0  0  0  0  0  0  0  0  0  0  0
   20.6530  -15.1202  -18.2472 C   0  0  2  0  0  0  0  0  0  0  0  0
   19.9163  -14.4117  -17.1348 C   0  0  0  0  0  0  0  0  0  0  0  0
   20.4930  -14.3683  -19.5749 C   0  0  2  0  0  0  0  0  0  0  0  0
   21.1924  -15.1576  -20.5667 N   0  0  0  0  0  0  0  0  0  0  0  0
   21.0688  -13.0064  -19.4693 C   0  0  0  0  0  0  0  0  0  0  0  0
   22.2974  -12.8748  -19.7561 O   0  0  0  0  0  0  0  0  0  0  0  0
   20.3240   -9.9619  -21.3275 C   0  0  0  0  0  0  0  0  0  0  0  0
   20.0926   -9.6469  -19.8806 C   0  0  1  0  0  0  0  0  0  0  0  0
   18.7185   -9.6804  -19.6502 O   0  0  0  0  0  0  0  0  0  0  0  0
   20.7730  -10.6156  -18.9440 C   0  0  2  0  0  0  0  0  0  0  0  0
   20.2425  -11.9537  -19.0658 N   0  0  0  0  0  0  0  0  0  0  0  0
   20.7097  -10.1963  -17.5403 C   0  0  0  0  0  0  0  0  0  0  0  0
   19.8007  -10.6194  -16.7858 O   0  0  0  0  0  0  0  0  0  0  0  0
   24.6843  -10.8632  -14.4835 C   0  0  0  0  0  0  0  0  0  0  0  0
   23.3010  -10.7162  -15.1356 C   0  0  0  0  0  0  0  0  0  0  0  0
   22.8883   -9.2996  -14.9443 C   0  0  2  0  0  0  0  0  0  0  0  0
   22.9385   -8.8920  -13.4885 C   0  0  0  0  0  0  0  0  0  0  0  0
   21.5801   -8.9165  -15.5906 C   0  0  2  0  0  0  0  0  0  0  0  0
   21.6564   -9.3074  -16.9763 N   0  0  0  0  0  0  0  0  0  0  0  0
   21.2119   -7.5112  -15.4095 C   0  0  0  0  0  0  0  0  0  0  0  0
   20.4015   -7.1323  -14.3694 O   0  0  0  0  0  0  0  0  0  0  0  0
   21.6222   -6.6400  -16.1873 O   0  0  0  0  0  0  0  0  0  0  0  0
  2  4  1  0
  2  3  1  1
  2  1  1  0
  4  5  1  6
  6  4  1  0
  6  7  2  0
  9  8  1  6
  9 10  1  0
  9 11  1  0
 11 12  1  1
 12  6  1  0
 13 11  1  0
 14 13  2  0
 15 16  1  0
 17 16  1  0
 17 19  1  0
 17 18  1  1
 19 20  1  6
 19 21  1  0
 20 13  1  0
 21 22  1  0
 23 21  2  0
M  END
$$$$
