VTI.pdb
     RDKit          3D

 23 22  0  0  1  0  0  0  0  0999 V2000
   19.1776  -17.5127  -15.7074 C   0  0  0  0  0  0  0  0  0  0  0  0
   20.3664  -16.5828  -15.6376 C   0  0  2  0  0  0  0  0  0  0  0  0
   19.9450  -15.1337  -15.7061 C   0  0  0  0  0  0  0  0  0  0  0  0
   21.2778  -16.9437  -16.8179 C   0  0  2  0  0  0  0  0  0  0  0  0
   20.4170  -17.0115  -17.9798 N   0  0  0  0  0  0  0  0  0  0  0  0
   21.9508  -18.2414  -16.5722 C   0  0  0  0  0  0  0  0  0  0  0  0
   21.2503  -19.2902  -16.7074 O   0  0  0  0  0  0  0  0  0  0  0  0
   25.6075  -21.1047  -17.1180 C   0  0  0  0  0  0  0  0  0  0  0  0
   24.7086  -19.9210  -17.3110 C   0  0  1  0  0  0  0  0  0  0  0  0
   23.7518  -20.2618  -18.2653 O   0  0  0  0  0  0  0  0  0  0  0  0
   24.0095  -19.4915  -16.0440 C   0  0  2  0  0  0  0  0  0  0  0  0
   23.3009  -18.2436  -16.2099 N   0  0  0  0  0  0  0  0  0  0  0  0
   24.9165  -19.3836  -14.8969 C   0  0  0  0  0  0  0  0  0  0  0  0
   25.5202  -18.3101  -14.6564 O   0  0  0  0  0  0  0  0  0  0  0  0
   23.7260  -20.8356  -10.0748 C   0  0  0  0  0  0  0  0  0  0  0  0
   24.2835  -20.1225  -11.3161 C   0  0  0  0  0  0  0  0  0  0  0  0
   25.5244  -20.8468  -11.7021 C   0  0  2  0  0  0  0  0  0  0  0  0
   26.5226  -20.8947  -10.5665 C   0  0  0  0  0  0  0  0  0  0  0  0
   26.1615  -20.3920  -12.9917 C   0  0  2  0  0  0  0  0  0  0  0  0
   25.1519  -20.4685  -14.0183 N   0  0  0  0  0  0  0  0  0  0  0  0
   27.3892  -21.1101  -13.3387 C   0  0  0  0  0  0  0  0  0  0  0  0
   28.6166  -20.5415  -13.1100 O   0  0  0  0  0  0  0  0  0  0  0  0
   27.3454  -22.2397  -13.8431 O   0  0  0  0  0  0  0  0  0  0  0  0
  2  4  1  0
  2  3  1  6
  2  1  1  0
  4  5  1  6
  6  4  1  0
  6  7  2  0
  9  8  1  1
  9 10  1  0
  9 11  1  0
 11 12  1  6
 12  6  1  0
 13 11  1  0
 14 13  2  0
 15 16  1  0
 17 16  1  0
 17 19  1  0
 17 18  1  1
 19 20  1  6
 19 21  1  0
 20 13  1  0
 21 22  1  0
 23 21  2  0
M  END
$$$$
