CRH.pdb
     RDKit          3D

 28 28  0  0  1  0  0  0  0  0999 V2000
   20.3658  -14.6476  -17.8779 N   0  0  0  0  0  0  0  0  0  0  0  0
   20.9624  -13.6778  -17.0029 C   0  0  1  0  0  0  0  0  0  0  0  0
   22.4718  -13.6461  -17.1714 C   0  0  0  0  0  0  0  0  0  0  0  0
   23.2599  -14.9768  -16.2522 S   0  0  0  0  0  0  0  0  0  0  0  0
   20.3915  -12.3132  -17.2146 C   0  0  0  0  0  0  0  0  0  0  0  0
   20.4967  -11.7358  -18.3263 O   0  0  0  0  0  0  0  0  0  0  0  0
   13.2155   -8.5057  -15.6018 N   0  0  0  0  0  0  0  0  0  0  0  0
   14.0868   -7.4052  -15.8697 C   0  0  0  0  0  0  0  0  0  0  0  0
   13.6505   -6.3102  -16.3436 N   0  0  0  0  0  0  0  0  0  0  0  0
   15.4747   -7.5620  -15.5903 N   0  0  0  0  0  0  0  0  0  0  0  0
   16.0413   -8.8722  -15.5122 C   0  0  0  0  0  0  0  0  0  0  0  0
   17.5310   -8.7555  -15.2716 C   0  0  0  0  0  0  0  0  0  0  0  0
   18.0749  -10.1638  -15.1661 C   0  0  0  0  0  0  0  0  0  0  0  0
   19.1226  -10.3451  -16.2635 C   0  0  2  0  0  0  0  0  0  0  0  0
   19.7142  -11.6472  -16.1428 N   0  0  0  0  0  0  0  0  0  0  0  0
   20.1719   -9.3118  -15.9891 C   0  0  0  0  0  0  0  0  0  0  0  0
   20.9095   -9.4264  -14.9807 O   0  0  0  0  0  0  0  0  0  0  0  0
   14.2785   -5.5165  -16.5416 N   0  0  0  0  0  0  0  0  0  0  0  0
   20.3709   -8.1951  -16.8303 C   0  0  2  0  0  0  0  0  0  0  0  0
   21.3859   -7.2337  -16.4988 C   0  0  0  0  0  0  0  0  0  0  0  0
   22.0126   -6.6187  -17.7380 C   0  0  0  0  0  0  0  0  0  0  0  0
   23.0898   -5.7250  -17.2876 C   0  0  0  0  0  0  0  0  0  0  0  0
   23.4129   -5.4557  -15.9886 N   0  0  0  0  0  0  0  0  0  0  0  0
   24.4582   -4.5886  -15.9751 C   0  0  0  0  0  0  0  0  0  0  0  0
   24.7634   -4.3367  -17.2634 N   0  0  0  0  0  0  0  0  0  0  0  0
   23.9198   -5.0372  -18.0685 C   0  0  0  0  0  0  0  0  0  0  0  0
   20.8491   -6.1153  -15.6718 O   0  0  0  0  0  0  0  0  0  0  0  0
   21.6299   -5.2312  -15.2861 O   0  0  0  0  0  0  0  0  0  0  0  0
  2  1  1  6
  3  2  1  0
  3  4  1  0
  5  2  1  0
  5  6  2  0
  7  8  1  0
  8  9  2  0
 10  8  1  0
 10 11  1  0
 11 12  1  0
 14 13  1  1
 13 12  1  0
 14 15  1  0
 15  5  1  0
 16 14  1  0
 17 16  2  0
 18 16  1  0
 19 20  1  6
 19 18  1  0
 21 22  2  0
 21 20  1  0
 23 22  1  0
 24 25  2  0
 24 23  1  0
 25 21  1  0
 26 19  1  0
 27 26  2  0
 28 26  1  0
M  END
$$$$
