CRH.pdb
     RDKit          3D

 28 28  0  0  1  0  0  0  0  0999 V2000
   43.0095   -5.8822  -14.2507 N   0  0  0  0  0  0  0  0  0  0  0  0
   43.2117   -5.6014  -12.8571 C   0  0  1  0  0  0  0  0  0  0  0  0
   42.2591   -4.5210  -12.3741 C   0  0  0  0  0  0  0  0  0  0  0  0
   42.6493   -2.9279  -13.1134 S   0  0  0  0  0  0  0  0  0  0  0  0
   43.0678   -6.8286  -12.0166 C   0  0  0  0  0  0  0  0  0  0  0  0
   42.3132   -7.7688  -12.3728 O   0  0  0  0  0  0  0  0  0  0  0  0
   47.7839   -9.3907   -4.9375 N   0  0  0  0  0  0  0  0  0  0  0  0
   46.9440  -10.5081   -5.2346 C   0  0  0  0  0  0  0  0  0  0  0  0
   47.0499  -11.6068   -4.6057 N   0  0  0  0  0  0  0  0  0  0  0  0
   45.9708  -10.3635   -6.2647 N   0  0  0  0  0  0  0  0  0  0  0  0
   45.9321   -9.1657   -7.0442 C   0  0  0  0  0  0  0  0  0  0  0  0
   44.8308   -9.2801   -8.0760 C   0  0  0  0  0  0  0  0  0  0  0  0
   44.8695   -8.0165   -8.9080 C   0  0  0  0  0  0  0  0  0  0  0  0
   43.7470   -8.1010   -9.9412 C   0  0  2  0  0  0  0  0  0  0  0  0
   43.7950   -6.9433  -10.7882 N   0  0  0  0  0  0  0  0  0  0  0  0
   42.4740   -8.0681   -9.1521 C   0  0  0  0  0  0  0  0  0  0  0  0
   42.0261   -6.9714   -8.7390 O   0  0  0  0  0  0  0  0  0  0  0  0
   46.4420  -12.4129   -4.8162 N   0  0  0  0  0  0  0  0  0  0  0  0
   41.7434   -9.2376   -8.8476 C   0  0  2  0  0  0  0  0  0  0  0  0
   40.5712   -9.1425   -8.0221 C   0  0  0  0  0  0  0  0  0  0  0  0
   39.3023   -9.4446   -8.8000 C   0  0  0  0  0  0  0  0  0  0  0  0
   38.1755   -9.3339   -7.8620 C   0  0  0  0  0  0  0  0  0  0  0  0
   38.2666   -9.0035   -6.5403 N   0  0  0  0  0  0  0  0  0  0  0  0
   37.0169   -9.0045   -6.0084 C   0  0  0  0  0  0  0  0  0  0  0  0
   36.1755   -9.3348   -7.0081 N   0  0  0  0  0  0  0  0  0  0  0  0
   36.8913   -9.5369   -8.1472 C   0  0  0  0  0  0  0  0  0  0  0  0
   40.6201  -10.0869   -6.8694 O   0  0  0  0  0  0  0  0  0  0  0  0
   41.4134  -11.0402   -6.9131 O   0  0  0  0  0  0  0  0  0  0  0  0
  2  1  1  6
  3  2  1  0
  3  4  1  0
  5  2  1  0
  5  6  2  0
  7  8  1  0
  8  9  2  0
 10  8  1  0
 10 11  1  0
 11 12  1  0
 14 13  1  1
 13 12  1  0
 14 15  1  0
 15  5  1  0
 16 14  1  0
 17 16  2  0
 18 16  1  0
 19 20  1  6
 19 18  1  0
 21 22  2  0
 21 20  1  0
 23 22  1  0
 24 25  2  0
 24 23  1  0
 25 21  1  0
 26 19  1  0
 27 26  2  0
 28 26  1  0
M  END
$$$$
