CRH.pdb
     RDKit          3D

 28 28  0  0  1  0  0  0  0  0999 V2000
   28.1494   -7.6357  -21.6104 N   0  0  0  0  0  0  0  0  0  0  0  0
   27.5090   -8.6726  -20.8511 C   0  0  1  0  0  0  0  0  0  0  0  0
   28.4133   -9.1712  -19.7370 C   0  0  0  0  0  0  0  0  0  0  0  0
   29.8560  -10.0197  -20.3969 S   0  0  0  0  0  0  0  0  0  0  0  0
   26.1998   -8.2217  -20.2893 C   0  0  0  0  0  0  0  0  0  0  0  0
   26.0423   -7.0401  -19.8902 O   0  0  0  0  0  0  0  0  0  0  0  0
   18.1544  -11.6652  -21.3872 N   0  0  0  0  0  0  0  0  0  0  0  0
   17.9323  -10.5239  -20.5563 C   0  0  0  0  0  0  0  0  0  0  0  0
   16.7611  -10.1550  -20.2306 N   0  0  0  0  0  0  0  0  0  0  0  0
   19.0667   -9.7976  -20.0931 N   0  0  0  0  0  0  0  0  0  0  0  0
   20.3769  -10.1726  -20.5251 C   0  0  0  0  0  0  0  0  0  0  0  0
   21.3960   -9.2751  -19.8568 C   0  0  0  0  0  0  0  0  0  0  0  0
   22.7560   -9.6792  -20.3836 C   0  0  0  0  0  0  0  0  0  0  0  0
   23.8003   -8.7795  -19.7243 C   0  0  2  0  0  0  0  0  0  0  0  0
   25.1051   -9.1409  -20.2006 N   0  0  0  0  0  0  0  0  0  0  0  0
   23.7212   -9.0824  -18.2593 C   0  0  0  0  0  0  0  0  0  0  0  0
   24.3792  -10.0397  -17.7854 O   0  0  0  0  0  0  0  0  0  0  0  0
   16.5975   -9.3131  -19.6578 N   0  0  0  0  0  0  0  0  0  0  0  0
   22.9248   -8.3245  -17.3729 C   0  0  1  0  0  0  0  0  0  0  0  0
   23.0115   -8.5708  -15.9600 C   0  0  0  0  0  0  0  0  0  0  0  0
   24.3916   -8.2532  -15.4114 C   0  0  0  0  0  0  0  0  0  0  0  0
   25.1866   -9.4880  -15.4814 C   0  0  0  0  0  0  0  0  0  0  0  0
   24.7729  -10.6746  -16.0155 N   0  0  0  0  0  0  0  0  0  0  0  0
   25.7817  -11.5762  -15.8965 C   0  0  0  0  0  0  0  0  0  0  0  0
   26.8004  -10.9333  -15.2920 N   0  0  0  0  0  0  0  0  0  0  0  0
   26.4312   -9.6488  -15.0379 C   0  0  0  0  0  0  0  0  0  0  0  0
   22.0294   -7.7566  -15.1884 O   0  0  0  0  0  0  0  0  0  0  0  0
   21.3482   -6.9137  -15.7932 O   0  0  0  0  0  0  0  0  0  0  0  0
  2  1  1  1
  3  2  1  0
  3  4  1  0
  5  2  1  0
  5  6  2  0
  7  8  1  0
  8  9  2  0
 10  8  1  0
 10 11  1  0
 11 12  1  0
 14 13  1  6
 13 12  1  0
 14 15  1  0
 15  5  1  0
 16 14  1  0
 17 16  2  0
 18 16  1  0
 19 20  1  1
 19 18  1  0
 21 22  2  0
 21 20  1  0
 23 22  1  0
 24 25  2  0
 24 23  1  0
 25 21  1  0
 26 19  1  0
 27 26  2  0
 28 26  1  0
M  END
$$$$
