CRH.pdb
     RDKit          3D

 28 28  0  0  1  0  0  0  0  0999 V2000
   28.3612  -16.1733  -18.7331 N   0  0  0  0  0  0  0  0  0  0  0  0
   27.5934  -15.2447  -19.5142 C   0  0  1  0  0  0  0  0  0  0  0  0
   26.4801  -15.9538  -20.2663 C   0  0  0  0  0  0  0  0  0  0  0  0
   27.1318  -17.2563  -21.3224 S   0  0  0  0  0  0  0  0  0  0  0  0
   27.0288  -14.1457  -18.6738 C   0  0  0  0  0  0  0  0  0  0  0  0
   26.5209  -14.3897  -17.5500 O   0  0  0  0  0  0  0  0  0  0  0  0
   31.7273   -8.0262  -18.0620 N   0  0  0  0  0  0  0  0  0  0  0  0
   31.6127   -9.4221  -17.7781 C   0  0  0  0  0  0  0  0  0  0  0  0
   32.5153  -10.0482  -17.1400 N   0  0  0  0  0  0  0  0  0  0  0  0
   30.4491  -10.1077  -18.2307 N   0  0  0  0  0  0  0  0  0  0  0  0
   29.5695   -9.4770  -19.1646 C   0  0  0  0  0  0  0  0  0  0  0  0
   28.4041  -10.3995  -19.4501 C   0  0  0  0  0  0  0  0  0  0  0  0
   27.7549  -10.7184  -18.1207 C   0  0  0  0  0  0  0  0  0  0  0  0
   26.5915  -11.6733  -18.3843 C   0  0  2  0  0  0  0  0  0  0  0  0
   27.0624  -12.7943  -19.1468 N   0  0  0  0  0  0  0  0  0  0  0  0
   25.6189  -10.8975  -19.2189 C   0  0  0  0  0  0  0  0  0  0  0  0
   25.7836  -10.8251  -20.4605 O   0  0  0  0  0  0  0  0  0  0  0  0
   32.4719  -11.0692  -17.0008 N   0  0  0  0  0  0  0  0  0  0  0  0
   24.5055  -10.2327  -18.6598 C   0  0  1  0  0  0  0  0  0  0  0  0
   23.6461   -9.4570  -19.5108 C   0  0  0  0  0  0  0  0  0  0  0  0
   22.2244   -9.3970  -18.9800 C   0  0  0  0  0  0  0  0  0  0  0  0
   21.6434  -10.7395  -19.1287 C   0  0  0  0  0  0  0  0  0  0  0  0
   22.2494  -11.8105  -19.7201 N   0  0  0  0  0  0  0  0  0  0  0  0
   21.4015  -12.8701  -19.6657 C   0  0  0  0  0  0  0  0  0  0  0  0
   20.2875  -12.4374  -19.0428 N   0  0  0  0  0  0  0  0  0  0  0  0
   20.4393  -11.1261  -18.7136 C   0  0  0  0  0  0  0  0  0  0  0  0
   24.1239   -8.0524  -19.6584 O   0  0  0  0  0  0  0  0  0  0  0  0
   25.1311   -7.6960  -19.0270 O   0  0  0  0  0  0  0  0  0  0  0  0
  2  1  1  1
  3  2  1  0
  3  4  1  0
  5  2  1  0
  5  6  2  0
  7  8  1  0
  8  9  2  0
 10  8  1  0
 10 11  1  0
 11 12  1  0
 14 13  1  6
 13 12  1  0
 14 15  1  0
 15  5  1  0
 16 14  1  0
 17 16  2  0
 18 16  1  0
 19 20  1  6
 19 18  1  0
 21 22  2  0
 21 20  1  0
 23 22  1  0
 24 25  2  0
 24 23  1  0
 25 21  1  0
 26 19  1  0
 27 26  2  0
 28 26  1  0
M  END
$$$$
