CRH.pdb
     RDKit          3D

 28 28  0  0  1  0  0  0  0  0999 V2000
   26.2401  -21.0112   -9.6080 N   0  0  0  0  0  0  0  0  0  0  0  0
   25.0201  -20.8915  -10.3558 C   0  0  1  0  0  0  0  0  0  0  0  0
   23.9863  -20.0851   -9.5883 C   0  0  0  0  0  0  0  0  0  0  0  0
   22.9904  -21.1420   -8.5264 S   0  0  0  0  0  0  0  0  0  0  0  0
   25.2510  -20.2850  -11.7019 C   0  0  0  0  0  0  0  0  0  0  0  0
   25.9188  -19.2272  -11.8263 O   0  0  0  0  0  0  0  0  0  0  0  0
   26.5969  -24.5385  -16.6417 N   0  0  0  0  0  0  0  0  0  0  0  0
   26.6417  -23.4440  -17.5594 C   0  0  0  0  0  0  0  0  0  0  0  0
   26.2203  -23.5575  -18.7525 N   0  0  0  0  0  0  0  0  0  0  0  0
   27.1756  -22.2046  -17.1034 N   0  0  0  0  0  0  0  0  0  0  0  0
   27.8047  -22.1292  -15.8219 C   0  0  0  0  0  0  0  0  0  0  0  0
   27.0876  -21.0988  -14.9765 C   0  0  0  0  0  0  0  0  0  0  0  0
   25.6089  -21.4105  -15.0569 C   0  0  0  0  0  0  0  0  0  0  0  0
   24.8669  -20.3877  -14.1978 C   0  0  2  0  0  0  0  0  0  0  0  0
   24.7083  -20.9101  -12.8705 N   0  0  0  0  0  0  0  0  0  0  0  0
   23.5136  -20.2459  -14.8246 C   0  0  0  0  0  0  0  0  0  0  0  0
   22.6238  -21.0968  -14.5833 O   0  0  0  0  0  0  0  0  0  0  0  0
   26.3335  -22.7990  -19.4421 N   0  0  0  0  0  0  0  0  0  0  0  0
   23.1898  -19.1779  -15.6899 C   0  0  1  0  0  0  0  0  0  0  0  0
   21.8764  -19.1118  -16.2687 C   0  0  0  0  0  0  0  0  0  0  0  0
   21.2693  -20.4908  -16.4592 C   0  0  0  0  0  0  0  0  0  0  0  0
   20.0802  -20.3332  -17.3096 C   0  0  0  0  0  0  0  0  0  0  0  0
   19.9406  -19.4346  -18.3281 N   0  0  0  0  0  0  0  0  0  0  0  0
   18.7074  -19.5913  -18.8754 C   0  0  0  0  0  0  0  0  0  0  0  0
   18.1063  -20.5821  -18.1874 N   0  0  0  0  0  0  0  0  0  0  0  0
   18.9533  -21.0365  -17.2248 C   0  0  0  0  0  0  0  0  0  0  0  0
   20.9320  -18.3241  -15.4257 O   0  0  0  0  0  0  0  0  0  0  0  0
   20.7571  -18.6682  -14.2462 O   0  0  0  0  0  0  0  0  0  0  0  0
  2  1  1  1
  3  2  1  0
  3  4  1  0
  5  2  1  0
  5  6  2  0
  7  8  1  0
  8  9  2  0
 10  8  1  0
 10 11  1  0
 11 12  1  0
 14 13  1  6
 13 12  1  0
 14 15  1  0
 15  5  1  0
 16 14  1  0
 17 16  2  0
 18 16  1  0
 19 20  1  6
 19 18  1  0
 21 22  2  0
 21 20  1  0
 23 22  1  0
 24 25  2  0
 24 23  1  0
 25 21  1  0
 26 19  1  0
 27 26  2  0
 28 26  1  0
M  END
$$$$
