CRH.pdb
     RDKit          3D

 28 28  0  0  1  0  0  0  0  0999 V2000
   26.4105  -20.7839  -10.0281 N   0  0  0  0  0  0  0  0  0  0  0  0
   25.0589  -20.8228  -10.5115 C   0  0  1  0  0  0  0  0  0  0  0  0
   24.1739  -19.8620   -9.7359 C   0  0  0  0  0  0  0  0  0  0  0  0
   24.1332  -20.2790   -7.9863 S   0  0  0  0  0  0  0  0  0  0  0  0
   24.9834  -20.5264  -11.9741 C   0  0  0  0  0  0  0  0  0  0  0  0
   25.5004  -19.4829  -12.4478 O   0  0  0  0  0  0  0  0  0  0  0  0
   25.6194  -26.3225  -16.1572 N   0  0  0  0  0  0  0  0  0  0  0  0
   24.9503  -25.3444  -16.9560 C   0  0  0  0  0  0  0  0  0  0  0  0
   24.0125  -25.6626  -17.7517 N   0  0  0  0  0  0  0  0  0  0  0  0
   25.3613  -23.9855  -16.8404 N   0  0  0  0  0  0  0  0  0  0  0  0
   26.4200  -23.6357  -15.9456 C   0  0  0  0  0  0  0  0  0  0  0  0
   26.0253  -22.3980  -15.1692 C   0  0  0  0  0  0  0  0  0  0  0  0
   24.5159  -22.4052  -15.0603 C   0  0  0  0  0  0  0  0  0  0  0  0
   24.0985  -21.1789  -14.2499 C   0  0  2  0  0  0  0  0  0  0  0  0
   24.3155  -21.4371  -12.8548 N   0  0  0  0  0  0  0  0  0  0  0  0
   22.6276  -21.0241  -14.4880 C   0  0  0  0  0  0  0  0  0  0  0  0
   21.8110  -21.6289  -13.7522 O   0  0  0  0  0  0  0  0  0  0  0  0
   23.5976  -24.9782  -18.4021 N   0  0  0  0  0  0  0  0  0  0  0  0
   22.1108  -20.2131  -15.5221 C   0  0  2  0  0  0  0  0  0  0  0  0
   21.0223  -19.3185  -15.2404 C   0  0  0  0  0  0  0  0  0  0  0  0
   21.3966  -18.2781  -14.1994 C   0  0  0  0  0  0  0  0  0  0  0  0
   20.2063  -17.4490  -13.9596 C   0  0  0  0  0  0  0  0  0  0  0  0
   19.0127  -17.8901  -13.4645 N   0  0  0  0  0  0  0  0  0  0  0  0
   18.1617  -16.8345  -13.3860 C   0  0  0  0  0  0  0  0  0  0  0  0
   18.8420  -15.7603  -13.8331 N   0  0  0  0  0  0  0  0  0  0  0  0
   20.0995  -16.1416  -14.1852 C   0  0  0  0  0  0  0  0  0  0  0  0
   20.5706  -18.5854  -16.4576 O   0  0  0  0  0  0  0  0  0  0  0  0
   21.4275  -18.1179  -17.2240 O   0  0  0  0  0  0  0  0  0  0  0  0
  2  1  1  1
  3  2  1  0
  3  4  1  0
  5  2  1  0
  5  6  2  0
  7  8  1  0
  8  9  2  0
 10  8  1  0
 10 11  1  0
 11 12  1  0
 14 13  1  6
 13 12  1  0
 14 15  1  0
 15  5  1  0
 16 14  1  0
 17 16  2  0
 18 16  1  0
 19 20  1  6
 19 18  1  0
 21 22  2  0
 21 20  1  0
 23 22  1  0
 24 25  2  0
 24 23  1  0
 25 21  1  0
 26 19  1  0
 27 26  2  0
 28 26  1  0
M  END
$$$$
