CRH.pdb
     RDKit          3D

 28 28  0  0  1  0  0  0  0  0999 V2000
   27.8155  -19.3023  -19.2770 N   0  0  0  0  0  0  0  0  0  0  0  0
   27.3127  -18.5123  -18.1884 C   0  0  1  0  0  0  0  0  0  0  0  0
   26.6204  -17.2594  -18.6974 C   0  0  0  0  0  0  0  0  0  0  0  0
   27.7855  -16.1517  -19.5050 S   0  0  0  0  0  0  0  0  0  0  0  0
   26.3856  -19.2949  -17.3161 C   0  0  0  0  0  0  0  0  0  0  0  0
   25.5430  -20.0834  -17.8148 O   0  0  0  0  0  0  0  0  0  0  0  0
   26.3143  -20.4794   -8.4107 N   0  0  0  0  0  0  0  0  0  0  0  0
   25.1292  -21.0233   -8.9953 C   0  0  0  0  0  0  0  0  0  0  0  0
   24.0776  -21.2186   -8.3098 N   0  0  0  0  0  0  0  0  0  0  0  0
   25.1501  -21.3465  -10.3824 N   0  0  0  0  0  0  0  0  0  0  0  0
   25.9394  -20.5660  -11.2832 C   0  0  0  0  0  0  0  0  0  0  0  0
   25.2944  -20.5841  -12.6522 C   0  0  0  0  0  0  0  0  0  0  0  0
   26.1917  -19.7891  -13.5759 C   0  0  0  0  0  0  0  0  0  0  0  0
   25.5980  -19.8604  -14.9820 C   0  0  2  0  0  0  0  0  0  0  0  0
   26.4510  -19.1511  -15.8927 N   0  0  0  0  0  0  0  0  0  0  0  0
   24.2838  -19.1462  -14.8977 C   0  0  0  0  0  0  0  0  0  0  0  0
   24.2542  -17.9327  -14.5807 O   0  0  0  0  0  0  0  0  0  0  0  0
   23.2271  -21.6275   -8.7260 N   0  0  0  0  0  0  0  0  0  0  0  0
   23.0555  -19.7901  -15.1639 C   0  0  2  0  0  0  0  0  0  0  0  0
   21.8288  -19.0544  -15.0277 C   0  0  0  0  0  0  0  0  0  0  0  0
   20.9830  -19.1215  -16.2873 C   0  0  0  0  0  0  0  0  0  0  0  0
   21.6431  -18.2895  -17.3041 C   0  0  0  0  0  0  0  0  0  0  0  0
   22.7194  -17.4760  -17.0941 N   0  0  0  0  0  0  0  0  0  0  0  0
   23.0402  -16.8735  -18.2683 C   0  0  0  0  0  0  0  0  0  0  0  0
   22.1587  -17.3236  -19.1830 N   0  0  0  0  0  0  0  0  0  0  0  0
   21.3004  -18.1946  -18.5868 C   0  0  0  0  0  0  0  0  0  0  0  0
   20.9920  -19.5641  -13.9040 O   0  0  0  0  0  0  0  0  0  0  0  0
   21.1489  -20.7364  -13.5281 O   0  0  0  0  0  0  0  0  0  0  0  0
  2  1  1  6
  3  2  1  0
  3  4  1  0
  5  2  1  0
  5  6  2  0
  7  8  1  0
  8  9  2  0
 10  8  1  0
 10 11  1  0
 11 12  1  0
 14 13  1  1
 13 12  1  0
 14 15  1  0
 15  5  1  0
 16 14  1  0
 17 16  2  0
 18 16  1  0
 19 20  1  6
 19 18  1  0
 21 22  2  0
 21 20  1  0
 23 22  1  0
 24 25  2  0
 24 23  1  0
 25 21  1  0
 26 19  1  0
 27 26  2  0
 28 26  1  0
M  END
$$$$
