CRH.pdb
     RDKit          3D

 28 28  0  0  1  0  0  0  0  0999 V2000
   26.1191  -14.3106  -19.2909 N   0  0  0  0  0  0  0  0  0  0  0  0
   25.8529  -14.3324  -17.8800 C   0  0  1  0  0  0  0  0  0  0  0  0
   24.7883  -13.3140  -17.5096 C   0  0  0  0  0  0  0  0  0  0  0  0
   23.1377  -13.9363  -17.8631 S   0  0  0  0  0  0  0  0  0  0  0  0
   25.4495  -15.6930  -17.4120 C   0  0  0  0  0  0  0  0  0  0  0  0
   24.6910  -16.4152  -18.1073 O   0  0  0  0  0  0  0  0  0  0  0  0
   25.9753  -20.1742  -10.5263 N   0  0  0  0  0  0  0  0  0  0  0  0
   26.1053  -21.1940  -11.5190 C   0  0  0  0  0  0  0  0  0  0  0  0
   25.4312  -22.2692  -11.4616 N   0  0  0  0  0  0  0  0  0  0  0  0
   27.0188  -20.9779  -12.5904 N   0  0  0  0  0  0  0  0  0  0  0  0
   27.2832  -19.6478  -13.0429 C   0  0  0  0  0  0  0  0  0  0  0  0
   26.2165  -19.2400  -14.0362 C   0  0  0  0  0  0  0  0  0  0  0  0
   26.5801  -17.8583  -14.5352 C   0  0  0  0  0  0  0  0  0  0  0  0
   25.5792  -17.4748  -15.6241 C   0  0  2  0  0  0  0  0  0  0  0  0
   25.9284  -16.1885  -16.1565 N   0  0  0  0  0  0  0  0  0  0  0  0
   24.2559  -17.3659  -14.9304 C   0  0  0  0  0  0  0  0  0  0  0  0
   24.0274  -16.3903  -14.1755 O   0  0  0  0  0  0  0  0  0  0  0  0
   25.5210  -23.0045  -12.1792 N   0  0  0  0  0  0  0  0  0  0  0  0
   23.2366  -18.3299  -15.0918 C   0  0  2  0  0  0  0  0  0  0  0  0
   21.9298  -18.0724  -14.5527 C   0  0  0  0  0  0  0  0  0  0  0  0
   21.3385  -16.7802  -15.0888 C   0  0  0  0  0  0  0  0  0  0  0  0
   20.0630  -16.5589  -14.3918 C   0  0  0  0  0  0  0  0  0  0  0  0
   19.8118  -16.8379  -13.0790 N   0  0  0  0  0  0  0  0  0  0  0  0
   18.5259  -16.4976  -12.8042 C   0  0  0  0  0  0  0  0  0  0  0  0
   18.0045  -16.0148  -13.9494 N   0  0  0  0  0  0  0  0  0  0  0  0
   18.9526  -16.0538  -14.9243 C   0  0  0  0  0  0  0  0  0  0  0  0
   20.9675  -19.1658  -14.8706 O   0  0  0  0  0  0  0  0  0  0  0  0
   19.8309  -19.1225  -14.3742 O   0  0  0  0  0  0  0  0  0  0  0  0
  2  1  1  6
  3  2  1  0
  3  4  1  0
  5  2  1  0
  5  6  2  0
  7  8  1  0
  8  9  2  0
 10  8  1  0
 10 11  1  0
 11 12  1  0
 14 13  1  1
 13 12  1  0
 14 15  1  0
 15  5  1  0
 16 14  1  0
 17 16  2  0
 18 16  1  0
 19 20  1  6
 19 18  1  0
 21 22  2  0
 21 20  1  0
 23 22  1  0
 24 25  2  0
 24 23  1  0
 25 21  1  0
 26 19  1  0
 27 26  2  0
 28 26  1  0
M  END
$$$$
