CRH.pdb
     RDKit          3D

 28 28  0  0  1  0  0  0  0  0999 V2000
   26.0395  -20.3665   -8.7351 N   0  0  0  0  0  0  0  0  0  0  0  0
   24.9318  -20.6799   -9.5933 C   0  0  1  0  0  0  0  0  0  0  0  0
   23.6460  -20.0600   -9.0733 C   0  0  0  0  0  0  0  0  0  0  0  0
   23.1550  -20.7928   -7.5054 S   0  0  0  0  0  0  0  0  0  0  0  0
   25.1802  -20.2462  -11.0016 C   0  0  0  0  0  0  0  0  0  0  0  0
   25.7397  -19.1479  -11.2485 O   0  0  0  0  0  0  0  0  0  0  0  0
   29.4352  -23.5533  -17.4112 N   0  0  0  0  0  0  0  0  0  0  0  0
   28.8178  -22.4238  -18.0318 C   0  0  0  0  0  0  0  0  0  0  0  0
   29.1790  -22.0136  -19.1786 N   0  0  0  0  0  0  0  0  0  0  0  0
   27.7733  -21.7571  -17.3291 N   0  0  0  0  0  0  0  0  0  0  0  0
   27.4371  -22.1637  -16.0004 C   0  0  0  0  0  0  0  0  0  0  0  0
   26.3380  -21.2684  -15.4703 C   0  0  0  0  0  0  0  0  0  0  0  0
   26.0903  -21.6736  -14.0333 C   0  0  0  0  0  0  0  0  0  0  0  0
   25.0024  -20.7606  -13.4697 C   0  0  2  0  0  0  0  0  0  0  0  0
   24.7790  -21.0862  -12.0898 N   0  0  0  0  0  0  0  0  0  0  0  0
   23.7645  -21.0861  -14.2481 C   0  0  0  0  0  0  0  0  0  0  0  0
   23.0819  -22.0924  -13.9393 O   0  0  0  0  0  0  0  0  0  0  0  0
   28.7490  -21.1860  -19.6187 N   0  0  0  0  0  0  0  0  0  0  0  0
   23.3245  -20.2962  -15.3329 C   0  0  2  0  0  0  0  0  0  0  0  0
   22.0826  -19.5813  -15.2274 C   0  0  0  0  0  0  0  0  0  0  0  0
   22.0915  -18.5939  -14.0734 C   0  0  0  0  0  0  0  0  0  0  0  0
   20.7875  -17.9147  -14.0669 C   0  0  0  0  0  0  0  0  0  0  0  0
   19.6704  -18.3249  -14.7363 N   0  0  0  0  0  0  0  0  0  0  0  0
   18.6690  -17.4421  -14.4859 C   0  0  0  0  0  0  0  0  0  0  0  0
   19.1827  -16.5025  -13.6675 N   0  0  0  0  0  0  0  0  0  0  0  0
   20.4862  -16.7960  -13.4116 C   0  0  0  0  0  0  0  0  0  0  0  0
   21.7721  -18.8125  -16.4665 O   0  0  0  0  0  0  0  0  0  0  0  0
   22.6839  -18.1751  -17.0166 O   0  0  0  0  0  0  0  0  0  0  0  0
  2  1  1  1
  3  2  1  0
  3  4  1  0
  5  2  1  0
  5  6  2  0
  7  8  1  0
  8  9  2  0
 10  8  1  0
 10 11  1  0
 11 12  1  0
 14 13  1  6
 13 12  1  0
 14 15  1  0
 15  5  1  0
 16 14  1  0
 17 16  2  0
 18 16  1  0
 19 20  1  1
 19 18  1  0
 21 22  2  0
 21 20  1  0
 23 22  1  0
 24 25  2  0
 24 23  1  0
 25 21  1  0
 26 19  1  0
 27 26  2  0
 28 26  1  0
M  END
$$$$
