CRH.pdb
     RDKit          3D

 28 28  0  0  1  0  0  0  0  0999 V2000
   21.6410  -21.1759  -13.9336 N   0  0  0  0  0  0  0  0  0  0  0  0
   21.7338  -20.1817  -14.9655 C   0  0  1  0  0  0  0  0  0  0  0  0
   20.3932  -19.5044  -15.1931 C   0  0  0  0  0  0  0  0  0  0  0  0
   19.1689  -20.6696  -15.8096 S   0  0  0  0  0  0  0  0  0  0  0  0
   22.7817  -19.1609  -14.6606 C   0  0  0  0  0  0  0  0  0  0  0  0
   22.9524  -18.7431  -13.4872 O   0  0  0  0  0  0  0  0  0  0  0  0
   25.8537  -21.8596  -12.2304 N   0  0  0  0  0  0  0  0  0  0  0  0
   26.1255  -20.8142  -11.2948 C   0  0  0  0  0  0  0  0  0  0  0  0
   25.5570  -20.7720  -10.1594 N   0  0  0  0  0  0  0  0  0  0  0  0
   27.0605  -19.8055  -11.6654 N   0  0  0  0  0  0  0  0  0  0  0  0
   27.2721  -19.5042  -13.0468 C   0  0  0  0  0  0  0  0  0  0  0  0
   26.1826  -18.5680  -13.5233 C   0  0  0  0  0  0  0  0  0  0  0  0
   25.8870  -18.9279  -14.9633 C   0  0  0  0  0  0  0  0  0  0  0  0
   24.8389  -17.9467  -15.4861 C   0  0  2  0  0  0  0  0  0  0  0  0
   23.6063  -18.6464  -15.7123 N   0  0  0  0  0  0  0  0  0  0  0  0
   25.3662  -17.4620  -16.8019 C   0  0  0  0  0  0  0  0  0  0  0  0
   25.3248  -18.2150  -17.8044 O   0  0  0  0  0  0  0  0  0  0  0  0
   25.7970  -20.0538   -9.4592 N   0  0  0  0  0  0  0  0  0  0  0  0
   25.9174  -16.1722  -16.9661 C   0  0  1  0  0  0  0  0  0  0  0  0
   25.5630  -15.3951  -18.1215 C   0  0  0  0  0  0  0  0  0  0  0  0
   24.0613  -15.1987  -18.2355 C   0  0  0  0  0  0  0  0  0  0  0  0
   23.8078  -14.4674  -19.4856 C   0  0  0  0  0  0  0  0  0  0  0  0
   23.6469  -15.0283  -20.7200 N   0  0  0  0  0  0  0  0  0  0  0  0
   23.4321  -14.0346  -21.6206 C   0  0  0  0  0  0  0  0  0  0  0  0
   23.4637  -12.8781  -20.9294 N   0  0  0  0  0  0  0  0  0  0  0  0
   23.6951  -13.1476  -19.6162 C   0  0  0  0  0  0  0  0  0  0  0  0
   26.1868  -14.0412  -18.0986 O   0  0  0  0  0  0  0  0  0  0  0  0
   26.1586  -13.3898  -17.0427 O   0  0  0  0  0  0  0  0  0  0  0  0
  2  1  1  1
  3  2  1  0
  3  4  1  0
  5  2  1  0
  5  6  2  0
  7  8  1  0
  8  9  2  0
 10  8  1  0
 10 11  1  0
 11 12  1  0
 14 13  1  6
 13 12  1  0
 14 15  1  0
 15  5  1  0
 16 14  1  0
 17 16  2  0
 18 16  1  0
 19 20  1  6
 19 18  1  0
 21 22  2  0
 21 20  1  0
 23 22  1  0
 24 25  2  0
 24 23  1  0
 25 21  1  0
 26 19  1  0
 27 26  2  0
 28 26  1  0
M  END
$$$$
