CRH.pdb
     RDKit          3D

 28 28  0  0  1  0  0  0  0  0999 V2000
   27.5706  -16.8130  -19.6786 N   0  0  0  0  0  0  0  0  0  0  0  0
   26.8748  -16.8538  -18.4231 C   0  0  1  0  0  0  0  0  0  0  0  0
   25.6971  -15.8942  -18.4204 C   0  0  0  0  0  0  0  0  0  0  0  0
   26.2375  -14.1962  -18.6679 S   0  0  0  0  0  0  0  0  0  0  0  0
   26.4145  -18.2354  -18.0879 C   0  0  0  0  0  0  0  0  0  0  0  0
   25.6295  -18.8557  -18.8490 O   0  0  0  0  0  0  0  0  0  0  0  0
   31.5783  -24.1583  -15.1063 N   0  0  0  0  0  0  0  0  0  0  0  0
   31.0078  -24.4450  -16.3848 C   0  0  0  0  0  0  0  0  0  0  0  0
   31.3735  -25.4527  -17.0665 N   0  0  0  0  0  0  0  0  0  0  0  0
   30.0058  -23.5660  -16.8871 N   0  0  0  0  0  0  0  0  0  0  0  0
   29.3279  -22.6765  -15.9966 C   0  0  0  0  0  0  0  0  0  0  0  0
   28.3989  -21.7874  -16.7947 C   0  0  0  0  0  0  0  0  0  0  0  0
   27.7203  -20.8586  -15.8112 C   0  0  0  0  0  0  0  0  0  0  0  0
   26.5298  -20.2142  -16.5198 C   0  0  2  0  0  0  0  0  0  0  0  0
   26.8685  -18.8685  -16.8862 N   0  0  0  0  0  0  0  0  0  0  0  0
   25.4320  -20.1744  -15.5013 C   0  0  0  0  0  0  0  0  0  0  0  0
   25.5439  -19.4345  -14.4943 O   0  0  0  0  0  0  0  0  0  0  0  0
   30.9659  -25.6586  -17.9912 N   0  0  0  0  0  0  0  0  0  0  0  0
   24.2563  -20.9465  -15.6269 C   0  0  2  0  0  0  0  0  0  0  0  0
   23.0191  -20.4391  -15.1012 C   0  0  0  0  0  0  0  0  0  0  0  0
   22.6729  -19.0771  -15.6772 C   0  0  0  0  0  0  0  0  0  0  0  0
   21.4014  -18.6547  -15.0717 C   0  0  0  0  0  0  0  0  0  0  0  0
   20.6899  -19.3541  -14.1395 N   0  0  0  0  0  0  0  0  0  0  0  0
   19.5758  -18.6437  -13.8252 C   0  0  0  0  0  0  0  0  0  0  0  0
   19.6168  -17.5192  -14.5669 N   0  0  0  0  0  0  0  0  0  0  0  0
   20.7411  -17.5289  -15.3328 C   0  0  0  0  0  0  0  0  0  0  0  0
   21.8730  -21.3475  -15.3911 O   0  0  0  0  0  0  0  0  0  0  0  0
   22.0194  -22.2386  -16.2423 O   0  0  0  0  0  0  0  0  0  0  0  0
  2  1  1  6
  3  2  1  0
  3  4  1  0
  5  2  1  0
  5  6  2  0
  7  8  1  0
  8  9  2  0
 10  8  1  0
 10 11  1  0
 11 12  1  0
 14 13  1  1
 13 12  1  0
 14 15  1  0
 15  5  1  0
 16 14  1  0
 17 16  2  0
 18 16  1  0
 19 20  1  1
 19 18  1  0
 21 22  2  0
 21 20  1  0
 23 22  1  0
 24 25  2  0
 24 23  1  0
 25 21  1  0
 26 19  1  0
 27 26  2  0
 28 26  1  0
M  END
$$$$
