CRH.pdb
     RDKit          3D

 28 28  0  0  1  0  0  0  0  0999 V2000
   19.8058  -21.2035  -13.6277 N   0  0  0  0  0  0  0  0  0  0  0  0
   20.7389  -20.1335  -13.4122 C   0  0  1  0  0  0  0  0  0  0  0  0
   21.5108  -20.3345  -12.1193 C   0  0  0  0  0  0  0  0  0  0  0  0
   22.2754  -21.9620  -12.0613 S   0  0  0  0  0  0  0  0  0  0  0  0
   21.6849  -19.9821  -14.5590 C   0  0  0  0  0  0  0  0  0  0  0  0
   22.0189  -20.9748  -15.2543 O   0  0  0  0  0  0  0  0  0  0  0  0
   21.7761  -13.1830  -14.8586 N   0  0  0  0  0  0  0  0  0  0  0  0
   23.0957  -13.6133  -15.1989 C   0  0  0  0  0  0  0  0  0  0  0  0
   24.1114  -13.2339  -14.5370 N   0  0  0  0  0  0  0  0  0  0  0  0
   23.2521  -14.4894  -16.3112 N   0  0  0  0  0  0  0  0  0  0  0  0
   22.0993  -14.9652  -17.0100 C   0  0  0  0  0  0  0  0  0  0  0  0
   21.9322  -16.4454  -16.7424 C   0  0  0  0  0  0  0  0  0  0  0  0
   23.2509  -16.9491  -16.1968 C   0  0  0  0  0  0  0  0  0  0  0  0
   23.1204  -18.4547  -15.9711 C   0  0  2  0  0  0  0  0  0  0  0  0
   22.2227  -18.6935  -14.8770 N   0  0  0  0  0  0  0  0  0  0  0  0
   24.4897  -18.9207  -15.5812 C   0  0  0  0  0  0  0  0  0  0  0  0
   24.7743  -19.0705  -14.3686 O   0  0  0  0  0  0  0  0  0  0  0  0
   25.0621  -13.5601  -14.7681 N   0  0  0  0  0  0  0  0  0  0  0  0
   25.4917  -19.2036  -16.5353 C   0  0  1  0  0  0  0  0  0  0  0  0
   26.5627  -20.0971  -16.1902 C   0  0  0  0  0  0  0  0  0  0  0  0
   26.0623  -21.5044  -15.9148 C   0  0  0  0  0  0  0  0  0  0  0  0
   26.0442  -21.6861  -14.4558 C   0  0  0  0  0  0  0  0  0  0  0  0
   26.3116  -20.7209  -13.5278 N   0  0  0  0  0  0  0  0  0  0  0  0
   26.1951  -21.2684  -12.2903 C   0  0  0  0  0  0  0  0  0  0  0  0
   25.8583  -22.5605  -12.4735 N   0  0  0  0  0  0  0  0  0  0  0  0
   25.7663  -22.8144  -13.8068 C   0  0  0  0  0  0  0  0  0  0  0  0
   27.5827  -20.1933  -17.2734 O   0  0  0  0  0  0  0  0  0  0  0  0
   27.2027  -20.1613  -18.4544 O   0  0  0  0  0  0  0  0  0  0  0  0
  2  1  1  6
  3  2  1  0
  3  4  1  0
  5  2  1  0
  5  6  2  0
  7  8  1  0
  8  9  2  0
 10  8  1  0
 10 11  1  0
 11 12  1  0
 14 13  1  1
 13 12  1  0
 14 15  1  0
 15  5  1  0
 16 14  1  0
 17 16  2  0
 18 16  1  0
 19 20  1  6
 19 18  1  0
 21 22  2  0
 21 20  1  0
 23 22  1  0
 24 25  2  0
 24 23  1  0
 25 21  1  0
 26 19  1  0
 27 26  2  0
 28 26  1  0
M  END
$$$$
