ICE.pdb
     RDKit          3D

 24 23  0  0  1  0  0  0  0  0999 V2000
    7.3569  -11.9729   27.5774 C   0  0  0  0  0  0  0  0  0  0  0  0
    6.5971  -13.0792   26.9239 C   0  0  0  0  0  0  0  0  0  0  0  0
    7.4581  -13.8953   25.9639 C   0  0  2  0  0  0  0  0  0  0  0  0
    7.9767  -13.0592   24.8353 C   0  0  0  0  0  0  0  0  0  0  0  0
    6.5658  -14.9870   25.4151 C   0  0  2  0  0  0  0  0  0  0  0  0
    6.0721  -15.8560   26.4561 N   0  0  0  0  0  0  0  0  0  0  0  0
    7.2468  -15.7968   24.3717 C   0  0  0  0  0  0  0  0  0  0  0  0
    7.8206  -16.8541   24.7387 O   0  0  0  0  0  0  0  0  0  0  0  0
    7.2369  -15.3737   23.0190 N   0  0  0  0  0  0  0  0  0  0  0  0
    8.0305  -16.1515   22.0427 C   0  0  1  0  0  0  0  0  0  0  0  0
    7.6511  -15.6168   20.6511 C   0  0  0  0  0  0  0  0  0  0  0  0
    5.9561  -16.0253   20.2069 S   0  0  0  0  0  0  0  0  0  0  0  0
    9.4632  -15.8812   22.2306 C   0  0  0  0  0  0  0  0  0  0  0  0
    9.8723  -14.6736   22.1016 O   0  0  0  0  0  0  0  0  0  0  0  0
   10.4394  -16.8262   22.5431 N   0  0  0  0  0  0  0  0  0  0  0  0
   11.8598  -16.4889   22.7268 C   0  0  1  0  0  0  0  0  0  0  0  0
   12.2465  -16.8556   24.1341 C   0  0  0  0  0  0  0  0  0  0  0  0
   11.9984  -18.2958   24.4003 C   0  0  0  0  0  0  0  0  0  0  0  0
   12.5119  -18.7043   25.7544 C   0  0  0  0  0  0  0  0  0  0  0  0
   13.2348  -17.9133   26.3771 O   0  0  0  0  0  0  0  0  0  0  0  0
   12.6937  -17.2513   21.7738 C   0  0  0  0  0  0  0  0  0  0  0  0
   12.2980  -18.3171   21.0119 O   0  0  0  0  0  0  0  0  0  0  0  0
   12.1780  -19.9232   26.2687 O   0  0  0  0  0  0  0  0  0  0  0  0
   13.9164  -16.8543   21.6699 O   0  0  0  0  0  0  0  0  0  0  0  0
  2  1  1  0
  3  5  1  0
  3  2  1  0
  3  4  1  6
  5  6  1  1
  5  7  1  0
  7  8  2  0
  9  7  1  0
  9 10  1  0
 10 13  1  0
 10 11  1  6
 12 11  1  0
 13 14  2  0
 15 13  1  0
 15 16  1  0
 16 21  1  0
 16 17  1  1
 18 17  1  0
 19 20  2  0
 19 18  1  0
 21 22  1  0
 23 19  1  0
 24 21  2  0
M  END
$$$$
