ICE.pdb
     RDKit          3D

 24 23  0  0  1  0  0  0  0  0999 V2000
    7.1258  -12.4690   18.2802 C   0  0  0  0  0  0  0  0  0  0  0  0
    6.9103  -13.6169   19.2098 C   0  0  0  0  0  0  0  0  0  0  0  0
    7.4879  -13.3629   20.5994 C   0  0  2  0  0  0  0  0  0  0  0  0
    8.9704  -13.1575   20.5556 C   0  0  0  0  0  0  0  0  0  0  0  0
    7.1727  -14.5927   21.4226 C   0  0  2  0  0  0  0  0  0  0  0  0
    5.7669  -14.9175   21.3926 N   0  0  0  0  0  0  0  0  0  0  0  0
    7.6219  -14.4547   22.8323 C   0  0  0  0  0  0  0  0  0  0  0  0
    7.1319  -13.5148   23.5093 O   0  0  0  0  0  0  0  0  0  0  0  0
    8.5686  -15.3604   23.3727 N   0  0  0  0  0  0  0  0  0  0  0  0
    9.1544  -15.0460   24.6939 C   0  0  1  0  0  0  0  0  0  0  0  0
    7.9778  -14.9615   25.6812 C   0  0  0  0  0  0  0  0  0  0  0  0
    8.3333  -13.8722   27.0683 S   0  0  0  0  0  0  0  0  0  0  0  0
   10.0110  -16.1540   25.1405 C   0  0  0  0  0  0  0  0  0  0  0  0
    9.5428  -17.3451   25.0723 O   0  0  0  0  0  0  0  0  0  0  0  0
   11.3077  -16.0356   25.6387 N   0  0  0  0  0  0  0  0  0  0  0  0
   12.2667  -17.1511   25.6664 C   0  0  1  0  0  0  0  0  0  0  0  0
   13.6322  -16.5982   25.3594 C   0  0  0  0  0  0  0  0  0  0  0  0
   13.9890  -16.8116   23.9333 C   0  0  0  0  0  0  0  0  0  0  0  0
   15.3521  -16.2592   23.6157 C   0  0  0  0  0  0  0  0  0  0  0  0
   16.0004  -15.7224   24.5254 O   0  0  0  0  0  0  0  0  0  0  0  0
   12.2809  -17.7802   27.0038 C   0  0  0  0  0  0  0  0  0  0  0  0
   12.8368  -18.9863   27.3343 O   0  0  0  0  0  0  0  0  0  0  0  0
   15.8464  -16.3566   22.3476 O   0  0  0  0  0  0  0  0  0  0  0  0
   11.7009  -17.1054   27.9374 O   0  0  0  0  0  0  0  0  0  0  0  0
  2  1  1  0
  3  5  1  0
  3  2  1  0
  3  4  1  6
  5  6  1  1
  5  7  1  0
  7  8  2  0
  9  7  1  0
  9 10  1  0
 10 13  1  0
 10 11  1  1
 12 11  1  0
 13 14  2  0
 15 13  1  0
 15 16  1  0
 16 21  1  0
 16 17  1  1
 18 17  1  0
 19 20  2  0
 19 18  1  0
 21 22  1  0
 23 19  1  0
 24 21  2  0
M  END
$$$$
