ICE.pdb
     RDKit          3D

 24 23  0  0  1  0  0  0  0  0999 V2000
    7.1418  -12.3658   18.4874 C   0  0  0  0  0  0  0  0  0  0  0  0
    7.3041  -13.6563   19.2197 C   0  0  0  0  0  0  0  0  0  0  0  0
    7.9137  -13.4715   20.6066 C   0  0  2  0  0  0  0  0  0  0  0  0
    9.3167  -12.9540   20.5321 C   0  0  0  0  0  0  0  0  0  0  0  0
    7.9132  -14.8375   21.2573 C   0  0  2  0  0  0  0  0  0  0  0  0
    6.5809  -15.3793   21.3756 N   0  0  0  0  0  0  0  0  0  0  0  0
    8.5655  -14.8234   22.5923 C   0  0  0  0  0  0  0  0  0  0  0  0
    9.8167  -14.6997   22.6267 O   0  0  0  0  0  0  0  0  0  0  0  0
    7.7864  -14.9462   23.7698 N   0  0  0  0  0  0  0  0  0  0  0  0
    8.4942  -15.0068   25.0672 C   0  0  1  0  0  0  0  0  0  0  0  0
    7.4782  -14.5701   26.1365 C   0  0  0  0  0  0  0  0  0  0  0  0
    5.8657  -15.3289   25.8898 S   0  0  0  0  0  0  0  0  0  0  0  0
    8.8677  -16.3956   25.3716 C   0  0  0  0  0  0  0  0  0  0  0  0
    8.2090  -17.3368   24.8036 O   0  0  0  0  0  0  0  0  0  0  0  0
    9.8883  -16.7981   26.2319 N   0  0  0  0  0  0  0  0  0  0  0  0
   10.6021  -18.0773   26.0946 C   0  0  1  0  0  0  0  0  0  0  0  0
   11.6516  -17.9121   25.0288 C   0  0  0  0  0  0  0  0  0  0  0  0
   12.4523  -19.1529   24.8678 C   0  0  0  0  0  0  0  0  0  0  0  0
   13.5409  -18.9795   23.8435 C   0  0  0  0  0  0  0  0  0  0  0  0
   13.9906  -17.8420   23.6438 O   0  0  0  0  0  0  0  0  0  0  0  0
   11.2520  -18.4398   27.3717 C   0  0  0  0  0  0  0  0  0  0  0  0
   11.7668  -19.6623   27.7091 O   0  0  0  0  0  0  0  0  0  0  0  0
   14.0096  -20.0633   23.1597 O   0  0  0  0  0  0  0  0  0  0  0  0
   11.3265  -17.4911   28.2421 O   0  0  0  0  0  0  0  0  0  0  0  0
  2  1  1  0
  3  5  1  0
  3  2  1  0
  3  4  1  6
  5  6  1  1
  5  7  1  0
  7  8  2  0
  9  7  1  0
  9 10  1  0
 10 13  1  0
 10 11  1  1
 12 11  1  0
 13 14  2  0
 15 13  1  0
 15 16  1  0
 16 21  1  0
 16 17  1  6
 18 17  1  0
 19 20  2  0
 19 18  1  0
 21 22  1  0
 23 19  1  0
 24 21  2  0
M  END
$$$$
