ICE.pdb
     RDKit          3D

 24 23  0  0  1  0  0  0  0  0999 V2000
    6.1505  -11.5974   27.0238 C   0  0  0  0  0  0  0  0  0  0  0  0
    5.8051  -12.8857   26.3536 C   0  0  0  0  0  0  0  0  0  0  0  0
    7.0371  -13.6397   25.8610 C   0  0  2  0  0  0  0  0  0  0  0  0
    7.8276  -12.8310   24.8797 C   0  0  0  0  0  0  0  0  0  0  0  0
    6.5269  -14.8944   25.1866 C   0  0  2  0  0  0  0  0  0  0  0  0
    5.7895  -15.7361   26.0977 N   0  0  0  0  0  0  0  0  0  0  0  0
    7.6217  -15.6789   24.5589 C   0  0  0  0  0  0  0  0  0  0  0  0
    8.1899  -16.5515   25.2642 O   0  0  0  0  0  0  0  0  0  0  0  0
    7.9949  -15.4355   23.2134 N   0  0  0  0  0  0  0  0  0  0  0  0
    9.0492  -16.2869   22.6207 C   0  0  1  0  0  0  0  0  0  0  0  0
    9.0555  -15.9829   21.1127 C   0  0  0  0  0  0  0  0  0  0  0  0
    8.9945  -17.4813   20.1187 S   0  0  0  0  0  0  0  0  0  0  0  0
   10.3656  -15.8939   23.1435 C   0  0  0  0  0  0  0  0  0  0  0  0
   10.5054  -14.7028   23.5951 O   0  0  0  0  0  0  0  0  0  0  0  0
   11.4984  -16.7048   23.1996 N   0  0  0  0  0  0  0  0  0  0  0  0
   12.4488  -16.6871   24.3227 C   0  0  1  0  0  0  0  0  0  0  0  0
   11.6998  -17.0669   25.5715 C   0  0  0  0  0  0  0  0  0  0  0  0
   12.6183  -17.1824   26.7332 C   0  0  0  0  0  0  0  0  0  0  0  0
   11.8626  -17.4001   28.0161 C   0  0  0  0  0  0  0  0  0  0  0  0
   11.8820  -18.5272   28.5311 O   0  0  0  0  0  0  0  0  0  0  0  0
   13.5365  -17.6598   24.0873 C   0  0  0  0  0  0  0  0  0  0  0  0
   14.8400  -17.5413   24.4871 O   0  0  0  0  0  0  0  0  0  0  0  0
   11.1767  -16.3665   28.5846 O   0  0  0  0  0  0  0  0  0  0  0  0
   13.1983  -18.7188   23.4335 O   0  0  0  0  0  0  0  0  0  0  0  0
  2  1  1  0
  3  5  1  0
  3  2  1  0
  3  4  1  6
  5  6  1  1
  5  7  1  0
  7  8  2  0
  9  7  1  0
  9 10  1  0
 10 13  1  0
 10 11  1  6
 12 11  1  0
 13 14  2  0
 15 13  1  0
 15 16  1  0
 16 21  1  0
 16 17  1  1
 18 17  1  0
 19 20  2  0
 19 18  1  0
 21 22  1  0
 23 19  1  0
 24 21  2  0
M  END
$$$$
