ICE.pdb
     RDKit          3D

 24 23  0  0  1  0  0  0  0  0999 V2000
    8.1620  -20.9365   17.5629 C   0  0  0  0  0  0  0  0  0  0  0  0
    7.7744  -19.4952   17.5367 C   0  0  0  0  0  0  0  0  0  0  0  0
    8.4272  -18.6916   18.6579 C   0  0  2  0  0  0  0  0  0  0  0  0
    8.0657  -19.2274   20.0084 C   0  0  0  0  0  0  0  0  0  0  0  0
    7.9122  -17.2754   18.5220 C   0  0  2  0  0  0  0  0  0  0  0  0
    8.2095  -16.7140   17.2263 N   0  0  0  0  0  0  0  0  0  0  0  0
    8.4406  -16.3817   19.5851 C   0  0  0  0  0  0  0  0  0  0  0  0
    9.6537  -16.0560   19.5211 O   0  0  0  0  0  0  0  0  0  0  0  0
    7.5903  -15.9255   20.6233 N   0  0  0  0  0  0  0  0  0  0  0  0
    8.1914  -15.1225   21.7103 C   0  0  1  0  0  0  0  0  0  0  0  0
    7.0201  -14.5741   22.5432 C   0  0  0  0  0  0  0  0  0  0  0  0
    7.5805  -13.7519   24.0422 S   0  0  0  0  0  0  0  0  0  0  0  0
    8.9808  -15.9888   22.5976 C   0  0  0  0  0  0  0  0  0  0  0  0
    8.4652  -17.1009   22.9716 O   0  0  0  0  0  0  0  0  0  0  0  0
   10.2600  -15.7162   23.0804 N   0  0  0  0  0  0  0  0  0  0  0  0
   11.0012  -16.6304   23.9634 C   0  0  1  0  0  0  0  0  0  0  0  0
   12.4643  -16.2944   23.8579 C   0  0  0  0  0  0  0  0  0  0  0  0
   13.2899  -17.5241   23.7446 C   0  0  0  0  0  0  0  0  0  0  0  0
   14.7467  -17.1967   23.5579 C   0  0  0  0  0  0  0  0  0  0  0  0
   15.0839  -16.0053   23.5035 O   0  0  0  0  0  0  0  0  0  0  0  0
   10.5580  -16.4605   25.3632 C   0  0  0  0  0  0  0  0  0  0  0  0
   10.7856  -17.3207   26.4031 O   0  0  0  0  0  0  0  0  0  0  0  0
   15.6616  -18.2036   23.4527 O   0  0  0  0  0  0  0  0  0  0  0  0
    9.8873  -15.3854   25.6033 O   0  0  0  0  0  0  0  0  0  0  0  0
  2  1  1  0
  3  5  1  0
  3  2  1  0
  3  4  1  1
  5  6  1  6
  5  7  1  0
  7  8  2  0
  9  7  1  0
  9 10  1  0
 10 13  1  0
 10 11  1  1
 12 11  1  0
 13 14  2  0
 15 13  1  0
 15 16  1  0
 16 21  1  0
 16 17  1  1
 18 17  1  0
 19 20  2  0
 19 18  1  0
 21 22  1  0
 23 19  1  0
 24 21  2  0
M  END
$$$$
