ICE.pdb
     RDKit          3D

 24 23  0  0  1  0  0  0  0  0999 V2000
    6.5872  -11.6927   27.7939 C   0  0  0  0  0  0  0  0  0  0  0  0
    6.0329  -12.9107   27.1325 C   0  0  0  0  0  0  0  0  0  0  0  0
    7.0378  -13.5805   26.1994 C   0  0  2  0  0  0  0  0  0  0  0  0
    7.5263  -12.6400   25.1419 C   0  0  0  0  0  0  0  0  0  0  0  0
    6.3100  -14.7370   25.5497 C   0  0  2  0  0  0  0  0  0  0  0  0
    5.9188  -15.7387   26.5120 N   0  0  0  0  0  0  0  0  0  0  0  0
    7.1120  -15.3696   24.4705 C   0  0  0  0  0  0  0  0  0  0  0  0
    7.8567  -16.3322   24.7876 O   0  0  0  0  0  0  0  0  0  0  0  0
    7.0250  -14.8890   23.1400 N   0  0  0  0  0  0  0  0  0  0  0  0
    7.8182  -15.5789   22.0995 C   0  0  1  0  0  0  0  0  0  0  0  0
    7.6612  -14.7498   20.8133 C   0  0  0  0  0  0  0  0  0  0  0  0
    8.5783  -15.4553   19.4356 S   0  0  0  0  0  0  0  0  0  0  0  0
    9.2443  -15.5534   22.4553 C   0  0  0  0  0  0  0  0  0  0  0  0
    9.6422  -14.6695   23.2936 O   0  0  0  0  0  0  0  0  0  0  0  0
   10.2252  -16.4133   21.9633 N   0  0  0  0  0  0  0  0  0  0  0  0
   11.5633  -16.5382   22.5624 C   0  0  1  0  0  0  0  0  0  0  0  0
   11.4715  -17.5112   23.7067 C   0  0  0  0  0  0  0  0  0  0  0  0
   11.3976  -16.8013   25.0095 C   0  0  0  0  0  0  0  0  0  0  0  0
   11.3384  -17.7664   26.1624 C   0  0  0  0  0  0  0  0  0  0  0  0
   11.3617  -18.9815   25.9196 O   0  0  0  0  0  0  0  0  0  0  0  0
   12.5260  -17.0457   21.5622 C   0  0  0  0  0  0  0  0  0  0  0  0
   12.2313  -17.7613   20.4334 O   0  0  0  0  0  0  0  0  0  0  0  0
   11.2611  -17.2946   27.4404 O   0  0  0  0  0  0  0  0  0  0  0  0
   13.7643  -16.7765   21.8016 O   0  0  0  0  0  0  0  0  0  0  0  0
  2  1  1  0
  3  5  1  0
  3  2  1  0
  3  4  1  6
  5  6  1  1
  5  7  1  0
  7  8  2  0
  9  7  1  0
  9 10  1  0
 10 13  1  0
 10 11  1  6
 12 11  1  0
 13 14  2  0
 15 13  1  0
 15 16  1  0
 16 21  1  0
 16 17  1  1
 18 17  1  0
 19 20  2  0
 19 18  1  0
 21 22  1  0
 23 19  1  0
 24 21  2  0
M  END
$$$$
