ICE.pdb
     RDKit          3D

 24 23  0  0  1  0  0  0  0  0999 V2000
    6.3394  -11.0031   26.9811 C   0  0  0  0  0  0  0  0  0  0  0  0
    5.8551  -12.2793   26.3771 C   0  0  0  0  0  0  0  0  0  0  0  0
    6.9953  -13.1602   25.8741 C   0  0  2  0  0  0  0  0  0  0  0  0
    7.7986  -12.4761   24.8117 C   0  0  0  0  0  0  0  0  0  0  0  0
    6.3514  -14.4027   25.2988 C   0  0  2  0  0  0  0  0  0  0  0  0
    5.5321  -15.0862   26.2704 N   0  0  0  0  0  0  0  0  0  0  0  0
    7.3536  -15.3467   24.7399 C   0  0  0  0  0  0  0  0  0  0  0  0
    7.8503  -16.1975   25.5218 O   0  0  0  0  0  0  0  0  0  0  0  0
    7.7209  -15.2727   23.3730 N   0  0  0  0  0  0  0  0  0  0  0  0
    8.6913  -16.2643   22.8603 C   0  0  1  0  0  0  0  0  0  0  0  0
    8.8421  -15.9856   21.3550 C   0  0  0  0  0  0  0  0  0  0  0  0
    8.9562  -14.2256   20.9995 S   0  0  0  0  0  0  0  0  0  0  0  0
   10.0089  -16.0411   23.4725 C   0  0  0  0  0  0  0  0  0  0  0  0
   10.1150  -15.1230   24.3603 O   0  0  0  0  0  0  0  0  0  0  0  0
   11.1766  -16.7440   23.1788 N   0  0  0  0  0  0  0  0  0  0  0  0
   12.1233  -17.2022   24.2078 C   0  0  1  0  0  0  0  0  0  0  0  0
   11.4257  -18.2307   25.0564 C   0  0  0  0  0  0  0  0  0  0  0  0
   11.1151  -17.6916   26.4053 C   0  0  0  0  0  0  0  0  0  0  0  0
   11.1177  -18.7762   27.4483 C   0  0  0  0  0  0  0  0  0  0  0  0
   11.3236  -19.9440   27.0880 O   0  0  0  0  0  0  0  0  0  0  0  0
   13.3113  -17.8120   23.5743 C   0  0  0  0  0  0  0  0  0  0  0  0
   13.3215  -18.8613   22.6956 O   0  0  0  0  0  0  0  0  0  0  0  0
   10.8962  -18.4609   28.7573 O   0  0  0  0  0  0  0  0  0  0  0  0
   14.4426  -17.2861   23.9015 O   0  0  0  0  0  0  0  0  0  0  0  0
  2  1  1  0
  3  5  1  0
  3  2  1  0
  3  4  1  6
  5  6  1  1
  5  7  1  0
  7  8  2  0
  9  7  1  0
  9 10  1  0
 10 13  1  0
 10 11  1  6
 12 11  1  0
 13 14  2  0
 15 13  1  0
 15 16  1  0
 16 21  1  0
 16 17  1  1
 18 17  1  0
 19 20  2  0
 19 18  1  0
 21 22  1  0
 23 19  1  0
 24 21  2  0
M  END
$$$$
