ICE.pdb
     RDKit          3D

 24 23  0  0  1  0  0  0  0  0999 V2000
    7.2408  -15.5161   17.5450 C   0  0  0  0  0  0  0  0  0  0  0  0
    7.3077  -14.2855   18.3873 C   0  0  0  0  0  0  0  0  0  0  0  0
    7.7330  -14.5796   19.8231 C   0  0  2  0  0  0  0  0  0  0  0  0
    6.7807  -15.5128   20.5044 C   0  0  0  0  0  0  0  0  0  0  0  0
    7.7409  -13.2501   20.5455 C   0  0  2  0  0  0  0  0  0  0  0  0
    8.5962  -12.2867   19.8952 N   0  0  0  0  0  0  0  0  0  0  0  0
    8.1391  -13.3880   21.9704 C   0  0  0  0  0  0  0  0  0  0  0  0
    9.3322  -13.7037   22.2127 O   0  0  0  0  0  0  0  0  0  0  0  0
    7.1924  -13.1671   23.0017 N   0  0  0  0  0  0  0  0  0  0  0  0
    7.6332  -13.3567   24.4008 C   0  0  1  0  0  0  0  0  0  0  0  0
    6.4818  -12.8569   25.2900 C   0  0  0  0  0  0  0  0  0  0  0  0
    6.7198  -13.2964   27.0184 S   0  0  0  0  0  0  0  0  0  0  0  0
    7.8040  -14.7890   24.6842 C   0  0  0  0  0  0  0  0  0  0  0  0
    6.7856  -15.5561   24.5551 O   0  0  0  0  0  0  0  0  0  0  0  0
    8.9873  -15.4077   25.0853 N   0  0  0  0  0  0  0  0  0  0  0  0
    9.0737  -16.8343   25.4350 C   0  0  1  0  0  0  0  0  0  0  0  0
    9.9967  -17.4994   24.4499 C   0  0  0  0  0  0  0  0  0  0  0  0
   11.2290  -16.6961   24.2431 C   0  0  0  0  0  0  0  0  0  0  0  0
   12.0951  -17.2810   23.1606 C   0  0  0  0  0  0  0  0  0  0  0  0
   12.7996  -16.5154   22.4871 O   0  0  0  0  0  0  0  0  0  0  0  0
    9.6157  -16.9940   26.8008 C   0  0  0  0  0  0  0  0  0  0  0  0
    9.9941  -15.9918   27.6526 O   0  0  0  0  0  0  0  0  0  0  0  0
   12.0913  -18.6276   22.9404 O   0  0  0  0  0  0  0  0  0  0  0  0
    9.7379  -18.2118   27.2074 O   0  0  0  0  0  0  0  0  0  0  0  0
  2  1  1  0
  3  5  1  0
  3  2  1  0
  3  4  1  1
  5  6  1  6
  5  7  1  0
  7  8  2  0
  9  7  1  0
  9 10  1  0
 10 13  1  0
 10 11  1  1
 12 11  1  0
 13 14  2  0
 15 13  1  0
 15 16  1  0
 16 21  1  0
 16 17  1  6
 18 17  1  0
 19 20  2  0
 19 18  1  0
 21 22  1  0
 23 19  1  0
 24 21  2  0
M  END
$$$$
