ICE.pdb
     RDKit          3D

 24 23  0  0  1  0  0  0  0  0999 V2000
    6.0765  -17.5864   20.9246 C   0  0  0  0  0  0  0  0  0  0  0  0
    6.2188  -16.1667   21.3630 C   0  0  0  0  0  0  0  0  0  0  0  0
    6.9531  -15.3068   20.3381 C   0  0  2  0  0  0  0  0  0  0  0  0
    8.3180  -15.8442   20.0380 C   0  0  0  0  0  0  0  0  0  0  0  0
    7.0763  -13.9282   20.9492 C   0  0  2  0  0  0  0  0  0  0  0  0
    7.5859  -12.9623   20.0059 N   0  0  0  0  0  0  0  0  0  0  0  0
    7.9251  -13.9288   22.1689 C   0  0  0  0  0  0  0  0  0  0  0  0
    9.1715  -13.8739   22.0099 O   0  0  0  0  0  0  0  0  0  0  0  0
    7.3301  -13.9897   23.4538 N   0  0  0  0  0  0  0  0  0  0  0  0
    8.2161  -13.8941   24.6343 C   0  0  1  0  0  0  0  0  0  0  0  0
    7.3391  -13.3959   25.7958 C   0  0  0  0  0  0  0  0  0  0  0  0
    5.6625  -14.0422   25.7050 S   0  0  0  0  0  0  0  0  0  0  0  0
    8.7033  -15.2301   25.0066 C   0  0  0  0  0  0  0  0  0  0  0  0
    7.8764  -16.2082   24.9647 O   0  0  0  0  0  0  0  0  0  0  0  0
   10.0014  -15.5450   25.4064 N   0  0  0  0  0  0  0  0  0  0  0  0
   10.4165  -16.8985   25.8071 C   0  0  1  0  0  0  0  0  0  0  0  0
   11.8802  -17.0485   25.4912 C   0  0  0  0  0  0  0  0  0  0  0  0
   12.1155  -17.0418   24.0245 C   0  0  0  0  0  0  0  0  0  0  0  0
   13.5155  -16.6024   23.6911 C   0  0  0  0  0  0  0  0  0  0  0  0
   14.3923  -16.7077   24.5607 O   0  0  0  0  0  0  0  0  0  0  0  0
   10.2049  -17.0898   27.2574 C   0  0  0  0  0  0  0  0  0  0  0  0
   10.3778  -18.2497   27.9629 O   0  0  0  0  0  0  0  0  0  0  0  0
   13.7940  -16.1015   22.4528 O   0  0  0  0  0  0  0  0  0  0  0  0
    9.8147  -16.0427   27.9013 O   0  0  0  0  0  0  0  0  0  0  0  0
  2  1  1  0
  3  5  1  0
  3  2  1  0
  3  4  1  1
  5  6  1  6
  5  7  1  0
  7  8  2  0
  9  7  1  0
  9 10  1  0
 10 13  1  0
 10 11  1  1
 12 11  1  0
 13 14  2  0
 15 13  1  0
 15 16  1  0
 16 21  1  0
 16 17  1  1
 18 17  1  0
 19 20  2  0
 19 18  1  0
 21 22  1  0
 23 19  1  0
 24 21  2  0
M  END
$$$$
