NKH.pdb
     RDKit          3D

 28 28  0  0  1  0  0  0  0  0999 V2000
   11.9051  -17.8759   13.5903 N   0  0  0  0  0  0  0  0  0  0  0  0
   10.8457  -17.0157   14.0193 C   0  0  0  0  0  0  0  0  0  0  0  0
   10.0948  -16.5610   13.1375 O   0  0  0  0  0  0  0  0  0  0  0  0
   10.6938  -16.7145   15.4368 C   0  0  0  0  0  0  0  0  0  0  0  0
   11.8541  -17.2215   16.2487 C   0  0  2  0  0  0  0  0  0  0  0  0
   11.7621  -18.7063   16.2144 N   0  0  0  0  0  0  0  0  0  0  0  0
   11.7966  -16.8628   17.6718 C   0  0  0  0  0  0  0  0  0  0  0  0
   12.0171  -15.6580   18.0509 O   0  0  0  0  0  0  0  0  0  0  0  0
   11.4945  -17.7921   18.7250 N   0  0  0  0  0  0  0  0  0  0  0  0
   11.4926  -17.3591   20.0982 C   0  0  1  0  0  0  0  0  0  0  0  0
   10.7579  -18.3489   20.9694 C   0  0  0  0  0  0  0  0  0  0  0  0
   10.7016  -17.9138   22.4126 C   0  0  0  0  0  0  0  0  0  0  0  0
    9.9724  -19.0140   23.1614 C   0  0  0  0  0  0  0  0  0  0  0  0
    9.9382  -18.7392   24.6483 C   0  0  0  0  0  0  0  0  0  0  0  0
    9.2369  -19.8366   25.2803 N   0  0  0  0  0  0  0  0  0  0  0  0
   12.8756  -17.2715   20.6003 C   0  0  0  0  0  0  0  0  0  0  0  0
   13.7261  -18.2001   20.4780 O   0  0  0  0  0  0  0  0  0  0  0  0
   13.2727  -16.0563   21.2676 N   0  0  0  0  0  0  0  0  0  0  0  0
   14.6270  -15.8860   21.6723 C   0  0  1  0  0  0  0  0  0  0  0  0
   14.9826  -14.4281   21.4726 C   0  0  0  0  0  0  0  0  0  0  0  0
   15.1131  -14.0312   20.0685 C   0  0  0  0  0  0  0  0  0  0  0  0
   15.1501  -14.9177   19.0055 C   0  0  0  0  0  0  0  0  0  0  0  0
   15.2743  -14.2041   17.8714 N   0  0  0  0  0  0  0  0  0  0  0  0
   15.3161  -12.8987   18.1990 C   0  0  0  0  0  0  0  0  0  0  0  0
   15.2181  -12.8038   19.5292 N   0  0  0  0  0  0  0  0  0  0  0  0
   14.8109  -16.3096   23.0770 C   0  0  0  0  0  0  0  0  0  0  0  0
   13.7931  -16.5574   23.7638 O   0  0  0  0  0  0  0  0  0  0  0  0
   16.0490  -16.4484   23.6774 O   0  0  0  0  0  0  0  0  0  0  0  0
  1  2  1  0
  2  3  2  0
  4  2  1  0
  4  5  1  0
  5  6  1  1
  7  8  2  0
  7  5  1  0
  9  7  1  0
 10  9  1  0
 10 11  1  1
 11 12  1  0
 13 12  1  0
 14 15  1  0
 14 13  1  0
 16 17  2  0
 16 10  1  0
 18 16  1  0
 19 18  1  0
 19 20  1  1
 20 21  1  0
 21 22  2  0
 21 25  1  0
 22 23  1  0
 24 23  1  0
 25 24  2  0
 26 19  1  0
 27 26  2  0
 28 26  1  0
M  END
$$$$
