NKH.pdb
     RDKit          3D

 28 28  0  0  1  0  0  0  0  0999 V2000
   13.7464  -17.5070   13.1468 N   0  0  0  0  0  0  0  0  0  0  0  0
   13.6491  -16.0811   13.2084 C   0  0  0  0  0  0  0  0  0  0  0  0
   13.9635  -15.4486   12.1842 O   0  0  0  0  0  0  0  0  0  0  0  0
   13.1971  -15.4440   14.4384 C   0  0  0  0  0  0  0  0  0  0  0  0
   12.9447  -16.4450   15.5324 C   0  0  2  0  0  0  0  0  0  0  0  0
   11.6055  -17.0304   15.2527 N   0  0  0  0  0  0  0  0  0  0  0  0
   12.8378  -15.8575   16.8742 C   0  0  0  0  0  0  0  0  0  0  0  0
   13.8370  -15.2533   17.4040 O   0  0  0  0  0  0  0  0  0  0  0  0
   11.6490  -15.9003   17.6798 N   0  0  0  0  0  0  0  0  0  0  0  0
   11.6267  -15.2751   18.9766 C   0  0  1  0  0  0  0  0  0  0  0  0
   10.2069  -15.0442   19.4340 C   0  0  0  0  0  0  0  0  0  0  0  0
    9.5960  -13.8122   18.8137 C   0  0  0  0  0  0  0  0  0  0  0  0
    8.1509  -13.7746   19.2750 C   0  0  0  0  0  0  0  0  0  0  0  0
    7.4299  -12.5620   18.7295 C   0  0  0  0  0  0  0  0  0  0  0  0
    6.0395  -12.6678   19.1184 N   0  0  0  0  0  0  0  0  0  0  0  0
   12.2725  -16.1523   19.9697 C   0  0  0  0  0  0  0  0  0  0  0  0
   12.2226  -17.4158   19.9268 O   0  0  0  0  0  0  0  0  0  0  0  0
   12.9990  -15.5271   21.0471 N   0  0  0  0  0  0  0  0  0  0  0  0
   13.6125  -16.3364   22.0449 C   0  0  1  0  0  0  0  0  0  0  0  0
   14.8409  -15.6009   22.5368 C   0  0  0  0  0  0  0  0  0  0  0  0
   15.6143  -16.3339   23.5420 C   0  0  0  0  0  0  0  0  0  0  0  0
   15.5369  -17.7016   23.7437 C   0  0  0  0  0  0  0  0  0  0  0  0
   16.3823  -18.0248   24.7397 N   0  0  0  0  0  0  0  0  0  0  0  0
   16.9830  -16.8965   25.1634 C   0  0  0  0  0  0  0  0  0  0  0  0
   16.5125  -15.8796   24.4338 N   0  0  0  0  0  0  0  0  0  0  0  0
   12.6650  -16.6210   23.1438 C   0  0  0  0  0  0  0  0  0  0  0  0
   11.6801  -15.8617   23.2943 O   0  0  0  0  0  0  0  0  0  0  0  0
   12.8056  -17.6832   24.0183 O   0  0  0  0  0  0  0  0  0  0  0  0
  1  2  1  0
  2  3  2  0
  4  2  1  0
  4  5  1  0
  5  6  1  6
  7  8  2  0
  7  5  1  0
  9  7  1  0
 10  9  1  0
 10 11  1  1
 11 12  1  0
 13 12  1  0
 14 15  1  0
 14 13  1  0
 16 17  2  0
 16 10  1  0
 18 16  1  0
 19 18  1  0
 19 20  1  1
 20 21  1  0
 21 22  2  0
 21 25  1  0
 22 23  1  0
 24 23  1  0
 25 24  2  0
 26 19  1  0
 27 26  2  0
 28 26  1  0
M  END
$$$$
