NKH.pdb
     RDKit          3D

 28 28  0  0  1  0  0  0  0  0999 V2000
    7.4704  -14.9066   13.7835 N   0  0  0  0  0  0  0  0  0  0  0  0
    7.7134  -16.2704   14.1405 C   0  0  0  0  0  0  0  0  0  0  0  0
    8.2149  -17.0021   13.2682 O   0  0  0  0  0  0  0  0  0  0  0  0
    7.3712  -16.7350   15.4785 C   0  0  0  0  0  0  0  0  0  0  0  0
    8.5798  -16.8308   16.3687 C   0  0  2  0  0  0  0  0  0  0  0  0
    9.2770  -18.0870   15.9813 N   0  0  0  0  0  0  0  0  0  0  0  0
    8.2671  -16.9858   17.7954 C   0  0  0  0  0  0  0  0  0  0  0  0
    7.5611  -16.1082   18.4081 O   0  0  0  0  0  0  0  0  0  0  0  0
    8.7022  -18.0940   18.5995 N   0  0  0  0  0  0  0  0  0  0  0  0
    8.2762  -18.2092   19.9700 C   0  0  1  0  0  0  0  0  0  0  0  0
    8.4944  -19.6127   20.4810 C   0  0  0  0  0  0  0  0  0  0  0  0
    7.9425  -19.8110   21.8708 C   0  0  0  0  0  0  0  0  0  0  0  0
    8.2454  -21.2491   22.2486 C   0  0  0  0  0  0  0  0  0  0  0  0
    7.6510  -21.6022   23.5939 C   0  0  0  0  0  0  0  0  0  0  0  0
    7.9561  -22.9929   23.8558 N   0  0  0  0  0  0  0  0  0  0  0  0
    9.0674  -17.3023   20.8210 C   0  0  0  0  0  0  0  0  0  0  0  0
   10.3291  -17.2202   20.7751 O   0  0  0  0  0  0  0  0  0  0  0  0
    8.3556  -16.4662   21.7558 N   0  0  0  0  0  0  0  0  0  0  0  0
    9.0713  -15.5110   22.5319 C   0  0  1  0  0  0  0  0  0  0  0  0
    8.4351  -14.1586   22.2906 C   0  0  0  0  0  0  0  0  0  0  0  0
    8.5932  -13.6588   20.9227 C   0  0  0  0  0  0  0  0  0  0  0  0
    7.5525  -13.2011   20.1323 C   0  0  0  0  0  0  0  0  0  0  0  0
    8.0646  -12.8221   18.9469 N   0  0  0  0  0  0  0  0  0  0  0  0
    9.3944  -13.0317   18.9775 C   0  0  0  0  0  0  0  0  0  0  0  0
    9.7048  -13.5376   20.1757 N   0  0  0  0  0  0  0  0  0  0  0  0
    9.0527  -15.8800   23.9636 C   0  0  0  0  0  0  0  0  0  0  0  0
    8.3126  -16.8229   24.3274 O   0  0  0  0  0  0  0  0  0  0  0  0
    9.8101  -15.2398   24.9277 O   0  0  0  0  0  0  0  0  0  0  0  0
  1  2  1  0
  2  3  2  0
  4  2  1  0
  4  5  1  0
  5  6  1  6
  7  8  2  0
  7  5  1  0
  9  7  1  0
 10  9  1  0
 10 11  1  1
 11 12  1  0
 13 12  1  0
 14 15  1  0
 14 13  1  0
 16 17  2  0
 16 10  1  0
 18 16  1  0
 19 18  1  0
 19 20  1  1
 20 21  1  0
 21 22  2  0
 21 25  1  0
 22 23  1  0
 24 23  1  0
 25 24  2  0
 26 19  1  0
 27 26  2  0
 28 26  1  0
M  END
$$$$
