NKH.pdb
     RDKit          3D

 28 28  0  0  1  0  0  0  0  0999 V2000
   11.4587  -20.6536   18.1695 N   0  0  0  0  0  0  0  0  0  0  0  0
   11.1291  -20.7070   19.5605 C   0  0  0  0  0  0  0  0  0  0  0  0
   11.1572  -21.8251   20.1054 O   0  0  0  0  0  0  0  0  0  0  0  0
   10.7819  -19.4793   20.2645 C   0  0  0  0  0  0  0  0  0  0  0  0
   10.7723  -18.2868   19.3478 C   0  0  2  0  0  0  0  0  0  0  0  0
   12.1101  -18.2582   18.6968 N   0  0  0  0  0  0  0  0  0  0  0  0
   10.6502  -16.9964   20.0385 C   0  0  0  0  0  0  0  0  0  0  0  0
   11.6955  -16.3347   20.3754 O   0  0  0  0  0  0  0  0  0  0  0  0
    9.3977  -16.3811   20.3801 N   0  0  0  0  0  0  0  0  0  0  0  0
    9.3722  -15.0972   21.0314 C   0  0  1  0  0  0  0  0  0  0  0  0
    8.3728  -14.1812   20.3675 C   0  0  0  0  0  0  0  0  0  0  0  0
    8.6069  -14.0541   18.8828 C   0  0  0  0  0  0  0  0  0  0  0  0
    7.4214  -13.2861   18.3285 C   0  0  0  0  0  0  0  0  0  0  0  0
    7.5353  -13.1022   16.8315 C   0  0  0  0  0  0  0  0  0  0  0  0
    6.3828  -12.3427   16.3948 N   0  0  0  0  0  0  0  0  0  0  0  0
    8.9597  -15.2543   22.4377 C   0  0  0  0  0  0  0  0  0  0  0  0
    7.7807  -15.5428   22.7947 O   0  0  0  0  0  0  0  0  0  0  0  0
    9.9622  -15.0662   23.4572 N   0  0  0  0  0  0  0  0  0  0  0  0
    9.9271  -15.8656   24.6347 C   0  0  1  0  0  0  0  0  0  0  0  0
    8.6810  -16.7226   24.5670 C   0  0  0  0  0  0  0  0  0  0  0  0
    8.5175  -17.6313   25.7044 C   0  0  0  0  0  0  0  0  0  0  0  0
    9.3520  -17.6594   26.8090 C   0  0  0  0  0  0  0  0  0  0  0  0
    8.9018  -18.6106   27.6478 N   0  0  0  0  0  0  0  0  0  0  0  0
    7.8110  -19.1752   27.0958 C   0  0  0  0  0  0  0  0  0  0  0  0
    7.5864  -18.5770   25.9213 N   0  0  0  0  0  0  0  0  0  0  0  0
   11.1527  -16.6850   24.7480 C   0  0  0  0  0  0  0  0  0  0  0  0
   11.6998  -16.7886   25.8701 O   0  0  0  0  0  0  0  0  0  0  0  0
   11.7311  -17.3465   23.6800 O   0  0  0  0  0  0  0  0  0  0  0  0
  1  2  1  0
  2  3  2  0
  4  2  1  0
  4  5  1  0
  5  6  1  1
  7  8  2  0
  7  5  1  0
  9  7  1  0
 10  9  1  0
 10 11  1  6
 11 12  1  0
 13 12  1  0
 14 15  1  0
 14 13  1  0
 16 17  2  0
 16 10  1  0
 18 16  1  0
 19 18  1  0
 19 20  1  6
 20 21  1  0
 21 22  2  0
 21 25  1  0
 22 23  1  0
 24 23  1  0
 25 24  2  0
 26 19  1  0
 27 26  2  0
 28 26  1  0
M  END
$$$$
