NKH.pdb
     RDKit          3D

 28 28  0  0  1  0  0  0  0  0999 V2000
   14.2738  -18.0470   17.7494 N   0  0  0  0  0  0  0  0  0  0  0  0
   14.1252  -17.6923   19.1273 C   0  0  0  0  0  0  0  0  0  0  0  0
   14.9656  -18.1502   19.9224 O   0  0  0  0  0  0  0  0  0  0  0  0
   13.0222  -16.8309   19.5329 C   0  0  0  0  0  0  0  0  0  0  0  0
   12.1767  -17.4636   20.6040 C   0  0  2  0  0  0  0  0  0  0  0  0
   11.2692  -18.4128   19.9040 N   0  0  0  0  0  0  0  0  0  0  0  0
   11.2900  -16.5256   21.3047 C   0  0  0  0  0  0  0  0  0  0  0  0
   11.7715  -15.6402   22.0973 O   0  0  0  0  0  0  0  0  0  0  0  0
    9.8600  -16.5127   21.1661 N   0  0  0  0  0  0  0  0  0  0  0  0
    9.0546  -15.6763   22.0174 C   0  0  1  0  0  0  0  0  0  0  0  0
    7.6155  -15.6792   21.5623 C   0  0  0  0  0  0  0  0  0  0  0  0
    6.9697  -17.0349   21.7056 C   0  0  0  0  0  0  0  0  0  0  0  0
    5.5522  -16.8893   21.1838 C   0  0  0  0  0  0  0  0  0  0  0  0
    4.7564  -18.1590   21.3890 C   0  0  0  0  0  0  0  0  0  0  0  0
    3.4253  -17.9303   20.8682 N   0  0  0  0  0  0  0  0  0  0  0  0
    9.0811  -16.1901   23.3987 C   0  0  0  0  0  0  0  0  0  0  0  0
    8.6268  -17.3223   23.7345 O   0  0  0  0  0  0  0  0  0  0  0  0
    9.6581  -15.3488   24.4179 N   0  0  0  0  0  0  0  0  0  0  0  0
    9.4425  -15.6579   25.7908 C   0  0  1  0  0  0  0  0  0  0  0  0
    7.9518  -15.5888   26.0452 C   0  0  0  0  0  0  0  0  0  0  0  0
    7.4514  -14.2367   26.3047 C   0  0  0  0  0  0  0  0  0  0  0  0
    8.2378  -13.0970   26.2972 C   0  0  0  0  0  0  0  0  0  0  0  0
    7.4475  -12.0432   26.5727 N   0  0  0  0  0  0  0  0  0  0  0  0
    6.1918  -12.4953   26.7519 C   0  0  0  0  0  0  0  0  0  0  0  0
    6.2038  -13.8223   26.5880 N   0  0  0  0  0  0  0  0  0  0  0  0
    9.9958  -16.9888   26.1210 C   0  0  0  0  0  0  0  0  0  0  0  0
   10.3284  -17.7469   25.1809 O   0  0  0  0  0  0  0  0  0  0  0  0
   10.1677  -17.4452   27.4152 O   0  0  0  0  0  0  0  0  0  0  0  0
  1  2  1  0
  2  3  2  0
  4  2  1  0
  4  5  1  0
  5  6  1  6
  7  8  2  0
  7  5  1  0
  9  7  1  0
 10  9  1  0
 10 11  1  6
 11 12  1  0
 13 12  1  0
 14 15  1  0
 14 13  1  0
 16 17  2  0
 16 10  1  0
 18 16  1  0
 19 18  1  0
 19 20  1  6
 20 21  1  0
 21 22  2  0
 21 25  1  0
 22 23  1  0
 24 23  1  0
 25 24  2  0
 26 19  1  0
 27 26  2  0
 28 26  1  0
M  END
$$$$
