NKH.pdb
     RDKit          3D

 28 28  0  0  1  0  0  0  0  0999 V2000
    1.8075  -19.4085   22.0185 N   0  0  0  0  0  0  0  0  0  0  0  0
    2.7507  -20.1581   21.2473 C   0  0  0  0  0  0  0  0  0  0  0  0
    2.2907  -20.9277   20.3847 O   0  0  0  0  0  0  0  0  0  0  0  0
    4.1766  -19.9938   21.4982 C   0  0  0  0  0  0  0  0  0  0  0  0
    4.4493  -18.9326   22.5287 C   0  0  2  0  0  0  0  0  0  0  0  0
    3.2540  -18.0463   22.5323 N   0  0  0  0  0  0  0  0  0  0  0  0
    5.5813  -18.0546   22.2050 C   0  0  0  0  0  0  0  0  0  0  0  0
    6.7788  -18.5125   22.1880 O   0  0  0  0  0  0  0  0  0  0  0  0
    5.4530  -16.6598   21.8851 N   0  0  0  0  0  0  0  0  0  0  0  0
    6.6205  -15.8204   21.8116 C   0  0  1  0  0  0  0  0  0  0  0  0
    6.2445  -14.4170   21.4023 C   0  0  0  0  0  0  0  0  0  0  0  0
    7.4503  -13.5309   21.2120 C   0  0  0  0  0  0  0  0  0  0  0  0
    7.8316  -13.6385   19.7472 C   0  0  0  0  0  0  0  0  0  0  0  0
    9.0448  -12.7928   19.4301 C   0  0  0  0  0  0  0  0  0  0  0  0
    9.3757  -13.0069   18.0372 N   0  0  0  0  0  0  0  0  0  0  0  0
    7.2641  -15.7361   23.1349 C   0  0  0  0  0  0  0  0  0  0  0  0
    6.6317  -15.5234   24.2099 O   0  0  0  0  0  0  0  0  0  0  0  0
    8.6947  -15.9061   23.1987 N   0  0  0  0  0  0  0  0  0  0  0  0
    9.3163  -16.1749   24.4509 C   0  0  1  0  0  0  0  0  0  0  0  0
    8.6693  -17.4179   25.0238 C   0  0  0  0  0  0  0  0  0  0  0  0
    9.2694  -17.8811   26.2773 C   0  0  0  0  0  0  0  0  0  0  0  0
   10.2692  -17.2096   26.9605 C   0  0  0  0  0  0  0  0  0  0  0  0
   10.5722  -17.9213   28.0618 N   0  0  0  0  0  0  0  0  0  0  0  0
    9.7894  -19.0168   28.0824 C   0  0  0  0  0  0  0  0  0  0  0  0
    9.0052  -18.9840   26.9999 N   0  0  0  0  0  0  0  0  0  0  0  0
   10.7763  -16.3411   24.2857 C   0  0  0  0  0  0  0  0  0  0  0  0
   11.2080  -16.7715   23.1914 O   0  0  0  0  0  0  0  0  0  0  0  0
   11.6958  -16.0465   25.2759 O   0  0  0  0  0  0  0  0  0  0  0  0
  1  2  1  0
  2  3  2  0
  4  2  1  0
  4  5  1  0
  5  6  1  6
  7  8  2  0
  7  5  1  0
  9  7  1  0
 10  9  1  0
 10 11  1  1
 11 12  1  0
 13 12  1  0
 14 15  1  0
 14 13  1  0
 16 17  2  0
 16 10  1  0
 18 16  1  0
 19 18  1  0
 19 20  1  6
 20 21  1  0
 21 22  2  0
 21 25  1  0
 22 23  1  0
 24 23  1  0
 25 24  2  0
 26 19  1  0
 27 26  2  0
 28 26  1  0
M  END
$$$$
