NKH.pdb
     RDKit          3D

 28 28  0  0  1  0  0  0  0  0999 V2000
   11.9131  -17.4722   17.0158 N   0  0  0  0  0  0  0  0  0  0  0  0
   10.7123  -18.0417   17.5454 C   0  0  0  0  0  0  0  0  0  0  0  0
   10.5307  -19.2573   17.3525 O   0  0  0  0  0  0  0  0  0  0  0  0
    9.7742  -17.1948   18.2706 C   0  0  0  0  0  0  0  0  0  0  0  0
    9.9079  -17.3522   19.7605 C   0  0  2  0  0  0  0  0  0  0  0  0
    9.5266  -18.7589   20.0611 N   0  0  0  0  0  0  0  0  0  0  0  0
    8.9783  -16.5242   20.5400 C   0  0  0  0  0  0  0  0  0  0  0  0
    8.9684  -15.2493   20.4041 O   0  0  0  0  0  0  0  0  0  0  0  0
    8.0299  -17.0484   21.4833 N   0  0  0  0  0  0  0  0  0  0  0  0
    7.1415  -16.1623   22.1896 C   0  0  1  0  0  0  0  0  0  0  0  0
    5.8927  -16.8914   22.6224 C   0  0  0  0  0  0  0  0  0  0  0  0
    5.0979  -17.4154   21.4523 C   0  0  0  0  0  0  0  0  0  0  0  0
    3.9288  -18.1832   22.0407 C   0  0  0  0  0  0  0  0  0  0  0  0
    3.0125  -18.7070   20.9573 C   0  0  0  0  0  0  0  0  0  0  0  0
    1.9467  -19.4433   21.6036 N   0  0  0  0  0  0  0  0  0  0  0  0
    7.7997  -15.6545   23.4068 C   0  0  0  0  0  0  0  0  0  0  0  0
    7.2455  -14.8661   24.2267 O   0  0  0  0  0  0  0  0  0  0  0  0
    9.1506  -16.0849   23.6698 N   0  0  0  0  0  0  0  0  0  0  0  0
    9.8527  -15.5552   24.7894 C   0  0  1  0  0  0  0  0  0  0  0  0
    9.2203  -16.1314   26.0384 C   0  0  0  0  0  0  0  0  0  0  0  0
    9.2635  -15.2371   27.1978 C   0  0  0  0  0  0  0  0  0  0  0  0
    9.2481  -13.8547   27.1200 C   0  0  0  0  0  0  0  0  0  0  0  0
    9.2973  -13.3658   28.3729 N   0  0  0  0  0  0  0  0  0  0  0  0
    9.3435  -14.4053   29.2277 C   0  0  0  0  0  0  0  0  0  0  0  0
    9.3227  -15.5322   28.5085 N   0  0  0  0  0  0  0  0  0  0  0  0
   11.2934  -15.8766   24.7039 C   0  0  0  0  0  0  0  0  0  0  0  0
   12.0589  -15.4263   25.5873 O   0  0  0  0  0  0  0  0  0  0  0  0
   11.8455  -16.6502   23.6991 O   0  0  0  0  0  0  0  0  0  0  0  0
  1  2  1  0
  2  3  2  0
  4  2  1  0
  4  5  1  0
  5  6  1  6
  7  8  2  0
  7  5  1  0
  9  7  1  0
 10  9  1  0
 10 11  1  1
 11 12  1  0
 13 12  1  0
 14 15  1  0
 14 13  1  0
 16 17  2  0
 16 10  1  0
 18 16  1  0
 19 18  1  0
 19 20  1  1
 20 21  1  0
 21 22  2  0
 21 25  1  0
 22 23  1  0
 24 23  1  0
 25 24  2  0
 26 19  1  0
 27 26  2  0
 28 26  1  0
M  END
$$$$
