NKH.pdb
     RDKit          3D

 28 28  0  0  1  0  0  0  0  0999 V2000
    9.8687  -18.3771   15.6860 N   0  0  0  0  0  0  0  0  0  0  0  0
   10.6052  -17.1815   15.4128 C   0  0  0  0  0  0  0  0  0  0  0  0
   10.0924  -16.3705   14.6208 O   0  0  0  0  0  0  0  0  0  0  0  0
   11.8945  -16.9685   16.0574 C   0  0  0  0  0  0  0  0  0  0  0  0
   11.7513  -16.3049   17.3997 C   0  0  2  0  0  0  0  0  0  0  0  0
   11.2345  -14.9361   17.1283 N   0  0  0  0  0  0  0  0  0  0  0  0
   13.0202  -16.1054   18.1120 C   0  0  0  0  0  0  0  0  0  0  0  0
   13.7673  -17.1047   18.4072 O   0  0  0  0  0  0  0  0  0  0  0  0
   13.5212  -14.8225   18.5208 N   0  0  0  0  0  0  0  0  0  0  0  0
   14.9065  -14.6638   18.8797 C   0  0  1  0  0  0  0  0  0  0  0  0
   15.4842  -13.4225   18.2442 C   0  0  0  0  0  0  0  0  0  0  0  0
   16.9533  -13.2543   18.5420 C   0  0  0  0  0  0  0  0  0  0  0  0
   17.6095  -12.8486   17.2353 C   0  0  0  0  0  0  0  0  0  0  0  0
   19.0837  -12.5672   17.4232 C   0  0  0  0  0  0  0  0  0  0  0  0
   19.6234  -12.1826   16.1362 N   0  0  0  0  0  0  0  0  0  0  0  0
   15.0340  -14.5114   20.3402 C   0  0  0  0  0  0  0  0  0  0  0  0
   14.5219  -13.5560   20.9929 O   0  0  0  0  0  0  0  0  0  0  0  0
   15.7865  -15.5109   21.0572 N   0  0  0  0  0  0  0  0  0  0  0  0
   15.8961  -15.4273   22.4742 C   0  0  1  0  0  0  0  0  0  0  0  0
   15.2911  -16.6882   23.0536 C   0  0  0  0  0  0  0  0  0  0  0  0
   13.8277  -16.7282   23.0012 C   0  0  0  0  0  0  0  0  0  0  0  0
   13.0284  -15.6547   22.6460 C   0  0  0  0  0  0  0  0  0  0  0  0
   11.7443  -16.0528   22.7066 N   0  0  0  0  0  0  0  0  0  0  0  0
   11.7223  -17.3435   23.0900 C   0  0  0  0  0  0  0  0  0  0  0  0
   12.9862  -17.7432   23.2658 N   0  0  0  0  0  0  0  0  0  0  0  0
   17.3075  -15.2572   22.8810 C   0  0  0  0  0  0  0  0  0  0  0  0
   18.1932  -15.3021   21.9964 O   0  0  0  0  0  0  0  0  0  0  0  0
   17.7061  -15.0501   24.1891 O   0  0  0  0  0  0  0  0  0  0  0  0
  1  2  1  0
  2  3  2  0
  4  2  1  0
  4  5  1  0
  5  6  1  6
  7  8  2  0
  7  5  1  0
  9  7  1  0
 10  9  1  0
 10 11  1  6
 11 12  1  0
 13 12  1  0
 14 15  1  0
 14 13  1  0
 16 17  2  0
 16 10  1  0
 18 16  1  0
 19 18  1  0
 19 20  1  1
 20 21  1  0
 21 22  2  0
 21 25  1  0
 22 23  1  0
 24 23  1  0
 25 24  2  0
 26 19  1  0
 27 26  2  0
 28 26  1  0
M  END
$$$$
