NKH.pdb
     RDKit          3D

 28 28  0  0  1  0  0  0  0  0999 V2000
    8.1895  -11.9285   17.2830 N   0  0  0  0  0  0  0  0  0  0  0  0
    7.8802  -13.3208   17.3940 C   0  0  0  0  0  0  0  0  0  0  0  0
    8.0747  -14.0248   16.3867 O   0  0  0  0  0  0  0  0  0  0  0  0
    7.3622  -13.8441   18.6514 C   0  0  0  0  0  0  0  0  0  0  0  0
    8.4642  -14.2803   19.5775 C   0  0  2  0  0  0  0  0  0  0  0  0
    9.2330  -15.3197   18.8406 N   0  0  0  0  0  0  0  0  0  0  0  0
    7.9958  -14.9412   20.8027 C   0  0  0  0  0  0  0  0  0  0  0  0
    7.2554  -14.3139   21.6407 O   0  0  0  0  0  0  0  0  0  0  0  0
    8.3081  -16.2984   21.1554 N   0  0  0  0  0  0  0  0  0  0  0  0
    7.7734  -16.8779   22.3601 C   0  0  1  0  0  0  0  0  0  0  0  0
    7.7767  -18.3849   22.2752 C   0  0  0  0  0  0  0  0  0  0  0  0
    6.7580  -18.9079   21.2932 C   0  0  0  0  0  0  0  0  0  0  0  0
    6.9006  -20.4186   21.2948 C   0  0  0  0  0  0  0  0  0  0  0  0
    5.8237  -21.0746   20.4597 C   0  0  0  0  0  0  0  0  0  0  0  0
    5.9967  -22.5076   20.5694 N   0  0  0  0  0  0  0  0  0  0  0  0
    8.6083  -16.4997   23.5144 C   0  0  0  0  0  0  0  0  0  0  0  0
    9.8610  -16.3338   23.4494 O   0  0  0  0  0  0  0  0  0  0  0  0
    7.9529  -16.3108   24.7850 N   0  0  0  0  0  0  0  0  0  0  0  0
    8.7189  -15.9259   25.9216 C   0  0  1  0  0  0  0  0  0  0  0  0
    7.7900  -15.2038   26.8742 C   0  0  0  0  0  0  0  0  0  0  0  0
    7.3925  -13.8676   26.4242 C   0  0  0  0  0  0  0  0  0  0  0  0
    7.9423  -13.2138   25.3344 C   0  0  0  0  0  0  0  0  0  0  0  0
    7.3386  -12.0168   25.2180 N   0  0  0  0  0  0  0  0  0  0  0  0
    6.4290  -11.9074   26.2049 C   0  0  0  0  0  0  0  0  0  0  0  0
    6.4688  -13.0308   26.9290 N   0  0  0  0  0  0  0  0  0  0  0  0
    9.3465  -17.1060   26.5541 C   0  0  0  0  0  0  0  0  0  0  0  0
    8.9857  -18.2459   26.1806 O   0  0  0  0  0  0  0  0  0  0  0  0
   10.3139  -17.0213   27.5388 O   0  0  0  0  0  0  0  0  0  0  0  0
  1  2  1  0
  2  3  2  0
  4  2  1  0
  4  5  1  0
  5  6  1  6
  7  8  2  0
  7  5  1  0
  9  7  1  0
 10  9  1  0
 10 11  1  6
 11 12  1  0
 13 12  1  0
 14 15  1  0
 14 13  1  0
 16 17  2  0
 16 10  1  0
 18 16  1  0
 19 18  1  0
 19 20  1  1
 20 21  1  0
 21 22  2  0
 21 25  1  0
 22 23  1  0
 24 23  1  0
 25 24  2  0
 26 19  1  0
 27 26  2  0
 28 26  1  0
M  END
$$$$
