NKH.pdb
     RDKit          3D

 28 28  0  0  1  0  0  0  0  0999 V2000
   12.2027  -21.6072   17.8224 N   0  0  0  0  0  0  0  0  0  0  0  0
   11.2325  -20.5560   17.8121 C   0  0  0  0  0  0  0  0  0  0  0  0
   10.2743  -20.6791   17.0281 O   0  0  0  0  0  0  0  0  0  0  0  0
   11.4029  -19.4120   18.6984 C   0  0  0  0  0  0  0  0  0  0  0  0
   10.5130  -18.2623   18.3130 C   0  0  2  0  0  0  0  0  0  0  0  0
   11.0307  -17.7604   17.0112 N   0  0  0  0  0  0  0  0  0  0  0  0
   10.5823  -17.1138   19.2259 C   0  0  0  0  0  0  0  0  0  0  0  0
   11.7149  -16.6643   19.6247 O   0  0  0  0  0  0  0  0  0  0  0  0
    9.4326  -16.4149   19.7297 N   0  0  0  0  0  0  0  0  0  0  0  0
    9.5884  -15.3678   20.7056 C   0  0  1  0  0  0  0  0  0  0  0  0
    8.4769  -14.3539   20.5833 C   0  0  0  0  0  0  0  0  0  0  0  0
    8.4055  -13.7419   19.2064 C   0  0  0  0  0  0  0  0  0  0  0  0
    7.1426  -12.9011   19.1785 C   0  0  0  0  0  0  0  0  0  0  0  0
    6.9726  -12.2065   17.8457 C   0  0  0  0  0  0  0  0  0  0  0  0
    6.7839  -13.2301   16.8396 N   0  0  0  0  0  0  0  0  0  0  0  0
    9.5220  -15.9329   22.0653 C   0  0  0  0  0  0  0  0  0  0  0  0
    8.4768  -16.4446   22.5617 O   0  0  0  0  0  0  0  0  0  0  0  0
   10.7195  -15.8956   22.8679 N   0  0  0  0  0  0  0  0  0  0  0  0
   11.0656  -17.0211   23.6682 C   0  0  1  0  0  0  0  0  0  0  0  0
   11.0215  -18.2446   22.7778 C   0  0  0  0  0  0  0  0  0  0  0  0
   11.3242  -19.4995   23.4703 C   0  0  0  0  0  0  0  0  0  0  0  0
   10.8419  -19.8369   24.7237 C   0  0  0  0  0  0  0  0  0  0  0  0
   11.3206  -21.0540   25.0410 N   0  0  0  0  0  0  0  0  0  0  0  0
   12.0874  -21.4828   24.0205 C   0  0  0  0  0  0  0  0  0  0  0  0
   12.0838  -20.5367   23.0757 N   0  0  0  0  0  0  0  0  0  0  0  0
   12.3973  -16.8363   24.2836 C   0  0  0  0  0  0  0  0  0  0  0  0
   12.8105  -17.7061   25.0848 O   0  0  0  0  0  0  0  0  0  0  0  0
   13.2159  -15.7525   24.0227 O   0  0  0  0  0  0  0  0  0  0  0  0
  1  2  1  0
  2  3  2  0
  4  2  1  0
  4  5  1  0
  5  6  1  6
  7  8  2  0
  7  5  1  0
  9  7  1  0
 10  9  1  0
 10 11  1  1
 11 12  1  0
 13 12  1  0
 14 15  1  0
 14 13  1  0
 16 17  2  0
 16 10  1  0
 18 16  1  0
 19 18  1  0
 19 20  1  6
 20 21  1  0
 21 22  2  0
 21 25  1  0
 22 23  1  0
 24 23  1  0
 25 24  2  0
 26 19  1  0
 27 26  2  0
 28 26  1  0
M  END
$$$$
