NKH.pdb
     RDKit          3D

 28 28  0  0  1  0  0  0  0  0999 V2000
   10.9432  -20.0279   15.7567 N   0  0  0  0  0  0  0  0  0  0  0  0
   12.1499  -19.7523   16.4738 C   0  0  0  0  0  0  0  0  0  0  0  0
   13.1552  -20.4171   16.1649 O   0  0  0  0  0  0  0  0  0  0  0  0
   12.1515  -18.7295   17.5117 C   0  0  0  0  0  0  0  0  0  0  0  0
   10.7587  -18.2958   17.8784 C   0  0  2  0  0  0  0  0  0  0  0  0
   10.1996  -17.6401   16.6652 N   0  0  0  0  0  0  0  0  0  0  0  0
   10.7032  -17.2735   18.9314 C   0  0  0  0  0  0  0  0  0  0  0  0
   11.7568  -16.6246   19.2677 O   0  0  0  0  0  0  0  0  0  0  0  0
    9.5092  -16.9185   19.6472 N   0  0  0  0  0  0  0  0  0  0  0  0
    9.5381  -15.8716   20.6353 C   0  0  1  0  0  0  0  0  0  0  0  0
    8.3910  -14.9121   20.4306 C   0  0  0  0  0  0  0  0  0  0  0  0
    8.4650  -14.2023   19.1017 C   0  0  0  0  0  0  0  0  0  0  0  0
    7.2005  -13.3707   18.9915 C   0  0  0  0  0  0  0  0  0  0  0  0
    7.1332  -12.6432   17.6671 C   0  0  0  0  0  0  0  0  0  0  0  0
    5.8696  -11.9386   17.6186 N   0  0  0  0  0  0  0  0  0  0  0  0
    9.3950  -16.4484   21.9842 C   0  0  0  0  0  0  0  0  0  0  0  0
    8.4627  -17.2375   22.3141 O   0  0  0  0  0  0  0  0  0  0  0  0
   10.3764  -16.0872   22.9772 N   0  0  0  0  0  0  0  0  0  0  0  0
   10.9263  -17.0930   23.8215 C   0  0  1  0  0  0  0  0  0  0  0  0
   11.5454  -18.1484   22.9300 C   0  0  0  0  0  0  0  0  0  0  0  0
   10.8630  -19.4439   22.9741 C   0  0  0  0  0  0  0  0  0  0  0  0
    9.7482  -19.7145   23.7496 C   0  0  0  0  0  0  0  0  0  0  0  0
    9.3941  -20.9955   23.5383 N   0  0  0  0  0  0  0  0  0  0  0  0
   10.2576  -21.5295   22.6537 C   0  0  0  0  0  0  0  0  0  0  0  0
   11.1420  -20.5843   22.3184 N   0  0  0  0  0  0  0  0  0  0  0  0
   11.9156  -16.5109   24.7535 C   0  0  0  0  0  0  0  0  0  0  0  0
   12.6076  -15.5431   24.3614 O   0  0  0  0  0  0  0  0  0  0  0  0
   12.1204  -16.9767   26.0395 O   0  0  0  0  0  0  0  0  0  0  0  0
  1  2  1  0
  2  3  2  0
  4  2  1  0
  4  5  1  0
  5  6  1  6
  7  8  2  0
  7  5  1  0
  9  7  1  0
 10  9  1  0
 10 11  1  6
 11 12  1  0
 13 12  1  0
 14 15  1  0
 14 13  1  0
 16 17  2  0
 16 10  1  0
 18 16  1  0
 19 18  1  0
 19 20  1  6
 20 21  1  0
 21 22  2  0
 21 25  1  0
 22 23  1  0
 24 23  1  0
 25 24  2  0
 26 19  1  0
 27 26  2  0
 28 26  1  0
M  END
$$$$
