MDM.pdb
     RDKit          3D

 25 24  0  0  1  0  0  0  0  0999 V2000
    7.5144  -11.7593   25.7736 C   0  0  0  0  0  0  0  0  0  0  0  0
    6.6093  -13.3255   25.9271 S   0  0  0  0  0  0  0  0  0  0  0  0
    7.1247  -14.4837   24.6138 C   0  0  0  0  0  0  0  0  0  0  0  0
    6.3711  -15.7977   24.8413 C   0  0  0  0  0  0  0  0  0  0  0  0
    6.8136  -16.7314   23.7354 C   0  0  2  0  0  0  0  0  0  0  0  0
    5.9417  -17.8659   23.7677 N   0  0  0  0  0  0  0  0  0  0  0  0
    8.2436  -17.0859   23.8441 C   0  0  0  0  0  0  0  0  0  0  0  0
    8.5564  -18.0540   24.5947 O   0  0  0  0  0  0  0  0  0  0  0  0
    9.3057  -16.4334   23.1771 N   0  0  0  0  0  0  0  0  0  0  0  0
   10.6757  -16.8692   23.1926 C   0  0  1  0  0  0  0  0  0  0  0  0
   11.3397  -16.4630   21.9195 C   0  0  0  0  0  0  0  0  0  0  0  0
   12.7005  -16.9755   21.7424 C   0  0  0  0  0  0  0  0  0  0  0  0
   13.6749  -16.3457   22.1829 O   0  0  0  0  0  0  0  0  0  0  0  0
   11.4124  -16.3953   24.3947 C   0  0  0  0  0  0  0  0  0  0  0  0
   11.7106  -15.1785   24.4406 O   0  0  0  0  0  0  0  0  0  0  0  0
   12.9722  -18.1687   21.0859 O   0  0  0  0  0  0  0  0  0  0  0  0
    8.8310  -13.5860   27.9137 C   0  0  0  0  0  0  0  0  0  0  0  0
   10.3893  -13.5943   28.8511 S   0  0  0  0  0  0  0  0  0  0  0  0
   11.2826  -15.1715   28.5697 C   0  0  0  0  0  0  0  0  0  0  0  0
   11.1525  -15.5949   27.1359 C   0  0  0  0  0  0  0  0  0  0  0  0
   11.9277  -16.8162   26.8525 C   0  0  2  0  0  0  0  0  0  0  0  0
   11.7793  -17.2514   25.4631 N   0  0  0  0  0  0  0  0  0  0  0  0
   11.7319  -17.9044   27.7932 C   0  0  0  0  0  0  0  0  0  0  0  0
   10.8873  -18.9814   27.6510 O   0  0  0  0  0  0  0  0  0  0  0  0
   12.3987  -17.8927   28.8878 O   0  0  0  0  0  0  0  0  0  0  0  0
  2  1  1  0
  3  2  1  0
  3  4  1  0
  4  5  1  0
  5  7  1  0
  5  6  1  1
  7  8  2  0
  9 10  1  0
  9  7  1  0
 10 11  1  6
 12 11  1  0
 13 12  2  0
 14 15  2  0
 14 10  1  0
 16 12  1  0
 17 18  1  0
 19 18  1  0
 20 19  1  0
 21 22  1  0
 21 20  1  1
 22 14  1  0
 23 21  1  0
 24 23  1  0
 25 23  2  0
M  END
$$$$
