MDM.pdb
     RDKit          3D

 25 24  0  0  1  0  0  0  0  0999 V2000
    7.5599  -11.9079   20.2775 C   0  0  0  0  0  0  0  0  0  0  0  0
    8.0892  -13.4088   21.1509 S   0  0  0  0  0  0  0  0  0  0  0  0
    6.6349  -14.3539   21.7200 C   0  0  0  0  0  0  0  0  0  0  0  0
    7.1527  -15.5458   22.5308 C   0  0  0  0  0  0  0  0  0  0  0  0
    7.7790  -16.4929   21.5300 C   0  0  2  0  0  0  0  0  0  0  0  0
    6.7498  -17.3875   21.0954 N   0  0  0  0  0  0  0  0  0  0  0  0
    8.9633  -17.1830   22.0811 C   0  0  0  0  0  0  0  0  0  0  0  0
    8.7947  -18.3258   22.5949 O   0  0  0  0  0  0  0  0  0  0  0  0
   10.2828  -16.6753   22.0858 N   0  0  0  0  0  0  0  0  0  0  0  0
   11.4194  -17.3493   22.6521 C   0  0  1  0  0  0  0  0  0  0  0  0
   12.6386  -17.0184   21.8579 C   0  0  0  0  0  0  0  0  0  0  0  0
   13.8629  -17.6921   22.2971 C   0  0  0  0  0  0  0  0  0  0  0  0
   14.8605  -17.0342   22.6320 O   0  0  0  0  0  0  0  0  0  0  0  0
   11.5898  -17.0627   24.1017 C   0  0  0  0  0  0  0  0  0  0  0  0
   12.5062  -17.6722   24.7019 O   0  0  0  0  0  0  0  0  0  0  0  0
   13.9751  -19.0747   22.3622 O   0  0  0  0  0  0  0  0  0  0  0  0
    8.5617  -12.4808   27.5586 C   0  0  0  0  0  0  0  0  0  0  0  0
    9.7230  -13.4675   28.5510 S   0  0  0  0  0  0  0  0  0  0  0  0
    9.4630  -15.2546   28.2285 C   0  0  0  0  0  0  0  0  0  0  0  0
    9.4416  -15.5193   26.7516 C   0  0  0  0  0  0  0  0  0  0  0  0
   10.7363  -16.0317   26.2678 C   0  0  2  0  0  0  0  0  0  0  0  0
   10.7717  -16.1467   24.8094 N   0  0  0  0  0  0  0  0  0  0  0  0
   11.2086  -17.2366   26.9258 C   0  0  0  0  0  0  0  0  0  0  0  0
   10.5181  -18.4152   27.0923 O   0  0  0  0  0  0  0  0  0  0  0  0
   12.3910  -17.2388   27.4203 O   0  0  0  0  0  0  0  0  0  0  0  0
  2  1  1  0
  3  2  1  0
  3  4  1  0
  4  5  1  0
  5  7  1  0
  5  6  1  1
  7  8  2  0
  9 10  1  0
  9  7  1  0
 10 11  1  6
 12 11  1  0
 13 12  2  0
 14 15  2  0
 14 10  1  0
 16 12  1  0
 17 18  1  0
 19 18  1  0
 20 19  1  0
 21 22  1  0
 21 20  1  1
 22 14  1  0
 23 21  1  0
 24 23  1  0
 25 23  2  0
M  END
$$$$
