MDM.pdb
     RDKit          3D

 25 24  0  0  1  0  0  0  0  0999 V2000
    8.5783  -11.6707   20.7333 C   0  0  0  0  0  0  0  0  0  0  0  0
    7.7841  -12.0339   19.1417 S   0  0  0  0  0  0  0  0  0  0  0  0
    7.6536  -13.8383   18.8987 C   0  0  0  0  0  0  0  0  0  0  0  0
    7.8050  -14.4970   20.2733 C   0  0  0  0  0  0  0  0  0  0  0  0
    8.2146  -15.9297   20.0085 C   0  0  2  0  0  0  0  0  0  0  0  0
    7.0887  -16.5877   19.4187 N   0  0  0  0  0  0  0  0  0  0  0  0
    8.7158  -16.6003   21.2258 C   0  0  0  0  0  0  0  0  0  0  0  0
    7.8673  -16.9762   22.0845 O   0  0  0  0  0  0  0  0  0  0  0  0
   10.0733  -16.8627   21.5204 N   0  0  0  0  0  0  0  0  0  0  0  0
   10.5591  -17.3571   22.7799 C   0  0  1  0  0  0  0  0  0  0  0  0
   11.9209  -17.9379   22.5928 C   0  0  0  0  0  0  0  0  0  0  0  0
   11.9973  -19.0314   21.6212 C   0  0  0  0  0  0  0  0  0  0  0  0
   11.1731  -19.9588   21.6479 O   0  0  0  0  0  0  0  0  0  0  0  0
   10.5230  -16.3256   23.8509 C   0  0  0  0  0  0  0  0  0  0  0  0
   10.9570  -15.1854   23.5625 O   0  0  0  0  0  0  0  0  0  0  0  0
   12.9747  -19.0918   20.6366 O   0  0  0  0  0  0  0  0  0  0  0  0
    5.7896  -13.1936   26.0890 C   0  0  0  0  0  0  0  0  0  0  0  0
    7.3448  -12.4157   26.6211 S   0  0  0  0  0  0  0  0  0  0  0  0
    8.5595  -13.7043   27.0999 C   0  0  0  0  0  0  0  0  0  0  0  0
    8.7193  -14.7056   25.9937 C   0  0  0  0  0  0  0  0  0  0  0  0
    9.8982  -15.5663   26.1997 C   0  0  2  0  0  0  0  0  0  0  0  0
   10.0268  -16.5818   25.1538 N   0  0  0  0  0  0  0  0  0  0  0  0
   10.0266  -16.1297   27.5315 C   0  0  0  0  0  0  0  0  0  0  0  0
   10.3221  -15.4533   28.6929 O   0  0  0  0  0  0  0  0  0  0  0  0
    9.8561  -17.3913   27.6798 O   0  0  0  0  0  0  0  0  0  0  0  0
  2  1  1  0
  3  2  1  0
  3  4  1  0
  4  5  1  0
  5  7  1  0
  5  6  1  1
  7  8  2  0
  9 10  1  0
  9  7  1  0
 10 11  1  6
 12 11  1  0
 13 12  2  0
 14 15  2  0
 14 10  1  0
 16 12  1  0
 17 18  1  0
 19 18  1  0
 20 19  1  0
 21 22  1  0
 21 20  1  1
 22 14  1  0
 23 21  1  0
 24 23  1  0
 25 23  2  0
M  END
$$$$
