MDM.pdb
     RDKit          3D

 25 24  0  0  1  0  0  0  0  0999 V2000
    7.9835  -11.9515   20.5774 C   0  0  0  0  0  0  0  0  0  0  0  0
    7.9070  -13.4291   19.5254 S   0  0  0  0  0  0  0  0  0  0  0  0
    7.6538  -14.9196   20.5483 C   0  0  0  0  0  0  0  0  0  0  0  0
    7.6105  -16.1224   19.6008 C   0  0  0  0  0  0  0  0  0  0  0  0
    7.4885  -17.3463   20.4828 C   0  0  2  0  0  0  0  0  0  0  0  0
    6.1566  -17.3571   21.0066 N   0  0  0  0  0  0  0  0  0  0  0  0
    8.5314  -17.3860   21.5284 C   0  0  0  0  0  0  0  0  0  0  0  0
    8.2464  -17.9462   22.6254 O   0  0  0  0  0  0  0  0  0  0  0  0
    9.8338  -16.8486   21.4118 N   0  0  0  0  0  0  0  0  0  0  0  0
   10.9046  -17.0827   22.3420 C   0  0  1  0  0  0  0  0  0  0  0  0
   12.2022  -16.7028   21.7105 C   0  0  0  0  0  0  0  0  0  0  0  0
   12.5392  -17.4489   20.4958 C   0  0  0  0  0  0  0  0  0  0  0  0
   12.2865  -18.6608   20.4084 O   0  0  0  0  0  0  0  0  0  0  0  0
   10.6867  -16.4029   23.6469 C   0  0  0  0  0  0  0  0  0  0  0  0
   11.6790  -16.2856   24.4041 O   0  0  0  0  0  0  0  0  0  0  0  0
   13.1472  -16.8562   19.3970 O   0  0  0  0  0  0  0  0  0  0  0  0
    6.4819  -11.2920   27.3669 C   0  0  0  0  0  0  0  0  0  0  0  0
    6.1135  -12.9518   26.7218 S   0  0  0  0  0  0  0  0  0  0  0  0
    7.6250  -13.9906   26.7617 C   0  0  0  0  0  0  0  0  0  0  0  0
    7.9605  -14.4748   25.3816 C   0  0  0  0  0  0  0  0  0  0  0  0
    9.1506  -15.3446   25.3801 C   0  0  2  0  0  0  0  0  0  0  0  0
    9.4268  -15.8959   24.0529 N   0  0  0  0  0  0  0  0  0  0  0  0
    9.1723  -16.3635   26.4140 C   0  0  0  0  0  0  0  0  0  0  0  0
    9.6338  -16.2269   27.7031 O   0  0  0  0  0  0  0  0  0  0  0  0
    8.7240  -17.5304   26.1307 O   0  0  0  0  0  0  0  0  0  0  0  0
  2  1  1  0
  3  2  1  0
  3  4  1  0
  4  5  1  0
  5  7  1  0
  5  6  1  1
  7  8  2  0
  9 10  1  0
  9  7  1  0
 10 11  1  6
 12 11  1  0
 13 12  2  0
 14 15  2  0
 14 10  1  0
 16 12  1  0
 17 18  1  0
 19 18  1  0
 20 19  1  0
 21 22  1  0
 21 20  1  6
 22 14  1  0
 23 21  1  0
 24 23  1  0
 25 23  2  0
M  END
$$$$
