MDM.pdb
     RDKit          3D

 25 24  0  0  1  0  0  0  0  0999 V2000
    7.9799  -11.9070   20.6419 C   0  0  0  0  0  0  0  0  0  0  0  0
    7.9479  -12.6806   18.9998 S   0  0  0  0  0  0  0  0  0  0  0  0
    7.2037  -14.3444   19.1004 C   0  0  0  0  0  0  0  0  0  0  0  0
    7.6085  -14.9456   20.4498 C   0  0  0  0  0  0  0  0  0  0  0  0
    8.2563  -16.2773   20.1377 C   0  0  2  0  0  0  0  0  0  0  0  0
    7.2287  -17.1389   19.6376 N   0  0  0  0  0  0  0  0  0  0  0  0
    8.9749  -16.8342   21.3022 C   0  0  0  0  0  0  0  0  0  0  0  0
    8.2927  -17.4143   22.1947 O   0  0  0  0  0  0  0  0  0  0  0  0
   10.3720  -16.7766   21.5110 N   0  0  0  0  0  0  0  0  0  0  0  0
   11.0358  -17.1516   22.7298 C   0  0  1  0  0  0  0  0  0  0  0  0
   12.5097  -17.1915   22.4998 C   0  0  0  0  0  0  0  0  0  0  0  0
   12.9328  -17.9886   21.3460 C   0  0  0  0  0  0  0  0  0  0  0  0
   12.5909  -19.1768   21.2396 O   0  0  0  0  0  0  0  0  0  0  0  0
   10.6625  -16.2795   23.8754 C   0  0  0  0  0  0  0  0  0  0  0  0
   11.1031  -15.1059   23.8690 O   0  0  0  0  0  0  0  0  0  0  0  0
   13.7234  -17.4720   20.3279 O   0  0  0  0  0  0  0  0  0  0  0  0
    6.6216  -11.3169   26.6698 C   0  0  0  0  0  0  0  0  0  0  0  0
    6.5618  -13.1326   26.5888 S   0  0  0  0  0  0  0  0  0  0  0  0
    8.1381  -13.7830   25.9126 C   0  0  0  0  0  0  0  0  0  0  0  0
    8.0994  -15.2820   25.8520 C   0  0  0  0  0  0  0  0  0  0  0  0
    9.4322  -15.8738   26.0676 C   0  0  2  0  0  0  0  0  0  0  0  0
    9.8457  -16.7195   24.9471 N   0  0  0  0  0  0  0  0  0  0  0  0
    9.6167  -16.5303   27.3492 C   0  0  0  0  0  0  0  0  0  0  0  0
    9.9328  -15.9339   28.5483 O   0  0  0  0  0  0  0  0  0  0  0  0
    9.4815  -17.8035   27.4080 O   0  0  0  0  0  0  0  0  0  0  0  0
  2  1  1  0
  3  2  1  0
  3  4  1  0
  4  5  1  0
  5  7  1  0
  5  6  1  1
  7  8  2  0
  9 10  1  0
  9  7  1  0
 10 11  1  6
 12 11  1  0
 13 12  2  0
 14 15  2  0
 14 10  1  0
 16 12  1  0
 17 18  1  0
 19 18  1  0
 20 19  1  0
 21 22  1  0
 21 20  1  6
 22 14  1  0
 23 21  1  0
 24 23  1  0
 25 23  2  0
M  END
$$$$
