MDM.pdb
     RDKit          3D

 25 24  0  0  1  0  0  0  0  0999 V2000
    8.1583  -11.5576   20.2152 C   0  0  0  0  0  0  0  0  0  0  0  0
    7.0557  -12.3733   19.0258 S   0  0  0  0  0  0  0  0  0  0  0  0
    7.4550  -14.1508   18.9113 C   0  0  0  0  0  0  0  0  0  0  0  0
    8.0151  -14.5821   20.2702 C   0  0  0  0  0  0  0  0  0  0  0  0
    8.2332  -16.0769   20.1781 C   0  0  2  0  0  0  0  0  0  0  0  0
    6.9563  -16.6746   19.9317 N   0  0  0  0  0  0  0  0  0  0  0  0
    8.9133  -16.6157   21.3738 C   0  0  0  0  0  0  0  0  0  0  0  0
    8.1987  -17.1545   22.2669 O   0  0  0  0  0  0  0  0  0  0  0  0
   10.3064  -16.5831   21.6123 N   0  0  0  0  0  0  0  0  0  0  0  0
   10.9497  -17.0981   22.7903 C   0  0  1  0  0  0  0  0  0  0  0  0
   12.4248  -17.1453   22.5694 C   0  0  0  0  0  0  0  0  0  0  0  0
   12.8445  -17.8447   21.3527 C   0  0  0  0  0  0  0  0  0  0  0  0
   12.5082  -19.0225   21.1533 O   0  0  0  0  0  0  0  0  0  0  0  0
   10.5824  -16.3432   24.0182 C   0  0  0  0  0  0  0  0  0  0  0  0
   11.2355  -15.3025   24.2672 O   0  0  0  0  0  0  0  0  0  0  0  0
   13.6256  -17.2434   20.3746 O   0  0  0  0  0  0  0  0  0  0  0  0
    6.4404  -12.0230   26.9055 C   0  0  0  0  0  0  0  0  0  0  0  0
    8.0785  -12.7505   26.5981 S   0  0  0  0  0  0  0  0  0  0  0  0
    7.9340  -14.1451   25.4152 C   0  0  0  0  0  0  0  0  0  0  0  0
    7.9117  -15.4523   26.1519 C   0  0  0  0  0  0  0  0  0  0  0  0
    9.2379  -16.0959   26.1663 C   0  0  2  0  0  0  0  0  0  0  0  0
    9.5450  -16.7505   24.8940 N   0  0  0  0  0  0  0  0  0  0  0  0
    9.4928  -16.9600   27.3047 C   0  0  0  0  0  0  0  0  0  0  0  0
    9.7614  -18.3094   27.2776 O   0  0  0  0  0  0  0  0  0  0  0  0
    9.4700  -16.4460   28.4786 O   0  0  0  0  0  0  0  0  0  0  0  0
  2  1  1  0
  3  2  1  0
  3  4  1  0
  4  5  1  0
  5  7  1  0
  5  6  1  1
  7  8  2  0
  9 10  1  0
  9  7  1  0
 10 11  1  6
 12 11  1  0
 13 12  2  0
 14 15  2  0
 14 10  1  0
 16 12  1  0
 17 18  1  0
 19 18  1  0
 20 19  1  0
 21 22  1  0
 21 20  1  6
 22 14  1  0
 23 21  1  0
 24 23  1  0
 25 23  2  0
M  END
$$$$
