MDM.pdb
     RDKit          3D

 25 24  0  0  1  0  0  0  0  0999 V2000
    8.8412  -11.8457   19.9125 C   0  0  0  0  0  0  0  0  0  0  0  0
    7.1959  -12.6122   19.8765 S   0  0  0  0  0  0  0  0  0  0  0  0
    7.3355  -14.4177   20.1063 C   0  0  0  0  0  0  0  0  0  0  0  0
    8.4639  -14.9088   19.1942 C   0  0  0  0  0  0  0  0  0  0  0  0
    8.5252  -16.4102   19.3748 C   0  0  2  0  0  0  0  0  0  0  0  0
    7.3389  -16.9541   18.7871 N   0  0  0  0  0  0  0  0  0  0  0  0
    8.7094  -16.7943   20.7894 C   0  0  0  0  0  0  0  0  0  0  0  0
    7.6897  -17.1665   21.4377 O   0  0  0  0  0  0  0  0  0  0  0  0
    9.9364  -16.7835   21.4914 N   0  0  0  0  0  0  0  0  0  0  0  0
   10.0996  -17.1753   22.8650 C   0  0  1  0  0  0  0  0  0  0  0  0
   11.2066  -18.1707   22.9687 C   0  0  0  0  0  0  0  0  0  0  0  0
   12.4867  -17.7305   22.4092 C   0  0  0  0  0  0  0  0  0  0  0  0
   13.5439  -17.9084   23.0345 O   0  0  0  0  0  0  0  0  0  0  0  0
   10.2939  -16.0123   23.7717 C   0  0  0  0  0  0  0  0  0  0  0  0
   11.3309  -16.0024   24.4761 O   0  0  0  0  0  0  0  0  0  0  0  0
   12.5886  -17.1027   21.1747 O   0  0  0  0  0  0  0  0  0  0  0  0
    7.1784  -11.4621   27.7505 C   0  0  0  0  0  0  0  0  0  0  0  0
    6.6544  -12.0213   26.1013 S   0  0  0  0  0  0  0  0  0  0  0  0
    6.5194  -13.8505   26.0723 C   0  0  0  0  0  0  0  0  0  0  0  0
    7.2135  -14.4045   24.8626 C   0  0  0  0  0  0  0  0  0  0  0  0
    8.6608  -14.5694   25.0887 C   0  0  2  0  0  0  0  0  0  0  0  0
    9.3695  -14.9416   23.8637 N   0  0  0  0  0  0  0  0  0  0  0  0
    9.0180  -15.4192   26.2102 C   0  0  0  0  0  0  0  0  0  0  0  0
    8.9042  -16.7887   26.2819 O   0  0  0  0  0  0  0  0  0  0  0  0
    9.4907  -14.8691   27.2669 O   0  0  0  0  0  0  0  0  0  0  0  0
  2  1  1  0
  3  2  1  0
  3  4  1  0
  4  5  1  0
  5  7  1  0
  5  6  1  1
  7  8  2  0
  9 10  1  0
  9  7  1  0
 10 11  1  6
 12 11  1  0
 13 12  2  0
 14 15  2  0
 14 10  1  0
 16 12  1  0
 17 18  1  0
 19 18  1  0
 20 19  1  0
 21 22  1  0
 21 20  1  6
 22 14  1  0
 23 21  1  0
 24 23  1  0
 25 23  2  0
M  END
$$$$
