MDM.pdb
     RDKit          3D

 25 24  0  0  1  0  0  0  0  0999 V2000
    8.7589  -12.8017   19.5344 C   0  0  0  0  0  0  0  0  0  0  0  0
    7.2083  -12.8406   20.4778 S   0  0  0  0  0  0  0  0  0  0  0  0
    6.9833  -14.4769   21.2549 C   0  0  0  0  0  0  0  0  0  0  0  0
    6.9767  -15.5192   20.1325 C   0  0  0  0  0  0  0  0  0  0  0  0
    6.9917  -16.8700   20.8150 C   0  0  2  0  0  0  0  0  0  0  0  0
    5.7164  -17.0394   21.4421 N   0  0  0  0  0  0  0  0  0  0  0  0
    8.1286  -17.0106   21.7479 C   0  0  0  0  0  0  0  0  0  0  0  0
    7.9232  -17.6082   22.8430 O   0  0  0  0  0  0  0  0  0  0  0  0
    9.4400  -16.5322   21.5241 N   0  0  0  0  0  0  0  0  0  0  0  0
   10.5726  -16.8199   22.3617 C   0  0  1  0  0  0  0  0  0  0  0  0
   11.8301  -16.5427   21.6076 C   0  0  0  0  0  0  0  0  0  0  0  0
   12.1729  -17.5404   20.5913 C   0  0  0  0  0  0  0  0  0  0  0  0
   12.6218  -17.1902   19.4886 O   0  0  0  0  0  0  0  0  0  0  0  0
   10.5189  -16.1000   23.6622 C   0  0  0  0  0  0  0  0  0  0  0  0
   10.7754  -14.8730   23.6484 O   0  0  0  0  0  0  0  0  0  0  0  0
   12.0185  -18.9048   20.7988 O   0  0  0  0  0  0  0  0  0  0  0  0
    7.5929  -11.5213   26.1724 C   0  0  0  0  0  0  0  0  0  0  0  0
    6.8583  -13.1442   26.5377 S   0  0  0  0  0  0  0  0  0  0  0  0
    8.1738  -14.3429   26.9825 C   0  0  0  0  0  0  0  0  0  0  0  0
    8.6411  -15.0798   25.7617 C   0  0  0  0  0  0  0  0  0  0  0  0
    9.7157  -16.0380   26.0777 C   0  0  2  0  0  0  0  0  0  0  0  0
   10.1955  -16.7385   24.8857 N   0  0  0  0  0  0  0  0  0  0  0  0
    9.4299  -16.9479   27.1722 C   0  0  0  0  0  0  0  0  0  0  0  0
    9.1878  -18.2997   27.0849 O   0  0  0  0  0  0  0  0  0  0  0  0
    9.3869  -16.4760   28.3631 O   0  0  0  0  0  0  0  0  0  0  0  0
  2  1  1  0
  3  2  1  0
  3  4  1  0
  4  5  1  0
  5  7  1  0
  5  6  1  1
  7  8  2  0
  9 10  1  0
  9  7  1  0
 10 11  1  6
 12 11  1  0
 13 12  2  0
 14 15  2  0
 14 10  1  0
 16 12  1  0
 17 18  1  0
 19 18  1  0
 20 19  1  0
 21 22  1  0
 21 20  1  6
 22 14  1  0
 23 21  1  0
 24 23  1  0
 25 23  2  0
M  END
$$$$
