MDM.pdb
     RDKit          3D

 25 24  0  0  1  0  0  0  0  0999 V2000
    7.7637  -11.5724   20.9193 C   0  0  0  0  0  0  0  0  0  0  0  0
    7.3995  -12.1052   19.2225 S   0  0  0  0  0  0  0  0  0  0  0  0
    7.5218  -13.9218   19.0913 C   0  0  0  0  0  0  0  0  0  0  0  0
    8.0239  -14.4449   20.4406 C   0  0  0  0  0  0  0  0  0  0  0  0
    8.1497  -15.9453   20.2877 C   0  0  2  0  0  0  0  0  0  0  0  0
    6.8424  -16.4503   19.9969 N   0  0  0  0  0  0  0  0  0  0  0  0
    8.7737  -16.5757   21.4691 C   0  0  0  0  0  0  0  0  0  0  0  0
    8.0218  -16.8952   22.4340 O   0  0  0  0  0  0  0  0  0  0  0  0
   10.1509  -16.8572   21.6198 N   0  0  0  0  0  0  0  0  0  0  0  0
   10.7561  -17.3781   22.8154 C   0  0  1  0  0  0  0  0  0  0  0  0
   12.1723  -17.7530   22.5316 C   0  0  0  0  0  0  0  0  0  0  0  0
   12.3634  -18.5882   21.3435 C   0  0  0  0  0  0  0  0  0  0  0  0
   11.8820  -19.7308   21.2906 O   0  0  0  0  0  0  0  0  0  0  0  0
   10.6345  -16.4476   23.9694 C   0  0  0  0  0  0  0  0  0  0  0  0
   11.3481  -15.4170   23.9515 O   0  0  0  0  0  0  0  0  0  0  0  0
   13.0783  -18.1590   20.2330 O   0  0  0  0  0  0  0  0  0  0  0  0
    7.5000  -11.9380   26.9232 C   0  0  0  0  0  0  0  0  0  0  0  0
    6.5946  -13.2034   25.9819 S   0  0  0  0  0  0  0  0  0  0  0  0
    7.4747  -14.8098   26.0822 C   0  0  0  0  0  0  0  0  0  0  0  0
    8.9589  -14.5943   26.0299 C   0  0  0  0  0  0  0  0  0  0  0  0
    9.7028  -15.8457   26.2614 C   0  0  2  0  0  0  0  0  0  0  0  0
    9.7609  -16.6807   25.0610 N   0  0  0  0  0  0  0  0  0  0  0  0
    9.2968  -16.5976   27.4350 C   0  0  0  0  0  0  0  0  0  0  0  0
    9.4829  -16.2438   28.7517 O   0  0  0  0  0  0  0  0  0  0  0  0
    8.7005  -17.7194   27.2652 O   0  0  0  0  0  0  0  0  0  0  0  0
  2  1  1  0
  3  2  1  0
  3  4  1  0
  4  5  1  0
  5  7  1  0
  5  6  1  1
  7  8  2  0
  9 10  1  0
  9  7  1  0
 10 11  1  6
 12 11  1  0
 13 12  2  0
 14 15  2  0
 14 10  1  0
 16 12  1  0
 17 18  1  0
 19 18  1  0
 20 19  1  0
 21 22  1  0
 21 20  1  6
 22 14  1  0
 23 21  1  0
 24 23  1  0
 25 23  2  0
M  END
$$$$
