MDM.pdb
     RDKit          3D

 25 24  0  0  1  0  0  0  0  0999 V2000
    8.3931  -12.8469   19.9297 C   0  0  0  0  0  0  0  0  0  0  0  0
    7.9249  -12.6779   21.6755 S   0  0  0  0  0  0  0  0  0  0  0  0
    7.7988  -14.3226   22.4572 C   0  0  0  0  0  0  0  0  0  0  0  0
    7.6904  -15.3565   21.3322 C   0  0  0  0  0  0  0  0  0  0  0  0
    7.7951  -16.7120   21.9973 C   0  0  2  0  0  0  0  0  0  0  0  0
    6.9200  -16.6943   23.1297 N   0  0  0  0  0  0  0  0  0  0  0  0
    9.1900  -17.0595   22.3379 C   0  0  0  0  0  0  0  0  0  0  0  0
    9.4969  -18.2849   22.3912 O   0  0  0  0  0  0  0  0  0  0  0  0
   10.2241  -16.1355   22.6126 N   0  0  0  0  0  0  0  0  0  0  0  0
   11.5276  -16.4858   23.1078 C   0  0  1  0  0  0  0  0  0  0  0  0
   12.5621  -15.6824   22.3931 C   0  0  0  0  0  0  0  0  0  0  0  0
   13.9427  -16.1212   22.6097 C   0  0  0  0  0  0  0  0  0  0  0  0
   14.1999  -17.3171   22.8194 O   0  0  0  0  0  0  0  0  0  0  0  0
   11.6301  -16.3589   24.5863 C   0  0  0  0  0  0  0  0  0  0  0  0
   12.7133  -15.9311   25.0504 O   0  0  0  0  0  0  0  0  0  0  0  0
   15.0191  -15.2439   22.5933 O   0  0  0  0  0  0  0  0  0  0  0  0
   10.4425  -12.9503   28.9931 C   0  0  0  0  0  0  0  0  0  0  0  0
   10.5444  -13.5898   27.2938 S   0  0  0  0  0  0  0  0  0  0  0  0
    9.2007  -14.8030   26.9980 C   0  0  0  0  0  0  0  0  0  0  0  0
    9.5536  -16.1291   27.6054 C   0  0  0  0  0  0  0  0  0  0  0  0
   10.6990  -16.7572   26.9225 C   0  0  2  0  0  0  0  0  0  0  0  0
   10.5711  -16.6966   25.4659 N   0  0  0  0  0  0  0  0  0  0  0  0
   11.0422  -18.0884   27.3892 C   0  0  0  0  0  0  0  0  0  0  0  0
   11.1784  -19.2251   26.6258 O   0  0  0  0  0  0  0  0  0  0  0  0
   11.2444  -18.2626   28.6428 O   0  0  0  0  0  0  0  0  0  0  0  0
  2  1  1  0
  3  2  1  0
  3  4  1  0
  4  5  1  0
  5  7  1  0
  5  6  1  1
  7  8  2  0
  9 10  1  0
  9  7  1  0
 10 11  1  6
 12 11  1  0
 13 12  2  0
 14 15  2  0
 14 10  1  0
 16 12  1  0
 17 18  1  0
 19 18  1  0
 20 19  1  0
 21 22  1  0
 21 20  1  1
 22 14  1  0
 23 21  1  0
 24 23  1  0
 25 23  2  0
M  END
$$$$
