MDM.pdb
     RDKit          3D

 25 24  0  0  1  0  0  0  0  0999 V2000
    7.8111  -12.1246   21.5909 C   0  0  0  0  0  0  0  0  0  0  0  0
    7.9548  -12.7811   19.9045 S   0  0  0  0  0  0  0  0  0  0  0  0
    6.8797  -14.2424   19.7023 C   0  0  0  0  0  0  0  0  0  0  0  0
    7.1353  -15.1669   20.8966 C   0  0  0  0  0  0  0  0  0  0  0  0
    7.9632  -16.3174   20.3660 C   0  0  2  0  0  0  0  0  0  0  0  0
    7.0495  -17.2955   19.8593 N   0  0  0  0  0  0  0  0  0  0  0  0
    8.8915  -16.8518   21.3835 C   0  0  0  0  0  0  0  0  0  0  0  0
    8.4226  -17.6383   22.2553 O   0  0  0  0  0  0  0  0  0  0  0  0
   10.2721  -16.5602   21.4712 N   0  0  0  0  0  0  0  0  0  0  0  0
   11.1698  -17.1235   22.4426 C   0  0  1  0  0  0  0  0  0  0  0  0
   12.5320  -17.2474   21.8459 C   0  0  0  0  0  0  0  0  0  0  0  0
   13.5552  -17.7795   22.7490 C   0  0  0  0  0  0  0  0  0  0  0  0
   13.3239  -18.7797   23.4463 O   0  0  0  0  0  0  0  0  0  0  0  0
   11.1763  -16.3651   23.7221 C   0  0  0  0  0  0  0  0  0  0  0  0
   11.0249  -15.1226   23.6519 O   0  0  0  0  0  0  0  0  0  0  0  0
   14.8146  -17.2078   22.8740 O   0  0  0  0  0  0  0  0  0  0  0  0
   10.2338  -13.6486   29.0136 C   0  0  0  0  0  0  0  0  0  0  0  0
    9.1974  -13.7615   27.5236 S   0  0  0  0  0  0  0  0  0  0  0  0
    8.7020  -15.5039   27.2341 C   0  0  0  0  0  0  0  0  0  0  0  0
    9.3358  -16.0233   25.9770 C   0  0  0  0  0  0  0  0  0  0  0  0
   10.7005  -16.5256   26.2184 C   0  0  2  0  0  0  0  0  0  0  0  0
   11.3434  -16.9841   24.9863 N   0  0  0  0  0  0  0  0  0  0  0  0
   10.8215  -17.4929   27.2942 C   0  0  0  0  0  0  0  0  0  0  0  0
   11.4667  -17.3186   28.4971 O   0  0  0  0  0  0  0  0  0  0  0  0
   10.2843  -18.6465   27.1414 O   0  0  0  0  0  0  0  0  0  0  0  0
  2  1  1  0
  3  2  1  0
  3  4  1  0
  4  5  1  0
  5  7  1  0
  5  6  1  1
  7  8  2  0
  9 10  1  0
  9  7  1  0
 10 11  1  6
 12 11  1  0
 13 12  2  0
 14 15  2  0
 14 10  1  0
 16 12  1  0
 17 18  1  0
 19 18  1  0
 20 19  1  0
 21 22  1  0
 21 20  1  6
 22 14  1  0
 23 21  1  0
 24 23  1  0
 25 23  2  0
M  END
$$$$
