MDM.pdb
     RDKit          3D

 25 24  0  0  1  0  0  0  0  0999 V2000
    8.4141  -12.0965   19.8922 C   0  0  0  0  0  0  0  0  0  0  0  0
    6.9078  -12.8356   20.5854 S   0  0  0  0  0  0  0  0  0  0  0  0
    7.1934  -14.5939   20.9842 C   0  0  0  0  0  0  0  0  0  0  0  0
    7.9490  -15.2134   19.8046 C   0  0  0  0  0  0  0  0  0  0  0  0
    8.0415  -16.6952   20.0981 C   0  0  2  0  0  0  0  0  0  0  0  0
    6.7026  -17.1974   20.1572 N   0  0  0  0  0  0  0  0  0  0  0  0
    8.8281  -16.9740   21.3172 C   0  0  0  0  0  0  0  0  0  0  0  0
    8.1973  -17.2758   22.3705 O   0  0  0  0  0  0  0  0  0  0  0  0
   10.2379  -16.9335   21.4135 N   0  0  0  0  0  0  0  0  0  0  0  0
   10.9863  -17.1886   22.6142 C   0  0  1  0  0  0  0  0  0  0  0  0
   12.4453  -17.1746   22.3017 C   0  0  0  0  0  0  0  0  0  0  0  0
   12.8490  -18.0520   21.2003 C   0  0  0  0  0  0  0  0  0  0  0  0
   12.4667  -19.2320   21.1601 O   0  0  0  0  0  0  0  0  0  0  0  0
   10.6320  -16.2558   23.7173 C   0  0  0  0  0  0  0  0  0  0  0  0
   11.1917  -15.1341   23.7205 O   0  0  0  0  0  0  0  0  0  0  0  0
   13.6645  -17.6233   20.1612 O   0  0  0  0  0  0  0  0  0  0  0  0
    6.6732  -11.5573   25.7893 C   0  0  0  0  0  0  0  0  0  0  0  0
    6.2533  -13.1672   26.5234 S   0  0  0  0  0  0  0  0  0  0  0  0
    7.7828  -14.1249   26.8527 C   0  0  0  0  0  0  0  0  0  0  0  0
    8.1567  -14.9388   25.6487 C   0  0  0  0  0  0  0  0  0  0  0  0
    9.3897  -15.7149   25.8731 C   0  0  2  0  0  0  0  0  0  0  0  0
    9.7061  -16.5841   24.7391 N   0  0  0  0  0  0  0  0  0  0  0  0
    9.4539  -16.4197   27.1407 C   0  0  0  0  0  0  0  0  0  0  0  0
    9.6163  -15.8660   28.3899 O   0  0  0  0  0  0  0  0  0  0  0  0
    9.3555  -17.6976   27.1343 O   0  0  0  0  0  0  0  0  0  0  0  0
  2  1  1  0
  3  2  1  0
  3  4  1  0
  4  5  1  0
  5  7  1  0
  5  6  1  1
  7  8  2  0
  9 10  1  0
  9  7  1  0
 10 11  1  6
 12 11  1  0
 13 12  2  0
 14 15  2  0
 14 10  1  0
 16 12  1  0
 17 18  1  0
 19 18  1  0
 20 19  1  0
 21 22  1  0
 21 20  1  6
 22 14  1  0
 23 21  1  0
 24 23  1  0
 25 23  2  0
M  END
$$$$
