MDM.pdb
     RDKit          3D

 25 24  0  0  1  0  0  0  0  0999 V2000
    6.6393  -12.0514   18.8007 C   0  0  0  0  0  0  0  0  0  0  0  0
    7.6989  -12.4925   17.3942 S   0  0  0  0  0  0  0  0  0  0  0  0
    9.0220  -13.6289   17.9327 C   0  0  0  0  0  0  0  0  0  0  0  0
    8.8005  -13.9161   19.4208 C   0  0  0  0  0  0  0  0  0  0  0  0
   10.0206  -14.6813   19.8860 C   0  0  2  0  0  0  0  0  0  0  0  0
   10.5208  -15.4039   18.7563 N   0  0  0  0  0  0  0  0  0  0  0  0
    9.7286  -15.5413   21.0512 C   0  0  0  0  0  0  0  0  0  0  0  0
    8.8451  -15.1503   21.8668 O   0  0  0  0  0  0  0  0  0  0  0  0
   10.3545  -16.7756   21.3398 N   0  0  0  0  0  0  0  0  0  0  0  0
   10.1295  -17.5517   22.5289 C   0  0  1  0  0  0  0  0  0  0  0  0
   11.0521  -18.7245   22.5376 C   0  0  0  0  0  0  0  0  0  0  0  0
   10.9649  -19.5871   21.3569 C   0  0  0  0  0  0  0  0  0  0  0  0
    9.9584  -20.2854   21.1578 O   0  0  0  0  0  0  0  0  0  0  0  0
   10.2321  -16.7382   23.7699 C   0  0  0  0  0  0  0  0  0  0  0  0
   11.3324  -16.1840   24.0019 O   0  0  0  0  0  0  0  0  0  0  0  0
   11.9807  -19.6713   20.4138 O   0  0  0  0  0  0  0  0  0  0  0  0
    6.5317  -11.4840   28.1877 C   0  0  0  0  0  0  0  0  0  0  0  0
    6.4405  -12.7730   26.9082 S   0  0  0  0  0  0  0  0  0  0  0  0
    7.9857  -13.7616   26.9018 C   0  0  0  0  0  0  0  0  0  0  0  0
    7.9603  -14.7599   25.7818 C   0  0  0  0  0  0  0  0  0  0  0  0
    9.1551  -15.6233   25.7900 C   0  0  2  0  0  0  0  0  0  0  0  0
    9.1549  -16.5726   24.6763 N   0  0  0  0  0  0  0  0  0  0  0  0
    9.4446  -16.2654   27.0595 C   0  0  0  0  0  0  0  0  0  0  0  0
   10.0386  -15.6937   28.1612 O   0  0  0  0  0  0  0  0  0  0  0  0
    9.1298  -17.4992   27.2054 O   0  0  0  0  0  0  0  0  0  0  0  0
  2  1  1  0
  3  2  1  0
  3  4  1  0
  4  5  1  0
  5  7  1  0
  5  6  1  6
  7  8  2  0
  9 10  1  0
  9  7  1  0
 10 11  1  1
 12 11  1  0
 13 12  2  0
 14 15  2  0
 14 10  1  0
 16 12  1  0
 17 18  1  0
 19 18  1  0
 20 19  1  0
 21 22  1  0
 21 20  1  1
 22 14  1  0
 23 21  1  0
 24 23  1  0
 25 23  2  0
M  END
$$$$
