MDM.pdb
     RDKit          3D

 25 24  0  0  1  0  0  0  0  0999 V2000
    6.2637  -11.6249   25.0684 C   0  0  0  0  0  0  0  0  0  0  0  0
    6.4333  -13.0187   26.2192 S   0  0  0  0  0  0  0  0  0  0  0  0
    6.3919  -14.5992   25.3069 C   0  0  0  0  0  0  0  0  0  0  0  0
    7.1415  -14.3857   23.9883 C   0  0  0  0  0  0  0  0  0  0  0  0
    7.1670  -15.7325   23.2981 C   0  0  2  0  0  0  0  0  0  0  0  0
    6.0246  -16.4626   23.7566 N   0  0  0  0  0  0  0  0  0  0  0  0
    8.4438  -16.4442   23.5119 C   0  0  0  0  0  0  0  0  0  0  0  0
    8.4809  -17.3333   24.4099 O   0  0  0  0  0  0  0  0  0  0  0  0
    9.6412  -16.2186   22.7948 N   0  0  0  0  0  0  0  0  0  0  0  0
   10.8853  -16.8956   23.0411 C   0  0  1  0  0  0  0  0  0  0  0  0
   11.8556  -16.5596   21.9583 C   0  0  0  0  0  0  0  0  0  0  0  0
   11.4912  -17.0531   20.6281 C   0  0  0  0  0  0  0  0  0  0  0  0
   11.0503  -18.2037   20.4803 O   0  0  0  0  0  0  0  0  0  0  0  0
   11.4283  -16.6176   24.3976 C   0  0  0  0  0  0  0  0  0  0  0  0
   11.9470  -15.4922   24.5871 O   0  0  0  0  0  0  0  0  0  0  0  0
   11.6156  -16.2792   19.4819 O   0  0  0  0  0  0  0  0  0  0  0  0
    9.6826  -13.5065   28.0434 C   0  0  0  0  0  0  0  0  0  0  0  0
   10.7768  -14.1798   29.3305 S   0  0  0  0  0  0  0  0  0  0  0  0
   11.4860  -15.7788   28.7781 C   0  0  0  0  0  0  0  0  0  0  0  0
   11.1750  -16.0132   27.3289 C   0  0  0  0  0  0  0  0  0  0  0  0
   11.7742  -17.2664   26.8355 C   0  0  2  0  0  0  0  0  0  0  0  0
   11.3800  -17.5585   25.4567 N   0  0  0  0  0  0  0  0  0  0  0  0
   11.6114  -18.4146   27.7087 C   0  0  0  0  0  0  0  0  0  0  0  0
   10.9393  -19.5819   27.4269 O   0  0  0  0  0  0  0  0  0  0  0  0
   12.1340  -18.3713   28.8783 O   0  0  0  0  0  0  0  0  0  0  0  0
  2  1  1  0
  3  2  1  0
  3  4  1  0
  4  5  1  0
  5  7  1  0
  5  6  1  1
  7  8  2  0
  9 10  1  0
  9  7  1  0
 10 11  1  6
 12 11  1  0
 13 12  2  0
 14 15  2  0
 14 10  1  0
 16 12  1  0
 17 18  1  0
 19 18  1  0
 20 19  1  0
 21 22  1  0
 21 20  1  1
 22 14  1  0
 23 21  1  0
 24 23  1  0
 25 23  2  0
M  END
$$$$
