MDM.pdb
     RDKit          3D

 25 24  0  0  1  0  0  0  0  0999 V2000
    9.4875  -11.9712   19.7752 C   0  0  0  0  0  0  0  0  0  0  0  0
    7.6943  -12.1670   19.5703 S   0  0  0  0  0  0  0  0  0  0  0  0
    7.3062  -13.8519   18.9853 C   0  0  0  0  0  0  0  0  0  0  0  0
    7.3623  -14.7823   20.2009 C   0  0  0  0  0  0  0  0  0  0  0  0
    8.8299  -15.0486   20.4572 C   0  0  2  0  0  0  0  0  0  0  0  0
    9.3652  -15.6383   19.2680 N   0  0  0  0  0  0  0  0  0  0  0  0
    9.0446  -15.8682   21.6675 C   0  0  0  0  0  0  0  0  0  0  0  0
    8.0978  -15.9489   22.5014 O   0  0  0  0  0  0  0  0  0  0  0  0
   10.2262  -16.5784   21.9808 N   0  0  0  0  0  0  0  0  0  0  0  0
   10.4416  -17.3185   23.1944 C   0  0  1  0  0  0  0  0  0  0  0  0
   11.6802  -18.1400   23.0612 C   0  0  0  0  0  0  0  0  0  0  0  0
   11.8793  -19.1325   24.1198 C   0  0  0  0  0  0  0  0  0  0  0  0
   11.0564  -19.2463   25.0418 O   0  0  0  0  0  0  0  0  0  0  0  0
   10.4644  -16.4463   24.3990 C   0  0  0  0  0  0  0  0  0  0  0  0
   11.4626  -15.7027   24.5486 O   0  0  0  0  0  0  0  0  0  0  0  0
   12.9758  -19.9840   24.1520 O   0  0  0  0  0  0  0  0  0  0  0  0
    6.9810  -10.8595   25.6110 C   0  0  0  0  0  0  0  0  0  0  0  0
    6.7814  -12.5358   26.2872 S   0  0  0  0  0  0  0  0  0  0  0  0
    8.3440  -13.4783   26.1001 C   0  0  0  0  0  0  0  0  0  0  0  0
    8.2192  -14.8267   26.7467 C   0  0  0  0  0  0  0  0  0  0  0  0
    9.4459  -15.6280   26.5845 C   0  0  2  0  0  0  0  0  0  0  0  0
    9.4219  -16.4278   25.3593 N   0  0  0  0  0  0  0  0  0  0  0  0
    9.8299  -16.4113   27.7449 C   0  0  0  0  0  0  0  0  0  0  0  0
    9.9346  -17.7812   27.8228 O   0  0  0  0  0  0  0  0  0  0  0  0
   10.1056  -15.7944   28.8340 O   0  0  0  0  0  0  0  0  0  0  0  0
  2  1  1  0
  3  2  1  0
  3  4  1  0
  4  5  1  0
  5  7  1  0
  5  6  1  6
  7  8  2  0
  9 10  1  0
  9  7  1  0
 10 11  1  6
 12 11  1  0
 13 12  2  0
 14 15  2  0
 14 10  1  0
 16 12  1  0
 17 18  1  0
 19 18  1  0
 20 19  1  0
 21 22  1  0
 21 20  1  1
 22 14  1  0
 23 21  1  0
 24 23  1  0
 25 23  2  0
M  END
$$$$
