AAR.pdb
     RDKit          3D

 22 21  0  0  1  0  0  0  0  0999 V2000
   31.1665  -23.1397  -18.8347 C   0  0  0  0  0  0  0  0  0  0  0  0
   29.6525  -22.9139  -18.8917 C   0  0  2  0  0  0  0  0  0  0  0  0
   29.2498  -22.2401  -20.0843 N   0  0  0  0  0  0  0  0  0  0  0  0
   29.2805  -22.1299  -17.6597 C   0  0  0  0  0  0  0  0  0  0  0  0
   29.4766  -22.6332  -16.5239 O   0  0  0  0  0  0  0  0  0  0  0  0
   28.2323  -18.6471  -16.8905 C   0  0  0  0  0  0  0  0  0  0  0  0
   28.3878  -20.1331  -16.5373 C   0  0  2  0  0  0  0  0  0  0  0  0
   28.7113  -20.8309  -17.7416 N   0  0  0  0  0  0  0  0  0  0  0  0
   27.0958  -20.5458  -15.9491 C   0  0  0  0  0  0  0  0  0  0  0  0
   26.1499  -20.9696  -16.6594 O   0  0  0  0  0  0  0  0  0  0  0  0
   25.0472  -20.3317   -7.1907 N   0  0  0  0  0  0  0  0  0  0  0  0
   23.9437  -20.9114   -7.8623 C   0  0  0  0  0  0  0  0  0  0  0  0
   22.9270  -21.3223   -7.1953 N   0  0  0  0  0  0  0  0  0  0  0  0
   23.9347  -21.0513   -9.2801 N   0  0  0  0  0  0  0  0  0  0  0  0
   25.0284  -20.6551  -10.1145 C   0  0  0  0  0  0  0  0  0  0  0  0
   24.7115  -20.9549  -11.5607 C   0  0  0  0  0  0  0  0  0  0  0  0
   25.8884  -20.6410  -12.4334 C   0  0  0  0  0  0  0  0  0  0  0  0
   25.6709  -20.8849  -13.8956 C   0  0  2  0  0  0  0  0  0  0  0  0
   26.9207  -20.4617  -14.5563 N   0  0  0  0  0  0  0  0  0  0  0  0
   24.6334  -19.9537  -14.3917 C   0  0  0  0  0  0  0  0  0  0  0  0
   23.4624  -20.3808  -14.5279 O   0  0  0  0  0  0  0  0  0  0  0  0
   24.8687  -18.6338  -14.7181 O   0  0  0  0  0  0  0  0  0  0  0  0
  2  1  1  6
  2  4  1  0
  2  3  1  0
  4  5  2  0
  7  6  1  6
  7  9  1  0
  8  4  1  0
  8  7  1  0
  9 19  1  0
 10  9  2  0
 12 11  1  0
 12 13  2  0
 14 12  1  0
 15 14  1  0
 16 15  1  0
 17 16  1  0
 18 17  1  1
 19 18  1  0
 20 18  1  0
 21 20  2  0
 22 20  1  0
M  END
$$$$
