AAR.pdb
     RDKit          3D

 22 21  0  0  1  0  0  0  0  0999 V2000
   20.7590  -17.3136  -14.4698 C   0  0  0  0  0  0  0  0  0  0  0  0
   21.1596  -16.5982  -15.7636 C   0  0  2  0  0  0  0  0  0  0  0  0
   20.4243  -17.0693  -16.8932 N   0  0  0  0  0  0  0  0  0  0  0  0
   22.6413  -16.8095  -15.9395 C   0  0  0  0  0  0  0  0  0  0  0  0
   23.0722  -17.9544  -16.2313 O   0  0  0  0  0  0  0  0  0  0  0  0
   25.7167  -14.6867  -15.7619 C   0  0  0  0  0  0  0  0  0  0  0  0
   24.9594  -15.9957  -16.0272 C   0  0  2  0  0  0  0  0  0  0  0  0
   23.5731  -15.7484  -15.7849 N   0  0  0  0  0  0  0  0  0  0  0  0
   25.5464  -16.9950  -15.1094 C   0  0  0  0  0  0  0  0  0  0  0  0
   25.3917  -16.9225  -13.8646 O   0  0  0  0  0  0  0  0  0  0  0  0
   26.3290  -21.9598  -10.3218 N   0  0  0  0  0  0  0  0  0  0  0  0
   25.1046  -21.2504  -10.3702 C   0  0  0  0  0  0  0  0  0  0  0  0
   24.6193  -20.7293   -9.3024 N   0  0  0  0  0  0  0  0  0  0  0  0
   24.3887  -21.0989  -11.5927 N   0  0  0  0  0  0  0  0  0  0  0  0
   24.8111  -21.6877  -12.8273 C   0  0  0  0  0  0  0  0  0  0  0  0
   26.0600  -21.0010  -13.3279 C   0  0  0  0  0  0  0  0  0  0  0  0
   25.7059  -19.8308  -14.1942 C   0  0  0  0  0  0  0  0  0  0  0  0
   26.8769  -19.1147  -14.7946 C   0  0  2  0  0  0  0  0  0  0  0  0
   26.2986  -18.0560  -15.6445 N   0  0  0  0  0  0  0  0  0  0  0  0
   27.5740  -20.0265  -15.7285 C   0  0  0  0  0  0  0  0  0  0  0  0
   27.0679  -20.2266  -16.8582 O   0  0  0  0  0  0  0  0  0  0  0  0
   28.7550  -20.6784  -15.4385 O   0  0  0  0  0  0  0  0  0  0  0  0
  2  1  1  1
  2  4  1  0
  2  3  1  0
  4  5  2  0
  7  6  1  1
  7  9  1  0
  8  4  1  0
  8  7  1  0
  9 19  1  0
 10  9  2  0
 12 11  1  0
 12 13  2  0
 14 12  1  0
 15 14  1  0
 16 15  1  0
 17 16  1  0
 18 17  1  6
 19 18  1  0
 20 18  1  0
 21 20  2  0
 22 20  1  0
M  END
$$$$
