AAR.pdb
     RDKit          3D

 22 21  0  0  1  0  0  0  0  0999 V2000
   26.1335  -21.1689  -10.7761 C   0  0  0  0  0  0  0  0  0  0  0  0
   26.6294  -21.6847  -12.1305 C   0  0  2  0  0  0  0  0  0  0  0  0
   28.0026  -22.0738  -12.0923 N   0  0  0  0  0  0  0  0  0  0  0  0
   26.3931  -20.5830  -13.1311 C   0  0  0  0  0  0  0  0  0  0  0  0
   27.1872  -19.6088  -13.1773 O   0  0  0  0  0  0  0  0  0  0  0  0
   24.6805  -20.1395  -16.2942 C   0  0  0  0  0  0  0  0  0  0  0  0
   25.1194  -19.5338  -14.9535 C   0  0  2  0  0  0  0  0  0  0  0  0
   25.2937  -20.6105  -14.0304 N   0  0  0  0  0  0  0  0  0  0  0  0
   24.0461  -18.5948  -14.5637 C   0  0  0  0  0  0  0  0  0  0  0  0
   23.0437  -18.9708  -13.9062 O   0  0  0  0  0  0  0  0  0  0  0  0
   22.7507  -10.0101  -16.5419 N   0  0  0  0  0  0  0  0  0  0  0  0
   22.1530  -10.2363  -15.2784 C   0  0  0  0  0  0  0  0  0  0  0  0
   21.4701   -9.3080  -14.7134 N   0  0  0  0  0  0  0  0  0  0  0  0
   22.2933  -11.4868  -14.6103 N   0  0  0  0  0  0  0  0  0  0  0  0
   23.0835  -12.5653  -15.1219 C   0  0  0  0  0  0  0  0  0  0  0  0
   22.9784  -13.7633  -14.2076 C   0  0  0  0  0  0  0  0  0  0  0  0
   23.7637  -14.9151  -14.7571 C   0  0  0  0  0  0  0  0  0  0  0  0
   23.1081  -16.2537  -14.6048 C   0  0  2  0  0  0  0  0  0  0  0  0
   24.1501  -17.2436  -14.9394 N   0  0  0  0  0  0  0  0  0  0  0  0
   22.0743  -16.4073  -15.6523 C   0  0  0  0  0  0  0  0  0  0  0  0
   22.4364  -16.7420  -16.8052 O   0  0  0  0  0  0  0  0  0  0  0  0
   20.7251  -16.2055  -15.4452 O   0  0  0  0  0  0  0  0  0  0  0  0
  2  1  1  1
  2  4  1  0
  2  3  1  0
  4  5  2  0
  7  6  1  6
  7  9  1  0
  8  4  1  0
  8  7  1  0
  9 19  1  0
 10  9  2  0
 12 11  1  0
 12 13  2  0
 14 12  1  0
 15 14  1  0
 16 15  1  0
 17 16  1  0
 18 17  1  6
 19 18  1  0
 20 18  1  0
 21 20  2  0
 22 20  1  0
M  END
$$$$
