AAR.pdb
     RDKit          3D

 22 21  0  0  1  0  0  0  0  0999 V2000
   26.0433  -19.1934  -16.3786 C   0  0  0  0  0  0  0  0  0  0  0  0
   25.0849  -18.6645  -17.4501 C   0  0  2  0  0  0  0  0  0  0  0  0
   25.3661  -17.3113  -17.8083 N   0  0  0  0  0  0  0  0  0  0  0  0
   23.6895  -18.8141  -16.9011 C   0  0  0  0  0  0  0  0  0  0  0  0
   23.2933  -18.0332  -15.9984 O   0  0  0  0  0  0  0  0  0  0  0  0
   20.6189  -20.7022  -17.7932 C   0  0  0  0  0  0  0  0  0  0  0  0
   21.4940  -19.9163  -16.8065 C   0  0  2  0  0  0  0  0  0  0  0  0
   22.8013  -19.8166  -17.3747 N   0  0  0  0  0  0  0  0  0  0  0  0
   21.4610  -20.6794  -15.5408 C   0  0  0  0  0  0  0  0  0  0  0  0
   22.4829  -21.2513  -15.0854 O   0  0  0  0  0  0  0  0  0  0  0  0
   21.0858  -21.4059   -8.0939 N   0  0  0  0  0  0  0  0  0  0  0  0
   22.3543  -20.9162   -8.4886 C   0  0  0  0  0  0  0  0  0  0  0  0
   23.4100  -21.2770   -7.8541 N   0  0  0  0  0  0  0  0  0  0  0  0
   22.4887  -20.0203   -9.5883 N   0  0  0  0  0  0  0  0  0  0  0  0
   21.3715  -19.4935  -10.3121 C   0  0  0  0  0  0  0  0  0  0  0  0
   20.7091  -20.5904  -11.1121 C   0  0  0  0  0  0  0  0  0  0  0  0
   20.8647  -20.3379  -12.5809 C   0  0  0  0  0  0  0  0  0  0  0  0
   20.1843  -21.3362  -13.4669 C   0  0  2  0  0  0  0  0  0  0  0  0
   20.2526  -20.7677  -14.8269 N   0  0  0  0  0  0  0  0  0  0  0  0
   18.7433  -21.3755  -13.1331 C   0  0  0  0  0  0  0  0  0  0  0  0
   18.3323  -22.2753  -12.3626 O   0  0  0  0  0  0  0  0  0  0  0  0
   17.8110  -20.4804  -13.6165 O   0  0  0  0  0  0  0  0  0  0  0  0
  2  1  1  1
  2  4  1  0
  2  3  1  0
  4  5  2  0
  7  6  1  6
  7  9  1  0
  8  4  1  0
  8  7  1  0
  9 19  1  0
 10  9  2  0
 12 11  1  0
 12 13  2  0
 14 12  1  0
 15 14  1  0
 16 15  1  0
 17 16  1  0
 18 17  1  1
 19 18  1  0
 20 18  1  0
 21 20  2  0
 22 20  1  0
M  END
$$$$
