AAR.pdb
     RDKit          3D

 22 21  0  0  1  0  0  0  0  0999 V2000
   27.9253  -20.9109  -14.5025 C   0  0  0  0  0  0  0  0  0  0  0  0
   27.5121  -20.0009  -13.3417 C   0  0  2  0  0  0  0  0  0  0  0  0
   27.2567  -20.7337  -12.1432 N   0  0  0  0  0  0  0  0  0  0  0  0
   26.2939  -19.2388  -13.7957 C   0  0  0  0  0  0  0  0  0  0  0  0
   25.1543  -19.7502  -13.6485 O   0  0  0  0  0  0  0  0  0  0  0  0
   25.6142  -15.9133  -15.3688 C   0  0  0  0  0  0  0  0  0  0  0  0
   25.1993  -17.2630  -14.7662 C   0  0  2  0  0  0  0  0  0  0  0  0
   26.3930  -17.9518  -14.3889 N   0  0  0  0  0  0  0  0  0  0  0  0
   24.4299  -17.9568  -15.8207 C   0  0  0  0  0  0  0  0  0  0  0  0
   24.9170  -18.9113  -16.4768 O   0  0  0  0  0  0  0  0  0  0  0  0
   23.3071  -22.5431  -15.9685 N   0  0  0  0  0  0  0  0  0  0  0  0
   22.2728  -23.3378  -15.4176 C   0  0  0  0  0  0  0  0  0  0  0  0
   22.0213  -24.4974  -15.9069 N   0  0  0  0  0  0  0  0  0  0  0  0
   21.4940  -22.8747  -14.3182 N   0  0  0  0  0  0  0  0  0  0  0  0
   21.3784  -21.4920  -13.9659 C   0  0  0  0  0  0  0  0  0  0  0  0
   21.2457  -20.6493  -15.2126 C   0  0  0  0  0  0  0  0  0  0  0  0
   22.0454  -19.3888  -15.0835 C   0  0  0  0  0  0  0  0  0  0  0  0
   22.0096  -18.4946  -16.2851 C   0  0  2  0  0  0  0  0  0  0  0  0
   23.1165  -17.5369  -16.0972 N   0  0  0  0  0  0  0  0  0  0  0  0
   20.7765  -17.6777  -16.2429 C   0  0  0  0  0  0  0  0  0  0  0  0
   20.7004  -16.7530  -15.3995 O   0  0  0  0  0  0  0  0  0  0  0  0
   19.6934  -17.8658  -17.0768 O   0  0  0  0  0  0  0  0  0  0  0  0
  2  1  1  6
  2  4  1  0
  2  3  1  0
  4  5  2  0
  7  6  1  6
  7  9  1  0
  8  4  1  0
  8  7  1  0
  9 19  1  0
 10  9  2  0
 12 11  1  0
 12 13  2  0
 14 12  1  0
 15 14  1  0
 16 15  1  0
 17 16  1  0
 18 17  1  1
 19 18  1  0
 20 18  1  0
 21 20  2  0
 22 20  1  0
M  END
$$$$
