AAR.pdb
     RDKit          3D

 22 21  0  0  1  0  0  0  0  0999 V2000
   26.2904  -22.3201  -16.8490 C   0  0  0  0  0  0  0  0  0  0  0  0
   26.4239  -20.9663  -16.1450 C   0  0  2  0  0  0  0  0  0  0  0  0
   27.6436  -20.8552  -15.4111 N   0  0  0  0  0  0  0  0  0  0  0  0
   25.2220  -20.8193  -15.2480 C   0  0  0  0  0  0  0  0  0  0  0  0
   25.2134  -21.3898  -14.1272 O   0  0  0  0  0  0  0  0  0  0  0  0
   22.1210  -18.7470  -15.2519 C   0  0  0  0  0  0  0  0  0  0  0  0
   23.0338  -19.8467  -14.6912 C   0  0  2  0  0  0  0  0  0  0  0  0
   24.0902  -20.0511  -15.6315 N   0  0  0  0  0  0  0  0  0  0  0  0
   22.1718  -21.0339  -14.5100 C   0  0  0  0  0  0  0  0  0  0  0  0
   22.1510  -21.9713  -15.3464 O   0  0  0  0  0  0  0  0  0  0  0  0
   19.3433  -24.7491   -7.1994 N   0  0  0  0  0  0  0  0  0  0  0  0
   18.4173  -25.0692   -8.2216 C   0  0  0  0  0  0  0  0  0  0  0  0
   17.8855  -26.2365   -8.2666 N   0  0  0  0  0  0  0  0  0  0  0  0
   18.0567  -24.1135   -9.2149 N   0  0  0  0  0  0  0  0  0  0  0  0
   18.9425  -23.0868   -9.6739 C   0  0  0  0  0  0  0  0  0  0  0  0
   19.2491  -23.2847  -11.1397 C   0  0  0  0  0  0  0  0  0  0  0  0
   20.1196  -22.1768  -11.6496 C   0  0  0  0  0  0  0  0  0  0  0  0
   20.5144  -22.2982  -13.0897 C   0  0  2  0  0  0  0  0  0  0  0  0
   21.3524  -21.1163  -13.3700 N   0  0  0  0  0  0  0  0  0  0  0  0
   19.3120  -22.1327  -13.9360 C   0  0  0  0  0  0  0  0  0  0  0  0
   18.7256  -23.1611  -14.3494 O   0  0  0  0  0  0  0  0  0  0  0  0
   18.7862  -20.9116  -14.3053 O   0  0  0  0  0  0  0  0  0  0  0  0
  2  1  1  1
  2  4  1  0
  2  3  1  0
  4  5  2  0
  7  6  1  6
  7  9  1  0
  8  4  1  0
  8  7  1  0
  9 19  1  0
 10  9  2  0
 12 11  1  0
 12 13  2  0
 14 12  1  0
 15 14  1  0
 16 15  1  0
 17 16  1  0
 18 17  1  1
 19 18  1  0
 20 18  1  0
 21 20  2  0
 22 20  1  0
M  END
$$$$
