AAR.pdb
     RDKit          3D

 22 21  0  0  1  0  0  0  0  0999 V2000
   25.9853  -13.6154  -19.6758 C   0  0  0  0  0  0  0  0  0  0  0  0
   26.5894  -13.9800  -18.3162 C   0  0  2  0  0  0  0  0  0  0  0  0
   26.4174  -15.3616  -17.9999 N   0  0  0  0  0  0  0  0  0  0  0  0
   25.9313  -13.0911  -17.2927 C   0  0  0  0  0  0  0  0  0  0  0  0
   24.7112  -13.2476  -17.0309 O   0  0  0  0  0  0  0  0  0  0  0  0
   26.9942  -10.3014  -15.0407 C   0  0  0  0  0  0  0  0  0  0  0  0
   25.9526  -11.2040  -15.7171 C   0  0  2  0  0  0  0  0  0  0  0  0
   26.6509  -12.0745  -16.6094 N   0  0  0  0  0  0  0  0  0  0  0  0
   25.0125  -10.2922  -16.4029 C   0  0  0  0  0  0  0  0  0  0  0  0
   25.2057   -9.9067  -17.5831 O   0  0  0  0  0  0  0  0  0  0  0  0
   16.7236  -11.4036  -16.8281 N   0  0  0  0  0  0  0  0  0  0  0  0
   16.9276  -10.1347  -16.2338 C   0  0  0  0  0  0  0  0  0  0  0  0
   15.9951   -9.5913  -15.5392 N   0  0  0  0  0  0  0  0  0  0  0  0
   18.1600   -9.4373  -16.3906 N   0  0  0  0  0  0  0  0  0  0  0  0
   19.2586   -9.9474  -17.1537 C   0  0  0  0  0  0  0  0  0  0  0  0
   20.4493   -9.0266  -17.0265 C   0  0  0  0  0  0  0  0  0  0  0  0
   21.6329   -9.7686  -16.4846 C   0  0  0  0  0  0  0  0  0  0  0  0
   22.8786   -8.9486  -16.3416 C   0  0  2  0  0  0  0  0  0  0  0  0
   23.8705   -9.8439  -15.7154 N   0  0  0  0  0  0  0  0  0  0  0  0
   22.6403   -7.8768  -15.3496 C   0  0  0  0  0  0  0  0  0  0  0  0
   22.8926   -8.1112  -14.1439 O   0  0  0  0  0  0  0  0  0  0  0  0
   22.1545   -6.6241  -15.6636 O   0  0  0  0  0  0  0  0  0  0  0  0
  2  1  1  6
  2  4  1  0
  2  3  1  0
  4  5  2  0
  7  6  1  6
  7  9  1  0
  8  4  1  0
  8  7  1  0
  9 19  1  0
 10  9  2  0
 12 11  1  0
 12 13  2  0
 14 12  1  0
 15 14  1  0
 16 15  1  0
 17 16  1  0
 18 17  1  1
 19 18  1  0
 20 18  1  0
 21 20  2  0
 22 20  1  0
M  END
$$$$
