AAR.pdb
     RDKit          3D

 22 21  0  0  1  0  0  0  0  0999 V2000
   24.3746  -19.5824   -9.7210 C   0  0  0  0  0  0  0  0  0  0  0  0
   23.6087  -20.7738  -10.3042 C   0  0  2  0  0  0  0  0  0  0  0  0
   24.2059  -22.0237   -9.9583 N   0  0  0  0  0  0  0  0  0  0  0  0
   23.5632  -20.5758  -11.7975 C   0  0  0  0  0  0  0  0  0  0  0  0
   24.6108  -20.7358  -12.4747 O   0  0  0  0  0  0  0  0  0  0  0  0
   20.9378  -19.9913  -14.3757 C   0  0  0  0  0  0  0  0  0  0  0  0
   22.3918  -20.0083  -13.8831 C   0  0  2  0  0  0  0  0  0  0  0  0
   22.3654  -20.2115  -12.4689 N   0  0  0  0  0  0  0  0  0  0  0  0
   22.9673  -18.7051  -14.2779 C   0  0  0  0  0  0  0  0  0  0  0  0
   22.6954  -17.6460  -13.6588 O   0  0  0  0  0  0  0  0  0  0  0  0
   26.2550  -21.0457  -14.2006 N   0  0  0  0  0  0  0  0  0  0  0  0
   27.3565  -20.7942  -15.0540 C   0  0  0  0  0  0  0  0  0  0  0  0
   27.8732  -21.7497  -15.7376 N   0  0  0  0  0  0  0  0  0  0  0  0
   27.9126  -19.4879  -15.1735 N   0  0  0  0  0  0  0  0  0  0  0  0
   27.3852  -18.3453  -14.4912 C   0  0  0  0  0  0  0  0  0  0  0  0
   26.9741  -17.2896  -15.4905 C   0  0  0  0  0  0  0  0  0  0  0  0
   25.8274  -17.7730  -16.3251 C   0  0  0  0  0  0  0  0  0  0  0  0
   24.4719  -17.3884  -15.8158 C   0  0  2  0  0  0  0  0  0  0  0  0
   23.8432  -18.6492  -15.3767 N   0  0  0  0  0  0  0  0  0  0  0  0
   23.6462  -16.9155  -16.9490 C   0  0  0  0  0  0  0  0  0  0  0  0
   22.7422  -17.6673  -17.3849 O   0  0  0  0  0  0  0  0  0  0  0  0
   23.8044  -15.6912  -17.5654 O   0  0  0  0  0  0  0  0  0  0  0  0
  2  1  1  1
  2  4  1  0
  2  3  1  0
  4  5  2  0
  7  6  1  1
  7  9  1  0
  8  4  1  0
  8  7  1  0
  9 19  1  0
 10  9  2  0
 12 11  1  0
 12 13  2  0
 14 12  1  0
 15 14  1  0
 16 15  1  0
 17 16  1  0
 18 17  1  6
 19 18  1  0
 20 18  1  0
 21 20  2  0
 22 20  1  0
M  END
$$$$
