AAR.pdb
     RDKit          3D

 22 21  0  0  1  0  0  0  0  0999 V2000
   25.1519  -13.4707  -19.9834 C   0  0  0  0  0  0  0  0  0  0  0  0
   25.6424  -13.9250  -18.6052 C   0  0  2  0  0  0  0  0  0  0  0  0
   25.2434  -15.2618  -18.3015 N   0  0  0  0  0  0  0  0  0  0  0  0
   25.0973  -12.9422  -17.6012 C   0  0  0  0  0  0  0  0  0  0  0  0
   23.8613  -12.9160  -17.3699 O   0  0  0  0  0  0  0  0  0  0  0  0
   26.5114  -10.3142  -15.3453 C   0  0  0  0  0  0  0  0  0  0  0  0
   25.3677  -11.1401  -15.9510 C   0  0  2  0  0  0  0  0  0  0  0  0
   25.9416  -12.0382  -16.9028 N   0  0  0  0  0  0  0  0  0  0  0  0
   24.4382  -10.1615  -16.5541 C   0  0  0  0  0  0  0  0  0  0  0  0
   24.5909   -9.7389  -17.7275 O   0  0  0  0  0  0  0  0  0  0  0  0
   15.8232  -10.2394  -16.6987 N   0  0  0  0  0  0  0  0  0  0  0  0
   16.1568   -8.8993  -17.0109 C   0  0  0  0  0  0  0  0  0  0  0  0
   15.2414   -8.0742  -17.3692 N   0  0  0  0  0  0  0  0  0  0  0  0
   17.5029   -8.4385  -16.9358 N   0  0  0  0  0  0  0  0  0  0  0  0
   18.6042   -9.2860  -16.5920 C   0  0  0  0  0  0  0  0  0  0  0  0
   19.8927   -8.4980  -16.6207 C   0  0  0  0  0  0  0  0  0  0  0  0
   21.0526   -9.3722  -16.2523 C   0  0  0  0  0  0  0  0  0  0  0  0
   22.3919   -8.7046  -16.3242 C   0  0  2  0  0  0  0  0  0  0  0  0
   23.3531   -9.6905  -15.7934 N   0  0  0  0  0  0  0  0  0  0  0  0
   22.4218   -7.5770  -15.3665 C   0  0  0  0  0  0  0  0  0  0  0  0
   22.7809   -7.8039  -14.1867 O   0  0  0  0  0  0  0  0  0  0  0  0
   22.0780   -6.2794  -15.6860 O   0  0  0  0  0  0  0  0  0  0  0  0
  2  1  1  6
  2  4  1  0
  2  3  1  0
  4  5  2  0
  7  6  1  6
  7  9  1  0
  8  4  1  0
  8  7  1  0
  9 19  1  0
 10  9  2  0
 12 11  1  0
 12 13  2  0
 14 12  1  0
 15 14  1  0
 16 15  1  0
 17 16  1  0
 18 17  1  1
 19 18  1  0
 20 18  1  0
 21 20  2  0
 22 20  1  0
M  END
$$$$
