AAR.pdb
     RDKit          3D

 22 21  0  0  1  0  0  0  0  0999 V2000
   28.2962  -14.7390  -16.2239 C   0  0  0  0  0  0  0  0  0  0  0  0
   27.9205  -13.9094  -17.4555 C   0  0  2  0  0  0  0  0  0  0  0  0
   28.9666  -13.8769  -18.4267 N   0  0  0  0  0  0  0  0  0  0  0  0
   27.5779  -12.5268  -16.9635 C   0  0  0  0  0  0  0  0  0  0  0  0
   26.6465  -12.3797  -16.1313 O   0  0  0  0  0  0  0  0  0  0  0  0
   28.8072   -9.0498  -17.5916 C   0  0  0  0  0  0  0  0  0  0  0  0
   27.8524  -10.0838  -16.9782 C   0  0  2  0  0  0  0  0  0  0  0  0
   28.2790  -11.3761  -17.4135 N   0  0  0  0  0  0  0  0  0  0  0  0
   26.5017   -9.7199  -17.4565 C   0  0  0  0  0  0  0  0  0  0  0  0
   26.0787  -10.0800  -18.5835 O   0  0  0  0  0  0  0  0  0  0  0  0
   19.3471   -8.2722  -12.4662 N   0  0  0  0  0  0  0  0  0  0  0  0
   18.9533   -8.0417  -13.8066 C   0  0  0  0  0  0  0  0  0  0  0  0
   17.7220   -7.8112  -14.0857 N   0  0  0  0  0  0  0  0  0  0  0  0
   19.9043   -8.0596  -14.8674 N   0  0  0  0  0  0  0  0  0  0  0  0
   21.2688   -8.4553  -14.6911 C   0  0  0  0  0  0  0  0  0  0  0  0
   22.0337   -8.2651  -15.9798 C   0  0  0  0  0  0  0  0  0  0  0  0
   23.4543   -8.7141  -15.8199 C   0  0  0  0  0  0  0  0  0  0  0  0
   24.3090   -8.5451  -17.0386 C   0  0  2  0  0  0  0  0  0  0  0  0
   25.6672   -8.9495  -16.6271 N   0  0  0  0  0  0  0  0  0  0  0  0
   24.4123   -7.1045  -17.3604 C   0  0  0  0  0  0  0  0  0  0  0  0
   23.4700   -6.5625  -17.9855 O   0  0  0  0  0  0  0  0  0  0  0  0
   25.4854   -6.3085  -17.0162 O   0  0  0  0  0  0  0  0  0  0  0  0
  2  1  1  1
  2  4  1  0
  2  3  1  0
  4  5  2  0
  7  6  1  6
  7  9  1  0
  8  4  1  0
  8  7  1  0
  9 19  1  0
 10  9  2  0
 12 11  1  0
 12 13  2  0
 14 12  1  0
 15 14  1  0
 16 15  1  0
 17 16  1  0
 18 17  1  1
 19 18  1  0
 20 18  1  0
 21 20  2  0
 22 20  1  0
M  END
$$$$
