DFF.pdb
     RDKit          3D

 31 32  0  0  1  0  0  0  0  0999 V2000
   24.3465  -21.5537  -15.8035 N   0  0  0  0  0  0  0  0  0  0  0  0
   24.3429  -20.6931  -14.6352 C   0  0  1  0  0  0  0  0  0  0  0  0
   23.0110  -20.6956  -13.9535 C   0  0  0  0  0  0  0  0  0  0  0  0
   22.0391  -19.8680  -14.7020 C   0  0  0  0  0  0  0  0  0  0  0  0
   22.3806  -19.3901  -15.8064 O   0  0  0  0  0  0  0  0  0  0  0  0
   25.3574  -21.2364  -13.6763 C   0  0  0  0  0  0  0  0  0  0  0  0
   25.2493  -22.4284  -13.2982 O   0  0  0  0  0  0  0  0  0  0  0  0
   20.7705  -19.6159  -14.2063 O   0  0  0  0  0  0  0  0  0  0  0  0
   26.4178  -20.4574  -13.1915 N   0  0  0  0  0  0  0  0  0  0  0  0
   27.3822  -20.9647  -12.1915 C   0  0  1  0  0  0  0  0  0  0  0  0
   28.6853  -20.2632  -12.3942 C   0  0  0  0  0  0  0  0  0  0  0  0
   29.7942  -20.6290  -11.5200 C   0  0  0  0  0  0  0  0  0  0  0  0
   30.0794  -19.9087  -10.3656 C   0  0  0  0  0  0  0  0  0  0  0  0
   31.0967  -20.2651   -9.5106 C   0  0  0  0  0  0  0  0  0  0  0  0
   31.8695  -21.3577   -9.7778 C   0  0  0  0  0  0  0  0  0  0  0  0
   31.6208  -22.0885  -10.8991 C   0  0  0  0  0  0  0  0  0  0  0  0
   30.5856  -21.7256  -11.7690 C   0  0  0  0  0  0  0  0  0  0  0  0
   26.7531  -20.6847  -10.8869 C   0  0  0  0  0  0  0  0  0  0  0  0
   25.8983  -19.7357  -10.7540 O   0  0  0  0  0  0  0  0  0  0  0  0
   27.0394  -21.4304   -9.7304 N   0  0  0  0  0  0  0  0  0  0  0  0
   26.3614  -21.0858   -8.4804 C   0  0  1  0  0  0  0  0  0  0  0  0
   27.1939  -21.7628   -7.3825 C   0  0  0  0  0  0  0  0  0  0  0  0
   27.8358  -20.8064   -6.4793 C   0  0  0  0  0  0  0  0  0  0  0  0
   27.0944  -20.3678   -5.3815 C   0  0  0  0  0  0  0  0  0  0  0  0
   27.6698  -19.4726   -4.5059 C   0  0  0  0  0  0  0  0  0  0  0  0
   28.9572  -18.9944   -4.6789 C   0  0  0  0  0  0  0  0  0  0  0  0
   29.6738  -19.4340   -5.7619 C   0  0  0  0  0  0  0  0  0  0  0  0
   29.1186  -20.3245   -6.6439 C   0  0  0  0  0  0  0  0  0  0  0  0
   26.2628  -19.6395   -8.2475 C   0  0  0  0  0  0  0  0  0  0  0  0
   25.1055  -19.0892   -7.7319 O   0  0  0  0  0  0  0  0  0  0  0  0
   27.2050  -18.8641   -8.5030 O   0  0  0  0  0  0  0  0  0  0  0  0
  2  1  1  6
  2  3  1  0
  3  4  1  0
  4  8  1  0
  5  4  2  0
  6  2  1  0
  6  7  2  0
  9  6  1  0
 10  9  1  0
 10 11  1  1
 12 11  1  0
 12 17  1  0
 13 12  2  0
 14 13  1  0
 14 15  2  0
 15 16  1  0
 16 17  2  0
 18 10  1  0
 19 18  2  0
 20 18  1  0
 21 20  1  0
 21 22  1  1
 22 23  1  0
 23 24  2  0
 24 25  1  0
 26 25  2  0
 27 26  1  0
 28 27  2  0
 28 23  1  0
 29 30  1  0
 29 21  1  0
 31 29  2  0
M  END
$$$$
