DFF.pdb
     RDKit          3D

 31 32  0  0  1  0  0  0  0  0999 V2000
   27.5144  -21.5129  -13.3264 N   0  0  0  0  0  0  0  0  0  0  0  0
   26.9372  -20.3447  -12.6879 C   0  0  1  0  0  0  0  0  0  0  0  0
   25.6612  -19.9294  -13.3496 C   0  0  0  0  0  0  0  0  0  0  0  0
   25.9303  -19.3367  -14.6785 C   0  0  0  0  0  0  0  0  0  0  0  0
   26.9766  -18.6703  -14.8394 O   0  0  0  0  0  0  0  0  0  0  0  0
   26.6267  -20.7172  -11.2706 C   0  0  0  0  0  0  0  0  0  0  0  0
   26.2644  -21.8934  -11.0238 O   0  0  0  0  0  0  0  0  0  0  0  0
   25.0527  -19.5052  -15.7369 O   0  0  0  0  0  0  0  0  0  0  0  0
   26.7281  -19.7964  -10.2180 N   0  0  0  0  0  0  0  0  0  0  0  0
   26.4417  -20.1622   -8.8138 C   0  0  1  0  0  0  0  0  0  0  0  0
   27.0428  -19.1243   -7.9236 C   0  0  0  0  0  0  0  0  0  0  0  0
   27.5607  -19.5586   -6.6310 C   0  0  0  0  0  0  0  0  0  0  0  0
   26.7186  -19.7857   -5.5484 C   0  0  0  0  0  0  0  0  0  0  0  0
   27.1876  -20.2337   -4.3350 C   0  0  0  0  0  0  0  0  0  0  0  0
   28.5195  -20.4722   -4.1572 C   0  0  0  0  0  0  0  0  0  0  0  0
   29.3758  -20.2613   -5.1943 C   0  0  0  0  0  0  0  0  0  0  0  0
   28.8983  -19.8054   -6.4289 C   0  0  0  0  0  0  0  0  0  0  0  0
   24.9701  -20.2318   -8.7362 C   0  0  0  0  0  0  0  0  0  0  0  0
   24.2344  -19.3449   -9.3029 O   0  0  0  0  0  0  0  0  0  0  0  0
   24.2935  -21.2587   -8.0556 N   0  0  0  0  0  0  0  0  0  0  0  0
   22.8306  -21.2489   -8.0339 C   0  0  1  0  0  0  0  0  0  0  0  0
   22.4143  -21.6190   -9.4645 C   0  0  0  0  0  0  0  0  0  0  0  0
   20.9692  -21.8005   -9.6111 C   0  0  0  0  0  0  0  0  0  0  0  0
   20.2060  -20.6626   -9.8756 C   0  0  0  0  0  0  0  0  0  0  0  0
   18.8429  -20.7972  -10.0269 C   0  0  0  0  0  0  0  0  0  0  0  0
   18.2062  -22.0221   -9.9254 C   0  0  0  0  0  0  0  0  0  0  0  0
   18.9686  -23.1314   -9.6652 C   0  0  0  0  0  0  0  0  0  0  0  0
   20.3261  -23.0176   -9.5116 C   0  0  0  0  0  0  0  0  0  0  0  0
   22.2533  -22.1846   -7.0608 C   0  0  0  0  0  0  0  0  0  0  0  0
   20.9876  -21.9731   -6.5498 O   0  0  0  0  0  0  0  0  0  0  0  0
   22.8741  -23.1901   -6.6636 O   0  0  0  0  0  0  0  0  0  0  0  0
  2  1  1  6
  2  3  1  0
  3  4  1  0
  4  8  1  0
  5  4  2  0
  6  2  1  0
  6  7  2  0
  9  6  1  0
 10  9  1  0
 10 11  1  1
 12 11  1  0
 12 17  1  0
 13 12  2  0
 14 13  1  0
 14 15  2  0
 15 16  1  0
 16 17  2  0
 18 10  1  0
 19 18  2  0
 20 18  1  0
 21 20  1  0
 21 22  1  6
 22 23  1  0
 23 24  2  0
 24 25  1  0
 26 25  2  0
 27 26  1  0
 28 27  2  0
 28 23  1  0
 29 30  1  0
 29 21  1  0
 31 29  2  0
M  END
$$$$
