DFF.pdb
     RDKit          3D

 31 32  0  0  1  0  0  0  0  0999 V2000
   18.8321  -12.6739  -16.7318 N   0  0  0  0  0  0  0  0  0  0  0  0
   17.7815  -11.9346  -16.0570 C   0  0  1  0  0  0  0  0  0  0  0  0
   16.9137  -12.8357  -15.2364 C   0  0  0  0  0  0  0  0  0  0  0  0
   15.6714  -13.1723  -15.9665 C   0  0  0  0  0  0  0  0  0  0  0  0
   15.4390  -12.5999  -17.0542 O   0  0  0  0  0  0  0  0  0  0  0  0
   18.4435  -10.9585  -15.1336 C   0  0  0  0  0  0  0  0  0  0  0  0
   19.2760  -11.3901  -14.2992 O   0  0  0  0  0  0  0  0  0  0  0  0
   14.7704  -14.1006  -15.4716 O   0  0  0  0  0  0  0  0  0  0  0  0
   18.1625   -9.5853  -15.1735 N   0  0  0  0  0  0  0  0  0  0  0  0
   18.8027   -8.6177  -14.2563 C   0  0  1  0  0  0  0  0  0  0  0  0
   19.4178   -7.5288  -15.0731 C   0  0  0  0  0  0  0  0  0  0  0  0
   19.9074   -6.3487  -14.3693 C   0  0  0  0  0  0  0  0  0  0  0  0
   21.1227   -6.3555  -13.6943 C   0  0  0  0  0  0  0  0  0  0  0  0
   21.6163   -5.2390  -13.0597 C   0  0  0  0  0  0  0  0  0  0  0  0
   20.9118   -4.0703  -13.0758 C   0  0  0  0  0  0  0  0  0  0  0  0
   19.7170   -4.0243  -13.7266 C   0  0  0  0  0  0  0  0  0  0  0  0
   19.2151   -5.1606  -14.3722 C   0  0  0  0  0  0  0  0  0  0  0  0
   17.7126   -8.1566  -13.3757 C   0  0  0  0  0  0  0  0  0  0  0  0
   16.5266   -7.9709  -13.8317 O   0  0  0  0  0  0  0  0  0  0  0  0
   17.8990   -7.9035  -12.0057 N   0  0  0  0  0  0  0  0  0  0  0  0
   16.8125   -7.2838  -11.2466 C   0  0  1  0  0  0  0  0  0  0  0  0
   16.4392   -8.3207  -10.1777 C   0  0  0  0  0  0  0  0  0  0  0  0
   15.3181   -7.8978   -9.3370 C   0  0  0  0  0  0  0  0  0  0  0  0
   15.6210   -7.1611   -8.1912 C   0  0  0  0  0  0  0  0  0  0  0  0
   14.5896   -6.7400   -7.3800 C   0  0  0  0  0  0  0  0  0  0  0  0
   13.2646   -7.0230   -7.6636 C   0  0  0  0  0  0  0  0  0  0  0  0
   12.9819   -7.7476   -8.7926 C   0  0  0  0  0  0  0  0  0  0  0  0
   13.9944   -8.1752   -9.6120 C   0  0  0  0  0  0  0  0  0  0  0  0
   17.1851   -6.0047  -10.6293 C   0  0  0  0  0  0  0  0  0  0  0  0
   18.3980   -5.8644   -9.9835 O   0  0  0  0  0  0  0  0  0  0  0  0
   16.4324   -5.0115  -10.6631 O   0  0  0  0  0  0  0  0  0  0  0  0
  2  1  1  1
  2  3  1  0
  3  4  1  0
  4  8  1  0
  5  4  2  0
  6  2  1  0
  6  7  2  0
  9  6  1  0
 10  9  1  0
 10 11  1  6
 12 11  1  0
 12 17  1  0
 13 12  2  0
 14 13  1  0
 14 15  2  0
 15 16  1  0
 16 17  2  0
 18 10  1  0
 19 18  2  0
 20 18  1  0
 21 20  1  0
 21 22  1  1
 22 23  1  0
 23 24  2  0
 24 25  1  0
 26 25  2  0
 27 26  1  0
 28 27  2  0
 28 23  1  0
 29 30  1  0
 29 21  1  0
 31 29  2  0
M  END
$$$$
