DFF.pdb
     RDKit          3D

 31 32  0  0  1  0  0  0  0  0999 V2000
   30.2330  -24.9515  -16.8697 N   0  0  0  0  0  0  0  0  0  0  0  0
   29.0812  -24.3291  -17.4955 C   0  0  1  0  0  0  0  0  0  0  0  0
   28.0043  -25.3272  -17.7829 C   0  0  0  0  0  0  0  0  0  0  0  0
   28.2157  -25.9586  -19.1043 C   0  0  0  0  0  0  0  0  0  0  0  0
   29.1768  -25.5753  -19.8074 O   0  0  0  0  0  0  0  0  0  0  0  0
   28.5368  -23.3222  -16.5293 C   0  0  0  0  0  0  0  0  0  0  0  0
   28.5171  -23.6106  -15.3079 O   0  0  0  0  0  0  0  0  0  0  0  0
   27.3767  -26.9567  -19.5718 O   0  0  0  0  0  0  0  0  0  0  0  0
   28.0515  -22.0745  -16.9465 N   0  0  0  0  0  0  0  0  0  0  0  0
   27.6307  -21.0272  -15.9908 C   0  0  1  0  0  0  0  0  0  0  0  0
   27.8722  -19.6926  -16.6164 C   0  0  0  0  0  0  0  0  0  0  0  0
   27.1937  -18.5396  -16.0351 C   0  0  0  0  0  0  0  0  0  0  0  0
   27.5047  -18.0777  -14.7612 C   0  0  0  0  0  0  0  0  0  0  0  0
   26.9018  -16.9681  -14.2152 C   0  0  0  0  0  0  0  0  0  0  0  0
   25.9627  -16.2762  -14.9237 C   0  0  0  0  0  0  0  0  0  0  0  0
   25.6313  -16.6979  -16.1748 C   0  0  0  0  0  0  0  0  0  0  0  0
   26.2449  -17.8271  -16.7301 C   0  0  0  0  0  0  0  0  0  0  0  0
   26.2074  -21.3104  -15.7254 C   0  0  0  0  0  0  0  0  0  0  0  0
   25.4096  -21.6408  -16.6759 O   0  0  0  0  0  0  0  0  0  0  0  0
   25.6474  -21.2447  -14.4379 N   0  0  0  0  0  0  0  0  0  0  0  0
   24.2186  -21.5135  -14.2733 C   0  0  1  0  0  0  0  0  0  0  0  0
   24.1400  -22.5298  -13.1253 C   0  0  0  0  0  0  0  0  0  0  0  0
   24.6852  -22.0160  -11.8678 C   0  0  0  0  0  0  0  0  0  0  0  0
   26.0363  -22.2540  -11.6126 C   0  0  0  0  0  0  0  0  0  0  0  0
   26.5852  -21.7784  -10.4415 C   0  0  0  0  0  0  0  0  0  0  0  0
   25.8419  -21.0731   -9.5108 C   0  0  0  0  0  0  0  0  0  0  0  0
   24.5158  -20.8466   -9.7748 C   0  0  0  0  0  0  0  0  0  0  0  0
   23.9518  -21.3119  -10.9344 C   0  0  0  0  0  0  0  0  0  0  0  0
   23.4290  -20.3141  -13.9672 C   0  0  0  0  0  0  0  0  0  0  0  0
   22.0615  -20.3058  -14.1622 O   0  0  0  0  0  0  0  0  0  0  0  0
   23.9542  -19.2726  -13.5271 O   0  0  0  0  0  0  0  0  0  0  0  0
  2  1  1  1
  2  3  1  0
  3  4  1  0
  4  8  1  0
  5  4  2  0
  6  2  1  0
  6  7  2  0
  9  6  1  0
 10  9  1  0
 10 11  1  6
 12 11  1  0
 12 17  1  0
 13 12  2  0
 14 13  1  0
 14 15  2  0
 15 16  1  0
 16 17  2  0
 18 10  1  0
 19 18  2  0
 20 18  1  0
 21 20  1  0
 21 22  1  1
 22 23  1  0
 23 24  2  0
 24 25  1  0
 26 25  2  0
 27 26  1  0
 28 27  2  0
 28 23  1  0
 29 30  1  0
 29 21  1  0
 31 29  2  0
M  END
$$$$
