DFF.pdb
     RDKit          3D

 31 32  0  0  1  0  0  0  0  0999 V2000
   15.7453   -9.8235  -18.0591 N   0  0  0  0  0  0  0  0  0  0  0  0
   16.6568   -9.9900  -16.9424 C   0  0  1  0  0  0  0  0  0  0  0  0
   17.2664  -11.3563  -16.9280 C   0  0  0  0  0  0  0  0  0  0  0  0
   16.2490  -12.3793  -16.5995 C   0  0  0  0  0  0  0  0  0  0  0  0
   16.1259  -13.3694  -17.3540 O   0  0  0  0  0  0  0  0  0  0  0  0
   17.7593   -8.9902  -17.1122 C   0  0  0  0  0  0  0  0  0  0  0  0
   18.1761   -8.7457  -18.2706 O   0  0  0  0  0  0  0  0  0  0  0  0
   15.4386  -12.2609  -15.4825 O   0  0  0  0  0  0  0  0  0  0  0  0
   18.3361   -8.3234  -16.0217 N   0  0  0  0  0  0  0  0  0  0  0  0
   19.3361   -7.2467  -16.1891 C   0  0  1  0  0  0  0  0  0  0  0  0
   18.8936   -6.0634  -15.3920 C   0  0  0  0  0  0  0  0  0  0  0  0
   19.8196   -4.9426  -15.2731 C   0  0  0  0  0  0  0  0  0  0  0  0
   20.6933   -4.8311  -14.1975 C   0  0  0  0  0  0  0  0  0  0  0  0
   21.5996   -3.8014  -14.0917 C   0  0  0  0  0  0  0  0  0  0  0  0
   21.6671   -2.8416  -15.0596 C   0  0  0  0  0  0  0  0  0  0  0  0
   20.8275   -2.9166  -16.1285 C   0  0  0  0  0  0  0  0  0  0  0  0
   19.9053   -3.9645  -16.2358 C   0  0  0  0  0  0  0  0  0  0  0  0
   20.6052   -7.8365  -15.7226 C   0  0  0  0  0  0  0  0  0  0  0  0
   20.6701   -8.4723  -14.6088 O   0  0  0  0  0  0  0  0  0  0  0  0
   21.7995   -7.7476  -16.4585 N   0  0  0  0  0  0  0  0  0  0  0  0
   23.0520   -8.1649  -15.8276 C   0  0  1  0  0  0  0  0  0  0  0  0
   23.7280   -9.0761  -16.8619 C   0  0  0  0  0  0  0  0  0  0  0  0
   25.0378   -9.5629  -16.4262 C   0  0  0  0  0  0  0  0  0  0  0  0
   25.0662  -10.7465  -15.6874 C   0  0  0  0  0  0  0  0  0  0  0  0
   26.2829  -11.2382  -15.2668 C   0  0  0  0  0  0  0  0  0  0  0  0
   27.4765  -10.5980  -15.5523 C   0  0  0  0  0  0  0  0  0  0  0  0
   27.4335   -9.4362  -16.2789 C   0  0  0  0  0  0  0  0  0  0  0  0
   26.2327   -8.9314  -16.7062 C   0  0  0  0  0  0  0  0  0  0  0  0
   23.9270   -7.0429  -15.4653 C   0  0  0  0  0  0  0  0  0  0  0  0
   24.3169   -6.1214  -16.4175 O   0  0  0  0  0  0  0  0  0  0  0  0
   24.3461   -6.8816  -14.3023 O   0  0  0  0  0  0  0  0  0  0  0  0
  2  1  1  6
  2  3  1  0
  3  4  1  0
  4  8  1  0
  5  4  2  0
  6  2  1  0
  6  7  2  0
  9  6  1  0
 10  9  1  0
 10 11  1  1
 12 11  1  0
 12 17  1  0
 13 12  2  0
 14 13  1  0
 14 15  2  0
 15 16  1  0
 16 17  2  0
 18 10  1  0
 19 18  2  0
 20 18  1  0
 21 20  1  0
 21 22  1  6
 22 23  1  0
 23 24  2  0
 24 25  1  0
 26 25  2  0
 27 26  1  0
 28 27  2  0
 28 23  1  0
 29 30  1  0
 29 21  1  0
 31 29  2  0
M  END
$$$$
