DFF.pdb
     RDKit          3D

 31 32  0  0  1  0  0  0  0  0999 V2000
   22.5553   -9.0546  -20.0893 N   0  0  0  0  0  0  0  0  0  0  0  0
   23.0409   -8.0649  -19.1459 C   0  0  1  0  0  0  0  0  0  0  0  0
   23.0010   -6.6858  -19.7249 C   0  0  0  0  0  0  0  0  0  0  0  0
   24.0299   -6.5307  -20.7770 C   0  0  0  0  0  0  0  0  0  0  0  0
   23.7592   -5.8433  -21.7865 O   0  0  0  0  0  0  0  0  0  0  0  0
   22.1309   -8.0966  -17.9564 C   0  0  0  0  0  0  0  0  0  0  0  0
   20.8919   -8.1527  -18.1487 O   0  0  0  0  0  0  0  0  0  0  0  0
   25.2750   -7.1271  -20.6648 O   0  0  0  0  0  0  0  0  0  0  0  0
   22.6196   -8.0657  -16.6423 N   0  0  0  0  0  0  0  0  0  0  0  0
   21.7265   -8.0800  -15.4635 C   0  0  1  0  0  0  0  0  0  0  0  0
   22.1889   -9.1540  -14.5341 C   0  0  0  0  0  0  0  0  0  0  0  0
   22.0728  -10.5363  -14.9855 C   0  0  0  0  0  0  0  0  0  0  0  0
   20.8562  -11.2086  -14.9665 C   0  0  0  0  0  0  0  0  0  0  0  0
   20.7231  -12.4986  -15.4260 C   0  0  0  0  0  0  0  0  0  0  0  0
   21.8040  -13.1672  -15.9231 C   0  0  0  0  0  0  0  0  0  0  0  0
   23.0127  -12.5420  -15.9581 C   0  0  0  0  0  0  0  0  0  0  0  0
   23.1478  -11.2294  -15.4904 C   0  0  0  0  0  0  0  0  0  0  0  0
   21.8277   -6.7210  -14.8986 C   0  0  0  0  0  0  0  0  0  0  0  0
   22.9378   -6.0759  -14.9204 O   0  0  0  0  0  0  0  0  0  0  0  0
   20.7334   -6.0565  -14.3185 N   0  0  0  0  0  0  0  0  0  0  0  0
   20.7446   -4.5947  -14.2576 C   0  0  1  0  0  0  0  0  0  0  0  0
   21.1072   -4.1453  -15.6801 C   0  0  0  0  0  0  0  0  0  0  0  0
   21.0192   -2.6956  -15.8621 C   0  0  0  0  0  0  0  0  0  0  0  0
   22.0571   -1.9220  -15.3407 C   0  0  0  0  0  0  0  0  0  0  0  0
   22.0108   -0.5540  -15.4999 C   0  0  0  0  0  0  0  0  0  0  0  0
   20.9704    0.0779  -16.1589 C   0  0  0  0  0  0  0  0  0  0  0  0
   19.9576   -0.6947  -16.6659 C   0  0  0  0  0  0  0  0  0  0  0  0
   19.9859   -2.0572  -16.5176 C   0  0  0  0  0  0  0  0  0  0  0  0
   19.4626   -4.0167  -13.8354 C   0  0  0  0  0  0  0  0  0  0  0  0
   18.2899   -4.7330  -13.9759 O   0  0  0  0  0  0  0  0  0  0  0  0
   19.3841   -2.8744  -13.3422 O   0  0  0  0  0  0  0  0  0  0  0  0
  2  1  1  6
  2  3  1  0
  3  4  1  0
  4  8  1  0
  5  4  2  0
  6  2  1  0
  6  7  2  0
  9  6  1  0
 10  9  1  0
 10 11  1  1
 12 11  1  0
 12 17  1  0
 13 12  2  0
 14 13  1  0
 14 15  2  0
 15 16  1  0
 16 17  2  0
 18 10  1  0
 19 18  2  0
 20 18  1  0
 21 20  1  0
 21 22  1  6
 22 23  1  0
 23 24  2  0
 24 25  1  0
 26 25  2  0
 27 26  1  0
 28 27  2  0
 28 23  1  0
 29 30  1  0
 29 21  1  0
 31 29  2  0
M  END
$$$$
