DFF.pdb
     RDKit          3D

 31 32  0  0  1  0  0  0  0  0999 V2000
   26.8785  -19.6572  -17.6474 N   0  0  0  0  0  0  0  0  0  0  0  0
   26.8480  -20.7228  -16.6629 C   0  0  1  0  0  0  0  0  0  0  0  0
   28.2269  -21.1679  -16.2901 C   0  0  0  0  0  0  0  0  0  0  0  0
   28.7393  -22.1553  -17.2659 C   0  0  0  0  0  0  0  0  0  0  0  0
   28.0064  -22.4922  -18.2220 O   0  0  0  0  0  0  0  0  0  0  0  0
   26.1868  -20.1778  -15.4342 C   0  0  0  0  0  0  0  0  0  0  0  0
   26.4126  -18.9870  -15.1080 O   0  0  0  0  0  0  0  0  0  0  0  0
   30.0034  -22.7074  -17.1405 O   0  0  0  0  0  0  0  0  0  0  0  0
   25.3282  -20.9539  -14.6425 N   0  0  0  0  0  0  0  0  0  0  0  0
   24.6477  -20.4134  -13.4458 C   0  0  1  0  0  0  0  0  0  0  0  0
   23.2150  -20.8337  -13.4873 C   0  0  0  0  0  0  0  0  0  0  0  0
   22.3773  -20.4974  -12.3414 C   0  0  0  0  0  0  0  0  0  0  0  0
   22.2019  -21.3818  -11.2832 C   0  0  0  0  0  0  0  0  0  0  0  0
   21.4474  -21.0633  -10.1777 C   0  0  0  0  0  0  0  0  0  0  0  0
   20.8381  -19.8455  -10.0877 C   0  0  0  0  0  0  0  0  0  0  0  0
   20.9865  -18.9523  -11.1042 C   0  0  0  0  0  0  0  0  0  0  0  0
   21.7542  -19.2767  -12.2291 C   0  0  0  0  0  0  0  0  0  0  0  0
   25.3975  -20.9699  -12.3036 C   0  0  0  0  0  0  0  0  0  0  0  0
   25.8075  -22.1868  -12.3104 O   0  0  0  0  0  0  0  0  0  0  0  0
   25.7106  -20.2143  -11.1605 N   0  0  0  0  0  0  0  0  0  0  0  0
   26.2647  -20.8971   -9.9911 C   0  0  1  0  0  0  0  0  0  0  0  0
   27.6017  -20.1922   -9.7218 C   0  0  0  0  0  0  0  0  0  0  0  0
   27.9249  -20.1032   -8.2970 C   0  0  0  0  0  0  0  0  0  0  0  0
   27.4850  -18.9699   -7.6116 C   0  0  0  0  0  0  0  0  0  0  0  0
   27.7652  -18.8560   -6.2672 C   0  0  0  0  0  0  0  0  0  0  0  0
   28.4674  -19.8271   -5.5745 C   0  0  0  0  0  0  0  0  0  0  0  0
   28.8933  -20.9351   -6.2606 C   0  0  0  0  0  0  0  0  0  0  0  0
   28.6243  -21.0663   -7.5984 C   0  0  0  0  0  0  0  0  0  0  0  0
   25.3931  -20.8375   -8.8110 C   0  0  0  0  0  0  0  0  0  0  0  0
   24.4764  -19.8143   -8.6669 O   0  0  0  0  0  0  0  0  0  0  0  0
   25.4464  -21.6944   -7.9071 O   0  0  0  0  0  0  0  0  0  0  0  0
  2  1  1  6
  2  3  1  0
  3  4  1  0
  4  8  1  0
  5  4  2  0
  6  2  1  0
  6  7  2  0
  9  6  1  0
 10  9  1  0
 10 11  1  1
 12 11  1  0
 12 17  1  0
 13 12  2  0
 14 13  1  0
 14 15  2  0
 15 16  1  0
 16 17  2  0
 18 10  1  0
 19 18  2  0
 20 18  1  0
 21 20  1  0
 21 22  1  1
 22 23  1  0
 23 24  2  0
 24 25  1  0
 26 25  2  0
 27 26  1  0
 28 27  2  0
 28 23  1  0
 29 30  1  0
 29 21  1  0
 31 29  2  0
M  END
$$$$
