DFF.pdb
     RDKit          3D

 31 32  0  0  1  0  0  0  0  0999 V2000
   28.3820  -21.9983  -16.8017 N   0  0  0  0  0  0  0  0  0  0  0  0
   27.9710  -20.8122  -16.0739 C   0  0  1  0  0  0  0  0  0  0  0  0
   26.6974  -20.2459  -16.6178 C   0  0  0  0  0  0  0  0  0  0  0  0
   26.9367  -19.5695  -17.9120 C   0  0  0  0  0  0  0  0  0  0  0  0
   26.3321  -19.9812  -18.9268 O   0  0  0  0  0  0  0  0  0  0  0  0
   27.7294  -21.2205  -14.6530 C   0  0  0  0  0  0  0  0  0  0  0  0
   27.1684  -22.3211  -14.4310 O   0  0  0  0  0  0  0  0  0  0  0  0
   27.8095  -18.4993  -18.0185 O   0  0  0  0  0  0  0  0  0  0  0  0
   28.1090  -20.4143  -13.5703 N   0  0  0  0  0  0  0  0  0  0  0  0
   27.8517  -20.7998  -12.1658 C   0  0  1  0  0  0  0  0  0  0  0  0
   28.8001  -20.0495  -11.2891 C   0  0  0  0  0  0  0  0  0  0  0  0
   28.6193  -20.1597   -9.8458 C   0  0  0  0  0  0  0  0  0  0  0  0
   27.8529  -19.2424   -9.1359 C   0  0  0  0  0  0  0  0  0  0  0  0
   27.6407  -19.3557   -7.7813 C   0  0  0  0  0  0  0  0  0  0  0  0
   28.1878  -20.3928   -7.0831 C   0  0  0  0  0  0  0  0  0  0  0  0
   28.9448  -21.3115   -7.7435 C   0  0  0  0  0  0  0  0  0  0  0  0
   29.1607  -21.1959   -9.1219 C   0  0  0  0  0  0  0  0  0  0  0  0
   26.4346  -20.4600  -11.9363 C   0  0  0  0  0  0  0  0  0  0  0  0
   25.9592  -19.3234  -12.2984 O   0  0  0  0  0  0  0  0  0  0  0  0
   25.5309  -21.3460  -11.3249 N   0  0  0  0  0  0  0  0  0  0  0  0
   24.2372  -20.8353  -10.8707 C   0  0  1  0  0  0  0  0  0  0  0  0
   23.2017  -21.5542  -11.7470 C   0  0  0  0  0  0  0  0  0  0  0  0
   23.0116  -20.9146  -13.0498 C   0  0  0  0  0  0  0  0  0  0  0  0
   22.1414  -19.8251  -13.1057 C   0  0  0  0  0  0  0  0  0  0  0  0
   21.9440  -19.1938  -14.3146 C   0  0  0  0  0  0  0  0  0  0  0  0
   22.5793  -19.6037  -15.4741 C   0  0  0  0  0  0  0  0  0  0  0  0
   23.4315  -20.6755  -15.4042 C   0  0  0  0  0  0  0  0  0  0  0  0
   23.6408  -21.3164  -14.2106 C   0  0  0  0  0  0  0  0  0  0  0  0
   23.9790  -21.0794   -9.4461 C   0  0  0  0  0  0  0  0  0  0  0  0
   22.8360  -20.5881   -8.8460 O   0  0  0  0  0  0  0  0  0  0  0  0
   24.7697  -21.7287   -8.7338 O   0  0  0  0  0  0  0  0  0  0  0  0
  2  1  1  6
  2  3  1  0
  3  4  1  0
  4  8  1  0
  5  4  2  0
  6  2  1  0
  6  7  2  0
  9  6  1  0
 10  9  1  0
 10 11  1  1
 12 11  1  0
 12 17  1  0
 13 12  2  0
 14 13  1  0
 14 15  2  0
 15 16  1  0
 16 17  2  0
 18 10  1  0
 19 18  2  0
 20 18  1  0
 21 20  1  0
 21 22  1  6
 22 23  1  0
 23 24  2  0
 24 25  1  0
 26 25  2  0
 27 26  1  0
 28 27  2  0
 28 23  1  0
 29 30  1  0
 29 21  1  0
 31 29  2  0
M  END
$$$$
