DFF.pdb
     RDKit          3D

 31 32  0  0  1  0  0  0  0  0999 V2000
   27.8865  -22.6938  -17.1265 N   0  0  0  0  0  0  0  0  0  0  0  0
   27.5537  -21.3955  -16.5703 C   0  0  1  0  0  0  0  0  0  0  0  0
   26.6912  -20.6024  -17.5008 C   0  0  0  0  0  0  0  0  0  0  0  0
   27.4764  -20.1208  -18.6588 C   0  0  0  0  0  0  0  0  0  0  0  0
   27.1123  -20.4473  -19.8102 O   0  0  0  0  0  0  0  0  0  0  0  0
   26.7813  -21.6338  -15.3092 C   0  0  0  0  0  0  0  0  0  0  0  0
   25.8312  -22.4537  -15.3320 O   0  0  0  0  0  0  0  0  0  0  0  0
   28.5962  -19.3229  -18.4921 O   0  0  0  0  0  0  0  0  0  0  0  0
   27.0866  -20.9721  -14.1111 N   0  0  0  0  0  0  0  0  0  0  0  0
   26.3267  -21.2004  -12.8630 C   0  0  1  0  0  0  0  0  0  0  0  0
   27.0852  -20.5901  -11.7302 C   0  0  0  0  0  0  0  0  0  0  0  0
   26.4305  -20.5372  -10.4277 C   0  0  0  0  0  0  0  0  0  0  0  0
   26.4489  -19.3850   -9.6499 C   0  0  0  0  0  0  0  0  0  0  0  0
   25.8026  -19.3073   -8.4378 C   0  0  0  0  0  0  0  0  0  0  0  0
   25.1116  -20.3810   -7.9560 C   0  0  0  0  0  0  0  0  0  0  0  0
   25.0707  -21.5273   -8.6891 C   0  0  0  0  0  0  0  0  0  0  0  0
   25.7285  -21.6062   -9.9224 C   0  0  0  0  0  0  0  0  0  0  0  0
   25.0123  -20.5752  -13.1035 C   0  0  0  0  0  0  0  0  0  0  0  0
   24.9203  -19.3502  -13.4777 O   0  0  0  0  0  0  0  0  0  0  0  0
   23.8009  -21.2708  -12.9482 N   0  0  0  0  0  0  0  0  0  0  0  0
   22.5416  -20.5432  -13.1086 C   0  0  1  0  0  0  0  0  0  0  0  0
   22.1394  -20.7725  -14.5723 C   0  0  0  0  0  0  0  0  0  0  0  0
   20.8784  -20.1201  -14.9282 C   0  0  0  0  0  0  0  0  0  0  0  0
   19.7411  -20.9254  -15.0029 C   0  0  0  0  0  0  0  0  0  0  0  0
   18.5351  -20.3436  -15.3283 C   0  0  0  0  0  0  0  0  0  0  0  0
   18.4141  -18.9884  -15.5832 C   0  0  0  0  0  0  0  0  0  0  0  0
   19.5396  -18.2095  -15.5061 C   0  0  0  0  0  0  0  0  0  0  0  0
   20.7484  -18.7701  -15.1838 C   0  0  0  0  0  0  0  0  0  0  0  0
   21.4838  -20.9959  -12.1966 C   0  0  0  0  0  0  0  0  0  0  0  0
   20.6421  -20.0837  -11.5906 O   0  0  0  0  0  0  0  0  0  0  0  0
   21.3077  -22.2026  -11.9373 O   0  0  0  0  0  0  0  0  0  0  0  0
  2  1  1  6
  2  3  1  0
  3  4  1  0
  4  8  1  0
  5  4  2  0
  6  2  1  0
  6  7  2  0
  9  6  1  0
 10  9  1  0
 10 11  1  1
 12 11  1  0
 12 17  1  0
 13 12  2  0
 14 13  1  0
 14 15  2  0
 15 16  1  0
 16 17  2  0
 18 10  1  0
 19 18  2  0
 20 18  1  0
 21 20  1  0
 21 22  1  6
 22 23  1  0
 23 24  2  0
 24 25  1  0
 26 25  2  0
 27 26  1  0
 28 27  2  0
 28 23  1  0
 29 30  1  0
 29 21  1  0
 31 29  2  0
M  END
$$$$
