DFF.pdb
     RDKit          3D

 31 32  0  0  1  0  0  0  0  0999 V2000
   25.4147  -33.5724  -16.2842 N   0  0  0  0  0  0  0  0  0  0  0  0
   24.8276  -32.4614  -17.0099 C   0  0  1  0  0  0  0  0  0  0  0  0
   23.4194  -32.2026  -16.5757 C   0  0  0  0  0  0  0  0  0  0  0  0
   22.5026  -33.2160  -17.1432 C   0  0  0  0  0  0  0  0  0  0  0  0
   21.6676  -33.7616  -16.3885 O   0  0  0  0  0  0  0  0  0  0  0  0
   25.6420  -31.2434  -16.6985 C   0  0  0  0  0  0  0  0  0  0  0  0
   26.0386  -31.0705  -15.5203 O   0  0  0  0  0  0  0  0  0  0  0  0
   22.5524  -33.5674  -18.4821 O   0  0  0  0  0  0  0  0  0  0  0  0
   25.9724  -30.2964  -17.6785 N   0  0  0  0  0  0  0  0  0  0  0  0
   26.9109  -29.1827  -17.4208 C   0  0  1  0  0  0  0  0  0  0  0  0
   27.9032  -29.1340  -18.5362 C   0  0  0  0  0  0  0  0  0  0  0  0
   28.8230  -28.0024  -18.5751 C   0  0  0  0  0  0  0  0  0  0  0  0
   30.0503  -28.0390  -17.9231 C   0  0  0  0  0  0  0  0  0  0  0  0
   30.9450  -26.9956  -17.9835 C   0  0  0  0  0  0  0  0  0  0  0  0
   30.6461  -25.8731  -18.6998 C   0  0  0  0  0  0  0  0  0  0  0  0
   29.4535  -25.7999  -19.3520 C   0  0  0  0  0  0  0  0  0  0  0  0
   28.5432  -26.8618  -19.2903 C   0  0  0  0  0  0  0  0  0  0  0  0
   26.0561  -27.9836  -17.3330 C   0  0  0  0  0  0  0  0  0  0  0  0
   25.0270  -27.8472  -18.0888 O   0  0  0  0  0  0  0  0  0  0  0  0
   26.3060  -26.9377  -16.4278 N   0  0  0  0  0  0  0  0  0  0  0  0
   25.4129  -25.7789  -16.4215 C   0  0  1  0  0  0  0  0  0  0  0  0
   25.3905  -25.3084  -14.9603 C   0  0  0  0  0  0  0  0  0  0  0  0
   24.4398  -24.2208  -14.7238 C   0  0  0  0  0  0  0  0  0  0  0  0
   24.9282  -22.9161  -14.8057 C   0  0  0  0  0  0  0  0  0  0  0  0
   24.0596  -21.8671  -14.5960 C   0  0  0  0  0  0  0  0  0  0  0  0
   22.7202  -22.0640  -14.3070 C   0  0  0  0  0  0  0  0  0  0  0  0
   22.2543  -23.3511  -14.2297 C   0  0  0  0  0  0  0  0  0  0  0  0
   23.1031  -24.4078  -14.4353 C   0  0  0  0  0  0  0  0  0  0  0  0
   25.8501  -24.6981  -17.3141 C   0  0  0  0  0  0  0  0  0  0  0  0
   27.1627  -24.2682  -17.3045 O   0  0  0  0  0  0  0  0  0  0  0  0
   25.0654  -24.1350  -18.1022 O   0  0  0  0  0  0  0  0  0  0  0  0
  2  1  1  1
  2  3  1  0
  3  4  1  0
  4  8  1  0
  5  4  2  0
  6  2  1  0
  6  7  2  0
  9  6  1  0
 10  9  1  0
 10 11  1  6
 12 11  1  0
 12 17  1  0
 13 12  2  0
 14 13  1  0
 14 15  2  0
 15 16  1  0
 16 17  2  0
 18 10  1  0
 19 18  2  0
 20 18  1  0
 21 20  1  0
 21 22  1  1
 22 23  1  0
 23 24  2  0
 24 25  1  0
 26 25  2  0
 27 26  1  0
 28 27  2  0
 28 23  1  0
 29 30  1  0
 29 21  1  0
 31 29  2  0
M  END
$$$$
