DFF.pdb
     RDKit          3D

 31 32  0  0  1  0  0  0  0  0999 V2000
   12.6943  -18.2622    1.7646 N   0  0  0  0  0  0  0  0  0  0  0  0
   12.9294  -17.8015    3.1203 C   0  0  1  0  0  0  0  0  0  0  0  0
   11.9786  -18.4313    4.0887 C   0  0  0  0  0  0  0  0  0  0  0  0
   10.9207  -17.4738    4.4806 C   0  0  0  0  0  0  0  0  0  0  0  0
    9.8928  -17.9104    5.0441 O   0  0  0  0  0  0  0  0  0  0  0  0
   14.3192  -18.2133    3.4980 C   0  0  0  0  0  0  0  0  0  0  0  0
   14.8198  -19.2209    2.9415 O   0  0  0  0  0  0  0  0  0  0  0  0
   11.0474  -16.1162    4.2369 O   0  0  0  0  0  0  0  0  0  0  0  0
   15.0729  -17.5108    4.4492 N   0  0  0  0  0  0  0  0  0  0  0  0
   16.4630  -17.8823    4.7914 C   0  0  1  0  0  0  0  0  0  0  0  0
   17.2272  -16.6327    5.0840 C   0  0  0  0  0  0  0  0  0  0  0  0
   17.7051  -15.8502    3.9495 C   0  0  0  0  0  0  0  0  0  0  0  0
   17.5340  -14.4717    3.8921 C   0  0  0  0  0  0  0  0  0  0  0  0
   18.0142  -13.7153    2.8480 C   0  0  0  0  0  0  0  0  0  0  0  0
   18.6855  -14.3095    1.8190 C   0  0  0  0  0  0  0  0  0  0  0  0
   18.8729  -15.6577    1.8396 C   0  0  0  0  0  0  0  0  0  0  0  0
   18.3840  -16.4272    2.9021 C   0  0  0  0  0  0  0  0  0  0  0  0
   16.3361  -18.7864    5.9502 C   0  0  0  0  0  0  0  0  0  0  0  0
   15.5228  -18.5242    6.9087 O   0  0  0  0  0  0  0  0  0  0  0  0
   17.0786  -19.9736    6.0717 N   0  0  0  0  0  0  0  0  0  0  0  0
   16.8693  -20.8220    7.2453 C   0  0  1  0  0  0  0  0  0  0  0  0
   16.3609  -22.1557    6.6799 C   0  0  0  0  0  0  0  0  0  0  0  0
   17.3678  -22.8616    5.8858 C   0  0  0  0  0  0  0  0  0  0  0  0
   17.4127  -22.5845    4.5188 C   0  0  0  0  0  0  0  0  0  0  0  0
   18.3529  -23.2255    3.7415 C   0  0  0  0  0  0  0  0  0  0  0  0
   19.2533  -24.1339    4.2708 C   0  0  0  0  0  0  0  0  0  0  0  0
   19.1976  -24.3963    5.6153 C   0  0  0  0  0  0  0  0  0  0  0  0
   18.2693  -23.7686    6.4049 C   0  0  0  0  0  0  0  0  0  0  0  0
   18.0827  -21.0207    8.0478 C   0  0  0  0  0  0  0  0  0  0  0  0
   18.0287  -21.7139    9.2413 O   0  0  0  0  0  0  0  0  0  0  0  0
   19.1912  -20.5774    7.6889 O   0  0  0  0  0  0  0  0  0  0  0  0
  2  1  1  6
  2  3  1  0
  3  4  1  0
  4  8  1  0
  5  4  2  0
  6  2  1  0
  6  7  2  0
  9  6  1  0
 10  9  1  0
 10 11  1  1
 12 11  1  0
 12 17  1  0
 13 12  2  0
 14 13  1  0
 14 15  2  0
 15 16  1  0
 16 17  2  0
 18 10  1  0
 19 18  2  0
 20 18  1  0
 21 20  1  0
 21 22  1  6
 22 23  1  0
 23 24  2  0
 24 25  1  0
 26 25  2  0
 27 26  1  0
 28 27  2  0
 28 23  1  0
 29 30  1  0
 29 21  1  0
 31 29  2  0
M  END
$$$$
