DFF.pdb
     RDKit          3D

 31 32  0  0  1  0  0  0  0  0999 V2000
   28.9672  -22.0463  -16.4718 N   0  0  0  0  0  0  0  0  0  0  0  0
   28.4927  -20.8454  -15.8100 C   0  0  1  0  0  0  0  0  0  0  0  0
   27.2661  -20.3002  -16.4710 C   0  0  0  0  0  0  0  0  0  0  0  0
   27.6298  -19.4246  -17.6071 C   0  0  0  0  0  0  0  0  0  0  0  0
   28.4916  -19.8227  -18.4217 O   0  0  0  0  0  0  0  0  0  0  0  0
   28.1361  -21.2205  -14.4043 C   0  0  0  0  0  0  0  0  0  0  0  0
   27.4701  -22.2669  -14.2119 O   0  0  0  0  0  0  0  0  0  0  0  0
   27.0387  -18.1843  -17.7826 O   0  0  0  0  0  0  0  0  0  0  0  0
   28.5219  -20.4419  -13.3037 N   0  0  0  0  0  0  0  0  0  0  0  0
   28.1440  -20.7875  -11.9162 C   0  0  1  0  0  0  0  0  0  0  0  0
   28.9711  -19.9652  -10.9830 C   0  0  0  0  0  0  0  0  0  0  0  0
   28.6453  -20.0203   -9.5622 C   0  0  0  0  0  0  0  0  0  0  0  0
   29.2005  -20.9811   -8.7247 C   0  0  0  0  0  0  0  0  0  0  0  0
   28.9339  -21.0212   -7.3755 C   0  0  0  0  0  0  0  0  0  0  0  0
   28.1001  -20.1001   -6.8109 C   0  0  0  0  0  0  0  0  0  0  0  0
   27.5370  -19.1434   -7.5988 C   0  0  0  0  0  0  0  0  0  0  0  0
   27.8084  -19.1029   -8.9716 C   0  0  0  0  0  0  0  0  0  0  0  0
   26.6988  -20.5021  -11.8381 C   0  0  0  0  0  0  0  0  0  0  0  0
   26.2198  -19.3886  -12.2621 O   0  0  0  0  0  0  0  0  0  0  0  0
   25.7715  -21.4175  -11.3110 N   0  0  0  0  0  0  0  0  0  0  0  0
   24.4146  -20.9581  -11.0135 C   0  0  1  0  0  0  0  0  0  0  0  0
   23.5147  -21.7382  -11.9823 C   0  0  0  0  0  0  0  0  0  0  0  0
   23.4611  -21.1431  -13.3185 C   0  0  0  0  0  0  0  0  0  0  0  0
   22.6959  -19.9863  -13.4725 C   0  0  0  0  0  0  0  0  0  0  0  0
   22.6285  -19.3947  -14.7152 C   0  0  0  0  0  0  0  0  0  0  0  0
   23.2939  -19.9089  -15.8147 C   0  0  0  0  0  0  0  0  0  0  0  0
   24.0419  -21.0458  -15.6487 C   0  0  0  0  0  0  0  0  0  0  0  0
   24.1211  -21.6488  -14.4201 C   0  0  0  0  0  0  0  0  0  0  0  0
   24.0107  -21.1890   -9.6209 C   0  0  0  0  0  0  0  0  0  0  0  0
   24.8324  -21.8890   -8.7590 O   0  0  0  0  0  0  0  0  0  0  0  0
   22.9269  -20.7694   -9.1697 O   0  0  0  0  0  0  0  0  0  0  0  0
  2  1  1  6
  2  3  1  0
  3  4  1  0
  4  8  1  0
  5  4  2  0
  6  2  1  0
  6  7  2  0
  9  6  1  0
 10  9  1  0
 10 11  1  1
 12 11  1  0
 12 17  1  0
 13 12  2  0
 14 13  1  0
 14 15  2  0
 15 16  1  0
 16 17  2  0
 18 10  1  0
 19 18  2  0
 20 18  1  0
 21 20  1  0
 21 22  1  6
 22 23  1  0
 23 24  2  0
 24 25  1  0
 26 25  2  0
 27 26  1  0
 28 27  2  0
 28 23  1  0
 29 30  1  0
 29 21  1  0
 31 29  2  0
M  END
$$$$
