DFF.pdb
     RDKit          3D

 31 32  0  0  1  0  0  0  0  0999 V2000
   28.7548  -19.6997  -18.7532 N   0  0  0  0  0  0  0  0  0  0  0  0
   28.0681  -20.6568  -17.9059 C   0  0  1  0  0  0  0  0  0  0  0  0
   29.0264  -21.6057  -17.2578 C   0  0  0  0  0  0  0  0  0  0  0  0
   29.2373  -22.7980  -18.1083 C   0  0  0  0  0  0  0  0  0  0  0  0
   28.6367  -22.8698  -19.2032 O   0  0  0  0  0  0  0  0  0  0  0  0
   27.3772  -19.8827  -16.8254 C   0  0  0  0  0  0  0  0  0  0  0  0
   28.0666  -19.1453  -16.0795 O   0  0  0  0  0  0  0  0  0  0  0  0
   30.0796  -23.8257  -17.7172 O   0  0  0  0  0  0  0  0  0  0  0  0
   25.9915  -19.9572  -16.6240 N   0  0  0  0  0  0  0  0  0  0  0  0
   25.3102  -19.2401  -15.5244 C   0  0  1  0  0  0  0  0  0  0  0  0
   24.3580  -18.2561  -16.1212 C   0  0  0  0  0  0  0  0  0  0  0  0
   24.9219  -17.0992  -16.8078 C   0  0  0  0  0  0  0  0  0  0  0  0
   25.0975  -17.0852  -18.1868 C   0  0  0  0  0  0  0  0  0  0  0  0
   25.5908  -15.9871  -18.8529 C   0  0  0  0  0  0  0  0  0  0  0  0
   25.9282  -14.8583  -18.1640 C   0  0  0  0  0  0  0  0  0  0  0  0
   25.7705  -14.8338  -16.8121 C   0  0  0  0  0  0  0  0  0  0  0  0
   25.2685  -15.9514  -16.1346 C   0  0  0  0  0  0  0  0  0  0  0  0
   24.6533  -20.2993  -14.7351 C   0  0  0  0  0  0  0  0  0  0  0  0
   23.8196  -21.1102  -15.2795 O   0  0  0  0  0  0  0  0  0  0  0  0
   24.9001  -20.4883  -13.3644 N   0  0  0  0  0  0  0  0  0  0  0  0
   24.2098  -21.5716  -12.6639 C   0  0  1  0  0  0  0  0  0  0  0  0
   25.2646  -22.1622  -11.7176 C   0  0  0  0  0  0  0  0  0  0  0  0
   25.6259  -21.2559  -10.6265 C   0  0  0  0  0  0  0  0  0  0  0  0
   25.0391  -21.4885   -9.3819 C   0  0  0  0  0  0  0  0  0  0  0  0
   25.3620  -20.6592   -8.3297 C   0  0  0  0  0  0  0  0  0  0  0  0
   26.2479  -19.6044   -8.4659 C   0  0  0  0  0  0  0  0  0  0  0  0
   26.8167  -19.3878   -9.6944 C   0  0  0  0  0  0  0  0  0  0  0  0
   26.5080  -20.2021  -10.7532 C   0  0  0  0  0  0  0  0  0  0  0  0
   23.0264  -21.1256  -11.9179 C   0  0  0  0  0  0  0  0  0  0  0  0
   22.0734  -22.0360  -11.5046 O   0  0  0  0  0  0  0  0  0  0  0  0
   22.8386  -19.9264  -11.6337 O   0  0  0  0  0  0  0  0  0  0  0  0
  2  1  1  6
  2  3  1  0
  3  4  1  0
  4  8  1  0
  5  4  2  0
  6  2  1  0
  6  7  2  0
  9  6  1  0
 10  9  1  0
 10 11  1  6
 12 11  1  0
 12 17  1  0
 13 12  2  0
 14 13  1  0
 14 15  2  0
 15 16  1  0
 16 17  2  0
 18 10  1  0
 19 18  2  0
 20 18  1  0
 21 20  1  0
 21 22  1  1
 22 23  1  0
 23 24  2  0
 24 25  1  0
 26 25  2  0
 27 26  1  0
 28 27  2  0
 28 23  1  0
 29 30  1  0
 29 21  1  0
 31 29  2  0
M  END
$$$$
