LVQ.pdb
     RDKit          3D

 25 24  0  0  1  0  0  0  0  0999 V2000
    5.1923  -12.3434   26.2061 C   0  0  0  0  0  0  0  0  0  0  0  0
    6.2124  -13.0301   27.0804 C   0  0  2  0  0  0  0  0  0  0  0  0
    6.9319  -12.0380   27.9674 C   0  0  0  0  0  0  0  0  0  0  0  0
    7.1749  -13.8492   26.2544 C   0  0  0  0  0  0  0  0  0  0  0  0
    6.4023  -14.8311   25.4335 C   0  0  2  0  0  0  0  0  0  0  0  0
    5.7818  -15.8099   26.2819 N   0  0  0  0  0  0  0  0  0  0  0  0
    7.3037  -15.5091   24.4431 C   0  0  0  0  0  0  0  0  0  0  0  0
    7.8031  -16.6335   24.6572 O   0  0  0  0  0  0  0  0  0  0  0  0
    7.2354  -14.8909   20.3419 C   0  0  0  0  0  0  0  0  0  0  0  0
    8.6186  -14.8012   20.9546 C   0  0  2  0  0  0  0  0  0  0  0  0
    9.5297  -15.5204   19.9826 C   0  0  0  0  0  0  0  0  0  0  0  0
    8.6243  -15.4079   22.3266 C   0  0  2  0  0  0  0  0  0  0  0  0
    7.6347  -14.9101   23.2155 N   0  0  0  0  0  0  0  0  0  0  0  0
   10.0032  -15.3327   22.9344 C   0  0  0  0  0  0  0  0  0  0  0  0
   10.4755  -14.2410   23.3345 O   0  0  0  0  0  0  0  0  0  0  0  0
   12.3364  -16.1392   29.1458 N   0  0  0  0  0  0  0  0  0  0  0  0
   11.5234  -16.0742   27.9681 C   0  0  0  0  0  0  0  0  0  0  0  0
   10.3508  -15.6821   28.1579 O   0  0  0  0  0  0  0  0  0  0  0  0
   12.0038  -16.4329   26.6525 C   0  0  0  0  0  0  0  0  0  0  0  0
   11.1453  -16.2982   25.4706 C   0  0  0  0  0  0  0  0  0  0  0  0
   11.7421  -16.6366   24.1481 C   0  0  2  0  0  0  0  0  0  0  0  0
   10.7987  -16.4975   23.0676 N   0  0  0  0  0  0  0  0  0  0  0  0
   12.4793  -17.8989   24.0412 C   0  0  0  0  0  0  0  0  0  0  0  0
   11.9332  -18.9079   23.5359 O   0  0  0  0  0  0  0  0  0  0  0  0
   13.8007  -18.0502   24.4776 O   0  0  0  0  0  0  0  0  0  0  0  0
  2  1  1  6
  2  3  1  0
  4  2  1  0
  5  4  1  0
  5  6  1  1
  7 13  1  0
  7  5  1  0
  8  7  2  0
 10  9  1  6
 10 12  1  0
 11 10  1  0
 12 14  1  0
 12 13  1  1
 14 15  2  0
 17 16  1  0
 17 19  1  0
 18 17  2  0
 20 19  1  0
 21 20  1  1
 22 21  1  0
 22 14  1  0
 23 21  1  0
 23 25  1  0
 24 23  2  0
M  END
$$$$
