LVQ.pdb
     RDKit          3D

 25 24  0  0  1  0  0  0  0  0999 V2000
    6.8350  -18.1251   22.1851 C   0  0  0  0  0  0  0  0  0  0  0  0
    6.5529  -16.6927   21.8042 C   0  0  2  0  0  0  0  0  0  0  0  0
    5.2328  -16.5682   21.0757 C   0  0  0  0  0  0  0  0  0  0  0  0
    7.6936  -16.1057   21.0080 C   0  0  0  0  0  0  0  0  0  0  0  0
    7.8476  -14.6623   21.3652 C   0  0  2  0  0  0  0  0  0  0  0  0
    8.8539  -14.0507   20.5429 N   0  0  0  0  0  0  0  0  0  0  0  0
    8.2125  -14.5178   22.8141 C   0  0  0  0  0  0  0  0  0  0  0  0
    9.3619  -14.7580   23.2392 O   0  0  0  0  0  0  0  0  0  0  0  0
    6.6616  -11.5868   25.2257 C   0  0  0  0  0  0  0  0  0  0  0  0
    6.6479  -12.9586   25.8697 C   0  0  2  0  0  0  0  0  0  0  0  0
    7.0475  -12.7235   27.3109 C   0  0  0  0  0  0  0  0  0  0  0  0
    7.5767  -13.8872   25.1448 C   0  0  2  0  0  0  0  0  0  0  0  0
    7.2737  -14.1020   23.7738 N   0  0  0  0  0  0  0  0  0  0  0  0
    7.7145  -15.1905   25.8924 C   0  0  0  0  0  0  0  0  0  0  0  0
    6.9180  -16.1393   25.6915 O   0  0  0  0  0  0  0  0  0  0  0  0
   11.0392  -18.2978   23.1162 N   0  0  0  0  0  0  0  0  0  0  0  0
   11.2534  -18.9045   24.3962 C   0  0  0  0  0  0  0  0  0  0  0  0
   11.9174  -19.9642   24.3729 O   0  0  0  0  0  0  0  0  0  0  0  0
   10.7460  -18.3496   25.6311 C   0  0  0  0  0  0  0  0  0  0  0  0
    9.9960  -17.0888   25.6424 C   0  0  0  0  0  0  0  0  0  0  0  0
    9.4499  -16.6282   26.9499 C   0  0  2  0  0  0  0  0  0  0  0  0
    8.7503  -15.3730   26.8417 N   0  0  0  0  0  0  0  0  0  0  0  0
   10.3590  -16.6243   28.0995 C   0  0  0  0  0  0  0  0  0  0  0  0
   10.8557  -15.5481   28.5079 O   0  0  0  0  0  0  0  0  0  0  0  0
   10.7136  -17.7857   28.7959 O   0  0  0  0  0  0  0  0  0  0  0  0
  2  1  1  6
  2  3  1  0
  4  2  1  0
  5  4  1  0
  5  6  1  6
  7 13  1  0
  7  5  1  0
  8  7  2  0
 10  9  1  6
 10 12  1  0
 11 10  1  0
 12 14  1  0
 12 13  1  6
 14 15  2  0
 17 16  1  0
 17 19  1  0
 18 17  2  0
 20 19  1  0
 21 20  1  6
 22 21  1  0
 22 14  1  0
 23 21  1  0
 23 25  1  0
 24 23  2  0
M  END
$$$$
