LVQ.pdb
     RDKit          3D

 25 24  0  0  1  0  0  0  0  0999 V2000
    5.8925  -12.8335   26.0802 C   0  0  0  0  0  0  0  0  0  0  0  0
    6.7156  -13.4684   27.1739 C   0  0  2  0  0  0  0  0  0  0  0  0
    7.5947  -12.4476   27.8622 C   0  0  0  0  0  0  0  0  0  0  0  0
    7.5143  -14.6362   26.6467 C   0  0  0  0  0  0  0  0  0  0  0  0
    6.6609  -15.4295   25.7100 C   0  0  2  0  0  0  0  0  0  0  0  0
    6.1212  -16.5790   26.3809 N   0  0  0  0  0  0  0  0  0  0  0  0
    7.4586  -15.8617   24.5141 C   0  0  0  0  0  0  0  0  0  0  0  0
    8.0969  -16.9350   24.4912 O   0  0  0  0  0  0  0  0  0  0  0  0
    6.6931  -14.5137   20.6419 C   0  0  0  0  0  0  0  0  0  0  0  0
    8.1574  -14.5086   21.0324 C   0  0  2  0  0  0  0  0  0  0  0  0
    8.8949  -15.0142   19.8107 C   0  0  0  0  0  0  0  0  0  0  0  0
    8.3785  -15.3594   22.2480 C   0  0  2  0  0  0  0  0  0  0  0  0
    7.5293  -15.0764   23.3508 N   0  0  0  0  0  0  0  0  0  0  0  0
    9.8327  -15.3429   22.6502 C   0  0  0  0  0  0  0  0  0  0  0  0
   10.2648  -14.5079   23.4815 O   0  0  0  0  0  0  0  0  0  0  0  0
   11.0878  -18.7931   26.9704 N   0  0  0  0  0  0  0  0  0  0  0  0
   12.1465  -18.8660   26.0081 C   0  0  0  0  0  0  0  0  0  0  0  0
   12.7831  -19.9427   26.0051 O   0  0  0  0  0  0  0  0  0  0  0  0
   12.4706  -17.7861   25.1030 C   0  0  0  0  0  0  0  0  0  0  0  0
   11.4442  -17.1843   24.2448 C   0  0  0  0  0  0  0  0  0  0  0  0
   11.8505  -16.7843   22.8683 C   0  0  2  0  0  0  0  0  0  0  0  0
   10.7463  -16.2732   22.0960 N   0  0  0  0  0  0  0  0  0  0  0  0
   12.6356  -17.7452   22.0882 C   0  0  0  0  0  0  0  0  0  0  0  0
   12.0786  -18.7403   21.5675 O   0  0  0  0  0  0  0  0  0  0  0  0
   14.0129  -17.6123   21.8770 O   0  0  0  0  0  0  0  0  0  0  0  0
  2  1  1  6
  2  3  1  0
  4  2  1  0
  5  4  1  0
  5  6  1  1
  7 13  1  0
  7  5  1  0
  8  7  2  0
 10  9  1  6
 10 12  1  0
 11 10  1  0
 12 14  1  0
 12 13  1  1
 14 15  2  0
 17 16  1  0
 17 19  1  0
 18 17  2  0
 20 19  1  0
 21 20  1  1
 22 21  1  0
 22 14  1  0
 23 21  1  0
 23 25  1  0
 24 23  2  0
M  END
$$$$
