LVQ.pdb
     RDKit          3D

 25 24  0  0  1  0  0  0  0  0999 V2000
    5.3477  -12.2362   26.1176 C   0  0  0  0  0  0  0  0  0  0  0  0
    6.4063  -12.7141   27.0807 C   0  0  2  0  0  0  0  0  0  0  0  0
    7.1383  -11.5509   27.7132 C   0  0  0  0  0  0  0  0  0  0  0  0
    7.3544  -13.6806   26.4126 C   0  0  0  0  0  0  0  0  0  0  0  0
    6.5626  -14.7017   25.6606 C   0  0  2  0  0  0  0  0  0  0  0  0
    6.0318  -15.6841   26.5639 N   0  0  0  0  0  0  0  0  0  0  0  0
    7.4192  -15.3686   24.6239 C   0  0  0  0  0  0  0  0  0  0  0  0
    8.0590  -16.4148   24.8605 O   0  0  0  0  0  0  0  0  0  0  0  0
    6.8933  -14.5850   20.5771 C   0  0  0  0  0  0  0  0  0  0  0  0
    8.3446  -14.7162   20.9931 C   0  0  2  0  0  0  0  0  0  0  0  0
    8.9971  -15.5370   19.9010 C   0  0  0  0  0  0  0  0  0  0  0  0
    8.4460  -15.3519   22.3481 C   0  0  2  0  0  0  0  0  0  0  0  0
    7.5468  -14.8473   23.3250 N   0  0  0  0  0  0  0  0  0  0  0  0
    9.8716  -15.3257   22.8414 C   0  0  0  0  0  0  0  0  0  0  0  0
   10.2262  -14.5413   23.7546 O   0  0  0  0  0  0  0  0  0  0  0  0
    9.8288  -19.1466   27.0208 N   0  0  0  0  0  0  0  0  0  0  0  0
   11.0659  -18.6854   26.4647 C   0  0  0  0  0  0  0  0  0  0  0  0
   12.0833  -19.2921   26.8662 O   0  0  0  0  0  0  0  0  0  0  0  0
   11.1511  -17.6007   25.5125 C   0  0  0  0  0  0  0  0  0  0  0  0
   10.9206  -17.8298   24.0818 C   0  0  0  0  0  0  0  0  0  0  0  0
   11.6960  -16.9962   23.1209 C   0  0  2  0  0  0  0  0  0  0  0  0
   10.8456  -16.1895   22.2824 N   0  0  0  0  0  0  0  0  0  0  0  0
   12.7324  -17.6640   22.3283 C   0  0  0  0  0  0  0  0  0  0  0  0
   12.4151  -18.3793   21.3489 O   0  0  0  0  0  0  0  0  0  0  0  0
   14.0996  -17.5433   22.6033 O   0  0  0  0  0  0  0  0  0  0  0  0
  2  1  1  6
  2  3  1  0
  4  2  1  0
  5  4  1  0
  5  6  1  1
  7 13  1  0
  7  5  1  0
  8  7  2  0
 10  9  1  6
 10 12  1  0
 11 10  1  0
 12 14  1  0
 12 13  1  1
 14 15  2  0
 17 16  1  0
 17 19  1  0
 18 17  2  0
 20 19  1  0
 21 20  1  6
 22 21  1  0
 22 14  1  0
 23 21  1  0
 23 25  1  0
 24 23  2  0
M  END
$$$$
