LVQ.pdb
     RDKit          3D

 25 24  0  0  1  0  0  0  0  0999 V2000
    5.8479  -12.5463   25.8831 C   0  0  0  0  0  0  0  0  0  0  0  0
    6.7577  -13.0558   26.9736 C   0  0  2  0  0  0  0  0  0  0  0  0
    7.7247  -11.9843   27.4270 C   0  0  0  0  0  0  0  0  0  0  0  0
    7.4722  -14.3144   26.5435 C   0  0  0  0  0  0  0  0  0  0  0  0
    6.5477  -15.1406   25.7082 C   0  0  2  0  0  0  0  0  0  0  0  0
    5.9384  -16.1670   26.5069 N   0  0  0  0  0  0  0  0  0  0  0  0
    7.2913  -15.7586   24.5600 C   0  0  0  0  0  0  0  0  0  0  0  0
    7.7085  -16.9353   24.5921 O   0  0  0  0  0  0  0  0  0  0  0  0
    6.8636  -14.5454   20.5934 C   0  0  0  0  0  0  0  0  0  0  0  0
    8.2981  -14.7239   21.0483 C   0  0  2  0  0  0  0  0  0  0  0  0
    9.0025  -15.3898   19.8853 C   0  0  0  0  0  0  0  0  0  0  0  0
    8.3509  -15.5330   22.3104 C   0  0  2  0  0  0  0  0  0  0  0  0
    7.5585  -15.0408   23.3816 N   0  0  0  0  0  0  0  0  0  0  0  0
    9.7804  -15.7586   22.7371 C   0  0  0  0  0  0  0  0  0  0  0  0
   10.4571  -14.8333   23.2477 O   0  0  0  0  0  0  0  0  0  0  0  0
   12.5170  -20.2583   26.2074 N   0  0  0  0  0  0  0  0  0  0  0  0
   11.4236  -19.3340   26.1594 C   0  0  0  0  0  0  0  0  0  0  0  0
   10.5342  -19.5243   27.0181 O   0  0  0  0  0  0  0  0  0  0  0  0
   11.3366  -18.2585   25.1971 C   0  0  0  0  0  0  0  0  0  0  0  0
   11.9456  -18.3811   23.8680 C   0  0  0  0  0  0  0  0  0  0  0  0
   11.7728  -17.2389   22.9272 C   0  0  2  0  0  0  0  0  0  0  0  0
   10.3931  -17.0251   22.5699 N   0  0  0  0  0  0  0  0  0  0  0  0
   12.6332  -17.2027   21.7412 C   0  0  0  0  0  0  0  0  0  0  0  0
   13.8757  -17.0930   21.8659 O   0  0  0  0  0  0  0  0  0  0  0  0
   12.1368  -17.2921   20.4354 O   0  0  0  0  0  0  0  0  0  0  0  0
  2  1  1  6
  2  3  1  0
  4  2  1  0
  5  4  1  0
  5  6  1  1
  7 13  1  0
  7  5  1  0
  8  7  2  0
 10  9  1  6
 10 12  1  0
 11 10  1  0
 12 14  1  0
 12 13  1  1
 14 15  2  0
 17 16  1  0
 17 19  1  0
 18 17  2  0
 20 19  1  0
 21 20  1  6
 22 21  1  0
 22 14  1  0
 23 21  1  0
 23 25  1  0
 24 23  2  0
M  END
$$$$
