LVQ.pdb
     RDKit          3D

 25 24  0  0  1  0  0  0  0  0999 V2000
    8.6072  -13.0362   18.9849 C   0  0  0  0  0  0  0  0  0  0  0  0
    7.6452  -13.3870   20.0932 C   0  0  2  0  0  0  0  0  0  0  0  0
    7.2560  -12.1617   20.8906 C   0  0  0  0  0  0  0  0  0  0  0  0
    8.2035  -14.4788   20.9740 C   0  0  0  0  0  0  0  0  0  0  0  0
    8.6031  -15.6395   20.1207 C   0  0  2  0  0  0  0  0  0  0  0  0
    7.4530  -16.1911   19.4606 N   0  0  0  0  0  0  0  0  0  0  0  0
    9.2718  -16.6950   20.9526 C   0  0  0  0  0  0  0  0  0  0  0  0
    8.6368  -17.6388   21.4681 O   0  0  0  0  0  0  0  0  0  0  0  0
   13.0510  -18.0880   20.1484 C   0  0  0  0  0  0  0  0  0  0  0  0
   12.8223  -17.7816   21.6149 C   0  0  2  0  0  0  0  0  0  0  0  0
   13.5078  -18.9035   22.3656 C   0  0  0  0  0  0  0  0  0  0  0  0
   11.3540  -17.6876   21.9079 C   0  0  2  0  0  0  0  0  0  0  0  0
   10.6558  -16.6759   21.1963 N   0  0  0  0  0  0  0  0  0  0  0  0
   11.1148  -17.5851   23.3940 C   0  0  0  0  0  0  0  0  0  0  0  0
   11.4353  -16.5527   24.0315 O   0  0  0  0  0  0  0  0  0  0  0  0
    6.6331  -20.5093   27.1275 N   0  0  0  0  0  0  0  0  0  0  0  0
    7.5749  -19.8025   27.9433 C   0  0  0  0  0  0  0  0  0  0  0  0
    7.2810  -19.7439   29.1577 O   0  0  0  0  0  0  0  0  0  0  0  0
    8.7776  -19.1946   27.4197 C   0  0  0  0  0  0  0  0  0  0  0  0
    9.0611  -19.1954   25.9803 C   0  0  0  0  0  0  0  0  0  0  0  0
   10.3519  -18.5987   25.5359 C   0  0  2  0  0  0  0  0  0  0  0  0
   10.5206  -18.6564   24.1059 N   0  0  0  0  0  0  0  0  0  0  0  0
   11.5707  -19.0317   26.2255 C   0  0  0  0  0  0  0  0  0  0  0  0
   12.2406  -19.9929   25.7796 O   0  0  0  0  0  0  0  0  0  0  0  0
   12.0514  -18.4136   27.3858 O   0  0  0  0  0  0  0  0  0  0  0  0
  2  1  1  6
  2  3  1  0
  4  2  1  0
  5  4  1  0
  5  6  1  1
  7 13  1  0
  7  5  1  0
  8  7  2  0
 10  9  1  6
 10 12  1  0
 11 10  1  0
 12 14  1  0
 12 13  1  6
 14 15  2  0
 17 16  1  0
 17 19  1  0
 18 17  2  0
 20 19  1  0
 21 20  1  6
 22 21  1  0
 22 14  1  0
 23 21  1  0
 23 25  1  0
 24 23  2  0
M  END
$$$$
