LVQ.pdb
     RDKit          3D

 25 24  0  0  1  0  0  0  0  0999 V2000
    7.9653  -14.9711   18.0205 C   0  0  0  0  0  0  0  0  0  0  0  0
    7.4040  -13.8182   18.8157 C   0  0  2  0  0  0  0  0  0  0  0  0
    7.2849  -12.5720   17.9663 C   0  0  0  0  0  0  0  0  0  0  0  0
    8.2143  -13.5728   20.0659 C   0  0  0  0  0  0  0  0  0  0  0  0
    8.1279  -14.7761   20.9488 C   0  0  2  0  0  0  0  0  0  0  0  0
    6.7767  -15.2602   20.9997 N   0  0  0  0  0  0  0  0  0  0  0  0
    8.6061  -14.4452   22.3326 C   0  0  0  0  0  0  0  0  0  0  0  0
    9.7856  -14.1084   22.5675 O   0  0  0  0  0  0  0  0  0  0  0  0
    7.7496  -12.7871   26.7961 C   0  0  0  0  0  0  0  0  0  0  0  0
    7.1196  -13.3680   25.5462 C   0  0  2  0  0  0  0  0  0  0  0  0
    5.9633  -14.2111   26.0406 C   0  0  0  0  0  0  0  0  0  0  0  0
    8.1313  -14.1549   24.7666 C   0  0  2  0  0  0  0  0  0  0  0  0
    7.7462  -14.4975   23.4430 N   0  0  0  0  0  0  0  0  0  0  0  0
    8.5754  -15.3681   25.5459 C   0  0  0  0  0  0  0  0  0  0  0  0
    7.7702  -16.2903   25.8221 O   0  0  0  0  0  0  0  0  0  0  0  0
   11.0723  -14.2979   31.0377 N   0  0  0  0  0  0  0  0  0  0  0  0
   10.7638  -15.6437   30.6560 C   0  0  0  0  0  0  0  0  0  0  0  0
   11.4790  -16.5202   31.1898 O   0  0  0  0  0  0  0  0  0  0  0  0
    9.7113  -15.9818   29.7242 C   0  0  0  0  0  0  0  0  0  0  0  0
    9.6408  -15.3519   28.4011 C   0  0  0  0  0  0  0  0  0  0  0  0
   10.2319  -16.0978   27.2549 C   0  0  2  0  0  0  0  0  0  0  0  0
    9.9166  -15.4938   25.9849 N   0  0  0  0  0  0  0  0  0  0  0  0
   10.0241  -17.5480   27.2116 C   0  0  0  0  0  0  0  0  0  0  0  0
   10.4351  -18.2157   26.2334 O   0  0  0  0  0  0  0  0  0  0  0  0
    9.3791  -18.2572   28.2316 O   0  0  0  0  0  0  0  0  0  0  0  0
  2  1  1  6
  2  3  1  0
  4  2  1  0
  5  4  1  0
  5  6  1  1
  7 13  1  0
  7  5  1  0
  8  7  2  0
 10  9  1  1
 10 12  1  0
 11 10  1  0
 12 14  1  0
 12 13  1  6
 14 15  2  0
 17 16  1  0
 17 19  1  0
 18 17  2  0
 20 19  1  0
 21 20  1  1
 22 21  1  0
 22 14  1  0
 23 21  1  0
 23 25  1  0
 24 23  2  0
M  END
$$$$
