LVQ.pdb
     RDKit          3D

 25 24  0  0  1  0  0  0  0  0999 V2000
    8.4423  -14.6543   18.1117 C   0  0  0  0  0  0  0  0  0  0  0  0
    7.4538  -13.6951   18.7276 C   0  0  2  0  0  0  0  0  0  0  0  0
    7.2405  -12.4849   17.8452 C   0  0  0  0  0  0  0  0  0  0  0  0
    7.8702  -13.3067   20.1259 C   0  0  0  0  0  0  0  0  0  0  0  0
    8.2150  -14.5418   20.8945 C   0  0  2  0  0  0  0  0  0  0  0  0
    7.0992  -15.4459   20.9103 N   0  0  0  0  0  0  0  0  0  0  0  0
    8.6099  -14.1906   22.2995 C   0  0  0  0  0  0  0  0  0  0  0  0
    9.6188  -13.5005   22.5555 O   0  0  0  0  0  0  0  0  0  0  0  0
    6.4722  -12.5915   24.9279 C   0  0  0  0  0  0  0  0  0  0  0  0
    7.0997  -13.7940   25.6038 C   0  0  2  0  0  0  0  0  0  0  0  0
    7.5772  -13.2882   26.9485 C   0  0  0  0  0  0  0  0  0  0  0  0
    8.2055  -14.3528   24.7580 C   0  0  2  0  0  0  0  0  0  0  0  0
    7.8603  -14.6229   23.4070 N   0  0  0  0  0  0  0  0  0  0  0  0
    8.8256  -15.5570   25.4227 C   0  0  0  0  0  0  0  0  0  0  0  0
    8.1405  -16.5745   25.6875 O   0  0  0  0  0  0  0  0  0  0  0  0
   11.3348  -14.1342   30.7022 N   0  0  0  0  0  0  0  0  0  0  0  0
   11.2826  -15.5597   30.5704 C   0  0  0  0  0  0  0  0  0  0  0  0
   11.8285  -16.1954   31.4989 O   0  0  0  0  0  0  0  0  0  0  0  0
   10.6532  -16.2299   29.4545 C   0  0  0  0  0  0  0  0  0  0  0  0
   10.4053  -15.5264   28.1912 C   0  0  0  0  0  0  0  0  0  0  0  0
   10.6752  -16.2698   26.9286 C   0  0  2  0  0  0  0  0  0  0  0  0
   10.2007  -15.5658   25.7641 N   0  0  0  0  0  0  0  0  0  0  0  0
   10.2902  -17.6832   26.8799 C   0  0  0  0  0  0  0  0  0  0  0  0
    9.0936  -18.0052   26.6898 O   0  0  0  0  0  0  0  0  0  0  0  0
   11.2075  -18.7296   27.0315 O   0  0  0  0  0  0  0  0  0  0  0  0
  2  1  1  6
  2  3  1  0
  4  2  1  0
  5  4  1  0
  5  6  1  1
  7 13  1  0
  7  5  1  0
  8  7  2  0
 10  9  1  6
 10 12  1  0
 11 10  1  0
 12 14  1  0
 12 13  1  6
 14 15  2  0
 17 16  1  0
 17 19  1  0
 18 17  2  0
 20 19  1  0
 21 20  1  1
 22 21  1  0
 22 14  1  0
 23 21  1  0
 23 25  1  0
 24 23  2  0
M  END
$$$$
