LVQ.pdb
     RDKit          3D

 25 24  0  0  1  0  0  0  0  0999 V2000
    5.0737  -18.0123   21.4225 C   0  0  0  0  0  0  0  0  0  0  0  0
    6.5277  -18.3851   21.5760 C   0  0  2  0  0  0  0  0  0  0  0  0
    6.6921  -19.8716   21.8041 C   0  0  0  0  0  0  0  0  0  0  0  0
    7.1869  -17.5716   22.6637 C   0  0  0  0  0  0  0  0  0  0  0  0
    7.1808  -16.1299   22.2681 C   0  0  2  0  0  0  0  0  0  0  0  0
    7.8349  -15.9586   21.0010 N   0  0  0  0  0  0  0  0  0  0  0  0
    7.8637  -15.2974   23.3140 C   0  0  0  0  0  0  0  0  0  0  0  0
    9.1030  -15.1451   23.3402 O   0  0  0  0  0  0  0  0  0  0  0  0
    6.4287  -11.9424   25.3073 C   0  0  0  0  0  0  0  0  0  0  0  0
    6.8554  -13.0793   26.2138 C   0  0  2  0  0  0  0  0  0  0  0  0
    7.5590  -12.4149   27.3781 C   0  0  0  0  0  0  0  0  0  0  0  0
    7.7308  -14.0433   25.4689 C   0  0  2  0  0  0  0  0  0  0  0  0
    7.1396  -14.6419   24.3245 N   0  0  0  0  0  0  0  0  0  0  0  0
    8.2962  -15.0810   26.4070 C   0  0  0  0  0  0  0  0  0  0  0  0
    7.5788  -16.0085   26.8544 O   0  0  0  0  0  0  0  0  0  0  0  0
   13.2668  -18.4671   25.1200 N   0  0  0  0  0  0  0  0  0  0  0  0
   12.9979  -18.6989   26.5078 C   0  0  0  0  0  0  0  0  0  0  0  0
   13.6736  -19.6126   27.0304 O   0  0  0  0  0  0  0  0  0  0  0  0
   12.0216  -17.9454   27.2625 C   0  0  0  0  0  0  0  0  0  0  0  0
   11.2716  -16.8463   26.6448 C   0  0  0  0  0  0  0  0  0  0  0  0
   10.2716  -16.1381   27.4921 C   0  0  2  0  0  0  0  0  0  0  0  0
    9.6549  -15.0312   26.8055 N   0  0  0  0  0  0  0  0  0  0  0  0
   10.6827  -15.7523   28.8450 C   0  0  0  0  0  0  0  0  0  0  0  0
   10.9120  -14.5500   29.1163 O   0  0  0  0  0  0  0  0  0  0  0  0
   10.8341  -16.6732   29.8883 O   0  0  0  0  0  0  0  0  0  0  0  0
  2  1  1  1
  2  3  1  0
  4  2  1  0
  5  4  1  0
  5  6  1  6
  7 13  1  0
  7  5  1  0
  8  7  2  0
 10  9  1  6
 10 12  1  0
 11 10  1  0
 12 14  1  0
 12 13  1  6
 14 15  2  0
 17 16  1  0
 17 19  1  0
 18 17  2  0
 20 19  1  0
 21 20  1  6
 22 21  1  0
 22 14  1  0
 23 21  1  0
 23 25  1  0
 24 23  2  0
M  END
$$$$
