LVQ.pdb
     RDKit          3D

 25 24  0  0  1  0  0  0  0  0999 V2000
    5.3116  -11.8024   25.9366 C   0  0  0  0  0  0  0  0  0  0  0  0
    6.2514  -12.4758   26.9061 C   0  0  2  0  0  0  0  0  0  0  0  0
    7.0220  -11.4591   27.7194 C   0  0  0  0  0  0  0  0  0  0  0  0
    7.1689  -13.4408   26.1945 C   0  0  0  0  0  0  0  0  0  0  0  0
    6.3445  -14.4282   25.4327 C   0  0  2  0  0  0  0  0  0  0  0  0
    5.6730  -15.3190   26.3373 N   0  0  0  0  0  0  0  0  0  0  0  0
    7.2080  -15.2125   24.4879 C   0  0  0  0  0  0  0  0  0  0  0  0
    7.6407  -16.3499   24.7685 O   0  0  0  0  0  0  0  0  0  0  0  0
    7.0474  -14.7050   20.3273 C   0  0  0  0  0  0  0  0  0  0  0  0
    8.4388  -14.8026   20.9198 C   0  0  2  0  0  0  0  0  0  0  0  0
    9.2302  -15.6386   19.9366 C   0  0  0  0  0  0  0  0  0  0  0  0
    8.3827  -15.4039   22.2931 C   0  0  2  0  0  0  0  0  0  0  0  0
    7.5767  -14.7045   23.2304 N   0  0  0  0  0  0  0  0  0  0  0  0
    9.7741  -15.6402   22.8264 C   0  0  0  0  0  0  0  0  0  0  0  0
   10.4941  -14.6836   23.2028 O   0  0  0  0  0  0  0  0  0  0  0  0
   11.9401  -20.8660   26.1801 N   0  0  0  0  0  0  0  0  0  0  0  0
   12.7371  -19.6801   26.2821 C   0  0  0  0  0  0  0  0  0  0  0  0
   13.4582  -19.6155   27.3021 O   0  0  0  0  0  0  0  0  0  0  0  0
   12.7203  -18.6263   25.2924 C   0  0  0  0  0  0  0  0  0  0  0  0
   11.4835  -18.2681   24.5892 C   0  0  0  0  0  0  0  0  0  0  0  0
   11.5702  -17.2052   23.5489 C   0  0  2  0  0  0  0  0  0  0  0  0
   10.3011  -16.9524   22.9144 N   0  0  0  0  0  0  0  0  0  0  0  0
   12.6405  -17.3175   22.5539 C   0  0  0  0  0  0  0  0  0  0  0  0
   12.3992  -17.7895   21.4178 O   0  0  0  0  0  0  0  0  0  0  0  0
   13.9572  -16.9113   22.8004 O   0  0  0  0  0  0  0  0  0  0  0  0
  2  1  1  6
  2  3  1  0
  4  2  1  0
  5  4  1  0
  5  6  1  1
  7 13  1  0
  7  5  1  0
  8  7  2  0
 10  9  1  6
 10 12  1  0
 11 10  1  0
 12 14  1  0
 12 13  1  1
 14 15  2  0
 17 16  1  0
 17 19  1  0
 18 17  2  0
 20 19  1  0
 21 20  1  6
 22 21  1  0
 22 14  1  0
 23 21  1  0
 23 25  1  0
 24 23  2  0
M  END
$$$$
