LVQ.pdb
     RDKit          3D

 25 24  0  0  1  0  0  0  0  0999 V2000
    5.5378  -18.9589   21.3563 C   0  0  0  0  0  0  0  0  0  0  0  0
    5.8967  -17.5535   20.9407 C   0  0  2  0  0  0  0  0  0  0  0  0
    6.4457  -17.5212   19.5314 C   0  0  0  0  0  0  0  0  0  0  0  0
    6.8442  -16.9181   21.9296 C   0  0  0  0  0  0  0  0  0  0  0  0
    6.6769  -15.4332   21.8825 C   0  0  2  0  0  0  0  0  0  0  0  0
    7.1289  -14.9211   20.6191 N   0  0  0  0  0  0  0  0  0  0  0  0
    7.4402  -14.7849   23.0008 C   0  0  0  0  0  0  0  0  0  0  0  0
    8.6529  -14.5027   22.9041 O   0  0  0  0  0  0  0  0  0  0  0  0
    5.9399  -12.0852   25.7728 C   0  0  0  0  0  0  0  0  0  0  0  0
    6.6595  -13.2728   26.3799 C   0  0  2  0  0  0  0  0  0  0  0  0
    7.4528  -12.7055   27.5380 C   0  0  0  0  0  0  0  0  0  0  0  0
    7.5187  -13.9468   25.3513 C   0  0  2  0  0  0  0  0  0  0  0  0
    6.8261  -14.4597   24.2224 N   0  0  0  0  0  0  0  0  0  0  0  0
    8.3880  -14.9997   25.9932 C   0  0  0  0  0  0  0  0  0  0  0  0
    7.9023  -16.0872   26.3886 O   0  0  0  0  0  0  0  0  0  0  0  0
   15.2073  -17.8576   25.5263 N   0  0  0  0  0  0  0  0  0  0  0  0
   14.2625  -16.7842   25.4405 C   0  0  0  0  0  0  0  0  0  0  0  0
   14.6495  -15.7921   24.7844 O   0  0  0  0  0  0  0  0  0  0  0  0
   12.9572  -16.8259   26.0609 C   0  0  0  0  0  0  0  0  0  0  0  0
   11.9213  -15.8477   25.7110 C   0  0  0  0  0  0  0  0  0  0  0  0
   10.6639  -15.8660   26.5099 C   0  0  2  0  0  0  0  0  0  0  0  0
    9.7777  -14.7832   26.1647 N   0  0  0  0  0  0  0  0  0  0  0  0
   10.7879  -15.9986   27.9643 C   0  0  0  0  0  0  0  0  0  0  0  0
   10.6868  -14.9893   28.7010 O   0  0  0  0  0  0  0  0  0  0  0  0
   11.0137  -17.2239   28.6023 O   0  0  0  0  0  0  0  0  0  0  0  0
  2  1  1  1
  2  3  1  0
  4  2  1  0
  5  4  1  0
  5  6  1  6
  7 13  1  0
  7  5  1  0
  8  7  2  0
 10  9  1  6
 10 12  1  0
 11 10  1  0
 12 14  1  0
 12 13  1  6
 14 15  2  0
 17 16  1  0
 17 19  1  0
 18 17  2  0
 20 19  1  0
 21 20  1  6
 22 21  1  0
 22 14  1  0
 23 21  1  0
 23 25  1  0
 24 23  2  0
M  END
$$$$
