LVQ.pdb
     RDKit          3D

 25 24  0  0  1  0  0  0  0  0999 V2000
    5.8028  -12.2508   26.2018 C   0  0  0  0  0  0  0  0  0  0  0  0
    6.7541  -12.9095   27.1702 C   0  0  2  0  0  0  0  0  0  0  0  0
    7.6392  -11.8884   27.8504 C   0  0  0  0  0  0  0  0  0  0  0  0
    7.5599  -13.9912   26.4919 C   0  0  0  0  0  0  0  0  0  0  0  0
    6.6390  -14.8646   25.7019 C   0  0  2  0  0  0  0  0  0  0  0  0
    5.9915  -15.8135   26.5640 N   0  0  0  0  0  0  0  0  0  0  0  0
    7.3967  -15.5849   24.6246 C   0  0  0  0  0  0  0  0  0  0  0  0
    7.7714  -16.7694   24.7514 O   0  0  0  0  0  0  0  0  0  0  0  0
    7.0325  -14.6466   20.6033 C   0  0  0  0  0  0  0  0  0  0  0  0
    8.4620  -14.8667   21.0557 C   0  0  2  0  0  0  0  0  0  0  0  0
    9.1109  -15.6642   19.9444 C   0  0  0  0  0  0  0  0  0  0  0  0
    8.4900  -15.5709   22.3800 C   0  0  2  0  0  0  0  0  0  0  0  0
    7.7259  -14.9598   23.4097 N   0  0  0  0  0  0  0  0  0  0  0  0
    9.9119  -15.8199   22.8189 C   0  0  0  0  0  0  0  0  0  0  0  0
   10.6878  -14.8663   23.0711 O   0  0  0  0  0  0  0  0  0  0  0  0
   11.7184  -18.2999   28.0879 N   0  0  0  0  0  0  0  0  0  0  0  0
   11.3005  -19.0012   26.9107 C   0  0  0  0  0  0  0  0  0  0  0  0
   11.2696  -20.2467   27.0220 O   0  0  0  0  0  0  0  0  0  0  0  0
   10.9403  -18.3367   25.6782 C   0  0  0  0  0  0  0  0  0  0  0  0
   11.7480  -18.5031   24.4648 C   0  0  0  0  0  0  0  0  0  0  0  0
   11.7273  -17.3937   23.4706 C   0  0  2  0  0  0  0  0  0  0  0  0
   10.4049  -17.1410   22.9565 N   0  0  0  0  0  0  0  0  0  0  0  0
   12.7118  -17.4385   22.3857 C   0  0  0  0  0  0  0  0  0  0  0  0
   12.4681  -18.0830   21.3385 O   0  0  0  0  0  0  0  0  0  0  0  0
   13.9451  -16.7793   22.4469 O   0  0  0  0  0  0  0  0  0  0  0  0
  2  1  1  6
  2  3  1  0
  4  2  1  0
  5  4  1  0
  5  6  1  1
  7 13  1  0
  7  5  1  0
  8  7  2  0
 10  9  1  6
 10 12  1  0
 11 10  1  0
 12 14  1  0
 12 13  1  1
 14 15  2  0
 17 16  1  0
 17 19  1  0
 18 17  2  0
 20 19  1  0
 21 20  1  6
 22 21  1  0
 22 14  1  0
 23 21  1  0
 23 25  1  0
 24 23  2  0
M  END
$$$$
