LVQ.pdb
     RDKit          3D

 25 24  0  0  1  0  0  0  0  0999 V2000
    5.7420  -12.4269   26.4717 C   0  0  0  0  0  0  0  0  0  0  0  0
    6.7261  -13.2035   27.3115 C   0  0  2  0  0  0  0  0  0  0  0  0
    7.6125  -12.2777   28.1152 C   0  0  0  0  0  0  0  0  0  0  0  0
    7.5308  -14.1592   26.4638 C   0  0  0  0  0  0  0  0  0  0  0  0
    6.6011  -14.9456   25.5966 C   0  0  2  0  0  0  0  0  0  0  0  0
    5.9590  -15.9772   26.3623 N   0  0  0  0  0  0  0  0  0  0  0  0
    7.3477  -15.5524   24.4443 C   0  0  0  0  0  0  0  0  0  0  0  0
    7.8314  -16.7027   24.4951 O   0  0  0  0  0  0  0  0  0  0  0  0
    6.8053  -14.5151   20.4835 C   0  0  0  0  0  0  0  0  0  0  0  0
    8.2622  -14.5551   20.8988 C   0  0  2  0  0  0  0  0  0  0  0  0
    8.9819  -15.2357   19.7538 C   0  0  0  0  0  0  0  0  0  0  0  0
    8.4154  -15.2785   22.2040 C   0  0  2  0  0  0  0  0  0  0  0  0
    7.5427  -14.8533   23.2408 N   0  0  0  0  0  0  0  0  0  0  0  0
    9.8560  -15.2653   22.6524 C   0  0  0  0  0  0  0  0  0  0  0  0
   10.2838  -14.3777   23.4295 O   0  0  0  0  0  0  0  0  0  0  0  0
   10.2395  -18.4079   26.9689 N   0  0  0  0  0  0  0  0  0  0  0  0
   11.6186  -18.4421   26.5829 C   0  0  0  0  0  0  0  0  0  0  0  0
   12.3859  -18.9755   27.4144 O   0  0  0  0  0  0  0  0  0  0  0  0
   12.1052  -17.9036   25.3324 C   0  0  0  0  0  0  0  0  0  0  0  0
   11.1988  -17.2336   24.3933 C   0  0  0  0  0  0  0  0  0  0  0  0
   11.7643  -16.8047   23.0833 C   0  0  2  0  0  0  0  0  0  0  0  0
   10.7614  -16.2586   22.2041 N   0  0  0  0  0  0  0  0  0  0  0  0
   12.6227  -17.7565   22.3724 C   0  0  0  0  0  0  0  0  0  0  0  0
   13.8498  -17.8093   22.6234 O   0  0  0  0  0  0  0  0  0  0  0  0
   12.1395  -18.6432   21.4030 O   0  0  0  0  0  0  0  0  0  0  0  0
  2  1  1  6
  2  3  1  0
  4  2  1  0
  5  4  1  0
  5  6  1  1
  7 13  1  0
  7  5  1  0
  8  7  2  0
 10  9  1  6
 10 12  1  0
 11 10  1  0
 12 14  1  0
 12 13  1  1
 14 15  2  0
 17 16  1  0
 17 19  1  0
 18 17  2  0
 20 19  1  0
 21 20  1  1
 22 21  1  0
 22 14  1  0
 23 21  1  0
 23 25  1  0
 24 23  2  0
M  END
$$$$
