LVQ.pdb
     RDKit          3D

 25 24  0  0  1  0  0  0  0  0999 V2000
    7.6511  -12.8365   18.7496 C   0  0  0  0  0  0  0  0  0  0  0  0
    7.5018  -13.2521   20.1924 C   0  0  2  0  0  0  0  0  0  0  0  0
    7.5589  -12.0560   21.1169 C   0  0  0  0  0  0  0  0  0  0  0  0
    8.5207  -14.3020   20.5654 C   0  0  0  0  0  0  0  0  0  0  0  0
    7.9764  -15.1382   21.6787 C   0  0  2  0  0  0  0  0  0  0  0  0
    6.5481  -15.0052   21.7488 N   0  0  0  0  0  0  0  0  0  0  0  0
    8.5934  -14.7343   22.9863 C   0  0  0  0  0  0  0  0  0  0  0  0
    9.8217  -14.5486   23.1146 O   0  0  0  0  0  0  0  0  0  0  0  0
    6.1709  -13.7782   26.4845 C   0  0  0  0  0  0  0  0  0  0  0  0
    7.5916  -13.2999   26.2618 C   0  0  2  0  0  0  0  0  0  0  0  0
    7.4543  -11.9468   25.5967 C   0  0  0  0  0  0  0  0  0  0  0  0
    8.3538  -14.2899   25.4314 C   0  0  2  0  0  0  0  0  0  0  0  0
    7.8160  -14.5429   24.1414 N   0  0  0  0  0  0  0  0  0  0  0  0
    8.5746  -15.5692   26.2003 C   0  0  0  0  0  0  0  0  0  0  0  0
    7.6111  -16.3078   26.5181 O   0  0  0  0  0  0  0  0  0  0  0  0
   11.0491  -20.3050   23.6009 N   0  0  0  0  0  0  0  0  0  0  0  0
   11.5587  -19.1477   24.2740 C   0  0  0  0  0  0  0  0  0  0  0  0
   12.7803  -18.9363   24.1079 O   0  0  0  0  0  0  0  0  0  0  0  0
   10.7387  -18.2801   25.0896 C   0  0  0  0  0  0  0  0  0  0  0  0
   10.9883  -18.1351   26.5280 C   0  0  0  0  0  0  0  0  0  0  0  0
   10.1065  -17.2037   27.2859 C   0  0  2  0  0  0  0  0  0  0  0  0
    9.8798  -15.9666   26.5822 N   0  0  0  0  0  0  0  0  0  0  0  0
   10.4353  -16.9541   28.6923 C   0  0  0  0  0  0  0  0  0  0  0  0
   10.6583  -15.7866   29.0907 O   0  0  0  0  0  0  0  0  0  0  0  0
   10.5120  -17.9719   29.6502 O   0  0  0  0  0  0  0  0  0  0  0  0
  2  1  1  6
  2  3  1  0
  4  2  1  0
  5  4  1  0
  5  6  1  1
  7 13  1  0
  7  5  1  0
  8  7  2  0
 10  9  1  6
 10 12  1  0
 11 10  1  0
 12 14  1  0
 12 13  1  6
 14 15  2  0
 17 16  1  0
 17 19  1  0
 18 17  2  0
 20 19  1  0
 21 20  1  6
 22 21  1  0
 22 14  1  0
 23 21  1  0
 23 25  1  0
 24 23  2  0
M  END
$$$$
