LVQ.pdb
     RDKit          3D

 25 24  0  0  1  0  0  0  0  0999 V2000
    5.5411  -18.2728   21.3815 C   0  0  0  0  0  0  0  0  0  0  0  0
    7.0410  -18.4159   21.4620 C   0  0  2  0  0  0  0  0  0  0  0  0
    7.4491  -19.8692   21.5632 C   0  0  0  0  0  0  0  0  0  0  0  0
    7.6071  -17.5914   22.5931 C   0  0  0  0  0  0  0  0  0  0  0  0
    7.4237  -16.1410   22.2806 C   0  0  2  0  0  0  0  0  0  0  0  0
    8.0245  -15.8247   21.0150 N   0  0  0  0  0  0  0  0  0  0  0  0
    8.0283  -15.2924   23.3611 C   0  0  0  0  0  0  0  0  0  0  0  0
    9.2351  -14.9711   23.3595 O   0  0  0  0  0  0  0  0  0  0  0  0
    6.2115  -12.2027   25.2941 C   0  0  0  0  0  0  0  0  0  0  0  0
    6.8266  -13.2002   26.2550 C   0  0  2  0  0  0  0  0  0  0  0  0
    7.4750  -12.3611   27.3356 C   0  0  0  0  0  0  0  0  0  0  0  0
    7.7984  -14.0890   25.5367 C   0  0  2  0  0  0  0  0  0  0  0  0
    7.2630  -14.8122   24.4377 N   0  0  0  0  0  0  0  0  0  0  0  0
    8.5026  -15.0017   26.5101 C   0  0  0  0  0  0  0  0  0  0  0  0
    7.8544  -15.7635   27.2680 O   0  0  0  0  0  0  0  0  0  0  0  0
   14.6117  -16.0804   25.3057 N   0  0  0  0  0  0  0  0  0  0  0  0
   13.2745  -15.8164   24.8649 C   0  0  0  0  0  0  0  0  0  0  0  0
   13.1855  -15.0515   23.8792 O   0  0  0  0  0  0  0  0  0  0  0  0
   12.1046  -16.3804   25.5004 C   0  0  0  0  0  0  0  0  0  0  0  0
   11.9367  -16.3309   26.9570 C   0  0  0  0  0  0  0  0  0  0  0  0
   10.6023  -15.9233   27.4793 C   0  0  2  0  0  0  0  0  0  0  0  0
    9.9171  -15.0190   26.5906 N   0  0  0  0  0  0  0  0  0  0  0  0
   10.5334  -15.4497   28.8646 C   0  0  0  0  0  0  0  0  0  0  0  0
   10.9669  -16.1649   29.7985 O   0  0  0  0  0  0  0  0  0  0  0  0
   10.0013  -14.2046   29.2197 O   0  0  0  0  0  0  0  0  0  0  0  0
  2  1  1  1
  2  3  1  0
  4  2  1  0
  5  4  1  0
  5  6  1  6
  7 13  1  0
  7  5  1  0
  8  7  2  0
 10  9  1  6
 10 12  1  0
 11 10  1  0
 12 14  1  0
 12 13  1  6
 14 15  2  0
 17 16  1  0
 17 19  1  0
 18 17  2  0
 20 19  1  0
 21 20  1  6
 22 21  1  0
 22 14  1  0
 23 21  1  0
 23 25  1  0
 24 23  2  0
M  END
$$$$
