KEF.pdb
     RDKit          3D

 30 30  0  0  1  0  0  0  0  0999 V2000
   21.8798  -20.1313  -14.6830 N   0  0  0  0  0  0  0  0  0  0  0  0
   22.3627  -19.7001  -13.4260 C   0  0  1  0  0  0  0  0  0  0  0  0
   21.3325  -19.6431  -12.3105 C   0  0  0  0  0  0  0  0  0  0  0  0
   19.9238  -19.7192  -12.7625 C   0  0  0  0  0  0  0  0  0  0  0  0
   19.4643  -20.9548  -13.4315 C   0  0  0  0  0  0  0  0  0  0  0  0
   18.0423  -20.8558  -13.9026 C   0  0  0  0  0  0  0  0  0  0  0  0
   17.1125  -20.9065  -12.8390 N   0  0  0  0  0  0  0  0  0  0  0  0
   23.5734  -20.4322  -12.9390 C   0  0  0  0  0  0  0  0  0  0  0  0
   23.4443  -21.6634  -12.6842 O   0  0  0  0  0  0  0  0  0  0  0  0
   24.8406  -19.8746  -12.7393 N   0  0  0  0  0  0  0  0  0  0  0  0
   25.9931  -20.7015  -12.2952 C   0  0  1  0  0  0  0  0  0  0  0  0
   26.9649  -20.5611  -13.4170 C   0  0  0  0  0  0  0  0  0  0  0  0
   26.5952  -20.9905  -14.7678 C   0  0  0  0  0  0  0  0  0  0  0  0
   26.8314  -22.4345  -14.9761 C   0  0  0  0  0  0  0  0  0  0  0  0
   28.0005  -22.9056  -15.2107 O   0  0  0  0  0  0  0  0  0  0  0  0
   26.4236  -20.3227  -10.9524 C   0  0  0  0  0  0  0  0  0  0  0  0
   25.8234  -19.3787  -10.3784 O   0  0  0  0  0  0  0  0  0  0  0  0
   25.8147  -23.3885  -14.9311 O   0  0  0  0  0  0  0  0  0  0  0  0
   27.4733  -20.9428  -10.2417 N   0  0  0  0  0  0  0  0  0  0  0  0
   27.9993  -20.4177   -9.0075 C   0  0  1  0  0  0  0  0  0  0  0  0
   26.9127  -20.3080   -7.9498 C   0  0  0  0  0  0  0  0  0  0  0  0
   27.4393  -19.8409   -6.6387 C   0  0  0  0  0  0  0  0  0  0  0  0
   27.6203  -18.5046   -6.3519 C   0  0  0  0  0  0  0  0  0  0  0  0
   28.0897  -18.1273   -5.1153 C   0  0  0  0  0  0  0  0  0  0  0  0
   28.4000  -19.0345   -4.1137 C   0  0  0  0  0  0  0  0  0  0  0  0
   28.2022  -20.3680   -4.4484 C   0  0  0  0  0  0  0  0  0  0  0  0
   27.7373  -20.7686   -5.6694 C   0  0  0  0  0  0  0  0  0  0  0  0
   29.1490  -21.2247   -8.6009 C   0  0  0  0  0  0  0  0  0  0  0  0
   30.3255  -20.7241   -8.0866 O   0  0  0  0  0  0  0  0  0  0  0  0
   29.0496  -22.4874   -8.7350 O   0  0  0  0  0  0  0  0  0  0  0  0
  2  1  1  6
  2  3  1  0
  4  5  1  0
  4  3  1  0
  6  5  1  0
  7  6  1  0
  8  9  2  0
  8  2  1  0
 10  8  1  0
 11 10  1  0
 11 12  1  6
 13 12  1  0
 13 14  1  0
 14 15  2  0
 16 11  1  0
 16 19  1  0
 17 16  2  0
 18 14  1  0
 20 19  1  0
 20 28  1  0
 20 21  1  1
 21 22  1  0
 22 27  2  0
 23 22  1  0
 23 24  2  0
 24 25  1  0
 25 26  2  0
 27 26  1  0
 28 29  1  0
 30 28  2  0
M  END
$$$$
