KEF.pdb
     RDKit          3D

 30 30  0  0  1  0  0  0  0  0999 V2000
   23.6402  -18.1796  -16.9770 N   0  0  0  0  0  0  0  0  0  0  0  0
   23.4453  -18.1321  -15.5774 C   0  0  1  0  0  0  0  0  0  0  0  0
   22.0003  -18.0317  -15.1182 C   0  0  0  0  0  0  0  0  0  0  0  0
   21.0703  -17.4564  -16.1175 C   0  0  0  0  0  0  0  0  0  0  0  0
   20.2071  -16.3279  -15.7089 C   0  0  0  0  0  0  0  0  0  0  0  0
   18.9084  -16.7873  -15.1122 C   0  0  0  0  0  0  0  0  0  0  0  0
   18.0661  -15.7114  -14.7495 N   0  0  0  0  0  0  0  0  0  0  0  0
   24.1275  -19.2244  -14.8157 C   0  0  0  0  0  0  0  0  0  0  0  0
   23.3933  -20.0690  -14.2283 O   0  0  0  0  0  0  0  0  0  0  0  0
   25.5105  -19.3960  -14.6945 N   0  0  0  0  0  0  0  0  0  0  0  0
   26.0894  -20.5207  -13.9140 C   0  0  1  0  0  0  0  0  0  0  0  0
   27.2869  -20.9083  -14.7129 C   0  0  0  0  0  0  0  0  0  0  0  0
   28.1154  -22.0411  -14.2931 C   0  0  0  0  0  0  0  0  0  0  0  0
   29.2214  -22.3011  -15.2383 C   0  0  0  0  0  0  0  0  0  0  0  0
   30.1154  -23.1915  -15.0109 O   0  0  0  0  0  0  0  0  0  0  0  0
   26.2795  -20.1454  -12.5159 C   0  0  0  0  0  0  0  0  0  0  0  0
   27.4274  -19.7911  -12.1448 O   0  0  0  0  0  0  0  0  0  0  0  0
   29.3771  -21.6096  -16.4398 O   0  0  0  0  0  0  0  0  0  0  0  0
   25.2614  -20.1495  -11.5387 N   0  0  0  0  0  0  0  0  0  0  0  0
   25.4897  -20.5483  -10.1732 C   0  0  1  0  0  0  0  0  0  0  0  0
   25.8446  -19.3528   -9.3036 C   0  0  0  0  0  0  0  0  0  0  0  0
   27.0177  -19.6148   -8.4264 C   0  0  0  0  0  0  0  0  0  0  0  0
   27.8091  -18.5997   -7.9325 C   0  0  0  0  0  0  0  0  0  0  0  0
   28.8687  -18.8973   -7.1076 C   0  0  0  0  0  0  0  0  0  0  0  0
   29.1973  -20.1912   -6.7335 C   0  0  0  0  0  0  0  0  0  0  0  0
   28.3729  -21.1798   -7.2552 C   0  0  0  0  0  0  0  0  0  0  0  0
   27.3145  -20.9104   -8.0766 C   0  0  0  0  0  0  0  0  0  0  0  0
   24.3321  -21.3072   -9.7013 C   0  0  0  0  0  0  0  0  0  0  0  0
   24.2415  -21.9333   -8.4770 O   0  0  0  0  0  0  0  0  0  0  0  0
   23.3334  -21.3928  -10.4872 O   0  0  0  0  0  0  0  0  0  0  0  0
  2  1  1  6
  2  3  1  0
  4  5  1  0
  4  3  1  0
  6  5  1  0
  7  6  1  0
  8  9  2  0
  8  2  1  0
 10  8  1  0
 11 10  1  0
 11 12  1  6
 13 12  1  0
 13 14  1  0
 14 15  2  0
 16 11  1  0
 16 19  1  0
 17 16  2  0
 18 14  1  0
 20 19  1  0
 20 28  1  0
 20 21  1  1
 21 22  1  0
 22 27  2  0
 23 22  1  0
 23 24  2  0
 24 25  1  0
 25 26  2  0
 27 26  1  0
 28 29  1  0
 30 28  2  0
M  END
$$$$
