KEF.pdb
     RDKit          3D

 30 30  0  0  1  0  0  0  0  0999 V2000
   22.4930  -17.1195  -20.2194 N   0  0  0  0  0  0  0  0  0  0  0  0
   22.7922  -16.8360  -18.8668 C   0  0  1  0  0  0  0  0  0  0  0  0
   21.7524  -16.0159  -18.1218 C   0  0  0  0  0  0  0  0  0  0  0  0
   21.3643  -14.7518  -18.7895 C   0  0  0  0  0  0  0  0  0  0  0  0
   20.1404  -14.7399  -19.6186 C   0  0  0  0  0  0  0  0  0  0  0  0
   18.9599  -14.1677  -18.8885 C   0  0  0  0  0  0  0  0  0  0  0  0
   17.7981  -14.1134  -19.6920 N   0  0  0  0  0  0  0  0  0  0  0  0
   23.1546  -18.0325  -18.0447 C   0  0  0  0  0  0  0  0  0  0  0  0
   22.4710  -19.0821  -18.2137 O   0  0  0  0  0  0  0  0  0  0  0  0
   24.1862  -18.0947  -17.1020 N   0  0  0  0  0  0  0  0  0  0  0  0
   24.4126  -19.3092  -16.2756 C   0  0  1  0  0  0  0  0  0  0  0  0
   25.8681  -19.2399  -15.9607 C   0  0  0  0  0  0  0  0  0  0  0  0
   26.4887  -20.2688  -15.1227 C   0  0  0  0  0  0  0  0  0  0  0  0
   26.9024  -21.4503  -15.9082 C   0  0  0  0  0  0  0  0  0  0  0  0
   26.6985  -21.5328  -17.1713 O   0  0  0  0  0  0  0  0  0  0  0  0
   23.4648  -19.3730  -15.1668 C   0  0  0  0  0  0  0  0  0  0  0  0
   23.3457  -18.3640  -14.4260 O   0  0  0  0  0  0  0  0  0  0  0  0
   27.5430  -22.5546  -15.3458 O   0  0  0  0  0  0  0  0  0  0  0  0
   22.6629  -20.4930  -14.8603 N   0  0  0  0  0  0  0  0  0  0  0  0
   21.7101  -20.5005  -13.7797 C   0  0  1  0  0  0  0  0  0  0  0  0
   20.7494  -19.3270  -13.8862 C   0  0  0  0  0  0  0  0  0  0  0  0
   19.7120  -19.5334  -14.9330 C   0  0  0  0  0  0  0  0  0  0  0  0
   18.4460  -19.9904  -14.6348 C   0  0  0  0  0  0  0  0  0  0  0  0
   17.5188  -20.1424  -15.6394 C   0  0  0  0  0  0  0  0  0  0  0  0
   17.7885  -19.8559  -16.9689 C   0  0  0  0  0  0  0  0  0  0  0  0
   19.0758  -19.3992  -17.2209 C   0  0  0  0  0  0  0  0  0  0  0  0
   20.0149  -19.2399  -16.2411 C   0  0  0  0  0  0  0  0  0  0  0  0
   21.0543  -21.8068  -13.7350 C   0  0  0  0  0  0  0  0  0  0  0  0
   21.3680  -22.8782  -14.5430 O   0  0  0  0  0  0  0  0  0  0  0  0
   20.1215  -21.9601  -12.8814 O   0  0  0  0  0  0  0  0  0  0  0  0
  2  1  1  6
  2  3  1  0
  4  5  1  0
  4  3  1  0
  6  5  1  0
  7  6  1  0
  8  9  2  0
  8  2  1  0
 10  8  1  0
 11 10  1  0
 11 12  1  1
 13 12  1  0
 13 14  1  0
 14 15  2  0
 16 11  1  0
 16 19  1  0
 17 16  2  0
 18 14  1  0
 20 19  1  0
 20 28  1  0
 20 21  1  6
 21 22  1  0
 22 27  2  0
 23 22  1  0
 23 24  2  0
 24 25  1  0
 25 26  2  0
 27 26  1  0
 28 29  1  0
 30 28  2  0
M  END
$$$$
