KEF.pdb
     RDKit          3D

 30 30  0  0  1  0  0  0  0  0999 V2000
   27.7443  -22.4991  -15.9766 N   0  0  0  0  0  0  0  0  0  0  0  0
   28.2115  -21.2358  -15.5463 C   0  0  1  0  0  0  0  0  0  0  0  0
   28.4684  -20.2204  -16.6472 C   0  0  0  0  0  0  0  0  0  0  0  0
   28.6216  -20.7995  -18.0020 C   0  0  0  0  0  0  0  0  0  0  0  0
   28.8447  -19.8819  -19.1394 C   0  0  0  0  0  0  0  0  0  0  0  0
   28.7722  -20.5842  -20.4643 C   0  0  0  0  0  0  0  0  0  0  0  0
   30.0390  -21.0130  -20.9223 N   0  0  0  0  0  0  0  0  0  0  0  0
   27.3861  -20.5983  -14.4735 C   0  0  0  0  0  0  0  0  0  0  0  0
   27.7507  -19.4616  -14.0583 O   0  0  0  0  0  0  0  0  0  0  0  0
   26.2423  -21.1492  -13.8860 N   0  0  0  0  0  0  0  0  0  0  0  0
   25.4938  -20.4334  -12.8199 C   0  0  1  0  0  0  0  0  0  0  0  0
   24.0720  -20.5859  -13.2415 C   0  0  0  0  0  0  0  0  0  0  0  0
   22.9903  -20.1963  -12.3337 C   0  0  0  0  0  0  0  0  0  0  0  0
   22.1366  -21.3439  -11.9617 C   0  0  0  0  0  0  0  0  0  0  0  0
   21.5196  -21.3971  -10.8391 O   0  0  0  0  0  0  0  0  0  0  0  0
   25.8804  -20.9123  -11.4960 C   0  0  0  0  0  0  0  0  0  0  0  0
   26.2270  -22.1149  -11.3751 O   0  0  0  0  0  0  0  0  0  0  0  0
   21.9336  -22.4454  -12.7933 O   0  0  0  0  0  0  0  0  0  0  0  0
   25.8955  -20.1192  -10.3288 N   0  0  0  0  0  0  0  0  0  0  0  0
   26.3697  -20.6062   -9.0585 C   0  0  1  0  0  0  0  0  0  0  0  0
   27.6099  -19.8506   -8.6087 C   0  0  0  0  0  0  0  0  0  0  0  0
   27.9007  -20.0432   -7.1620 C   0  0  0  0  0  0  0  0  0  0  0  0
   27.3583  -19.2326   -6.1877 C   0  0  0  0  0  0  0  0  0  0  0  0
   27.6436  -19.4694   -4.8631 C   0  0  0  0  0  0  0  0  0  0  0  0
   28.4659  -20.5017   -4.4382 C   0  0  0  0  0  0  0  0  0  0  0  0
   28.9891  -21.2910   -5.4544 C   0  0  0  0  0  0  0  0  0  0  0  0
   28.7212  -21.0765   -6.7772 C   0  0  0  0  0  0  0  0  0  0  0  0
   25.2685  -20.5724   -8.0969 C   0  0  0  0  0  0  0  0  0  0  0  0
   25.1090  -21.4479   -7.0447 O   0  0  0  0  0  0  0  0  0  0  0  0
   24.3917  -19.6610   -8.2489 O   0  0  0  0  0  0  0  0  0  0  0  0
  2  1  1  6
  2  3  1  0
  4  5  1  0
  4  3  1  0
  6  5  1  0
  7  6  1  0
  8  9  2  0
  8  2  1  0
 10  8  1  0
 11 10  1  0
 11 12  1  6
 13 12  1  0
 13 14  1  0
 14 15  2  0
 16 11  1  0
 16 19  1  0
 17 16  2  0
 18 14  1  0
 20 19  1  0
 20 28  1  0
 20 21  1  1
 21 22  1  0
 22 27  2  0
 23 22  1  0
 23 24  2  0
 24 25  1  0
 25 26  2  0
 27 26  1  0
 28 29  1  0
 30 28  2  0
M  END
$$$$
