KEF.pdb
     RDKit          3D

 30 30  0  0  1  0  0  0  0  0999 V2000
   27.0282  -21.1622  -15.7787 N   0  0  0  0  0  0  0  0  0  0  0  0
   27.3940  -20.0884  -14.9347 C   0  0  1  0  0  0  0  0  0  0  0  0
   27.3741  -18.7115  -15.5769 C   0  0  0  0  0  0  0  0  0  0  0  0
   28.0575  -18.6288  -16.8886 C   0  0  0  0  0  0  0  0  0  0  0  0
   29.2042  -19.5263  -17.1435 C   0  0  0  0  0  0  0  0  0  0  0  0
   29.8728  -19.2420  -18.4572 C   0  0  0  0  0  0  0  0  0  0  0  0
   31.0640  -19.9829  -18.6325 N   0  0  0  0  0  0  0  0  0  0  0  0
   26.6518  -20.0353  -13.6366 C   0  0  0  0  0  0  0  0  0  0  0  0
   26.7158  -18.9606  -12.9744 O   0  0  0  0  0  0  0  0  0  0  0  0
   25.8901  -21.0721  -13.0873 N   0  0  0  0  0  0  0  0  0  0  0  0
   25.0997  -20.8817  -11.8430 C   0  0  1  0  0  0  0  0  0  0  0  0
   23.9366  -21.7941  -12.0360 C   0  0  0  0  0  0  0  0  0  0  0  0
   22.7534  -21.3324  -12.7660 C   0  0  0  0  0  0  0  0  0  0  0  0
   22.8262  -19.8920  -13.0883 C   0  0  0  0  0  0  0  0  0  0  0  0
   22.5245  -18.9871  -12.2316 O   0  0  0  0  0  0  0  0  0  0  0  0
   25.9345  -21.0623  -10.6588 C   0  0  0  0  0  0  0  0  0  0  0  0
   27.0443  -21.6376  -10.7942 O   0  0  0  0  0  0  0  0  0  0  0  0
   23.2275  -19.4078  -14.3335 O   0  0  0  0  0  0  0  0  0  0  0  0
   25.5870  -20.6347   -9.3596 N   0  0  0  0  0  0  0  0  0  0  0  0
   26.4537  -20.8071   -8.2217 C   0  0  1  0  0  0  0  0  0  0  0  0
   27.4940  -19.7007   -8.1508 C   0  0  0  0  0  0  0  0  0  0  0  0
   28.2646  -19.7243   -6.8780 C   0  0  0  0  0  0  0  0  0  0  0  0
   29.3920  -20.5007   -6.7141 C   0  0  0  0  0  0  0  0  0  0  0  0
   30.0789  -20.4675   -5.5230 C   0  0  0  0  0  0  0  0  0  0  0  0
   29.6951  -19.6793   -4.4489 C   0  0  0  0  0  0  0  0  0  0  0  0
   28.5545  -18.9153   -4.6601 C   0  0  0  0  0  0  0  0  0  0  0  0
   27.8544  -18.9305   -5.8336 C   0  0  0  0  0  0  0  0  0  0  0  0
   25.6344  -20.9343   -7.0170 C   0  0  0  0  0  0  0  0  0  0  0  0
   24.2827  -20.6751   -6.9478 O   0  0  0  0  0  0  0  0  0  0  0  0
   26.2213  -21.3143   -5.9523 O   0  0  0  0  0  0  0  0  0  0  0  0
  2  1  1  6
  2  3  1  0
  4  5  1  0
  4  3  1  0
  6  5  1  0
  7  6  1  0
  8  9  2  0
  8  2  1  0
 10  8  1  0
 11 10  1  0
 11 12  1  1
 13 12  1  0
 13 14  1  0
 14 15  2  0
 16 11  1  0
 16 19  1  0
 17 16  2  0
 18 14  1  0
 20 19  1  0
 20 28  1  0
 20 21  1  1
 21 22  1  0
 22 27  2  0
 23 22  1  0
 23 24  2  0
 24 25  1  0
 25 26  2  0
 27 26  1  0
 28 29  1  0
 30 28  2  0
M  END
$$$$
