KEF.pdb
     RDKit          3D

 30 30  0  0  1  0  0  0  0  0999 V2000
   29.1888  -21.4276  -17.4555 N   0  0  0  0  0  0  0  0  0  0  0  0
   28.6087  -22.0601  -16.3318 C   0  0  1  0  0  0  0  0  0  0  0  0
   29.5609  -22.8737  -15.4714 C   0  0  0  0  0  0  0  0  0  0  0  0
   30.3118  -23.9231  -16.1989 C   0  0  0  0  0  0  0  0  0  0  0  0
   29.5523  -25.0214  -16.8332 C   0  0  0  0  0  0  0  0  0  0  0  0
   29.8288  -26.3518  -16.1950 C   0  0  0  0  0  0  0  0  0  0  0  0
   31.1608  -26.7826  -16.3915 N   0  0  0  0  0  0  0  0  0  0  0  0
   27.8050  -21.1545  -15.4528 C   0  0  0  0  0  0  0  0  0  0  0  0
   28.3902  -20.1432  -14.9708 O   0  0  0  0  0  0  0  0  0  0  0  0
   26.4586  -21.3268  -15.1148 N   0  0  0  0  0  0  0  0  0  0  0  0
   25.7263  -20.3221  -14.3001 C   0  0  1  0  0  0  0  0  0  0  0  0
   24.6718  -19.8313  -15.2326 C   0  0  0  0  0  0  0  0  0  0  0  0
   23.5967  -18.9681  -14.7377 C   0  0  0  0  0  0  0  0  0  0  0  0
   22.5984  -18.6677  -15.7852 C   0  0  0  0  0  0  0  0  0  0  0  0
   22.9083  -18.6268  -17.0286 O   0  0  0  0  0  0  0  0  0  0  0  0
   25.3119  -20.8872  -13.0192 C   0  0  0  0  0  0  0  0  0  0  0  0
   25.0520  -22.1163  -12.9663 O   0  0  0  0  0  0  0  0  0  0  0  0
   21.2553  -18.4116  -15.5086 O   0  0  0  0  0  0  0  0  0  0  0  0
   25.1801  -20.1508  -11.8226 N   0  0  0  0  0  0  0  0  0  0  0  0
   24.6798  -20.7273  -10.6007 C   0  0  1  0  0  0  0  0  0  0  0  0
   25.1560  -19.9436   -9.3881 C   0  0  0  0  0  0  0  0  0  0  0  0
   26.6074  -20.1346   -9.1207 C   0  0  0  0  0  0  0  0  0  0  0  0
   27.3685  -21.0538   -9.8108 C   0  0  0  0  0  0  0  0  0  0  0  0
   28.7113  -21.1735   -9.5381 C   0  0  0  0  0  0  0  0  0  0  0  0
   29.3622  -20.4048   -8.5854 C   0  0  0  0  0  0  0  0  0  0  0  0
   28.5555  -19.4935   -7.9160 C   0  0  0  0  0  0  0  0  0  0  0  0
   27.2196  -19.3554   -8.1682 C   0  0  0  0  0  0  0  0  0  0  0  0
   23.2260  -20.8535  -10.6967 C   0  0  0  0  0  0  0  0  0  0  0  0
   22.4404  -21.6155   -9.8593 O   0  0  0  0  0  0  0  0  0  0  0  0
   22.6466  -20.2069  -11.6287 O   0  0  0  0  0  0  0  0  0  0  0  0
  2  1  1  6
  2  3  1  0
  4  5  1  0
  4  3  1  0
  6  5  1  0
  7  6  1  0
  8  9  2  0
  8  2  1  0
 10  8  1  0
 11 10  1  0
 11 12  1  6
 13 12  1  0
 13 14  1  0
 14 15  2  0
 16 11  1  0
 16 19  1  0
 17 16  2  0
 18 14  1  0
 20 19  1  0
 20 28  1  0
 20 21  1  1
 21 22  1  0
 22 27  2  0
 23 22  1  0
 23 24  2  0
 24 25  1  0
 25 26  2  0
 27 26  1  0
 28 29  1  0
 30 28  2  0
M  END
$$$$
