KEF.pdb
     RDKit          3D

 30 30  0  0  1  0  0  0  0  0999 V2000
   23.3245  -21.8811  -18.3239 N   0  0  0  0  0  0  0  0  0  0  0  0
   23.3392  -22.3796  -17.0008 C   0  0  1  0  0  0  0  0  0  0  0  0
   24.5720  -23.1788  -16.6133 C   0  0  0  0  0  0  0  0  0  0  0  0
   25.8484  -22.4320  -16.7009 C   0  0  0  0  0  0  0  0  0  0  0  0
   27.1024  -23.1381  -16.3629 C   0  0  0  0  0  0  0  0  0  0  0  0
   28.3030  -22.2398  -16.4367 C   0  0  0  0  0  0  0  0  0  0  0  0
   29.5142  -22.9313  -16.2062 N   0  0  0  0  0  0  0  0  0  0  0  0
   23.0673  -21.3542  -15.9455 C   0  0  0  0  0  0  0  0  0  0  0  0
   23.0977  -20.1397  -16.2941 O   0  0  0  0  0  0  0  0  0  0  0  0
   22.7814  -21.6196  -14.6022 N   0  0  0  0  0  0  0  0  0  0  0  0
   22.4033  -20.5354  -13.6584 C   0  0  1  0  0  0  0  0  0  0  0  0
   21.0673  -20.9694  -13.1592 C   0  0  0  0  0  0  0  0  0  0  0  0
   20.6422  -22.3628  -13.3133 C   0  0  0  0  0  0  0  0  0  0  0  0
   19.3501  -22.6266  -12.6460 C   0  0  0  0  0  0  0  0  0  0  0  0
   19.2688  -22.8549  -11.3871 O   0  0  0  0  0  0  0  0  0  0  0  0
   23.4638  -20.2950  -12.6841 C   0  0  0  0  0  0  0  0  0  0  0  0
   23.3108  -19.3622  -11.8549 O   0  0  0  0  0  0  0  0  0  0  0  0
   18.1308  -22.6444  -13.3235 O   0  0  0  0  0  0  0  0  0  0  0  0
   24.6603  -21.0385  -12.6008 N   0  0  0  0  0  0  0  0  0  0  0  0
   25.7610  -20.6566  -11.7533 C   0  0  1  0  0  0  0  0  0  0  0  0
   26.0147  -21.7011  -10.6780 C   0  0  0  0  0  0  0  0  0  0  0  0
   27.0760  -21.2869   -9.7208 C   0  0  0  0  0  0  0  0  0  0  0  0
   26.8032  -20.5298   -8.6014 C   0  0  0  0  0  0  0  0  0  0  0  0
   27.8197  -20.1935   -7.7379 C   0  0  0  0  0  0  0  0  0  0  0  0
   29.1370  -20.5805   -7.9313 C   0  0  0  0  0  0  0  0  0  0  0  0
   29.3635  -21.3408   -9.0713 C   0  0  0  0  0  0  0  0  0  0  0  0
   28.3714  -21.6880   -9.9446 C   0  0  0  0  0  0  0  0  0  0  0  0
   26.9248  -20.3662  -12.5898 C   0  0  0  0  0  0  0  0  0  0  0  0
   27.8628  -19.3907  -12.3302 O   0  0  0  0  0  0  0  0  0  0  0  0
   27.0778  -21.0728  -13.6385 O   0  0  0  0  0  0  0  0  0  0  0  0
  2  1  1  6
  2  3  1  0
  4  5  1  0
  4  3  1  0
  6  5  1  0
  7  6  1  0
  8  9  2  0
  8  2  1  0
 10  8  1  0
 11 10  1  0
 11 12  1  1
 13 12  1  0
 13 14  1  0
 14 15  2  0
 16 11  1  0
 16 19  1  0
 17 16  2  0
 18 14  1  0
 20 19  1  0
 20 28  1  0
 20 21  1  1
 21 22  1  0
 22 27  2  0
 23 22  1  0
 23 24  2  0
 24 25  1  0
 25 26  2  0
 27 26  1  0
 28 29  1  0
 30 28  2  0
M  END
$$$$
