KEF.pdb
     RDKit          3D

 30 30  0  0  1  0  0  0  0  0999 V2000
   26.0007  -18.2234  -16.1234 N   0  0  0  0  0  0  0  0  0  0  0  0
   26.8382  -18.8517  -15.1730 C   0  0  1  0  0  0  0  0  0  0  0  0
   28.2253  -18.2505  -15.0202 C   0  0  0  0  0  0  0  0  0  0  0  0
   29.0891  -18.3712  -16.2175 C   0  0  0  0  0  0  0  0  0  0  0  0
   28.8044  -19.4513  -17.1858 C   0  0  0  0  0  0  0  0  0  0  0  0
   29.7305  -19.4202  -18.3670 C   0  0  0  0  0  0  0  0  0  0  0  0
   29.4882  -20.4757  -19.2756 N   0  0  0  0  0  0  0  0  0  0  0  0
   26.2254  -19.0224  -13.8187 C   0  0  0  0  0  0  0  0  0  0  0  0
   25.9548  -17.9738  -13.1671 O   0  0  0  0  0  0  0  0  0  0  0  0
   25.9236  -20.2432  -13.2059 N   0  0  0  0  0  0  0  0  0  0  0  0
   25.1886  -20.3051  -11.9155 C   0  0  1  0  0  0  0  0  0  0  0  0
   24.1124  -21.3010  -12.1844 C   0  0  0  0  0  0  0  0  0  0  0  0
   23.1471  -21.6413  -11.1363 C   0  0  0  0  0  0  0  0  0  0  0  0
   21.8046  -21.0910  -11.4174 C   0  0  0  0  0  0  0  0  0  0  0  0
   21.2046  -21.2969  -12.5315 O   0  0  0  0  0  0  0  0  0  0  0  0
   26.1017  -20.5530  -10.8035 C   0  0  0  0  0  0  0  0  0  0  0  0
   27.0594  -21.3474  -10.9846 O   0  0  0  0  0  0  0  0  0  0  0  0
   21.0905  -20.3164  -10.5030 O   0  0  0  0  0  0  0  0  0  0  0  0
   25.9903  -19.9618   -9.5269 N   0  0  0  0  0  0  0  0  0  0  0  0
   26.8452  -20.3175   -8.4231 C   0  0  1  0  0  0  0  0  0  0  0  0
   27.5601  -19.0967   -7.8662 C   0  0  0  0  0  0  0  0  0  0  0  0
   28.2980  -19.3932   -6.6085 C   0  0  0  0  0  0  0  0  0  0  0  0
   27.9012  -18.8931   -5.3866 C   0  0  0  0  0  0  0  0  0  0  0  0
   28.6079  -19.2172   -4.2520 C   0  0  0  0  0  0  0  0  0  0  0  0
   29.7250  -20.0384   -4.2641 C   0  0  0  0  0  0  0  0  0  0  0  0
   30.0869  -20.5178   -5.5164 C   0  0  0  0  0  0  0  0  0  0  0  0
   29.4019  -20.2106   -6.6583 C   0  0  0  0  0  0  0  0  0  0  0  0
   26.0595  -21.0526   -7.4328 C   0  0  0  0  0  0  0  0  0  0  0  0
   24.7189  -20.8557   -7.1813 O   0  0  0  0  0  0  0  0  0  0  0  0
   26.6666  -21.9422   -6.7529 O   0  0  0  0  0  0  0  0  0  0  0  0
  2  1  1  6
  2  3  1  0
  4  5  1  0
  4  3  1  0
  6  5  1  0
  7  6  1  0
  8  9  2  0
  8  2  1  0
 10  8  1  0
 11 10  1  0
 11 12  1  6
 13 12  1  0
 13 14  1  0
 14 15  2  0
 16 11  1  0
 16 19  1  0
 17 16  2  0
 18 14  1  0
 20 19  1  0
 20 28  1  0
 20 21  1  1
 21 22  1  0
 22 27  2  0
 23 22  1  0
 23 24  2  0
 24 25  1  0
 25 26  2  0
 27 26  1  0
 28 29  1  0
 30 28  2  0
M  END
$$$$
