KEF.pdb
     RDKit          3D

 30 30  0  0  1  0  0  0  0  0999 V2000
   12.8034   -8.8395  -11.5837 N   0  0  0  0  0  0  0  0  0  0  0  0
   14.1206   -9.0037  -11.0966 C   0  0  1  0  0  0  0  0  0  0  0  0
   14.8481  -10.2486  -11.5761 C   0  0  0  0  0  0  0  0  0  0  0  0
   14.2195  -11.5282  -11.1739 C   0  0  0  0  0  0  0  0  0  0  0  0
   14.8133  -12.7899  -11.6649 C   0  0  0  0  0  0  0  0  0  0  0  0
   14.0642  -13.9996  -11.1860 C   0  0  0  0  0  0  0  0  0  0  0  0
   14.6385  -15.2092  -11.6394 N   0  0  0  0  0  0  0  0  0  0  0  0
   15.0077   -7.8136  -11.2851 C   0  0  0  0  0  0  0  0  0  0  0  0
   14.9232   -7.1943  -12.3836 O   0  0  0  0  0  0  0  0  0  0  0  0
   15.9261   -7.3225  -10.3512 N   0  0  0  0  0  0  0  0  0  0  0  0
   16.7531   -6.1198  -10.6320 C   0  0  1  0  0  0  0  0  0  0  0  0
   16.4300   -5.2117   -9.4947 C   0  0  0  0  0  0  0  0  0  0  0  0
   15.1479   -4.5039   -9.4606 C   0  0  0  0  0  0  0  0  0  0  0  0
   15.0131   -3.6559   -8.2577 C   0  0  0  0  0  0  0  0  0  0  0  0
   15.8788   -3.6739   -7.3122 O   0  0  0  0  0  0  0  0  0  0  0  0
   18.1495   -6.4839  -10.8543 C   0  0  0  0  0  0  0  0  0  0  0  0
   18.6606   -7.3640  -10.1159 O   0  0  0  0  0  0  0  0  0  0  0  0
   13.9485   -2.7766   -8.0591 O   0  0  0  0  0  0  0  0  0  0  0  0
   18.9780   -5.9176  -11.8464 N   0  0  0  0  0  0  0  0  0  0  0  0
   20.2498   -6.4825  -12.2190 C   0  0  1  0  0  0  0  0  0  0  0  0
   20.0806   -7.8700  -12.8171 C   0  0  0  0  0  0  0  0  0  0  0  0
   21.3635   -8.4353  -13.3164 C   0  0  0  0  0  0  0  0  0  0  0  0
   21.7660   -8.3013  -14.6282 C   0  0  0  0  0  0  0  0  0  0  0  0
   22.9724   -8.8248  -15.0310 C   0  0  0  0  0  0  0  0  0  0  0  0
   23.8304   -9.4971  -14.1741 C   0  0  0  0  0  0  0  0  0  0  0  0
   23.3829   -9.6075  -12.8638 C   0  0  0  0  0  0  0  0  0  0  0  0
   22.1889   -9.0965  -12.4388 C   0  0  0  0  0  0  0  0  0  0  0  0
   20.9510   -5.5389  -13.0889 C   0  0  0  0  0  0  0  0  0  0  0  0
   20.3425   -4.5846  -13.8752 O   0  0  0  0  0  0  0  0  0  0  0  0
   22.2224   -5.6096  -13.1181 O   0  0  0  0  0  0  0  0  0  0  0  0
  2  1  1  6
  2  3  1  0
  4  5  1  0
  4  3  1  0
  6  5  1  0
  7  6  1  0
  8  9  2  0
  8  2  1  0
 10  8  1  0
 11 10  1  0
 11 12  1  1
 13 12  1  0
 13 14  1  0
 14 15  2  0
 16 11  1  0
 16 19  1  0
 17 16  2  0
 18 14  1  0
 20 19  1  0
 20 28  1  0
 20 21  1  6
 21 22  1  0
 22 27  2  0
 23 22  1  0
 23 24  2  0
 24 25  1  0
 25 26  2  0
 27 26  1  0
 28 29  1  0
 30 28  2  0
M  END
$$$$
