KEF.pdb
     RDKit          3D

 30 30  0  0  1  0  0  0  0  0999 V2000
   26.6976  -23.2116  -17.9395 N   0  0  0  0  0  0  0  0  0  0  0  0
   27.0360  -22.1854  -17.0275 C   0  0  1  0  0  0  0  0  0  0  0  0
   28.3822  -21.5195  -17.2574 C   0  0  0  0  0  0  0  0  0  0  0  0
   29.5298  -22.4525  -17.3410 C   0  0  0  0  0  0  0  0  0  0  0  0
   29.4148  -23.7715  -16.6833 C   0  0  0  0  0  0  0  0  0  0  0  0
   30.6959  -24.5522  -16.7381 C   0  0  0  0  0  0  0  0  0  0  0  0
   30.6382  -25.7452  -15.9819 N   0  0  0  0  0  0  0  0  0  0  0  0
   25.9886  -21.1301  -16.8601 C   0  0  0  0  0  0  0  0  0  0  0  0
   26.2769  -20.1352  -16.1359 O   0  0  0  0  0  0  0  0  0  0  0  0
   24.7135  -21.1452  -17.4353 N   0  0  0  0  0  0  0  0  0  0  0  0
   23.7259  -20.0676  -17.1661 C   0  0  1  0  0  0  0  0  0  0  0  0
   23.0919  -19.8469  -18.4972 C   0  0  0  0  0  0  0  0  0  0  0  0
   22.9163  -18.4865  -19.0114 C   0  0  0  0  0  0  0  0  0  0  0  0
   23.6352  -18.2768  -20.2855 C   0  0  0  0  0  0  0  0  0  0  0  0
   24.8718  -17.9399  -20.3214 O   0  0  0  0  0  0  0  0  0  0  0  0
   22.8672  -20.4135  -16.0371 C   0  0  0  0  0  0  0  0  0  0  0  0
   22.6159  -21.6279  -15.8298 O   0  0  0  0  0  0  0  0  0  0  0  0
   23.0345  -18.4303  -21.5351 O   0  0  0  0  0  0  0  0  0  0  0  0
   22.2921  -19.4782  -15.1505 N   0  0  0  0  0  0  0  0  0  0  0  0
   21.4592  -19.8633  -14.0399 C   0  0  1  0  0  0  0  0  0  0  0  0
   22.1691  -19.6339  -12.7152 C   0  0  0  0  0  0  0  0  0  0  0  0
   21.2899  -19.8995  -11.5443 C   0  0  0  0  0  0  0  0  0  0  0  0
   21.0384  -21.1755  -11.0869 C   0  0  0  0  0  0  0  0  0  0  0  0
   20.2351  -21.3623   -9.9862 C   0  0  0  0  0  0  0  0  0  0  0  0
   19.6475  -20.3164   -9.2910 C   0  0  0  0  0  0  0  0  0  0  0  0
   19.9288  -19.0504   -9.7882 C   0  0  0  0  0  0  0  0  0  0  0  0
   20.7233  -18.8383  -10.8796 C   0  0  0  0  0  0  0  0  0  0  0  0
   20.1717  -19.1791  -14.1535 C   0  0  0  0  0  0  0  0  0  0  0  0
   18.9631  -19.6915  -13.7340 O   0  0  0  0  0  0  0  0  0  0  0  0
   20.1737  -18.0203  -14.6822 O   0  0  0  0  0  0  0  0  0  0  0  0
  2  1  1  6
  2  3  1  0
  4  5  1  0
  4  3  1  0
  6  5  1  0
  7  6  1  0
  8  9  2  0
  8  2  1  0
 10  8  1  0
 11 10  1  0
 11 12  1  6
 13 12  1  0
 13 14  1  0
 14 15  2  0
 16 11  1  0
 16 19  1  0
 17 16  2  0
 18 14  1  0
 20 19  1  0
 20 28  1  0
 20 21  1  1
 21 22  1  0
 22 27  2  0
 23 22  1  0
 23 24  2  0
 24 25  1  0
 25 26  2  0
 27 26  1  0
 28 29  1  0
 30 28  2  0
M  END
$$$$
