KEF.pdb
     RDKit          3D

 30 30  0  0  1  0  0  0  0  0999 V2000
   25.1977  -23.3870  -13.5533 N   0  0  0  0  0  0  0  0  0  0  0  0
   24.9789  -22.0054  -13.3474 C   0  0  1  0  0  0  0  0  0  0  0  0
   26.1704  -21.2226  -12.8216 C   0  0  0  0  0  0  0  0  0  0  0  0
   25.9737  -20.6175  -11.4839 C   0  0  0  0  0  0  0  0  0  0  0  0
   25.1846  -21.3647  -10.4816 C   0  0  0  0  0  0  0  0  0  0  0  0
   25.0434  -20.6146   -9.1890 C   0  0  0  0  0  0  0  0  0  0  0  0
   24.3425  -21.3511   -8.2068 N   0  0  0  0  0  0  0  0  0  0  0  0
   24.3981  -21.2844  -14.5229 C   0  0  0  0  0  0  0  0  0  0  0  0
   24.9246  -21.4961  -15.6523 O   0  0  0  0  0  0  0  0  0  0  0  0
   23.3205  -20.3934  -14.4845 N   0  0  0  0  0  0  0  0  0  0  0  0
   22.8002  -19.7483  -15.7184 C   0  0  1  0  0  0  0  0  0  0  0  0
   21.3355  -20.0179  -15.6514 C   0  0  0  0  0  0  0  0  0  0  0  0
   20.4448  -19.5030  -16.6943 C   0  0  0  0  0  0  0  0  0  0  0  0
   19.0369  -19.8880  -16.4627 C   0  0  0  0  0  0  0  0  0  0  0  0
   18.6754  -21.1136  -16.3574 O   0  0  0  0  0  0  0  0  0  0  0  0
   23.2471  -18.3616  -15.8134 C   0  0  0  0  0  0  0  0  0  0  0  0
   23.1340  -17.6282  -14.7984 O   0  0  0  0  0  0  0  0  0  0  0  0
   18.0025  -18.9604  -16.3382 O   0  0  0  0  0  0  0  0  0  0  0  0
   23.8032  -17.7755  -16.9705 N   0  0  0  0  0  0  0  0  0  0  0  0
   24.1906  -16.3894  -17.0359 C   0  0  1  0  0  0  0  0  0  0  0  0
   25.6991  -16.2458  -17.1593 C   0  0  0  0  0  0  0  0  0  0  0  0
   26.4342  -17.1137  -16.1997 C   0  0  0  0  0  0  0  0  0  0  0  0
   26.9178  -18.3558  -16.5517 C   0  0  0  0  0  0  0  0  0  0  0  0
   27.6098  -19.1073  -15.6308 C   0  0  0  0  0  0  0  0  0  0  0  0
   27.8565  -18.6791  -14.3354 C   0  0  0  0  0  0  0  0  0  0  0  0
   27.3505  -17.4230  -14.0266 C   0  0  0  0  0  0  0  0  0  0  0  0
   26.6598  -16.6570  -14.9231 C   0  0  0  0  0  0  0  0  0  0  0  0
   23.4392  -15.7374  -18.1077 C   0  0  0  0  0  0  0  0  0  0  0  0
   23.3990  -14.3785  -18.3331 O   0  0  0  0  0  0  0  0  0  0  0  0
   22.7720  -16.4889  -18.8904 O   0  0  0  0  0  0  0  0  0  0  0  0
  2  1  1  6
  2  3  1  0
  4  5  1  0
  4  3  1  0
  6  5  1  0
  7  6  1  0
  8  9  2  0
  8  2  1  0
 10  8  1  0
 11 10  1  0
 11 12  1  1
 13 12  1  0
 13 14  1  0
 14 15  2  0
 16 11  1  0
 16 19  1  0
 17 16  2  0
 18 14  1  0
 20 19  1  0
 20 28  1  0
 20 21  1  6
 21 22  1  0
 22 27  2  0
 23 22  1  0
 23 24  2  0
 24 25  1  0
 25 26  2  0
 27 26  1  0
 28 29  1  0
 30 28  2  0
M  END
$$$$
