KEF.pdb
     RDKit          3D

 30 30  0  0  1  0  0  0  0  0999 V2000
   28.7760  -20.1475  -16.7647 N   0  0  0  0  0  0  0  0  0  0  0  0
   28.6472  -18.9849  -15.9703 C   0  0  1  0  0  0  0  0  0  0  0  0
   28.4842  -17.6816  -16.7344 C   0  0  0  0  0  0  0  0  0  0  0  0
   27.8587  -17.8195  -18.0701 C   0  0  0  0  0  0  0  0  0  0  0  0
   28.3591  -16.9723  -19.1733 C   0  0  0  0  0  0  0  0  0  0  0  0
   27.6459  -17.2373  -20.4675 C   0  0  0  0  0  0  0  0  0  0  0  0
   28.1701  -16.4822  -21.5415 N   0  0  0  0  0  0  0  0  0  0  0  0
   27.5940  -19.0676  -14.9108 C   0  0  0  0  0  0  0  0  0  0  0  0
   27.4165  -18.0467  -14.1872 O   0  0  0  0  0  0  0  0  0  0  0  0
   26.7845  -20.1778  -14.6476 N   0  0  0  0  0  0  0  0  0  0  0  0
   25.7509  -20.1511  -13.5799 C   0  0  1  0  0  0  0  0  0  0  0  0
   24.5179  -20.5981  -14.2888 C   0  0  0  0  0  0  0  0  0  0  0  0
   23.6062  -19.6107  -14.8715 C   0  0  0  0  0  0  0  0  0  0  0  0
   22.1886  -19.9580  -14.6390 C   0  0  0  0  0  0  0  0  0  0  0  0
   21.8376  -21.0845  -14.1375 O   0  0  0  0  0  0  0  0  0  0  0  0
   26.1886  -20.9031  -12.4074 C   0  0  0  0  0  0  0  0  0  0  0  0
   27.2350  -21.5943  -12.4995 O   0  0  0  0  0  0  0  0  0  0  0  0
   21.1327  -19.0973  -14.9395 O   0  0  0  0  0  0  0  0  0  0  0  0
   25.5198  -20.9127  -11.1648 N   0  0  0  0  0  0  0  0  0  0  0  0
   26.2058  -21.0783   -9.9088 C   0  0  1  0  0  0  0  0  0  0  0  0
   27.3573  -20.0942   -9.7777 C   0  0  0  0  0  0  0  0  0  0  0  0
   27.9566  -20.0971   -8.4156 C   0  0  0  0  0  0  0  0  0  0  0  0
   27.4838  -19.2916   -7.4016 C   0  0  0  0  0  0  0  0  0  0  0  0
   28.0614  -19.3505   -6.1547 C   0  0  0  0  0  0  0  0  0  0  0  0
   29.1187  -20.1937   -5.8487 C   0  0  0  0  0  0  0  0  0  0  0  0
   29.5609  -20.9853   -6.9009 C   0  0  0  0  0  0  0  0  0  0  0  0
   29.0044  -20.9454   -8.1483 C   0  0  0  0  0  0  0  0  0  0  0  0
   25.2299  -21.0034   -8.8223 C   0  0  0  0  0  0  0  0  0  0  0  0
   25.3015  -21.7135   -7.6434 O   0  0  0  0  0  0  0  0  0  0  0  0
   24.2389  -20.2197   -8.9839 O   0  0  0  0  0  0  0  0  0  0  0  0
  2  1  1  6
  2  3  1  0
  4  5  1  0
  4  3  1  0
  6  5  1  0
  7  6  1  0
  8  9  2  0
  8  2  1  0
 10  8  1  0
 11 10  1  0
 11 12  1  6
 13 12  1  0
 13 14  1  0
 14 15  2  0
 16 11  1  0
 16 19  1  0
 17 16  2  0
 18 14  1  0
 20 19  1  0
 20 28  1  0
 20 21  1  1
 21 22  1  0
 22 27  2  0
 23 22  1  0
 23 24  2  0
 24 25  1  0
 25 26  2  0
 27 26  1  0
 28 29  1  0
 30 28  2  0
M  END
$$$$
