KEF.pdb
     RDKit          3D

 30 30  0  0  1  0  0  0  0  0999 V2000
   24.5243  -17.7805  -14.8502 N   0  0  0  0  0  0  0  0  0  0  0  0
   23.6224  -18.2754  -13.8802 C   0  0  1  0  0  0  0  0  0  0  0  0
   22.2252  -18.5952  -14.3846 C   0  0  0  0  0  0  0  0  0  0  0  0
   21.8388  -17.8915  -15.6295 C   0  0  0  0  0  0  0  0  0  0  0  0
   21.4123  -18.6990  -16.7920 C   0  0  0  0  0  0  0  0  0  0  0  0
   19.9317  -18.9465  -16.8050 C   0  0  0  0  0  0  0  0  0  0  0  0
   19.5166  -19.7015  -17.9258 N   0  0  0  0  0  0  0  0  0  0  0  0
   24.1353  -19.4357  -13.0869 C   0  0  0  0  0  0  0  0  0  0  0  0
   23.2859  -20.1350  -12.4649 O   0  0  0  0  0  0  0  0  0  0  0  0
   25.4759  -19.8180  -12.9709 N   0  0  0  0  0  0  0  0  0  0  0  0
   25.8805  -21.0019  -12.1685 C   0  0  1  0  0  0  0  0  0  0  0  0
   26.7796  -21.7488  -13.0939 C   0  0  0  0  0  0  0  0  0  0  0  0
   26.2320  -22.7820  -13.9763 C   0  0  0  0  0  0  0  0  0  0  0  0
   27.0670  -22.9855  -15.1787 C   0  0  0  0  0  0  0  0  0  0  0  0
   28.1715  -22.3586  -15.3540 O   0  0  0  0  0  0  0  0  0  0  0  0
   26.4044  -20.5988  -10.8667 C   0  0  0  0  0  0  0  0  0  0  0  0
   27.4308  -19.8733  -10.8362 O   0  0  0  0  0  0  0  0  0  0  0  0
   26.7261  -23.8676  -16.2043 O   0  0  0  0  0  0  0  0  0  0  0  0
   25.8396  -20.9650   -9.6264 N   0  0  0  0  0  0  0  0  0  0  0  0
   26.5633  -20.8843   -8.3833 C   0  0  1  0  0  0  0  0  0  0  0  0
   27.1716  -19.5043   -8.1902 C   0  0  0  0  0  0  0  0  0  0  0  0
   27.8526  -19.3610   -6.8749 C   0  0  0  0  0  0  0  0  0  0  0  0
   27.1830  -18.9581   -5.7392 C   0  0  0  0  0  0  0  0  0  0  0  0
   27.8574  -18.8636   -4.5441 C   0  0  0  0  0  0  0  0  0  0  0  0
   29.2059  -19.1569   -4.4100 C   0  0  0  0  0  0  0  0  0  0  0  0
   29.8380  -19.5578   -5.5800 C   0  0  0  0  0  0  0  0  0  0  0  0
   29.1908  -19.6595   -6.7792 C   0  0  0  0  0  0  0  0  0  0  0  0
   25.6834  -21.3064   -7.2942 C   0  0  0  0  0  0  0  0  0  0  0  0
   26.1076  -21.7570   -6.0629 O   0  0  0  0  0  0  0  0  0  0  0  0
   24.4286  -21.2514   -7.5061 O   0  0  0  0  0  0  0  0  0  0  0  0
  2  1  1  6
  2  3  1  0
  4  5  1  0
  4  3  1  0
  6  5  1  0
  7  6  1  0
  8  9  2  0
  8  2  1  0
 10  8  1  0
 11 10  1  0
 11 12  1  6
 13 12  1  0
 13 14  1  0
 14 15  2  0
 16 11  1  0
 16 19  1  0
 17 16  2  0
 18 14  1  0
 20 19  1  0
 20 28  1  0
 20 21  1  1
 21 22  1  0
 22 27  2  0
 23 22  1  0
 23 24  2  0
 24 25  1  0
 25 26  2  0
 27 26  1  0
 28 29  1  0
 30 28  2  0
M  END
$$$$
