KEF.pdb
     RDKit          3D

 30 30  0  0  1  0  0  0  0  0999 V2000
   19.5863  -18.5906  -15.3176 N   0  0  0  0  0  0  0  0  0  0  0  0
   20.9541  -18.2350  -15.2744 C   0  0  1  0  0  0  0  0  0  0  0  0
   21.9360  -19.3692  -15.5162 C   0  0  0  0  0  0  0  0  0  0  0  0
   21.5609  -20.6585  -14.8906 C   0  0  0  0  0  0  0  0  0  0  0  0
   20.8339  -20.6321  -13.6036 C   0  0  0  0  0  0  0  0  0  0  0  0
   20.3800  -21.9971  -13.1743 C   0  0  0  0  0  0  0  0  0  0  0  0
   19.5790  -21.9624  -12.0100 N   0  0  0  0  0  0  0  0  0  0  0  0
   21.3236  -17.0728  -16.1413 C   0  0  0  0  0  0  0  0  0  0  0  0
   22.5491  -16.7741  -16.2210 O   0  0  0  0  0  0  0  0  0  0  0  0
   20.4313  -16.2837  -16.8747 N   0  0  0  0  0  0  0  0  0  0  0  0
   20.9006  -15.1362  -17.6946 C   0  0  1  0  0  0  0  0  0  0  0  0
   20.0605  -15.2294  -18.9226 C   0  0  0  0  0  0  0  0  0  0  0  0
   20.1701  -14.2086  -19.9675 C   0  0  0  0  0  0  0  0  0  0  0  0
   19.0545  -13.2406  -19.9180 C   0  0  0  0  0  0  0  0  0  0  0  0
   17.8784  -13.5361  -20.3342 O   0  0  0  0  0  0  0  0  0  0  0  0
   20.8705  -13.8954  -16.9256 C   0  0  0  0  0  0  0  0  0  0  0  0
   20.4875  -13.9451  -15.7290 O   0  0  0  0  0  0  0  0  0  0  0  0
   19.1894  -11.9455  -19.4175 O   0  0  0  0  0  0  0  0  0  0  0  0
   21.2435  -12.6307  -17.4286 N   0  0  0  0  0  0  0  0  0  0  0  0
   22.2230  -11.7916  -16.7865 C   0  0  1  0  0  0  0  0  0  0  0  0
   23.4897  -12.5701  -16.4689 C   0  0  0  0  0  0  0  0  0  0  0  0
   24.5543  -11.7110  -15.8831 C   0  0  0  0  0  0  0  0  0  0  0  0
   25.5859  -11.1979  -16.6401 C   0  0  0  0  0  0  0  0  0  0  0  0
   26.5315  -10.3910  -16.0514 C   0  0  0  0  0  0  0  0  0  0  0  0
   26.5086  -10.0540  -14.7067 C   0  0  0  0  0  0  0  0  0  0  0  0
   25.4520  -10.5940  -13.9848 C   0  0  0  0  0  0  0  0  0  0  0  0
   24.5002  -11.3981  -14.5459 C   0  0  0  0  0  0  0  0  0  0  0  0
   22.4431  -10.6040  -17.6109 C   0  0  0  0  0  0  0  0  0  0  0  0
   22.4645  -10.5894  -18.9887 O   0  0  0  0  0  0  0  0  0  0  0  0
   22.6290   -9.5004  -17.0026 O   0  0  0  0  0  0  0  0  0  0  0  0
  2  1  1  6
  2  3  1  0
  4  5  1  0
  4  3  1  0
  6  5  1  0
  7  6  1  0
  8  9  2  0
  8  2  1  0
 10  8  1  0
 11 10  1  0
 11 12  1  6
 13 12  1  0
 13 14  1  0
 14 15  2  0
 16 11  1  0
 16 19  1  0
 17 16  2  0
 18 14  1  0
 20 19  1  0
 20 28  1  0
 20 21  1  6
 21 22  1  0
 22 27  2  0
 23 22  1  0
 23 24  2  0
 24 25  1  0
 25 26  2  0
 27 26  1  0
 28 29  1  0
 30 28  2  0
M  END
$$$$
