TVT.pdb
     RDKit          3D

 22 21  0  0  1  0  0  0  0  0999 V2000
    6.6720  -19.1322   19.2069 C   0  0  0  0  0  0  0  0  0  0  0  0
    7.5126  -18.9640   17.9505 C   0  0  1  0  0  0  0  0  0  0  0  0
    6.9638  -19.7583   16.9497 O   0  0  0  0  0  0  0  0  0  0  0  0
    7.4760  -17.5029   17.5894 C   0  0  2  0  0  0  0  0  0  0  0  0
    8.1148  -17.2765   16.3061 N   0  0  0  0  0  0  0  0  0  0  0  0
    8.1930  -16.6605   18.5842 C   0  0  0  0  0  0  0  0  0  0  0  0
    9.4417  -16.6964   18.7160 O   0  0  0  0  0  0  0  0  0  0  0  0
    7.3530  -12.7606   19.5884 C   0  0  0  0  0  0  0  0  0  0  0  0
    7.4501  -13.6754   20.8114 C   0  0  2  0  0  0  0  0  0  0  0  0
    8.0848  -12.8728   21.8943 C   0  0  0  0  0  0  0  0  0  0  0  0
    8.0908  -14.9748   20.4860 C   0  0  2  0  0  0  0  0  0  0  0  0
    7.5002  -15.7524   19.4567 N   0  0  0  0  0  0  0  0  0  0  0  0
    8.5349  -15.7563   21.6872 C   0  0  0  0  0  0  0  0  0  0  0  0
    7.7196  -16.1072   22.5789 O   0  0  0  0  0  0  0  0  0  0  0  0
    9.7518  -19.0590   21.9387 C   0  0  0  0  0  0  0  0  0  0  0  0
   10.8570  -18.2394   22.5727 C   0  0  1  0  0  0  0  0  0  0  0  0
   11.8230  -17.9969   21.5946 O   0  0  0  0  0  0  0  0  0  0  0  0
   10.2471  -16.9556   23.0840 C   0  0  2  0  0  0  0  0  0  0  0  0
    9.8822  -16.1499   21.9084 N   0  0  0  0  0  0  0  0  0  0  0  0
   11.3103  -16.2031   23.7966 C   0  0  0  0  0  0  0  0  0  0  0  0
   11.8505  -15.2221   23.2197 O   0  0  0  0  0  0  0  0  0  0  0  0
   11.7287  -16.5362   25.0638 O   0  0  0  0  0  0  0  0  0  0  0  0
  2  1  1  1
  2  3  1  0
  2  4  1  0
  4  5  1  6
  6  4  1  0
  6 12  1  0
  7  6  2  0
  9 11  1  0
  9  8  1  6
 10  9  1  0
 11 12  1  1
 11 13  1  0
 13 19  1  0
 14 13  2  0
 16 15  1  6
 17 16  1  0
 18 16  1  0
 18 19  1  6
 20 18  1  0
 20 22  1  0
 21 20  2  0
M  END
$$$$
