TVT.pdb
     RDKit          3D

 22 21  0  0  1  0  0  0  0  0999 V2000
    6.5204  -15.7246   20.5658 C   0  0  0  0  0  0  0  0  0  0  0  0
    7.5748  -14.7874   19.9971 C   0  0  1  0  0  0  0  0  0  0  0  0
    7.3128  -14.6071   18.6435 O   0  0  0  0  0  0  0  0  0  0  0  0
    7.4745  -13.4958   20.7641 C   0  0  2  0  0  0  0  0  0  0  0  0
    8.1439  -12.4236   20.0510 N   0  0  0  0  0  0  0  0  0  0  0  0
    8.1124  -13.5878   22.1050 C   0  0  0  0  0  0  0  0  0  0  0  0
    9.3572  -13.5219   22.2603 O   0  0  0  0  0  0  0  0  0  0  0  0
    5.8858  -13.4557   26.0639 C   0  0  0  0  0  0  0  0  0  0  0  0
    7.3152  -13.0600   25.6867 C   0  0  2  0  0  0  0  0  0  0  0  0
    7.2943  -11.5950   25.4161 C   0  0  0  0  0  0  0  0  0  0  0  0
    7.8683  -13.9251   24.6140 C   0  0  2  0  0  0  0  0  0  0  0  0
    7.3428  -13.7580   23.3068 N   0  0  0  0  0  0  0  0  0  0  0  0
    8.0825  -15.3513   25.0272 C   0  0  0  0  0  0  0  0  0  0  0  0
    7.1294  -16.1714   25.0701 O   0  0  0  0  0  0  0  0  0  0  0  0
    9.9936  -17.8825   23.4344 C   0  0  0  0  0  0  0  0  0  0  0  0
   10.5543  -17.8750   24.8418 C   0  0  1  0  0  0  0  0  0  0  0  0
   11.7156  -17.1003   24.8343 O   0  0  0  0  0  0  0  0  0  0  0  0
    9.5026  -17.2936   25.7568 C   0  0  2  0  0  0  0  0  0  0  0  0
    9.3504  -15.8751   25.3974 N   0  0  0  0  0  0  0  0  0  0  0  0
   10.0416  -17.3221   27.1399 C   0  0  0  0  0  0  0  0  0  0  0  0
   10.3637  -16.2347   27.6885 O   0  0  0  0  0  0  0  0  0  0  0  0
   10.2030  -18.4913   27.8463 O   0  0  0  0  0  0  0  0  0  0  0  0
  2  1  1  1
  2  3  1  0
  2  4  1  0
  4  5  1  6
  6  4  1  0
  6 12  1  0
  7  6  2  0
  9 11  1  0
  9  8  1  6
 10  9  1  0
 11 12  1  6
 11 13  1  0
 13 19  1  0
 14 13  2  0
 16 15  1  6
 17 16  1  0
 18 16  1  0
 18 19  1  6
 20 18  1  0
 20 22  1  0
 21 20  2  0
M  END
$$$$
