TVT.pdb
     RDKit          3D

 22 21  0  0  1  0  0  0  0  0999 V2000
    7.7318  -19.1742   21.1863 C   0  0  0  0  0  0  0  0  0  0  0  0
    8.1408  -19.4020   19.7391 C   0  0  1  0  0  0  0  0  0  0  0  0
    7.6326  -20.6303   19.3311 O   0  0  0  0  0  0  0  0  0  0  0  0
    7.5686  -18.2643   18.9362 C   0  0  2  0  0  0  0  0  0  0  0  0
    7.7089  -18.5196   17.5144 N   0  0  0  0  0  0  0  0  0  0  0  0
    8.2601  -16.9768   19.2148 C   0  0  0  0  0  0  0  0  0  0  0  0
    9.4435  -16.7603   18.8532 O   0  0  0  0  0  0  0  0  0  0  0  0
    6.8213  -13.1441   18.8756 C   0  0  0  0  0  0  0  0  0  0  0  0
    7.3559  -13.4596   20.2744 C   0  0  2  0  0  0  0  0  0  0  0  0
    7.9673  -12.2026   20.7902 C   0  0  0  0  0  0  0  0  0  0  0  0
    8.2179  -14.6686   20.2821 C   0  0  2  0  0  0  0  0  0  0  0  0
    7.6160  -15.9000   19.9156 N   0  0  0  0  0  0  0  0  0  0  0  0
    9.1486  -14.7495   21.4561 C   0  0  0  0  0  0  0  0  0  0  0  0
    9.8497  -13.7651   21.8057 O   0  0  0  0  0  0  0  0  0  0  0  0
   10.1001  -16.3390   25.8663 C   0  0  0  0  0  0  0  0  0  0  0  0
    9.2833  -16.4172   24.5928 C   0  0  1  0  0  0  0  0  0  0  0  0
    8.1389  -15.6380   24.7715 O   0  0  0  0  0  0  0  0  0  0  0  0
   10.1388  -15.8992   23.4608 C   0  0  2  0  0  0  0  0  0  0  0  0
    9.3099  -15.9199   22.2455 N   0  0  0  0  0  0  0  0  0  0  0  0
   11.2348  -16.8761   23.2396 C   0  0  0  0  0  0  0  0  0  0  0  0
   12.1441  -16.9748   24.1059 O   0  0  0  0  0  0  0  0  0  0  0  0
   11.2958  -17.6782   22.1240 O   0  0  0  0  0  0  0  0  0  0  0  0
  2  1  1  1
  2  3  1  0
  2  4  1  0
  4  5  1  6
  6  4  1  0
  6 12  1  0
  7  6  2  0
  9 11  1  0
  9  8  1  6
 10  9  1  0
 11 12  1  1
 11 13  1  0
 13 19  1  0
 14 13  2  0
 16 15  1  1
 17 16  1  0
 18 16  1  0
 18 19  1  6
 20 18  1  0
 20 22  1  0
 21 20  2  0
M  END
$$$$
