TVT.pdb
     RDKit          3D

 22 21  0  0  1  0  0  0  0  0999 V2000
    6.8323  -18.7174   19.0169 C   0  0  0  0  0  0  0  0  0  0  0  0
    7.8700  -18.7416   17.9050 C   0  0  1  0  0  0  0  0  0  0  0  0
    7.3498  -19.4681   16.8396 O   0  0  0  0  0  0  0  0  0  0  0  0
    8.1426  -17.3100   17.5269 C   0  0  2  0  0  0  0  0  0  0  0  0
    9.0063  -17.2437   16.3625 N   0  0  0  0  0  0  0  0  0  0  0  0
    8.8265  -16.5620   18.6160 C   0  0  0  0  0  0  0  0  0  0  0  0
   10.0403  -16.7364   18.8884 O   0  0  0  0  0  0  0  0  0  0  0  0
    6.7326  -13.6941   21.5165 C   0  0  0  0  0  0  0  0  0  0  0  0
    8.0976  -13.5552   20.8388 C   0  0  2  0  0  0  0  0  0  0  0  0
    7.9145  -12.6101   19.7017 C   0  0  0  0  0  0  0  0  0  0  0  0
    8.6960  -14.8750   20.5149 C   0  0  2  0  0  0  0  0  0  0  0  0
    8.1396  -15.5924   19.4246 N   0  0  0  0  0  0  0  0  0  0  0  0
    9.0202  -15.7119   21.7172 C   0  0  0  0  0  0  0  0  0  0  0  0
    8.1137  -16.1887   22.4476 O   0  0  0  0  0  0  0  0  0  0  0  0
    9.9218  -18.8900   22.2101 C   0  0  0  0  0  0  0  0  0  0  0  0
   11.0858  -18.1780   22.8685 C   0  0  1  0  0  0  0  0  0  0  0  0
   12.1079  -18.0680   21.9241 O   0  0  0  0  0  0  0  0  0  0  0  0
   10.6014  -16.8224   23.3258 C   0  0  2  0  0  0  0  0  0  0  0  0
   10.3478  -16.0217   22.1179 N   0  0  0  0  0  0  0  0  0  0  0  0
   11.7211  -16.1609   24.0421 C   0  0  0  0  0  0  0  0  0  0  0  0
   12.0719  -16.6089   25.1661 O   0  0  0  0  0  0  0  0  0  0  0  0
   12.3909  -15.0763   23.5253 O   0  0  0  0  0  0  0  0  0  0  0  0
  2  1  1  1
  2  3  1  0
  2  4  1  0
  4  5  1  6
  6  4  1  0
  6 12  1  0
  7  6  2  0
  9 11  1  0
  9  8  1  6
 10  9  1  0
 11 12  1  6
 11 13  1  0
 13 19  1  0
 14 13  2  0
 16 15  1  6
 17 16  1  0
 18 16  1  0
 18 19  1  6
 20 18  1  0
 20 22  1  0
 21 20  2  0
M  END
$$$$
