TVT.pdb
     RDKit          3D

 22 21  0  0  1  0  0  0  0  0999 V2000
    9.3954  -13.2362   26.2476 C   0  0  0  0  0  0  0  0  0  0  0  0
    8.0099  -13.4041   26.8524 C   0  0  1  0  0  0  0  0  0  0  0  0
    7.9132  -12.5670   27.9585 O   0  0  0  0  0  0  0  0  0  0  0  0
    7.0160  -13.0365   25.7830 C   0  0  2  0  0  0  0  0  0  0  0  0
    5.6781  -12.9434   26.3377 N   0  0  0  0  0  0  0  0  0  0  0  0
    6.9632  -14.0484   24.6937 C   0  0  0  0  0  0  0  0  0  0  0  0
    6.2184  -15.0581   24.7532 O   0  0  0  0  0  0  0  0  0  0  0  0
    9.3711  -13.8305   20.7832 C   0  0  0  0  0  0  0  0  0  0  0  0
    7.9249  -14.2536   21.0505 C   0  0  2  0  0  0  0  0  0  0  0  0
    7.0691  -13.0811   20.7149 C   0  0  0  0  0  0  0  0  0  0  0  0
    7.7551  -14.8323   22.4074 C   0  0  2  0  0  0  0  0  0  0  0  0
    7.7622  -13.9328   23.5046 N   0  0  0  0  0  0  0  0  0  0  0  0
    8.5218  -16.1023   22.6317 C   0  0  0  0  0  0  0  0  0  0  0  0
    8.5034  -17.0364   21.7891 O   0  0  0  0  0  0  0  0  0  0  0  0
   10.5726  -17.3523   21.4958 C   0  0  0  0  0  0  0  0  0  0  0  0
   11.2315  -17.4368   22.8573 C   0  0  1  0  0  0  0  0  0  0  0  0
   11.9893  -16.2783   23.0372 O   0  0  0  0  0  0  0  0  0  0  0  0
   10.1395  -17.5549   23.8942 C   0  0  2  0  0  0  0  0  0  0  0  0
    9.3087  -16.3452   23.7896 N   0  0  0  0  0  0  0  0  0  0  0  0
   10.7809  -17.5107   25.2325 C   0  0  0  0  0  0  0  0  0  0  0  0
   10.5596  -16.5206   25.9795 O   0  0  0  0  0  0  0  0  0  0  0  0
   11.6085  -18.5101   25.6888 O   0  0  0  0  0  0  0  0  0  0  0  0
  2  1  1  6
  2  3  1  0
  2  4  1  0
  4  5  1  1
  6  4  1  0
  6 12  1  0
  7  6  2  0
  9 11  1  0
  9  8  1  1
 10  9  1  0
 11 12  1  1
 11 13  1  0
 13 19  1  0
 14 13  2  0
 16 15  1  6
 17 16  1  0
 18 16  1  0
 18 19  1  1
 20 18  1  0
 20 22  1  0
 21 20  2  0
M  END
$$$$
