TVT.pdb
     RDKit          3D

 22 21  0  0  1  0  0  0  0  0999 V2000
    6.7891  -19.3937   16.5332 C   0  0  0  0  0  0  0  0  0  0  0  0
    7.3897  -18.5646   17.6581 C   0  0  1  0  0  0  0  0  0  0  0  0
    8.5142  -19.2286   18.1359 O   0  0  0  0  0  0  0  0  0  0  0  0
    7.7378  -17.2205   17.0760 C   0  0  2  0  0  0  0  0  0  0  0  0
    8.6794  -17.3652   15.9811 N   0  0  0  0  0  0  0  0  0  0  0  0
    8.3734  -16.3224   18.0774 C   0  0  0  0  0  0  0  0  0  0  0  0
    9.6131  -16.1216   18.1053 O   0  0  0  0  0  0  0  0  0  0  0  0
    7.3674  -12.6514   19.5212 C   0  0  0  0  0  0  0  0  0  0  0  0
    7.4256  -13.7042   20.6304 C   0  0  2  0  0  0  0  0  0  0  0  0
    7.9618  -13.0193   21.8400 C   0  0  0  0  0  0  0  0  0  0  0  0
    8.1348  -14.9339   20.1949 C   0  0  2  0  0  0  0  0  0  0  0  0
    7.6072  -15.6283   19.0758 N   0  0  0  0  0  0  0  0  0  0  0  0
    8.5856  -15.8131   21.3240 C   0  0  0  0  0  0  0  0  0  0  0  0
    7.7612  -16.3294   22.1219 O   0  0  0  0  0  0  0  0  0  0  0  0
    9.9513  -19.0484   21.3818 C   0  0  0  0  0  0  0  0  0  0  0  0
   11.0085  -18.2159   22.0779 C   0  0  1  0  0  0  0  0  0  0  0  0
   11.9552  -17.8429   21.1223 O   0  0  0  0  0  0  0  0  0  0  0  0
   10.3259  -17.0131   22.6851 C   0  0  2  0  0  0  0  0  0  0  0  0
    9.9493  -16.1219   21.5767 N   0  0  0  0  0  0  0  0  0  0  0  0
   11.3349  -16.2800   23.4906 C   0  0  0  0  0  0  0  0  0  0  0  0
   11.8446  -15.2303   23.0158 O   0  0  0  0  0  0  0  0  0  0  0  0
   11.7352  -16.7032   24.7366 O   0  0  0  0  0  0  0  0  0  0  0  0
  2  1  1  6
  2  3  1  0
  2  4  1  0
  4  5  1  6
  6  4  1  0
  6 12  1  0
  7  6  2  0
  9 11  1  0
  9  8  1  6
 10  9  1  0
 11 12  1  6
 11 13  1  0
 13 19  1  0
 14 13  2  0
 16 15  1  6
 17 16  1  0
 18 16  1  0
 18 19  1  6
 20 18  1  0
 20 22  1  0
 21 20  2  0
M  END
$$$$
