TVT.pdb
     RDKit          3D

 22 21  0  0  1  0  0  0  0  0999 V2000
    6.9035  -18.9342   15.9661 C   0  0  0  0  0  0  0  0  0  0  0  0
    7.6539  -18.3348   17.1456 C   0  0  1  0  0  0  0  0  0  0  0  0
    8.7547  -19.1402   17.4163 O   0  0  0  0  0  0  0  0  0  0  0  0
    8.0634  -16.9426   16.7445 C   0  0  2  0  0  0  0  0  0  0  0  0
    8.9481  -16.9805   15.5947 N   0  0  0  0  0  0  0  0  0  0  0  0
    8.7957  -16.2377   17.8309 C   0  0  0  0  0  0  0  0  0  0  0  0
   10.0504  -16.2097   17.8840 O   0  0  0  0  0  0  0  0  0  0  0  0
    6.8101  -14.1319   21.4133 C   0  0  0  0  0  0  0  0  0  0  0  0
    8.0594  -13.7611   20.6110 C   0  0  2  0  0  0  0  0  0  0  0  0
    7.6513  -12.6915   19.6575 C   0  0  0  0  0  0  0  0  0  0  0  0
    8.7207  -14.9548   20.0257 C   0  0  2  0  0  0  0  0  0  0  0  0
    8.1118  -15.5443   18.8879 N   0  0  0  0  0  0  0  0  0  0  0  0
    9.2299  -15.9330   21.0429 C   0  0  0  0  0  0  0  0  0  0  0  0
    8.6105  -16.9987   21.2949 O   0  0  0  0  0  0  0  0  0  0  0  0
   12.9789  -17.7394   23.6190 C   0  0  0  0  0  0  0  0  0  0  0  0
   12.4376  -16.7498   22.6077 C   0  0  1  0  0  0  0  0  0  0  0  0
   12.8923  -17.1374   21.3460 O   0  0  0  0  0  0  0  0  0  0  0  0
   10.9297  -16.7807   22.6902 C   0  0  2  0  0  0  0  0  0  0  0  0
   10.4239  -15.7349   21.7874 N   0  0  0  0  0  0  0  0  0  0  0  0
   10.5442  -16.3727   24.0648 C   0  0  0  0  0  0  0  0  0  0  0  0
   10.2625  -15.1644   24.2830 O   0  0  0  0  0  0  0  0  0  0  0  0
   10.4828  -17.2643   25.1104 O   0  0  0  0  0  0  0  0  0  0  0  0
  2  1  1  6
  2  3  1  0
  2  4  1  0
  4  5  1  6
  6  4  1  0
  6 12  1  0
  7  6  2  0
  9 11  1  0
  9  8  1  6
 10  9  1  0
 11 12  1  6
 11 13  1  0
 13 19  1  0
 14 13  2  0
 16 15  1  1
 17 16  1  0
 18 16  1  0
 18 19  1  6
 20 18  1  0
 20 22  1  0
 21 20  2  0
M  END
$$$$
