TVT.pdb
     RDKit          3D

 22 21  0  0  1  0  0  0  0  0999 V2000
    7.1100  -16.8295   20.2512 C   0  0  0  0  0  0  0  0  0  0  0  0
    7.5547  -16.5201   21.6725 C   0  0  1  0  0  0  0  0  0  0  0  0
    8.6299  -17.3459   21.9819 O   0  0  0  0  0  0  0  0  0  0  0  0
    7.9383  -15.0647   21.7061 C   0  0  2  0  0  0  0  0  0  0  0  0
    9.0296  -14.8015   20.7863 N   0  0  0  0  0  0  0  0  0  0  0  0
    8.3963  -14.6356   23.0549 C   0  0  0  0  0  0  0  0  0  0  0  0
    9.6125  -14.5885   23.3655 O   0  0  0  0  0  0  0  0  0  0  0  0
    6.6880  -11.6769   25.2916 C   0  0  0  0  0  0  0  0  0  0  0  0
    6.9338  -12.9381   26.1227 C   0  0  2  0  0  0  0  0  0  0  0  0
    7.3842  -12.4811   27.4674 C   0  0  0  0  0  0  0  0  0  0  0  0
    7.8154  -13.9051   25.4209 C   0  0  2  0  0  0  0  0  0  0  0  0
    7.4743  -14.2480   24.0871 N   0  0  0  0  0  0  0  0  0  0  0  0
    8.2591  -15.0584   26.2718 C   0  0  0  0  0  0  0  0  0  0  0  0
    7.4923  -16.0251   26.5170 O   0  0  0  0  0  0  0  0  0  0  0  0
   10.6566  -17.4945   25.6851 C   0  0  0  0  0  0  0  0  0  0  0  0
   11.1100  -16.9611   27.0287 C   0  0  1  0  0  0  0  0  0  0  0  0
   12.1447  -16.0524   26.7998 O   0  0  0  0  0  0  0  0  0  0  0  0
    9.9236  -16.2999   27.6893 C   0  0  2  0  0  0  0  0  0  0  0  0
    9.5509  -15.1452   26.8572 N   0  0  0  0  0  0  0  0  0  0  0  0
   10.3797  -15.7509   28.9913 C   0  0  0  0  0  0  0  0  0  0  0  0
   10.4413  -14.5008   29.1350 O   0  0  0  0  0  0  0  0  0  0  0  0
   10.7381  -16.5554   30.0478 O   0  0  0  0  0  0  0  0  0  0  0  0
  2  1  1  6
  2  3  1  0
  2  4  1  0
  4  5  1  6
  6  4  1  0
  6 12  1  0
  7  6  2  0
  9 11  1  0
  9  8  1  6
 10  9  1  0
 11 12  1  6
 11 13  1  0
 13 19  1  0
 14 13  2  0
 16 15  1  6
 17 16  1  0
 18 16  1  0
 18 19  1  6
 20 18  1  0
 20 22  1  0
 21 20  2  0
M  END
$$$$
