TVT.pdb
     RDKit          3D

 22 21  0  0  1  0  0  0  0  0999 V2000
    6.4612  -19.1595   19.7474 C   0  0  0  0  0  0  0  0  0  0  0  0
    7.3111  -19.0886   18.4880 C   0  0  1  0  0  0  0  0  0  0  0  0
    6.6184  -19.7173   17.4591 O   0  0  0  0  0  0  0  0  0  0  0  0
    7.5448  -17.6301   18.1968 C   0  0  2  0  0  0  0  0  0  0  0  0
    8.2571  -17.4661   16.9430 N   0  0  0  0  0  0  0  0  0  0  0  0
    8.3643  -16.9715   19.2494 C   0  0  0  0  0  0  0  0  0  0  0  0
    9.5839  -17.2280   19.4067 O   0  0  0  0  0  0  0  0  0  0  0  0
    8.8093  -13.5063   22.8554 C   0  0  0  0  0  0  0  0  0  0  0  0
    7.9821  -14.0665   21.6962 C   0  0  2  0  0  0  0  0  0  0  0  0
    6.5576  -14.0262   22.1308 C   0  0  0  0  0  0  0  0  0  0  0  0
    8.4960  -15.3785   21.2276 C   0  0  2  0  0  0  0  0  0  0  0  0
    7.8104  -16.0000   20.1522 N   0  0  0  0  0  0  0  0  0  0  0  0
    8.9025  -16.3071   22.3336 C   0  0  0  0  0  0  0  0  0  0  0  0
    8.0468  -16.8787   23.0573 O   0  0  0  0  0  0  0  0  0  0  0  0
   10.5571  -19.4527   22.2032 C   0  0  0  0  0  0  0  0  0  0  0  0
   11.4386  -18.6366   23.1264 C   0  0  1  0  0  0  0  0  0  0  0  0
   12.4869  -18.1161   22.3655 O   0  0  0  0  0  0  0  0  0  0  0  0
   10.5905  -17.5418   23.7292 C   0  0  2  0  0  0  0  0  0  0  0  0
   10.2565  -16.6046   22.6453 N   0  0  0  0  0  0  0  0  0  0  0  0
   11.4383  -16.7905   24.6890 C   0  0  0  0  0  0  0  0  0  0  0  0
   11.8839  -15.6617   24.3511 O   0  0  0  0  0  0  0  0  0  0  0  0
   11.7564  -17.2801   25.9344 O   0  0  0  0  0  0  0  0  0  0  0  0
  2  1  1  1
  2  3  1  0
  2  4  1  0
  4  5  1  6
  6  4  1  0
  6 12  1  0
  7  6  2  0
  9 11  1  0
  9  8  1  1
 10  9  1  0
 11 12  1  1
 11 13  1  0
 13 19  1  0
 14 13  2  0
 16 15  1  6
 17 16  1  0
 18 16  1  0
 18 19  1  6
 20 18  1  0
 20 22  1  0
 21 20  2  0
M  END
$$$$
