TVT.pdb
     RDKit          3D

 22 21  0  0  1  0  0  0  0  0999 V2000
    6.3164  -15.5611   20.9143 C   0  0  0  0  0  0  0  0  0  0  0  0
    7.3658  -14.7308   20.1912 C   0  0  1  0  0  0  0  0  0  0  0  0
    6.9739  -14.5933   18.8641 O   0  0  0  0  0  0  0  0  0  0  0  0
    7.4366  -13.4018   20.8950 C   0  0  2  0  0  0  0  0  0  0  0  0
    8.2256  -12.4568   20.1264 N   0  0  0  0  0  0  0  0  0  0  0  0
    8.0745  -13.5092   22.2348 C   0  0  0  0  0  0  0  0  0  0  0  0
    9.3204  -13.5760   22.3798 O   0  0  0  0  0  0  0  0  0  0  0  0
    5.8302  -13.2262   26.1726 C   0  0  0  0  0  0  0  0  0  0  0  0
    7.2927  -12.9152   25.8468 C   0  0  2  0  0  0  0  0  0  0  0  0
    7.3790  -11.4424   25.6393 C   0  0  0  0  0  0  0  0  0  0  0  0
    7.8138  -13.7714   24.7511 C   0  0  2  0  0  0  0  0  0  0  0  0
    7.3034  -13.5429   23.4472 N   0  0  0  0  0  0  0  0  0  0  0  0
    7.9636  -15.2173   25.1224 C   0  0  0  0  0  0  0  0  0  0  0  0
    6.9730  -15.9922   25.1525 O   0  0  0  0  0  0  0  0  0  0  0  0
    9.7751  -17.6157   23.3064 C   0  0  0  0  0  0  0  0  0  0  0  0
   10.3389  -17.7851   24.7024 C   0  0  1  0  0  0  0  0  0  0  0  0
   11.5328  -17.0649   24.7706 O   0  0  0  0  0  0  0  0  0  0  0  0
    9.3156  -17.2617   25.6823 C   0  0  2  0  0  0  0  0  0  0  0  0
    9.2085  -15.8106   25.4648 N   0  0  0  0  0  0  0  0  0  0  0  0
    9.8656  -17.4431   27.0495 C   0  0  0  0  0  0  0  0  0  0  0  0
   10.1877  -16.4228   27.7146 O   0  0  0  0  0  0  0  0  0  0  0  0
   10.0372  -18.6835   27.6185 O   0  0  0  0  0  0  0  0  0  0  0  0
  2  1  1  1
  2  3  1  0
  2  4  1  0
  4  5  1  6
  6  4  1  0
  6 12  1  0
  7  6  2  0
  9 11  1  0
  9  8  1  6
 10  9  1  0
 11 12  1  6
 11 13  1  0
 13 19  1  0
 14 13  2  0
 16 15  1  6
 17 16  1  0
 18 16  1  0
 18 19  1  6
 20 18  1  0
 20 22  1  0
 21 20  2  0
M  END
$$$$
