IHP.pdb
     RDKit          3D

 26 27  0  0  1  0  0  0  0  0999 V2000
    9.2942  -12.9488   18.4827 C   0  0  0  0  0  0  0  0  0  0  0  0
    7.9564  -13.6195   18.4784 C   0  0  0  0  0  0  0  0  0  0  0  0
    7.4230  -13.8048   19.8890 C   0  0  2  0  0  0  0  0  0  0  0  0
    7.8761  -12.6364   20.7125 C   0  0  0  0  0  0  0  0  0  0  0  0
    7.9667  -15.1226   20.4103 C   0  0  2  0  0  0  0  0  0  0  0  0
    7.4833  -16.1795   19.5292 N   0  0  0  0  0  0  0  0  0  0  0  0
    7.4828  -15.3984   21.7860 C   0  0  0  0  0  0  0  0  0  0  0  0
    6.2763  -15.2253   22.0847 O   0  0  0  0  0  0  0  0  0  0  0  0
    8.3568  -15.8631   22.8029 N   0  0  0  0  0  0  0  0  0  0  0  0
    7.9333  -15.9663   24.2122 C   0  0  1  0  0  0  0  0  0  0  0  0
    7.8698  -17.4331   24.5932 C   0  0  0  0  0  0  0  0  0  0  0  0
    6.8651  -18.2015   23.8582 C   0  0  0  0  0  0  0  0  0  0  0  0
    6.0506  -17.7482   22.8558 C   0  0  0  0  0  0  0  0  0  0  0  0
    5.2830  -18.8049   22.4612 N   0  0  0  0  0  0  0  0  0  0  0  0
    5.5993  -19.8886   23.1868 C   0  0  0  0  0  0  0  0  0  0  0  0
    6.5632  -19.5026   24.0310 N   0  0  0  0  0  0  0  0  0  0  0  0
    8.7582  -15.1326   25.0830 C   0  0  0  0  0  0  0  0  0  0  0  0
   10.0115  -14.9461   24.8419 O   0  0  0  0  0  0  0  0  0  0  0  0
    8.2981  -14.4549   26.2421 N   0  0  0  0  0  0  0  0  0  0  0  0
    6.9313  -14.3914   26.6924 C   0  0  0  0  0  0  0  0  0  0  0  0
    6.7680  -12.9654   27.1414 C   0  0  0  0  0  0  0  0  0  0  0  0
    8.1281  -12.5159   27.5583 C   0  0  0  0  0  0  0  0  0  0  0  0
    9.0528  -13.6762   27.2177 C   0  0  1  0  0  0  0  0  0  0  0  0
    9.2829  -14.3972   28.4904 C   0  0  0  0  0  0  0  0  0  0  0  0
   10.0800  -13.9455   29.5210 O   0  0  0  0  0  0  0  0  0  0  0  0
    8.7054  -15.5042   28.6339 O   0  0  0  0  0  0  0  0  0  0  0  0
  1  2  1  0
  3  5  1  0
  3  2  1  0
  3  4  1  1
  5  7  1  0
  5  6  1  6
  7  9  1  0
  8  7  2  0
 10  9  1  0
 10 11  1  1
 11 12  1  0
 12 16  1  0
 13 12  2  0
 13 14  1  0
 14 15  1  0
 16 15  2  0
 17 18  2  0
 17 10  1  0
 19 17  1  0
 20 19  1  0
 21 20  1  0
 22 21  1  0
 22 23  1  0
 23 19  1  0
 23 24  1  1
 25 24  1  0
 26 24  2  0
M  END
$$$$
