IHP.pdb
     RDKit          3D

 26 27  0  0  1  0  0  0  0  0999 V2000
    8.7310  -11.6415   19.5260 C   0  0  0  0  0  0  0  0  0  0  0  0
    8.4584  -12.8534   20.3606 C   0  0  0  0  0  0  0  0  0  0  0  0
    7.9319  -14.0023   19.5171 C   0  0  2  0  0  0  0  0  0  0  0  0
    6.4343  -13.9826   19.5911 C   0  0  0  0  0  0  0  0  0  0  0  0
    8.5197  -15.2841   20.0787 C   0  0  2  0  0  0  0  0  0  0  0  0
    8.0624  -16.3851   19.2387 N   0  0  0  0  0  0  0  0  0  0  0  0
    8.0550  -15.5267   21.4672 C   0  0  0  0  0  0  0  0  0  0  0  0
    6.8308  -15.6369   21.7203 O   0  0  0  0  0  0  0  0  0  0  0  0
    8.9678  -15.6421   22.5478 N   0  0  0  0  0  0  0  0  0  0  0  0
    8.5231  -15.9627   23.9172 C   0  0  1  0  0  0  0  0  0  0  0  0
    8.8544  -17.4142   24.2073 C   0  0  0  0  0  0  0  0  0  0  0  0
    8.0444  -18.3760   23.4596 C   0  0  0  0  0  0  0  0  0  0  0  0
    6.7664  -18.7753   23.7439 C   0  0  0  0  0  0  0  0  0  0  0  0
    6.4090  -19.6736   22.7811 N   0  0  0  0  0  0  0  0  0  0  0  0
    7.4233  -19.8378   21.9179 C   0  0  0  0  0  0  0  0  0  0  0  0
    8.4091  -19.0407   22.3465 N   0  0  0  0  0  0  0  0  0  0  0  0
    9.0390  -15.0010   24.8881 C   0  0  0  0  0  0  0  0  0  0  0  0
   10.2543  -14.5730   24.8271 O   0  0  0  0  0  0  0  0  0  0  0  0
    8.2964  -14.4441   25.9619 N   0  0  0  0  0  0  0  0  0  0  0  0
    6.8944  -14.6572   26.2145 C   0  0  0  0  0  0  0  0  0  0  0  0
    6.3923  -13.2979   26.6171 C   0  0  0  0  0  0  0  0  0  0  0  0
    7.5650  -12.5961   27.2151 C   0  0  0  0  0  0  0  0  0  0  0  0
    8.7384  -13.5468   27.0234 C   0  0  1  0  0  0  0  0  0  0  0  0
    8.9247  -14.2271   28.3253 C   0  0  0  0  0  0  0  0  0  0  0  0
    8.6219  -15.5489   28.5762 O   0  0  0  0  0  0  0  0  0  0  0  0
    9.3938  -13.5410   29.2680 O   0  0  0  0  0  0  0  0  0  0  0  0
  1  2  1  0
  3  5  1  0
  3  2  1  0
  3  4  1  1
  5  7  1  0
  5  6  1  6
  7  9  1  0
  8  7  2  0
 10  9  1  0
 10 11  1  1
 11 12  1  0
 12 16  1  0
 13 12  2  0
 13 14  1  0
 14 15  1  0
 16 15  2  0
 17 18  2  0
 17 10  1  0
 19 17  1  0
 20 19  1  0
 21 20  1  0
 22 21  1  0
 22 23  1  0
 23 19  1  0
 23 24  1  1
 25 24  1  0
 26 24  2  0
M  END
$$$$
