IHP.pdb
     RDKit          3D

 26 27  0  0  1  0  0  0  0  0999 V2000
    7.8418  -12.1024   19.8373 C   0  0  0  0  0  0  0  0  0  0  0  0
    7.4079  -13.4709   20.2596 C   0  0  0  0  0  0  0  0  0  0  0  0
    8.5603  -14.4598   20.2091 C   0  0  2  0  0  0  0  0  0  0  0  0
    9.1114  -14.4577   18.8145 C   0  0  0  0  0  0  0  0  0  0  0  0
    8.0115  -15.8171   20.6098 C   0  0  2  0  0  0  0  0  0  0  0  0
    6.8742  -16.1069   19.7441 N   0  0  0  0  0  0  0  0  0  0  0  0
    7.5427  -15.8143   22.0180 C   0  0  0  0  0  0  0  0  0  0  0  0
    6.4225  -15.3339   22.3166 O   0  0  0  0  0  0  0  0  0  0  0  0
    8.3351  -16.3489   23.0669 N   0  0  0  0  0  0  0  0  0  0  0  0
    7.9133  -16.2816   24.4789 C   0  0  1  0  0  0  0  0  0  0  0  0
    7.7839  -17.6949   25.0142 C   0  0  0  0  0  0  0  0  0  0  0  0
    6.7493  -18.4936   24.3570 C   0  0  0  0  0  0  0  0  0  0  0  0
    5.9344  -18.1029   23.3289 C   0  0  0  0  0  0  0  0  0  0  0  0
    5.1334  -19.1670   23.0326 N   0  0  0  0  0  0  0  0  0  0  0  0
    5.4297  -20.1947   23.8430 C   0  0  0  0  0  0  0  0  0  0  0  0
    6.4146  -19.7667   24.6416 N   0  0  0  0  0  0  0  0  0  0  0  0
    8.7794  -15.3989   25.2563 C   0  0  0  0  0  0  0  0  0  0  0  0
   10.0243  -15.2459   24.9554 O   0  0  0  0  0  0  0  0  0  0  0  0
    8.3711  -14.6349   26.3807 N   0  0  0  0  0  0  0  0  0  0  0  0
    7.0167  -14.4814   26.8463 C   0  0  0  0  0  0  0  0  0  0  0  0
    6.9271  -13.0259   27.2140 C   0  0  0  0  0  0  0  0  0  0  0  0
    8.3134  -12.6178   27.5842 C   0  0  0  0  0  0  0  0  0  0  0  0
    9.1776  -13.8379   27.2982 C   0  0  1  0  0  0  0  0  0  0  0  0
    9.3962  -14.4947   28.6072 C   0  0  0  0  0  0  0  0  0  0  0  0
   10.2453  -14.0328   29.5906 O   0  0  0  0  0  0  0  0  0  0  0  0
    8.7564  -15.5531   28.8306 O   0  0  0  0  0  0  0  0  0  0  0  0
  1  2  1  0
  3  5  1  0
  3  2  1  0
  3  4  1  6
  5  7  1  0
  5  6  1  6
  7  9  1  0
  8  7  2  0
 10  9  1  0
 10 11  1  1
 11 12  1  0
 12 16  1  0
 13 12  2  0
 13 14  1  0
 14 15  1  0
 16 15  2  0
 17 18  2  0
 17 10  1  0
 19 17  1  0
 20 19  1  0
 21 20  1  0
 22 21  1  0
 22 23  1  0
 23 19  1  0
 23 24  1  1
 25 24  1  0
 26 24  2  0
M  END
$$$$
