IHP.pdb
     RDKit          3D

 26 27  0  0  1  0  0  0  0  0999 V2000
   11.8960  -19.8952   29.0334 C   0  0  0  0  0  0  0  0  0  0  0  0
   11.3235  -20.0000   27.6548 C   0  0  0  0  0  0  0  0  0  0  0  0
   10.7657  -18.6681   27.1818 C   0  0  2  0  0  0  0  0  0  0  0  0
    9.3597  -18.5486   27.6892 C   0  0  0  0  0  0  0  0  0  0  0  0
   10.8337  -18.6605   25.6654 C   0  0  2  0  0  0  0  0  0  0  0  0
   12.2054  -18.9753   25.2830 N   0  0  0  0  0  0  0  0  0  0  0  0
   10.4867  -17.3256   25.1174 C   0  0  0  0  0  0  0  0  0  0  0  0
   11.0895  -16.2978   25.5113 O   0  0  0  0  0  0  0  0  0  0  0  0
    9.4719  -17.1640   24.1386 N   0  0  0  0  0  0  0  0  0  0  0  0
    8.9433  -15.8369   23.7708 C   0  0  1  0  0  0  0  0  0  0  0  0
    8.5932  -15.8464   22.2950 C   0  0  0  0  0  0  0  0  0  0  0  0
    8.0224  -14.5917   21.8051 C   0  0  0  0  0  0  0  0  0  0  0  0
    8.6623  -13.6210   21.0825 C   0  0  0  0  0  0  0  0  0  0  0  0
    7.7462  -12.6394   20.8401 N   0  0  0  0  0  0  0  0  0  0  0  0
    6.5685  -12.9755   21.3888 C   0  0  0  0  0  0  0  0  0  0  0  0
    6.7557  -14.1657   21.9712 N   0  0  0  0  0  0  0  0  0  0  0  0
    7.8638  -15.4228   24.6635 C   0  0  0  0  0  0  0  0  0  0  0  0
    6.9828  -16.2650   25.0859 O   0  0  0  0  0  0  0  0  0  0  0  0
    7.6682  -14.1055   25.1545 N   0  0  0  0  0  0  0  0  0  0  0  0
    8.3987  -12.9358   24.7386 C   0  0  0  0  0  0  0  0  0  0  0  0
    8.6448  -12.1920   26.0223 C   0  0  0  0  0  0  0  0  0  0  0  0
    7.5244  -12.5737   26.9303 C   0  0  0  0  0  0  0  0  0  0  0  0
    6.7332  -13.6259   26.1660 C   0  0  1  0  0  0  0  0  0  0  0  0
    5.5650  -12.9178   25.5945 C   0  0  0  0  0  0  0  0  0  0  0  0
    4.4580  -12.5142   26.3110 O   0  0  0  0  0  0  0  0  0  0  0  0
    5.5919  -12.6704   24.3626 O   0  0  0  0  0  0  0  0  0  0  0  0
  1  2  1  0
  3  5  1  0
  3  2  1  0
  3  4  1  6
  5  7  1  0
  5  6  1  1
  7  9  1  0
  8  7  2  0
 10  9  1  0
 10 11  1  6
 11 12  1  0
 12 16  1  0
 13 12  2  0
 13 14  1  0
 14 15  1  0
 16 15  2  0
 17 18  2  0
 17 10  1  0
 19 17  1  0
 20 19  1  0
 21 20  1  0
 22 21  1  0
 22 23  1  0
 23 19  1  0
 23 24  1  6
 25 24  1  0
 26 24  2  0
M  END
$$$$
