IHP.pdb
     RDKit          3D

 26 27  0  0  1  0  0  0  0  0999 V2000
   14.1160  -19.3116   20.3736 C   0  0  0  0  0  0  0  0  0  0  0  0
   12.7773  -18.6635   20.2087 C   0  0  0  0  0  0  0  0  0  0  0  0
   12.4040  -17.8404   21.4301 C   0  0  2  0  0  0  0  0  0  0  0  0
   12.2203  -18.7806   22.5837 C   0  0  0  0  0  0  0  0  0  0  0  0
   11.1315  -17.0834   21.0955 C   0  0  2  0  0  0  0  0  0  0  0  0
   11.4018  -16.2621   19.9211 N   0  0  0  0  0  0  0  0  0  0  0  0
   10.7262  -16.1918   22.2106 C   0  0  0  0  0  0  0  0  0  0  0  0
   11.4249  -15.1955   22.5172 O   0  0  0  0  0  0  0  0  0  0  0  0
    9.5466  -16.4302   22.9627 N   0  0  0  0  0  0  0  0  0  0  0  0
    9.1523  -15.5698   24.0942 C   0  0  1  0  0  0  0  0  0  0  0  0
    7.6920  -15.1934   23.9313 C   0  0  0  0  0  0  0  0  0  0  0  0
    7.1339  -14.4498   25.0608 C   0  0  0  0  0  0  0  0  0  0  0  0
    6.4098  -14.9575   26.1056 C   0  0  0  0  0  0  0  0  0  0  0  0
    6.1038  -13.9080   26.9220 N   0  0  0  0  0  0  0  0  0  0  0  0
    6.6153  -12.7763   26.4135 C   0  0  0  0  0  0  0  0  0  0  0  0
    7.2382  -13.1254   25.2816 N   0  0  0  0  0  0  0  0  0  0  0  0
    9.4988  -16.1772   25.3767 C   0  0  0  0  0  0  0  0  0  0  0  0
    9.6976  -17.4471   25.4851 O   0  0  0  0  0  0  0  0  0  0  0  0
    9.6562  -15.4735   26.5991 N   0  0  0  0  0  0  0  0  0  0  0  0
    9.1705  -14.1455   26.8738 C   0  0  0  0  0  0  0  0  0  0  0  0
   10.2961  -13.5030   27.6366 C   0  0  0  0  0  0  0  0  0  0  0  0
   11.0088  -14.6207   28.3208 C   0  0  0  0  0  0  0  0  0  0  0  0
   10.3294  -15.8894   27.8245 C   0  0  1  0  0  0  0  0  0  0  0  0
    9.3934  -16.2937   28.8982 C   0  0  0  0  0  0  0  0  0  0  0  0
    8.0295  -16.4300   28.7471 O   0  0  0  0  0  0  0  0  0  0  0  0
    9.8870  -16.5275   30.0301 O   0  0  0  0  0  0  0  0  0  0  0  0
  1  2  1  0
  3  5  1  0
  3  2  1  0
  3  4  1  1
  5  7  1  0
  5  6  1  6
  7  9  1  0
  8  7  2  0
 10  9  1  0
 10 11  1  1
 11 12  1  0
 12 16  1  0
 13 12  2  0
 13 14  1  0
 14 15  1  0
 16 15  2  0
 17 18  2  0
 17 10  1  0
 19 17  1  0
 20 19  1  0
 21 20  1  0
 22 21  1  0
 22 23  1  0
 23 19  1  0
 23 24  1  1
 25 24  1  0
 26 24  2  0
M  END
$$$$
