IHP.pdb
     RDKit          3D

 26 27  0  0  1  0  0  0  0  0999 V2000
    6.2315  -10.8515   27.6728 C   0  0  0  0  0  0  0  0  0  0  0  0
    5.6895  -11.7313   26.5904 C   0  0  0  0  0  0  0  0  0  0  0  0
    6.6259  -12.8911   26.2958 C   0  0  2  0  0  0  0  0  0  0  0  0
    7.9887  -12.3282   26.0230 C   0  0  0  0  0  0  0  0  0  0  0  0
    6.0612  -13.6381   25.1010 C   0  0  2  0  0  0  0  0  0  0  0  0
    4.7769  -14.2025   25.4995 N   0  0  0  0  0  0  0  0  0  0  0  0
    6.9556  -14.7481   24.6880 C   0  0  0  0  0  0  0  0  0  0  0  0
    6.9101  -15.8563   25.2750 O   0  0  0  0  0  0  0  0  0  0  0  0
    7.8847  -14.5989   23.6257 N   0  0  0  0  0  0  0  0  0  0  0  0
    8.7463  -15.7092   23.1776 C   0  0  1  0  0  0  0  0  0  0  0  0
    9.3337  -15.3519   21.8256 C   0  0  0  0  0  0  0  0  0  0  0  0
    8.3471  -14.9103   20.8398 C   0  0  0  0  0  0  0  0  0  0  0  0
    8.2702  -13.6806   20.2435 C   0  0  0  0  0  0  0  0  0  0  0  0
    7.2041  -13.7191   19.3930 N   0  0  0  0  0  0  0  0  0  0  0  0
    6.6262  -14.9290   19.4479 C   0  0  0  0  0  0  0  0  0  0  0  0
    7.3350  -15.6399   20.3329 N   0  0  0  0  0  0  0  0  0  0  0  0
    9.7207  -16.0793   24.2010 C   0  0  0  0  0  0  0  0  0  0  0  0
   10.3557  -15.1832   24.8774 O   0  0  0  0  0  0  0  0  0  0  0  0
   10.0648  -17.4086   24.5603 N   0  0  0  0  0  0  0  0  0  0  0  0
    9.5183  -18.6062   23.9755 C   0  0  0  0  0  0  0  0  0  0  0  0
    9.3089  -19.5169   25.1538 C   0  0  0  0  0  0  0  0  0  0  0  0
   10.3213  -19.1026   26.1681 C   0  0  0  0  0  0  0  0  0  0  0  0
   11.0031  -17.8783   25.5734 C   0  0  1  0  0  0  0  0  0  0  0  0
   12.2824  -18.3630   25.0067 C   0  0  0  0  0  0  0  0  0  0  0  0
   12.5395  -18.5243   23.6615 O   0  0  0  0  0  0  0  0  0  0  0  0
   13.1975  -18.6474   25.8197 O   0  0  0  0  0  0  0  0  0  0  0  0
  1  2  1  0
  3  5  1  0
  3  2  1  0
  3  4  1  6
  5  7  1  0
  5  6  1  1
  7  9  1  0
  8  7  2  0
 10  9  1  0
 10 11  1  6
 11 12  1  0
 12 16  1  0
 13 12  2  0
 13 14  1  0
 14 15  1  0
 16 15  2  0
 17 18  2  0
 17 10  1  0
 19 17  1  0
 20 19  1  0
 21 20  1  0
 22 21  1  0
 22 23  1  0
 23 19  1  0
 23 24  1  6
 25 24  1  0
 26 24  2  0
M  END
$$$$
