IHP.pdb
     RDKit          3D

 26 27  0  0  1  0  0  0  0  0999 V2000
    8.2153  -11.9579   19.6014 C   0  0  0  0  0  0  0  0  0  0  0  0
    8.6570  -13.2189   20.2754 C   0  0  0  0  0  0  0  0  0  0  0  0
    8.1498  -14.4487   19.5412 C   0  0  2  0  0  0  0  0  0  0  0  0
    6.6549  -14.3590   19.4654 C   0  0  0  0  0  0  0  0  0  0  0  0
    8.6154  -15.6660   20.3195 C   0  0  2  0  0  0  0  0  0  0  0  0
    8.2324  -16.8498   19.5588 N   0  0  0  0  0  0  0  0  0  0  0  0
    7.9671  -15.7330   21.6529 C   0  0  0  0  0  0  0  0  0  0  0  0
    6.7301  -15.5573   21.7706 O   0  0  0  0  0  0  0  0  0  0  0  0
    8.7138  -15.9956   22.8308 N   0  0  0  0  0  0  0  0  0  0  0  0
    8.1007  -15.9539   24.1719 C   0  0  1  0  0  0  0  0  0  0  0  0
    7.9809  -17.3727   24.6946 C   0  0  0  0  0  0  0  0  0  0  0  0
    7.0573  -18.2162   23.9359 C   0  0  0  0  0  0  0  0  0  0  0  0
    5.7762  -17.9094   23.5638 C   0  0  0  0  0  0  0  0  0  0  0  0
    5.2980  -18.9822   22.8697 N   0  0  0  0  0  0  0  0  0  0  0  0
    6.2413  -19.9345   22.8041 C   0  0  0  0  0  0  0  0  0  0  0  0
    7.3041  -19.4508   23.4579 N   0  0  0  0  0  0  0  0  0  0  0  0
    8.8010  -15.0233   25.0535 C   0  0  0  0  0  0  0  0  0  0  0  0
   10.0607  -14.7846   24.9118 O   0  0  0  0  0  0  0  0  0  0  0  0
    8.2045  -14.2996   26.1188 N   0  0  0  0  0  0  0  0  0  0  0  0
    6.7992  -14.2724   26.4340 C   0  0  0  0  0  0  0  0  0  0  0  0
    6.5362  -12.8312   26.7739 C   0  0  0  0  0  0  0  0  0  0  0  0
    7.8305  -12.2956   27.2870 C   0  0  0  0  0  0  0  0  0  0  0  0
    8.8296  -13.4303   27.1093 C   0  0  1  0  0  0  0  0  0  0  0  0
    8.9647  -14.0628   28.4413 C   0  0  0  0  0  0  0  0  0  0  0  0
    9.6836  -13.5390   29.4951 O   0  0  0  0  0  0  0  0  0  0  0  0
    8.3776  -15.1602   28.6162 O   0  0  0  0  0  0  0  0  0  0  0  0
  1  2  1  0
  3  5  1  0
  3  2  1  0
  3  4  1  1
  5  7  1  0
  5  6  1  6
  7  9  1  0
  8  7  2  0
 10  9  1  0
 10 11  1  1
 11 12  1  0
 12 16  1  0
 13 12  2  0
 13 14  1  0
 14 15  1  0
 16 15  2  0
 17 18  2  0
 17 10  1  0
 19 17  1  0
 20 19  1  0
 21 20  1  0
 22 21  1  0
 22 23  1  0
 23 19  1  0
 23 24  1  1
 25 24  1  0
 26 24  2  0
M  END
$$$$
