IHP.pdb
     RDKit          3D

 26 27  0  0  1  0  0  0  0  0999 V2000
    7.6040  -12.1288   18.4424 C   0  0  0  0  0  0  0  0  0  0  0  0
    7.8746  -13.5584   18.7924 C   0  0  0  0  0  0  0  0  0  0  0  0
    7.4653  -13.8677   20.2225 C   0  0  2  0  0  0  0  0  0  0  0  0
    8.2627  -12.9833   21.1339 C   0  0  0  0  0  0  0  0  0  0  0  0
    7.7393  -15.3410   20.4644 C   0  0  2  0  0  0  0  0  0  0  0  0
    6.8999  -16.1030   19.5470 N   0  0  0  0  0  0  0  0  0  0  0  0
    7.3939  -15.7321   21.8539 C   0  0  0  0  0  0  0  0  0  0  0  0
    6.1989  -15.7364   22.2371 O   0  0  0  0  0  0  0  0  0  0  0  0
    8.3911  -16.1115   22.7896 N   0  0  0  0  0  0  0  0  0  0  0  0
    8.0757  -16.3730   24.2067 C   0  0  1  0  0  0  0  0  0  0  0  0
    7.8302  -17.8594   24.3826 C   0  0  0  0  0  0  0  0  0  0  0  0
    7.7129  -18.2880   25.7764 C   0  0  0  0  0  0  0  0  0  0  0  0
    8.6665  -18.9199   26.5281 C   0  0  0  0  0  0  0  0  0  0  0  0
    8.1267  -19.1204   27.7650 N   0  0  0  0  0  0  0  0  0  0  0  0
    6.8766  -18.6334   27.7964 C   0  0  0  0  0  0  0  0  0  0  0  0
    6.6424  -18.1311   26.5784 N   0  0  0  0  0  0  0  0  0  0  0  0
    9.0833  -15.7996   25.0955 C   0  0  0  0  0  0  0  0  0  0  0  0
   10.3435  -15.9408   24.8598 O   0  0  0  0  0  0  0  0  0  0  0  0
    8.8076  -15.0483   26.2677 N   0  0  0  0  0  0  0  0  0  0  0  0
    7.4976  -14.7002   26.7549 C   0  0  0  0  0  0  0  0  0  0  0  0
    7.6517  -13.2752   27.2103 C   0  0  0  0  0  0  0  0  0  0  0  0
    9.0865  -13.1267   27.5908 C   0  0  0  0  0  0  0  0  0  0  0  0
    9.7353  -14.4540   27.2236 C   0  0  1  0  0  0  0  0  0  0  0  0
    9.8408  -15.2165   28.4885 C   0  0  0  0  0  0  0  0  0  0  0  0
   10.7445  -14.9532   29.4964 O   0  0  0  0  0  0  0  0  0  0  0  0
    9.0438  -16.1750   28.6474 O   0  0  0  0  0  0  0  0  0  0  0  0
  1  2  1  0
  3  5  1  0
  3  2  1  0
  3  4  1  1
  5  7  1  0
  5  6  1  6
  7  9  1  0
  8  7  2  0
 10  9  1  0
 10 11  1  6
 11 12  1  0
 12 16  1  0
 13 12  2  0
 13 14  1  0
 14 15  1  0
 16 15  2  0
 17 18  2  0
 17 10  1  0
 19 17  1  0
 20 19  1  0
 21 20  1  0
 22 21  1  0
 22 23  1  0
 23 19  1  0
 23 24  1  1
 25 24  1  0
 26 24  2  0
M  END
$$$$
