IHP.pdb
     RDKit          3D

 26 27  0  0  1  0  0  0  0  0999 V2000
    7.9684  -12.4768   17.9943 C   0  0  0  0  0  0  0  0  0  0  0  0
    8.2314  -13.8333   18.5687 C   0  0  0  0  0  0  0  0  0  0  0  0
    7.7344  -13.9366   20.0008 C   0  0  2  0  0  0  0  0  0  0  0  0
    8.5140  -12.9627   20.8328 C   0  0  0  0  0  0  0  0  0  0  0  0
    7.9396  -15.3719   20.4501 C   0  0  2  0  0  0  0  0  0  0  0  0
    7.0778  -16.2182   19.6327 N   0  0  0  0  0  0  0  0  0  0  0  0
    7.5609  -15.5500   21.8740 C   0  0  0  0  0  0  0  0  0  0  0  0
    6.3644  -15.4364   22.2351 O   0  0  0  0  0  0  0  0  0  0  0  0
    8.5270  -15.8522   22.8686 N   0  0  0  0  0  0  0  0  0  0  0  0
    8.1540  -16.0884   24.2761 C   0  0  1  0  0  0  0  0  0  0  0  0
    8.2534  -17.5749   24.5612 C   0  0  0  0  0  0  0  0  0  0  0  0
    7.2254  -18.3823   23.9043 C   0  0  0  0  0  0  0  0  0  0  0  0
    5.8691  -18.2160   23.9854 C   0  0  0  0  0  0  0  0  0  0  0  0
    5.3044  -19.1865   23.2102 N   0  0  0  0  0  0  0  0  0  0  0  0
    6.2674  -19.9404   22.6577 C   0  0  0  0  0  0  0  0  0  0  0  0
    7.4289  -19.4364   23.0912 N   0  0  0  0  0  0  0  0  0  0  0  0
    8.9106  -15.2292   25.1834 C   0  0  0  0  0  0  0  0  0  0  0  0
   10.1695  -15.0112   25.0066 O   0  0  0  0  0  0  0  0  0  0  0  0
    8.3734  -14.5580   26.3127 N   0  0  0  0  0  0  0  0  0  0  0  0
    7.0008  -14.6084   26.7468 C   0  0  0  0  0  0  0  0  0  0  0  0
    6.6979  -13.1894   27.1425 C   0  0  0  0  0  0  0  0  0  0  0  0
    8.0039  -12.5991   27.5564 C   0  0  0  0  0  0  0  0  0  0  0  0
    9.0383  -13.6778   27.2671 C   0  0  1  0  0  0  0  0  0  0  0  0
    9.3184  -14.3290   28.5671 C   0  0  0  0  0  0  0  0  0  0  0  0
    8.9540  -15.6166   28.9003 O   0  0  0  0  0  0  0  0  0  0  0  0
    9.9343  -13.6498   29.4267 O   0  0  0  0  0  0  0  0  0  0  0  0
  1  2  1  0
  3  5  1  0
  3  2  1  0
  3  4  1  1
  5  7  1  0
  5  6  1  6
  7  9  1  0
  8  7  2  0
 10  9  1  0
 10 11  1  1
 11 12  1  0
 12 16  1  0
 13 12  2  0
 13 14  1  0
 14 15  1  0
 16 15  2  0
 17 18  2  0
 17 10  1  0
 19 17  1  0
 20 19  1  0
 21 20  1  0
 22 21  1  0
 22 23  1  0
 23 19  1  0
 23 24  1  1
 25 24  1  0
 26 24  2  0
M  END
$$$$
