IHP.pdb
     RDKit          3D

 26 27  0  0  1  0  0  0  0  0999 V2000
    7.1081  -12.3142   28.3793 C   0  0  0  0  0  0  0  0  0  0  0  0
    6.2586  -13.1805   27.5034 C   0  0  0  0  0  0  0  0  0  0  0  0
    7.0647  -13.7770   26.3619 C   0  0  2  0  0  0  0  0  0  0  0  0
    7.7259  -12.6512   25.6243 C   0  0  0  0  0  0  0  0  0  0  0  0
    6.1010  -14.5540   25.4834 C   0  0  2  0  0  0  0  0  0  0  0  0
    5.6426  -15.7100   26.2453 N   0  0  0  0  0  0  0  0  0  0  0  0
    6.7680  -15.0379   24.2491 C   0  0  0  0  0  0  0  0  0  0  0  0
    7.3635  -16.1425   24.2367 O   0  0  0  0  0  0  0  0  0  0  0  0
    6.7567  -14.2780   23.0506 N   0  0  0  0  0  0  0  0  0  0  0  0
    7.5017  -14.6998   21.8492 C   0  0  1  0  0  0  0  0  0  0  0  0
    7.2498  -13.6922   20.7438 C   0  0  0  0  0  0  0  0  0  0  0  0
    7.9148  -14.0087   19.4798 C   0  0  0  0  0  0  0  0  0  0  0  0
    8.8639  -13.2604   18.8371 C   0  0  0  0  0  0  0  0  0  0  0  0
    9.2036  -13.9404   17.7041 N   0  0  0  0  0  0  0  0  0  0  0  0
    8.4959  -15.0783   17.6311 C   0  0  0  0  0  0  0  0  0  0  0  0
    7.7176  -15.1027   18.7195 N   0  0  0  0  0  0  0  0  0  0  0  0
    8.9082  -14.9532   22.1513 C   0  0  0  0  0  0  0  0  0  0  0  0
    9.5504  -14.2329   23.0072 O   0  0  0  0  0  0  0  0  0  0  0  0
    9.6979  -15.9790   21.5694 N   0  0  0  0  0  0  0  0  0  0  0  0
    9.2238  -16.9944   20.6644 C   0  0  0  0  0  0  0  0  0  0  0  0
    9.9225  -18.2426   21.1288 C   0  0  0  0  0  0  0  0  0  0  0  0
   11.1924  -17.7818   21.7616 C   0  0  0  0  0  0  0  0  0  0  0  0
   11.1185  -16.2615   21.7419 C   0  0  1  0  0  0  0  0  0  0  0  0
   11.9448  -15.8311   20.5910 C   0  0  0  0  0  0  0  0  0  0  0  0
   11.4476  -15.3882   19.3834 O   0  0  0  0  0  0  0  0  0  0  0  0
   13.1927  -15.8767   20.7333 O   0  0  0  0  0  0  0  0  0  0  0  0
  1  2  1  0
  3  5  1  0
  3  2  1  0
  3  4  1  6
  5  7  1  0
  5  6  1  1
  7  9  1  0
  8  7  2  0
 10  9  1  0
 10 11  1  6
 11 12  1  0
 12 16  1  0
 13 12  2  0
 13 14  1  0
 14 15  1  0
 16 15  2  0
 17 18  2  0
 17 10  1  0
 19 17  1  0
 20 19  1  0
 21 20  1  0
 22 21  1  0
 22 23  1  0
 23 19  1  0
 23 24  1  6
 25 24  1  0
 26 24  2  0
M  END
$$$$
