IHP.pdb
     RDKit          3D

 26 27  0  0  1  0  0  0  0  0999 V2000
    6.5195  -10.8062   26.4282 C   0  0  0  0  0  0  0  0  0  0  0  0
    6.2449  -12.0284   27.2469 C   0  0  0  0  0  0  0  0  0  0  0  0
    7.0151  -13.2305   26.7269 C   0  0  2  0  0  0  0  0  0  0  0  0
    8.4508  -12.8275   26.5689 C   0  0  0  0  0  0  0  0  0  0  0  0
    6.3828  -13.6390   25.4087 C   0  0  2  0  0  0  0  0  0  0  0  0
    5.0116  -14.0512   25.6854 N   0  0  0  0  0  0  0  0  0  0  0  0
    7.1041  -14.7828   24.7970 C   0  0  0  0  0  0  0  0  0  0  0  0
    6.8614  -15.9588   25.1618 O   0  0  0  0  0  0  0  0  0  0  0  0
    8.0835  -14.5910   23.7881 N   0  0  0  0  0  0  0  0  0  0  0  0
    8.8741  -15.7102   23.2417 C   0  0  1  0  0  0  0  0  0  0  0  0
    9.4310  -15.2973   21.8927 C   0  0  0  0  0  0  0  0  0  0  0  0
    8.4355  -14.7394   20.9772 C   0  0  0  0  0  0  0  0  0  0  0  0
    7.3322  -15.3732   20.4726 C   0  0  0  0  0  0  0  0  0  0  0  0
    6.6906  -14.4738   19.6720 N   0  0  0  0  0  0  0  0  0  0  0  0
    7.3626  -13.3122   19.6691 C   0  0  0  0  0  0  0  0  0  0  0  0
    8.4206  -13.4926   20.4685 N   0  0  0  0  0  0  0  0  0  0  0  0
    9.8643  -16.1879   24.2036 C   0  0  0  0  0  0  0  0  0  0  0  0
   10.4060  -15.3901   25.0603 O   0  0  0  0  0  0  0  0  0  0  0  0
   10.3229  -17.5269   24.3088 N   0  0  0  0  0  0  0  0  0  0  0  0
    9.8841  -18.6325   23.4963 C   0  0  0  0  0  0  0  0  0  0  0  0
    9.7536  -19.7668   24.4752 C   0  0  0  0  0  0  0  0  0  0  0  0
   10.7244  -19.4695   25.5681 C   0  0  0  0  0  0  0  0  0  0  0  0
   11.2972  -18.1001   25.2305 C   0  0  1  0  0  0  0  0  0  0  0  0
   12.6148  -18.3557   24.6051 C   0  0  0  0  0  0  0  0  0  0  0  0
   13.7780  -18.6243   25.2954 O   0  0  0  0  0  0  0  0  0  0  0  0
   12.6689  -18.3226   23.3499 O   0  0  0  0  0  0  0  0  0  0  0  0
  1  2  1  0
  3  5  1  0
  3  2  1  0
  3  4  1  6
  5  7  1  0
  5  6  1  1
  7  9  1  0
  8  7  2  0
 10  9  1  0
 10 11  1  6
 11 12  1  0
 12 16  1  0
 13 12  2  0
 13 14  1  0
 14 15  1  0
 16 15  2  0
 17 18  2  0
 17 10  1  0
 19 17  1  0
 20 19  1  0
 21 20  1  0
 22 21  1  0
 22 23  1  0
 23 19  1  0
 23 24  1  6
 25 24  1  0
 26 24  2  0
M  END
$$$$
