IHP.pdb
     RDKit          3D

 26 27  0  0  1  0  0  0  0  0999 V2000
    7.6990  -12.1937   18.7948 C   0  0  0  0  0  0  0  0  0  0  0  0
    7.8404  -13.6462   19.1260 C   0  0  0  0  0  0  0  0  0  0  0  0
    7.5364  -13.9146   20.5904 C   0  0  2  0  0  0  0  0  0  0  0  0
    8.5298  -13.1535   21.4165 C   0  0  0  0  0  0  0  0  0  0  0  0
    7.6351  -15.4138   20.8069 C   0  0  2  0  0  0  0  0  0  0  0  0
    6.6177  -16.0481   19.9766 N   0  0  0  0  0  0  0  0  0  0  0  0
    7.3766  -15.7714   22.2240 C   0  0  0  0  0  0  0  0  0  0  0  0
    6.2732  -15.5040   22.7585 O   0  0  0  0  0  0  0  0  0  0  0  0
    8.3567  -16.4221   23.0178 N   0  0  0  0  0  0  0  0  0  0  0  0
    8.1654  -16.6562   24.4616 C   0  0  1  0  0  0  0  0  0  0  0  0
    7.7817  -18.1087   24.6706 C   0  0  0  0  0  0  0  0  0  0  0  0
    7.7767  -18.5330   26.0707 C   0  0  0  0  0  0  0  0  0  0  0  0
    8.8361  -19.0169   26.7898 C   0  0  0  0  0  0  0  0  0  0  0  0
    8.3753  -19.2762   28.0476 N   0  0  0  0  0  0  0  0  0  0  0  0
    7.0714  -18.9677   28.1232 C   0  0  0  0  0  0  0  0  0  0  0  0
    6.7249  -18.5173   26.9117 N   0  0  0  0  0  0  0  0  0  0  0  0
    9.3161  -16.1991   25.2366 C   0  0  0  0  0  0  0  0  0  0  0  0
   10.5226  -16.3946   24.8242 O   0  0  0  0  0  0  0  0  0  0  0  0
    9.2464  -15.5117   26.4764 N   0  0  0  0  0  0  0  0  0  0  0  0
    8.0372  -15.1383   27.1643 C   0  0  0  0  0  0  0  0  0  0  0  0
    8.3272  -13.7528   27.6723 C   0  0  0  0  0  0  0  0  0  0  0  0
    9.8068  -13.6911   27.8519 C   0  0  0  0  0  0  0  0  0  0  0  0
   10.3282  -15.0195   27.3220 C   0  0  1  0  0  0  0  0  0  0  0  0
   10.5698  -15.8639   28.5141 C   0  0  0  0  0  0  0  0  0  0  0  0
   11.6047  -15.6897   29.4087 O   0  0  0  0  0  0  0  0  0  0  0  0
    9.7671  -16.8091   28.7185 O   0  0  0  0  0  0  0  0  0  0  0  0
  1  2  1  0
  3  5  1  0
  3  2  1  0
  3  4  1  1
  5  7  1  0
  5  6  1  6
  7  9  1  0
  8  7  2  0
 10  9  1  0
 10 11  1  6
 11 12  1  0
 12 16  1  0
 13 12  2  0
 13 14  1  0
 14 15  1  0
 16 15  2  0
 17 18  2  0
 17 10  1  0
 19 17  1  0
 20 19  1  0
 21 20  1  0
 22 21  1  0
 22 23  1  0
 23 19  1  0
 23 24  1  1
 25 24  1  0
 26 24  2  0
M  END
$$$$
