IHP.pdb
     RDKit          3D

 26 27  0  0  1  0  0  0  0  0999 V2000
    7.7204  -11.3711   21.7338 C   0  0  0  0  0  0  0  0  0  0  0  0
    7.3410  -12.8179   21.7820 C   0  0  0  0  0  0  0  0  0  0  0  0
    8.3676  -13.6858   21.0739 C   0  0  2  0  0  0  0  0  0  0  0  0
    8.4651  -13.2205   19.6517 C   0  0  0  0  0  0  0  0  0  0  0  0
    7.8951  -15.1245   21.1784 C   0  0  2  0  0  0  0  0  0  0  0  0
    6.5542  -15.1917   20.6088 N   0  0  0  0  0  0  0  0  0  0  0  0
    7.8285  -15.5681   22.5931 C   0  0  0  0  0  0  0  0  0  0  0  0
    6.7982  -15.3609   23.2790 O   0  0  0  0  0  0  0  0  0  0  0  0
    8.9153  -16.2357   23.2154 N   0  0  0  0  0  0  0  0  0  0  0  0
    8.8650  -16.6678   24.6249 C   0  0  1  0  0  0  0  0  0  0  0  0
    8.7636  -18.1807   24.6650 C   0  0  0  0  0  0  0  0  0  0  0  0
    7.5027  -18.7120   24.1473 C   0  0  0  0  0  0  0  0  0  0  0  0
    6.2384  -18.3033   24.4763 C   0  0  0  0  0  0  0  0  0  0  0  0
    5.3734  -19.0690   23.7502 N   0  0  0  0  0  0  0  0  0  0  0  0
    6.0641  -19.9314   22.9886 C   0  0  0  0  0  0  0  0  0  0  0  0
    7.3573  -19.6996   23.2434 N   0  0  0  0  0  0  0  0  0  0  0  0
    9.9633  -16.0972   25.4008 C   0  0  0  0  0  0  0  0  0  0  0  0
   11.1726  -16.0985   24.9520 O   0  0  0  0  0  0  0  0  0  0  0  0
    9.8352  -15.4959   26.6800 N   0  0  0  0  0  0  0  0  0  0  0  0
    8.5948  -15.1949   27.3475 C   0  0  0  0  0  0  0  0  0  0  0  0
    8.8349  -13.8407   27.9560 C   0  0  0  0  0  0  0  0  0  0  0  0
   10.3057  -13.7601   28.1921 C   0  0  0  0  0  0  0  0  0  0  0  0
   10.8757  -15.0388   27.5944 C   0  0  1  0  0  0  0  0  0  0  0  0
   11.0960  -15.9558   28.7359 C   0  0  0  0  0  0  0  0  0  0  0  0
   12.1284  -15.8524   29.6443 O   0  0  0  0  0  0  0  0  0  0  0  0
   10.2763  -16.8975   28.8804 O   0  0  0  0  0  0  0  0  0  0  0  0
  1  2  1  0
  3  5  1  0
  3  2  1  0
  3  4  1  6
  5  7  1  0
  5  6  1  1
  7  9  1  0
  8  7  2  0
 10  9  1  0
 10 11  1  6
 11 12  1  0
 12 16  1  0
 13 12  2  0
 13 14  1  0
 14 15  1  0
 16 15  2  0
 17 18  2  0
 17 10  1  0
 19 17  1  0
 20 19  1  0
 21 20  1  0
 22 21  1  0
 22 23  1  0
 23 19  1  0
 23 24  1  1
 25 24  1  0
 26 24  2  0
M  END
$$$$
