HEA.pdb
     RDKit          3D

 25 25  0  0  1  0  0  0  0  0999 V2000
    9.4565  -17.0428   19.2828 N   0  0  0  0  0  0  0  0  0  0  0  0
    9.3200  -16.0572   20.3332 C   0  0  1  0  0  0  0  0  0  0  0  0
    7.8855  -15.5981   20.3412 C   0  0  0  0  0  0  0  0  0  0  0  0
    7.7011  -14.7013   19.1743 C   0  0  0  0  0  0  0  0  0  0  0  0
    8.6398  -14.3594   18.2055 C   0  0  0  0  0  0  0  0  0  0  0  0
    8.0783  -13.5255   17.3228 N   0  0  0  0  0  0  0  0  0  0  0  0
    6.8100  -13.3173   17.6882 C   0  0  0  0  0  0  0  0  0  0  0  0
    6.5906  -14.0354   18.8133 N   0  0  0  0  0  0  0  0  0  0  0  0
    9.7716  -16.6228   21.6028 C   0  0  0  0  0  0  0  0  0  0  0  0
    9.2072  -17.5838   22.1926 O   0  0  0  0  0  0  0  0  0  0  0  0
   10.9143  -16.0866   22.2479 N   0  0  0  0  0  0  0  0  0  0  0  0
   11.4690  -16.6379   23.4849 C   0  0  1  0  0  0  0  0  0  0  0  0
   12.7945  -16.0598   23.8070 C   0  0  0  0  0  0  0  0  0  0  0  0
   13.8674  -16.7119   22.9749 C   0  0  0  0  0  0  0  0  0  0  0  0
   15.1811  -16.0297   23.1598 C   0  0  0  0  0  0  0  0  0  0  0  0
   15.7142  -15.4709   22.1822 O   0  0  0  0  0  0  0  0  0  0  0  0
   10.4250  -16.4781   24.5110 C   0  0  0  0  0  0  0  0  0  0  0  0
    9.7404  -15.4417   24.6323 O   0  0  0  0  0  0  0  0  0  0  0  0
   15.8019  -16.0126   24.3876 O   0  0  0  0  0  0  0  0  0  0  0  0
    7.7667  -17.3424   25.7804 C   0  0  0  0  0  0  0  0  0  0  0  0
    9.1217  -17.3564   26.4895 C   0  0  2  0  0  0  0  0  0  0  0  0
   10.1189  -17.5196   25.4564 N   0  0  0  0  0  0  0  0  0  0  0  0
    9.1104  -18.5098   27.4181 C   0  0  0  0  0  0  0  0  0  0  0  0
    8.3436  -18.5677   28.5728 O   0  0  0  0  0  0  0  0  0  0  0  0
    9.8392  -19.4961   27.1442 O   0  0  0  0  0  0  0  0  0  0  0  0
  2  1  1  6
  3  2  1  0
  4  8  1  0
  4  3  1  0
  5  4  2  0
  6  5  1  0
  6  7  1  0
  7  8  2  0
  9  2  1  0
 10  9  2  0
 11  9  1  0
 12 11  1  0
 12 13  1  1
 13 14  1  0
 15 19  1  0
 15 14  1  0
 16 15  2  0
 17 22  1  0
 17 12  1  0
 18 17  2  0
 21 20  1  6
 21 22  1  0
 21 23  1  0
 23 24  1  0
 25 23  2  0
M  END
$$$$
