HEA.pdb
     RDKit          3D

 25 25  0  0  1  0  0  0  0  0999 V2000
    9.6403  -15.5953   20.6790 N   0  0  0  0  0  0  0  0  0  0  0  0
    8.8258  -14.7442   21.5191 C   0  0  1  0  0  0  0  0  0  0  0  0
    7.4754  -14.6183   20.8641 C   0  0  0  0  0  0  0  0  0  0  0  0
    7.6981  -14.1373   19.4788 C   0  0  0  0  0  0  0  0  0  0  0  0
    8.2098  -12.9076   19.0757 C   0  0  0  0  0  0  0  0  0  0  0  0
    8.2521  -12.8646   17.7393 N   0  0  0  0  0  0  0  0  0  0  0  0
    7.7855  -14.0238   17.2658 C   0  0  0  0  0  0  0  0  0  0  0  0
    7.4518  -14.7896   18.3297 N   0  0  0  0  0  0  0  0  0  0  0  0
    8.7818  -15.2859   22.8757 C   0  0  0  0  0  0  0  0  0  0  0  0
    7.9549  -14.9265   23.7571 O   0  0  0  0  0  0  0  0  0  0  0  0
    9.7108  -16.2820   23.2687 N   0  0  0  0  0  0  0  0  0  0  0  0
    9.7467  -16.8587   24.6132 C   0  0  1  0  0  0  0  0  0  0  0  0
   10.4816  -18.1447   24.6481 C   0  0  0  0  0  0  0  0  0  0  0  0
   10.5230  -18.6873   26.0525 C   0  0  0  0  0  0  0  0  0  0  0  0
   11.3469  -19.9287   26.1259 C   0  0  0  0  0  0  0  0  0  0  0  0
   11.9188  -20.3356   25.0966 O   0  0  0  0  0  0  0  0  0  0  0  0
   10.2514  -15.7989   25.5022 C   0  0  0  0  0  0  0  0  0  0  0  0
   11.4045  -15.3290   25.4175 O   0  0  0  0  0  0  0  0  0  0  0  0
   11.4789  -20.6204   27.3080 O   0  0  0  0  0  0  0  0  0  0  0  0
    8.8808  -13.2110   27.6834 C   0  0  0  0  0  0  0  0  0  0  0  0
    9.9636  -14.2748   27.4969 C   0  0  2  0  0  0  0  0  0  0  0  0
    9.4390  -15.2251   26.5428 N   0  0  0  0  0  0  0  0  0  0  0  0
   10.1845  -14.9019   28.8201 C   0  0  0  0  0  0  0  0  0  0  0  0
    9.9007  -16.2295   29.1056 O   0  0  0  0  0  0  0  0  0  0  0  0
   10.6575  -14.1888   29.7403 O   0  0  0  0  0  0  0  0  0  0  0  0
  2  1  1  6
  3  2  1  0
  4  8  1  0
  4  3  1  0
  5  4  2  0
  6  5  1  0
  6  7  1  0
  7  8  2  0
  9  2  1  0
 10  9  2  0
 11  9  1  0
 12 11  1  0
 12 13  1  6
 13 14  1  0
 15 19  1  0
 15 14  1  0
 16 15  2  0
 17 22  1  0
 17 12  1  0
 18 17  2  0
 21 20  1  1
 21 22  1  0
 21 23  1  0
 23 24  1  0
 25 23  2  0
M  END
$$$$
