HEA.pdb
     RDKit          3D

 25 25  0  0  1  0  0  0  0  0999 V2000
   12.5024  -16.8202   10.7428 N   0  0  0  0  0  0  0  0  0  0  0  0
   13.0188  -16.0837   11.8761 C   0  0  1  0  0  0  0  0  0  0  0  0
   11.8584  -15.3741   12.5231 C   0  0  0  0  0  0  0  0  0  0  0  0
   11.4723  -14.2529   11.6321 C   0  0  0  0  0  0  0  0  0  0  0  0
   12.0840  -13.8571   10.4465 C   0  0  0  0  0  0  0  0  0  0  0  0
   11.4317  -12.8024    9.9448 N   0  0  0  0  0  0  0  0  0  0  0  0
   10.4203  -12.5036   10.7654 C   0  0  0  0  0  0  0  0  0  0  0  0
   10.4534  -13.3899   11.7867 N   0  0  0  0  0  0  0  0  0  0  0  0
   13.7355  -16.9910   12.7697 C   0  0  0  0  0  0  0  0  0  0  0  0
   13.3173  -18.1313   13.1083 O   0  0  0  0  0  0  0  0  0  0  0  0
   14.9859  -16.6042   13.3141 N   0  0  0  0  0  0  0  0  0  0  0  0
   15.7918  -17.4761   14.1698 C   0  0  1  0  0  0  0  0  0  0  0  0
   17.2168  -17.4914   13.7647 C   0  0  0  0  0  0  0  0  0  0  0  0
   17.3885  -18.2575   12.4793 C   0  0  0  0  0  0  0  0  0  0  0  0
   18.8129  -18.2532   12.0363 C   0  0  0  0  0  0  0  0  0  0  0  0
   19.2518  -19.2331   11.4044 O   0  0  0  0  0  0  0  0  0  0  0  0
   15.5159  -17.0615   15.5556 C   0  0  0  0  0  0  0  0  0  0  0  0
   15.4126  -15.8672   15.9028 O   0  0  0  0  0  0  0  0  0  0  0  0
   19.6370  -17.1876   12.3168 O   0  0  0  0  0  0  0  0  0  0  0  0
   14.2530  -18.8359   18.5695 C   0  0  0  0  0  0  0  0  0  0  0  0
   14.9582  -17.6263   17.9544 C   0  0  2  0  0  0  0  0  0  0  0  0
   15.3442  -18.0176   16.6179 N   0  0  0  0  0  0  0  0  0  0  0  0
   16.1414  -17.3419   18.7982 C   0  0  0  0  0  0  0  0  0  0  0  0
   16.0818  -16.6950   20.0240 O   0  0  0  0  0  0  0  0  0  0  0  0
   17.2679  -17.7085   18.3791 O   0  0  0  0  0  0  0  0  0  0  0  0
  2  1  1  6
  3  2  1  0
  4  8  1  0
  4  3  1  0
  5  4  2  0
  6  5  1  0
  6  7  1  0
  7  8  2  0
  9  2  1  0
 10  9  2  0
 11  9  1  0
 12 11  1  0
 12 13  1  6
 13 14  1  0
 15 19  1  0
 15 14  1  0
 16 15  2  0
 17 22  1  0
 17 12  1  0
 18 17  2  0
 21 20  1  1
 21 22  1  0
 21 23  1  0
 23 24  1  0
 25 23  2  0
M  END
$$$$
