HEA.pdb
     RDKit          3D

 25 25  0  0  1  0  0  0  0  0999 V2000
   10.3108  -15.9097   18.0323 N   0  0  0  0  0  0  0  0  0  0  0  0
   10.8125  -15.2645   19.2263 C   0  0  1  0  0  0  0  0  0  0  0  0
    9.6229  -14.8403   20.0469 C   0  0  0  0  0  0  0  0  0  0  0  0
    8.8472  -13.8714   19.2346 C   0  0  0  0  0  0  0  0  0  0  0  0
    8.9705  -12.4855   19.2139 C   0  0  0  0  0  0  0  0  0  0  0  0
    8.0874  -11.9775   18.3469 N   0  0  0  0  0  0  0  0  0  0  0  0
    7.3984  -12.9873   17.8074 C   0  0  0  0  0  0  0  0  0  0  0  0
    7.8671  -14.1330   18.3528 N   0  0  0  0  0  0  0  0  0  0  0  0
   11.7286  -16.1631   19.9254 C   0  0  0  0  0  0  0  0  0  0  0  0
   11.4002  -17.2853   20.3973 O   0  0  0  0  0  0  0  0  0  0  0  0
   13.0836  -15.7884   20.1072 N   0  0  0  0  0  0  0  0  0  0  0  0
   14.0773  -16.6564   20.7404 C   0  0  1  0  0  0  0  0  0  0  0  0
   15.4633  -16.2398   20.4236 C   0  0  0  0  0  0  0  0  0  0  0  0
   15.7703  -16.4996   18.9721 C   0  0  0  0  0  0  0  0  0  0  0  0
   17.1805  -16.1378   18.6470 C   0  0  0  0  0  0  0  0  0  0  0  0
   18.0631  -17.0131   18.7304 O   0  0  0  0  0  0  0  0  0  0  0  0
   13.7265  -16.7090   22.1696 C   0  0  0  0  0  0  0  0  0  0  0  0
   13.9500  -15.7711   22.9620 O   0  0  0  0  0  0  0  0  0  0  0  0
   17.5108  -14.8593   18.2602 O   0  0  0  0  0  0  0  0  0  0  0  0
   11.3695  -18.5362   24.2542 C   0  0  0  0  0  0  0  0  0  0  0  0
   12.7707  -17.9299   24.1647 C   0  0  2  0  0  0  0  0  0  0  0  0
   13.0939  -17.8605   22.7578 N   0  0  0  0  0  0  0  0  0  0  0  0
   13.6838  -18.8461   24.8854 C   0  0  0  0  0  0  0  0  0  0  0  0
   13.7734  -18.9221   26.2677 O   0  0  0  0  0  0  0  0  0  0  0  0
   14.4225  -19.6007   24.2042 O   0  0  0  0  0  0  0  0  0  0  0  0
  2  1  1  6
  3  2  1  0
  4  8  1  0
  4  3  1  0
  5  4  2  0
  6  5  1  0
  6  7  1  0
  7  8  2  0
  9  2  1  0
 10  9  2  0
 11  9  1  0
 12 11  1  0
 12 13  1  1
 13 14  1  0
 15 19  1  0
 15 14  1  0
 16 15  2  0
 17 22  1  0
 17 12  1  0
 18 17  2  0
 21 20  1  6
 21 22  1  0
 21 23  1  0
 23 24  1  0
 25 23  2  0
M  END
$$$$
