HEA.pdb
     RDKit          3D

 25 25  0  0  1  0  0  0  0  0999 V2000
    6.1749  -15.5688   20.4282 N   0  0  0  0  0  0  0  0  0  0  0  0
    7.3804  -15.3141   21.1868 C   0  0  1  0  0  0  0  0  0  0  0  0
    7.8835  -13.9496   20.7950 C   0  0  0  0  0  0  0  0  0  0  0  0
    8.2496  -14.0081   19.3588 C   0  0  0  0  0  0  0  0  0  0  0  0
    7.7268  -13.2513   18.3146 C   0  0  0  0  0  0  0  0  0  0  0  0
    8.3232  -13.6068   17.1711 N   0  0  0  0  0  0  0  0  0  0  0  0
    9.2127  -14.5668   17.4409 C   0  0  0  0  0  0  0  0  0  0  0  0
    9.1605  -14.8034   18.7717 N   0  0  0  0  0  0  0  0  0  0  0  0
    7.1055  -15.4603   22.6147 C   0  0  0  0  0  0  0  0  0  0  0  0
    6.1381  -14.9141   23.2109 O   0  0  0  0  0  0  0  0  0  0  0  0
    7.9564  -16.2592   23.4192 N   0  0  0  0  0  0  0  0  0  0  0  0
    7.7001  -16.5289   24.8346 C   0  0  1  0  0  0  0  0  0  0  0  0
    7.6846  -17.9805   25.1310 C   0  0  0  0  0  0  0  0  0  0  0  0
    7.5896  -18.2116   26.6162 C   0  0  0  0  0  0  0  0  0  0  0  0
    7.6916  -19.6637   26.9426 C   0  0  0  0  0  0  0  0  0  0  0  0
    8.8165  -20.1598   27.1442 O   0  0  0  0  0  0  0  0  0  0  0  0
    8.6739  -15.7231   25.5900 C   0  0  0  0  0  0  0  0  0  0  0  0
    9.9022  -15.7553   25.3710 O   0  0  0  0  0  0  0  0  0  0  0  0
    6.5659  -20.4509   27.0219 O   0  0  0  0  0  0  0  0  0  0  0  0
    8.5195  -12.8469   27.9372 C   0  0  0  0  0  0  0  0  0  0  0  0
    9.2265  -14.1163   27.4601 C   0  0  2  0  0  0  0  0  0  0  0  0
    8.2706  -14.8318   26.6459 N   0  0  0  0  0  0  0  0  0  0  0  0
    9.5912  -14.8875   28.6705 C   0  0  0  0  0  0  0  0  0  0  0  0
   10.6094  -14.5273   29.5413 O   0  0  0  0  0  0  0  0  0  0  0  0
    8.9395  -15.9313   28.9248 O   0  0  0  0  0  0  0  0  0  0  0  0
  2  1  1  6
  3  2  1  0
  4  8  1  0
  4  3  1  0
  5  4  2  0
  6  5  1  0
  6  7  1  0
  7  8  2  0
  9  2  1  0
 10  9  2  0
 11  9  1  0
 12 11  1  0
 12 13  1  6
 13 14  1  0
 15 19  1  0
 15 14  1  0
 16 15  2  0
 17 22  1  0
 17 12  1  0
 18 17  2  0
 21 20  1  1
 21 22  1  0
 21 23  1  0
 23 24  1  0
 25 23  2  0
M  END
$$$$
