HEA.pdb
     RDKit          3D

 25 25  0  0  1  0  0  0  0  0999 V2000
    9.2070  -16.7163   18.7865 N   0  0  0  0  0  0  0  0  0  0  0  0
    9.7657  -16.1408   19.9907 C   0  0  1  0  0  0  0  0  0  0  0  0
    8.6549  -15.4173   20.7058 C   0  0  0  0  0  0  0  0  0  0  0  0
    8.1965  -14.3213   19.8177 C   0  0  0  0  0  0  0  0  0  0  0  0
    8.7145  -13.0338   19.7160 C   0  0  0  0  0  0  0  0  0  0  0  0
    8.0205  -12.3507   18.7987 N   0  0  0  0  0  0  0  0  0  0  0  0
    7.0726  -13.1526   18.3048 C   0  0  0  0  0  0  0  0  0  0  0  0
    7.1876  -14.3467   18.9297 N   0  0  0  0  0  0  0  0  0  0  0  0
   10.4053  -17.1860   20.7869 C   0  0  0  0  0  0  0  0  0  0  0  0
    9.8529  -18.2736   21.1058 O   0  0  0  0  0  0  0  0  0  0  0  0
   11.7325  -17.0069   21.2516 N   0  0  0  0  0  0  0  0  0  0  0  0
   12.4714  -18.0367   21.9833 C   0  0  1  0  0  0  0  0  0  0  0  0
   13.9163  -18.0241   21.6559 C   0  0  0  0  0  0  0  0  0  0  0  0
   14.1319  -18.4187   20.2184 C   0  0  0  0  0  0  0  0  0  0  0  0
   15.5688  -18.2971   19.8366 C   0  0  0  0  0  0  0  0  0  0  0  0
   15.8717  -17.6277   18.8305 O   0  0  0  0  0  0  0  0  0  0  0  0
   12.1267  -17.8594   23.4039 C   0  0  0  0  0  0  0  0  0  0  0  0
   12.4028  -16.8275   24.0494 O   0  0  0  0  0  0  0  0  0  0  0  0
   16.5514  -18.9116   20.5782 O   0  0  0  0  0  0  0  0  0  0  0  0
    9.7110  -19.2748   25.7438 C   0  0  0  0  0  0  0  0  0  0  0  0
   11.1250  -18.7229   25.5569 C   0  0  2  0  0  0  0  0  0  0  0  0
   11.4390  -18.8769   24.1547 N   0  0  0  0  0  0  0  0  0  0  0  0
   12.0224  -19.5398   26.4055 C   0  0  0  0  0  0  0  0  0  0  0  0
   12.1051  -19.4205   27.7853 O   0  0  0  0  0  0  0  0  0  0  0  0
   12.7534  -20.3928   25.8425 O   0  0  0  0  0  0  0  0  0  0  0  0
  2  1  1  6
  3  2  1  0
  4  8  1  0
  4  3  1  0
  5  4  2  0
  6  5  1  0
  6  7  1  0
  7  8  2  0
  9  2  1  0
 10  9  2  0
 11  9  1  0
 12 11  1  0
 12 13  1  1
 13 14  1  0
 15 19  1  0
 15 14  1  0
 16 15  2  0
 17 22  1  0
 17 12  1  0
 18 17  2  0
 21 20  1  6
 21 22  1  0
 21 23  1  0
 23 24  1  0
 25 23  2  0
M  END
$$$$
