HEA.pdb
     RDKit          3D

 25 25  0  0  1  0  0  0  0  0999 V2000
    8.9799  -16.9338   19.4089 N   0  0  0  0  0  0  0  0  0  0  0  0
    9.4702  -16.0252   20.4226 C   0  0  1  0  0  0  0  0  0  0  0  0
    8.3174  -15.1536   20.8468 C   0  0  0  0  0  0  0  0  0  0  0  0
    7.9060  -14.3572   19.6651 C   0  0  0  0  0  0  0  0  0  0  0  0
    8.5090  -13.2097   19.1590 C   0  0  0  0  0  0  0  0  0  0  0  0
    7.8328  -12.7952   18.0816 N   0  0  0  0  0  0  0  0  0  0  0  0
    6.8144  -13.6352   17.8748 C   0  0  0  0  0  0  0  0  0  0  0  0
    6.8674  -14.5800   18.8414 N   0  0  0  0  0  0  0  0  0  0  0  0
   10.0767  -16.7840   21.5144 C   0  0  0  0  0  0  0  0  0  0  0  0
    9.7469  -17.9590   21.8311 O   0  0  0  0  0  0  0  0  0  0  0  0
   11.1064  -16.1993   22.2937 N   0  0  0  0  0  0  0  0  0  0  0  0
   11.8965  -16.9497   23.2707 C   0  0  1  0  0  0  0  0  0  0  0  0
   13.3429  -16.6452   23.1689 C   0  0  0  0  0  0  0  0  0  0  0  0
   13.9082  -17.2057   21.8903 C   0  0  0  0  0  0  0  0  0  0  0  0
   15.3770  -16.9614   21.7986 C   0  0  0  0  0  0  0  0  0  0  0  0
   16.1443  -17.9348   21.6728 O   0  0  0  0  0  0  0  0  0  0  0  0
   11.2724  -16.7029   24.5813 C   0  0  0  0  0  0  0  0  0  0  0  0
   11.7694  -17.0923   25.6579 O   0  0  0  0  0  0  0  0  0  0  0  0
   15.8856  -15.6840   21.8513 O   0  0  0  0  0  0  0  0  0  0  0  0
    8.1027  -15.0109   25.7123 C   0  0  0  0  0  0  0  0  0  0  0  0
    9.4498  -15.6761   25.9985 C   0  0  2  0  0  0  0  0  0  0  0  0
   10.0307  -15.9866   24.7122 N   0  0  0  0  0  0  0  0  0  0  0  0
    9.1676  -16.9045   26.7758 C   0  0  0  0  0  0  0  0  0  0  0  0
    9.2905  -18.1892   26.2666 O   0  0  0  0  0  0  0  0  0  0  0  0
    8.7943  -16.7762   27.9688 O   0  0  0  0  0  0  0  0  0  0  0  0
  2  1  1  6
  3  2  1  0
  4  8  1  0
  4  3  1  0
  5  4  2  0
  6  5  1  0
  6  7  1  0
  7  8  2  0
  9  2  1  0
 10  9  2  0
 11  9  1  0
 12 11  1  0
 12 13  1  1
 13 14  1  0
 15 19  1  0
 15 14  1  0
 16 15  2  0
 17 22  1  0
 17 12  1  0
 18 17  2  0
 21 20  1  6
 21 22  1  0
 21 23  1  0
 23 24  1  0
 25 23  2  0
M  END
$$$$
