HEA.pdb
     RDKit          3D

 25 25  0  0  1  0  0  0  0  0999 V2000
    7.0732  -16.7574   20.1797 N   0  0  0  0  0  0  0  0  0  0  0  0
    7.6292  -15.6453   20.9197 C   0  0  1  0  0  0  0  0  0  0  0  0
    6.9324  -14.3948   20.4515 C   0  0  0  0  0  0  0  0  0  0  0  0
    7.6711  -13.8932   19.2671 C   0  0  0  0  0  0  0  0  0  0  0  0
    8.5607  -12.8248   19.2073 C   0  0  0  0  0  0  0  0  0  0  0  0
    9.0126  -12.6973   17.9546 N   0  0  0  0  0  0  0  0  0  0  0  0
    8.4455  -13.6462   17.2039 C   0  0  0  0  0  0  0  0  0  0  0  0
    7.6328  -14.3670   18.0098 N   0  0  0  0  0  0  0  0  0  0  0  0
    7.5049  -15.8951   22.3542 C   0  0  0  0  0  0  0  0  0  0  0  0
    6.4070  -16.0388   22.9572 O   0  0  0  0  0  0  0  0  0  0  0  0
    8.6688  -15.9895   23.1578 N   0  0  0  0  0  0  0  0  0  0  0  0
    8.6280  -16.1546   24.6114 C   0  0  1  0  0  0  0  0  0  0  0  0
    9.7318  -17.0102   25.1059 C   0  0  0  0  0  0  0  0  0  0  0  0
    9.6906  -17.1033   26.6086 C   0  0  0  0  0  0  0  0  0  0  0  0
   10.8441  -17.8919   27.1310 C   0  0  0  0  0  0  0  0  0  0  0  0
   11.4759  -18.6279   26.3492 O   0  0  0  0  0  0  0  0  0  0  0  0
    8.5558  -14.7974   25.1778 C   0  0  0  0  0  0  0  0  0  0  0  0
    9.4376  -13.9335   24.9940 O   0  0  0  0  0  0  0  0  0  0  0  0
   11.2119  -17.8140   28.4546 O   0  0  0  0  0  0  0  0  0  0  0  0
    5.9060  -12.7786   26.8641 C   0  0  0  0  0  0  0  0  0  0  0  0
    7.3832  -13.0465   26.5721 C   0  0  2  0  0  0  0  0  0  0  0  0
    7.4492  -14.3687   25.9926 N   0  0  0  0  0  0  0  0  0  0  0  0
    8.0965  -12.9874   27.8684 C   0  0  0  0  0  0  0  0  0  0  0  0
    8.3834  -11.8090   28.5422 O   0  0  0  0  0  0  0  0  0  0  0  0
    8.4645  -14.0696   28.3903 O   0  0  0  0  0  0  0  0  0  0  0  0
  2  1  1  6
  3  2  1  0
  4  8  1  0
  4  3  1  0
  5  4  2  0
  6  5  1  0
  6  7  1  0
  7  8  2  0
  9  2  1  0
 10  9  2  0
 11  9  1  0
 12 11  1  0
 12 13  1  1
 13 14  1  0
 15 19  1  0
 15 14  1  0
 16 15  2  0
 17 22  1  0
 17 12  1  0
 18 17  2  0
 21 20  1  1
 21 22  1  0
 21 23  1  0
 23 24  1  0
 25 23  2  0
M  END
$$$$
