HEA.pdb
     RDKit          3D

 25 25  0  0  1  0  0  0  0  0999 V2000
    9.8778  -15.1062   20.3634 N   0  0  0  0  0  0  0  0  0  0  0  0
    8.7395  -14.6652   21.1401 C   0  0  1  0  0  0  0  0  0  0  0  0
    7.4975  -15.0087   20.3605 C   0  0  0  0  0  0  0  0  0  0  0  0
    7.6124  -14.3552   19.0339 C   0  0  0  0  0  0  0  0  0  0  0  0
    8.1643  -13.1117   18.7414 C   0  0  0  0  0  0  0  0  0  0  0  0
    8.0748  -12.8884   17.4254 N   0  0  0  0  0  0  0  0  0  0  0  0
    7.4844  -13.9445   16.8584 C   0  0  0  0  0  0  0  0  0  0  0  0
    7.2075  -14.8295   17.8431 N   0  0  0  0  0  0  0  0  0  0  0  0
    8.7902  -15.2618   22.4732 C   0  0  0  0  0  0  0  0  0  0  0  0
    7.8612  -15.1829   23.3220 O   0  0  0  0  0  0  0  0  0  0  0  0
    9.9397  -15.9850   22.8798 N   0  0  0  0  0  0  0  0  0  0  0  0
   10.0591  -16.6311   24.1874 C   0  0  1  0  0  0  0  0  0  0  0  0
   11.0660  -17.7179   24.1817 C   0  0  0  0  0  0  0  0  0  0  0  0
   10.5662  -18.8918   23.3812 C   0  0  0  0  0  0  0  0  0  0  0  0
   11.6077  -19.9547   23.2770 C   0  0  0  0  0  0  0  0  0  0  0  0
   12.5447  -19.8051   22.4697 O   0  0  0  0  0  0  0  0  0  0  0  0
   10.2778  -15.5495   25.1624 C   0  0  0  0  0  0  0  0  0  0  0  0
   11.3089  -14.8466   25.1819 O   0  0  0  0  0  0  0  0  0  0  0  0
   11.5427  -21.0866   24.0567 O   0  0  0  0  0  0  0  0  0  0  0  0
    8.2800  -13.4525   27.3881 C   0  0  0  0  0  0  0  0  0  0  0  0
    9.5673  -14.2601   27.2159 C   0  0  2  0  0  0  0  0  0  0  0  0
    9.3048  -15.2247   26.1723 N   0  0  0  0  0  0  0  0  0  0  0  0
    9.8362  -14.9241   28.5119 C   0  0  0  0  0  0  0  0  0  0  0  0
    9.8013  -16.2982   28.7006 O   0  0  0  0  0  0  0  0  0  0  0  0
   10.1128  -14.1999   29.5008 O   0  0  0  0  0  0  0  0  0  0  0  0
  2  1  1  6
  3  2  1  0
  4  8  1  0
  4  3  1  0
  5  4  2  0
  6  5  1  0
  6  7  1  0
  7  8  2  0
  9  2  1  0
 10  9  2  0
 11  9  1  0
 12 11  1  0
 12 13  1  6
 13 14  1  0
 15 19  1  0
 15 14  1  0
 16 15  2  0
 17 22  1  0
 17 12  1  0
 18 17  2  0
 21 20  1  1
 21 22  1  0
 21 23  1  0
 23 24  1  0
 25 23  2  0
M  END
$$$$
