HEA.pdb
     RDKit          3D

 25 25  0  0  1  0  0  0  0  0999 V2000
   11.5991  -17.2348   20.1249 N   0  0  0  0  0  0  0  0  0  0  0  0
   12.0337  -16.3986   21.2227 C   0  0  1  0  0  0  0  0  0  0  0  0
   11.9591  -14.9671   20.7601 C   0  0  0  0  0  0  0  0  0  0  0  0
   13.2246  -14.6654   20.0478 C   0  0  0  0  0  0  0  0  0  0  0  0
   14.4175  -15.3807   20.0897 C   0  0  0  0  0  0  0  0  0  0  0  0
   15.3198  -14.7792   19.3062 N   0  0  0  0  0  0  0  0  0  0  0  0
   14.7507  -13.7006   18.7600 C   0  0  0  0  0  0  0  0  0  0  0  0
   13.4788  -13.6402   19.2164 N   0  0  0  0  0  0  0  0  0  0  0  0
   11.2297  -16.6839   22.4093 C   0  0  0  0  0  0  0  0  0  0  0  0
    9.9818  -16.8631   22.3949 O   0  0  0  0  0  0  0  0  0  0  0  0
   11.8528  -16.7737   23.6794 N   0  0  0  0  0  0  0  0  0  0  0  0
   11.1286  -17.1119   24.9053 C   0  0  1  0  0  0  0  0  0  0  0  0
   11.6543  -18.3425   25.5412 C   0  0  0  0  0  0  0  0  0  0  0  0
   10.9828  -18.5746   26.8693 C   0  0  0  0  0  0  0  0  0  0  0  0
   11.5169  -19.7977   27.5359 C   0  0  0  0  0  0  0  0  0  0  0  0
   12.3795  -20.4778   26.9483 O   0  0  0  0  0  0  0  0  0  0  0  0
   11.1382  -15.8970   25.7373 C   0  0  0  0  0  0  0  0  0  0  0  0
   12.1727  -15.2398   25.9734 O   0  0  0  0  0  0  0  0  0  0  0  0
   11.0694  -20.1765   28.7807 O   0  0  0  0  0  0  0  0  0  0  0  0
    8.5893  -13.6154   27.2025 C   0  0  0  0  0  0  0  0  0  0  0  0
    9.9630  -14.2824   27.2854 C   0  0  2  0  0  0  0  0  0  0  0  0
    9.9400  -15.3777   26.3429 N   0  0  0  0  0  0  0  0  0  0  0  0
   10.1237  -14.7674   28.6753 C   0  0  0  0  0  0  0  0  0  0  0  0
   10.4327  -13.9480   29.7513 O   0  0  0  0  0  0  0  0  0  0  0  0
    9.9710  -15.9954   28.8940 O   0  0  0  0  0  0  0  0  0  0  0  0
  2  1  1  6
  3  2  1  0
  4  8  1  0
  4  3  1  0
  5  4  2  0
  6  5  1  0
  6  7  1  0
  7  8  2  0
  9  2  1  0
 10  9  2  0
 11  9  1  0
 12 11  1  0
 12 13  1  1
 13 14  1  0
 15 19  1  0
 15 14  1  0
 16 15  2  0
 17 22  1  0
 17 12  1  0
 18 17  2  0
 21 20  1  1
 21 22  1  0
 21 23  1  0
 23 24  1  0
 25 23  2  0
M  END
$$$$
