HEA.pdb
     RDKit          3D

 25 25  0  0  1  0  0  0  0  0999 V2000
    8.3719  -17.3021   19.2072 N   0  0  0  0  0  0  0  0  0  0  0  0
    8.4412  -16.1213   20.0405 C   0  0  1  0  0  0  0  0  0  0  0  0
    7.3102  -15.2129   19.6353 C   0  0  0  0  0  0  0  0  0  0  0  0
    7.7506  -14.4673   18.4311 C   0  0  0  0  0  0  0  0  0  0  0  0
    8.9894  -14.5237   17.7996 C   0  0  0  0  0  0  0  0  0  0  0  0
    8.9851  -13.6988   16.7464 N   0  0  0  0  0  0  0  0  0  0  0  0
    7.7866  -13.1120   16.6761 C   0  0  0  0  0  0  0  0  0  0  0  0
    7.0444  -13.5852   17.7032 N   0  0  0  0  0  0  0  0  0  0  0  0
    8.4185  -16.5090   21.4493 C   0  0  0  0  0  0  0  0  0  0  0  0
    7.5324  -17.2390   21.9705 O   0  0  0  0  0  0  0  0  0  0  0  0
    9.4399  -16.0574   22.3223 N   0  0  0  0  0  0  0  0  0  0  0  0
    9.4675  -16.3680   23.7522 C   0  0  1  0  0  0  0  0  0  0  0  0
   10.6866  -17.1172   24.1360 C   0  0  0  0  0  0  0  0  0  0  0  0
   10.5940  -18.5455   23.6670 C   0  0  0  0  0  0  0  0  0  0  0  0
   11.7959  -19.3267   24.0800 C   0  0  0  0  0  0  0  0  0  0  0  0
   11.7328  -20.0368   25.1017 O   0  0  0  0  0  0  0  0  0  0  0  0
    9.2413  -15.0936   24.4545 C   0  0  0  0  0  0  0  0  0  0  0  0
   10.0441  -14.1389   24.4113 O   0  0  0  0  0  0  0  0  0  0  0  0
   12.9607  -19.2701   23.3498 O   0  0  0  0  0  0  0  0  0  0  0  0
    6.4125  -13.5560   26.3642 C   0  0  0  0  0  0  0  0  0  0  0  0
    7.9080  -13.6791   26.0687 C   0  0  2  0  0  0  0  0  0  0  0  0
    8.0641  -14.8589   25.2489 N   0  0  0  0  0  0  0  0  0  0  0  0
    8.5940  -13.8309   27.3722 C   0  0  0  0  0  0  0  0  0  0  0  0
    8.8301  -12.7832   28.2505 O   0  0  0  0  0  0  0  0  0  0  0  0
    8.9863  -14.9778   27.7035 O   0  0  0  0  0  0  0  0  0  0  0  0
  2  1  1  6
  3  2  1  0
  4  8  1  0
  4  3  1  0
  5  4  2  0
  6  5  1  0
  6  7  1  0
  7  8  2  0
  9  2  1  0
 10  9  2  0
 11  9  1  0
 12 11  1  0
 12 13  1  1
 13 14  1  0
 15 19  1  0
 15 14  1  0
 16 15  2  0
 17 22  1  0
 17 12  1  0
 18 17  2  0
 21 20  1  1
 21 22  1  0
 21 23  1  0
 23 24  1  0
 25 23  2  0
M  END
$$$$
