HEA.pdb
     RDKit          3D

 25 25  0  0  1  0  0  0  0  0999 V2000
    8.7719  -16.7868   19.8746 N   0  0  0  0  0  0  0  0  0  0  0  0
    9.7003  -16.0524   20.7066 C   0  0  1  0  0  0  0  0  0  0  0  0
    8.9225  -14.9707   21.4091 C   0  0  0  0  0  0  0  0  0  0  0  0
    8.4141  -14.0439   20.3686 C   0  0  0  0  0  0  0  0  0  0  0  0
    8.8342  -12.7433   20.1070 C   0  0  0  0  0  0  0  0  0  0  0  0
    8.1242  -12.2476   19.0873 N   0  0  0  0  0  0  0  0  0  0  0  0
    7.2604  -13.1829   18.6817 C   0  0  0  0  0  0  0  0  0  0  0  0
    7.4442  -14.2697   19.4658 N   0  0  0  0  0  0  0  0  0  0  0  0
   10.3892  -16.9726   21.6090 C   0  0  0  0  0  0  0  0  0  0  0  0
    9.8110  -17.8528   22.3024 O   0  0  0  0  0  0  0  0  0  0  0  0
   11.7987  -16.9062   21.7440 N   0  0  0  0  0  0  0  0  0  0  0  0
   12.5726  -17.8540   22.5469 C   0  0  1  0  0  0  0  0  0  0  0  0
   14.0083  -17.8516   22.1811 C   0  0  0  0  0  0  0  0  0  0  0  0
   14.7512  -18.9011   22.9655 C   0  0  0  0  0  0  0  0  0  0  0  0
   16.1906  -18.9453   22.5765 C   0  0  0  0  0  0  0  0  0  0  0  0
   16.8478  -19.9777   22.8098 O   0  0  0  0  0  0  0  0  0  0  0  0
   12.2613  -17.5515   23.9540 C   0  0  0  0  0  0  0  0  0  0  0  0
   12.5568  -16.4692   24.5008 O   0  0  0  0  0  0  0  0  0  0  0  0
   16.7919  -17.8671   21.9688 O   0  0  0  0  0  0  0  0  0  0  0  0
    9.8835  -18.6525   26.4626 C   0  0  0  0  0  0  0  0  0  0  0  0
   11.3300  -18.2292   26.2030 C   0  0  2  0  0  0  0  0  0  0  0  0
   11.5863  -18.4953   24.8058 N   0  0  0  0  0  0  0  0  0  0  0  0
   12.1865  -19.0613   27.0786 C   0  0  0  0  0  0  0  0  0  0  0  0
   12.3391  -18.8496   28.4412 O   0  0  0  0  0  0  0  0  0  0  0  0
   12.8134  -20.0170   26.5565 O   0  0  0  0  0  0  0  0  0  0  0  0
  2  1  1  1
  3  2  1  0
  4  8  1  0
  4  3  1  0
  5  4  2  0
  6  5  1  0
  6  7  1  0
  7  8  2  0
  9  2  1  0
 10  9  2  0
 11  9  1  0
 12 11  1  0
 12 13  1  1
 13 14  1  0
 15 19  1  0
 15 14  1  0
 16 15  2  0
 17 22  1  0
 17 12  1  0
 18 17  2  0
 21 20  1  1
 21 22  1  0
 21 23  1  0
 23 24  1  0
 25 23  2  0
M  END
$$$$
