RWQ.pdb
     RDKit          3D

 35 36  0  0  1  0  0  0  0  0999 V2000
   32.4505  -23.8043  -17.7832 N   0  0  0  0  0  0  0  0  0  0  0  0
   32.1866  -24.3930  -16.5134 C   0  0  0  0  0  0  0  0  0  0  0  0
   33.1654  -24.6153  -15.7114 N   0  0  0  0  0  0  0  0  0  0  0  0
   30.8776  -24.7333  -16.1223 N   0  0  0  0  0  0  0  0  0  0  0  0
   29.7628  -24.4609  -16.9935 C   0  0  0  0  0  0  0  0  0  0  0  0
   29.3479  -22.9941  -16.8572 C   0  0  0  0  0  0  0  0  0  0  0  0
   28.0049  -22.9459  -16.2111 C   0  0  0  0  0  0  0  0  0  0  0  0
   27.6810  -21.6410  -15.5280 C   0  0  2  0  0  0  0  0  0  0  0  0
   28.8114  -20.9463  -14.9980 N   0  0  0  0  0  0  0  0  0  0  0  0
   26.6311  -21.9447  -14.5031 C   0  0  0  0  0  0  0  0  0  0  0  0
   25.6261  -22.5926  -14.8564 O   0  0  0  0  0  0  0  0  0  0  0  0
   33.0509  -25.0156  -14.7584 N   0  0  0  0  0  0  0  0  0  0  0  0
   26.8431  -21.4741  -13.1853 C   0  0  1  0  0  0  0  0  0  0  0  0
   25.9110  -21.8784  -12.1736 C   0  0  0  0  0  0  0  0  0  0  0  0
   26.4950  -22.2565  -10.8658 C   0  0  0  0  0  0  0  0  0  0  0  0
   26.4769  -21.2161   -9.8365 C   0  0  0  0  0  0  0  0  0  0  0  0
   25.4759  -20.3134   -9.5819 N   0  0  0  0  0  0  0  0  0  0  0  0
   25.7974  -19.5081   -8.5539 C   0  0  0  0  0  0  0  0  0  0  0  0
   27.0207  -19.8813   -8.1265 C   0  0  0  0  0  0  0  0  0  0  0  0
   27.7799  -19.3545   -7.0981 C   0  0  0  0  0  0  0  0  0  0  0  0
   29.0114  -19.9140   -6.8578 C   0  0  0  0  0  0  0  0  0  0  0  0
   29.4606  -20.9666   -7.6275 C   0  0  0  0  0  0  0  0  0  0  0  0
   28.6909  -21.4781   -8.6486 C   0  0  0  0  0  0  0  0  0  0  0  0
   27.4653  -20.9443   -8.9105 C   0  0  0  0  0  0  0  0  0  0  0  0
   25.0154  -20.6782  -11.9167 O   0  0  0  0  0  0  0  0  0  0  0  0
   25.5053  -19.5210  -11.8461 N   0  0  0  0  0  0  0  0  0  0  0  0
   24.4716  -18.8194  -15.9953 C   0  0  0  0  0  0  0  0  0  0  0  0
   23.0596  -18.9065  -16.1386 O   0  0  0  0  0  0  0  0  0  0  0  0
   22.5040  -18.2731  -17.0575 C   0  0  0  0  0  0  0  0  0  0  0  0
   22.3084  -19.7602  -15.1697 C   0  0  0  0  0  0  0  0  0  0  0  0
   23.2256  -20.3154  -14.1140 C   0  0  1  0  0  0  0  0  0  0  0  0
   22.7062  -20.2121  -12.7187 N   0  0  0  0  0  0  0  0  0  0  0  0
   23.6226  -20.7921  -11.7496 C   0  0  0  0  0  0  0  0  0  0  0  0
   21.3512  -20.7892  -12.5335 O   0  0  0  0  0  0  0  0  0  0  0  0
   21.0568  -22.0007  -12.6164 O   0  0  0  0  0  0  0  0  0  0  0  0
  2  1  1  0
  3  2  2  0
  4  2  1  0
  5  4  1  0
  6  5  1  0
  7  6  1  0
  8 10  1  0
  8  7  1  0
  8  9  1  1
 10 11  2  0
 10 12  1  0
 12 13  1  0
 13 24  1  0
 13 14  1  1
 15 16  2  0
 15 14  1  0
 17 16  1  0
 18 23  2  0
 18 17  1  0
 19 18  1  0
 20 21  1  0
 20 19  2  0
 21 22  2  0
 22 23  1  0
 23 15  1  0
 24 25  2  0
 24 32  1  0
 27 29  1  0
 27 26  1  0
 28 27  2  0
 31 30  1  1
 30 29  1  0
 31 33  1  0
 32 31  1  0
 33 34  2  0
 33 35  1  0
M  END
$$$$
