RWQ.pdb
     RDKit          3D

 35 36  0  0  1  0  0  0  0  0999 V2000
   30.7057  -21.3198  -20.0198 N   0  0  0  0  0  0  0  0  0  0  0  0
   30.2040  -22.4733  -19.3518 C   0  0  0  0  0  0  0  0  0  0  0  0
   30.6503  -23.6316  -19.6831 N   0  0  0  0  0  0  0  0  0  0  0  0
   29.2325  -22.3675  -18.3383 N   0  0  0  0  0  0  0  0  0  0  0  0
   29.1857  -21.2017  -17.4928 C   0  0  0  0  0  0  0  0  0  0  0  0
   27.9851  -20.3337  -17.8766 C   0  0  0  0  0  0  0  0  0  0  0  0
   27.2498  -19.9746  -16.6300 C   0  0  0  0  0  0  0  0  0  0  0  0
   27.2873  -21.0275  -15.5510 C   0  0  2  0  0  0  0  0  0  0  0  0
   26.7957  -22.3089  -15.9481 N   0  0  0  0  0  0  0  0  0  0  0  0
   26.5702  -20.4521  -14.3680 C   0  0  0  0  0  0  0  0  0  0  0  0
   26.8732  -19.3029  -13.9911 O   0  0  0  0  0  0  0  0  0  0  0  0
   30.3306  -24.5196  -19.2461 N   0  0  0  0  0  0  0  0  0  0  0  0
   25.5849  -21.2530  -13.7430 C   0  0  1  0  0  0  0  0  0  0  0  0
   24.8412  -20.6750  -12.6619 C   0  0  0  0  0  0  0  0  0  0  0  0
   23.4024  -21.0225  -12.6041 C   0  0  0  0  0  0  0  0  0  0  0  0
   22.5111  -20.1756  -13.3981 C   0  0  0  0  0  0  0  0  0  0  0  0
   22.4502  -20.0819  -14.7652 N   0  0  0  0  0  0  0  0  0  0  0  0
   21.5040  -19.2075  -15.1509 C   0  0  0  0  0  0  0  0  0  0  0  0
   20.9359  -18.7192  -14.0296 C   0  0  0  0  0  0  0  0  0  0  0  0
   19.9198  -17.7900  -13.9041 C   0  0  0  0  0  0  0  0  0  0  0  0
   19.5137  -17.4504  -12.6365 C   0  0  0  0  0  0  0  0  0  0  0  0
   20.1114  -18.0271  -11.5354 C   0  0  0  0  0  0  0  0  0  0  0  0
   21.1229  -18.9506  -11.6795 C   0  0  0  0  0  0  0  0  0  0  0  0
   21.5469  -19.3075  -12.9239 C   0  0  0  0  0  0  0  0  0  0  0  0
   25.4665  -21.2070  -11.3835 O   0  0  0  0  0  0  0  0  0  0  0  0
   25.4098  -22.4340  -11.1090 N   0  0  0  0  0  0  0  0  0  0  0  0
   28.7594  -18.1371   -6.9405 C   0  0  0  0  0  0  0  0  0  0  0  0
   28.3523  -19.2894   -6.2138 O   0  0  0  0  0  0  0  0  0  0  0  0
   28.7908  -19.4638   -5.0598 C   0  0  0  0  0  0  0  0  0  0  0  0
   27.4120  -20.2411   -6.8786 C   0  0  0  0  0  0  0  0  0  0  0  0
   27.1813  -19.8583   -8.3154 C   0  0  2  0  0  0  0  0  0  0  0  0
   26.2940  -20.7877   -9.0743 N   0  0  0  0  0  0  0  0  0  0  0  0
   26.1290  -20.3772  -10.4598 C   0  0  0  0  0  0  0  0  0  0  0  0
   24.9624  -20.9957   -8.4522 O   0  0  0  0  0  0  0  0  0  0  0  0
   23.9357  -20.3227   -8.6846 O   0  0  0  0  0  0  0  0  0  0  0  0
  2  1  1  0
  3  2  2  0
  4  2  1  0
  5  4  1  0
  6  5  1  0
  7  6  1  0
  8 10  1  0
  8  7  1  0
  8  9  1  6
 10 11  2  0
 10 12  1  0
 12 13  1  0
 13 24  1  0
 13 14  1  6
 15 16  2  0
 15 14  1  0
 17 16  1  0
 18 23  2  0
 18 17  1  0
 19 18  1  0
 20 21  1  0
 20 19  2  0
 21 22  2  0
 22 23  1  0
 23 15  1  0
 24 25  2  0
 24 32  1  0
 27 29  1  0
 27 26  1  0
 28 27  2  0
 31 30  1  6
 30 29  1  0
 31 33  1  0
 32 31  1  0
 33 34  2  0
 33 35  1  0
M  END
$$$$
