RWQ.pdb
     RDKit          3D

 35 36  0  0  1  0  0  0  0  0999 V2000
   27.0308  -24.5252  -16.4684 N   0  0  0  0  0  0  0  0  0  0  0  0
   25.9683  -24.2185  -17.3659 C   0  0  0  0  0  0  0  0  0  0  0  0
   25.6621  -25.0628  -18.2846 N   0  0  0  0  0  0  0  0  0  0  0  0
   25.2494  -23.0122  -17.2641 N   0  0  0  0  0  0  0  0  0  0  0  0
   25.3324  -22.2133  -16.0678 C   0  0  0  0  0  0  0  0  0  0  0  0
   26.6315  -21.4044  -16.0767 C   0  0  0  0  0  0  0  0  0  0  0  0
   26.7038  -20.6214  -14.8097 C   0  0  0  0  0  0  0  0  0  0  0  0
   27.6341  -21.1918  -13.7689 C   0  0  2  0  0  0  0  0  0  0  0  0
   28.4656  -22.2584  -14.2297 N   0  0  0  0  0  0  0  0  0  0  0  0
   26.7831  -21.5622  -12.5926 C   0  0  0  0  0  0  0  0  0  0  0  0
   26.3729  -22.7362  -12.5027 O   0  0  0  0  0  0  0  0  0  0  0  0
   24.9604  -24.8760  -19.0292 N   0  0  0  0  0  0  0  0  0  0  0  0
   26.4922  -20.5504  -11.6469 C   0  0  1  0  0  0  0  0  0  0  0  0
   25.7254  -20.9161  -10.4918 C   0  0  0  0  0  0  0  0  0  0  0  0
   26.0132  -20.1557   -9.2536 C   0  0  0  0  0  0  0  0  0  0  0  0
   27.2771  -20.4771   -8.5891 C   0  0  0  0  0  0  0  0  0  0  0  0
   28.3602  -21.1242   -9.1273 N   0  0  0  0  0  0  0  0  0  0  0  0
   29.3535  -21.2400   -8.2281 C   0  0  0  0  0  0  0  0  0  0  0  0
   28.9229  -20.6654   -7.0867 C   0  0  0  0  0  0  0  0  0  0  0  0
   29.5804  -20.5358   -5.8773 C   0  0  0  0  0  0  0  0  0  0  0  0
   28.9190  -19.9052   -4.8517 C   0  0  0  0  0  0  0  0  0  0  0  0
   27.6405  -19.4231   -5.0392 C   0  0  0  0  0  0  0  0  0  0  0  0
   27.0006  -19.5618   -6.2508 C   0  0  0  0  0  0  0  0  0  0  0  0
   27.6310  -20.1824   -7.2867 C   0  0  0  0  0  0  0  0  0  0  0  0
   24.2727  -20.6404  -10.8411 O   0  0  0  0  0  0  0  0  0  0  0  0
   23.9648  -19.6440  -11.5458 N   0  0  0  0  0  0  0  0  0  0  0  0
   20.1200  -23.6341   -7.3150 C   0  0  0  0  0  0  0  0  0  0  0  0
   19.5124  -22.7949   -8.2887 O   0  0  0  0  0  0  0  0  0  0  0  0
   18.3129  -22.9733   -8.5782 C   0  0  0  0  0  0  0  0  0  0  0  0
   20.3522  -21.7336   -8.9212 C   0  0  0  0  0  0  0  0  0  0  0  0
   20.8884  -22.1892  -10.2512 C   0  0  1  0  0  0  0  0  0  0  0  0
   21.8611  -21.2523  -10.8863 N   0  0  0  0  0  0  0  0  0  0  0  0
   23.2179  -21.4652  -10.4078 C   0  0  0  0  0  0  0  0  0  0  0  0
   21.5002  -19.8193  -10.7461 O   0  0  0  0  0  0  0  0  0  0  0  0
   20.7286  -19.1846  -11.4963 O   0  0  0  0  0  0  0  0  0  0  0  0
  2  1  1  0
  3  2  2  0
  4  2  1  0
  5  4  1  0
  6  5  1  0
  7  6  1  0
  8 10  1  0
  8  7  1  0
  8  9  1  6
 10 11  2  0
 10 12  1  0
 12 13  1  0
 13 24  1  0
 13 14  1  1
 15 16  2  0
 15 14  1  0
 17 16  1  0
 18 23  2  0
 18 17  1  0
 19 18  1  0
 20 21  1  0
 20 19  2  0
 21 22  2  0
 22 23  1  0
 23 15  1  0
 24 25  2  0
 24 32  1  0
 27 29  1  0
 27 26  1  0
 28 27  2  0
 31 30  1  6
 30 29  1  0
 31 33  1  0
 32 31  1  0
 33 34  2  0
 33 35  1  0
M  END
$$$$
