RWQ.pdb
     RDKit          3D

 35 36  0  0  1  0  0  0  0  0999 V2000
   22.0657  -25.6804  -13.0034 N   0  0  0  0  0  0  0  0  0  0  0  0
   20.8719  -25.4091  -12.2756 C   0  0  0  0  0  0  0  0  0  0  0  0
   20.1697  -26.3915  -11.8369 N   0  0  0  0  0  0  0  0  0  0  0  0
   20.4497  -24.0889  -12.0280 N   0  0  0  0  0  0  0  0  0  0  0  0
   19.9936  -23.2548  -13.1107 C   0  0  0  0  0  0  0  0  0  0  0  0
   19.6510  -21.8611  -12.5793 C   0  0  0  0  0  0  0  0  0  0  0  0
   20.5176  -20.8682  -13.2769 C   0  0  0  0  0  0  0  0  0  0  0  0
   21.9701  -21.2610  -13.3782 C   0  0  2  0  0  0  0  0  0  0  0  0
   22.5898  -21.5876  -12.1329 N   0  0  0  0  0  0  0  0  0  0  0  0
   22.6605  -20.1563  -14.1183 C   0  0  0  0  0  0  0  0  0  0  0  0
   22.0314  -19.5565  -15.0122 O   0  0  0  0  0  0  0  0  0  0  0  0
   19.3746  -26.2824  -11.1754 N   0  0  0  0  0  0  0  0  0  0  0  0
   23.9959  -19.8574  -13.7573 C   0  0  2  0  0  0  0  0  0  0  0  0
   24.6744  -18.8332  -14.4967 C   0  0  0  0  0  0  0  0  0  0  0  0
   26.0839  -18.5826  -14.1161 C   0  0  0  0  0  0  0  0  0  0  0  0
   26.7608  -17.5134  -14.8515 C   0  0  0  0  0  0  0  0  0  0  0  0
   26.6208  -16.1608  -14.6719 N   0  0  0  0  0  0  0  0  0  0  0  0
   27.4056  -15.4737  -15.5208 C   0  0  0  0  0  0  0  0  0  0  0  0
   28.0688  -16.3798  -16.2676 C   0  0  0  0  0  0  0  0  0  0  0  0
   28.9877  -16.1671  -17.2786 C   0  0  0  0  0  0  0  0  0  0  0  0
   29.5275  -17.2684  -17.8973 C   0  0  0  0  0  0  0  0  0  0  0  0
   29.1535  -18.5383  -17.5103 C   0  0  0  0  0  0  0  0  0  0  0  0
   28.2360  -18.7311  -16.5015 C   0  0  0  0  0  0  0  0  0  0  0  0
   27.6837  -17.6585  -15.8692 C   0  0  0  0  0  0  0  0  0  0  0  0
   24.6927  -19.2950  -15.9441 O   0  0  0  0  0  0  0  0  0  0  0  0
   24.8623  -20.5105  -16.2230 N   0  0  0  0  0  0  0  0  0  0  0  0
   22.1270  -22.5915  -18.0473 C   0  0  0  0  0  0  0  0  0  0  0  0
   22.2319  -22.0744  -19.3677 O   0  0  0  0  0  0  0  0  0  0  0  0
   21.7649  -22.7356  -20.3158 C   0  0  0  0  0  0  0  0  0  0  0  0
   22.9044  -20.7531  -19.5513 C   0  0  0  0  0  0  0  0  0  0  0  0
   23.3949  -20.2087  -18.2371 C   0  0  1  0  0  0  0  0  0  0  0  0
   24.1060  -18.8999  -18.3299 N   0  0  0  0  0  0  0  0  0  0  0  0
   24.5232  -18.4104  -17.0255 C   0  0  0  0  0  0  0  0  0  0  0  0
   23.3400  -17.8443  -19.0387 O   0  0  0  0  0  0  0  0  0  0  0  0
   22.7286  -16.8986  -18.4973 O   0  0  0  0  0  0  0  0  0  0  0  0
  2  1  1  0
  3  2  2  0
  4  2  1  0
  5  4  1  0
  6  5  1  0
  7  6  1  0
  8 10  1  0
  8  7  1  0
  8  9  1  1
 10 11  2  0
 10 12  1  0
 12 13  1  0
 13 24  1  0
 13 14  1  1
 15 16  2  0
 15 14  1  0
 17 16  1  0
 18 23  2  0
 18 17  1  0
 19 18  1  0
 20 21  1  0
 20 19  2  0
 21 22  2  0
 22 23  1  0
 23 15  1  0
 24 25  2  0
 24 32  1  0
 27 29  1  0
 27 26  1  0
 28 27  2  0
 31 30  1  6
 30 29  1  0
 31 33  1  0
 32 31  1  0
 33 34  2  0
 33 35  1  0
M  END
$$$$
