RWQ.pdb
     RDKit          3D

 35 36  0  0  1  0  0  0  0  0999 V2000
   26.9453  -23.5162  -17.5158 N   0  0  0  0  0  0  0  0  0  0  0  0
   28.1174  -23.0044  -16.8892 C   0  0  0  0  0  0  0  0  0  0  0  0
   29.2666  -23.2750  -17.3960 N   0  0  0  0  0  0  0  0  0  0  0  0
   28.0398  -22.2094  -15.7298 N   0  0  0  0  0  0  0  0  0  0  0  0
   26.7586  -21.8237  -15.1953 C   0  0  0  0  0  0  0  0  0  0  0  0
   26.9588  -20.9261  -13.9720 C   0  0  0  0  0  0  0  0  0  0  0  0
   25.6183  -20.6018  -13.4051 C   0  0  0  0  0  0  0  0  0  0  0  0
   24.9188  -21.7603  -12.7396 C   0  0  2  0  0  0  0  0  0  0  0  0
   25.0428  -23.0078  -13.4249 N   0  0  0  0  0  0  0  0  0  0  0  0
   23.4984  -21.3347  -12.5244 C   0  0  0  0  0  0  0  0  0  0  0  0
   23.2826  -20.2917  -11.8762 O   0  0  0  0  0  0  0  0  0  0  0  0
   30.1676  -22.9563  -16.9857 N   0  0  0  0  0  0  0  0  0  0  0  0
   22.4781  -22.1480  -13.0727 C   0  0  1  0  0  0  0  0  0  0  0  0
   21.1207  -21.7136  -12.9153 C   0  0  0  0  0  0  0  0  0  0  0  0
   20.3743  -21.4481  -14.1669 C   0  0  0  0  0  0  0  0  0  0  0  0
   20.7694  -20.2444  -14.8999 C   0  0  0  0  0  0  0  0  0  0  0  0
   21.7288  -19.3304  -14.5452 N   0  0  0  0  0  0  0  0  0  0  0  0
   21.8307  -18.3519  -15.4623 C   0  0  0  0  0  0  0  0  0  0  0  0
   20.9311  -18.6214  -16.4300 C   0  0  0  0  0  0  0  0  0  0  0  0
   20.6544  -17.9088  -17.5821 C   0  0  0  0  0  0  0  0  0  0  0  0
   19.6784  -18.3941  -18.4181 C   0  0  0  0  0  0  0  0  0  0  0  0
   19.0057  -19.5562  -18.1030 C   0  0  0  0  0  0  0  0  0  0  0  0
   19.2941  -20.2527  -16.9505 C   0  0  0  0  0  0  0  0  0  0  0  0
   20.2571  -19.7963  -16.1020 C   0  0  0  0  0  0  0  0  0  0  0  0
   20.3919  -22.8439  -12.2084 O   0  0  0  0  0  0  0  0  0  0  0  0
   20.7346  -24.0401  -12.3981 N   0  0  0  0  0  0  0  0  0  0  0  0
   19.2323  -24.7572   -6.0415 C   0  0  0  0  0  0  0  0  0  0  0  0
   18.1715  -24.2179   -6.8197 O   0  0  0  0  0  0  0  0  0  0  0  0
   17.3255  -23.4878   -6.2670 C   0  0  0  0  0  0  0  0  0  0  0  0
   18.1253  -24.5592   -8.2734 C   0  0  0  0  0  0  0  0  0  0  0  0
   18.6896  -23.4425   -9.1092 C   0  0  2  0  0  0  0  0  0  0  0  0
   18.7310  -23.7194  -10.5751 N   0  0  0  0  0  0  0  0  0  0  0  0
   19.3210  -22.6203  -11.3230 C   0  0  0  0  0  0  0  0  0  0  0  0
   17.4138  -24.0729  -11.1612 O   0  0  0  0  0  0  0  0  0  0  0  0
   16.6323  -23.2810  -11.7299 O   0  0  0  0  0  0  0  0  0  0  0  0
  2  1  1  0
  3  2  2  0
  4  2  1  0
  5  4  1  0
  6  5  1  0
  7  6  1  0
  8 10  1  0
  8  7  1  0
  8  9  1  6
 10 11  2  0
 10 12  1  0
 12 13  1  0
 13 24  1  0
 13 14  1  1
 15 16  2  0
 15 14  1  0
 17 16  1  0
 18 23  2  0
 18 17  1  0
 19 18  1  0
 20 21  1  0
 20 19  2  0
 21 22  2  0
 22 23  1  0
 23 15  1  0
 24 25  2  0
 24 32  1  0
 27 29  1  0
 27 26  1  0
 28 27  2  0
 31 30  1  1
 30 29  1  0
 31 33  1  0
 32 31  1  0
 33 34  2  0
 33 35  1  0
M  END
$$$$
