RWQ.pdb
     RDKit          3D

 35 36  0  0  1  0  0  0  0  0999 V2000
   29.7065  -25.8756  -18.7690 N   0  0  0  0  0  0  0  0  0  0  0  0
   29.4622  -26.1879  -17.4011 C   0  0  0  0  0  0  0  0  0  0  0  0
   29.9628  -27.2625  -16.9057 N   0  0  0  0  0  0  0  0  0  0  0  0
   28.6861  -25.3431  -16.5848 N   0  0  0  0  0  0  0  0  0  0  0  0
   28.2260  -24.0713  -17.0817 C   0  0  0  0  0  0  0  0  0  0  0  0
   28.9952  -22.9403  -16.3952 C   0  0  0  0  0  0  0  0  0  0  0  0
   28.3985  -22.7201  -15.0465 C   0  0  0  0  0  0  0  0  0  0  0  0
   27.3173  -21.6699  -14.9998 C   0  0  2  0  0  0  0  0  0  0  0  0
   27.7871  -20.3232  -15.0846 N   0  0  0  0  0  0  0  0  0  0  0  0
   26.5081  -21.9446  -13.7691 C   0  0  0  0  0  0  0  0  0  0  0  0
   26.0970  -23.1057  -13.5757 O   0  0  0  0  0  0  0  0  0  0  0  0
   30.5430  -27.9327  -17.4496 N   0  0  0  0  0  0  0  0  0  0  0  0
   26.2555  -20.8622  -12.8931 C   0  0  1  0  0  0  0  0  0  0  0  0
   25.4569  -21.1167  -11.7297 C   0  0  0  0  0  0  0  0  0  0  0  0
   25.8130  -20.3458  -10.5159 C   0  0  0  0  0  0  0  0  0  0  0  0
   27.0482  -20.7520   -9.8441 C   0  0  0  0  0  0  0  0  0  0  0  0
   28.0483  -21.5446  -10.3472 N   0  0  0  0  0  0  0  0  0  0  0  0
   29.0401  -21.7024   -9.4527 C   0  0  0  0  0  0  0  0  0  0  0  0
   28.6920  -21.0091   -8.3497 C   0  0  0  0  0  0  0  0  0  0  0  0
   29.3809  -20.8670   -7.1594 C   0  0  0  0  0  0  0  0  0  0  0  0
   28.8072  -20.1018   -6.1733 C   0  0  0  0  0  0  0  0  0  0  0  0
   27.5826  -19.5020   -6.3805 C   0  0  0  0  0  0  0  0  0  0  0  0
   26.9103  -19.6552   -7.5726 C   0  0  0  0  0  0  0  0  0  0  0  0
   27.4541  -20.4079   -8.5693 C   0  0  0  0  0  0  0  0  0  0  0  0
   24.0365  -20.7189  -12.0937 O   0  0  0  0  0  0  0  0  0  0  0  0
   23.7917  -19.5680  -12.5404 N   0  0  0  0  0  0  0  0  0  0  0  0
   17.1142  -23.1341  -12.0927 C   0  0  0  0  0  0  0  0  0  0  0  0
   18.3497  -23.1238  -12.7965 O   0  0  0  0  0  0  0  0  0  0  0  0
   18.6610  -24.1134  -13.4878 C   0  0  0  0  0  0  0  0  0  0  0  0
   19.2192  -21.9159  -12.6679 C   0  0  0  0  0  0  0  0  0  0  0  0
   20.6537  -22.3047  -12.4334 C   0  0  1  0  0  0  0  0  0  0  0  0
   21.5931  -21.1565  -12.2706 N   0  0  0  0  0  0  0  0  0  0  0  0
   22.9437  -21.5951  -11.9563 C   0  0  0  0  0  0  0  0  0  0  0  0
   21.1499  -20.1490  -11.2747 O   0  0  0  0  0  0  0  0  0  0  0  0
   21.5085  -20.0986  -10.0788 O   0  0  0  0  0  0  0  0  0  0  0  0
  2  1  1  0
  3  2  2  0
  4  2  1  0
  5  4  1  0
  6  5  1  0
  7  6  1  0
  8 10  1  0
  8  7  1  0
  8  9  1  1
 10 11  2  0
 10 12  1  0
 12 13  1  0
 13 24  1  0
 13 14  1  1
 15 16  2  0
 15 14  1  0
 17 16  1  0
 18 23  2  0
 18 17  1  0
 19 18  1  0
 20 21  1  0
 20 19  2  0
 21 22  2  0
 22 23  1  0
 23 15  1  0
 24 25  2  0
 24 32  1  0
 27 29  1  0
 27 26  1  0
 28 27  2  0
 31 30  1  6
 30 29  1  0
 31 33  1  0
 32 31  1  0
 33 34  2  0
 33 35  1  0
M  END
$$$$
