RWQ.pdb
     RDKit          3D

 35 36  0  0  1  0  0  0  0  0999 V2000
   24.6536  -23.3722  -18.3365 N   0  0  0  0  0  0  0  0  0  0  0  0
   25.9219  -24.0042  -18.4794 C   0  0  0  0  0  0  0  0  0  0  0  0
   25.9775  -25.2857  -18.5527 N   0  0  0  0  0  0  0  0  0  0  0  0
   27.1110  -23.2530  -18.5429 N   0  0  0  0  0  0  0  0  0  0  0  0
   27.6840  -22.6934  -17.3451 C   0  0  0  0  0  0  0  0  0  0  0  0
   26.7710  -21.5916  -16.8023 C   0  0  0  0  0  0  0  0  0  0  0  0
   27.5424  -20.7926  -15.8073 C   0  0  0  0  0  0  0  0  0  0  0  0
   28.2286  -21.6081  -14.7404 C   0  0  2  0  0  0  0  0  0  0  0  0
   28.7947  -22.8374  -15.1984 N   0  0  0  0  0  0  0  0  0  0  0  0
   27.2356  -21.7831  -13.6321 C   0  0  0  0  0  0  0  0  0  0  0  0
   26.5018  -22.7910  -13.6458 O   0  0  0  0  0  0  0  0  0  0  0  0
   26.8615  -25.8184  -18.6808 N   0  0  0  0  0  0  0  0  0  0  0  0
   27.1882  -20.7864  -12.6285 C   0  0  1  0  0  0  0  0  0  0  0  0
   26.2057  -20.9269  -11.5935 C   0  0  0  0  0  0  0  0  0  0  0  0
   26.4820  -20.2004  -10.3325 C   0  0  0  0  0  0  0  0  0  0  0  0
   27.6942  -20.6040   -9.6184 C   0  0  0  0  0  0  0  0  0  0  0  0
   28.7372  -21.3510  -10.1038 N   0  0  0  0  0  0  0  0  0  0  0  0
   29.6893  -21.5215   -9.1693 C   0  0  0  0  0  0  0  0  0  0  0  0
   29.2715  -20.8825   -8.0577 C   0  0  0  0  0  0  0  0  0  0  0  0
   29.8994  -20.7727   -6.8308 C   0  0  0  0  0  0  0  0  0  0  0  0
   29.2600  -20.0625   -5.8440 C   0  0  0  0  0  0  0  0  0  0  0  0
   28.0315  -19.4843   -6.0861 C   0  0  0  0  0  0  0  0  0  0  0  0
   27.4205  -19.6047   -7.3145 C   0  0  0  0  0  0  0  0  0  0  0  0
   28.0302  -20.3027   -8.3128 C   0  0  0  0  0  0  0  0  0  0  0  0
   24.9153  -20.3504  -12.1512 O   0  0  0  0  0  0  0  0  0  0  0  0
   24.9209  -19.7021  -13.2299 N   0  0  0  0  0  0  0  0  0  0  0  0
   22.7336  -23.9871  -14.8683 C   0  0  0  0  0  0  0  0  0  0  0  0
   21.4734  -23.3287  -14.8789 O   0  0  0  0  0  0  0  0  0  0  0  0
   20.5612  -23.7784  -15.5999 C   0  0  0  0  0  0  0  0  0  0  0  0
   21.3075  -22.1193  -14.0176 C   0  0  0  0  0  0  0  0  0  0  0  0
   22.5472  -21.8598  -13.2053 C   0  0  1  0  0  0  0  0  0  0  0  0
   22.4539  -20.6933  -12.2792 N   0  0  0  0  0  0  0  0  0  0  0  0
   23.6732  -20.5079  -11.5084 C   0  0  0  0  0  0  0  0  0  0  0  0
   21.2859  -20.7393  -11.3642 O   0  0  0  0  0  0  0  0  0  0  0  0
   20.1782  -20.1982  -11.5676 O   0  0  0  0  0  0  0  0  0  0  0  0
  2  1  1  0
  3  2  2  0
  4  2  1  0
  5  4  1  0
  6  5  1  0
  7  6  1  0
  8 10  1  0
  8  7  1  0
  8  9  1  6
 10 11  2  0
 10 12  1  0
 12 13  1  0
 13 24  1  0
 13 14  1  1
 15 16  2  0
 15 14  1  0
 17 16  1  0
 18 23  2  0
 18 17  1  0
 19 18  1  0
 20 21  1  0
 20 19  2  0
 21 22  2  0
 22 23  1  0
 23 15  1  0
 24 25  2  0
 24 32  1  0
 27 29  1  0
 27 26  1  0
 28 27  2  0
 31 30  1  6
 30 29  1  0
 31 33  1  0
 32 31  1  0
 33 34  2  0
 33 35  1  0
M  END
$$$$
