RWQ.pdb
     RDKit          3D

 35 36  0  0  1  0  0  0  0  0999 V2000
   29.1941  -17.1134  -18.2987 N   0  0  0  0  0  0  0  0  0  0  0  0
   27.7794  -17.2356  -18.1894 C   0  0  0  0  0  0  0  0  0  0  0  0
   27.0624  -17.1781  -19.2539 N   0  0  0  0  0  0  0  0  0  0  0  0
   27.1549  -17.4187  -16.9408 N   0  0  0  0  0  0  0  0  0  0  0  0
   27.9400  -17.7195  -15.7707 C   0  0  0  0  0  0  0  0  0  0  0  0
   28.8393  -18.9262  -16.0489 C   0  0  0  0  0  0  0  0  0  0  0  0
   28.5979  -19.9445  -14.9866 C   0  0  0  0  0  0  0  0  0  0  0  0
   27.4287  -20.8608  -15.2465 C   0  0  2  0  0  0  0  0  0  0  0  0
   26.4188  -20.3157  -16.0975 N   0  0  0  0  0  0  0  0  0  0  0  0
   26.9144  -21.2875  -13.9054 C   0  0  0  0  0  0  0  0  0  0  0  0
   27.6833  -21.9074  -13.1443 O   0  0  0  0  0  0  0  0  0  0  0  0
   26.0223  -17.1745  -19.2495 N   0  0  0  0  0  0  0  0  0  0  0  0
   25.5766  -20.9603  -13.5797 C   0  0  2  0  0  0  0  0  0  0  0  0
   25.1615  -21.1247  -12.2171 C   0  0  0  0  0  0  0  0  0  0  0  0
   25.7021  -20.1415  -11.2501 C   0  0  0  0  0  0  0  0  0  0  0  0
   26.8982  -20.5608  -10.5182 C   0  0  0  0  0  0  0  0  0  0  0  0
   27.9737  -21.2568  -11.0087 N   0  0  0  0  0  0  0  0  0  0  0  0
   28.8972  -21.4616  -10.0528 C   0  0  0  0  0  0  0  0  0  0  0  0
   28.4277  -20.8970   -8.9217 C   0  0  0  0  0  0  0  0  0  0  0  0
   29.0111  -20.8458   -7.6692 C   0  0  0  0  0  0  0  0  0  0  0  0
   28.3228  -20.2075   -6.6663 C   0  0  0  0  0  0  0  0  0  0  0  0
   27.0904  -19.6416   -6.9179 C   0  0  0  0  0  0  0  0  0  0  0  0
   26.5242  -19.7029   -8.1718 C   0  0  0  0  0  0  0  0  0  0  0  0
   27.1830  -20.3290   -9.1865 C   0  0  0  0  0  0  0  0  0  0  0  0
   23.6517  -20.9542  -12.2092 O   0  0  0  0  0  0  0  0  0  0  0  0
   23.0970  -20.1506  -13.0033 N   0  0  0  0  0  0  0  0  0  0  0  0
   19.3918  -24.1689   -8.8155 C   0  0  0  0  0  0  0  0  0  0  0  0
   18.5323  -23.3988   -9.6460 O   0  0  0  0  0  0  0  0  0  0  0  0
   17.2983  -23.5334   -9.5304 C   0  0  0  0  0  0  0  0  0  0  0  0
   19.1596  -22.4601  -10.6244 C   0  0  0  0  0  0  0  0  0  0  0  0
   20.6590  -22.4700  -10.4982 C   0  0  2  0  0  0  0  0  0  0  0  0
   21.3671  -21.5079  -11.3926 N   0  0  0  0  0  0  0  0  0  0  0  0
   22.8114  -21.6696  -11.3358 C   0  0  0  0  0  0  0  0  0  0  0  0
   21.0133  -20.0863  -11.1527 O   0  0  0  0  0  0  0  0  0  0  0  0
   21.5289  -19.3415  -10.2921 O   0  0  0  0  0  0  0  0  0  0  0  0
  2  1  1  0
  3  2  2  0
  4  2  1  0
  5  4  1  0
  6  5  1  0
  7  6  1  0
  8 10  1  0
  8  7  1  0
  8  9  1  1
 10 11  2  0
 10 12  1  0
 12 13  1  0
 13 24  1  0
 13 14  1  6
 15 16  2  0
 15 14  1  0
 17 16  1  0
 18 23  2  0
 18 17  1  0
 19 18  1  0
 20 21  1  0
 20 19  2  0
 21 22  2  0
 22 23  1  0
 23 15  1  0
 24 25  2  0
 24 32  1  0
 27 29  1  0
 27 26  1  0
 28 27  2  0
 31 30  1  6
 30 29  1  0
 31 33  1  0
 32 31  1  0
 33 34  2  0
 33 35  1  0
M  END
$$$$
