RWQ.pdb
     RDKit          3D

 35 36  0  0  1  0  0  0  0  0999 V2000
   29.6309  -26.4888  -15.6654 N   0  0  0  0  0  0  0  0  0  0  0  0
   30.2275  -25.8992  -16.8165 C   0  0  0  0  0  0  0  0  0  0  0  0
   30.4516  -26.6304  -17.8489 N   0  0  0  0  0  0  0  0  0  0  0  0
   30.5737  -24.5347  -16.8437 N   0  0  0  0  0  0  0  0  0  0  0  0
   29.6997  -23.5496  -16.2593 C   0  0  0  0  0  0  0  0  0  0  0  0
   28.4637  -23.3671  -17.1431 C   0  0  0  0  0  0  0  0  0  0  0  0
   27.2818  -23.1597  -16.2578 C   0  0  0  0  0  0  0  0  0  0  0  0
   27.1668  -21.7736  -15.6750 C   0  0  2  0  0  0  0  0  0  0  0  0
   28.3686  -21.0025  -15.7235 N   0  0  0  0  0  0  0  0  0  0  0  0
   26.6163  -21.9367  -14.2911 C   0  0  0  0  0  0  0  0  0  0  0  0
   25.6471  -22.7031  -14.1240 O   0  0  0  0  0  0  0  0  0  0  0  0
   30.9868  -26.3068  -18.6799 N   0  0  0  0  0  0  0  0  0  0  0  0
   27.2325  -21.2053  -13.2479 C   0  0  1  0  0  0  0  0  0  0  0  0
   26.6691  -21.3123  -11.9338 C   0  0  0  0  0  0  0  0  0  0  0  0
   27.5363  -20.8703  -10.8171 C   0  0  0  0  0  0  0  0  0  0  0  0
   26.8753  -20.7190   -9.5200 C   0  0  0  0  0  0  0  0  0  0  0  0
   25.5269  -20.7027   -9.2690 N   0  0  0  0  0  0  0  0  0  0  0  0
   25.2786  -20.5540   -7.9557 C   0  0  0  0  0  0  0  0  0  0  0  0
   26.4725  -20.4708   -7.3343 C   0  0  0  0  0  0  0  0  0  0  0  0
   26.7418  -20.3096   -5.9877 C   0  0  0  0  0  0  0  0  0  0  0  0
   28.0581  -20.2495   -5.5993 C   0  0  0  0  0  0  0  0  0  0  0  0
   29.0661  -20.3482   -6.5355 C   0  0  0  0  0  0  0  0  0  0  0  0
   28.7790  -20.5077   -7.8729 C   0  0  0  0  0  0  0  0  0  0  0  0
   27.4833  -20.5710   -8.2884 C   0  0  0  0  0  0  0  0  0  0  0  0
   25.4495  -20.4063  -11.9191 O   0  0  0  0  0  0  0  0  0  0  0  0
   25.5482  -19.1992  -12.2615 N   0  0  0  0  0  0  0  0  0  0  0  0
   22.5415  -21.0013  -16.1783 C   0  0  0  0  0  0  0  0  0  0  0  0
   21.5329  -20.1688  -15.6202 O   0  0  0  0  0  0  0  0  0  0  0  0
   20.6430  -19.7133  -16.3650 C   0  0  0  0  0  0  0  0  0  0  0  0
   21.5941  -19.8798  -14.1558 C   0  0  0  0  0  0  0  0  0  0  0  0
   22.8469  -20.4464  -13.5447 C   0  0  1  0  0  0  0  0  0  0  0  0
   22.9712  -20.2410  -12.0717 N   0  0  0  0  0  0  0  0  0  0  0  0
   24.1734  -20.8571  -11.5330 C   0  0  0  0  0  0  0  0  0  0  0  0
   21.7880  -20.6908  -11.2964 O   0  0  0  0  0  0  0  0  0  0  0  0
   20.8459  -19.9638  -10.9155 O   0  0  0  0  0  0  0  0  0  0  0  0
  2  1  1  0
  3  2  2  0
  4  2  1  0
  5  4  1  0
  6  5  1  0
  7  6  1  0
  8 10  1  0
  8  7  1  0
  8  9  1  1
 10 11  2  0
 10 12  1  0
 12 13  1  0
 13 24  1  0
 13 14  1  1
 15 16  2  0
 15 14  1  0
 17 16  1  0
 18 23  2  0
 18 17  1  0
 19 18  1  0
 20 21  1  0
 20 19  2  0
 21 22  2  0
 22 23  1  0
 23 15  1  0
 24 25  2  0
 24 32  1  0
 27 29  1  0
 27 26  1  0
 28 27  2  0
 31 30  1  6
 30 29  1  0
 31 33  1  0
 32 31  1  0
 33 34  2  0
 33 35  1  0
M  END
$$$$
