RWQ.pdb
     RDKit          3D

 35 36  0  0  1  0  0  0  0  0999 V2000
   25.6214  -22.0579  -19.1345 N   0  0  0  0  0  0  0  0  0  0  0  0
   26.3440  -21.0481  -19.8321 C   0  0  0  0  0  0  0  0  0  0  0  0
   25.9541  -20.6969  -21.0049 N   0  0  0  0  0  0  0  0  0  0  0  0
   27.4727  -20.4293  -19.2616 N   0  0  0  0  0  0  0  0  0  0  0  0
   27.8029  -20.6509  -17.8767 C   0  0  0  0  0  0  0  0  0  0  0  0
   27.1794  -19.5504  -17.0151 C   0  0  0  0  0  0  0  0  0  0  0  0
   26.4350  -20.1971  -15.8965 C   0  0  0  0  0  0  0  0  0  0  0  0
   27.2545  -21.1489  -15.0618 C   0  0  2  0  0  0  0  0  0  0  0  0
   27.9064  -22.1836  -15.8006 N   0  0  0  0  0  0  0  0  0  0  0  0
   26.3472  -21.6629  -13.9858 C   0  0  0  0  0  0  0  0  0  0  0  0
   25.9160  -22.8291  -14.0795 O   0  0  0  0  0  0  0  0  0  0  0  0
   26.4557  -20.0037  -21.5961 N   0  0  0  0  0  0  0  0  0  0  0  0
   26.0301  -20.7879  -12.9197 C   0  0  1  0  0  0  0  0  0  0  0  0
   25.2817  -21.3204  -11.8186 C   0  0  0  0  0  0  0  0  0  0  0  0
   25.5845  -20.7441  -10.4880 C   0  0  0  0  0  0  0  0  0  0  0  0
   26.9179  -21.0333   -9.9582 C   0  0  0  0  0  0  0  0  0  0  0  0
   27.9394  -21.6963  -10.5896 N   0  0  0  0  0  0  0  0  0  0  0  0
   29.0284  -21.7720   -9.8041 C   0  0  0  0  0  0  0  0  0  0  0  0
   28.7236  -21.1548   -8.6445 C   0  0  0  0  0  0  0  0  0  0  0  0
   29.5117  -20.9746   -7.5229 C   0  0  0  0  0  0  0  0  0  0  0  0
   28.9641  -20.3071   -6.4544 C   0  0  0  0  0  0  0  0  0  0  0  0
   27.6684  -19.8385   -6.5153 C   0  0  0  0  0  0  0  0  0  0  0  0
   26.8977  -20.0278   -7.6408 C   0  0  0  0  0  0  0  0  0  0  0  0
   27.4132  -20.6859   -8.7164 C   0  0  0  0  0  0  0  0  0  0  0  0
   23.8230  -21.0058  -12.1045 O   0  0  0  0  0  0  0  0  0  0  0  0
   23.3460  -19.8773  -11.8161 N   0  0  0  0  0  0  0  0  0  0  0  0
   20.3844  -23.2953   -8.7109 C   0  0  0  0  0  0  0  0  0  0  0  0
   19.3012  -22.8962   -9.5410 O   0  0  0  0  0  0  0  0  0  0  0  0
   18.1394  -22.9614   -9.0936 C   0  0  0  0  0  0  0  0  0  0  0  0
   19.6155  -22.4160  -10.9203 C   0  0  0  0  0  0  0  0  0  0  0  0
   21.1011  -22.3878  -11.1577 C   0  0  2  0  0  0  0  0  0  0  0  0
   21.5109  -21.8436  -12.4856 N   0  0  0  0  0  0  0  0  0  0  0  0
   22.9472  -21.9360  -12.6949 C   0  0  0  0  0  0  0  0  0  0  0  0
   21.0575  -20.4524  -12.7352 O   0  0  0  0  0  0  0  0  0  0  0  0
   21.4780  -19.4320  -12.1494 O   0  0  0  0  0  0  0  0  0  0  0  0
  2  1  1  0
  3  2  2  0
  4  2  1  0
  5  4  1  0
  6  5  1  0
  7  6  1  0
  8 10  1  0
  8  7  1  0
  8  9  1  6
 10 11  2  0
 10 12  1  0
 12 13  1  0
 13 24  1  0
 13 14  1  6
 15 16  2  0
 15 14  1  0
 17 16  1  0
 18 23  2  0
 18 17  1  0
 19 18  1  0
 20 21  1  0
 20 19  2  0
 21 22  2  0
 22 23  1  0
 23 15  1  0
 24 25  2  0
 24 32  1  0
 27 29  1  0
 27 26  1  0
 28 27  2  0
 31 30  1  6
 30 29  1  0
 31 33  1  0
 32 31  1  0
 33 34  2  0
 33 35  1  0
M  END
$$$$
