RWQ.pdb
     RDKit          3D

 35 36  0  0  1  0  0  0  0  0999 V2000
   30.3885  -27.2657  -18.1065 N   0  0  0  0  0  0  0  0  0  0  0  0
   29.2688  -27.6012  -17.2928 C   0  0  0  0  0  0  0  0  0  0  0  0
   29.2336  -28.7510  -16.7204 N   0  0  0  0  0  0  0  0  0  0  0  0
   28.2046  -26.6989  -17.1040 N   0  0  0  0  0  0  0  0  0  0  0  0
   28.1237  -25.4934  -17.8890 C   0  0  0  0  0  0  0  0  0  0  0  0
   28.6829  -24.3165  -17.0863 C   0  0  0  0  0  0  0  0  0  0  0  0
   27.7885  -24.0805  -15.9168 C   0  0  0  0  0  0  0  0  0  0  0  0
   26.9506  -22.8299  -16.0067 C   0  0  2  0  0  0  0  0  0  0  0  0
   27.6751  -21.6480  -16.3527 N   0  0  0  0  0  0  0  0  0  0  0  0
   26.2091  -22.7186  -14.7095 C   0  0  0  0  0  0  0  0  0  0  0  0
   25.6876  -23.7462  -14.2336 O   0  0  0  0  0  0  0  0  0  0  0  0
   28.4506  -29.0703  -16.1149 N   0  0  0  0  0  0  0  0  0  0  0  0
   26.1431  -21.4444  -14.0971 C   0  0  1  0  0  0  0  0  0  0  0  0
   25.4904  -21.3481  -12.8241 C   0  0  0  0  0  0  0  0  0  0  0  0
   25.9699  -20.2706  -11.9279 C   0  0  0  0  0  0  0  0  0  0  0  0
   27.0976  -20.6182  -11.0620 C   0  0  0  0  0  0  0  0  0  0  0  0
   28.3602  -20.9905  -11.4477 N   0  0  0  0  0  0  0  0  0  0  0  0
   29.1440  -21.2286  -10.3811 C   0  0  0  0  0  0  0  0  0  0  0  0
   28.3928  -21.0127   -9.2822 C   0  0  0  0  0  0  0  0  0  0  0  0
   28.7473  -21.1291   -7.9508 C   0  0  0  0  0  0  0  0  0  0  0  0
   27.7896  -20.8536   -7.0053 C   0  0  0  0  0  0  0  0  0  0  0  0
   26.5202  -20.4748   -7.3891 C   0  0  0  0  0  0  0  0  0  0  0  0
   26.1847  -20.3648   -8.7202 C   0  0  0  0  0  0  0  0  0  0  0  0
   27.1131  -20.6312   -9.6808 C   0  0  0  0  0  0  0  0  0  0  0  0
   24.0297  -21.0493  -13.1168 O   0  0  0  0  0  0  0  0  0  0  0  0
   23.7157  -20.2042  -13.9950 N   0  0  0  0  0  0  0  0  0  0  0  0
   19.1932  -24.4644  -13.1652 C   0  0  0  0  0  0  0  0  0  0  0  0
   18.4635  -23.2530  -13.0172 O   0  0  0  0  0  0  0  0  0  0  0  0
   17.2595  -23.2281  -13.3397 C   0  0  0  0  0  0  0  0  0  0  0  0
   19.1857  -22.0614  -12.4787 C   0  0  0  0  0  0  0  0  0  0  0  0
   20.6369  -22.3740  -12.2328 C   0  0  1  0  0  0  0  0  0  0  0  0
   21.5904  -21.3314  -12.7135 N   0  0  0  0  0  0  0  0  0  0  0  0
   22.9737  -21.6872  -12.4396 C   0  0  0  0  0  0  0  0  0  0  0  0
   21.3114  -19.9700  -12.1918 O   0  0  0  0  0  0  0  0  0  0  0  0
   21.7229  -19.5060  -11.1072 O   0  0  0  0  0  0  0  0  0  0  0  0
  2  1  1  0
  3  2  2  0
  4  2  1  0
  5  4  1  0
  6  5  1  0
  7  6  1  0
  8 10  1  0
  8  7  1  0
  8  9  1  1
 10 11  2  0
 10 12  1  0
 12 13  1  0
 13 24  1  0
 13 14  1  1
 15 16  2  0
 15 14  1  0
 17 16  1  0
 18 23  2  0
 18 17  1  0
 19 18  1  0
 20 21  1  0
 20 19  2  0
 21 22  2  0
 22 23  1  0
 23 15  1  0
 24 25  2  0
 24 32  1  0
 27 29  1  0
 27 26  1  0
 28 27  2  0
 31 30  1  6
 30 29  1  0
 31 33  1  0
 32 31  1  0
 33 34  2  0
 33 35  1  0
M  END
$$$$
