RWQ.pdb
     RDKit          3D

 35 36  0  0  1  0  0  0  0  0999 V2000
   23.7327  -25.2509  -17.5094 N   0  0  0  0  0  0  0  0  0  0  0  0
   24.7762  -25.9990  -18.1259 C   0  0  0  0  0  0  0  0  0  0  0  0
   24.5133  -26.6920  -19.1753 N   0  0  0  0  0  0  0  0  0  0  0  0
   26.0857  -25.9918  -17.6088 N   0  0  0  0  0  0  0  0  0  0  0  0
   26.4005  -25.2212  -16.4327 C   0  0  0  0  0  0  0  0  0  0  0  0
   27.8483  -24.7313  -16.5091 C   0  0  0  0  0  0  0  0  0  0  0  0
   28.0435  -23.6839  -15.4658 C   0  0  0  0  0  0  0  0  0  0  0  0
   27.1030  -22.5095  -15.5685 C   0  0  2  0  0  0  0  0  0  0  0  0
   27.6828  -21.3250  -16.1182 N   0  0  0  0  0  0  0  0  0  0  0  0
   26.5173  -22.3109  -14.2038 C   0  0  0  0  0  0  0  0  0  0  0  0
   25.8872  -23.2534  -13.6851 O   0  0  0  0  0  0  0  0  0  0  0  0
   25.2245  -27.2455  -19.6943 N   0  0  0  0  0  0  0  0  0  0  0  0
   26.7145  -21.0559  -13.5800 C   0  0  1  0  0  0  0  0  0  0  0  0
   26.0962  -20.8395  -12.3045 C   0  0  0  0  0  0  0  0  0  0  0  0
   26.7377  -19.8262  -11.4351 C   0  0  0  0  0  0  0  0  0  0  0  0
   27.7583  -20.3315  -10.5157 C   0  0  0  0  0  0  0  0  0  0  0  0
   28.9110  -21.0017  -10.8376 N   0  0  0  0  0  0  0  0  0  0  0  0
   29.6191  -21.3080   -9.7359 C   0  0  0  0  0  0  0  0  0  0  0  0
   28.9282  -20.8369   -8.6780 C   0  0  0  0  0  0  0  0  0  0  0  0
   29.2426  -20.9080   -7.3334 C   0  0  0  0  0  0  0  0  0  0  0  0
   28.3638  -20.3479   -6.4384 C   0  0  0  0  0  0  0  0  0  0  0  0
   27.2095  -19.7386   -6.8837 C   0  0  0  0  0  0  0  0  0  0  0  0
   26.9121  -19.6778   -8.2270 C   0  0  0  0  0  0  0  0  0  0  0  0
   27.7644  -20.2241   -9.1385 C   0  0  0  0  0  0  0  0  0  0  0  0
   24.6921  -20.3357  -12.5928 O   0  0  0  0  0  0  0  0  0  0  0  0
   24.4682  -19.6135  -13.5990 N   0  0  0  0  0  0  0  0  0  0  0  0
   20.9962  -23.7421  -14.3364 C   0  0  0  0  0  0  0  0  0  0  0  0
   20.1232  -22.6296  -14.4838 O   0  0  0  0  0  0  0  0  0  0  0  0
   18.9818  -22.8132  -14.9507 C   0  0  0  0  0  0  0  0  0  0  0  0
   20.6251  -21.2852  -14.0686 C   0  0  0  0  0  0  0  0  0  0  0  0
   22.0060  -21.3820  -13.4787 C   0  0  2  0  0  0  0  0  0  0  0  0
   22.2317  -20.5298  -12.2746 N   0  0  0  0  0  0  0  0  0  0  0  0
   23.5915  -20.6432  -11.7713 C   0  0  0  0  0  0  0  0  0  0  0  0
   21.2683  -20.7736  -11.1719 O   0  0  0  0  0  0  0  0  0  0  0  0
   21.5251  -21.3484  -10.0926 O   0  0  0  0  0  0  0  0  0  0  0  0
  2  1  1  0
  3  2  2  0
  4  2  1  0
  5  4  1  0
  6  5  1  0
  7  6  1  0
  8 10  1  0
  8  7  1  0
  8  9  1  1
 10 11  2  0
 10 12  1  0
 12 13  1  0
 13 24  1  0
 13 14  1  1
 15 16  2  0
 15 14  1  0
 17 16  1  0
 18 23  2  0
 18 17  1  0
 19 18  1  0
 20 21  1  0
 20 19  2  0
 21 22  2  0
 22 23  1  0
 23 15  1  0
 24 25  2  0
 24 32  1  0
 27 29  1  0
 27 26  1  0
 28 27  2  0
 31 30  1  6
 30 29  1  0
 31 33  1  0
 32 31  1  0
 33 34  2  0
 33 35  1  0
M  END
$$$$
