RWQ.pdb
     RDKit          3D

 35 36  0  0  1  0  0  0  0  0999 V2000
   28.4343  -17.2021  -18.6043 N   0  0  0  0  0  0  0  0  0  0  0  0
   29.3854  -16.7678  -17.6373 C   0  0  0  0  0  0  0  0  0  0  0  0
   30.0438  -15.6852  -17.8498 N   0  0  0  0  0  0  0  0  0  0  0  0
   29.6154  -17.4998  -16.4568 N   0  0  0  0  0  0  0  0  0  0  0  0
   29.3633  -18.9179  -16.4181 C   0  0  0  0  0  0  0  0  0  0  0  0
   27.8550  -19.1749  -16.4549 C   0  0  0  0  0  0  0  0  0  0  0  0
   27.4329  -19.6757  -15.1153 C   0  0  0  0  0  0  0  0  0  0  0  0
   28.0013  -21.0206  -14.7378 C   0  0  2  0  0  0  0  0  0  0  0  0
   27.8426  -22.0369  -15.7294 N   0  0  0  0  0  0  0  0  0  0  0  0
   27.4031  -21.3800  -13.4119 C   0  0  0  0  0  0  0  0  0  0  0  0
   26.4450  -22.1776  -13.3893 O   0  0  0  0  0  0  0  0  0  0  0  0
   30.7532  -15.3028  -17.1923 N   0  0  0  0  0  0  0  0  0  0  0  0
   27.9641  -20.7879  -12.2554 C   0  0  2  0  0  0  0  0  0  0  0  0
   27.3020  -21.0102  -11.0031 C   0  0  0  0  0  0  0  0  0  0  0  0
   27.9366  -20.3948   -9.8145 C   0  0  0  0  0  0  0  0  0  0  0  0
   27.1545  -20.4450   -8.5783 C   0  0  0  0  0  0  0  0  0  0  0  0
   25.8340  -20.7898   -8.4414 N   0  0  0  0  0  0  0  0  0  0  0  0
   25.4478  -20.7338   -7.1544 C   0  0  0  0  0  0  0  0  0  0  0  0
   26.5216  -20.3484   -6.4355 C   0  0  0  0  0  0  0  0  0  0  0  0
   26.6268  -20.1442   -5.0721 C   0  0  0  0  0  0  0  0  0  0  0  0
   27.8435  -19.7449   -4.5750 C   0  0  0  0  0  0  0  0  0  0  0  0
   28.9153  -19.5581   -5.4227 C   0  0  0  0  0  0  0  0  0  0  0  0
   28.7919  -19.7656   -6.7785 C   0  0  0  0  0  0  0  0  0  0  0  0
   27.5980  -20.1621   -7.3009 C   0  0  0  0  0  0  0  0  0  0  0  0
   25.9250  -20.3813  -11.1327 O   0  0  0  0  0  0  0  0  0  0  0  0
   25.8060  -19.1476  -11.3518 N   0  0  0  0  0  0  0  0  0  0  0  0
   21.9368  -23.4108  -14.3696 C   0  0  0  0  0  0  0  0  0  0  0  0
   21.0936  -22.2978  -14.1014 O   0  0  0  0  0  0  0  0  0  0  0  0
   19.9784  -22.2356  -14.6551 C   0  0  0  0  0  0  0  0  0  0  0  0
   21.5943  -21.2500  -13.1616 C   0  0  0  0  0  0  0  0  0  0  0  0
   22.9353  -21.6288  -12.5940 C   0  0  1  0  0  0  0  0  0  0  0  0
   23.4992  -20.6505  -11.6182 N   0  0  0  0  0  0  0  0  0  0  0  0
   24.7363  -21.1262  -11.0195 C   0  0  0  0  0  0  0  0  0  0  0  0
   22.5504  -20.2455  -10.5509 O   0  0  0  0  0  0  0  0  0  0  0  0
   22.4540  -20.7726   -9.4221 O   0  0  0  0  0  0  0  0  0  0  0  0
  2  1  1  0
  3  2  2  0
  4  2  1  0
  5  4  1  0
  6  5  1  0
  7  6  1  0
  8 10  1  0
  8  7  1  0
  8  9  1  6
 10 11  2  0
 10 12  1  0
 12 13  1  0
 13 24  1  0
 13 14  1  1
 15 16  2  0
 15 14  1  0
 17 16  1  0
 18 23  2  0
 18 17  1  0
 19 18  1  0
 20 21  1  0
 20 19  2  0
 21 22  2  0
 22 23  1  0
 23 15  1  0
 24 25  2  0
 24 32  1  0
 27 29  1  0
 27 26  1  0
 28 27  2  0
 31 30  1  6
 30 29  1  0
 31 33  1  0
 32 31  1  0
 33 34  2  0
 33 35  1  0
M  END
$$$$
