RWQ.pdb
     RDKit          3D

 35 36  0  0  1  0  0  0  0  0999 V2000
   29.5979  -25.9250  -16.6086 N   0  0  0  0  0  0  0  0  0  0  0  0
   29.1505  -25.2110  -17.7568 C   0  0  0  0  0  0  0  0  0  0  0  0
   28.7023  -25.8674  -18.7663 N   0  0  0  0  0  0  0  0  0  0  0  0
   29.1890  -23.8044  -17.8050 N   0  0  0  0  0  0  0  0  0  0  0  0
   28.6045  -23.0229  -16.7450 C   0  0  0  0  0  0  0  0  0  0  0  0
   27.0978  -22.8857  -16.9756 C   0  0  0  0  0  0  0  0  0  0  0  0
   26.4796  -22.3553  -15.7266 C   0  0  0  0  0  0  0  0  0  0  0  0
   26.6791  -23.2211  -14.5081 C   0  0  2  0  0  0  0  0  0  0  0  0
   26.6561  -24.6268  -14.7626 N   0  0  0  0  0  0  0  0  0  0  0  0
   25.6632  -22.7792  -13.4993 C   0  0  0  0  0  0  0  0  0  0  0  0
   24.5693  -23.3761  -13.4574 O   0  0  0  0  0  0  0  0  0  0  0  0
   28.4385  -25.4262  -19.6704 N   0  0  0  0  0  0  0  0  0  0  0  0
   26.0072  -21.7020  -12.6482 C   0  0  1  0  0  0  0  0  0  0  0  0
   25.0406  -21.2849  -11.6747 C   0  0  0  0  0  0  0  0  0  0  0  0
   25.5502  -20.4288  -10.5786 C   0  0  0  0  0  0  0  0  0  0  0  0
   26.8422  -20.8209  -10.0135 C   0  0  0  0  0  0  0  0  0  0  0  0
   27.8633  -21.4809  -10.6486 N   0  0  0  0  0  0  0  0  0  0  0  0
   28.9084  -21.6686   -9.8232 C   0  0  0  0  0  0  0  0  0  0  0  0
   28.5746  -21.1290   -8.6333 C   0  0  0  0  0  0  0  0  0  0  0  0
   29.3140  -21.0735   -7.4663 C   0  0  0  0  0  0  0  0  0  0  0  0
   28.7447  -20.4652   -6.3741 C   0  0  0  0  0  0  0  0  0  0  0  0
   27.4752  -19.9324   -6.4563 C   0  0  0  0  0  0  0  0  0  0  0  0
   26.7529  -19.9975   -7.6270 C   0  0  0  0  0  0  0  0  0  0  0  0
   27.2911  -20.5944   -8.7269 C   0  0  0  0  0  0  0  0  0  0  0  0
   24.0102  -20.4586  -12.4256 O   0  0  0  0  0  0  0  0  0  0  0  0
   24.3706  -19.4882  -13.1416 N   0  0  0  0  0  0  0  0  0  0  0  0
   22.2054  -22.8594  -15.4004 C   0  0  0  0  0  0  0  0  0  0  0  0
   20.9404  -22.9754  -14.7616 O   0  0  0  0  0  0  0  0  0  0  0  0
   20.3911  -24.0931  -14.7043 C   0  0  0  0  0  0  0  0  0  0  0  0
   20.3291  -21.7387  -14.1882 C   0  0  0  0  0  0  0  0  0  0  0  0
   21.2385  -20.5532  -14.3666 C   0  0  1  0  0  0  0  0  0  0  0  0
   21.6779  -19.9066  -13.0954 N   0  0  0  0  0  0  0  0  0  0  0  0
   22.6301  -20.7279  -12.3646 C   0  0  0  0  0  0  0  0  0  0  0  0
   20.5618  -19.5164  -12.1980 O   0  0  0  0  0  0  0  0  0  0  0  0
   19.5961  -18.7873  -12.5095 O   0  0  0  0  0  0  0  0  0  0  0  0
  2  1  1  0
  3  2  2  0
  4  2  1  0
  5  4  1  0
  6  5  1  0
  7  6  1  0
  8 10  1  0
  8  7  1  0
  8  9  1  6
 10 11  2  0
 10 12  1  0
 12 13  1  0
 13 24  1  0
 13 14  1  1
 15 16  2  0
 15 14  1  0
 17 16  1  0
 18 23  2  0
 18 17  1  0
 19 18  1  0
 20 21  1  0
 20 19  2  0
 21 22  2  0
 22 23  1  0
 23 15  1  0
 24 25  2  0
 24 32  1  0
 27 29  1  0
 27 26  1  0
 28 27  2  0
 31 30  1  6
 30 29  1  0
 31 33  1  0
 32 31  1  0
 33 34  2  0
 33 35  1  0
M  END
$$$$
