RWQ.pdb
     RDKit          3D

 35 36  0  0  1  0  0  0  0  0999 V2000
   22.4373  -17.3371  -16.9025 N   0  0  0  0  0  0  0  0  0  0  0  0
   23.5883  -16.9157  -16.1773 C   0  0  0  0  0  0  0  0  0  0  0  0
   23.7351  -15.6684  -15.9063 N   0  0  0  0  0  0  0  0  0  0  0  0
   24.5639  -17.8378  -15.7525 N   0  0  0  0  0  0  0  0  0  0  0  0
   24.4360  -19.2355  -16.0782 C   0  0  0  0  0  0  0  0  0  0  0  0
   24.6306  -20.0793  -14.8164 C   0  0  0  0  0  0  0  0  0  0  0  0
   26.0779  -20.0582  -14.4579 C   0  0  0  0  0  0  0  0  0  0  0  0
   26.6377  -21.3881  -14.0195 C   0  0  2  0  0  0  0  0  0  0  0  0
   26.3238  -22.4831  -14.8819 N   0  0  0  0  0  0  0  0  0  0  0  0
   26.1902  -21.5940  -12.6044 C   0  0  0  0  0  0  0  0  0  0  0  0
   25.2436  -22.3763  -12.3888 O   0  0  0  0  0  0  0  0  0  0  0  0
   24.5065  -15.2926  -15.3187 N   0  0  0  0  0  0  0  0  0  0  0  0
   26.8727  -20.8827  -11.5890 C   0  0  2  0  0  0  0  0  0  0  0  0
   26.4084  -21.0330  -10.2407 C   0  0  0  0  0  0  0  0  0  0  0  0
   27.2924  -20.4876   -9.1846 C   0  0  0  0  0  0  0  0  0  0  0  0
   26.7219  -20.4443   -7.8374 C   0  0  0  0  0  0  0  0  0  0  0  0
   25.4624  -20.8286   -7.4534 N   0  0  0  0  0  0  0  0  0  0  0  0
   25.2839  -20.6578   -6.1314 C   0  0  0  0  0  0  0  0  0  0  0  0
   26.4344  -20.1560   -5.6384 C   0  0  0  0  0  0  0  0  0  0  0  0
   26.7437  -19.8094   -4.3362 C   0  0  0  0  0  0  0  0  0  0  0  0
   27.9988  -19.3104   -4.0857 C   0  0  0  0  0  0  0  0  0  0  0  0
   28.9088  -19.1661   -5.1120 C   0  0  0  0  0  0  0  0  0  0  0  0
   28.5830  -19.5161   -6.4035 C   0  0  0  0  0  0  0  0  0  0  0  0
   27.3462  -20.0139   -6.6827 C   0  0  0  0  0  0  0  0  0  0  0  0
   25.1023  -20.2619  -10.1524 O   0  0  0  0  0  0  0  0  0  0  0  0
   25.0400  -19.0670  -10.5429 N   0  0  0  0  0  0  0  0  0  0  0  0
   21.5689  -21.1893  -13.9565 C   0  0  0  0  0  0  0  0  0  0  0  0
   20.6303  -20.3733  -13.2673 O   0  0  0  0  0  0  0  0  0  0  0  0
   19.6053  -19.9918  -13.8657 C   0  0  0  0  0  0  0  0  0  0  0  0
   20.9256  -20.0112  -11.8484 C   0  0  0  0  0  0  0  0  0  0  0  0
   22.2675  -20.5424  -11.4227 C   0  0  1  0  0  0  0  0  0  0  0  0
   22.6187  -20.2805   -9.9961 N   0  0  0  0  0  0  0  0  0  0  0  0
   23.9189  -20.8286   -9.6433 C   0  0  0  0  0  0  0  0  0  0  0  0
   21.5981  -20.7500   -9.0259 O   0  0  0  0  0  0  0  0  0  0  0  0
   21.7676  -21.6339   -8.1592 O   0  0  0  0  0  0  0  0  0  0  0  0
  2  1  1  0
  3  2  2  0
  4  2  1  0
  5  4  1  0
  6  5  1  0
  7  6  1  0
  8 10  1  0
  8  7  1  0
  8  9  1  6
 10 11  2  0
 10 12  1  0
 12 13  1  0
 13 24  1  0
 13 14  1  6
 15 16  2  0
 15 14  1  0
 17 16  1  0
 18 23  2  0
 18 17  1  0
 19 18  1  0
 20 21  1  0
 20 19  2  0
 21 22  2  0
 22 23  1  0
 23 15  1  0
 24 25  2  0
 24 32  1  0
 27 29  1  0
 27 26  1  0
 28 27  2  0
 31 30  1  6
 30 29  1  0
 31 33  1  0
 32 31  1  0
 33 34  2  0
 33 35  1  0
M  END
$$$$
