RWQ.pdb
     RDKit          3D

 35 36  0  0  1  0  0  0  0  0999 V2000
   26.5909  -24.0302  -21.3596 N   0  0  0  0  0  0  0  0  0  0  0  0
   27.0082  -22.7141  -21.7094 C   0  0  0  0  0  0  0  0  0  0  0  0
   27.1640  -22.4161  -22.9494 N   0  0  0  0  0  0  0  0  0  0  0  0
   27.2509  -21.7373  -20.7249 N   0  0  0  0  0  0  0  0  0  0  0  0
   27.0659  -22.0473  -19.3300 C   0  0  0  0  0  0  0  0  0  0  0  0
   25.5711  -22.0919  -19.0051 C   0  0  0  0  0  0  0  0  0  0  0  0
   25.4070  -21.9228  -17.5326 C   0  0  0  0  0  0  0  0  0  0  0  0
   26.3613  -22.7362  -16.6950 C   0  0  2  0  0  0  0  0  0  0  0  0
   26.5384  -24.0856  -17.1299 N   0  0  0  0  0  0  0  0  0  0  0  0
   25.8893  -22.6218  -15.2775 C   0  0  0  0  0  0  0  0  0  0  0  0
   25.1718  -23.5307  -14.8153 O   0  0  0  0  0  0  0  0  0  0  0  0
   27.4536  -21.4751  -23.2846 N   0  0  0  0  0  0  0  0  0  0  0  0
   26.2877  -21.4802  -14.5420 C   0  0  2  0  0  0  0  0  0  0  0  0
   25.9480  -21.4304  -13.1499 C   0  0  0  0  0  0  0  0  0  0  0  0
   26.7153  -20.4661  -12.3280 C   0  0  0  0  0  0  0  0  0  0  0  0
   26.4051  -20.4616  -10.8976 C   0  0  0  0  0  0  0  0  0  0  0  0
   25.1893  -20.2217  -10.3096 N   0  0  0  0  0  0  0  0  0  0  0  0
   25.2716  -20.3081   -8.9700 C   0  0  0  0  0  0  0  0  0  0  0  0
   26.5522  -20.6067   -8.6708 C   0  0  0  0  0  0  0  0  0  0  0  0
   27.1335  -20.7948   -7.4305 C   0  0  0  0  0  0  0  0  0  0  0  0
   28.4742  -21.0911   -7.3884 C   0  0  0  0  0  0  0  0  0  0  0  0
   29.2021  -21.1936   -8.5554 C   0  0  0  0  0  0  0  0  0  0  0  0
   28.6063  -21.0022   -9.7822 C   0  0  0  0  0  0  0  0  0  0  0  0
   27.2784  -20.7074   -9.8559 C   0  0  0  0  0  0  0  0  0  0  0  0
   24.4938  -20.9954  -13.0824 O   0  0  0  0  0  0  0  0  0  0  0  0
   24.0972  -19.9946  -13.7345 N   0  0  0  0  0  0  0  0  0  0  0  0
   19.7311  -24.4924  -11.3066 C   0  0  0  0  0  0  0  0  0  0  0  0
   19.0070  -23.2857  -11.5096 O   0  0  0  0  0  0  0  0  0  0  0  0
   17.7610  -23.3143  -11.4763 C   0  0  0  0  0  0  0  0  0  0  0  0
   19.7852  -22.0346  -11.7561 C   0  0  0  0  0  0  0  0  0  0  0  0
   21.2641  -22.2856  -11.6383 C   0  0  2  0  0  0  0  0  0  0  0  0
   22.1210  -21.3461  -12.4194 N   0  0  0  0  0  0  0  0  0  0  0  0
   23.5338  -21.6726  -12.3075 C   0  0  0  0  0  0  0  0  0  0  0  0
   21.9103  -19.9153  -12.0850 O   0  0  0  0  0  0  0  0  0  0  0  0
   22.3548  -19.3291  -11.0751 O   0  0  0  0  0  0  0  0  0  0  0  0
  2  1  1  0
  3  2  2  0
  4  2  1  0
  5  4  1  0
  6  5  1  0
  7  6  1  0
  8 10  1  0
  8  7  1  0
  8  9  1  6
 10 11  2  0
 10 12  1  0
 12 13  1  0
 13 24  1  0
 13 14  1  1
 15 16  2  0
 15 14  1  0
 17 16  1  0
 18 23  2  0
 18 17  1  0
 19 18  1  0
 20 21  1  0
 20 19  2  0
 21 22  2  0
 22 23  1  0
 23 15  1  0
 24 25  2  0
 24 32  1  0
 27 29  1  0
 27 26  1  0
 28 27  2  0
 31 30  1  6
 30 29  1  0
 31 33  1  0
 32 31  1  0
 33 34  2  0
 33 35  1  0
M  END
$$$$
