RWQ.pdb
     RDKit          3D

 35 36  0  0  1  0  0  0  0  0999 V2000
   28.2918  -17.3971  -18.1845 N   0  0  0  0  0  0  0  0  0  0  0  0
   27.3989  -18.4909  -17.9980 C   0  0  0  0  0  0  0  0  0  0  0  0
   26.8908  -19.0664  -19.0282 N   0  0  0  0  0  0  0  0  0  0  0  0
   27.0651  -18.9518  -16.7101 N   0  0  0  0  0  0  0  0  0  0  0  0
   27.5898  -18.2920  -15.5416 C   0  0  0  0  0  0  0  0  0  0  0  0
   26.9853  -18.9161  -14.2816 C   0  0  0  0  0  0  0  0  0  0  0  0
   28.0992  -19.4269  -13.4319 C   0  0  0  0  0  0  0  0  0  0  0  0
   28.0663  -20.9128  -13.1766 C   0  0  2  0  0  0  0  0  0  0  0  0
   27.9831  -21.7202  -14.3524 N   0  0  0  0  0  0  0  0  0  0  0  0
   26.9515  -21.1544  -12.2050 C   0  0  0  0  0  0  0  0  0  0  0  0
   26.0192  -21.9086  -12.5464 O   0  0  0  0  0  0  0  0  0  0  0  0
   26.1826  -19.8261  -18.9740 N   0  0  0  0  0  0  0  0  0  0  0  0
   27.0226  -20.5070  -10.9486 C   0  0  2  0  0  0  0  0  0  0  0  0
   25.9307  -20.6938  -10.0381 C   0  0  0  0  0  0  0  0  0  0  0  0
   26.0751  -20.0534   -8.7103 C   0  0  0  0  0  0  0  0  0  0  0  0
   27.3555  -20.2707   -8.0353 C   0  0  0  0  0  0  0  0  0  0  0  0
   28.5520  -20.6165   -8.6099 N   0  0  0  0  0  0  0  0  0  0  0  0
   29.5227  -20.7231   -7.6852 C   0  0  0  0  0  0  0  0  0  0  0  0
   28.9627  -20.4461   -6.4901 C   0  0  0  0  0  0  0  0  0  0  0  0
   29.5501  -20.4280   -5.2386 C   0  0  0  0  0  0  0  0  0  0  0  0
   28.7567  -20.1150   -4.1618 C   0  0  0  0  0  0  0  0  0  0  0  0
   27.4190  -19.8308   -4.3411 C   0  0  0  0  0  0  0  0  0  0  0  0
   26.8507  -19.8543   -5.5953 C   0  0  0  0  0  0  0  0  0  0  0  0
   27.6122  -20.1611   -6.6823 C   0  0  0  0  0  0  0  0  0  0  0  0
   24.7164  -20.0591  -10.6947 O   0  0  0  0  0  0  0  0  0  0  0  0
   24.8280  -18.9798  -11.3326 N   0  0  0  0  0  0  0  0  0  0  0  0
   23.3646  -20.3698  -15.5608 C   0  0  0  0  0  0  0  0  0  0  0  0
   22.4794  -21.3842  -15.1037 O   0  0  0  0  0  0  0  0  0  0  0  0
   22.1522  -22.2994  -15.8845 C   0  0  0  0  0  0  0  0  0  0  0  0
   21.9816  -21.2983  -13.6977 C   0  0  0  0  0  0  0  0  0  0  0  0
   22.7115  -20.2298  -12.9300 C   0  0  1  0  0  0  0  0  0  0  0  0
   22.3575  -20.1489  -11.4824 N   0  0  0  0  0  0  0  0  0  0  0  0
   23.4320  -20.6307  -10.6288 C   0  0  0  0  0  0  0  0  0  0  0  0
   21.0912  -20.8386  -11.1300 O   0  0  0  0  0  0  0  0  0  0  0  0
   20.9965  -21.9078  -10.4905 O   0  0  0  0  0  0  0  0  0  0  0  0
  2  1  1  0
  3  2  2  0
  4  2  1  0
  5  4  1  0
  6  5  1  0
  7  6  1  0
  8 10  1  0
  8  7  1  0
  8  9  1  6
 10 11  2  0
 10 12  1  0
 12 13  1  0
 13 24  1  0
 13 14  1  6
 15 16  2  0
 15 14  1  0
 17 16  1  0
 18 23  2  0
 18 17  1  0
 19 18  1  0
 20 21  1  0
 20 19  2  0
 21 22  2  0
 22 23  1  0
 23 15  1  0
 24 25  2  0
 24 32  1  0
 27 29  1  0
 27 26  1  0
 28 27  2  0
 31 30  1  1
 30 29  1  0
 31 33  1  0
 32 31  1  0
 33 34  2  0
 33 35  1  0
M  END
$$$$
