LEF.pdb
     RDKit          3D

 29 29  0  0  1  0  0  0  0  0999 V2000
    8.7610  -12.8049   19.2429 C   0  0  0  0  0  0  0  0  0  0  0  0
    7.4407  -13.1357   19.9583 C   0  0  2  0  0  0  0  0  0  0  0  0
    6.9742  -11.8505   20.5712 C   0  0  0  0  0  0  0  0  0  0  0  0
    7.7596  -14.2108   20.9277 C   0  0  0  0  0  0  0  0  0  0  0  0
    8.1956  -15.5200   20.3640 C   0  0  2  0  0  0  0  0  0  0  0  0
    7.1010  -16.1507   19.6649 N   0  0  0  0  0  0  0  0  0  0  0  0
    8.5419  -16.3874   21.5406 C   0  0  0  0  0  0  0  0  0  0  0  0
    7.6828  -16.9855   22.2345 O   0  0  0  0  0  0  0  0  0  0  0  0
    9.9037  -16.5492   21.9001 N   0  0  0  0  0  0  0  0  0  0  0  0
   10.3165  -17.4115   23.0426 C   0  0  1  0  0  0  0  0  0  0  0  0
   11.7181  -17.8077   22.7349 C   0  0  0  0  0  0  0  0  0  0  0  0
   12.4501  -18.6043   23.7465 C   0  0  0  0  0  0  0  0  0  0  0  0
   13.8049  -18.9760   23.2717 C   0  0  0  0  0  0  0  0  0  0  0  0
   14.8282  -18.2767   23.4521 O   0  0  0  0  0  0  0  0  0  0  0  0
   10.1348  -16.6100   24.2673 C   0  0  0  0  0  0  0  0  0  0  0  0
    9.9280  -15.3599   24.2215 O   0  0  0  0  0  0  0  0  0  0  0  0
   14.0206  -20.1751   22.5687 O   0  0  0  0  0  0  0  0  0  0  0  0
   10.1848  -17.2302   25.5333 N   0  0  0  0  0  0  0  0  0  0  0  0
    9.5963  -16.5510   26.6970 C   0  0  1  0  0  0  0  0  0  0  0  0
    8.1711  -16.1921   26.3888 C   0  0  0  0  0  0  0  0  0  0  0  0
    8.0188  -14.7327   26.3016 C   0  0  0  0  0  0  0  0  0  0  0  0
    8.9203  -13.8766   26.9337 C   0  0  0  0  0  0  0  0  0  0  0  0
    8.8083  -12.5087   26.8401 C   0  0  0  0  0  0  0  0  0  0  0  0
    7.7899  -11.9446   26.1107 C   0  0  0  0  0  0  0  0  0  0  0  0
    6.8789  -12.7614   25.4713 C   0  0  0  0  0  0  0  0  0  0  0  0
    7.0102  -14.1433   25.5785 C   0  0  0  0  0  0  0  0  0  0  0  0
    9.7060  -17.4010   27.8943 C   0  0  0  0  0  0  0  0  0  0  0  0
    9.6134  -18.6750   27.8197 O   0  0  0  0  0  0  0  0  0  0  0  0
    9.9163  -16.8462   29.1394 O   0  0  0  0  0  0  0  0  0  0  0  0
  2  3  1  1
  2  1  1  0
  4  2  1  0
  5  4  1  0
  5  6  1  1
  7  8  2  0
  7  5  1  0
  9  7  1  0
 10  9  1  0
 10 11  1  6
 12 13  1  0
 12 11  1  0
 13 14  2  0
 15 16  2  0
 15 10  1  0
 17 13  1  0
 18 15  1  0
 19 20  1  6
 19 18  1  0
 21 20  1  0
 21 22  2  0
 23 22  1  0
 24 23  2  0
 25 26  2  0
 25 24  1  0
 26 21  1  0
 27 19  1  0
 28 27  2  0
 29 27  1  0
M  END
$$$$
