LEF.pdb
     RDKit          3D

 29 29  0  0  1  0  0  0  0  0999 V2000
   11.3070  -22.0636   19.5487 C   0  0  0  0  0  0  0  0  0  0  0  0
   10.5286  -21.7083   20.8263 C   0  0  2  0  0  0  0  0  0  0  0  0
    9.2417  -22.4716   20.7469 C   0  0  0  0  0  0  0  0  0  0  0  0
   10.3817  -20.2332   20.8182 C   0  0  0  0  0  0  0  0  0  0  0  0
    9.9445  -19.5919   22.0907 C   0  0  2  0  0  0  0  0  0  0  0  0
    8.5078  -19.6621   22.2160 N   0  0  0  0  0  0  0  0  0  0  0  0
   10.3193  -18.1415   21.9782 C   0  0  0  0  0  0  0  0  0  0  0  0
   11.4848  -17.7466   21.7273 O   0  0  0  0  0  0  0  0  0  0  0  0
    9.3180  -17.1548   22.1625 N   0  0  0  0  0  0  0  0  0  0  0  0
    9.6468  -15.7028   22.2111 C   0  0  1  0  0  0  0  0  0  0  0  0
    8.8466  -15.0931   21.1138 C   0  0  0  0  0  0  0  0  0  0  0  0
    8.8711  -15.7552   19.7892 C   0  0  0  0  0  0  0  0  0  0  0  0
    8.0977  -14.9889   18.7823 C   0  0  0  0  0  0  0  0  0  0  0  0
    7.2833  -15.5039   17.9822 O   0  0  0  0  0  0  0  0  0  0  0  0
    9.3200  -15.2383   23.5723 C   0  0  0  0  0  0  0  0  0  0  0  0
    8.2308  -14.6424   23.8299 O   0  0  0  0  0  0  0  0  0  0  0  0
    8.2426  -13.5944   18.6678 O   0  0  0  0  0  0  0  0  0  0  0  0
   10.2263  -15.4553   24.6313 N   0  0  0  0  0  0  0  0  0  0  0  0
    9.7449  -15.4031   26.0196 C   0  0  1  0  0  0  0  0  0  0  0  0
    8.2479  -15.5198   26.0262 C   0  0  0  0  0  0  0  0  0  0  0  0
    7.6338  -14.2065   26.2682 C   0  0  0  0  0  0  0  0  0  0  0  0
    8.3432  -13.1868   26.9025 C   0  0  0  0  0  0  0  0  0  0  0  0
    7.7933  -11.9435   27.1127 C   0  0  0  0  0  0  0  0  0  0  0  0
    6.5122  -11.6725   26.6967 C   0  0  0  0  0  0  0  0  0  0  0  0
    5.7802  -12.6579   26.0651 C   0  0  0  0  0  0  0  0  0  0  0  0
    6.3554  -13.9094   25.8619 C   0  0  0  0  0  0  0  0  0  0  0  0
   10.3855  -16.4581   26.8226 C   0  0  0  0  0  0  0  0  0  0  0  0
   10.1596  -16.5728   28.0768 O   0  0  0  0  0  0  0  0  0  0  0  0
   11.2510  -17.3619   26.2427 O   0  0  0  0  0  0  0  0  0  0  0  0
  2  3  1  6
  2  1  1  0
  4  2  1  0
  5  4  1  0
  5  6  1  6
  7  8  2  0
  7  5  1  0
  9  7  1  0
 10  9  1  0
 10 11  1  6
 12 13  1  0
 12 11  1  0
 13 14  2  0
 15 16  2  0
 15 10  1  0
 17 13  1  0
 18 15  1  0
 19 20  1  6
 19 18  1  0
 21 20  1  0
 21 22  2  0
 23 22  1  0
 24 23  2  0
 25 26  2  0
 25 24  1  0
 26 21  1  0
 27 19  1  0
 28 27  2  0
 29 27  1  0
M  END
$$$$
