LEF.pdb
     RDKit          3D

 29 29  0  0  1  0  0  0  0  0999 V2000
    8.8061  -13.4478   18.4312 C   0  0  0  0  0  0  0  0  0  0  0  0
    7.7053  -13.3389   19.4994 C   0  0  2  0  0  0  0  0  0  0  0  0
    7.6317  -11.8876   19.8645 C   0  0  0  0  0  0  0  0  0  0  0  0
    8.1156  -14.2407   20.6021 C   0  0  0  0  0  0  0  0  0  0  0  0
    8.1965  -15.6957   20.2890 C   0  0  2  0  0  0  0  0  0  0  0  0
    6.9025  -16.1903   19.8818 N   0  0  0  0  0  0  0  0  0  0  0  0
    8.5592  -16.3807   21.5758 C   0  0  0  0  0  0  0  0  0  0  0  0
    7.7097  -16.7649   22.4173 O   0  0  0  0  0  0  0  0  0  0  0  0
    9.9263  -16.6128   21.8712 N   0  0  0  0  0  0  0  0  0  0  0  0
   10.3474  -17.4978   22.9930 C   0  0  1  0  0  0  0  0  0  0  0  0
   11.7791  -17.8028   22.7219 C   0  0  0  0  0  0  0  0  0  0  0  0
   12.4786  -18.7215   23.6494 C   0  0  0  0  0  0  0  0  0  0  0  0
   13.8707  -18.9836   23.2104 C   0  0  0  0  0  0  0  0  0  0  0  0
   14.8827  -18.4753   23.7453 O   0  0  0  0  0  0  0  0  0  0  0  0
   10.0782  -16.7594   24.2411 C   0  0  0  0  0  0  0  0  0  0  0  0
   10.3378  -15.5235   24.3538 O   0  0  0  0  0  0  0  0  0  0  0  0
   14.1382  -19.8465   22.1323 O   0  0  0  0  0  0  0  0  0  0  0  0
    9.5139  -17.4247   25.3497 N   0  0  0  0  0  0  0  0  0  0  0  0
    9.2840  -16.6845   26.5991 C   0  0  1  0  0  0  0  0  0  0  0  0
    7.8470  -16.2530   26.6584 C   0  0  0  0  0  0  0  0  0  0  0  0
    7.7438  -14.7955   26.4983 C   0  0  0  0  0  0  0  0  0  0  0  0
    6.6732  -14.2213   25.8132 C   0  0  0  0  0  0  0  0  0  0  0  0
    6.5469  -12.8582   25.6772 C   0  0  0  0  0  0  0  0  0  0  0  0
    7.4871  -12.0170   26.2213 C   0  0  0  0  0  0  0  0  0  0  0  0
    8.5605  -12.5502   26.9064 C   0  0  0  0  0  0  0  0  0  0  0  0
    8.6695  -13.9325   27.0328 C   0  0  0  0  0  0  0  0  0  0  0  0
    9.6620  -17.5095   27.7587 C   0  0  0  0  0  0  0  0  0  0  0  0
    9.5867  -18.7864   27.7229 O   0  0  0  0  0  0  0  0  0  0  0  0
   10.1144  -16.9273   28.9243 O   0  0  0  0  0  0  0  0  0  0  0  0
  2  3  1  1
  2  1  1  0
  4  2  1  0
  5  4  1  0
  5  6  1  1
  7  8  2  0
  7  5  1  0
  9  7  1  0
 10  9  1  0
 10 11  1  6
 12 13  1  0
 12 11  1  0
 13 14  2  0
 15 16  2  0
 15 10  1  0
 17 13  1  0
 18 15  1  0
 19 20  1  1
 19 18  1  0
 21 20  1  0
 21 22  2  0
 23 22  1  0
 24 23  2  0
 25 26  2  0
 25 24  1  0
 26 21  1  0
 27 19  1  0
 28 27  2  0
 29 27  1  0
M  END
$$$$
