LEF.pdb
     RDKit          3D

 29 29  0  0  1  0  0  0  0  0999 V2000
    9.2091  -13.2529   18.1139 C   0  0  0  0  0  0  0  0  0  0  0  0
    7.8606  -13.7515   18.6589 C   0  0  2  0  0  0  0  0  0  0  0  0
    7.1066  -12.5240   19.0708 C   0  0  0  0  0  0  0  0  0  0  0  0
    8.1864  -14.6847   19.7637 C   0  0  0  0  0  0  0  0  0  0  0  0
    8.8672  -15.9578   19.3927 C   0  0  2  0  0  0  0  0  0  0  0  0
    7.9803  -16.7878   18.6122 N   0  0  0  0  0  0  0  0  0  0  0  0
    9.1421  -16.6763   20.6830 C   0  0  0  0  0  0  0  0  0  0  0  0
    8.2600  -17.2888   21.3341 O   0  0  0  0  0  0  0  0  0  0  0  0
   10.4596  -16.6720   21.2067 N   0  0  0  0  0  0  0  0  0  0  0  0
   10.7766  -17.2604   22.5380 C   0  0  1  0  0  0  0  0  0  0  0  0
   12.2045  -17.6707   22.4439 C   0  0  0  0  0  0  0  0  0  0  0  0
   12.5243  -18.8905   21.6669 C   0  0  0  0  0  0  0  0  0  0  0  0
   13.9886  -19.0894   21.5428 C   0  0  0  0  0  0  0  0  0  0  0  0
   14.5499  -19.5542   20.5242 O   0  0  0  0  0  0  0  0  0  0  0  0
   10.4762  -16.2237   23.5433 C   0  0  0  0  0  0  0  0  0  0  0  0
   11.1701  -15.1668   23.6390 O   0  0  0  0  0  0  0  0  0  0  0  0
   14.8554  -18.7556   22.5991 O   0  0  0  0  0  0  0  0  0  0  0  0
    9.3910  -16.3897   24.4291 N   0  0  0  0  0  0  0  0  0  0  0  0
    9.0365  -15.3022   25.3530 C   0  0  1  0  0  0  0  0  0  0  0  0
    7.7338  -14.6936   24.9203 C   0  0  0  0  0  0  0  0  0  0  0  0
    7.3353  -13.6255   25.8481 C   0  0  0  0  0  0  0  0  0  0  0  0
    6.8076  -13.9238   27.1043 C   0  0  0  0  0  0  0  0  0  0  0  0
    6.4547  -12.9370   27.9953 C   0  0  0  0  0  0  0  0  0  0  0  0
    6.6159  -11.6134   27.6638 C   0  0  0  0  0  0  0  0  0  0  0  0
    7.1356  -11.2808   26.4289 C   0  0  0  0  0  0  0  0  0  0  0  0
    7.4866  -12.2948   25.5417 C   0  0  0  0  0  0  0  0  0  0  0  0
    8.9800  -15.8046   26.7359 C   0  0  0  0  0  0  0  0  0  0  0  0
    9.3136  -15.0686   27.7281 O   0  0  0  0  0  0  0  0  0  0  0  0
    8.5603  -17.0905   27.0053 O   0  0  0  0  0  0  0  0  0  0  0  0
  2  3  1  1
  2  1  1  0
  4  2  1  0
  5  4  1  0
  5  6  1  6
  7  8  2  0
  7  5  1  0
  9  7  1  0
 10  9  1  0
 10 11  1  6
 12 13  1  0
 12 11  1  0
 13 14  2  0
 15 16  2  0
 15 10  1  0
 17 13  1  0
 18 15  1  0
 19 20  1  6
 19 18  1  0
 21 20  1  0
 21 22  2  0
 23 22  1  0
 24 23  2  0
 25 26  2  0
 25 24  1  0
 26 21  1  0
 27 19  1  0
 28 27  2  0
 29 27  1  0
M  END
$$$$
