LEF.pdb
     RDKit          3D

 29 29  0  0  1  0  0  0  0  0999 V2000
    8.8660  -12.0954   18.9077 C   0  0  0  0  0  0  0  0  0  0  0  0
    7.8331  -13.2299   19.0101 C   0  0  2  0  0  0  0  0  0  0  0  0
    6.5775  -12.6972   18.3897 C   0  0  0  0  0  0  0  0  0  0  0  0
    7.7274  -13.5571   20.4521 C   0  0  0  0  0  0  0  0  0  0  0  0
    8.9740  -14.0055   21.1351 C   0  0  2  0  0  0  0  0  0  0  0  0
    9.9498  -14.4331   20.1606 N   0  0  0  0  0  0  0  0  0  0  0  0
    8.5936  -15.2068   21.9530 C   0  0  0  0  0  0  0  0  0  0  0  0
    7.4479  -15.3777   22.4381 O   0  0  0  0  0  0  0  0  0  0  0  0
    9.5664  -16.2083   22.1998 N   0  0  0  0  0  0  0  0  0  0  0  0
    9.2609  -17.4136   23.0202 C   0  0  1  0  0  0  0  0  0  0  0  0
   10.2318  -18.4443   22.5607 C   0  0  0  0  0  0  0  0  0  0  0  0
   10.0535  -19.0063   21.2021 C   0  0  0  0  0  0  0  0  0  0  0  0
   11.0798  -20.0325   20.8976 C   0  0  0  0  0  0  0  0  0  0  0  0
   11.9852  -20.3768   21.6915 O   0  0  0  0  0  0  0  0  0  0  0  0
    9.3825  -17.0082   24.4331 C   0  0  0  0  0  0  0  0  0  0  0  0
   10.3713  -16.3330   24.8502 O   0  0  0  0  0  0  0  0  0  0  0  0
   11.0920  -20.6970   19.6579 O   0  0  0  0  0  0  0  0  0  0  0  0
    8.3824  -17.3666   25.3612 N   0  0  0  0  0  0  0  0  0  0  0  0
    8.5071  -16.9390   26.7624 C   0  0  1  0  0  0  0  0  0  0  0  0
    7.2212  -16.2973   27.1976 C   0  0  0  0  0  0  0  0  0  0  0  0
    7.1194  -14.9358   26.6534 C   0  0  0  0  0  0  0  0  0  0  0  0
    6.0980  -14.5892   25.7691 C   0  0  0  0  0  0  0  0  0  0  0  0
    5.9721  -13.3130   25.2713 C   0  0  0  0  0  0  0  0  0  0  0  0
    6.8635  -12.3342   25.6389 C   0  0  0  0  0  0  0  0  0  0  0  0
    7.8874  -12.6411   26.5126 C   0  0  0  0  0  0  0  0  0  0  0  0
    7.9969  -13.9388   27.0050 C   0  0  0  0  0  0  0  0  0  0  0  0
    8.8708  -18.0829   27.6153 C   0  0  0  0  0  0  0  0  0  0  0  0
    8.7990  -19.2860   27.1854 O   0  0  0  0  0  0  0  0  0  0  0  0
    9.3054  -17.8906   28.9101 O   0  0  0  0  0  0  0  0  0  0  0  0
  2  3  1  1
  2  1  1  0
  4  2  1  0
  5  4  1  0
  5  6  1  6
  7  8  2  0
  7  5  1  0
  9  7  1  0
 10  9  1  0
 10 11  1  6
 12 13  1  0
 12 11  1  0
 13 14  2  0
 15 16  2  0
 15 10  1  0
 17 13  1  0
 18 15  1  0
 19 20  1  1
 19 18  1  0
 21 20  1  0
 21 22  2  0
 23 22  1  0
 24 23  2  0
 25 26  2  0
 25 24  1  0
 26 21  1  0
 27 19  1  0
 28 27  2  0
 29 27  1  0
M  END
$$$$
