LEF.pdb
     RDKit          3D

 29 29  0  0  1  0  0  0  0  0999 V2000
    8.9241  -12.6519   19.0627 C   0  0  0  0  0  0  0  0  0  0  0  0
    7.6052  -13.2555   19.5730 C   0  0  2  0  0  0  0  0  0  0  0  0
    6.7705  -12.0949   20.0216 C   0  0  0  0  0  0  0  0  0  0  0  0
    7.9797  -14.2075   20.6458 C   0  0  0  0  0  0  0  0  0  0  0  0
    8.9294  -15.2965   20.2799 C   0  0  2  0  0  0  0  0  0  0  0  0
    8.3514  -16.1402   19.2607 N   0  0  0  0  0  0  0  0  0  0  0  0
    9.1029  -16.1327   21.5159 C   0  0  0  0  0  0  0  0  0  0  0  0
    8.1516  -16.7091   22.0991 O   0  0  0  0  0  0  0  0  0  0  0  0
   10.4004  -16.2890   22.0654 N   0  0  0  0  0  0  0  0  0  0  0  0
   10.6801  -17.2713   23.1498 C   0  0  1  0  0  0  0  0  0  0  0  0
   12.0543  -17.7698   22.8683 C   0  0  0  0  0  0  0  0  0  0  0  0
   12.2240  -18.7487   21.7699 C   0  0  0  0  0  0  0  0  0  0  0  0
   13.6458  -19.1328   21.5967 C   0  0  0  0  0  0  0  0  0  0  0  0
   14.3266  -19.7165   22.4710 O   0  0  0  0  0  0  0  0  0  0  0  0
   10.5116  -16.5537   24.4273 C   0  0  0  0  0  0  0  0  0  0  0  0
   11.2113  -15.5371   24.7183 O   0  0  0  0  0  0  0  0  0  0  0  0
   14.3297  -18.8522   20.3999 O   0  0  0  0  0  0  0  0  0  0  0  0
    9.5503  -16.9898   25.3630 N   0  0  0  0  0  0  0  0  0  0  0  0
    9.4762  -16.3428   26.6813 C   0  0  1  0  0  0  0  0  0  0  0  0
    8.0462  -15.9946   26.9792 C   0  0  0  0  0  0  0  0  0  0  0  0
    7.7883  -14.5817   26.6667 C   0  0  0  0  0  0  0  0  0  0  0  0
    8.7291  -13.5960   26.9644 C   0  0  0  0  0  0  0  0  0  0  0  0
    8.5156  -12.2729   26.6545 C   0  0  0  0  0  0  0  0  0  0  0  0
    7.3523  -11.8848   26.0349 C   0  0  0  0  0  0  0  0  0  0  0  0
    6.3985  -12.8335   25.7250 C   0  0  0  0  0  0  0  0  0  0  0  0
    6.6343  -14.1673   26.0471 C   0  0  0  0  0  0  0  0  0  0  0  0
   10.0591  -17.2169   27.7129 C   0  0  0  0  0  0  0  0  0  0  0  0
   10.1601  -16.8373   28.9308 O   0  0  0  0  0  0  0  0  0  0  0  0
   10.5136  -18.4800   27.3963 O   0  0  0  0  0  0  0  0  0  0  0  0
  2  3  1  1
  2  1  1  0
  4  2  1  0
  5  4  1  0
  5  6  1  6
  7  8  2  0
  7  5  1  0
  9  7  1  0
 10  9  1  0
 10 11  1  6
 12 13  1  0
 12 11  1  0
 13 14  2  0
 15 16  2  0
 15 10  1  0
 17 13  1  0
 18 15  1  0
 19 20  1  1
 19 18  1  0
 21 20  1  0
 21 22  2  0
 23 22  1  0
 24 23  2  0
 25 26  2  0
 25 24  1  0
 26 21  1  0
 27 19  1  0
 28 27  2  0
 29 27  1  0
M  END
$$$$
