LEF.pdb
     RDKit          3D

 29 29  0  0  1  0  0  0  0  0999 V2000
    9.0666  -12.4449   19.3853 C   0  0  0  0  0  0  0  0  0  0  0  0
    7.7701  -13.0723   19.9237 C   0  0  2  0  0  0  0  0  0  0  0  0
    6.8803  -11.9233   20.2884 C   0  0  0  0  0  0  0  0  0  0  0  0
    8.1747  -13.9344   21.0597 C   0  0  0  0  0  0  0  0  0  0  0  0
    9.1366  -15.0337   20.7632 C   0  0  2  0  0  0  0  0  0  0  0  0
    8.6358  -15.8574   19.6882 N   0  0  0  0  0  0  0  0  0  0  0  0
    9.1918  -15.8858   21.9992 C   0  0  0  0  0  0  0  0  0  0  0  0
    8.1984  -16.5020   22.4584 O   0  0  0  0  0  0  0  0  0  0  0  0
   10.4205  -16.0109   22.6954 N   0  0  0  0  0  0  0  0  0  0  0  0
   10.5867  -16.9637   23.8284 C   0  0  1  0  0  0  0  0  0  0  0  0
   11.8256  -17.7246   23.5087 C   0  0  0  0  0  0  0  0  0  0  0  0
   11.9261  -18.3534   22.1715 C   0  0  0  0  0  0  0  0  0  0  0  0
   13.2284  -19.0385   21.9876 C   0  0  0  0  0  0  0  0  0  0  0  0
   13.6690  -19.9257   22.7539 O   0  0  0  0  0  0  0  0  0  0  0  0
   10.6358  -16.1544   25.0606 C   0  0  0  0  0  0  0  0  0  0  0  0
   11.3105  -15.0830   25.1282 O   0  0  0  0  0  0  0  0  0  0  0  0
   14.0676  -18.7172   20.9054 O   0  0  0  0  0  0  0  0  0  0  0  0
    9.9178  -16.5620   26.2044 N   0  0  0  0  0  0  0  0  0  0  0  0
   10.0345  -15.7862   27.4480 C   0  0  1  0  0  0  0  0  0  0  0  0
    8.6596  -15.4892   27.9737 C   0  0  0  0  0  0  0  0  0  0  0  0
    7.9963  -14.4837   27.1314 C   0  0  0  0  0  0  0  0  0  0  0  0
    6.9583  -14.8388   26.2701 C   0  0  0  0  0  0  0  0  0  0  0  0
    6.3087  -13.9064   25.4948 C   0  0  0  0  0  0  0  0  0  0  0  0
    6.6726  -12.5828   25.5512 C   0  0  0  0  0  0  0  0  0  0  0  0
    7.6960  -12.1948   26.3926 C   0  0  0  0  0  0  0  0  0  0  0  0
    8.3404  -13.1542   27.1690 C   0  0  0  0  0  0  0  0  0  0  0  0
   10.8565  -16.5140   28.4291 C   0  0  0  0  0  0  0  0  0  0  0  0
   11.1752  -15.9908   29.5525 O   0  0  0  0  0  0  0  0  0  0  0  0
   11.3079  -17.7905   28.1663 O   0  0  0  0  0  0  0  0  0  0  0  0
  2  3  1  1
  2  1  1  0
  4  2  1  0
  5  4  1  0
  5  6  1  6
  7  8  2  0
  7  5  1  0
  9  7  1  0
 10  9  1  0
 10 11  1  6
 12 13  1  0
 12 11  1  0
 13 14  2  0
 15 16  2  0
 15 10  1  0
 17 13  1  0
 18 15  1  0
 19 20  1  1
 19 18  1  0
 21 20  1  0
 21 22  2  0
 23 22  1  0
 24 23  2  0
 25 26  2  0
 25 24  1  0
 26 21  1  0
 27 19  1  0
 28 27  2  0
 29 27  1  0
M  END
$$$$
