LEF.pdb
     RDKit          3D

 29 29  0  0  1  0  0  0  0  0999 V2000
    8.7067  -13.0933   18.3710 C   0  0  0  0  0  0  0  0  0  0  0  0
    7.6624  -13.3897   19.4601 C   0  0  2  0  0  0  0  0  0  0  0  0
    7.4260  -12.0889   20.1652 C   0  0  0  0  0  0  0  0  0  0  0  0
    8.2446  -14.4608   20.3035 C   0  0  0  0  0  0  0  0  0  0  0  0
    8.4806  -15.7799   19.6508 C   0  0  2  0  0  0  0  0  0  0  0  0
    7.2232  -16.3825   19.2762 N   0  0  0  0  0  0  0  0  0  0  0  0
    9.1100  -16.6567   20.6958 C   0  0  0  0  0  0  0  0  0  0  0  0
    8.4487  -17.2952   21.5515 O   0  0  0  0  0  0  0  0  0  0  0  0
   10.5219  -16.7803   20.7322 N   0  0  0  0  0  0  0  0  0  0  0  0
   11.2116  -17.5963   21.7702 C   0  0  1  0  0  0  0  0  0  0  0  0
   12.5625  -17.8680   21.2069 C   0  0  0  0  0  0  0  0  0  0  0  0
   13.5385  -18.5815   22.0625 C   0  0  0  0  0  0  0  0  0  0  0  0
   13.9022  -19.9007   21.4911 C   0  0  0  0  0  0  0  0  0  0  0  0
   14.3092  -20.0697   20.3187 O   0  0  0  0  0  0  0  0  0  0  0  0
   11.1873  -16.8077   23.0163 C   0  0  0  0  0  0  0  0  0  0  0  0
   11.3125  -15.5460   23.0094 O   0  0  0  0  0  0  0  0  0  0  0  0
   13.8060  -21.0735   22.2619 O   0  0  0  0  0  0  0  0  0  0  0  0
   11.0177  -17.4528   24.2593 N   0  0  0  0  0  0  0  0  0  0  0  0
   11.1130  -16.6708   25.5008 C   0  0  1  0  0  0  0  0  0  0  0  0
    9.7570  -16.1246   25.8438 C   0  0  0  0  0  0  0  0  0  0  0  0
    9.8357  -15.2759   27.0414 C   0  0  0  0  0  0  0  0  0  0  0  0
    9.5806  -13.9066   26.9704 C   0  0  0  0  0  0  0  0  0  0  0  0
    9.6234  -13.1025   28.0858 C   0  0  0  0  0  0  0  0  0  0  0  0
    9.9232  -13.6374   29.3152 C   0  0  0  0  0  0  0  0  0  0  0  0
   10.1813  -14.9893   29.4233 C   0  0  0  0  0  0  0  0  0  0  0  0
   10.1327  -15.7856   28.2822 C   0  0  0  0  0  0  0  0  0  0  0  0
   11.6662  -17.4990   26.5852 C   0  0  0  0  0  0  0  0  0  0  0  0
   11.2787  -18.7046   26.7690 O   0  0  0  0  0  0  0  0  0  0  0  0
   12.6269  -16.9982   27.4388 O   0  0  0  0  0  0  0  0  0  0  0  0
  2  3  1  1
  2  1  1  0
  4  2  1  0
  5  4  1  0
  5  6  1  1
  7  8  2  0
  7  5  1  0
  9  7  1  0
 10  9  1  0
 10 11  1  6
 12 13  1  0
 12 11  1  0
 13 14  2  0
 15 16  2  0
 15 10  1  0
 17 13  1  0
 18 15  1  0
 19 20  1  1
 19 18  1  0
 21 20  1  0
 21 22  2  0
 23 22  1  0
 24 23  2  0
 25 26  2  0
 25 24  1  0
 26 21  1  0
 27 19  1  0
 28 27  2  0
 29 27  1  0
M  END
$$$$
