LEF.pdb
     RDKit          3D

 29 29  0  0  1  0  0  0  0  0999 V2000
    9.2133  -13.4303   17.8984 C   0  0  0  0  0  0  0  0  0  0  0  0
    7.9086  -13.6509   18.6816 C   0  0  2  0  0  0  0  0  0  0  0  0
    7.4654  -12.2915   19.1296 C   0  0  0  0  0  0  0  0  0  0  0  0
    8.2439  -14.5913   19.7773 C   0  0  0  0  0  0  0  0  0  0  0  0
    8.6689  -15.9641   19.3815 C   0  0  2  0  0  0  0  0  0  0  0  0
    7.5755  -16.6600   18.7452 N   0  0  0  0  0  0  0  0  0  0  0  0
    8.9850  -16.6885   20.6591 C   0  0  0  0  0  0  0  0  0  0  0  0
    8.1056  -17.1619   21.4206 O   0  0  0  0  0  0  0  0  0  0  0  0
   10.3406  -16.8545   21.0396 N   0  0  0  0  0  0  0  0  0  0  0  0
   10.7200  -17.4364   22.3574 C   0  0  1  0  0  0  0  0  0  0  0  0
   12.1551  -17.8048   22.2132 C   0  0  0  0  0  0  0  0  0  0  0  0
   12.8743  -18.2728   23.4204 C   0  0  0  0  0  0  0  0  0  0  0  0
   14.2797  -18.6324   23.1126 C   0  0  0  0  0  0  0  0  0  0  0  0
   14.7341  -18.7573   21.9522 O   0  0  0  0  0  0  0  0  0  0  0  0
   10.4243  -16.4112   23.3758 C   0  0  0  0  0  0  0  0  0  0  0  0
   10.7168  -15.1904   23.1974 O   0  0  0  0  0  0  0  0  0  0  0  0
   15.2096  -18.8606   24.1430 O   0  0  0  0  0  0  0  0  0  0  0  0
    9.7967  -16.7753   24.5855 N   0  0  0  0  0  0  0  0  0  0  0  0
    9.3214  -15.7264   25.4998 C   0  0  1  0  0  0  0  0  0  0  0  0
    8.3983  -14.8054   24.7551 C   0  0  0  0  0  0  0  0  0  0  0  0
    7.8312  -13.8024   25.6677 C   0  0  0  0  0  0  0  0  0  0  0  0
    8.6160  -12.7677   26.1764 C   0  0  0  0  0  0  0  0  0  0  0  0
    8.0951  -11.8053   27.0099 C   0  0  0  0  0  0  0  0  0  0  0  0
    6.7689  -11.8410   27.3668 C   0  0  0  0  0  0  0  0  0  0  0  0
    5.9618  -12.8507   26.8820 C   0  0  0  0  0  0  0  0  0  0  0  0
    6.5087  -13.8149   26.0396 C   0  0  0  0  0  0  0  0  0  0  0  0
    8.6713  -16.3293   26.6753 C   0  0  0  0  0  0  0  0  0  0  0  0
    8.7603  -15.7956   27.8349 O   0  0  0  0  0  0  0  0  0  0  0  0
    7.9397  -17.4929   26.5606 O   0  0  0  0  0  0  0  0  0  0  0  0
  2  3  1  1
  2  1  1  0
  4  2  1  0
  5  4  1  0
  5  6  1  1
  7  8  2  0
  7  5  1  0
  9  7  1  0
 10  9  1  0
 10 11  1  6
 12 13  1  0
 12 11  1  0
 13 14  2  0
 15 16  2  0
 15 10  1  0
 17 13  1  0
 18 15  1  0
 19 20  1  6
 19 18  1  0
 21 20  1  0
 21 22  2  0
 23 22  1  0
 24 23  2  0
 25 26  2  0
 25 24  1  0
 26 21  1  0
 27 19  1  0
 28 27  2  0
 29 27  1  0
M  END
$$$$
