LEF.pdb
     RDKit          3D

 29 29  0  0  1  0  0  0  0  0999 V2000
    8.8809  -12.7903   18.8283 C   0  0  0  0  0  0  0  0  0  0  0  0
    7.5798  -13.1210   19.5780 C   0  0  2  0  0  0  0  0  0  0  0  0
    7.1028  -11.8257   20.1609 C   0  0  0  0  0  0  0  0  0  0  0  0
    7.9347  -14.1609   20.5731 C   0  0  0  0  0  0  0  0  0  0  0  0
    8.4599  -15.4510   20.0425 C   0  0  2  0  0  0  0  0  0  0  0  0
    7.4728  -16.0810   19.1979 N   0  0  0  0  0  0  0  0  0  0  0  0
    8.6693  -16.3395   21.2356 C   0  0  0  0  0  0  0  0  0  0  0  0
    7.7388  -16.9612   21.8057 O   0  0  0  0  0  0  0  0  0  0  0  0
    9.9782  -16.4948   21.7577 N   0  0  0  0  0  0  0  0  0  0  0  0
   10.2778  -17.4637   22.8489 C   0  0  1  0  0  0  0  0  0  0  0  0
   11.6634  -17.9329   22.5730 C   0  0  0  0  0  0  0  0  0  0  0  0
   12.2678  -18.8997   23.5184 C   0  0  0  0  0  0  0  0  0  0  0  0
   13.6169  -19.3259   23.0740 C   0  0  0  0  0  0  0  0  0  0  0  0
   13.8874  -20.4748   22.6551 O   0  0  0  0  0  0  0  0  0  0  0  0
   10.0906  -16.7419   24.1215 C   0  0  0  0  0  0  0  0  0  0  0  0
   10.7105  -15.6652   24.3747 O   0  0  0  0  0  0  0  0  0  0  0  0
   14.7026  -18.4319   23.1004 O   0  0  0  0  0  0  0  0  0  0  0  0
    9.2008  -17.2423   25.0950 N   0  0  0  0  0  0  0  0  0  0  0  0
    9.1582  -16.6196   26.4263 C   0  0  1  0  0  0  0  0  0  0  0  0
    7.7659  -16.1252   26.6943 C   0  0  0  0  0  0  0  0  0  0  0  0
    7.6790  -14.6799   26.4414 C   0  0  0  0  0  0  0  0  0  0  0  0
    6.6015  -14.1355   25.7429 C   0  0  0  0  0  0  0  0  0  0  0  0
    6.4908  -12.7825   25.5207 C   0  0  0  0  0  0  0  0  0  0  0  0
    7.4541  -11.9218   25.9888 C   0  0  0  0  0  0  0  0  0  0  0  0
    8.5349  -12.4253   26.6846 C   0  0  0  0  0  0  0  0  0  0  0  0
    8.6279  -13.7979   26.8988 C   0  0  0  0  0  0  0  0  0  0  0  0
    9.6132  -17.5737   27.4514 C   0  0  0  0  0  0  0  0  0  0  0  0
    9.6560  -18.8316   27.2210 O   0  0  0  0  0  0  0  0  0  0  0  0
   10.0124  -17.1371   28.6974 O   0  0  0  0  0  0  0  0  0  0  0  0
  2  3  1  1
  2  1  1  0
  4  2  1  0
  5  4  1  0
  5  6  1  6
  7  8  2  0
  7  5  1  0
  9  7  1  0
 10  9  1  0
 10 11  1  6
 12 13  1  0
 12 11  1  0
 13 14  2  0
 15 16  2  0
 15 10  1  0
 17 13  1  0
 18 15  1  0
 19 20  1  1
 19 18  1  0
 21 20  1  0
 21 22  2  0
 23 22  1  0
 24 23  2  0
 25 26  2  0
 25 24  1  0
 26 21  1  0
 27 19  1  0
 28 27  2  0
 29 27  1  0
M  END
$$$$
