LEF.pdb
     RDKit          3D

 29 29  0  0  1  0  0  0  0  0999 V2000
    7.8813  -12.0316   19.4745 C   0  0  0  0  0  0  0  0  0  0  0  0
    7.9155  -13.5394   19.7745 C   0  0  2  0  0  0  0  0  0  0  0  0
    6.5301  -13.9002   20.2165 C   0  0  0  0  0  0  0  0  0  0  0  0
    8.9680  -13.7278   20.8012 C   0  0  0  0  0  0  0  0  0  0  0  0
    9.3924  -15.1286   21.0830 C   0  0  2  0  0  0  0  0  0  0  0  0
    8.4289  -16.0590   20.5439 N   0  0  0  0  0  0  0  0  0  0  0  0
    9.3785  -15.2769   22.5779 C   0  0  0  0  0  0  0  0  0  0  0  0
    9.7838  -14.3856   23.3643 O   0  0  0  0  0  0  0  0  0  0  0  0
    8.8864  -16.4789   23.1464 N   0  0  0  0  0  0  0  0  0  0  0  0
    9.7451  -17.3574   23.9889 C   0  0  1  0  0  0  0  0  0  0  0  0
   10.8583  -17.7756   23.0934 C   0  0  0  0  0  0  0  0  0  0  0  0
   10.6137  -18.9038   22.1656 C   0  0  0  0  0  0  0  0  0  0  0  0
   11.8340  -19.2534   21.3988 C   0  0  0  0  0  0  0  0  0  0  0  0
   12.9276  -19.5649   21.9238 O   0  0  0  0  0  0  0  0  0  0  0  0
   10.1391  -16.5629   25.1674 C   0  0  0  0  0  0  0  0  0  0  0  0
   11.0754  -15.7095   25.1135 O   0  0  0  0  0  0  0  0  0  0  0  0
   11.8284  -19.2536   19.9922 O   0  0  0  0  0  0  0  0  0  0  0  0
    9.4679  -16.7376   26.3958 N   0  0  0  0  0  0  0  0  0  0  0  0
    9.9250  -16.0000   27.5829 C   0  0  1  0  0  0  0  0  0  0  0  0
    8.7434  -15.3510   28.2443 C   0  0  0  0  0  0  0  0  0  0  0  0
    8.1422  -14.3513   27.3502 C   0  0  0  0  0  0  0  0  0  0  0  0
    7.0063  -14.6498   26.5980 C   0  0  0  0  0  0  0  0  0  0  0  0
    6.4150  -13.7179   25.7769 C   0  0  0  0  0  0  0  0  0  0  0  0
    6.9377  -12.4512   25.6764 C   0  0  0  0  0  0  0  0  0  0  0  0
    8.0615  -12.1201   26.4066 C   0  0  0  0  0  0  0  0  0  0  0  0
    8.6445  -13.0780   27.2319 C   0  0  0  0  0  0  0  0  0  0  0  0
   10.6455  -16.9008   28.4980 C   0  0  0  0  0  0  0  0  0  0  0  0
   10.6210  -18.1706   28.3421 O   0  0  0  0  0  0  0  0  0  0  0  0
   11.3755  -16.3996   29.5555 O   0  0  0  0  0  0  0  0  0  0  0  0
  2  3  1  1
  2  1  1  0
  4  2  1  0
  5  4  1  0
  5  6  1  6
  7  8  2  0
  7  5  1  0
  9  7  1  0
 10  9  1  0
 10 11  1  6
 12 13  1  0
 12 11  1  0
 13 14  2  0
 15 16  2  0
 15 10  1  0
 17 13  1  0
 18 15  1  0
 19 20  1  1
 19 18  1  0
 21 20  1  0
 21 22  2  0
 23 22  1  0
 24 23  2  0
 25 26  2  0
 25 24  1  0
 26 21  1  0
 27 19  1  0
 28 27  2  0
 29 27  1  0
M  END
$$$$
