MWV.pdb
     RDKit          3D

 30 31  0  0  1  0  0  0  0  0999 V2000
    7.8831  -12.2385   18.3108 C   0  0  0  0  0  0  0  0  0  0  0  0
    8.6535  -13.5503   17.3322 S   0  0  0  0  0  0  0  0  0  0  0  0
    8.8541  -15.0662   18.2863 C   0  0  0  0  0  0  0  0  0  0  0  0
    8.7462  -14.7831   19.7820 C   0  0  0  0  0  0  0  0  0  0  0  0
    9.7400  -15.6320   20.5541 C   0  0  2  0  0  0  0  0  0  0  0  0
    9.4149  -17.0170   20.2776 N   0  0  0  0  0  0  0  0  0  0  0  0
    9.6984  -15.3466   21.9990 C   0  0  0  0  0  0  0  0  0  0  0  0
   10.0758  -14.1950   22.4047 O   0  0  0  0  0  0  0  0  0  0  0  0
    9.2555  -16.3014   22.9527 N   0  0  0  0  0  0  0  0  0  0  0  0
    8.9003  -15.8475   24.2668 C   0  0  1  0  0  0  0  0  0  0  0  0
    7.5540  -16.4586   24.6147 C   0  0  0  0  0  0  0  0  0  0  0  0
    6.6561  -15.4791   25.2515 C   0  0  0  0  0  0  0  0  0  0  0  0
    5.3541  -15.7263   25.6224 C   0  0  0  0  0  0  0  0  0  0  0  0
    4.8350  -14.5947   26.1791 N   0  0  0  0  0  0  0  0  0  0  0  0
    5.7686  -13.6184   26.1786 C   0  0  0  0  0  0  0  0  0  0  0  0
    5.7478  -12.3185   26.6181 C   0  0  0  0  0  0  0  0  0  0  0  0
    6.8869  -11.5488   26.4778 C   0  0  0  0  0  0  0  0  0  0  0  0
    8.0179  -12.0780   25.9084 C   0  0  0  0  0  0  0  0  0  0  0  0
    8.0173  -13.3828   25.4748 C   0  0  0  0  0  0  0  0  0  0  0  0
    6.8968  -14.1696   25.6028 C   0  0  0  0  0  0  0  0  0  0  0  0
    9.9208  -16.1652   25.2900 C   0  0  0  0  0  0  0  0  0  0  0  0
   10.7780  -17.0401   25.0008 O   0  0  0  0  0  0  0  0  0  0  0  0
   10.8551  -13.7572   28.6214 C   0  0  0  0  0  0  0  0  0  0  0  0
   10.8761  -15.2664   28.8342 C   0  0  2  0  0  0  0  0  0  0  0  0
   12.0282  -15.5830   29.7583 C   0  0  0  0  0  0  0  0  0  0  0  0
   11.0212  -15.9885   27.5055 C   0  0  2  0  0  0  0  0  0  0  0  0
   10.0056  -15.5617   26.5644 N   0  0  0  0  0  0  0  0  0  0  0  0
   10.9807  -17.4548   27.7286 C   0  0  0  0  0  0  0  0  0  0  0  0
    9.8940  -18.0480   27.8957 O   0  0  0  0  0  0  0  0  0  0  0  0
   12.1671  -18.1851   27.7531 O   0  0  0  0  0  0  0  0  0  0  0  0
  1  2  1  0
  3  2  1  0
  4  3  1  0
  5  7  1  0
  5  6  1  1
  5  4  1  0
  7  8  2  0
  9 10  1  0
  9  7  1  0
 10 11  1  1
 12 11  1  0
 12 13  2  0
 14 13  1  0
 15 14  1  0
 16 15  2  0
 17 16  1  0
 18 17  2  0
 18 19  1  0
 19 20  2  0
 20 15  1  0
 20 12  1  0
 21 10  1  0
 21 22  2  0
 24 23  1  6
 24 26  1  0
 25 24  1  0
 26 27  1  6
 26 28  1  0
 27 21  1  0
 28 29  2  0
 28 30  1  0
M  END
$$$$
