MWV.pdb
     RDKit          3D

 30 31  0  0  1  0  0  0  0  0999 V2000
    8.6213  -19.5164   17.8967 C   0  0  0  0  0  0  0  0  0  0  0  0
    6.9785  -18.9296   17.4184 S   0  0  0  0  0  0  0  0  0  0  0  0
    6.2882  -17.8023   18.6436 C   0  0  0  0  0  0  0  0  0  0  0  0
    7.3940  -17.1843   19.4946 C   0  0  0  0  0  0  0  0  0  0  0  0
    6.7967  -16.3439   20.6089 C   0  0  2  0  0  0  0  0  0  0  0  0
    6.2774  -15.1383   19.9950 N   0  0  0  0  0  0  0  0  0  0  0  0
    7.7888  -16.0330   21.6529 C   0  0  0  0  0  0  0  0  0  0  0  0
    8.6238  -15.0894   21.4396 O   0  0  0  0  0  0  0  0  0  0  0  0
    7.8496  -16.7411   22.8826 N   0  0  0  0  0  0  0  0  0  0  0  0
    8.8385  -16.3579   23.8491 C   0  0  1  0  0  0  0  0  0  0  0  0
    8.1987  -16.4555   25.2232 C   0  0  0  0  0  0  0  0  0  0  0  0
    7.2855  -15.3288   25.4834 C   0  0  0  0  0  0  0  0  0  0  0  0
    5.9138  -15.3860   25.3873 C   0  0  0  0  0  0  0  0  0  0  0  0
    5.4015  -14.1612   25.6993 N   0  0  0  0  0  0  0  0  0  0  0  0
    6.4075  -13.3098   25.9957 C   0  0  0  0  0  0  0  0  0  0  0  0
    6.4222  -11.9884   26.3657 C   0  0  0  0  0  0  0  0  0  0  0  0
    7.6377  -11.3770   26.6075 C   0  0  0  0  0  0  0  0  0  0  0  0
    8.8082  -12.0818   26.4791 C   0  0  0  0  0  0  0  0  0  0  0  0
    8.7710  -13.4050   26.1074 C   0  0  0  0  0  0  0  0  0  0  0  0
    7.5746  -14.0364   25.8609 C   0  0  0  0  0  0  0  0  0  0  0  0
   10.0767  -17.1640   23.7689 C   0  0  0  0  0  0  0  0  0  0  0  0
    9.9500  -18.4134   23.6870 O   0  0  0  0  0  0  0  0  0  0  0  0
   13.3019  -16.4231   21.5807 C   0  0  0  0  0  0  0  0  0  0  0  0
   13.6968  -16.8503   22.9896 C   0  0  2  0  0  0  0  0  0  0  0  0
   14.8787  -17.7834   22.8713 C   0  0  0  0  0  0  0  0  0  0  0  0
   12.5287  -17.5265   23.6869 C   0  0  2  0  0  0  0  0  0  0  0  0
   11.3878  -16.6381   23.7771 N   0  0  0  0  0  0  0  0  0  0  0  0
   12.9572  -18.0066   25.0239 C   0  0  0  0  0  0  0  0  0  0  0  0
   12.7353  -17.3290   26.0497 O   0  0  0  0  0  0  0  0  0  0  0  0
   13.6161  -19.2285   25.1431 O   0  0  0  0  0  0  0  0  0  0  0  0
  1  2  1  0
  3  2  1  0
  4  3  1  0
  5  7  1  0
  5  6  1  6
  5  4  1  0
  7  8  2  0
  9 10  1  0
  9  7  1  0
 10 11  1  1
 12 11  1  0
 12 13  2  0
 14 13  1  0
 15 14  1  0
 16 15  2  0
 17 16  1  0
 18 17  2  0
 18 19  1  0
 19 20  2  0
 20 15  1  0
 20 12  1  0
 21 10  1  0
 21 22  2  0
 24 23  1  6
 24 26  1  0
 25 24  1  0
 26 27  1  1
 26 28  1  0
 27 21  1  0
 28 29  2  0
 28 30  1  0
M  END
$$$$
