MWV.pdb
     RDKit          3D

 30 31  0  0  1  0  0  0  0  0999 V2000
    7.8147  -11.8429   19.7635 C   0  0  0  0  0  0  0  0  0  0  0  0
    6.9928  -13.3798   19.2792 S   0  0  0  0  0  0  0  0  0  0  0  0
    8.1640  -14.7389   19.1070 C   0  0  0  0  0  0  0  0  0  0  0  0
    9.1047  -14.7986   20.3072 C   0  0  0  0  0  0  0  0  0  0  0  0
    9.0754  -16.1809   20.9340 C   0  0  2  0  0  0  0  0  0  0  0  0
    7.7110  -16.6592   20.8355 N   0  0  0  0  0  0  0  0  0  0  0  0
    9.5392  -16.1586   22.3323 C   0  0  0  0  0  0  0  0  0  0  0  0
   10.6054  -15.5118   22.6114 O   0  0  0  0  0  0  0  0  0  0  0  0
    8.8463  -16.8270   23.3765 N   0  0  0  0  0  0  0  0  0  0  0  0
    9.3469  -16.7145   24.7166 C   0  0  1  0  0  0  0  0  0  0  0  0
    8.1575  -16.7897   25.6582 C   0  0  0  0  0  0  0  0  0  0  0  0
    7.2474  -15.6442   25.4835 C   0  0  0  0  0  0  0  0  0  0  0  0
    6.0192  -15.6989   24.8650 C   0  0  0  0  0  0  0  0  0  0  0  0
    5.4612  -14.4547   24.8886 N   0  0  0  0  0  0  0  0  0  0  0  0
    6.2975  -13.5932   25.5075 C   0  0  0  0  0  0  0  0  0  0  0  0
    6.2053  -12.2522   25.7843 C   0  0  0  0  0  0  0  0  0  0  0  0
    7.2489  -11.6347   26.4471 C   0  0  0  0  0  0  0  0  0  0  0  0
    8.3570  -12.3528   26.8208 C   0  0  0  0  0  0  0  0  0  0  0  0
    8.4291  -13.6955   26.5338 C   0  0  0  0  0  0  0  0  0  0  0  0
    7.4043  -14.3334   25.8753 C   0  0  0  0  0  0  0  0  0  0  0  0
   10.3657  -17.7354   25.0471 C   0  0  0  0  0  0  0  0  0  0  0  0
   10.1935  -18.8948   24.5890 O   0  0  0  0  0  0  0  0  0  0  0  0
   14.2694  -17.7393   24.8733 C   0  0  0  0  0  0  0  0  0  0  0  0
   13.8236  -18.2095   26.2530 C   0  0  2  0  0  0  0  0  0  0  0  0
   14.7079  -19.3678   26.6505 C   0  0  0  0  0  0  0  0  0  0  0  0
   12.3602  -18.6167   26.2284 C   0  0  2  0  0  0  0  0  0  0  0  0
   11.5148  -17.5073   25.8363 N   0  0  0  0  0  0  0  0  0  0  0  0
   11.9723  -19.1603   27.5535 C   0  0  0  0  0  0  0  0  0  0  0  0
   11.4106  -18.4373   28.4035 O   0  0  0  0  0  0  0  0  0  0  0  0
   12.2353  -20.4939   27.8594 O   0  0  0  0  0  0  0  0  0  0  0  0
  1  2  1  0
  3  2  1  0
  4  3  1  0
  5  7  1  0
  5  6  1  1
  5  4  1  0
  7  8  2  0
  9 10  1  0
  9  7  1  0
 10 11  1  1
 12 11  1  0
 12 13  2  0
 14 13  1  0
 15 14  1  0
 16 15  2  0
 17 16  1  0
 18 17  2  0
 18 19  1  0
 19 20  2  0
 20 15  1  0
 20 12  1  0
 21 10  1  0
 21 22  2  0
 24 23  1  6
 24 26  1  0
 25 24  1  0
 26 27  1  1
 26 28  1  0
 27 21  1  0
 28 29  2  0
 28 30  1  0
M  END
$$$$
