MWV.pdb
     RDKit          3D

 30 31  0  0  1  0  0  0  0  0999 V2000
    9.2353  -21.1032   20.2981 C   0  0  0  0  0  0  0  0  0  0  0  0
    9.0915  -19.9147   18.9421 S   0  0  0  0  0  0  0  0  0  0  0  0
    8.7443  -18.2519   19.5445 C   0  0  0  0  0  0  0  0  0  0  0  0
    7.4782  -18.2377   20.3963 C   0  0  0  0  0  0  0  0  0  0  0  0
    7.1602  -16.8237   20.8479 C   0  0  2  0  0  0  0  0  0  0  0  0
    7.1617  -15.9922   19.6609 N   0  0  0  0  0  0  0  0  0  0  0  0
    8.1266  -16.3373   21.8480 C   0  0  0  0  0  0  0  0  0  0  0  0
    9.0236  -15.5066   21.4762 O   0  0  0  0  0  0  0  0  0  0  0  0
    8.0965  -16.7567   23.2047 N   0  0  0  0  0  0  0  0  0  0  0  0
    9.1227  -16.2894   24.0922 C   0  0  1  0  0  0  0  0  0  0  0  0
    8.5483  -16.2904   25.4983 C   0  0  0  0  0  0  0  0  0  0  0  0
    7.5017  -15.2664   25.6630 C   0  0  0  0  0  0  0  0  0  0  0  0
    6.1480  -15.5015   25.5843 C   0  0  0  0  0  0  0  0  0  0  0  0
    5.4869  -14.3262   25.7884 N   0  0  0  0  0  0  0  0  0  0  0  0
    6.3787  -13.3334   25.9977 C   0  0  0  0  0  0  0  0  0  0  0  0
    6.2284  -11.9922   26.2462 C   0  0  0  0  0  0  0  0  0  0  0  0
    7.3580  -11.2157   26.4213 C   0  0  0  0  0  0  0  0  0  0  0  0
    8.6072  -11.7789   26.3472 C   0  0  0  0  0  0  0  0  0  0  0  0
    8.7355  -13.1248   26.0973 C   0  0  0  0  0  0  0  0  0  0  0  0
    7.6273  -13.9193   25.9193 C   0  0  0  0  0  0  0  0  0  0  0  0
   10.3684  -17.0842   24.0146 C   0  0  0  0  0  0  0  0  0  0  0  0
   10.2531  -18.3342   23.9249 O   0  0  0  0  0  0  0  0  0  0  0  0
   13.6970  -16.0901   21.9935 C   0  0  0  0  0  0  0  0  0  0  0  0
   14.0251  -16.6816   23.3595 C   0  0  2  0  0  0  0  0  0  0  0  0
   15.2070  -17.6061   23.1868 C   0  0  0  0  0  0  0  0  0  0  0  0
   12.8233  -17.4227   23.9202 C   0  0  2  0  0  0  0  0  0  0  0  0
   11.6747  -16.5469   24.0334 N   0  0  0  0  0  0  0  0  0  0  0  0
   13.1789  -18.0325   25.2253 C   0  0  0  0  0  0  0  0  0  0  0  0
   13.0491  -17.3907   26.2893 O   0  0  0  0  0  0  0  0  0  0  0  0
   13.6643  -19.3377   25.2711 O   0  0  0  0  0  0  0  0  0  0  0  0
  1  2  1  0
  3  2  1  0
  4  3  1  0
  5  7  1  0
  5  6  1  6
  5  4  1  0
  7  8  2  0
  9 10  1  0
  9  7  1  0
 10 11  1  1
 12 11  1  0
 12 13  2  0
 14 13  1  0
 15 14  1  0
 16 15  2  0
 17 16  1  0
 18 17  2  0
 18 19  1  0
 19 20  2  0
 20 15  1  0
 20 12  1  0
 21 10  1  0
 21 22  2  0
 24 23  1  6
 24 26  1  0
 25 24  1  0
 26 27  1  1
 26 28  1  0
 27 21  1  0
 28 29  2  0
 28 30  1  0
M  END
$$$$
