MWV.pdb
     RDKit          3D

 30 31  0  0  1  0  0  0  0  0999 V2000
    8.2599  -12.6609   17.6826 C   0  0  0  0  0  0  0  0  0  0  0  0
    8.8327  -14.1237   16.7858 S   0  0  0  0  0  0  0  0  0  0  0  0
    9.7410  -15.2523   17.8581 C   0  0  0  0  0  0  0  0  0  0  0  0
    9.9338  -14.6447   19.2446 C   0  0  0  0  0  0  0  0  0  0  0  0
   10.5686  -15.6562   20.1819 C   0  0  2  0  0  0  0  0  0  0  0  0
   10.0517  -16.9578   19.8093 N   0  0  0  0  0  0  0  0  0  0  0  0
   10.2853  -15.3478   21.5945 C   0  0  0  0  0  0  0  0  0  0  0  0
   10.8567  -14.3351   22.1244 O   0  0  0  0  0  0  0  0  0  0  0  0
    9.4033  -16.1322   22.3844 N   0  0  0  0  0  0  0  0  0  0  0  0
    8.9637  -15.6119   23.6474 C   0  0  1  0  0  0  0  0  0  0  0  0
    7.5146  -16.0267   23.8349 C   0  0  0  0  0  0  0  0  0  0  0  0
    6.8597  -15.2590   24.9085 C   0  0  0  0  0  0  0  0  0  0  0  0
    5.9711  -15.7790   25.8217 C   0  0  0  0  0  0  0  0  0  0  0  0
    5.5724  -14.7814   26.6618 N   0  0  0  0  0  0  0  0  0  0  0  0
    6.1807  -13.6258   26.3161 C   0  0  0  0  0  0  0  0  0  0  0  0
    6.1196  -12.3570   26.8354 C   0  0  0  0  0  0  0  0  0  0  0  0
    6.8772  -11.3600   26.2509 C   0  0  0  0  0  0  0  0  0  0  0  0
    7.6759  -11.6370   25.1699 C   0  0  0  0  0  0  0  0  0  0  0  0
    7.7225  -12.9151   24.6652 C   0  0  0  0  0  0  0  0  0  0  0  0
    6.9783  -13.9249   25.2286 C   0  0  0  0  0  0  0  0  0  0  0  0
    9.8044  -16.0492   24.7837 C   0  0  0  0  0  0  0  0  0  0  0  0
   10.7074  -16.8926   24.5450 O   0  0  0  0  0  0  0  0  0  0  0  0
   10.5849  -13.7036   28.1113 C   0  0  0  0  0  0  0  0  0  0  0  0
   10.4538  -15.1947   28.3995 C   0  0  2  0  0  0  0  0  0  0  0  0
   11.5039  -15.5579   29.4226 C   0  0  0  0  0  0  0  0  0  0  0  0
   10.6267  -15.9998   27.1229 C   0  0  2  0  0  0  0  0  0  0  0  0
    9.6704  -15.5923   26.1136 N   0  0  0  0  0  0  0  0  0  0  0  0
   10.5178  -17.4477   27.4287 C   0  0  0  0  0  0  0  0  0  0  0  0
    9.4640  -18.0754   27.1919 O   0  0  0  0  0  0  0  0  0  0  0  0
   11.6019  -18.1214   27.9876 O   0  0  0  0  0  0  0  0  0  0  0  0
  1  2  1  0
  3  2  1  0
  4  3  1  0
  5  7  1  0
  5  6  1  6
  5  4  1  0
  7  8  2  0
  9 10  1  0
  9  7  1  0
 10 11  1  1
 12 11  1  0
 12 13  2  0
 14 13  1  0
 15 14  1  0
 16 15  2  0
 17 16  1  0
 18 17  2  0
 18 19  1  0
 19 20  2  0
 20 15  1  0
 20 12  1  0
 21 10  1  0
 21 22  2  0
 24 23  1  6
 24 26  1  0
 25 24  1  0
 26 27  1  6
 26 28  1  0
 27 21  1  0
 28 29  2  0
 28 30  1  0
M  END
$$$$
