MWV.pdb
     RDKit          3D

 30 31  0  0  1  0  0  0  0  0999 V2000
    6.5660  -12.1366   18.1406 C   0  0  0  0  0  0  0  0  0  0  0  0
    7.2648  -13.2802   16.9258 S   0  0  0  0  0  0  0  0  0  0  0  0
    7.9134  -14.7700   17.7057 C   0  0  0  0  0  0  0  0  0  0  0  0
    8.9259  -14.4161   18.7913 C   0  0  0  0  0  0  0  0  0  0  0  0
    9.3493  -15.6631   19.5465 C   0  0  2  0  0  0  0  0  0  0  0  0
    8.4308  -16.7177   19.1666 N   0  0  0  0  0  0  0  0  0  0  0  0
    9.3494  -15.4475   21.0041 C   0  0  0  0  0  0  0  0  0  0  0  0
   10.2091  -14.6436   21.5019 O   0  0  0  0  0  0  0  0  0  0  0  0
    8.4320  -16.0980   21.8714 N   0  0  0  0  0  0  0  0  0  0  0  0
    8.5199  -15.8447   23.2811 C   0  0  1  0  0  0  0  0  0  0  0  0
    7.1106  -15.8965   23.8451 C   0  0  0  0  0  0  0  0  0  0  0  0
    7.0788  -15.5370   25.2737 C   0  0  0  0  0  0  0  0  0  0  0  0
    6.9190  -16.4296   26.3089 C   0  0  0  0  0  0  0  0  0  0  0  0
    6.9403  -15.7425   27.4868 N   0  0  0  0  0  0  0  0  0  0  0  0
    7.1102  -14.4251   27.2414 C   0  0  0  0  0  0  0  0  0  0  0  0
    7.1980  -13.3339   28.0690 C   0  0  0  0  0  0  0  0  0  0  0  0
    7.3764  -12.0838   27.5077 C   0  0  0  0  0  0  0  0  0  0  0  0
    7.4638  -11.9392   26.1458 C   0  0  0  0  0  0  0  0  0  0  0  0
    7.3733  -13.0457   25.3347 C   0  0  0  0  0  0  0  0  0  0  0  0
    7.1957  -14.3005   25.8683 C   0  0  0  0  0  0  0  0  0  0  0  0
    9.4216  -16.7812   23.9877 C   0  0  0  0  0  0  0  0  0  0  0  0
    9.3040  -18.0066   23.7262 O   0  0  0  0  0  0  0  0  0  0  0  0
   13.2777  -16.4148   24.4430 C   0  0  0  0  0  0  0  0  0  0  0  0
   12.6598  -16.8688   25.7605 C   0  0  2  0  0  0  0  0  0  0  0  0
   13.5637  -17.9252   26.3507 C   0  0  0  0  0  0  0  0  0  0  0  0
   11.2581  -17.4081   25.5320 C   0  0  2  0  0  0  0  0  0  0  0  0
   10.4027  -16.4045   24.9316 N   0  0  0  0  0  0  0  0  0  0  0  0
   10.7016  -17.9074   26.8137 C   0  0  0  0  0  0  0  0  0  0  0  0
    9.9788  -17.1788   27.5259 O   0  0  0  0  0  0  0  0  0  0  0  0
   10.9856  -19.2053   27.2336 O   0  0  0  0  0  0  0  0  0  0  0  0
  1  2  1  0
  3  2  1  0
  4  3  1  0
  5  7  1  0
  5  6  1  1
  5  4  1  0
  7  8  2  0
  9 10  1  0
  9  7  1  0
 10 11  1  1
 12 11  1  0
 12 13  2  0
 14 13  1  0
 15 14  1  0
 16 15  2  0
 17 16  1  0
 18 17  2  0
 18 19  1  0
 19 20  2  0
 20 15  1  0
 20 12  1  0
 21 10  1  0
 21 22  2  0
 24 23  1  6
 24 26  1  0
 25 24  1  0
 26 27  1  1
 26 28  1  0
 27 21  1  0
 28 29  2  0
 28 30  1  0
M  END
$$$$
