MWV.pdb
     RDKit          3D

 30 31  0  0  1  0  0  0  0  0999 V2000
    8.2936  -12.7052   17.5327 C   0  0  0  0  0  0  0  0  0  0  0  0
    9.0913  -14.0525   16.6269 S   0  0  0  0  0  0  0  0  0  0  0  0
    9.9654  -15.1759   17.7324 C   0  0  0  0  0  0  0  0  0  0  0  0
    9.7567  -14.7733   19.1896 C   0  0  0  0  0  0  0  0  0  0  0  0
   10.4670  -15.7456   20.1140 C   0  0  2  0  0  0  0  0  0  0  0  0
    9.9482  -17.0655   19.8158 N   0  0  0  0  0  0  0  0  0  0  0  0
   10.2705  -15.3968   21.5320 C   0  0  0  0  0  0  0  0  0  0  0  0
   10.7895  -14.3151   21.9719 O   0  0  0  0  0  0  0  0  0  0  0  0
    9.5277  -16.2161   22.4231 N   0  0  0  0  0  0  0  0  0  0  0  0
    8.9868  -15.6241   23.6131 C   0  0  1  0  0  0  0  0  0  0  0  0
    7.5037  -15.9495   23.6539 C   0  0  0  0  0  0  0  0  0  0  0  0
    6.8282  -15.2857   24.7826 C   0  0  0  0  0  0  0  0  0  0  0  0
    6.0632  -15.9250   25.7313 C   0  0  0  0  0  0  0  0  0  0  0  0
    5.6006  -14.9981   26.6182 N   0  0  0  0  0  0  0  0  0  0  0  0
    6.0467  -13.7720   26.2683 C   0  0  0  0  0  0  0  0  0  0  0  0
    5.8675  -12.5295   26.8228 C   0  0  0  0  0  0  0  0  0  0  0  0
    6.4661  -11.4384   26.2219 C   0  0  0  0  0  0  0  0  0  0  0  0
    7.2259  -11.5978   25.0903 C   0  0  0  0  0  0  0  0  0  0  0  0
    7.3926  -12.8516   24.5510 C   0  0  0  0  0  0  0  0  0  0  0  0
    6.8076  -13.9533   25.1297 C   0  0  0  0  0  0  0  0  0  0  0  0
    9.6728  -16.0642   24.8481 C   0  0  0  0  0  0  0  0  0  0  0  0
   10.3881  -17.0971   24.7764 O   0  0  0  0  0  0  0  0  0  0  0  0
   10.0515  -13.6299   28.3063 C   0  0  0  0  0  0  0  0  0  0  0  0
   10.0298  -15.1427   28.4919 C   0  0  2  0  0  0  0  0  0  0  0  0
   10.9860  -15.4810   29.6111 C   0  0  0  0  0  0  0  0  0  0  0  0
   10.4222  -15.8421   27.2017 C   0  0  2  0  0  0  0  0  0  0  0  0
    9.5857  -15.4137   26.0989 N   0  0  0  0  0  0  0  0  0  0  0  0
   10.3647  -17.3121   27.3948 C   0  0  0  0  0  0  0  0  0  0  0  0
   11.3807  -17.9539   27.7363 O   0  0  0  0  0  0  0  0  0  0  0  0
    9.1647  -17.9911   27.1940 O   0  0  0  0  0  0  0  0  0  0  0  0
  1  2  1  0
  3  2  1  0
  4  3  1  0
  5  7  1  0
  5  6  1  1
  5  4  1  0
  7  8  2  0
  9 10  1  0
  9  7  1  0
 10 11  1  1
 12 11  1  0
 12 13  2  0
 14 13  1  0
 15 14  1  0
 16 15  2  0
 17 16  1  0
 18 17  2  0
 18 19  1  0
 19 20  2  0
 20 15  1  0
 20 12  1  0
 21 10  1  0
 21 22  2  0
 24 23  1  6
 24 26  1  0
 25 24  1  0
 26 27  1  6
 26 28  1  0
 27 21  1  0
 28 29  2  0
 28 30  1  0
M  END
$$$$
