MWV.pdb
     RDKit          3D

 30 31  0  0  1  0  0  0  0  0999 V2000
    7.7878  -11.5317   20.3277 C   0  0  0  0  0  0  0  0  0  0  0  0
    7.2232  -12.6945   19.0624 S   0  0  0  0  0  0  0  0  0  0  0  0
    7.6815  -14.3914   19.4614 C   0  0  0  0  0  0  0  0  0  0  0  0
    8.2444  -14.4817   20.8769 C   0  0  0  0  0  0  0  0  0  0  0  0
    8.6605  -15.9076   21.1907 C   0  0  2  0  0  0  0  0  0  0  0  0
    7.4625  -16.7202   21.1238 N   0  0  0  0  0  0  0  0  0  0  0  0
    9.3096  -16.0116   22.5094 C   0  0  0  0  0  0  0  0  0  0  0  0
   10.3949  -15.3668   22.7078 O   0  0  0  0  0  0  0  0  0  0  0  0
    8.7740  -16.7989   23.5631 N   0  0  0  0  0  0  0  0  0  0  0  0
    9.4483  -16.8035   24.8298 C   0  0  1  0  0  0  0  0  0  0  0  0
    8.3860  -16.8455   25.9146 C   0  0  0  0  0  0  0  0  0  0  0  0
    7.4502  -15.7123   25.8089 C   0  0  0  0  0  0  0  0  0  0  0  0
    6.1591  -15.7957   25.3397 C   0  0  0  0  0  0  0  0  0  0  0  0
    5.5951  -14.5549   25.3867 N   0  0  0  0  0  0  0  0  0  0  0  0
    6.4888  -13.6676   25.8751 C   0  0  0  0  0  0  0  0  0  0  0  0
    6.4157  -12.3185   26.1160 C   0  0  0  0  0  0  0  0  0  0  0  0
    7.5229  -11.6723   26.6320 C   0  0  0  0  0  0  0  0  0  0  0  0
    8.6742  -12.3703   26.8979 C   0  0  0  0  0  0  0  0  0  0  0  0
    8.7261  -13.7215   26.6493 C   0  0  0  0  0  0  0  0  0  0  0  0
    7.6383  -14.3879   26.1360 C   0  0  0  0  0  0  0  0  0  0  0  0
   10.4142  -17.9151   24.9732 C   0  0  0  0  0  0  0  0  0  0  0  0
   10.0982  -19.0252   24.4716 O   0  0  0  0  0  0  0  0  0  0  0  0
   14.3161  -18.1263   24.4390 C   0  0  0  0  0  0  0  0  0  0  0  0
   13.9410  -18.7046   25.7986 C   0  0  2  0  0  0  0  0  0  0  0  0
   14.7699  -19.9491   26.0119 C   0  0  0  0  0  0  0  0  0  0  0  0
   12.4552  -19.0165   25.8518 C   0  0  2  0  0  0  0  0  0  0  0  0
   11.6620  -17.8246   25.6292 N   0  0  0  0  0  0  0  0  0  0  0  0
   12.1274  -19.6592   27.1484 C   0  0  0  0  0  0  0  0  0  0  0  0
   11.7280  -18.9798   28.1178 O   0  0  0  0  0  0  0  0  0  0  0  0
   12.2649  -21.0382   27.2927 O   0  0  0  0  0  0  0  0  0  0  0  0
  1  2  1  0
  3  2  1  0
  4  3  1  0
  5  7  1  0
  5  6  1  1
  5  4  1  0
  7  8  2  0
  9 10  1  0
  9  7  1  0
 10 11  1  1
 12 11  1  0
 12 13  2  0
 14 13  1  0
 15 14  1  0
 16 15  2  0
 17 16  1  0
 18 17  2  0
 18 19  1  0
 19 20  2  0
 20 15  1  0
 20 12  1  0
 21 10  1  0
 21 22  2  0
 24 23  1  6
 24 26  1  0
 25 24  1  0
 26 27  1  1
 26 28  1  0
 27 21  1  0
 28 29  2  0
 28 30  1  0
M  END
$$$$
