MWV.pdb
     RDKit          3D

 30 31  0  0  1  0  0  0  0  0999 V2000
    7.6754  -11.5633   19.6421 C   0  0  0  0  0  0  0  0  0  0  0  0
    6.6527  -12.8269   18.8487 S   0  0  0  0  0  0  0  0  0  0  0  0
    7.1532  -14.4905   19.3286 C   0  0  0  0  0  0  0  0  0  0  0  0
    8.1109  -14.4466   20.5159 C   0  0  0  0  0  0  0  0  0  0  0  0
    8.5185  -15.8523   20.9190 C   0  0  2  0  0  0  0  0  0  0  0  0
    7.3042  -16.6406   20.9840 N   0  0  0  0  0  0  0  0  0  0  0  0
    9.2401  -15.8667   22.2035 C   0  0  0  0  0  0  0  0  0  0  0  0
   10.3252  -15.1988   22.3014 O   0  0  0  0  0  0  0  0  0  0  0  0
    8.7744  -16.5928   23.3318 N   0  0  0  0  0  0  0  0  0  0  0  0
    9.5618  -16.5794   24.5314 C   0  0  1  0  0  0  0  0  0  0  0  0
    8.6173  -16.7907   25.7021 C   0  0  0  0  0  0  0  0  0  0  0  0
    7.6042  -15.7242   25.7877 C   0  0  0  0  0  0  0  0  0  0  0  0
    6.2671  -15.8809   25.5022 C   0  0  0  0  0  0  0  0  0  0  0  0
    5.6360  -14.6868   25.6917 N   0  0  0  0  0  0  0  0  0  0  0  0
    6.5312  -13.7583   26.0933 C   0  0  0  0  0  0  0  0  0  0  0  0
    6.4059  -12.4290   26.4103 C   0  0  0  0  0  0  0  0  0  0  0  0
    7.5315  -11.7266   26.7967 C   0  0  0  0  0  0  0  0  0  0  0  0
    8.7522  -12.3504   26.8613 C   0  0  0  0  0  0  0  0  0  0  0  0
    8.8556  -13.6831   26.5394 C   0  0  0  0  0  0  0  0  0  0  0  0
    7.7509  -14.4043   26.1519 C   0  0  0  0  0  0  0  0  0  0  0  0
   10.6513  -17.5806   24.5260 C   0  0  0  0  0  0  0  0  0  0  0  0
   10.3326  -18.7822   24.3297 O   0  0  0  0  0  0  0  0  0  0  0  0
   14.3420  -17.1284   22.9592 C   0  0  0  0  0  0  0  0  0  0  0  0
   14.3772  -17.8143   24.3200 C   0  0  2  0  0  0  0  0  0  0  0  0
   15.3990  -18.9243   24.2475 C   0  0  0  0  0  0  0  0  0  0  0  0
   13.0029  -18.3531   24.6791 C   0  0  2  0  0  0  0  0  0  0  0  0
   12.0194  -17.2901   24.7241 N   0  0  0  0  0  0  0  0  0  0  0  0
   13.0766  -19.0870   25.9665 C   0  0  0  0  0  0  0  0  0  0  0  0
   13.2556  -20.3232   25.9904 O   0  0  0  0  0  0  0  0  0  0  0  0
   12.9452  -18.3937   27.1680 O   0  0  0  0  0  0  0  0  0  0  0  0
  1  2  1  0
  3  2  1  0
  4  3  1  0
  5  7  1  0
  5  6  1  1
  5  4  1  0
  7  8  2  0
  9 10  1  0
  9  7  1  0
 10 11  1  1
 12 11  1  0
 12 13  2  0
 14 13  1  0
 15 14  1  0
 16 15  2  0
 17 16  1  0
 18 17  2  0
 18 19  1  0
 19 20  2  0
 20 15  1  0
 20 12  1  0
 21 10  1  0
 21 22  2  0
 24 23  1  6
 24 26  1  0
 25 24  1  0
 26 27  1  1
 26 28  1  0
 27 21  1  0
 28 29  2  0
 28 30  1  0
M  END
$$$$
