MWV.pdb
     RDKit          3D

 30 31  0  0  1  0  0  0  0  0999 V2000
    8.2598  -11.9106   18.5252 C   0  0  0  0  0  0  0  0  0  0  0  0
    7.8898  -13.5915   17.9688 S   0  0  0  0  0  0  0  0  0  0  0  0
    8.5914  -14.8311   19.0733 C   0  0  0  0  0  0  0  0  0  0  0  0
   10.1162  -14.8048   19.0179 C   0  0  0  0  0  0  0  0  0  0  0  0
   10.6992  -15.7625   20.0414 C   0  0  2  0  0  0  0  0  0  0  0  0
   10.2017  -17.0835   19.7133 N   0  0  0  0  0  0  0  0  0  0  0  0
   10.3412  -15.3781   21.4180 C   0  0  0  0  0  0  0  0  0  0  0  0
   10.8507  -14.3127   21.9061 O   0  0  0  0  0  0  0  0  0  0  0  0
    9.4536  -16.1459   22.2179 N   0  0  0  0  0  0  0  0  0  0  0  0
    8.9896  -15.5910   23.4573 C   0  0  1  0  0  0  0  0  0  0  0  0
    7.5257  -15.9669   23.6084 C   0  0  0  0  0  0  0  0  0  0  0  0
    6.9044  -15.2957   24.7635 C   0  0  0  0  0  0  0  0  0  0  0  0
    6.1317  -15.9187   25.7168 C   0  0  0  0  0  0  0  0  0  0  0  0
    5.7296  -14.9894   26.6305 N   0  0  0  0  0  0  0  0  0  0  0  0
    6.2226  -13.7778   26.2934 C   0  0  0  0  0  0  0  0  0  0  0  0
    6.1108  -12.5395   26.8744 C   0  0  0  0  0  0  0  0  0  0  0  0
    6.7447  -11.4646   26.2806 C   0  0  0  0  0  0  0  0  0  0  0  0
    7.4727  -11.6356   25.1299 C   0  0  0  0  0  0  0  0  0  0  0  0
    7.5719  -12.8849   24.5643 C   0  0  0  0  0  0  0  0  0  0  0  0
    6.9506  -13.9706   25.1353 C   0  0  0  0  0  0  0  0  0  0  0  0
    9.7849  -16.0268   24.6264 C   0  0  0  0  0  0  0  0  0  0  0  0
   10.4353  -17.0987   24.5173 O   0  0  0  0  0  0  0  0  0  0  0  0
   11.9256  -15.2518   29.0349 C   0  0  0  0  0  0  0  0  0  0  0  0
   11.0189  -14.7248   27.9286 C   0  0  2  0  0  0  0  0  0  0  0  0
    9.7392  -14.2473   28.5734 C   0  0  0  0  0  0  0  0  0  0  0  0
   10.7467  -15.8110   26.9021 C   0  0  2  0  0  0  0  0  0  0  0  0
    9.8693  -15.3319   25.8534 N   0  0  0  0  0  0  0  0  0  0  0  0
   10.1894  -17.0078   27.5794 C   0  0  0  0  0  0  0  0  0  0  0  0
    8.9596  -17.2278   27.5830 O   0  0  0  0  0  0  0  0  0  0  0  0
   11.0439  -17.9016   28.2215 O   0  0  0  0  0  0  0  0  0  0  0  0
  1  2  1  0
  3  2  1  0
  4  3  1  0
  5  7  1  0
  5  6  1  6
  5  4  1  0
  7  8  2  0
  9 10  1  0
  9  7  1  0
 10 11  1  1
 12 11  1  0
 12 13  2  0
 14 13  1  0
 15 14  1  0
 16 15  2  0
 17 16  1  0
 18 17  2  0
 18 19  1  0
 19 20  2  0
 20 15  1  0
 20 12  1  0
 21 10  1  0
 21 22  2  0
 24 23  1  1
 24 26  1  0
 25 24  1  0
 26 27  1  6
 26 28  1  0
 27 21  1  0
 28 29  2  0
 28 30  1  0
M  END
$$$$
