MWV.pdb
     RDKit          3D

 30 31  0  0  1  0  0  0  0  0999 V2000
    8.4676  -12.4692   18.1558 C   0  0  0  0  0  0  0  0  0  0  0  0
    8.4916  -14.0517   17.2799 S   0  0  0  0  0  0  0  0  0  0  0  0
    9.4001  -15.3097   18.1967 C   0  0  0  0  0  0  0  0  0  0  0  0
   10.2854  -14.6697   19.2623 C   0  0  0  0  0  0  0  0  0  0  0  0
   10.7417  -15.7123   20.2669 C   0  0  2  0  0  0  0  0  0  0  0  0
   10.1355  -16.9688   19.8746 N   0  0  0  0  0  0  0  0  0  0  0  0
   10.3737  -15.3434   21.6451 C   0  0  0  0  0  0  0  0  0  0  0  0
   10.8828  -14.2857   22.1503 O   0  0  0  0  0  0  0  0  0  0  0  0
    9.4771  -16.1177   22.4284 N   0  0  0  0  0  0  0  0  0  0  0  0
    8.9818  -15.5642   23.6562 C   0  0  1  0  0  0  0  0  0  0  0  0
    7.4876  -15.8318   23.7099 C   0  0  0  0  0  0  0  0  0  0  0  0
    6.8622  -15.2111   24.8909 C   0  0  0  0  0  0  0  0  0  0  0  0
    6.2176  -15.8970   25.8949 C   0  0  0  0  0  0  0  0  0  0  0  0
    5.7679  -15.0004   26.8189 N   0  0  0  0  0  0  0  0  0  0  0  0
    6.1049  -13.7486   26.4392 C   0  0  0  0  0  0  0  0  0  0  0  0
    5.8905  -12.5194   27.0105 C   0  0  0  0  0  0  0  0  0  0  0  0
    6.3680  -11.3930   26.3680 C   0  0  0  0  0  0  0  0  0  0  0  0
    7.0444  -11.5048   25.1792 C   0  0  0  0  0  0  0  0  0  0  0  0
    7.2484  -12.7460   24.6240 C   0  0  0  0  0  0  0  0  0  0  0  0
    6.7833  -13.8822   25.2433 C   0  0  0  0  0  0  0  0  0  0  0  0
    9.6707  -16.0918   24.8546 C   0  0  0  0  0  0  0  0  0  0  0  0
   10.4484  -17.0680   24.6927 O   0  0  0  0  0  0  0  0  0  0  0  0
   10.3147  -13.7736   28.2500 C   0  0  0  0  0  0  0  0  0  0  0  0
   10.1548  -15.2673   28.5086 C   0  0  2  0  0  0  0  0  0  0  0  0
   11.1495  -15.6565   29.5766 C   0  0  0  0  0  0  0  0  0  0  0  0
   10.3826  -16.0553   27.2300 C   0  0  2  0  0  0  0  0  0  0  0  0
    9.5219  -15.5836   26.1642 N   0  0  0  0  0  0  0  0  0  0  0  0
   10.1852  -17.5019   27.4948 C   0  0  0  0  0  0  0  0  0  0  0  0
    9.0488  -18.0165   27.4281 O   0  0  0  0  0  0  0  0  0  0  0  0
   11.2779  -18.3019   27.8226 O   0  0  0  0  0  0  0  0  0  0  0  0
  1  2  1  0
  3  2  1  0
  4  3  1  0
  5  7  1  0
  5  6  1  6
  5  4  1  0
  7  8  2  0
  9 10  1  0
  9  7  1  0
 10 11  1  1
 12 11  1  0
 12 13  2  0
 14 13  1  0
 15 14  1  0
 16 15  2  0
 17 16  1  0
 18 17  2  0
 18 19  1  0
 19 20  2  0
 20 15  1  0
 20 12  1  0
 21 10  1  0
 21 22  2  0
 24 23  1  6
 24 26  1  0
 25 24  1  0
 26 27  1  6
 26 28  1  0
 27 21  1  0
 28 29  2  0
 28 30  1  0
M  END
$$$$
