MWV.pdb
     RDKit          3D

 30 31  0  0  1  0  0  0  0  0999 V2000
    7.9241  -11.4840   19.7482 C   0  0  0  0  0  0  0  0  0  0  0  0
    7.5621  -12.8368   18.6033 S   0  0  0  0  0  0  0  0  0  0  0  0
    6.9894  -14.3103   19.4689 C   0  0  0  0  0  0  0  0  0  0  0  0
    7.5707  -14.3705   20.8786 C   0  0  0  0  0  0  0  0  0  0  0  0
    8.2029  -15.7271   21.1327 C   0  0  2  0  0  0  0  0  0  0  0  0
    7.1183  -16.6792   21.2637 N   0  0  0  0  0  0  0  0  0  0  0  0
    9.0591  -15.7169   22.3317 C   0  0  0  0  0  0  0  0  0  0  0  0
   10.0916  -14.9639   22.3379 O   0  0  0  0  0  0  0  0  0  0  0  0
    8.7788  -16.5103   23.4759 N   0  0  0  0  0  0  0  0  0  0  0  0
    9.6346  -16.3920   24.6217 C   0  0  1  0  0  0  0  0  0  0  0  0
    8.7679  -16.5475   25.8593 C   0  0  0  0  0  0  0  0  0  0  0  0
    7.6706  -15.5645   25.8864 C   0  0  0  0  0  0  0  0  0  0  0  0
    6.3385  -15.8635   25.7132 C   0  0  0  0  0  0  0  0  0  0  0  0
    5.6157  -14.7103   25.8021 N   0  0  0  0  0  0  0  0  0  0  0  0
    6.4465  -13.6696   26.0288 C   0  0  0  0  0  0  0  0  0  0  0  0
    6.2220  -12.3258   26.1936 C   0  0  0  0  0  0  0  0  0  0  0  0
    7.3011  -11.4918   26.4164 C   0  0  0  0  0  0  0  0  0  0  0  0
    8.5741  -12.0015   26.4713 C   0  0  0  0  0  0  0  0  0  0  0  0
    8.7768  -13.3511   26.3036 C   0  0  0  0  0  0  0  0  0  0  0  0
    7.7201  -14.2021   26.0805 C   0  0  0  0  0  0  0  0  0  0  0  0
   10.7531  -17.3607   24.6176 C   0  0  0  0  0  0  0  0  0  0  0  0
   10.4685  -18.5730   24.4358 O   0  0  0  0  0  0  0  0  0  0  0  0
   14.3995  -16.7990   23.0318 C   0  0  0  0  0  0  0  0  0  0  0  0
   14.4809  -17.4958   24.3851 C   0  0  2  0  0  0  0  0  0  0  0  0
   15.5214  -18.5855   24.2778 C   0  0  0  0  0  0  0  0  0  0  0  0
   13.1262  -18.0638   24.7727 C   0  0  2  0  0  0  0  0  0  0  0  0
   12.1135  -17.0281   24.8019 N   0  0  0  0  0  0  0  0  0  0  0  0
   13.2340  -18.7625   26.0772 C   0  0  0  0  0  0  0  0  0  0  0  0
   12.9892  -18.1649   27.1466 O   0  0  0  0  0  0  0  0  0  0  0  0
   13.6128  -20.1028   26.1163 O   0  0  0  0  0  0  0  0  0  0  0  0
  1  2  1  0
  3  2  1  0
  4  3  1  0
  5  7  1  0
  5  6  1  1
  5  4  1  0
  7  8  2  0
  9 10  1  0
  9  7  1  0
 10 11  1  1
 12 11  1  0
 12 13  2  0
 14 13  1  0
 15 14  1  0
 16 15  2  0
 17 16  1  0
 18 17  2  0
 18 19  1  0
 19 20  2  0
 20 15  1  0
 20 12  1  0
 21 10  1  0
 21 22  2  0
 24 23  1  6
 24 26  1  0
 25 24  1  0
 26 27  1  1
 26 28  1  0
 27 21  1  0
 28 29  2  0
 28 30  1  0
M  END
$$$$
