MWV.pdb
     RDKit          3D

 30 31  0  0  1  0  0  0  0  0999 V2000
    7.9992  -11.8958   19.1530 C   0  0  0  0  0  0  0  0  0  0  0  0
    8.2864  -13.2630   18.0040 S   0  0  0  0  0  0  0  0  0  0  0  0
    9.2445  -14.5862   18.7653 C   0  0  0  0  0  0  0  0  0  0  0  0
    8.7241  -14.8946   20.1663 C   0  0  0  0  0  0  0  0  0  0  0  0
    9.6937  -15.8010   20.9032 C   0  0  2  0  0  0  0  0  0  0  0  0
    9.2891  -17.1646   20.6259 N   0  0  0  0  0  0  0  0  0  0  0  0
    9.7083  -15.5267   22.3507 C   0  0  0  0  0  0  0  0  0  0  0  0
   10.2137  -14.4259   22.7582 O   0  0  0  0  0  0  0  0  0  0  0  0
    9.1826  -16.4378   23.3050 N   0  0  0  0  0  0  0  0  0  0  0  0
    8.8970  -15.9601   24.6277 C   0  0  1  0  0  0  0  0  0  0  0  0
    7.5660  -16.5557   25.0529 C   0  0  0  0  0  0  0  0  0  0  0  0
    6.5556  -15.5136   25.3059 C   0  0  0  0  0  0  0  0  0  0  0  0
    5.1981  -15.7300   25.3734 C   0  0  0  0  0  0  0  0  0  0  0  0
    4.5771  -14.5416   25.6224 N   0  0  0  0  0  0  0  0  0  0  0  0
    5.4986  -13.5585   25.7182 C   0  0  0  0  0  0  0  0  0  0  0  0
    5.3922  -12.2109   25.9550 C   0  0  0  0  0  0  0  0  0  0  0  0
    6.5438  -11.4481   25.9961 C   0  0  0  0  0  0  0  0  0  0  0  0
    7.7712  -12.0310   25.8032 C   0  0  0  0  0  0  0  0  0  0  0  0
    7.8553  -13.3830   25.5675 C   0  0  0  0  0  0  0  0  0  0  0  0
    6.7245  -14.1640   25.5215 C   0  0  0  0  0  0  0  0  0  0  0  0
    9.9657  -16.2687   25.6034 C   0  0  0  0  0  0  0  0  0  0  0  0
   10.9306  -16.9704   25.2028 O   0  0  0  0  0  0  0  0  0  0  0  0
   10.9939  -14.0264   28.9663 C   0  0  0  0  0  0  0  0  0  0  0  0
   10.9726  -15.5371   29.1688 C   0  0  2  0  0  0  0  0  0  0  0  0
   12.1410  -15.8973   30.0556 C   0  0  0  0  0  0  0  0  0  0  0  0
   11.0543  -16.2536   27.8317 C   0  0  2  0  0  0  0  0  0  0  0  0
    9.9848  -15.8359   26.9479 N   0  0  0  0  0  0  0  0  0  0  0  0
   11.0426  -17.7210   28.0515 C   0  0  0  0  0  0  0  0  0  0  0  0
    9.9737  -18.3665   28.0127 O   0  0  0  0  0  0  0  0  0  0  0  0
   12.2364  -18.3933   28.3051 O   0  0  0  0  0  0  0  0  0  0  0  0
  1  2  1  0
  3  2  1  0
  4  3  1  0
  5  7  1  0
  5  6  1  1
  5  4  1  0
  7  8  2  0
  9 10  1  0
  9  7  1  0
 10 11  1  1
 12 11  1  0
 12 13  2  0
 14 13  1  0
 15 14  1  0
 16 15  2  0
 17 16  1  0
 18 17  2  0
 18 19  1  0
 19 20  2  0
 20 15  1  0
 20 12  1  0
 21 10  1  0
 21 22  2  0
 24 23  1  6
 24 26  1  0
 25 24  1  0
 26 27  1  6
 26 28  1  0
 27 21  1  0
 28 29  2  0
 28 30  1  0
M  END
$$$$
