HTT.pdb
     RDKit          3D

 25 25  0  0  1  0  0  0  0  0999 V2000
    8.2015  -13.3855   17.1722 N   0  0  0  0  0  0  0  0  0  0  0  0
    8.6468  -14.5757   17.8268 C   0  0  1  0  0  0  0  0  0  0  0  0
   10.1491  -14.4291   18.0720 C   0  0  0  0  0  0  0  0  0  0  0  0
   10.9270  -15.0075   16.9329 C   0  0  0  0  0  0  0  0  0  0  0  0
   10.3456  -15.5104   15.7726 C   0  0  0  0  0  0  0  0  0  0  0  0
   11.2997  -15.9493   14.9569 N   0  0  0  0  0  0  0  0  0  0  0  0
   12.4652  -15.7289   15.5880 C   0  0  0  0  0  0  0  0  0  0  0  0
   12.2422  -15.1584   16.7855 N   0  0  0  0  0  0  0  0  0  0  0  0
    8.0201  -14.7683   19.1593 C   0  0  0  0  0  0  0  0  0  0  0  0
    7.5752  -13.7940   19.8249 O   0  0  0  0  0  0  0  0  0  0  0  0
    5.5919  -17.7902   22.2479 C   0  0  0  0  0  0  0  0  0  0  0  0
    6.5575  -17.6251   21.0902 C   0  0  1  0  0  0  0  0  0  0  0  0
    5.8543  -17.9082   19.9335 O   0  0  0  0  0  0  0  0  0  0  0  0
    7.1040  -16.2341   20.9963 C   0  0  2  0  0  0  0  0  0  0  0  0
    7.8743  -16.0341   19.7774 N   0  0  0  0  0  0  0  0  0  0  0  0
    7.8947  -15.9249   22.1923 C   0  0  0  0  0  0  0  0  0  0  0  0
    9.1575  -16.0605   22.2336 O   0  0  0  0  0  0  0  0  0  0  0  0
    7.2959  -12.8169   24.5315 C   0  0  0  0  0  0  0  0  0  0  0  0
    7.4839  -14.0389   25.4103 C   0  0  1  0  0  0  0  0  0  0  0  0
    6.1994  -14.4210   25.8326 O   0  0  0  0  0  0  0  0  0  0  0  0
    8.1164  -15.1014   24.5611 C   0  0  2  0  0  0  0  0  0  0  0  0
    7.3338  -15.4487   23.4000 N   0  0  0  0  0  0  0  0  0  0  0  0
    8.3716  -16.2928   25.3826 C   0  0  0  0  0  0  0  0  0  0  0  0
    9.2188  -16.3092   26.4640 O   0  0  0  0  0  0  0  0  0  0  0  0
    7.7889  -17.3862   25.1005 O   0  0  0  0  0  0  0  0  0  0  0  0
  2  9  1  0
  2  1  1  1
  3  2  1  0
  4  3  1  0
  5  4  2  0
  6  5  1  0
  7  6  1  0
  7  8  2  0
  8  4  1  0
  9 10  2  0
 12 11  1  1
 12 13  1  0
 12 14  1  0
 14 15  1  6
 15  9  1  0
 16 14  1  0
 16 17  2  0
 19 18  1  6
 19 21  1  0
 20 19  1  0
 21 22  1  6
 21 23  1  0
 22 16  1  0
 23 24  1  0
 25 23  2  0
M  END
$$$$
