HTT.pdb
     RDKit          3D

 25 25  0  0  1  0  0  0  0  0999 V2000
    8.0733  -16.9134   20.0992 N   0  0  0  0  0  0  0  0  0  0  0  0
    8.6492  -15.9014   20.9284 C   0  0  1  0  0  0  0  0  0  0  0  0
    7.7324  -14.6792   20.8634 C   0  0  0  0  0  0  0  0  0  0  0  0
    7.7822  -14.0558   19.5047 C   0  0  0  0  0  0  0  0  0  0  0  0
    8.3855  -12.8309   19.2347 C   0  0  0  0  0  0  0  0  0  0  0  0
    8.2617  -12.5554   17.9397 N   0  0  0  0  0  0  0  0  0  0  0  0
    7.5920  -13.5865   17.3978 C   0  0  0  0  0  0  0  0  0  0  0  0
    7.3004  -14.4970   18.3439 N   0  0  0  0  0  0  0  0  0  0  0  0
    8.7188  -16.2992   22.3575 C   0  0  0  0  0  0  0  0  0  0  0  0
    7.6885  -16.6497   22.9945 O   0  0  0  0  0  0  0  0  0  0  0  0
   11.0498  -18.5426   25.9698 C   0  0  0  0  0  0  0  0  0  0  0  0
   10.9885  -17.9608   24.5707 C   0  0  1  0  0  0  0  0  0  0  0  0
   10.5999  -18.9830   23.7242 O   0  0  0  0  0  0  0  0  0  0  0  0
   10.0015  -16.8400   24.4610 C   0  0  2  0  0  0  0  0  0  0  0  0
    9.9216  -16.3171   23.1048 N   0  0  0  0  0  0  0  0  0  0  0  0
   10.3300  -15.7871   25.4278 C   0  0  0  0  0  0  0  0  0  0  0  0
   11.2510  -14.9348   25.2272 O   0  0  0  0  0  0  0  0  0  0  0  0
    8.8490  -12.7629   26.6747 C   0  0  0  0  0  0  0  0  0  0  0  0
    8.9725  -13.6205   27.9198 C   0  0  1  0  0  0  0  0  0  0  0  0
    7.7194  -14.2288   28.1043 O   0  0  0  0  0  0  0  0  0  0  0  0
   10.0387  -14.6407   27.6502 C   0  0  2  0  0  0  0  0  0  0  0  0
    9.6586  -15.6196   26.6610 N   0  0  0  0  0  0  0  0  0  0  0  0
   10.4093  -15.3012   28.9095 C   0  0  0  0  0  0  0  0  0  0  0  0
   10.9143  -14.6380   30.0016 O   0  0  0  0  0  0  0  0  0  0  0  0
   10.2655  -16.5585   29.0246 O   0  0  0  0  0  0  0  0  0  0  0  0
  2  9  1  0
  2  1  1  6
  3  2  1  0
  4  3  1  0
  5  4  2  0
  6  5  1  0
  7  6  1  0
  7  8  2  0
  8  4  1  0
  9 10  2  0
 12 11  1  1
 12 13  1  0
 12 14  1  0
 14 15  1  6
 15  9  1  0
 16 14  1  0
 16 17  2  0
 19 18  1  6
 19 21  1  0
 20 19  1  0
 21 22  1  6
 21 23  1  0
 22 16  1  0
 23 24  1  0
 25 23  2  0
M  END
$$$$
