HTT.pdb
     RDKit          3D

 25 25  0  0  1  0  0  0  0  0999 V2000
    8.3228  -16.7063   19.5199 N   0  0  0  0  0  0  0  0  0  0  0  0
    8.6400  -15.7775   20.5592 C   0  0  1  0  0  0  0  0  0  0  0  0
    7.6224  -14.6386   20.4823 C   0  0  0  0  0  0  0  0  0  0  0  0
    7.7170  -13.9365   19.1650 C   0  0  0  0  0  0  0  0  0  0  0  0
    8.4438  -12.7674   18.9594 C   0  0  0  0  0  0  0  0  0  0  0  0
    8.3295  -12.3962   17.6876 N   0  0  0  0  0  0  0  0  0  0  0  0
    7.5446  -13.3128   17.0970 C   0  0  0  0  0  0  0  0  0  0  0  0
    7.1721  -14.2472   17.9899 N   0  0  0  0  0  0  0  0  0  0  0  0
    8.5104  -16.3663   21.9163 C   0  0  0  0  0  0  0  0  0  0  0  0
    7.5990  -17.1935   22.1910 O   0  0  0  0  0  0  0  0  0  0  0  0
    9.1406  -18.9549   22.8269 C   0  0  0  0  0  0  0  0  0  0  0  0
    9.9911  -18.2541   23.8686 C   0  0  1  0  0  0  0  0  0  0  0  0
   11.2689  -18.1566   23.3487 O   0  0  0  0  0  0  0  0  0  0  0  0
    9.4904  -16.8784   24.1834 C   0  0  2  0  0  0  0  0  0  0  0  0
    9.3805  -16.0536   22.9889 N   0  0  0  0  0  0  0  0  0  0  0  0
   10.3482  -16.2527   25.1953 C   0  0  0  0  0  0  0  0  0  0  0  0
   11.4222  -15.6408   24.9007 O   0  0  0  0  0  0  0  0  0  0  0  0
    8.7395  -14.2259   28.1171 C   0  0  0  0  0  0  0  0  0  0  0  0
   10.1837  -14.0705   27.6800 C   0  0  1  0  0  0  0  0  0  0  0  0
   10.8272  -13.3475   28.6985 O   0  0  0  0  0  0  0  0  0  0  0  0
   10.7565  -15.4505   27.5465 C   0  0  2  0  0  0  0  0  0  0  0  0
   10.0637  -16.2678   26.5805 N   0  0  0  0  0  0  0  0  0  0  0  0
   10.7610  -16.1045   28.8624 C   0  0  0  0  0  0  0  0  0  0  0  0
   11.5172  -15.6767   29.9267 O   0  0  0  0  0  0  0  0  0  0  0  0
   10.0331  -17.1277   29.0573 O   0  0  0  0  0  0  0  0  0  0  0  0
  2  9  1  0
  2  1  1  6
  3  2  1  0
  4  3  1  0
  5  4  2  0
  6  5  1  0
  7  6  1  0
  7  8  2  0
  8  4  1  0
  9 10  2  0
 12 11  1  6
 12 13  1  0
 12 14  1  0
 14 15  1  6
 15  9  1  0
 16 14  1  0
 16 17  2  0
 19 18  1  1
 19 21  1  0
 20 19  1  0
 21 22  1  6
 21 23  1  0
 22 16  1  0
 23 24  1  0
 25 23  2  0
M  END
$$$$
