HTT.pdb
     RDKit          3D

 25 25  0  0  1  0  0  0  0  0999 V2000
    6.1297  -16.2109   20.9993 N   0  0  0  0  0  0  0  0  0  0  0  0
    7.4233  -15.8070   21.4543 C   0  0  1  0  0  0  0  0  0  0  0  0
    7.4547  -14.2781   21.4474 C   0  0  0  0  0  0  0  0  0  0  0  0
    7.8372  -13.7659   20.0952 C   0  0  0  0  0  0  0  0  0  0  0  0
    6.9763  -13.0572   19.2620 C   0  0  0  0  0  0  0  0  0  0  0  0
    7.6117  -12.7443   18.1366 N   0  0  0  0  0  0  0  0  0  0  0  0
    8.8530  -13.2451   18.2534 C   0  0  0  0  0  0  0  0  0  0  0  0
    8.9922  -13.8646   19.4391 N   0  0  0  0  0  0  0  0  0  0  0  0
    7.6987  -16.2269   22.8518 C   0  0  0  0  0  0  0  0  0  0  0  0
    6.7738  -16.3299   23.7029 O   0  0  0  0  0  0  0  0  0  0  0  0
   10.2453  -18.8707   26.0568 C   0  0  0  0  0  0  0  0  0  0  0  0
   10.0629  -18.2883   24.6686 C   0  0  1  0  0  0  0  0  0  0  0  0
    9.4145  -19.2459   23.9102 O   0  0  0  0  0  0  0  0  0  0  0  0
    9.2387  -17.0382   24.6774 C   0  0  2  0  0  0  0  0  0  0  0  0
    8.9938  -16.5392   23.3320 N   0  0  0  0  0  0  0  0  0  0  0  0
    9.8770  -16.0234   25.5224 C   0  0  0  0  0  0  0  0  0  0  0  0
   10.8339  -15.2938   25.1139 O   0  0  0  0  0  0  0  0  0  0  0  0
    8.8116  -12.8944   26.7392 C   0  0  0  0  0  0  0  0  0  0  0  0
    9.1446  -13.6243   28.0266 C   0  0  1  0  0  0  0  0  0  0  0  0
    7.9288  -14.1278   28.5191 O   0  0  0  0  0  0  0  0  0  0  0  0
   10.0906  -14.7338   27.6741 C   0  0  2  0  0  0  0  0  0  0  0  0
    9.4910  -15.7606   26.8572 N   0  0  0  0  0  0  0  0  0  0  0  0
   10.6399  -15.3148   28.9070 C   0  0  0  0  0  0  0  0  0  0  0  0
   11.3613  -14.6016   29.8335 O   0  0  0  0  0  0  0  0  0  0  0  0
   10.4529  -16.5463   29.1580 O   0  0  0  0  0  0  0  0  0  0  0  0
  2  9  1  0
  2  1  1  1
  3  2  1  0
  4  3  1  0
  5  4  2  0
  6  5  1  0
  7  6  1  0
  7  8  2  0
  8  4  1  0
  9 10  2  0
 12 11  1  1
 12 13  1  0
 12 14  1  0
 14 15  1  6
 15  9  1  0
 16 14  1  0
 16 17  2  0
 19 18  1  6
 19 21  1  0
 20 19  1  0
 21 22  1  1
 21 23  1  0
 22 16  1  0
 23 24  1  0
 25 23  2  0
M  END
$$$$
