HTT.pdb
     RDKit          3D

 25 25  0  0  1  0  0  0  0  0999 V2000
   10.4349  -16.4391   18.7738 N   0  0  0  0  0  0  0  0  0  0  0  0
   10.6715  -15.7616   20.0101 C   0  0  1  0  0  0  0  0  0  0  0  0
   11.1314  -14.3424   19.6741 C   0  0  0  0  0  0  0  0  0  0  0  0
   12.5613  -14.3427   19.2354 C   0  0  0  0  0  0  0  0  0  0  0  0
   13.6395  -14.2019   20.1043 C   0  0  0  0  0  0  0  0  0  0  0  0
   14.7727  -14.2431   19.4098 N   0  0  0  0  0  0  0  0  0  0  0  0
   14.4202  -14.4071   18.1237 C   0  0  0  0  0  0  0  0  0  0  0  0
   13.0808  -14.4677   18.0153 N   0  0  0  0  0  0  0  0  0  0  0  0
    9.4438  -15.6219   20.8338 C   0  0  0  0  0  0  0  0  0  0  0  0
    8.3096  -15.9416   20.3848 O   0  0  0  0  0  0  0  0  0  0  0  0
    8.0834  -17.6662   21.9443 C   0  0  0  0  0  0  0  0  0  0  0  0
    8.2999  -16.9797   23.2791 C   0  0  1  0  0  0  0  0  0  0  0  0
    9.4712  -17.4880   23.8101 O   0  0  0  0  0  0  0  0  0  0  0  0
    8.4350  -15.4947   23.1422 C   0  0  2  0  0  0  0  0  0  0  0  0
    9.4468  -15.1292   22.1614 N   0  0  0  0  0  0  0  0  0  0  0  0
    8.7097  -14.8940   24.4518 C   0  0  0  0  0  0  0  0  0  0  0  0
    9.8854  -14.7764   24.9194 O   0  0  0  0  0  0  0  0  0  0  0  0
    6.6243  -11.6866   25.9382 C   0  0  0  0  0  0  0  0  0  0  0  0
    6.8144  -12.7951   26.9561 C   0  0  1  0  0  0  0  0  0  0  0  0
    5.6247  -13.5426   26.9503 O   0  0  0  0  0  0  0  0  0  0  0  0
    7.9791  -13.6217   26.4977 C   0  0  2  0  0  0  0  0  0  0  0  0
    7.7036  -14.3911   25.3089 N   0  0  0  0  0  0  0  0  0  0  0  0
    8.4098  -14.5039   27.5911 C   0  0  0  0  0  0  0  0  0  0  0  0
    8.4815  -15.8719   27.4874 O   0  0  0  0  0  0  0  0  0  0  0  0
    8.7414  -14.0007   28.7099 O   0  0  0  0  0  0  0  0  0  0  0  0
  2  9  1  0
  2  1  1  6
  3  2  1  0
  4  3  1  0
  5  4  2  0
  6  5  1  0
  7  6  1  0
  7  8  2  0
  8  4  1  0
  9 10  2  0
 12 11  1  6
 12 13  1  0
 12 14  1  0
 14 15  1  6
 15  9  1  0
 16 14  1  0
 16 17  2  0
 19 18  1  6
 19 21  1  0
 20 19  1  0
 21 22  1  6
 21 23  1  0
 22 16  1  0
 23 24  1  0
 25 23  2  0
M  END
$$$$
