HTT.pdb
     RDKit          3D

 25 25  0  0  1  0  0  0  0  0999 V2000
    7.9977  -18.6421   16.7471 N   0  0  0  0  0  0  0  0  0  0  0  0
    8.8196  -18.0233   17.7395 C   0  0  1  0  0  0  0  0  0  0  0  0
    9.4540  -16.7861   17.1028 C   0  0  0  0  0  0  0  0  0  0  0  0
   10.6151  -17.1736   16.2433 C   0  0  0  0  0  0  0  0  0  0  0  0
   11.1609  -18.4535   16.2075 C   0  0  0  0  0  0  0  0  0  0  0  0
   12.1762  -18.4750   15.3491 N   0  0  0  0  0  0  0  0  0  0  0  0
   12.2730  -17.2316   14.8492 C   0  0  0  0  0  0  0  0  0  0  0  0
   11.3283  -16.4411   15.3893 N   0  0  0  0  0  0  0  0  0  0  0  0
    8.0438  -17.5424   18.9109 C   0  0  0  0  0  0  0  0  0  0  0  0
    6.8975  -17.0340   18.7779 O   0  0  0  0  0  0  0  0  0  0  0  0
    6.3313  -19.3345   21.0648 C   0  0  0  0  0  0  0  0  0  0  0  0
    7.0997  -18.4696   22.0452 C   0  0  1  0  0  0  0  0  0  0  0  0
    8.1183  -19.2500   22.5609 O   0  0  0  0  0  0  0  0  0  0  0  0
    7.6981  -17.2614   21.3937 C   0  0  2  0  0  0  0  0  0  0  0  0
    8.5178  -17.6141   20.2435 N   0  0  0  0  0  0  0  0  0  0  0  0
    8.4564  -16.4846   22.3800 C   0  0  0  0  0  0  0  0  0  0  0  0
    9.7254  -16.4185   22.3723 O   0  0  0  0  0  0  0  0  0  0  0  0
    7.4893  -12.8374   23.8073 C   0  0  0  0  0  0  0  0  0  0  0  0
    7.7920  -13.8038   24.9366 C   0  0  1  0  0  0  0  0  0  0  0  0
    6.5491  -14.2579   25.4094 O   0  0  0  0  0  0  0  0  0  0  0  0
    8.5964  -14.9276   24.3535 C   0  0  2  0  0  0  0  0  0  0  0  0
    7.8542  -15.7403   23.4208 N   0  0  0  0  0  0  0  0  0  0  0  0
    9.1339  -15.7565   25.4413 C   0  0  0  0  0  0  0  0  0  0  0  0
    8.8196  -17.0820   25.6201 O   0  0  0  0  0  0  0  0  0  0  0  0
    9.9387  -15.2451   26.2812 O   0  0  0  0  0  0  0  0  0  0  0  0
  2  9  1  0
  2  1  1  6
  3  2  1  0
  4  3  1  0
  5  4  2  0
  6  5  1  0
  7  6  1  0
  7  8  2  0
  8  4  1  0
  9 10  2  0
 12 11  1  6
 12 13  1  0
 12 14  1  0
 14 15  1  6
 15  9  1  0
 16 14  1  0
 16 17  2  0
 19 18  1  6
 19 21  1  0
 20 19  1  0
 21 22  1  6
 21 23  1  0
 22 16  1  0
 23 24  1  0
 25 23  2  0
M  END
$$$$
