HTT.pdb
     RDKit          3D

 25 25  0  0  1  0  0  0  0  0999 V2000
   12.2227  -14.4413   16.5952 N   0  0  0  0  0  0  0  0  0  0  0  0
   12.0579  -15.2888   17.7344 C   0  0  1  0  0  0  0  0  0  0  0  0
   13.4536  -15.6258   18.2607 C   0  0  0  0  0  0  0  0  0  0  0  0
   14.2000  -16.4649   17.2727 C   0  0  0  0  0  0  0  0  0  0  0  0
   13.6410  -17.5414   16.5902 C   0  0  0  0  0  0  0  0  0  0  0  0
   14.5567  -18.0778   15.7890 N   0  0  0  0  0  0  0  0  0  0  0  0
   15.6763  -17.3549   15.9599 C   0  0  0  0  0  0  0  0  0  0  0  0
   15.4629  -16.3770   16.8583 N   0  0  0  0  0  0  0  0  0  0  0  0
   11.3381  -14.6214   18.8488 C   0  0  0  0  0  0  0  0  0  0  0  0
   11.7374  -13.5253   19.3278 O   0  0  0  0  0  0  0  0  0  0  0  0
    8.4953  -12.7796   18.8388 C   0  0  0  0  0  0  0  0  0  0  0  0
    8.1829  -13.8000   19.9163 C   0  0  1  0  0  0  0  0  0  0  0  0
    7.3990  -14.7781   19.3321 O   0  0  0  0  0  0  0  0  0  0  0  0
    9.4175  -14.4381   20.4737 C   0  0  2  0  0  0  0  0  0  0  0  0
   10.1705  -15.1498   19.4510 N   0  0  0  0  0  0  0  0  0  0  0  0
    9.0651  -15.3160   21.5946 C   0  0  0  0  0  0  0  0  0  0  0  0
    8.9233  -16.5721   21.4638 O   0  0  0  0  0  0  0  0  0  0  0  0
   10.5632  -16.7990   24.2726 C   0  0  0  0  0  0  0  0  0  0  0  0
    9.4943  -16.0008   24.9946 C   0  0  1  0  0  0  0  0  0  0  0  0
   10.1172  -14.8230   25.4408 O   0  0  0  0  0  0  0  0  0  0  0  0
    8.4155  -15.7017   23.9962 C   0  0  2  0  0  0  0  0  0  0  0  0
    8.8545  -14.8541   22.9144 N   0  0  0  0  0  0  0  0  0  0  0  0
    7.2673  -15.0985   24.6869 C   0  0  0  0  0  0  0  0  0  0  0  0
    6.5390  -15.7368   25.6614 O   0  0  0  0  0  0  0  0  0  0  0  0
    6.9032  -13.9187   24.3865 O   0  0  0  0  0  0  0  0  0  0  0  0
  2  9  1  0
  2  1  1  6
  3  2  1  0
  4  3  1  0
  5  4  2  0
  6  5  1  0
  7  6  1  0
  7  8  2  0
  8  4  1  0
  9 10  2  0
 12 11  1  6
 12 13  1  0
 12 14  1  0
 14 15  1  6
 15  9  1  0
 16 14  1  0
 16 17  2  0
 19 18  1  6
 19 21  1  0
 20 19  1  0
 21 22  1  6
 21 23  1  0
 22 16  1  0
 23 24  1  0
 25 23  2  0
M  END
$$$$
