HTT.pdb
     RDKit          3D

 25 25  0  0  1  0  0  0  0  0999 V2000
   11.6603  -16.5682   18.5350 N   0  0  0  0  0  0  0  0  0  0  0  0
   11.7299  -15.8766   19.7841 C   0  0  1  0  0  0  0  0  0  0  0  0
   12.1741  -14.4431   19.4901 C   0  0  0  0  0  0  0  0  0  0  0  0
   13.6576  -14.3786   19.3098 C   0  0  0  0  0  0  0  0  0  0  0  0
   14.5741  -14.8408   20.2497 C   0  0  0  0  0  0  0  0  0  0  0  0
   15.8081  -14.6421   19.7957 N   0  0  0  0  0  0  0  0  0  0  0  0
   15.6770  -14.0644   18.5898 C   0  0  0  0  0  0  0  0  0  0  0  0
   14.3750  -13.9036   18.2930 N   0  0  0  0  0  0  0  0  0  0  0  0
   10.4120  -15.7778   20.4614 C   0  0  0  0  0  0  0  0  0  0  0  0
    9.3397  -16.0580   19.8597 O   0  0  0  0  0  0  0  0  0  0  0  0
    8.3794  -17.4155   21.0400 C   0  0  0  0  0  0  0  0  0  0  0  0
    8.4590  -16.8974   22.4629 C   0  0  1  0  0  0  0  0  0  0  0  0
    9.3082  -17.7421   23.1541 O   0  0  0  0  0  0  0  0  0  0  0  0
    9.0003  -15.5030   22.5336 C   0  0  2  0  0  0  0  0  0  0  0  0
   10.2556  -15.3700   21.8084 N   0  0  0  0  0  0  0  0  0  0  0  0
    9.1387  -15.0899   23.9341 C   0  0  0  0  0  0  0  0  0  0  0  0
   10.2152  -15.2441   24.5915 O   0  0  0  0  0  0  0  0  0  0  0  0
    7.3783  -11.8015   25.8060 C   0  0  0  0  0  0  0  0  0  0  0  0
    7.1539  -13.1307   26.5014 C   0  0  1  0  0  0  0  0  0  0  0  0
    5.8917  -13.5852   26.0833 O   0  0  0  0  0  0  0  0  0  0  0  0
    8.2436  -14.0566   26.0482 C   0  0  2  0  0  0  0  0  0  0  0  0
    8.0996  -14.4843   24.6780 N   0  0  0  0  0  0  0  0  0  0  0  0
    8.2984  -15.2192   26.9453 C   0  0  0  0  0  0  0  0  0  0  0  0
    8.6308  -15.1436   28.2762 O   0  0  0  0  0  0  0  0  0  0  0  0
    8.0275  -16.3750   26.4920 O   0  0  0  0  0  0  0  0  0  0  0  0
  2  9  1  0
  2  1  1  6
  3  2  1  0
  4  3  1  0
  5  4  2  0
  6  5  1  0
  7  6  1  0
  7  8  2  0
  8  4  1  0
  9 10  2  0
 12 11  1  6
 12 13  1  0
 12 14  1  0
 14 15  1  1
 15  9  1  0
 16 14  1  0
 16 17  2  0
 19 18  1  6
 19 21  1  0
 20 19  1  0
 21 22  1  6
 21 23  1  0
 22 16  1  0
 23 24  1  0
 25 23  2  0
M  END
$$$$
