HTT.pdb
     RDKit          3D

 25 25  0  0  1  0  0  0  0  0999 V2000
    9.4032  -15.4308   14.2530 N   0  0  0  0  0  0  0  0  0  0  0  0
    9.9406  -16.0559   15.4208 C   0  0  1  0  0  0  0  0  0  0  0  0
   11.4430  -16.2317   15.1963 C   0  0  0  0  0  0  0  0  0  0  0  0
   11.7006  -17.2642   14.1453 C   0  0  0  0  0  0  0  0  0  0  0  0
   11.8473  -18.6225   14.4116 C   0  0  0  0  0  0  0  0  0  0  0  0
   12.0650  -19.2732   13.2725 N   0  0  0  0  0  0  0  0  0  0  0  0
   12.0566  -18.3450   12.3012 C   0  0  0  0  0  0  0  0  0  0  0  0
   11.8361  -17.1269   12.8273 N   0  0  0  0  0  0  0  0  0  0  0  0
    9.7924  -15.2213   16.6401 C   0  0  0  0  0  0  0  0  0  0  0  0
    9.7325  -13.9634   16.5739 O   0  0  0  0  0  0  0  0  0  0  0  0
    7.6562  -13.5463   20.2526 C   0  0  0  0  0  0  0  0  0  0  0  0
    8.0607  -14.2765   18.9866 C   0  0  1  0  0  0  0  0  0  0  0  0
    8.1326  -13.3312   17.9798 O   0  0  0  0  0  0  0  0  0  0  0  0
    9.3926  -14.9485   19.1157 C   0  0  2  0  0  0  0  0  0  0  0  0
    9.7082  -15.7583   17.9478 N   0  0  0  0  0  0  0  0  0  0  0  0
    9.4369  -15.7396   20.3499 C   0  0  0  0  0  0  0  0  0  0  0  0
    8.6285  -16.6918   20.5837 O   0  0  0  0  0  0  0  0  0  0  0  0
   12.2817  -17.6604   21.5142 C   0  0  0  0  0  0  0  0  0  0  0  0
   11.8902  -16.8889   22.7602 C   0  0  1  0  0  0  0  0  0  0  0  0
   12.8111  -15.8339   22.8752 O   0  0  0  0  0  0  0  0  0  0  0  0
   10.4977  -16.3751   22.5430 C   0  0  2  0  0  0  0  0  0  0  0  0
   10.3752  -15.5227   21.3855 N   0  0  0  0  0  0  0  0  0  0  0  0
   10.0460  -15.6690   23.7499 C   0  0  0  0  0  0  0  0  0  0  0  0
    9.8642  -16.2764   24.9687 O   0  0  0  0  0  0  0  0  0  0  0  0
    9.8015  -14.4233   23.6937 O   0  0  0  0  0  0  0  0  0  0  0  0
  2  9  1  0
  2  1  1  6
  3  2  1  0
  4  3  1  0
  5  4  2  0
  6  5  1  0
  7  6  1  0
  7  8  2  0
  8  4  1  0
  9 10  2  0
 12 11  1  1
 12 13  1  0
 12 14  1  0
 14 15  1  6
 15  9  1  0
 16 14  1  0
 16 17  2  0
 19 18  1  6
 19 21  1  0
 20 19  1  0
 21 22  1  6
 21 23  1  0
 22 16  1  0
 23 24  1  0
 25 23  2  0
M  END
$$$$
