HTT.pdb
     RDKit          3D

 25 25  0  0  1  0  0  0  0  0999 V2000
   11.7260  -14.2028   18.0122 N   0  0  0  0  0  0  0  0  0  0  0  0
   11.5936  -14.8730   19.2679 C   0  0  1  0  0  0  0  0  0  0  0  0
   12.9364  -14.7609   19.9909 C   0  0  0  0  0  0  0  0  0  0  0  0
   13.9401  -15.6886   19.3834 C   0  0  0  0  0  0  0  0  0  0  0  0
   14.0225  -15.9577   18.0203 C   0  0  0  0  0  0  0  0  0  0  0  0
   15.0131  -16.8172   17.8005 N   0  0  0  0  0  0  0  0  0  0  0  0
   15.5495  -17.0886   19.0021 C   0  0  0  0  0  0  0  0  0  0  0  0
   14.9013  -16.4061   19.9629 N   0  0  0  0  0  0  0  0  0  0  0  0
   10.5845  -14.2398   20.1545 C   0  0  0  0  0  0  0  0  0  0  0  0
   10.4623  -12.9866   20.2235 O   0  0  0  0  0  0  0  0  0  0  0  0
    6.9578  -14.2941   20.0145 C   0  0  0  0  0  0  0  0  0  0  0  0
    7.3030  -14.7340   21.4242 C   0  0  1  0  0  0  0  0  0  0  0  0
    7.2008  -16.1128   21.4541 O   0  0  0  0  0  0  0  0  0  0  0  0
    8.6931  -14.3430   21.8202 C   0  0  2  0  0  0  0  0  0  0  0  0
    9.6968  -14.9757   20.9766 N   0  0  0  0  0  0  0  0  0  0  0  0
    8.9127  -14.6429   23.2391 C   0  0  0  0  0  0  0  0  0  0  0  0
    9.7980  -15.4627   23.6379 O   0  0  0  0  0  0  0  0  0  0  0  0
    8.1096  -12.1250   26.4553 C   0  0  0  0  0  0  0  0  0  0  0  0
    7.5550  -13.5282   26.6113 C   0  0  1  0  0  0  0  0  0  0  0  0
    6.1993  -13.4579   26.2487 O   0  0  0  0  0  0  0  0  0  0  0  0
    8.3236  -14.4141   25.6761 C   0  0  2  0  0  0  0  0  0  0  0  0
    8.1701  -14.0527   24.2879 N   0  0  0  0  0  0  0  0  0  0  0  0
    7.9222  -15.8114   25.8897 C   0  0  0  0  0  0  0  0  0  0  0  0
    8.0059  -16.4550   27.1006 O   0  0  0  0  0  0  0  0  0  0  0  0
    7.4674  -16.4896   24.9160 O   0  0  0  0  0  0  0  0  0  0  0  0
  2  9  1  0
  2  1  1  6
  3  2  1  0
  4  3  1  0
  5  4  2  0
  6  5  1  0
  7  6  1  0
  7  8  2  0
  8  4  1  0
  9 10  2  0
 12 11  1  6
 12 13  1  0
 12 14  1  0
 14 15  1  6
 15  9  1  0
 16 14  1  0
 16 17  2  0
 19 18  1  6
 19 21  1  0
 20 19  1  0
 21 22  1  6
 21 23  1  0
 22 16  1  0
 23 24  1  0
 25 23  2  0
M  END
$$$$
