HTT.pdb
     RDKit          3D

 25 25  0  0  1  0  0  0  0  0999 V2000
    8.2270  -17.0589   18.8659 N   0  0  0  0  0  0  0  0  0  0  0  0
    8.4102  -15.9143   19.7023 C   0  0  1  0  0  0  0  0  0  0  0  0
    7.3559  -14.8812   19.3027 C   0  0  0  0  0  0  0  0  0  0  0  0
    7.6673  -14.3046   17.9582 C   0  0  0  0  0  0  0  0  0  0  0  0
    8.7754  -14.6653   17.1971 C   0  0  0  0  0  0  0  0  0  0  0  0
    8.7697  -13.9785   16.0585 N   0  0  0  0  0  0  0  0  0  0  0  0
    7.6780  -13.1962   16.0963 C   0  0  0  0  0  0  0  0  0  0  0  0
    7.0083  -13.3918   17.2463 N   0  0  0  0  0  0  0  0  0  0  0  0
    8.1852  -16.2102   21.1400 C   0  0  0  0  0  0  0  0  0  0  0  0
    7.1375  -16.7888   21.5371 O   0  0  0  0  0  0  0  0  0  0  0  0
    9.6191  -17.6011   25.5052 C   0  0  0  0  0  0  0  0  0  0  0  0
    9.8518  -17.2371   24.0516 C   0  0  1  0  0  0  0  0  0  0  0  0
    9.6769  -18.3926   23.3122 O   0  0  0  0  0  0  0  0  0  0  0  0
    8.8902  -16.1989   23.5619 C   0  0  2  0  0  0  0  0  0  0  0  0
    9.1087  -15.8742   22.1597 N   0  0  0  0  0  0  0  0  0  0  0  0
    8.9662  -15.0056   24.4112 C   0  0  0  0  0  0  0  0  0  0  0  0
    9.8317  -14.0920   24.2347 O   0  0  0  0  0  0  0  0  0  0  0  0
    6.6014  -12.2055   25.1102 C   0  0  0  0  0  0  0  0  0  0  0  0
    6.8749  -12.8490   26.4563 C   0  0  1  0  0  0  0  0  0  0  0  0
    5.8057  -13.7286   26.6962 O   0  0  0  0  0  0  0  0  0  0  0  0
    8.1735  -13.5902   26.3365 C   0  0  2  0  0  0  0  0  0  0  0  0
    8.0912  -14.7587   25.4944 N   0  0  0  0  0  0  0  0  0  0  0  0
    8.6496  -13.9571   27.6775 C   0  0  0  0  0  0  0  0  0  0  0  0
    8.9038  -13.0468   28.6747 O   0  0  0  0  0  0  0  0  0  0  0  0
    8.8468  -15.1800   27.9606 O   0  0  0  0  0  0  0  0  0  0  0  0
  2  9  1  0
  2  1  1  6
  3  2  1  0
  4  3  1  0
  5  4  2  0
  6  5  1  0
  7  6  1  0
  7  8  2  0
  8  4  1  0
  9 10  2  0
 12 11  1  1
 12 13  1  0
 12 14  1  0
 14 15  1  6
 15  9  1  0
 16 14  1  0
 16 17  2  0
 19 18  1  6
 19 21  1  0
 20 19  1  0
 21 22  1  6
 21 23  1  0
 22 16  1  0
 23 24  1  0
 25 23  2  0
M  END
$$$$
