HTT.pdb
     RDKit          3D

 25 25  0  0  1  0  0  0  0  0999 V2000
   11.0075  -16.3206   18.6845 N   0  0  0  0  0  0  0  0  0  0  0  0
   11.2726  -15.7791   19.9806 C   0  0  1  0  0  0  0  0  0  0  0  0
   11.7955  -14.3556   19.7843 C   0  0  0  0  0  0  0  0  0  0  0  0
   13.2421  -14.3742   19.4044 C   0  0  0  0  0  0  0  0  0  0  0  0
   14.2228  -15.0572   20.1178 C   0  0  0  0  0  0  0  0  0  0  0  0
   15.4009  -14.8787   19.5274 N   0  0  0  0  0  0  0  0  0  0  0  0
   15.1720  -14.0968   18.4591 C   0  0  0  0  0  0  0  0  0  0  0  0
   13.8647  -13.7897   18.3822 N   0  0  0  0  0  0  0  0  0  0  0  0
   10.0513  -15.6668   20.8180 C   0  0  0  0  0  0  0  0  0  0  0  0
    8.9659  -15.2329   20.3447 O   0  0  0  0  0  0  0  0  0  0  0  0
    6.9347  -17.1344   24.1287 C   0  0  0  0  0  0  0  0  0  0  0  0
    8.2164  -17.2475   23.3262 C   0  0  1  0  0  0  0  0  0  0  0  0
    7.8999  -17.8989   22.1481 O   0  0  0  0  0  0  0  0  0  0  0  0
    8.8040  -15.9101   22.9969 C   0  0  2  0  0  0  0  0  0  0  0  0
   10.0071  -16.0298   22.1861 N   0  0  0  0  0  0  0  0  0  0  0  0
    9.0558  -15.1565   24.2297 C   0  0  0  0  0  0  0  0  0  0  0  0
   10.2043  -15.0881   24.7693 O   0  0  0  0  0  0  0  0  0  0  0  0
    7.5461  -11.5897   25.6612 C   0  0  0  0  0  0  0  0  0  0  0  0
    7.2537  -12.7795   26.5556 C   0  0  1  0  0  0  0  0  0  0  0  0
    5.9496  -13.1972   26.2406 O   0  0  0  0  0  0  0  0  0  0  0  0
    8.2606  -13.8406   26.2234 C   0  0  2  0  0  0  0  0  0  0  0  0
    8.0561  -14.4392   24.9268 N   0  0  0  0  0  0  0  0  0  0  0  0
    8.2459  -14.8703   27.2716 C   0  0  0  0  0  0  0  0  0  0  0  0
    8.5269  -14.6208   28.5931 O   0  0  0  0  0  0  0  0  0  0  0  0
    7.9601  -16.0707   26.9683 O   0  0  0  0  0  0  0  0  0  0  0  0
  2  9  1  0
  2  1  1  6
  3  2  1  0
  4  3  1  0
  5  4  2  0
  6  5  1  0
  7  6  1  0
  7  8  2  0
  8  4  1  0
  9 10  2  0
 12 11  1  1
 12 13  1  0
 12 14  1  0
 14 15  1  1
 15  9  1  0
 16 14  1  0
 16 17  2  0
 19 18  1  6
 19 21  1  0
 20 19  1  0
 21 22  1  6
 21 23  1  0
 22 16  1  0
 23 24  1  0
 25 23  2  0
M  END
$$$$
