HTT.pdb
     RDKit          3D

 25 25  0  0  1  0  0  0  0  0999 V2000
    8.3870  -17.1224   19.0714 N   0  0  0  0  0  0  0  0  0  0  0  0
    8.2315  -15.9187   19.8266 C   0  0  1  0  0  0  0  0  0  0  0  0
    7.1704  -15.0708   19.1241 C   0  0  0  0  0  0  0  0  0  0  0  0
    7.7023  -14.5214   17.8386 C   0  0  0  0  0  0  0  0  0  0  0  0
    8.9929  -14.7521   17.3713 C   0  0  0  0  0  0  0  0  0  0  0  0
    9.1571  -14.1305   16.2073 N   0  0  0  0  0  0  0  0  0  0  0  0
    7.9920  -13.5166   15.9408 C   0  0  0  0  0  0  0  0  0  0  0  0
    7.1089  -13.7519   16.9276 N   0  0  0  0  0  0  0  0  0  0  0  0
    7.7306  -16.1637   21.2030 C   0  0  0  0  0  0  0  0  0  0  0  0
    6.8605  -17.0452   21.4400 O   0  0  0  0  0  0  0  0  0  0  0  0
    7.9517  -18.2422   23.1372 C   0  0  0  0  0  0  0  0  0  0  0  0
    8.3690  -17.1391   24.0906 C   0  0  1  0  0  0  0  0  0  0  0  0
    9.7501  -17.0760   24.0564 O   0  0  0  0  0  0  0  0  0  0  0  0
    7.8137  -15.8049   23.6984 C   0  0  2  0  0  0  0  0  0  0  0  0
    8.1794  -15.4432   22.3365 N   0  0  0  0  0  0  0  0  0  0  0  0
    8.2379  -14.7833   24.6614 C   0  0  0  0  0  0  0  0  0  0  0  0
    9.3611  -14.1937   24.5858 O   0  0  0  0  0  0  0  0  0  0  0  0
    6.3506  -11.5629   25.6660 C   0  0  0  0  0  0  0  0  0  0  0  0
    6.6502  -12.3494   26.9280 C   0  0  1  0  0  0  0  0  0  0  0  0
    5.4860  -13.0789   27.2225 O   0  0  0  0  0  0  0  0  0  0  0  0
    7.8005  -13.2611   26.6185 C   0  0  2  0  0  0  0  0  0  0  0  0
    7.4450  -14.3590   25.7528 N   0  0  0  0  0  0  0  0  0  0  0  0
    8.3746  -13.7634   27.8744 C   0  0  0  0  0  0  0  0  0  0  0  0
    8.4892  -15.0971   28.1838 O   0  0  0  0  0  0  0  0  0  0  0  0
    8.7982  -12.9398   28.7445 O   0  0  0  0  0  0  0  0  0  0  0  0
  2  9  1  0
  2  1  1  6
  3  2  1  0
  4  3  1  0
  5  4  2  0
  6  5  1  0
  7  6  1  0
  7  8  2  0
  8  4  1  0
  9 10  2  0
 12 11  1  6
 12 13  1  0
 12 14  1  0
 14 15  1  6
 15  9  1  0
 16 14  1  0
 16 17  2  0
 19 18  1  6
 19 21  1  0
 20 19  1  0
 21 22  1  6
 21 23  1  0
 22 16  1  0
 23 24  1  0
 25 23  2  0
M  END
$$$$
