HTT.pdb
     RDKit          3D

 25 25  0  0  1  0  0  0  0  0999 V2000
    8.9197  -17.0306   15.5814 N   0  0  0  0  0  0  0  0  0  0  0  0
    9.5204  -17.5280   16.7793 C   0  0  1  0  0  0  0  0  0  0  0  0
   11.0128  -17.7127   16.5011 C   0  0  0  0  0  0  0  0  0  0  0  0
   11.2384  -18.8808   15.5946 C   0  0  0  0  0  0  0  0  0  0  0  0
   10.7123  -20.1498   15.8188 C   0  0  0  0  0  0  0  0  0  0  0  0
   11.0922  -20.9632   14.8379 N   0  0  0  0  0  0  0  0  0  0  0  0
   11.8456  -20.2241   14.0064 C   0  0  0  0  0  0  0  0  0  0  0  0
   11.9358  -18.9619   14.4627 N   0  0  0  0  0  0  0  0  0  0  0  0
    9.4189  -16.5742   17.9129 C   0  0  0  0  0  0  0  0  0  0  0  0
    9.2081  -15.3455   17.7229 O   0  0  0  0  0  0  0  0  0  0  0  0
    7.4055  -14.7851   21.5316 C   0  0  0  0  0  0  0  0  0  0  0  0
    7.7877  -15.6300   20.3317 C   0  0  1  0  0  0  0  0  0  0  0  0
    7.5972  -14.8465   19.2082 O   0  0  0  0  0  0  0  0  0  0  0  0
    9.2177  -16.0721   20.3767 C   0  0  2  0  0  0  0  0  0  0  0  0
    9.5476  -16.9583   19.2699 N   0  0  0  0  0  0  0  0  0  0  0  0
    9.5090  -16.6942   21.6726 C   0  0  0  0  0  0  0  0  0  0  0  0
    8.9546  -17.7714   22.0564 O   0  0  0  0  0  0  0  0  0  0  0  0
   12.7371  -17.2376   25.3532 C   0  0  0  0  0  0  0  0  0  0  0  0
   12.1864  -16.2694   24.3235 C   0  0  1  0  0  0  0  0  0  0  0  0
   13.2132  -16.0660   23.3862 O   0  0  0  0  0  0  0  0  0  0  0  0
   10.9947  -16.9260   23.6918 C   0  0  2  0  0  0  0  0  0  0  0  0
   10.4268  -16.1622   22.6076 N   0  0  0  0  0  0  0  0  0  0  0  0
    9.9800  -17.1867   24.7221 C   0  0  0  0  0  0  0  0  0  0  0  0
    9.9712  -18.3037   25.5220 O   0  0  0  0  0  0  0  0  0  0  0  0
    9.0435  -16.3480   24.9071 O   0  0  0  0  0  0  0  0  0  0  0  0
  2  9  1  0
  2  1  1  6
  3  2  1  0
  4  3  1  0
  5  4  2  0
  6  5  1  0
  7  6  1  0
  7  8  2  0
  8  4  1  0
  9 10  2  0
 12 11  1  1
 12 13  1  0
 12 14  1  0
 14 15  1  6
 15  9  1  0
 16 14  1  0
 16 17  2  0
 19 18  1  1
 19 21  1  0
 20 19  1  0
 21 22  1  6
 21 23  1  0
 22 16  1  0
 23 24  1  0
 25 23  2  0
M  END
$$$$
