HTT.pdb
     RDKit          3D

 25 25  0  0  1  0  0  0  0  0999 V2000
    9.1232  -19.0025   18.4862 N   0  0  0  0  0  0  0  0  0  0  0  0
    9.2125  -17.6743   19.0068 C   0  0  1  0  0  0  0  0  0  0  0  0
    8.7534  -16.7184   17.9050 C   0  0  0  0  0  0  0  0  0  0  0  0
    9.6723  -16.7929   16.7272 C   0  0  0  0  0  0  0  0  0  0  0  0
   11.0028  -16.3851   16.7543 C   0  0  0  0  0  0  0  0  0  0  0  0
   11.5468  -16.5786   15.5564 N   0  0  0  0  0  0  0  0  0  0  0  0
   10.5792  -17.0995   14.7833 C   0  0  0  0  0  0  0  0  0  0  0  0
    9.4425  -17.2304   15.4903 N   0  0  0  0  0  0  0  0  0  0  0  0
    8.3091  -17.4477   20.1634 C   0  0  0  0  0  0  0  0  0  0  0  0
    7.1590  -17.9628   20.2116 O   0  0  0  0  0  0  0  0  0  0  0  0
    7.5551  -19.2038   22.1068 C   0  0  0  0  0  0  0  0  0  0  0  0
    8.0884  -18.1890   23.0994 C   0  0  1  0  0  0  0  0  0  0  0  0
    9.4140  -18.5079   23.3312 O   0  0  0  0  0  0  0  0  0  0  0  0
    8.0118  -16.7868   22.5795 C   0  0  2  0  0  0  0  0  0  0  0  0
    8.6579  -16.6522   21.2819 N   0  0  0  0  0  0  0  0  0  0  0  0
    8.5758  -15.8565   23.5632 C   0  0  0  0  0  0  0  0  0  0  0  0
    9.8039  -15.5302   23.5731 O   0  0  0  0  0  0  0  0  0  0  0  0
    6.9520  -12.4045   24.7146 C   0  0  0  0  0  0  0  0  0  0  0  0
    7.3212  -13.2382   25.9269 C   0  0  1  0  0  0  0  0  0  0  0  0
    6.1376  -13.8692   26.3455 O   0  0  0  0  0  0  0  0  0  0  0  0
    8.3438  -14.2404   25.4797 C   0  0  2  0  0  0  0  0  0  0  0  0
    7.8146  -15.2380   24.5819 N   0  0  0  0  0  0  0  0  0  0  0  0
    8.9466  -14.8790   26.6579 C   0  0  0  0  0  0  0  0  0  0  0  0
    9.5869  -14.1888   27.6586 O   0  0  0  0  0  0  0  0  0  0  0  0
    8.8881  -16.1418   26.7862 O   0  0  0  0  0  0  0  0  0  0  0  0
  2  9  1  0
  2  1  1  6
  3  2  1  0
  4  3  1  0
  5  4  2  0
  6  5  1  0
  7  6  1  0
  7  8  2  0
  8  4  1  0
  9 10  2  0
 12 11  1  6
 12 13  1  0
 12 14  1  0
 14 15  1  6
 15  9  1  0
 16 14  1  0
 16 17  2  0
 19 18  1  6
 19 21  1  0
 20 19  1  0
 21 22  1  6
 21 23  1  0
 22 16  1  0
 23 24  1  0
 25 23  2  0
M  END
$$$$
