HTT.pdb
     RDKit          3D

 25 25  0  0  1  0  0  0  0  0999 V2000
   11.3120  -15.5275   15.2211 N   0  0  0  0  0  0  0  0  0  0  0  0
   10.1964  -15.9210   16.0235 C   0  0  1  0  0  0  0  0  0  0  0  0
   10.1631  -17.4498   16.0439 C   0  0  0  0  0  0  0  0  0  0  0  0
    9.8549  -17.9875   14.6827 C   0  0  0  0  0  0  0  0  0  0  0  0
    8.6397  -17.7987   14.0308 C   0  0  0  0  0  0  0  0  0  0  0  0
    8.6796  -18.3964   12.8437 N   0  0  0  0  0  0  0  0  0  0  0  0
    9.8978  -18.9544   12.7440 C   0  0  0  0  0  0  0  0  0  0  0  0
   10.6119  -18.7081   13.8569 N   0  0  0  0  0  0  0  0  0  0  0  0
   10.3220  -15.4843   17.4373 C   0  0  0  0  0  0  0  0  0  0  0  0
   11.4493  -15.3143   17.9764 O   0  0  0  0  0  0  0  0  0  0  0  0
    8.1461  -12.5574   18.9496 C   0  0  0  0  0  0  0  0  0  0  0  0
    8.2216  -13.7152   19.9261 C   0  0  1  0  0  0  0  0  0  0  0  0
    7.0231  -14.3992   19.8360 O   0  0  0  0  0  0  0  0  0  0  0  0
    9.3415  -14.6574   19.6093 C   0  0  2  0  0  0  0  0  0  0  0  0
    9.2105  -15.2288   18.2767 N   0  0  0  0  0  0  0  0  0  0  0  0
    9.4257  -15.6992   20.6382 C   0  0  0  0  0  0  0  0  0  0  0  0
    8.7985  -16.8010   20.5517 O   0  0  0  0  0  0  0  0  0  0  0  0
   12.2813  -17.5854   21.9019 C   0  0  0  0  0  0  0  0  0  0  0  0
   11.6707  -17.0168   23.1688 C   0  0  1  0  0  0  0  0  0  0  0  0
   12.4641  -15.9139   23.5270 O   0  0  0  0  0  0  0  0  0  0  0  0
   10.2707  -16.5948   22.8342 C   0  0  2  0  0  0  0  0  0  0  0  0
   10.2069  -15.5798   21.8110 N   0  0  0  0  0  0  0  0  0  0  0  0
    9.5964  -16.1344   24.0560 C   0  0  0  0  0  0  0  0  0  0  0  0
    9.4417  -16.9065   25.1817 O   0  0  0  0  0  0  0  0  0  0  0  0
    9.1183  -14.9580   24.1037 O   0  0  0  0  0  0  0  0  0  0  0  0
  2  9  1  0
  2  1  1  6
  3  2  1  0
  4  3  1  0
  5  4  2  0
  6  5  1  0
  7  6  1  0
  7  8  2  0
  8  4  1  0
  9 10  2  0
 12 11  1  6
 12 13  1  0
 12 14  1  0
 14 15  1  6
 15  9  1  0
 16 14  1  0
 16 17  2  0
 19 18  1  6
 19 21  1  0
 20 19  1  0
 21 22  1  6
 21 23  1  0
 22 16  1  0
 23 24  1  0
 25 23  2  0
M  END
$$$$
