HYI.pdb
     RDKit          3D

 31 32  0  0  1  0  0  0  0  0999 V2000
   19.3727  -14.4152  -20.4220 N   0  0  0  0  0  0  0  0  0  0  0  0
   19.7778  -13.0273  -20.3455 C   0  0  1  0  0  0  0  0  0  0  0  0
   19.7769  -12.4829  -21.7504 C   0  0  0  0  0  0  0  0  0  0  0  0
   20.9303  -13.0696  -22.4799 C   0  0  0  0  0  0  0  0  0  0  0  0
   22.0073  -12.4380  -23.0759 C   0  0  0  0  0  0  0  0  0  0  0  0
   22.8361  -13.3297  -23.6350 N   0  0  0  0  0  0  0  0  0  0  0  0
   22.2986  -14.5492  -23.4035 C   0  0  0  0  0  0  0  0  0  0  0  0
   21.1626  -14.3950  -22.7151 N   0  0  0  0  0  0  0  0  0  0  0  0
   18.8809  -12.2500  -19.4498 C   0  0  0  0  0  0  0  0  0  0  0  0
   17.6563  -12.3093  -19.6508 O   0  0  0  0  0  0  0  0  0  0  0  0
   15.5285  -16.1039  -15.8968 O   0  0  0  0  0  0  0  0  0  0  0  0
   16.2046  -14.9111  -15.9532 C   0  0  0  0  0  0  0  0  0  0  0  0
   15.5146  -13.7179  -15.9572 C   0  0  0  0  0  0  0  0  0  0  0  0
   16.2750  -12.5583  -16.0160 C   0  0  0  0  0  0  0  0  0  0  0  0
   17.6320  -12.5689  -16.0679 C   0  0  0  0  0  0  0  0  0  0  0  0
   18.4228  -11.3221  -16.1310 C   0  0  0  0  0  0  0  0  0  0  0  0
   18.4712  -10.7062  -17.5065 C   0  0  2  0  0  0  0  0  0  0  0  0
   19.3531  -11.4527  -18.3882 N   0  0  0  0  0  0  0  0  0  0  0  0
   18.7951   -9.2635  -17.5082 C   0  0  0  0  0  0  0  0  0  0  0  0
   19.9896   -8.8793  -17.4715 O   0  0  0  0  0  0  0  0  0  0  0  0
   18.2998  -13.8001  -16.0620 C   0  0  0  0  0  0  0  0  0  0  0  0
   17.5968  -14.9692  -16.0051 C   0  0  0  0  0  0  0  0  0  0  0  0
   16.6876   -4.2800  -20.1842 C   0  0  0  0  0  0  0  0  0  0  0  0
   17.4189   -4.7984  -18.9691 C   0  0  0  0  0  0  0  0  0  0  0  0
   17.3168   -6.2754  -18.8061 C   0  0  2  0  0  0  0  0  0  0  0  0
   15.8856   -6.6992  -18.7492 C   0  0  0  0  0  0  0  0  0  0  0  0
   18.1194   -6.8219  -17.6651 C   0  0  2  0  0  0  0  0  0  0  0  0
   17.8001   -8.2489  -17.5505 N   0  0  0  0  0  0  0  0  0  0  0  0
   17.7503   -6.1886  -16.3743 C   0  0  0  0  0  0  0  0  0  0  0  0
   18.0806   -4.9925  -16.0952 O   0  0  0  0  0  0  0  0  0  0  0  0
   17.0254   -6.8439  -15.3847 O   0  0  0  0  0  0  0  0  0  0  0  0
  2  1  1  6
  2  3  1  0
  3  4  1  0
  4  8  1  0
  4  5  2  0
  5  6  1  0
  7  6  1  0
  8  7  2  0
  9  2  1  0
  9 10  2  0
 11 12  1  0
 12 13  2  0
 13 14  1  0
 15 16  1  0
 15 14  2  0
 17 18  1  0
 17 16  1  1
 18  9  1  0
 19 17  1  0
 20 19  2  0
 21 15  1  0
 22 21  2  0
 22 12  1  0
 23 24  1  0
 25 24  1  0
 25 27  1  0
 25 26  1  1
 27 28  1  1
 28 19  1  0
 29 27  1  0
 29 31  1  0
 30 29  2  0
M  END
$$$$
