HYI.pdb
     RDKit          3D

 31 32  0  0  1  0  0  0  0  0999 V2000
   25.7641  -18.4280  -16.3292 N   0  0  0  0  0  0  0  0  0  0  0  0
   26.6864  -18.7191  -15.2517 C   0  0  1  0  0  0  0  0  0  0  0  0
   27.6313  -17.5505  -15.1437 C   0  0  0  0  0  0  0  0  0  0  0  0
   28.4167  -17.4664  -16.4018 C   0  0  0  0  0  0  0  0  0  0  0  0
   28.2869  -16.5877  -17.4626 C   0  0  0  0  0  0  0  0  0  0  0  0
   29.1951  -16.8467  -18.4128 N   0  0  0  0  0  0  0  0  0  0  0  0
   29.9214  -17.8989  -17.9714 C   0  0  0  0  0  0  0  0  0  0  0  0
   29.4581  -18.2689  -16.7728 N   0  0  0  0  0  0  0  0  0  0  0  0
   25.9662  -18.9689  -13.9751 C   0  0  0  0  0  0  0  0  0  0  0  0
   25.1761  -18.1008  -13.5678 O   0  0  0  0  0  0  0  0  0  0  0  0
   19.5320  -19.3501  -14.5794 O   0  0  0  0  0  0  0  0  0  0  0  0
   20.6774  -19.8726  -14.0334 C   0  0  0  0  0  0  0  0  0  0  0  0
   20.8903  -19.8153  -12.6728 C   0  0  0  0  0  0  0  0  0  0  0  0
   22.0742  -20.3671  -12.2034 C   0  0  0  0  0  0  0  0  0  0  0  0
   22.9946  -20.9409  -13.0207 C   0  0  0  0  0  0  0  0  0  0  0  0
   24.2497  -21.5218  -12.5001 C   0  0  0  0  0  0  0  0  0  0  0  0
   25.2714  -20.4893  -12.0955 C   0  0  2  0  0  0  0  0  0  0  0  0
   26.1373  -20.1391  -13.2090 N   0  0  0  0  0  0  0  0  0  0  0  0
   26.0520  -20.8546  -10.8941 C   0  0  0  0  0  0  0  0  0  0  0  0
   27.0075  -21.6644  -10.9776 O   0  0  0  0  0  0  0  0  0  0  0  0
   22.7446  -20.9812  -14.3983 C   0  0  0  0  0  0  0  0  0  0  0  0
   21.5945  -20.4520  -14.9094 C   0  0  0  0  0  0  0  0  0  0  0  0
   28.7531  -18.2933   -7.3332 C   0  0  0  0  0  0  0  0  0  0  0  0
   28.1142  -19.3874   -8.1548 C   0  0  0  0  0  0  0  0  0  0  0  0
   26.8925  -19.9602   -7.5240 C   0  0  2  0  0  0  0  0  0  0  0  0
   27.1970  -20.4606   -6.1499 C   0  0  0  0  0  0  0  0  0  0  0  0
   26.1946  -20.9865   -8.3632 C   0  0  2  0  0  0  0  0  0  0  0  0
   25.7762  -20.3252   -9.6037 N   0  0  0  0  0  0  0  0  0  0  0  0
   24.9653  -21.4969   -7.7063 C   0  0  0  0  0  0  0  0  0  0  0  0
   24.9998  -22.4537   -6.8690 O   0  0  0  0  0  0  0  0  0  0  0  0
   23.6991  -20.9763   -7.9513 O   0  0  0  0  0  0  0  0  0  0  0  0
  2  1  1  6
  2  3  1  0
  3  4  1  0
  4  8  1  0
  4  5  2  0
  5  6  1  0
  7  6  1  0
  8  7  2  0
  9  2  1  0
  9 10  2  0
 11 12  1  0
 12 13  2  0
 13 14  1  0
 15 16  1  0
 15 14  2  0
 17 18  1  0
 17 16  1  6
 18  9  1  0
 19 17  1  0
 20 19  2  0
 21 15  1  0
 22 21  2  0
 22 12  1  0
 23 24  1  0
 25 24  1  0
 25 27  1  0
 25 26  1  1
 27 28  1  6
 28 19  1  0
 29 27  1  0
 29 31  1  0
 30 29  2  0
M  END
$$$$
