HYI.pdb
     RDKit          3D

 31 32  0  0  1  0  0  0  0  0999 V2000
   23.7646  -19.4546  -17.9060 N   0  0  0  0  0  0  0  0  0  0  0  0
   22.5292  -18.9678  -17.3290 C   0  0  1  0  0  0  0  0  0  0  0  0
   21.5336  -18.8327  -18.4518 C   0  0  0  0  0  0  0  0  0  0  0  0
   21.8223  -17.5724  -19.1834 C   0  0  0  0  0  0  0  0  0  0  0  0
   21.3097  -16.3028  -18.9846 C   0  0  0  0  0  0  0  0  0  0  0  0
   21.8284  -15.4340  -19.8626 N   0  0  0  0  0  0  0  0  0  0  0  0
   22.6833  -16.1386  -20.6385 C   0  0  0  0  0  0  0  0  0  0  0  0
   22.6803  -17.4134  -20.2344 N   0  0  0  0  0  0  0  0  0  0  0  0
   22.0370  -19.8750  -16.2586 C   0  0  0  0  0  0  0  0  0  0  0  0
   22.0182  -21.0961  -16.4874 O   0  0  0  0  0  0  0  0  0  0  0  0
   27.0761  -21.8361  -11.9389 O   0  0  0  0  0  0  0  0  0  0  0  0
   25.7909  -21.3746  -12.0742 C   0  0  0  0  0  0  0  0  0  0  0  0
   24.8051  -21.7915  -11.2058 C   0  0  0  0  0  0  0  0  0  0  0  0
   23.5331  -21.2765  -11.4132 C   0  0  0  0  0  0  0  0  0  0  0  0
   23.2454  -20.4041  -12.4135 C   0  0  0  0  0  0  0  0  0  0  0  0
   21.8834  -19.8684  -12.6173 C   0  0  0  0  0  0  0  0  0  0  0  0
   21.2471  -20.3113  -13.9106 C   0  0  2  0  0  0  0  0  0  0  0  0
   21.5927  -19.4164  -15.0024 N   0  0  0  0  0  0  0  0  0  0  0  0
   19.7861  -20.5203  -13.8211 C   0  0  0  0  0  0  0  0  0  0  0  0
   19.0004  -19.5415  -13.8436 O   0  0  0  0  0  0  0  0  0  0  0  0
   24.2724  -20.0023  -13.2770 C   0  0  0  0  0  0  0  0  0  0  0  0
   25.5408  -20.4806  -13.1147 C   0  0  0  0  0  0  0  0  0  0  0  0
   15.5071  -24.3375  -15.6867 C   0  0  0  0  0  0  0  0  0  0  0  0
   15.8931  -23.3363  -14.6244 C   0  0  0  0  0  0  0  0  0  0  0  0
   17.3515  -23.0343  -14.6021 C   0  0  2  0  0  0  0  0  0  0  0  0
   18.1464  -24.2940  -14.4907 C   0  0  0  0  0  0  0  0  0  0  0  0
   17.7498  -22.0160  -13.5779 C   0  0  2  0  0  0  0  0  0  0  0  0
   19.1960  -21.8088  -13.7073 N   0  0  0  0  0  0  0  0  0  0  0  0
   17.5009  -22.4942  -12.1948 C   0  0  0  0  0  0  0  0  0  0  0  0
   18.4087  -23.0605  -11.5071 O   0  0  0  0  0  0  0  0  0  0  0  0
   16.2742  -22.3620  -11.5529 O   0  0  0  0  0  0  0  0  0  0  0  0
  2  1  1  6
  2  3  1  0
  3  4  1  0
  4  8  1  0
  4  5  2  0
  5  6  1  0
  7  6  1  0
  8  7  2  0
  9  2  1  0
  9 10  2  0
 11 12  1  0
 12 13  2  0
 13 14  1  0
 15 16  1  0
 15 14  2  0
 17 18  1  0
 17 16  1  1
 18  9  1  0
 19 17  1  0
 20 19  2  0
 21 15  1  0
 22 21  2  0
 22 12  1  0
 23 24  1  0
 25 24  1  0
 25 27  1  0
 25 26  1  1
 27 28  1  1
 28 19  1  0
 29 27  1  0
 29 31  1  0
 30 29  2  0
M  END
$$$$
