HYI.pdb
     RDKit          3D

 31 32  0  0  1  0  0  0  0  0999 V2000
   23.9416  -13.4144  -18.7361 N   0  0  0  0  0  0  0  0  0  0  0  0
   24.1187  -12.5159  -17.6148 C   0  0  1  0  0  0  0  0  0  0  0  0
   25.6003  -12.3906  -17.3714 C   0  0  0  0  0  0  0  0  0  0  0  0
   26.0886  -13.6684  -16.7921 C   0  0  0  0  0  0  0  0  0  0  0  0
   25.3843  -14.8160  -16.4742 C   0  0  0  0  0  0  0  0  0  0  0  0
   26.1977  -15.7524  -15.9682 N   0  0  0  0  0  0  0  0  0  0  0  0
   27.4388  -15.2148  -15.9553 C   0  0  0  0  0  0  0  0  0  0  0  0
   27.3747  -13.9725  -16.4463 N   0  0  0  0  0  0  0  0  0  0  0  0
   23.4864  -11.1953  -17.8739 C   0  0  0  0  0  0  0  0  0  0  0  0
   23.8447  -10.5608  -18.8803 O   0  0  0  0  0  0  0  0  0  0  0  0
   18.8091  -12.8966  -21.7886 O   0  0  0  0  0  0  0  0  0  0  0  0
   19.1741  -12.0768  -20.7505 C   0  0  0  0  0  0  0  0  0  0  0  0
   19.4003  -10.7346  -20.9681 C   0  0  0  0  0  0  0  0  0  0  0  0
   19.7656   -9.9770  -19.8641 C   0  0  0  0  0  0  0  0  0  0  0  0
   19.9012  -10.5051  -18.6203 C   0  0  0  0  0  0  0  0  0  0  0  0
   20.2922   -9.6804  -17.4581 C   0  0  0  0  0  0  0  0  0  0  0  0
   21.7752   -9.4211  -17.3727 C   0  0  2  0  0  0  0  0  0  0  0  0
   22.5041  -10.6322  -17.0350 N   0  0  0  0  0  0  0  0  0  0  0  0
   22.1391   -8.3008  -16.4789 C   0  0  0  0  0  0  0  0  0  0  0  0
   22.3739   -8.5069  -15.2631 O   0  0  0  0  0  0  0  0  0  0  0  0
   19.6633  -11.8731  -18.4364 C   0  0  0  0  0  0  0  0  0  0  0  0
   19.3014  -12.6612  -19.4909 C   0  0  0  0  0  0  0  0  0  0  0  0
   25.4799   -3.3124  -16.5205 C   0  0  0  0  0  0  0  0  0  0  0  0
   24.2563   -3.9573  -15.9147 C   0  0  0  0  0  0  0  0  0  0  0  0
   23.8043   -5.1703  -16.6515 C   0  0  2  0  0  0  0  0  0  0  0  0
   23.6091   -4.8620  -18.0999 C   0  0  0  0  0  0  0  0  0  0  0  0
   22.6114   -5.8448  -16.0459 C   0  0  2  0  0  0  0  0  0  0  0  0
   22.2430   -6.9563  -16.9291 N   0  0  0  0  0  0  0  0  0  0  0  0
   21.4384   -4.9379  -15.9754 C   0  0  0  0  0  0  0  0  0  0  0  0
   20.5751   -4.8838  -16.9079 O   0  0  0  0  0  0  0  0  0  0  0  0
   21.1954   -4.0898  -14.9002 O   0  0  0  0  0  0  0  0  0  0  0  0
  2  1  1  6
  2  3  1  0
  3  4  1  0
  4  8  1  0
  4  5  2  0
  5  6  1  0
  7  6  1  0
  8  7  2  0
  9  2  1  0
  9 10  2  0
 11 12  1  0
 12 13  2  0
 13 14  1  0
 15 16  1  0
 15 14  2  0
 17 18  1  0
 17 16  1  1
 18  9  1  0
 19 17  1  0
 20 19  2  0
 21 15  1  0
 22 21  2  0
 22 12  1  0
 23 24  1  0
 25 24  1  0
 25 27  1  0
 25 26  1  6
 27 28  1  6
 28 19  1  0
 29 27  1  0
 29 31  1  0
 30 29  2  0
M  END
$$$$
