HYI.pdb
     RDKit          3D

 31 32  0  0  1  0  0  0  0  0999 V2000
   16.1577  -30.1190   -5.9169 N   0  0  0  0  0  0  0  0  0  0  0  0
   16.8204  -29.3790   -6.9702 C   0  0  1  0  0  0  0  0  0  0  0  0
   16.5665  -30.1136   -8.2610 C   0  0  0  0  0  0  0  0  0  0  0  0
   17.4674  -31.2938   -8.3123 C   0  0  0  0  0  0  0  0  0  0  0  0
   18.5436  -31.5431   -9.1452 C   0  0  0  0  0  0  0  0  0  0  0  0
   19.0970  -32.7317   -8.8697 N   0  0  0  0  0  0  0  0  0  0  0  0
   18.3796  -33.2613   -7.8527 C   0  0  0  0  0  0  0  0  0  0  0  0
   17.4080  -32.4048   -7.5199 N   0  0  0  0  0  0  0  0  0  0  0  0
   16.3398  -27.9732   -7.0293 C   0  0  0  0  0  0  0  0  0  0  0  0
   15.1189  -27.7660   -6.9290 O   0  0  0  0  0  0  0  0  0  0  0  0
   16.5985  -26.0453   -0.8088 O   0  0  0  0  0  0  0  0  0  0  0  0
   16.7997  -25.6887   -2.1186 C   0  0  0  0  0  0  0  0  0  0  0  0
   15.9312  -24.8219   -2.7466 C   0  0  0  0  0  0  0  0  0  0  0  0
   16.2075  -24.5138   -4.0714 C   0  0  0  0  0  0  0  0  0  0  0  0
   17.2727  -25.0258   -4.7403 C   0  0  0  0  0  0  0  0  0  0  0  0
   17.5482  -24.6852   -6.1516 C   0  0  0  0  0  0  0  0  0  0  0  0
   16.7408  -25.4922   -7.1368 C   0  0  2  0  0  0  0  0  0  0  0  0
   17.2008  -26.8697   -7.1930 N   0  0  0  0  0  0  0  0  0  0  0  0
   16.6615  -24.8904   -8.4850 C   0  0  0  0  0  0  0  0  0  0  0  0
   17.6495  -24.9288   -9.2584 O   0  0  0  0  0  0  0  0  0  0  0  0
   18.1342  -25.9037   -4.0702 C   0  0  0  0  0  0  0  0  0  0  0  0
   17.9055  -26.2381   -2.7664 C   0  0  0  0  0  0  0  0  0  0  0  0
   14.2905  -24.3887  -13.4701 C   0  0  0  0  0  0  0  0  0  0  0  0
   13.9208  -23.5074  -12.3010 C   0  0  0  0  0  0  0  0  0  0  0  0
   14.1962  -24.1365  -10.9792 C   0  0  2  0  0  0  0  0  0  0  0  0
   12.9876  -24.0687  -10.1041 C   0  0  0  0  0  0  0  0  0  0  0  0
   15.4242  -23.6150  -10.2975 C   0  0  2  0  0  0  0  0  0  0  0  0
   15.4922  -24.2478   -8.9761 N   0  0  0  0  0  0  0  0  0  0  0  0
   15.3543  -22.1491  -10.0748 C   0  0  0  0  0  0  0  0  0  0  0  0
   15.6353  -21.3166  -10.9943 O   0  0  0  0  0  0  0  0  0  0  0  0
   14.9815  -21.5805   -8.8615 O   0  0  0  0  0  0  0  0  0  0  0  0
  2  1  1  1
  2  3  1  0
  3  4  1  0
  4  8  1  0
  4  5  2  0
  5  6  1  0
  7  6  1  0
  8  7  2  0
  9  2  1  0
  9 10  2  0
 11 12  1  0
 12 13  2  0
 13 14  1  0
 15 16  1  0
 15 14  2  0
 17 18  1  0
 17 16  1  1
 18  9  1  0
 19 17  1  0
 20 19  2  0
 21 15  1  0
 22 21  2  0
 22 12  1  0
 23 24  1  0
 25 24  1  0
 25 27  1  0
 25 26  1  1
 27 28  1  1
 28 19  1  0
 29 27  1  0
 29 31  1  0
 30 29  2  0
M  END
$$$$
