HYI.pdb
     RDKit          3D

 31 32  0  0  1  0  0  0  0  0999 V2000
   26.5812  -19.8981  -15.5396 N   0  0  0  0  0  0  0  0  0  0  0  0
   27.4108  -19.4036  -14.4609 C   0  0  1  0  0  0  0  0  0  0  0  0
   27.8408  -18.0078  -14.8309 C   0  0  0  0  0  0  0  0  0  0  0  0
   28.6970  -18.0879  -16.0422 C   0  0  0  0  0  0  0  0  0  0  0  0
   29.0362  -19.1889  -16.8083 C   0  0  0  0  0  0  0  0  0  0  0  0
   29.8358  -18.8376  -17.8241 N   0  0  0  0  0  0  0  0  0  0  0  0
   30.0202  -17.5015  -17.7215 C   0  0  0  0  0  0  0  0  0  0  0  0
   29.3417  -17.0539  -16.6596 N   0  0  0  0  0  0  0  0  0  0  0  0
   26.6863  -19.4342  -13.1629 C   0  0  0  0  0  0  0  0  0  0  0  0
   26.0685  -18.4150  -12.8118 O   0  0  0  0  0  0  0  0  0  0  0  0
   20.7339  -19.7398  -14.5973 O   0  0  0  0  0  0  0  0  0  0  0  0
   21.7360  -20.1966  -13.7786 C   0  0  0  0  0  0  0  0  0  0  0  0
   22.7195  -21.0246  -14.2756 C   0  0  0  0  0  0  0  0  0  0  0  0
   23.6951  -21.4407  -13.3804 C   0  0  0  0  0  0  0  0  0  0  0  0
   23.7051  -21.0665  -12.0750 C   0  0  0  0  0  0  0  0  0  0  0  0
   24.7532  -21.5219  -11.1381 C   0  0  0  0  0  0  0  0  0  0  0  0
   25.9384  -20.5931  -11.0593 C   0  0  2  0  0  0  0  0  0  0  0  0
   26.6677  -20.5603  -12.3160 N   0  0  0  0  0  0  0  0  0  0  0  0
   26.8372  -20.8611   -9.9162 C   0  0  0  0  0  0  0  0  0  0  0  0
   27.7038  -21.7665   -9.9864 O   0  0  0  0  0  0  0  0  0  0  0  0
   22.6897  -20.2240  -11.6048 C   0  0  0  0  0  0  0  0  0  0  0  0
   21.7070  -19.7873  -12.4460 C   0  0  0  0  0  0  0  0  0  0  0  0
   29.4630  -18.3532   -5.9378 C   0  0  0  0  0  0  0  0  0  0  0  0
   28.8467  -19.3774   -6.8604 C   0  0  0  0  0  0  0  0  0  0  0  0
   27.4825  -19.8031   -6.4403 C   0  0  2  0  0  0  0  0  0  0  0  0
   27.4990  -20.3016   -5.0323 C   0  0  0  0  0  0  0  0  0  0  0  0
   26.8265  -20.7683   -7.3796 C   0  0  2  0  0  0  0  0  0  0  0  0
   26.7774  -20.1291   -8.6988 N   0  0  0  0  0  0  0  0  0  0  0  0
   25.4254  -21.0602   -6.9853 C   0  0  0  0  0  0  0  0  0  0  0  0
   24.4636  -20.2938   -7.3097 O   0  0  0  0  0  0  0  0  0  0  0  0
   25.0610  -22.1777   -6.2419 O   0  0  0  0  0  0  0  0  0  0  0  0
  2  1  1  6
  2  3  1  0
  3  4  1  0
  4  8  1  0
  4  5  2  0
  5  6  1  0
  7  6  1  0
  8  7  2  0
  9  2  1  0
  9 10  2  0
 11 12  1  0
 12 13  2  0
 13 14  1  0
 15 16  1  0
 15 14  2  0
 17 18  1  0
 17 16  1  6
 18  9  1  0
 19 17  1  0
 20 19  2  0
 21 15  1  0
 22 21  2  0
 22 12  1  0
 23 24  1  0
 25 24  1  0
 25 27  1  0
 25 26  1  1
 27 28  1  6
 28 19  1  0
 29 27  1  0
 29 31  1  0
 30 29  2  0
M  END
$$$$
