HYI.pdb
     RDKit          3D

 31 32  0  0  1  0  0  0  0  0999 V2000
   17.6543  -23.6998   -8.1124 N   0  0  0  0  0  0  0  0  0  0  0  0
   17.8630  -25.0392   -7.6036 C   0  0  1  0  0  0  0  0  0  0  0  0
   19.2603  -25.4512   -7.9882 C   0  0  0  0  0  0  0  0  0  0  0  0
   19.1985  -26.1473   -9.2990 C   0  0  0  0  0  0  0  0  0  0  0  0
   19.1247  -25.6161  -10.5744 C   0  0  0  0  0  0  0  0  0  0  0  0
   19.0858  -26.5874  -11.4962 N   0  0  0  0  0  0  0  0  0  0  0  0
   19.1344  -27.7582  -10.8207 C   0  0  0  0  0  0  0  0  0  0  0  0
   19.2015  -27.4968   -9.5110 N   0  0  0  0  0  0  0  0  0  0  0  0
   17.6531  -25.0985   -6.1328 C   0  0  0  0  0  0  0  0  0  0  0  0
   18.1438  -24.1965   -5.4334 O   0  0  0  0  0  0  0  0  0  0  0  0
   12.2807  -21.6984   -4.9256 O   0  0  0  0  0  0  0  0  0  0  0  0
   12.9947  -22.8417   -4.6683 C   0  0  0  0  0  0  0  0  0  0  0  0
   12.9915  -23.8838   -5.5705 C   0  0  0  0  0  0  0  0  0  0  0  0
   13.7398  -25.0029   -5.2328 C   0  0  0  0  0  0  0  0  0  0  0  0
   14.4490  -25.0941   -4.0783 C   0  0  0  0  0  0  0  0  0  0  0  0
   15.2387  -26.2958   -3.7375 C   0  0  0  0  0  0  0  0  0  0  0  0
   16.7055  -26.1670   -4.0621 C   0  0  2  0  0  0  0  0  0  0  0  0
   16.9267  -26.1256   -5.4979 N   0  0  0  0  0  0  0  0  0  0  0  0
   17.5571  -27.1850   -3.4103 C   0  0  0  0  0  0  0  0  0  0  0  0
   17.9120  -28.2136   -4.0363 O   0  0  0  0  0  0  0  0  0  0  0  0
   14.4291  -24.0155   -3.1849 C   0  0  0  0  0  0  0  0  0  0  0  0
   13.7081  -22.8920   -3.4714 C   0  0  0  0  0  0  0  0  0  0  0  0
   20.9827  -27.7015    1.7605 C   0  0  0  0  0  0  0  0  0  0  0  0
   20.3883  -28.3542    0.5355 C   0  0  0  0  0  0  0  0  0  0  0  0
   19.5514  -27.4283   -0.2776 C   0  0  2  0  0  0  0  0  0  0  0  0
   18.6353  -26.6410    0.6010 C   0  0  0  0  0  0  0  0  0  0  0  0
   18.8267  -28.0922   -1.4083 C   0  0  2  0  0  0  0  0  0  0  0  0
   18.0148  -27.0652   -2.0696 N   0  0  0  0  0  0  0  0  0  0  0  0
   17.8936  -29.1421   -0.9283 C   0  0  0  0  0  0  0  0  0  0  0  0
   16.6844  -28.8808   -0.6327 O   0  0  0  0  0  0  0  0  0  0  0  0
   18.2632  -30.4731   -0.7671 O   0  0  0  0  0  0  0  0  0  0  0  0
  2  1  1  1
  2  3  1  0
  3  4  1  0
  4  8  1  0
  4  5  2  0
  5  6  1  0
  7  6  1  0
  8  7  2  0
  9  2  1  0
  9 10  2  0
 11 12  1  0
 12 13  2  0
 13 14  1  0
 15 16  1  0
 15 14  2  0
 17 18  1  0
 17 16  1  6
 18  9  1  0
 19 17  1  0
 20 19  2  0
 21 15  1  0
 22 21  2  0
 22 12  1  0
 23 24  1  0
 25 24  1  0
 25 27  1  0
 25 26  1  1
 27 28  1  1
 28 19  1  0
 29 27  1  0
 29 31  1  0
 30 29  2  0
M  END
$$$$
