HYI.pdb
     RDKit          3D

 31 32  0  0  1  0  0  0  0  0999 V2000
   27.8564  -22.1353  -17.5766 N   0  0  0  0  0  0  0  0  0  0  0  0
   27.2015  -22.6741  -16.4031 C   0  0  1  0  0  0  0  0  0  0  0  0
   27.9045  -23.9587  -16.0486 C   0  0  0  0  0  0  0  0  0  0  0  0
   27.0344  -25.0939  -16.4499 C   0  0  0  0  0  0  0  0  0  0  0  0
   25.8048  -25.0783  -17.0840 C   0  0  0  0  0  0  0  0  0  0  0  0
   25.3453  -26.3231  -17.2685 N   0  0  0  0  0  0  0  0  0  0  0  0
   26.2782  -27.1558  -16.7528 C   0  0  0  0  0  0  0  0  0  0  0  0
   27.2854  -26.4239  -16.2647 N   0  0  0  0  0  0  0  0  0  0  0  0
   27.2221  -21.7027  -15.2776 C   0  0  0  0  0  0  0  0  0  0  0  0
   28.2818  -21.0976  -15.0443 O   0  0  0  0  0  0  0  0  0  0  0  0
   27.4224  -16.1235  -17.8354 O   0  0  0  0  0  0  0  0  0  0  0  0
   26.9226  -16.8743  -16.8012 C   0  0  0  0  0  0  0  0  0  0  0  0
   27.4177  -16.7194  -15.5242 C   0  0  0  0  0  0  0  0  0  0  0  0
   26.8567  -17.5176  -14.5371 C   0  0  0  0  0  0  0  0  0  0  0  0
   25.8686  -18.4148  -14.7882 C   0  0  0  0  0  0  0  0  0  0  0  0
   25.2856  -19.2561  -13.7222 C   0  0  0  0  0  0  0  0  0  0  0  0
   26.1181  -20.4671  -13.3849 C   0  0  2  0  0  0  0  0  0  0  0  0
   26.1005  -21.4376  -14.4667 N   0  0  0  0  0  0  0  0  0  0  0  0
   25.7741  -21.0913  -12.0894 C   0  0  0  0  0  0  0  0  0  0  0  0
   25.0315  -22.1024  -12.0472 O   0  0  0  0  0  0  0  0  0  0  0  0
   25.3900  -18.5454  -16.0980 C   0  0  0  0  0  0  0  0  0  0  0  0
   25.9092  -17.7827  -17.1045 C   0  0  0  0  0  0  0  0  0  0  0  0
   28.7781  -19.8443   -7.4965 C   0  0  0  0  0  0  0  0  0  0  0  0
   28.0007  -20.6643   -8.4980 C   0  0  0  0  0  0  0  0  0  0  0  0
   26.5385  -20.3808   -8.4829 C   0  0  2  0  0  0  0  0  0  0  0  0
   25.9729  -20.6145   -7.1204 C   0  0  0  0  0  0  0  0  0  0  0  0
   25.7662  -21.0930   -9.5511 C   0  0  2  0  0  0  0  0  0  0  0  0
   26.2506  -20.5979  -10.8440 N   0  0  0  0  0  0  0  0  0  0  0  0
   24.3153  -20.7865   -9.4839 C   0  0  0  0  0  0  0  0  0  0  0  0
   23.5069  -21.5097   -8.8199 O   0  0  0  0  0  0  0  0  0  0  0  0
   23.7359  -19.7007  -10.1319 O   0  0  0  0  0  0  0  0  0  0  0  0
  2  1  1  6
  2  3  1  0
  3  4  1  0
  4  8  1  0
  4  5  2  0
  5  6  1  0
  7  6  1  0
  8  7  2  0
  9  2  1  0
  9 10  2  0
 11 12  1  0
 12 13  2  0
 13 14  1  0
 15 16  1  0
 15 14  2  0
 17 18  1  0
 17 16  1  6
 18  9  1  0
 19 17  1  0
 20 19  2  0
 21 15  1  0
 22 21  2  0
 22 12  1  0
 23 24  1  0
 25 24  1  0
 25 27  1  0
 25 26  1  1
 27 28  1  6
 28 19  1  0
 29 27  1  0
 29 31  1  0
 30 29  2  0
M  END
$$$$
