HYI.pdb
     RDKit          3D

 31 32  0  0  1  0  0  0  0  0999 V2000
   28.3987   -8.7601  -19.8215 N   0  0  0  0  0  0  0  0  0  0  0  0
   26.9858   -9.0675  -19.7475 C   0  0  1  0  0  0  0  0  0  0  0  0
   26.8635  -10.5256  -19.3880 C   0  0  0  0  0  0  0  0  0  0  0  0
   27.0488  -11.3290  -20.6238 C   0  0  0  0  0  0  0  0  0  0  0  0
   27.2862  -10.9070  -21.9198 C   0  0  0  0  0  0  0  0  0  0  0  0
   27.3931  -11.9517  -22.7516 N   0  0  0  0  0  0  0  0  0  0  0  0
   27.2248  -13.0610  -21.9963 C   0  0  0  0  0  0  0  0  0  0  0  0
   27.0195  -12.6907  -20.7278 N   0  0  0  0  0  0  0  0  0  0  0  0
   26.2925   -8.1946  -18.7636 C   0  0  0  0  0  0  0  0  0  0  0  0
   26.8137   -8.0406  -17.6464 O   0  0  0  0  0  0  0  0  0  0  0  0
   27.8519   -1.7348  -20.1014 O   0  0  0  0  0  0  0  0  0  0  0  0
   26.8701   -2.6207  -19.7348 C   0  0  0  0  0  0  0  0  0  0  0  0
   26.1935   -2.4588  -18.5449 C   0  0  0  0  0  0  0  0  0  0  0  0
   25.2160   -3.3991  -18.2507 C   0  0  0  0  0  0  0  0  0  0  0  0
   24.9200   -4.4368  -19.0752 C   0  0  0  0  0  0  0  0  0  0  0  0
   23.8756   -5.4278  -18.7423 C   0  0  0  0  0  0  0  0  0  0  0  0
   24.4117   -6.6710  -18.0785 C   0  0  2  0  0  0  0  0  0  0  0  0
   25.0770   -7.5365  -19.0381 N   0  0  0  0  0  0  0  0  0  0  0  0
   23.4064   -7.4105  -17.2856 C   0  0  0  0  0  0  0  0  0  0  0  0
   22.5044   -8.0702  -17.8574 O   0  0  0  0  0  0  0  0  0  0  0  0
   25.6279   -4.5699  -20.2764 C   0  0  0  0  0  0  0  0  0  0  0  0
   26.5992   -3.6707  -20.6114 C   0  0  0  0  0  0  0  0  0  0  0  0
   24.7135  -11.1365  -14.3506 C   0  0  0  0  0  0  0  0  0  0  0  0
   23.9134  -10.1374  -15.1516 C   0  0  0  0  0  0  0  0  0  0  0  0
   23.1161   -9.2070  -14.3046 C   0  0  2  0  0  0  0  0  0  0  0  0
   22.2043   -9.9709  -13.4013 C   0  0  0  0  0  0  0  0  0  0  0  0
   22.3958   -8.1432  -15.0754 C   0  0  2  0  0  0  0  0  0  0  0  0
   23.3992   -7.4200  -15.8639 N   0  0  0  0  0  0  0  0  0  0  0  0
   21.7490   -7.1516  -14.1799 C   0  0  0  0  0  0  0  0  0  0  0  0
   22.4139   -6.2315  -13.6063 O   0  0  0  0  0  0  0  0  0  0  0  0
   20.3861   -7.1515  -13.9028 O   0  0  0  0  0  0  0  0  0  0  0  0
  2  1  1  1
  2  3  1  0
  3  4  1  0
  4  8  1  0
  4  5  2  0
  5  6  1  0
  7  6  1  0
  8  7  2  0
  9  2  1  0
  9 10  2  0
 11 12  1  0
 12 13  2  0
 13 14  1  0
 15 16  1  0
 15 14  2  0
 17 18  1  0
 17 16  1  6
 18  9  1  0
 19 17  1  0
 20 19  2  0
 21 15  1  0
 22 21  2  0
 22 12  1  0
 23 24  1  0
 25 24  1  0
 25 27  1  0
 25 26  1  6
 27 28  1  6
 28 19  1  0
 29 27  1  0
 29 31  1  0
 30 29  2  0
M  END
$$$$
