HYI.pdb
     RDKit          3D

 31 32  0  0  1  0  0  0  0  0999 V2000
   27.0258  -18.8230  -18.4936 N   0  0  0  0  0  0  0  0  0  0  0  0
   27.3925  -19.7984  -17.4883 C   0  0  1  0  0  0  0  0  0  0  0  0
   28.8586  -19.6103  -17.1963 C   0  0  0  0  0  0  0  0  0  0  0  0
   29.6290  -19.9869  -18.4092 C   0  0  0  0  0  0  0  0  0  0  0  0
   29.1721  -20.3705  -19.6575 C   0  0  0  0  0  0  0  0  0  0  0  0
   30.1949  -20.6292  -20.4832 N   0  0  0  0  0  0  0  0  0  0  0  0
   31.3249  -20.4139  -19.7717 C   0  0  0  0  0  0  0  0  0  0  0  0
   30.9885  -20.0310  -18.5354 N   0  0  0  0  0  0  0  0  0  0  0  0
   26.5609  -19.6534  -16.2643 C   0  0  0  0  0  0  0  0  0  0  0  0
   26.5024  -18.5361  -15.7239 O   0  0  0  0  0  0  0  0  0  0  0  0
   19.8983  -19.8423  -10.7821 O   0  0  0  0  0  0  0  0  0  0  0  0
   20.7888  -20.0931  -11.7957 C   0  0  0  0  0  0  0  0  0  0  0  0
   20.9688  -19.1759  -12.8086 C   0  0  0  0  0  0  0  0  0  0  0  0
   21.8881  -19.5079  -13.7940 C   0  0  0  0  0  0  0  0  0  0  0  0
   22.5891  -20.6710  -13.7859 C   0  0  0  0  0  0  0  0  0  0  0  0
   23.5629  -21.0054  -14.8460 C   0  0  0  0  0  0  0  0  0  0  0  0
   24.9690  -20.5562  -14.5385 C   0  0  2  0  0  0  0  0  0  0  0  0
   25.8391  -20.7193  -15.6912 N   0  0  0  0  0  0  0  0  0  0  0  0
   25.5478  -21.1781  -13.3284 C   0  0  0  0  0  0  0  0  0  0  0  0
   25.9560  -22.3649  -13.3558 O   0  0  0  0  0  0  0  0  0  0  0  0
   22.3803  -21.5796  -12.7407 C   0  0  0  0  0  0  0  0  0  0  0  0
   21.4866  -21.2993  -11.7473 C   0  0  0  0  0  0  0  0  0  0  0  0
   29.8637  -20.3125  -11.0601 C   0  0  0  0  0  0  0  0  0  0  0  0
   28.5425  -20.9555  -11.4081 C   0  0  0  0  0  0  0  0  0  0  0  0
   27.4393  -20.5715  -10.4840 C   0  0  2  0  0  0  0  0  0  0  0  0
   27.8141  -20.8666   -9.0685 C   0  0  0  0  0  0  0  0  0  0  0  0
   26.1052  -21.1450  -10.8523 C   0  0  2  0  0  0  0  0  0  0  0  0
   25.6747  -20.4889  -12.0915 N   0  0  0  0  0  0  0  0  0  0  0  0
   25.0740  -20.8540   -9.8251 C   0  0  0  0  0  0  0  0  0  0  0  0
   24.3985  -19.7764   -9.8390 O   0  0  0  0  0  0  0  0  0  0  0  0
   24.7705  -21.7240   -8.7832 O   0  0  0  0  0  0  0  0  0  0  0  0
  2  1  1  6
  2  3  1  0
  3  4  1  0
  4  8  1  0
  4  5  2  0
  5  6  1  0
  7  6  1  0
  8  7  2  0
  9  2  1  0
  9 10  2  0
 11 12  1  0
 12 13  2  0
 13 14  1  0
 15 16  1  0
 15 14  2  0
 17 18  1  0
 17 16  1  6
 18  9  1  0
 19 17  1  0
 20 19  2  0
 21 15  1  0
 22 21  2  0
 22 12  1  0
 23 24  1  0
 25 24  1  0
 25 27  1  0
 25 26  1  1
 27 28  1  6
 28 19  1  0
 29 27  1  0
 29 31  1  0
 30 29  2  0
M  END
$$$$
