HYI.pdb
     RDKit          3D

 31 32  0  0  1  0  0  0  0  0999 V2000
   22.3953  -11.2968  -18.0716 N   0  0  0  0  0  0  0  0  0  0  0  0
   23.0094  -10.1201  -18.6498 C   0  0  1  0  0  0  0  0  0  0  0  0
   22.8489  -10.2203  -20.1446 C   0  0  0  0  0  0  0  0  0  0  0  0
   23.6403  -11.3830  -20.6229 C   0  0  0  0  0  0  0  0  0  0  0  0
   23.2142  -12.5342  -21.2610 C   0  0  0  0  0  0  0  0  0  0  0  0
   24.2474  -13.3443  -21.5278 N   0  0  0  0  0  0  0  0  0  0  0  0
   25.3532  -12.7200  -21.0622 C   0  0  0  0  0  0  0  0  0  0  0  0
   24.9922  -11.5508  -20.5226 N   0  0  0  0  0  0  0  0  0  0  0  0
   22.4051   -8.8733  -18.1103 C   0  0  0  0  0  0  0  0  0  0  0  0
   21.1869   -8.6929  -18.2753 O   0  0  0  0  0  0  0  0  0  0  0  0
   19.0292   -9.4926  -12.4544 O   0  0  0  0  0  0  0  0  0  0  0  0
   19.9689   -8.7971  -13.1729 C   0  0  0  0  0  0  0  0  0  0  0  0
   21.2650   -9.2587  -13.2565 C   0  0  0  0  0  0  0  0  0  0  0  0
   22.1516   -8.4953  -14.0030 C   0  0  0  0  0  0  0  0  0  0  0  0
   21.7881   -7.3469  -14.6302 C   0  0  0  0  0  0  0  0  0  0  0  0
   22.7487   -6.5482  -15.4196 C   0  0  0  0  0  0  0  0  0  0  0  0
   22.5531   -6.6677  -16.9099 C   0  0  2  0  0  0  0  0  0  0  0  0
   23.1463   -7.8910  -17.4236 N   0  0  0  0  0  0  0  0  0  0  0  0
   23.0036   -5.4836  -17.6723 C   0  0  0  0  0  0  0  0  0  0  0  0
   24.2224   -5.3107  -17.9182 O   0  0  0  0  0  0  0  0  0  0  0  0
   20.4623   -6.9081  -14.5234 C   0  0  0  0  0  0  0  0  0  0  0  0
   19.5518   -7.6239  -13.8005 C   0  0  0  0  0  0  0  0  0  0  0  0
   21.9398   -2.4682  -22.6108 C   0  0  0  0  0  0  0  0  0  0  0  0
   22.3127   -2.2548  -21.1633 C   0  0  0  0  0  0  0  0  0  0  0  0
   22.0556   -3.4462  -20.3072 C   0  0  2  0  0  0  0  0  0  0  0  0
   20.6135   -3.8314  -20.3638 C   0  0  0  0  0  0  0  0  0  0  0  0
   22.5546   -3.3085  -18.9013 C   0  0  2  0  0  0  0  0  0  0  0  0
   22.1080   -4.4935  -18.1612 N   0  0  0  0  0  0  0  0  0  0  0  0
   21.9724   -2.1252  -18.2199 C   0  0  0  0  0  0  0  0  0  0  0  0
   22.3271   -0.9397  -18.5139 O   0  0  0  0  0  0  0  0  0  0  0  0
   21.0081   -2.2194  -17.2221 O   0  0  0  0  0  0  0  0  0  0  0  0
  2  1  1  1
  2  3  1  0
  3  4  1  0
  4  8  1  0
  4  5  2  0
  5  6  1  0
  7  6  1  0
  8  7  2  0
  9  2  1  0
  9 10  2  0
 11 12  1  0
 12 13  2  0
 13 14  1  0
 15 16  1  0
 15 14  2  0
 17 18  1  0
 17 16  1  1
 18  9  1  0
 19 17  1  0
 20 19  2  0
 21 15  1  0
 22 21  2  0
 22 12  1  0
 23 24  1  0
 25 24  1  0
 25 27  1  0
 25 26  1  1
 27 28  1  1
 28 19  1  0
 29 27  1  0
 29 31  1  0
 30 29  2  0
M  END
$$$$
