HYI.pdb
     RDKit          3D

 31 32  0  0  1  0  0  0  0  0999 V2000
   28.6111  -20.0063  -19.2353 N   0  0  0  0  0  0  0  0  0  0  0  0
   28.3053  -19.0347  -18.2065 C   0  0  1  0  0  0  0  0  0  0  0  0
   27.5118  -17.9305  -18.8555 C   0  0  0  0  0  0  0  0  0  0  0  0
   28.4178  -17.1694  -19.7536 C   0  0  0  0  0  0  0  0  0  0  0  0
   29.3727  -16.2188  -19.4395 C   0  0  0  0  0  0  0  0  0  0  0  0
   29.9800  -15.7666  -20.5447 N   0  0  0  0  0  0  0  0  0  0  0  0
   29.4198  -16.4243  -21.5854 C   0  0  0  0  0  0  0  0  0  0  0  0
   28.4885  -17.2606  -21.1148 N   0  0  0  0  0  0  0  0  0  0  0  0
   27.5663  -19.6571  -17.0763 C   0  0  0  0  0  0  0  0  0  0  0  0
   26.6303  -20.4297  -17.3421 O   0  0  0  0  0  0  0  0  0  0  0  0
   24.7334  -21.3197   -8.8843 O   0  0  0  0  0  0  0  0  0  0  0  0
   25.4915  -20.9694   -9.9732 C   0  0  0  0  0  0  0  0  0  0  0  0
   26.2057  -21.9258  -10.6624 C   0  0  0  0  0  0  0  0  0  0  0  0
   26.9460  -21.4866  -11.7512 C   0  0  0  0  0  0  0  0  0  0  0  0
   26.9833  -20.1860  -12.1404 C   0  0  0  0  0  0  0  0  0  0  0  0
   27.7793  -19.7393  -13.3026 C   0  0  0  0  0  0  0  0  0  0  0  0
   27.0754  -19.9223  -14.6235 C   0  0  2  0  0  0  0  0  0  0  0  0
   27.8768  -19.4127  -15.7236 N   0  0  0  0  0  0  0  0  0  0  0  0
   25.7016  -19.3762  -14.6534 C   0  0  0  0  0  0  0  0  0  0  0  0
   25.5100  -18.1413  -14.7718 O   0  0  0  0  0  0  0  0  0  0  0  0
   26.2449  -19.2415  -11.4163 C   0  0  0  0  0  0  0  0  0  0  0  0
   25.5006  -19.6235  -10.3373 C   0  0  0  0  0  0  0  0  0  0  0  0
   22.4260  -19.2450  -18.1519 C   0  0  0  0  0  0  0  0  0  0  0  0
   23.0709  -18.9864  -16.8112 C   0  0  0  0  0  0  0  0  0  0  0  0
   22.4909  -19.8059  -15.7110 C   0  0  2  0  0  0  0  0  0  0  0  0
   21.0193  -19.5734  -15.6034 C   0  0  0  0  0  0  0  0  0  0  0  0
   23.1911  -19.6478  -14.3960 C   0  0  2  0  0  0  0  0  0  0  0  0
   24.5432  -20.1942  -14.5526 N   0  0  0  0  0  0  0  0  0  0  0  0
   22.5296  -20.4259  -13.3187 C   0  0  0  0  0  0  0  0  0  0  0  0
   21.7406  -19.8795  -12.4841 O   0  0  0  0  0  0  0  0  0  0  0  0
   22.7181  -21.7924  -13.1410 O   0  0  0  0  0  0  0  0  0  0  0  0
  2  1  1  6
  2  3  1  0
  3  4  1  0
  4  8  1  0
  4  5  2  0
  5  6  1  0
  7  6  1  0
  8  7  2  0
  9  2  1  0
  9 10  2  0
 11 12  1  0
 12 13  2  0
 13 14  1  0
 15 16  1  0
 15 14  2  0
 17 18  1  0
 17 16  1  1
 18  9  1  0
 19 17  1  0
 20 19  2  0
 21 15  1  0
 22 21  2  0
 22 12  1  0
 23 24  1  0
 25 24  1  0
 25 27  1  0
 25 26  1  1
 27 28  1  6
 28 19  1  0
 29 27  1  0
 29 31  1  0
 30 29  2  0
M  END
$$$$
