NVG.pdb
     RDKit          3D

 20 19  0  0  1  0  0  0  0  0999 V2000
    7.3395  -20.6875   16.5827 N   0  0  0  0  0  0  0  0  0  0  0  0
    7.2236  -19.5076   17.3826 C   0  0  0  0  0  0  0  0  0  0  0  0
    6.0954  -18.9782   17.5387 O   0  0  0  0  0  0  0  0  0  0  0  0
    8.3954  -18.8742   18.0446 C   0  0  0  0  0  0  0  0  0  0  0  0
    8.5406  -17.4786   17.4571 C   0  0  2  0  0  0  0  0  0  0  0  0
    9.5365  -17.5440   16.3975 N   0  0  0  0  0  0  0  0  0  0  0  0
    8.9564  -16.5109   18.5057 C   0  0  0  0  0  0  0  0  0  0  0  0
   10.1768  -16.3217   18.6919 O   0  0  0  0  0  0  0  0  0  0  0  0
    8.1131  -12.7937   21.5126 C   0  0  0  0  0  0  0  0  0  0  0  0
    7.5131  -13.6879   20.4507 C   0  0  1  0  0  0  0  0  0  0  0  0
    7.2193  -12.8567   19.2494 C   0  0  0  0  0  0  0  0  0  0  0  0
    8.5005  -14.7941   20.1878 C   0  0  2  0  0  0  0  0  0  0  0  0
    8.0273  -15.7971   19.2994 N   0  0  0  0  0  0  0  0  0  0  0  0
    8.8091  -15.4477   21.5050 C   0  0  0  0  0  0  0  0  0  0  0  0
    7.8890  -15.9683   22.1660 O   0  0  0  0  0  0  0  0  0  0  0  0
   10.1216  -15.4856   22.0120 N   0  0  0  0  0  0  0  0  0  0  0  0
   10.3660  -16.0961   23.3066 C   0  0  0  0  0  0  0  0  0  0  0  0
   11.8194  -16.0841   23.5928 C   0  0  0  0  0  0  0  0  0  0  0  0
   12.2852  -16.4404   24.8331 O   0  0  0  0  0  0  0  0  0  0  0  0
   12.6387  -15.7456   22.6960 O   0  0  0  0  0  0  0  0  0  0  0  0
  2  3  2  0
  2  1  1  0
  4  2  1  0
  5  4  1  0
  5  7  1  0
  5  6  1  6
  7  8  2  0
 10 12  1  0
 10  9  1  1
 11 10  1  0
 12 13  1  6
 13  7  1  0
 14 16  1  0
 14 12  1  0
 15 14  2  0
 17 18  1  0
 17 16  1  0
 18 19  1  0
 20 18  2  0
M  END
$$$$
