NVG.pdb
     RDKit          3D

 20 19  0  0  1  0  0  0  0  0999 V2000
    7.8308  -17.6936   19.3064 N   0  0  0  0  0  0  0  0  0  0  0  0
    7.1753  -17.1767   20.4676 C   0  0  0  0  0  0  0  0  0  0  0  0
    5.9204  -17.1833   20.5201 O   0  0  0  0  0  0  0  0  0  0  0  0
    7.9248  -16.6257   21.6283 C   0  0  0  0  0  0  0  0  0  0  0  0
    7.4511  -15.1940   21.8277 C   0  0  2  0  0  0  0  0  0  0  0  0
    7.8992  -14.4143   20.6832 N   0  0  0  0  0  0  0  0  0  0  0  0
    8.0006  -14.6327   23.0894 C   0  0  0  0  0  0  0  0  0  0  0  0
    9.2307  -14.4311   23.1660 O   0  0  0  0  0  0  0  0  0  0  0  0
    7.7697  -12.4575   27.3863 C   0  0  0  0  0  0  0  0  0  0  0  0
    6.9258  -12.9641   26.2381 C   0  0  1  0  0  0  0  0  0  0  0  0
    6.3957  -11.7885   25.4918 C   0  0  0  0  0  0  0  0  0  0  0  0
    7.8004  -13.8606   25.4021 C   0  0  2  0  0  0  0  0  0  0  0  0
    7.1878  -14.3185   24.2045 N   0  0  0  0  0  0  0  0  0  0  0  0
    8.1458  -15.0616   26.2362 C   0  0  0  0  0  0  0  0  0  0  0  0
    7.2474  -15.8582   26.5726 O   0  0  0  0  0  0  0  0  0  0  0  0
    9.4687  -15.3088   26.6485 N   0  0  0  0  0  0  0  0  0  0  0  0
    9.7773  -16.5465   27.3424 C   0  0  0  0  0  0  0  0  0  0  0  0
   10.4844  -16.2412   28.6078 C   0  0  0  0  0  0  0  0  0  0  0  0
   10.7618  -17.2405   29.5060 O   0  0  0  0  0  0  0  0  0  0  0  0
   10.8362  -15.0585   28.8672 O   0  0  0  0  0  0  0  0  0  0  0  0
  2  3  2  0
  2  1  1  0
  4  2  1  0
  5  4  1  0
  5  7  1  0
  5  6  1  6
  7  8  2  0
 10 12  1  0
 10  9  1  1
 11 10  1  0
 12 13  1  6
 13  7  1  0
 14 16  1  0
 14 12  1  0
 15 14  2  0
 17 18  1  0
 17 16  1  0
 18 19  1  0
 20 18  2  0
M  END
$$$$
