NVG.pdb
     RDKit          3D

 20 19  0  0  1  0  0  0  0  0999 V2000
   12.3782  -18.4487   27.5554 N   0  0  0  0  0  0  0  0  0  0  0  0
   11.8409  -17.1784   27.1772 C   0  0  0  0  0  0  0  0  0  0  0  0
   12.5564  -16.1515   27.2823 O   0  0  0  0  0  0  0  0  0  0  0  0
   10.4556  -17.0203   26.6590 C   0  0  0  0  0  0  0  0  0  0  0  0
    9.7610  -15.9969   27.5444 C   0  0  2  0  0  0  0  0  0  0  0  0
    9.5165  -16.6206   28.8368 N   0  0  0  0  0  0  0  0  0  0  0  0
    8.4831  -15.5543   26.9280 C   0  0  0  0  0  0  0  0  0  0  0  0
    7.5218  -16.3513   26.9115 O   0  0  0  0  0  0  0  0  0  0  0  0
    6.2778  -12.3844   27.1771 C   0  0  0  0  0  0  0  0  0  0  0  0
    6.6314  -12.5946   25.7217 C   0  0  1  0  0  0  0  0  0  0  0  0
    7.6225  -11.5549   25.3254 C   0  0  0  0  0  0  0  0  0  0  0  0
    7.1513  -14.0013   25.5866 C   0  0  2  0  0  0  0  0  0  0  0  0
    8.3125  -14.2691   26.3606 N   0  0  0  0  0  0  0  0  0  0  0  0
    7.4960  -14.2195   24.1405 C   0  0  0  0  0  0  0  0  0  0  0  0
    8.6620  -14.0186   23.7471 O   0  0  0  0  0  0  0  0  0  0  0  0
    6.5262  -14.6482   23.2149 N   0  0  0  0  0  0  0  0  0  0  0  0
    6.7859  -15.8273   22.4082 C   0  0  0  0  0  0  0  0  0  0  0  0
    7.5801  -15.4468   21.2171 C   0  0  0  0  0  0  0  0  0  0  0  0
    8.9507  -15.4241   21.2755 O   0  0  0  0  0  0  0  0  0  0  0  0
    6.9998  -15.1409   20.1403 O   0  0  0  0  0  0  0  0  0  0  0  0
  2  3  2  0
  2  1  1  0
  4  2  1  0
  5  4  1  0
  5  7  1  0
  5  6  1  1
  7  8  2  0
 10 12  1  0
 10  9  1  1
 11 10  1  0
 12 13  1  1
 13  7  1  0
 14 16  1  0
 14 12  1  0
 15 14  2  0
 17 18  1  0
 17 16  1  0
 18 19  1  0
 20 18  2  0
M  END
$$$$
