NVG.pdb
     RDKit          3D

 20 19  0  0  1  0  0  0  0  0999 V2000
    6.9984  -21.0031   17.4200 N   0  0  0  0  0  0  0  0  0  0  0  0
    6.7858  -19.6051   17.6344 C   0  0  0  0  0  0  0  0  0  0  0  0
    5.8190  -19.0359   17.0699 O   0  0  0  0  0  0  0  0  0  0  0  0
    7.6710  -18.7881   18.5070 C   0  0  0  0  0  0  0  0  0  0  0  0
    7.6709  -17.3743   17.9457 C   0  0  2  0  0  0  0  0  0  0  0  0
    8.2462  -17.4268   16.6096 N   0  0  0  0  0  0  0  0  0  0  0  0
    8.4591  -16.4655   18.8183 C   0  0  0  0  0  0  0  0  0  0  0  0
    9.7024  -16.4559   18.7004 O   0  0  0  0  0  0  0  0  0  0  0  0
    7.5729  -12.7661   19.8136 C   0  0  0  0  0  0  0  0  0  0  0  0
    8.0209  -13.5170   21.0476 C   0  0  1  0  0  0  0  0  0  0  0  0
    6.8295  -13.7532   21.9107 C   0  0  0  0  0  0  0  0  0  0  0  0
    8.6854  -14.7856   20.5823 C   0  0  2  0  0  0  0  0  0  0  0  0
    7.8588  -15.6129   19.7751 N   0  0  0  0  0  0  0  0  0  0  0  0
    9.0736  -15.5680   21.8049 C   0  0  0  0  0  0  0  0  0  0  0  0
    8.2065  -16.2158   22.4239 O   0  0  0  0  0  0  0  0  0  0  0  0
   10.4021  -15.5858   22.2695 N   0  0  0  0  0  0  0  0  0  0  0  0
   10.7289  -16.3523   23.4587 C   0  0  0  0  0  0  0  0  0  0  0  0
   12.1703  -16.2002   23.7647 C   0  0  0  0  0  0  0  0  0  0  0  0
   12.6637  -16.5796   24.9874 O   0  0  0  0  0  0  0  0  0  0  0  0
   12.9538  -15.7200   22.9013 O   0  0  0  0  0  0  0  0  0  0  0  0
  2  3  2  0
  2  1  1  0
  4  2  1  0
  5  4  1  0
  5  7  1  0
  5  6  1  6
  7  8  2  0
 10 12  1  0
 10  9  1  6
 11 10  1  0
 12 13  1  6
 13  7  1  0
 14 16  1  0
 14 12  1  0
 15 14  2  0
 17 18  1  0
 17 16  1  0
 18 19  1  0
 20 18  2  0
M  END
$$$$
