NVG.pdb
     RDKit          3D

 20 19  0  0  1  0  0  0  0  0999 V2000
    8.6753  -17.7206   14.1564 N   0  0  0  0  0  0  0  0  0  0  0  0
    7.8229  -17.4489   15.2722 C   0  0  0  0  0  0  0  0  0  0  0  0
    6.8135  -18.1708   15.4657 O   0  0  0  0  0  0  0  0  0  0  0  0
    8.0840  -16.3355   16.2233 C   0  0  0  0  0  0  0  0  0  0  0  0
    8.5082  -16.9640   17.5420 C   0  0  2  0  0  0  0  0  0  0  0  0
    7.3548  -17.6598   18.0938 N   0  0  0  0  0  0  0  0  0  0  0  0
    8.9907  -15.9225   18.4860 C   0  0  0  0  0  0  0  0  0  0  0  0
   10.0123  -15.2710   18.1835 O   0  0  0  0  0  0  0  0  0  0  0  0
    7.6406  -12.8093   19.8105 C   0  0  0  0  0  0  0  0  0  0  0  0
    8.0026  -13.6044   21.0451 C   0  0  1  0  0  0  0  0  0  0  0  0
    6.7433  -14.0969   21.6711 C   0  0  0  0  0  0  0  0  0  0  0  0
    8.9281  -14.7095   20.6096 C   0  0  2  0  0  0  0  0  0  0  0  0
    8.3403  -15.6401   19.7108 N   0  0  0  0  0  0  0  0  0  0  0  0
    9.3512  -15.4574   21.8421 C   0  0  0  0  0  0  0  0  0  0  0  0
    8.5085  -16.1140   22.4852 O   0  0  0  0  0  0  0  0  0  0  0  0
   10.6855  -15.4331   22.2894 N   0  0  0  0  0  0  0  0  0  0  0  0
   11.0531  -16.1934   23.4706 C   0  0  0  0  0  0  0  0  0  0  0  0
   12.5243  -16.1623   23.6410 C   0  0  0  0  0  0  0  0  0  0  0  0
   13.1106  -16.7717   24.7214 O   0  0  0  0  0  0  0  0  0  0  0  0
   13.2479  -15.5743   22.7921 O   0  0  0  0  0  0  0  0  0  0  0  0
  2  3  2  0
  2  1  1  0
  4  2  1  0
  5  4  1  0
  5  7  1  0
  5  6  1  1
  7  8  2  0
 10 12  1  0
 10  9  1  6
 11 10  1  0
 12 13  1  6
 13  7  1  0
 14 16  1  0
 14 12  1  0
 15 14  2  0
 17 18  1  0
 17 16  1  0
 18 19  1  0
 20 18  2  0
M  END
$$$$
