NVG.pdb
     RDKit          3D

 20 19  0  0  1  0  0  0  0  0999 V2000
    5.0344  -20.3205   21.4092 N   0  0  0  0  0  0  0  0  0  0  0  0
    5.9267  -19.9117   22.4495 C   0  0  0  0  0  0  0  0  0  0  0  0
    5.9001  -20.5099   23.5535 O   0  0  0  0  0  0  0  0  0  0  0  0
    6.8952  -18.7960   22.2772 C   0  0  0  0  0  0  0  0  0  0  0  0
    6.6730  -18.2216   20.8863 C   0  0  2  0  0  0  0  0  0  0  0  0
    6.9263  -19.2822   19.9220 N   0  0  0  0  0  0  0  0  0  0  0  0
    7.5804  -17.0694   20.6457 C   0  0  0  0  0  0  0  0  0  0  0  0
    8.6331  -17.2639   20.0024 O   0  0  0  0  0  0  0  0  0  0  0  0
    8.4784  -12.2966   20.4038 C   0  0  0  0  0  0  0  0  0  0  0  0
    7.4323  -13.3427   20.7176 C   0  0  1  0  0  0  0  0  0  0  0  0
    6.3309  -13.2176   19.7218 C   0  0  0  0  0  0  0  0  0  0  0  0
    8.1178  -14.6832   20.6885 C   0  0  2  0  0  0  0  0  0  0  0  0
    7.3000  -15.7641   21.1151 N   0  0  0  0  0  0  0  0  0  0  0  0
    9.3029  -14.6055   21.6088 C   0  0  0  0  0  0  0  0  0  0  0  0
   10.2672  -13.8727   21.3125 O   0  0  0  0  0  0  0  0  0  0  0  0
    9.3487  -15.3460   22.8050 N   0  0  0  0  0  0  0  0  0  0  0  0
   10.4460  -15.1320   23.7317 C   0  0  0  0  0  0  0  0  0  0  0  0
   11.4750  -16.1784   23.5301 C   0  0  0  0  0  0  0  0  0  0  0  0
   12.4808  -16.3482   24.4477 O   0  0  0  0  0  0  0  0  0  0  0  0
   11.4322  -16.9208   22.5118 O   0  0  0  0  0  0  0  0  0  0  0  0
  2  3  2  0
  2  1  1  0
  4  2  1  0
  5  4  1  0
  5  7  1  0
  5  6  1  6
  7  8  2  0
 10 12  1  0
 10  9  1  6
 11 10  1  0
 12 13  1  1
 13  7  1  0
 14 16  1  0
 14 12  1  0
 15 14  2  0
 17 18  1  0
 17 16  1  0
 18 19  1  0
 20 18  2  0
M  END
$$$$
