NVG.pdb
     RDKit          3D

 20 19  0  0  1  0  0  0  0  0999 V2000
    9.4523  -19.0001   27.5851 N   0  0  0  0  0  0  0  0  0  0  0  0
    8.1490  -19.3972   27.1502 C   0  0  0  0  0  0  0  0  0  0  0  0
    7.2746  -19.6808   28.0061 O   0  0  0  0  0  0  0  0  0  0  0  0
    7.7814  -19.4896   25.7119 C   0  0  0  0  0  0  0  0  0  0  0  0
    6.5614  -18.6051   25.5044 C   0  0  2  0  0  0  0  0  0  0  0  0
    5.6489  -19.3085   24.6148 N   0  0  0  0  0  0  0  0  0  0  0  0
    6.9574  -17.2977   24.9190 C   0  0  0  0  0  0  0  0  0  0  0  0
    7.1156  -17.2217   23.6825 O   0  0  0  0  0  0  0  0  0  0  0  0
    7.6023  -12.4848   25.0730 C   0  0  0  0  0  0  0  0  0  0  0  0
    7.1543  -13.6870   25.8739 C   0  0  1  0  0  0  0  0  0  0  0  0
    5.7010  -13.5392   26.1677 C   0  0  0  0  0  0  0  0  0  0  0  0
    7.4804  -14.9121   25.0614 C   0  0  2  0  0  0  0  0  0  0  0  0
    7.1616  -16.1384   25.7046 N   0  0  0  0  0  0  0  0  0  0  0  0
    8.9589  -14.8978   24.7945 C   0  0  0  0  0  0  0  0  0  0  0  0
    9.7588  -14.9211   25.7508 O   0  0  0  0  0  0  0  0  0  0  0  0
    9.4639  -14.8585   23.4813 N   0  0  0  0  0  0  0  0  0  0  0  0
   10.8887  -14.6707   23.2730 C   0  0  0  0  0  0  0  0  0  0  0  0
   11.5429  -15.9896   23.1093 C   0  0  0  0  0  0  0  0  0  0  0  0
   10.8701  -17.1421   23.4281 O   0  0  0  0  0  0  0  0  0  0  0  0
   12.7245  -16.0609   22.6750 O   0  0  0  0  0  0  0  0  0  0  0  0
  2  3  2  0
  2  1  1  0
  4  2  1  0
  5  4  1  0
  5  7  1  0
  5  6  1  6
  7  8  2  0
 10 12  1  0
 10  9  1  6
 11 10  1  0
 12 13  1  1
 13  7  1  0
 14 16  1  0
 14 12  1  0
 15 14  2  0
 17 18  1  0
 17 16  1  0
 18 19  1  0
 20 18  2  0
M  END
$$$$
