NVG.pdb
     RDKit          3D

 20 19  0  0  1  0  0  0  0  0999 V2000
    7.9320  -19.2004   27.3579 N   0  0  0  0  0  0  0  0  0  0  0  0
    7.0535  -19.7474   26.3707 C   0  0  0  0  0  0  0  0  0  0  0  0
    6.2128  -20.6171   26.7091 O   0  0  0  0  0  0  0  0  0  0  0  0
    7.0937  -19.3252   24.9450 C   0  0  0  0  0  0  0  0  0  0  0  0
    6.0284  -18.2543   24.7655 C   0  0  2  0  0  0  0  0  0  0  0  0
    5.2374  -18.6063   23.5952 N   0  0  0  0  0  0  0  0  0  0  0  0
    6.6550  -16.9182   24.5897 C   0  0  0  0  0  0  0  0  0  0  0  0
    7.1378  -16.6283   23.4750 O   0  0  0  0  0  0  0  0  0  0  0  0
    7.8961  -12.4341   25.9737 C   0  0  0  0  0  0  0  0  0  0  0  0
    7.0189  -13.6197   26.3088 C   0  0  1  0  0  0  0  0  0  0  0  0
    5.5965  -13.2192   26.1172 C   0  0  0  0  0  0  0  0  0  0  0  0
    7.4466  -14.7575   25.4200 C   0  0  2  0  0  0  0  0  0  0  0  0
    6.7262  -15.9638   25.6322 N   0  0  0  0  0  0  0  0  0  0  0  0
    8.8982  -15.0279   25.6981 C   0  0  0  0  0  0  0  0  0  0  0  0
    9.3089  -15.0410   26.8753 O   0  0  0  0  0  0  0  0  0  0  0  0
    9.8098  -15.2683   24.6529 N   0  0  0  0  0  0  0  0  0  0  0  0
   11.2060  -15.5111   24.9694 C   0  0  0  0  0  0  0  0  0  0  0  0
   11.9470  -15.8287   23.7267 C   0  0  0  0  0  0  0  0  0  0  0  0
   12.9997  -15.0447   23.3271 O   0  0  0  0  0  0  0  0  0  0  0  0
   11.6138  -16.8236   23.0274 O   0  0  0  0  0  0  0  0  0  0  0  0
  2  3  2  0
  2  1  1  0
  4  2  1  0
  5  4  1  0
  5  7  1  0
  5  6  1  6
  7  8  2  0
 10 12  1  0
 10  9  1  6
 11 10  1  0
 12 13  1  1
 13  7  1  0
 14 16  1  0
 14 12  1  0
 15 14  2  0
 17 18  1  0
 17 16  1  0
 18 19  1  0
 20 18  2  0
M  END
$$$$
