NVG.pdb
     RDKit          3D

 20 19  0  0  1  0  0  0  0  0999 V2000
    4.8698  -18.0596   22.4192 N   0  0  0  0  0  0  0  0  0  0  0  0
    6.1138  -18.4757   22.9891 C   0  0  0  0  0  0  0  0  0  0  0  0
    6.3089  -19.6953   23.2175 O   0  0  0  0  0  0  0  0  0  0  0  0
    7.1979  -17.5148   23.3266 C   0  0  0  0  0  0  0  0  0  0  0  0
    6.6625  -16.1193   23.0445 C   0  0  2  0  0  0  0  0  0  0  0  0
    6.8167  -15.8639   21.6197 N   0  0  0  0  0  0  0  0  0  0  0  0
    7.4023  -15.1050   23.8399 C   0  0  0  0  0  0  0  0  0  0  0  0
    8.4650  -14.6421   23.3750 O   0  0  0  0  0  0  0  0  0  0  0  0
    7.6850  -11.7475   27.3364 C   0  0  0  0  0  0  0  0  0  0  0  0
    6.7796  -12.7489   26.6547 C   0  0  1  0  0  0  0  0  0  0  0  0
    5.7002  -12.0012   25.9504 C   0  0  0  0  0  0  0  0  0  0  0  0
    7.6386  -13.5728   25.7323 C   0  0  2  0  0  0  0  0  0  0  0  0
    6.9519  -14.6440   25.0998 N   0  0  0  0  0  0  0  0  0  0  0  0
    8.7540  -14.1558   26.5531 C   0  0  0  0  0  0  0  0  0  0  0  0
    9.5613  -13.3968   27.1248 O   0  0  0  0  0  0  0  0  0  0  0  0
    8.9084  -15.5480   26.6916 N   0  0  0  0  0  0  0  0  0  0  0  0
    9.8990  -16.0643   27.6193 C   0  0  0  0  0  0  0  0  0  0  0  0
   10.6070  -17.2090   27.0007 C   0  0  0  0  0  0  0  0  0  0  0  0
   11.3153  -18.0894   27.7790 O   0  0  0  0  0  0  0  0  0  0  0  0
   10.5627  -17.3813   25.7524 O   0  0  0  0  0  0  0  0  0  0  0  0
  2  3  2  0
  2  1  1  0
  4  2  1  0
  5  4  1  0
  5  7  1  0
  5  6  1  6
  7  8  2  0
 10 12  1  0
 10  9  1  6
 11 10  1  0
 12 13  1  1
 13  7  1  0
 14 16  1  0
 14 12  1  0
 15 14  2  0
 17 18  1  0
 17 16  1  0
 18 19  1  0
 20 18  2  0
M  END
$$$$
