NVG.pdb
     RDKit          3D

 20 19  0  0  1  0  0  0  0  0999 V2000
    6.9559  -15.9838   18.9043 N   0  0  0  0  0  0  0  0  0  0  0  0
    8.0450  -16.0487   19.8290 C   0  0  0  0  0  0  0  0  0  0  0  0
    8.9039  -16.9566   19.7055 O   0  0  0  0  0  0  0  0  0  0  0  0
    8.2051  -15.0758   20.9427 C   0  0  0  0  0  0  0  0  0  0  0  0
    8.1022  -15.8616   22.2411 C   0  0  2  0  0  0  0  0  0  0  0  0
    6.7417  -16.3683   22.3471 N   0  0  0  0  0  0  0  0  0  0  0  0
    8.4286  -14.9950   23.4036 C   0  0  0  0  0  0  0  0  0  0  0  0
    9.5255  -14.3979   23.4125 O   0  0  0  0  0  0  0  0  0  0  0  0
    7.6321  -12.3188   27.2655 C   0  0  0  0  0  0  0  0  0  0  0  0
    6.9582  -13.1300   26.1815 C   0  0  1  0  0  0  0  0  0  0  0  0
    6.4122  -12.1892   25.1632 C   0  0  0  0  0  0  0  0  0  0  0  0
    7.9874  -14.0804   25.6293 C   0  0  2  0  0  0  0  0  0  0  0  0
    7.5486  -14.8199   24.4979 N   0  0  0  0  0  0  0  0  0  0  0  0
    8.3318  -15.0571   26.7179 C   0  0  0  0  0  0  0  0  0  0  0  0
    7.4198  -15.6630   27.3144 O   0  0  0  0  0  0  0  0  0  0  0  0
    9.6689  -15.3045   27.0813 N   0  0  0  0  0  0  0  0  0  0  0  0
    9.9562  -16.2988   28.0998 C   0  0  0  0  0  0  0  0  0  0  0  0
   11.4199  -16.3800   28.3129 C   0  0  0  0  0  0  0  0  0  0  0  0
   11.9345  -17.1930   29.2909 O   0  0  0  0  0  0  0  0  0  0  0  0
   12.2031  -15.7008   27.5951 O   0  0  0  0  0  0  0  0  0  0  0  0
  2  3  2  0
  2  1  1  0
  4  2  1  0
  5  4  1  0
  5  7  1  0
  5  6  1  1
  7  8  2  0
 10 12  1  0
 10  9  1  1
 11 10  1  0
 12 13  1  6
 13  7  1  0
 14 16  1  0
 14 12  1  0
 15 14  2  0
 17 18  1  0
 17 16  1  0
 18 19  1  0
 20 18  2  0
M  END
$$$$
