NVG.pdb
     RDKit          3D

 20 19  0  0  1  0  0  0  0  0999 V2000
    6.8567  -19.6170   16.3462 N   0  0  0  0  0  0  0  0  0  0  0  0
    7.1738  -19.9438   17.7020 C   0  0  0  0  0  0  0  0  0  0  0  0
    6.9600  -21.1086   18.1205 O   0  0  0  0  0  0  0  0  0  0  0  0
    7.7523  -18.9519   18.6475 C   0  0  0  0  0  0  0  0  0  0  0  0
    7.7305  -17.6015   17.9477 C   0  0  2  0  0  0  0  0  0  0  0  0
    8.4307  -17.7468   16.6799 N   0  0  0  0  0  0  0  0  0  0  0  0
    8.3844  -16.5660   18.7897 C   0  0  0  0  0  0  0  0  0  0  0  0
    9.5991  -16.3349   18.6144 O   0  0  0  0  0  0  0  0  0  0  0  0
    8.4108  -12.8272   21.8709 C   0  0  0  0  0  0  0  0  0  0  0  0
    7.5519  -13.6893   20.9730 C   0  0  1  0  0  0  0  0  0  0  0  0
    7.0824  -12.8546   19.8314 C   0  0  0  0  0  0  0  0  0  0  0  0
    8.3892  -14.8673   20.5502 C   0  0  2  0  0  0  0  0  0  0  0  0
    7.6874  -15.8332   19.7797 N   0  0  0  0  0  0  0  0  0  0  0  0
    8.8864  -15.5403   21.7982 C   0  0  0  0  0  0  0  0  0  0  0  0
    8.0700  -16.0446   22.5943 O   0  0  0  0  0  0  0  0  0  0  0  0
   10.2613  -15.6144   22.0900 N   0  0  0  0  0  0  0  0  0  0  0  0
   10.6898  -16.1878   23.3535 C   0  0  0  0  0  0  0  0  0  0  0  0
   12.1652  -16.1065   23.4586 C   0  0  0  0  0  0  0  0  0  0  0  0
   12.7908  -16.3635   24.6523 O   0  0  0  0  0  0  0  0  0  0  0  0
   12.8561  -15.8000   22.4494 O   0  0  0  0  0  0  0  0  0  0  0  0
  2  3  2  0
  2  1  1  0
  4  2  1  0
  5  4  1  0
  5  7  1  0
  5  6  1  6
  7  8  2  0
 10 12  1  0
 10  9  1  1
 11 10  1  0
 12 13  1  1
 13  7  1  0
 14 16  1  0
 14 12  1  0
 15 14  2  0
 17 18  1  0
 17 16  1  0
 18 19  1  0
 20 18  2  0
M  END
$$$$
