SHL.pdb
     RDKit          3D

 25 25  0  0  1  0  0  0  0  0999 V2000
   26.1145  -15.0000  -14.6144 O   0  0  0  0  0  0  0  0  0  0  0  0
   25.6025  -16.2923  -14.4593 C   0  0  0  0  0  0  0  0  0  0  0  0
   26.5886  -17.2549  -15.0773 C   0  0  2  0  0  0  0  0  0  0  0  0
   26.6532  -17.1064  -16.5174 N   0  0  0  0  0  0  0  0  0  0  0  0
   26.3457  -18.6530  -14.6692 C   0  0  0  0  0  0  0  0  0  0  0  0
   25.2467  -19.2141  -14.9313 O   0  0  0  0  0  0  0  0  0  0  0  0
   27.3047  -19.4367  -13.9745 N   0  0  0  0  0  0  0  0  0  0  0  0
   27.1166  -20.7882  -13.5549 C   0  0  1  0  0  0  0  0  0  0  0  0
   28.2715  -21.6869  -13.8483 C   0  0  0  0  0  0  0  0  0  0  0  0
   28.5327  -21.8303  -15.3019 C   0  0  0  0  0  0  0  0  0  0  0  0
   27.8051  -21.2663  -16.3262 C   0  0  0  0  0  0  0  0  0  0  0  0
   28.3674  -21.6381  -17.4829 N   0  0  0  0  0  0  0  0  0  0  0  0
   29.4302  -22.4211  -17.2273 C   0  0  0  0  0  0  0  0  0  0  0  0
   29.5260  -22.5349  -15.8924 N   0  0  0  0  0  0  0  0  0  0  0  0
   26.7011  -20.9205  -12.1513 C   0  0  0  0  0  0  0  0  0  0  0  0
   27.5684  -21.1076  -11.2636 O   0  0  0  0  0  0  0  0  0  0  0  0
   26.5386  -21.8042   -8.0857 C   0  0  0  0  0  0  0  0  0  0  0  0
   26.7658  -20.3862   -8.5834 C   0  0  2  0  0  0  0  0  0  0  0  0
   27.0902  -19.4788   -7.4591 C   0  0  0  0  0  0  0  0  0  0  0  0
   25.7784  -19.9358   -9.5853 C   0  0  0  0  0  0  0  0  0  0  0  0
   24.9867  -20.9392  -10.3309 C   0  0  2  0  0  0  0  0  0  0  0  0
   25.3377  -20.8428  -11.7649 N   0  0  0  0  0  0  0  0  0  0  0  0
   23.5320  -20.8822  -10.2211 C   0  0  0  0  0  0  0  0  0  0  0  0
   22.9006  -21.5412   -9.1665 O   0  0  0  0  0  0  0  0  0  0  0  0
   22.8350  -20.2672  -11.0342 O   0  0  0  0  0  0  0  0  0  0  0  0
  2  1  1  0
  3  2  1  0
  3  5  1  0
  3  4  1  6
  5  6  2  0
  5  7  1  0
  7  8  1  0
  8 15  1  0
  8  9  1  1
  9 10  1  0
 10 11  2  0
 10 14  1  0
 11 12  1  0
 12 13  1  0
 14 13  2  0
 15 22  1  0
 15 16  2  0
 18 17  1  1
 18 19  1  0
 18 20  1  0
 21 20  1  1
 21 23  1  0
 22 21  1  0
 23 24  1  0
 25 23  2  0
M  END
$$$$
