SHL.pdb
     RDKit          3D

 25 25  0  0  1  0  0  0  0  0999 V2000
   14.9130  -14.1853  -14.5443 O   0  0  0  0  0  0  0  0  0  0  0  0
   16.0353  -13.3934  -14.8076 C   0  0  0  0  0  0  0  0  0  0  0  0
   16.0051  -13.0255  -16.2722 C   0  0  2  0  0  0  0  0  0  0  0  0
   16.3958  -14.1388  -17.1136 N   0  0  0  0  0  0  0  0  0  0  0  0
   16.7812  -11.8038  -16.5644 C   0  0  0  0  0  0  0  0  0  0  0  0
   17.9161  -11.8821  -17.1096 O   0  0  0  0  0  0  0  0  0  0  0  0
   16.3159  -10.4972  -16.2603 N   0  0  0  0  0  0  0  0  0  0  0  0
   17.0204   -9.2865  -16.5356 C   0  0  1  0  0  0  0  0  0  0  0  0
   16.1479   -8.0799  -16.6383 C   0  0  0  0  0  0  0  0  0  0  0  0
   16.8996   -6.8583  -17.0181 C   0  0  0  0  0  0  0  0  0  0  0  0
   17.3359   -5.8658  -16.1689 C   0  0  0  0  0  0  0  0  0  0  0  0
   17.9710   -4.9451  -16.9047 N   0  0  0  0  0  0  0  0  0  0  0  0
   17.9528   -5.3202  -18.1958 C   0  0  0  0  0  0  0  0  0  0  0  0
   17.2965   -6.4905  -18.2587 N   0  0  0  0  0  0  0  0  0  0  0  0
   18.1459   -9.0355  -15.6243 C   0  0  0  0  0  0  0  0  0  0  0  0
   18.0060   -9.2450  -14.3948 O   0  0  0  0  0  0  0  0  0  0  0  0
   23.9417  -10.1864  -15.2743 C   0  0  0  0  0  0  0  0  0  0  0  0
   22.8301   -9.3368  -14.6804 C   0  0  2  0  0  0  0  0  0  0  0  0
   22.7171   -9.5622  -13.2212 C   0  0  0  0  0  0  0  0  0  0  0  0
   21.5917   -9.3199  -15.4851 C   0  0  0  0  0  0  0  0  0  0  0  0
   20.5078   -8.3753  -15.1354 C   0  0  2  0  0  0  0  0  0  0  0  0
   19.3971   -8.5591  -16.0953 N   0  0  0  0  0  0  0  0  0  0  0  0
   20.8289   -6.9519  -15.0893 C   0  0  0  0  0  0  0  0  0  0  0  0
   21.1516   -6.3641  -13.8664 O   0  0  0  0  0  0  0  0  0  0  0  0
   20.8251   -6.2440  -16.1013 O   0  0  0  0  0  0  0  0  0  0  0  0
  2  1  1  0
  3  2  1  0
  3  5  1  0
  3  4  1  6
  5  6  2  0
  5  7  1  0
  7  8  1  0
  8 15  1  0
  8  9  1  1
  9 10  1  0
 10 11  2  0
 10 14  1  0
 11 12  1  0
 12 13  1  0
 14 13  2  0
 15 22  1  0
 15 16  2  0
 18 17  1  6
 18 19  1  0
 18 20  1  0
 21 20  1  6
 21 23  1  0
 22 21  1  0
 23 24  1  0
 25 23  2  0
M  END
$$$$
