SHL.pdb
     RDKit          3D

 25 25  0  0  1  0  0  0  0  0999 V2000
   28.4441  -29.0103  -18.7227 O   0  0  0  0  0  0  0  0  0  0  0  0
   27.8486  -27.7500  -18.8378 C   0  0  0  0  0  0  0  0  0  0  0  0
   27.5210  -27.2673  -17.4447 C   0  0  2  0  0  0  0  0  0  0  0  0
   28.7148  -27.0952  -16.6415 N   0  0  0  0  0  0  0  0  0  0  0  0
   26.5134  -28.1141  -16.7752 C   0  0  0  0  0  0  0  0  0  0  0  0
   26.5227  -28.2490  -15.5210 O   0  0  0  0  0  0  0  0  0  0  0  0
   25.4963  -28.8129  -17.4776 N   0  0  0  0  0  0  0  0  0  0  0  0
   24.4410  -29.5599  -16.8725 C   0  0  1  0  0  0  0  0  0  0  0  0
   23.1604  -29.5420  -17.6388 C   0  0  0  0  0  0  0  0  0  0  0  0
   22.3259  -28.3534  -17.3348 C   0  0  0  0  0  0  0  0  0  0  0  0
   22.5602  -27.4149  -16.3545 C   0  0  0  0  0  0  0  0  0  0  0  0
   21.5771  -26.5078  -16.4104 N   0  0  0  0  0  0  0  0  0  0  0  0
   20.7241  -26.8393  -17.3955 C   0  0  0  0  0  0  0  0  0  0  0  0
   21.1871  -27.9684  -17.9567 N   0  0  0  0  0  0  0  0  0  0  0  0
   24.8154  -30.9373  -16.5220 C   0  0  0  0  0  0  0  0  0  0  0  0
   25.5732  -31.5861  -17.2836 O   0  0  0  0  0  0  0  0  0  0  0  0
   27.1309  -32.8662  -13.0962 C   0  0  0  0  0  0  0  0  0  0  0  0
   25.7051  -32.5785  -12.6554 C   0  0  2  0  0  0  0  0  0  0  0  0
   25.5524  -32.7867  -11.1973 C   0  0  0  0  0  0  0  0  0  0  0  0
   24.6744  -33.1354  -13.5549 C   0  0  0  0  0  0  0  0  0  0  0  0
   24.7952  -32.9333  -15.0157 C   0  0  2  0  0  0  0  0  0  0  0  0
   24.3424  -31.5624  -15.3389 N   0  0  0  0  0  0  0  0  0  0  0  0
   24.0866  -33.8581  -15.8954 C   0  0  0  0  0  0  0  0  0  0  0  0
   22.7711  -33.5774  -16.2639 O   0  0  0  0  0  0  0  0  0  0  0  0
   24.6136  -34.8877  -16.3285 O   0  0  0  0  0  0  0  0  0  0  0  0
  2  1  1  0
  3  2  1  0
  3  5  1  0
  3  4  1  1
  5  6  2  0
  5  7  1  0
  7  8  1  0
  8 15  1  0
  8  9  1  6
  9 10  1  0
 10 11  2  0
 10 14  1  0
 11 12  1  0
 12 13  1  0
 14 13  2  0
 15 22  1  0
 15 16  2  0
 18 17  1  6
 18 19  1  0
 18 20  1  0
 21 20  1  1
 21 23  1  0
 22 21  1  0
 23 24  1  0
 25 23  2  0
M  END
$$$$
