SHL.pdb
     RDKit          3D

 25 25  0  0  1  0  0  0  0  0999 V2000
   18.2860  -15.2464  -15.1108 O   0  0  0  0  0  0  0  0  0  0  0  0
   18.8102  -14.2925  -15.9890 C   0  0  0  0  0  0  0  0  0  0  0  0
   17.6496  -13.5476  -16.6049 C   0  0  2  0  0  0  0  0  0  0  0  0
   17.2002  -14.1738  -17.8320 N   0  0  0  0  0  0  0  0  0  0  0  0
   17.9308  -12.1088  -16.7812 C   0  0  0  0  0  0  0  0  0  0  0  0
   18.5425  -11.6973  -17.8049 O   0  0  0  0  0  0  0  0  0  0  0  0
   17.5431  -11.1207  -15.8380 N   0  0  0  0  0  0  0  0  0  0  0  0
   17.7883   -9.7200  -15.9637 C   0  0  1  0  0  0  0  0  0  0  0  0
   16.5637   -8.8726  -15.8652 C   0  0  0  0  0  0  0  0  0  0  0  0
   15.5901   -9.1418  -16.9521 C   0  0  0  0  0  0  0  0  0  0  0  0
   15.5929   -8.5869  -18.2125 C   0  0  0  0  0  0  0  0  0  0  0  0
   14.5511   -9.0907  -18.8857 N   0  0  0  0  0  0  0  0  0  0  0  0
   13.8850   -9.9490  -18.0934 C   0  0  0  0  0  0  0  0  0  0  0  0
   14.5249   -9.9758  -16.9128 N   0  0  0  0  0  0  0  0  0  0  0  0
   18.8382   -9.2192  -15.0653 C   0  0  0  0  0  0  0  0  0  0  0  0
   19.0826   -9.8305  -13.9968 O   0  0  0  0  0  0  0  0  0  0  0  0
   23.3773   -9.2167  -13.1926 C   0  0  0  0  0  0  0  0  0  0  0  0
   23.2309   -8.8516  -14.6607 C   0  0  2  0  0  0  0  0  0  0  0  0
   24.0755   -7.6834  -14.9999 C   0  0  0  0  0  0  0  0  0  0  0  0
   21.8373   -8.8746  -15.1494 C   0  0  0  0  0  0  0  0  0  0  0  0
   20.8876   -7.8354  -14.6937 C   0  0  2  0  0  0  0  0  0  0  0  0
   19.5907   -8.0553  -15.3707 N   0  0  0  0  0  0  0  0  0  0  0  0
   21.2607   -6.4367  -14.8838 C   0  0  0  0  0  0  0  0  0  0  0  0
   22.0361   -5.7993  -13.9157 O   0  0  0  0  0  0  0  0  0  0  0  0
   20.9118   -5.7928  -15.8782 O   0  0  0  0  0  0  0  0  0  0  0  0
  2  1  1  0
  3  2  1  0
  3  5  1  0
  3  4  1  6
  5  6  2  0
  5  7  1  0
  7  8  1  0
  8 15  1  0
  8  9  1  1
  9 10  1  0
 10 11  2  0
 10 14  1  0
 11 12  1  0
 12 13  1  0
 14 13  2  0
 15 22  1  0
 15 16  2  0
 18 17  1  1
 18 19  1  0
 18 20  1  0
 21 20  1  6
 21 23  1  0
 22 21  1  0
 23 24  1  0
 25 23  2  0
M  END
$$$$
