SHL.pdb
     RDKit          3D

 25 25  0  0  1  0  0  0  0  0999 V2000
   20.7498   -8.2830  -21.0720 O   0  0  0  0  0  0  0  0  0  0  0  0
   21.9884   -8.8422  -20.7413 C   0  0  0  0  0  0  0  0  0  0  0  0
   21.7328  -10.0211  -19.8325 C   0  0  2  0  0  0  0  0  0  0  0  0
   20.7063  -10.8955  -20.3633 N   0  0  0  0  0  0  0  0  0  0  0  0
   21.4552   -9.6127  -18.4410 C   0  0  0  0  0  0  0  0  0  0  0  0
   20.2707   -9.4063  -18.0590 O   0  0  0  0  0  0  0  0  0  0  0  0
   22.4730   -9.4300  -17.4678 N   0  0  0  0  0  0  0  0  0  0  0  0
   22.2540   -9.0721  -16.1033 C   0  0  1  0  0  0  0  0  0  0  0  0
   23.0052   -9.9093  -15.1224 C   0  0  0  0  0  0  0  0  0  0  0  0
   22.5415  -11.3185  -15.0963 C   0  0  0  0  0  0  0  0  0  0  0  0
   21.5243  -11.8620  -15.8490 C   0  0  0  0  0  0  0  0  0  0  0  0
   21.4238  -13.1581  -15.5293 N   0  0  0  0  0  0  0  0  0  0  0  0
   22.3451  -13.4571  -14.5967 C   0  0  0  0  0  0  0  0  0  0  0  0
   23.0251  -12.3285  -14.3361 N   0  0  0  0  0  0  0  0  0  0  0  0
   22.4558   -7.6429  -15.8259 C   0  0  0  0  0  0  0  0  0  0  0  0
   23.5082   -7.0793  -16.2131 O   0  0  0  0  0  0  0  0  0  0  0  0
   21.1399   -4.0649  -17.5876 C   0  0  0  0  0  0  0  0  0  0  0  0
   20.0494   -4.5685  -16.6563 C   0  0  2  0  0  0  0  0  0  0  0  0
   18.7612   -3.8961  -16.9413 C   0  0  0  0  0  0  0  0  0  0  0  0
   20.4754   -4.6997  -15.2482 C   0  0  0  0  0  0  0  0  0  0  0  0
   21.7243   -5.4262  -14.9289 C   0  0  2  0  0  0  0  0  0  0  0  0
   21.4893   -6.8733  -15.1274 N   0  0  0  0  0  0  0  0  0  0  0  0
   22.3013   -5.2442  -13.6003 C   0  0  0  0  0  0  0  0  0  0  0  0
   22.8669   -4.0145  -13.2641 O   0  0  0  0  0  0  0  0  0  0  0  0
   22.3070   -6.1464  -12.7569 O   0  0  0  0  0  0  0  0  0  0  0  0
  2  1  1  0
  3  2  1  0
  3  5  1  0
  3  4  1  6
  5  6  2  0
  5  7  1  0
  7  8  1  0
  8 15  1  0
  8  9  1  1
  9 10  1  0
 10 11  2  0
 10 14  1  0
 11 12  1  0
 12 13  1  0
 14 13  2  0
 15 22  1  0
 15 16  2  0
 18 17  1  6
 18 19  1  0
 18 20  1  0
 21 20  1  1
 21 23  1  0
 22 21  1  0
 23 24  1  0
 25 23  2  0
M  END
$$$$
