SHL.pdb
     RDKit          3D

 25 25  0  0  1  0  0  0  0  0999 V2000
   24.9226  -20.3420  -18.4081 O   0  0  0  0  0  0  0  0  0  0  0  0
   26.0364  -19.9123  -17.6795 C   0  0  0  0  0  0  0  0  0  0  0  0
   26.2092  -20.8499  -16.5081 C   0  0  2  0  0  0  0  0  0  0  0  0
   26.8344  -22.0955  -16.9051 N   0  0  0  0  0  0  0  0  0  0  0  0
   24.9506  -21.0668  -15.7670 C   0  0  0  0  0  0  0  0  0  0  0  0
   24.3183  -22.1521  -15.8839 O   0  0  0  0  0  0  0  0  0  0  0  0
   24.3841  -20.0967  -14.8985 N   0  0  0  0  0  0  0  0  0  0  0  0
   23.0997  -20.1917  -14.2827 C   0  0  1  0  0  0  0  0  0  0  0  0
   23.0443  -19.6465  -12.8944 C   0  0  0  0  0  0  0  0  0  0  0  0
   23.8033  -20.4720  -11.9227 C   0  0  0  0  0  0  0  0  0  0  0  0
   24.4716  -21.6463  -12.1888 C   0  0  0  0  0  0  0  0  0  0  0  0
   25.0243  -22.0727  -11.0464 N   0  0  0  0  0  0  0  0  0  0  0  0
   24.7289  -21.2067  -10.0611 C   0  0  0  0  0  0  0  0  0  0  0  0
   23.9822  -20.2305  -10.6030 N   0  0  0  0  0  0  0  0  0  0  0  0
   22.0089  -19.6406  -15.0992 C   0  0  0  0  0  0  0  0  0  0  0  0
   22.1963  -18.5854  -15.7524 O   0  0  0  0  0  0  0  0  0  0  0  0
   17.3123  -19.7498  -17.9294 C   0  0  0  0  0  0  0  0  0  0  0  0
   18.7583  -19.8672  -18.3823 C   0  0  2  0  0  0  0  0  0  0  0  0
   18.8421  -20.4983  -19.7193 C   0  0  0  0  0  0  0  0  0  0  0  0
   19.6821  -20.3330  -17.3281 C   0  0  0  0  0  0  0  0  0  0  0  0
   19.6796  -19.6634  -16.0086 C   0  0  2  0  0  0  0  0  0  0  0  0
   20.7389  -20.2698  -15.1725 N   0  0  0  0  0  0  0  0  0  0  0  0
   18.4396  -19.6744  -15.2380 C   0  0  0  0  0  0  0  0  0  0  0  0
   18.2442  -20.6621  -14.2730 O   0  0  0  0  0  0  0  0  0  0  0  0
   17.5508  -18.8345  -15.4108 O   0  0  0  0  0  0  0  0  0  0  0  0
  2  1  1  0
  3  2  1  0
  3  5  1  0
  3  4  1  6
  5  6  2  0
  5  7  1  0
  7  8  1  0
  8 15  1  0
  8  9  1  1
  9 10  1  0
 10 11  2  0
 10 14  1  0
 11 12  1  0
 12 13  1  0
 14 13  2  0
 15 22  1  0
 15 16  2  0
 18 17  1  1
 18 19  1  0
 18 20  1  0
 21 20  1  6
 21 23  1  0
 22 21  1  0
 23 24  1  0
 25 23  2  0
M  END
$$$$
