SHL.pdb
     RDKit          3D

 25 25  0  0  1  0  0  0  0  0999 V2000
   30.0545  -21.8800  -14.9291 O   0  0  0  0  0  0  0  0  0  0  0  0
   29.3832  -21.1593  -13.9360 C   0  0  0  0  0  0  0  0  0  0  0  0
   28.1548  -20.5452  -14.5644 C   0  0  2  0  0  0  0  0  0  0  0  0
   28.4979  -19.4772  -15.4818 N   0  0  0  0  0  0  0  0  0  0  0  0
   27.1577  -20.1221  -13.5609 C   0  0  0  0  0  0  0  0  0  0  0  0
   27.2636  -19.0044  -12.9856 O   0  0  0  0  0  0  0  0  0  0  0  0
   26.0453  -20.9215  -13.1869 N   0  0  0  0  0  0  0  0  0  0  0  0
   25.0472  -20.5516  -12.2356 C   0  0  1  0  0  0  0  0  0  0  0  0
   23.6503  -20.8567  -12.6635 C   0  0  0  0  0  0  0  0  0  0  0  0
   22.6373  -20.4182  -11.6720 C   0  0  0  0  0  0  0  0  0  0  0  0
   22.8753  -19.7189  -10.5097 C   0  0  0  0  0  0  0  0  0  0  0  0
   21.6994  -19.5209   -9.9010 N   0  0  0  0  0  0  0  0  0  0  0  0
   20.7201  -20.0721  -10.6393 C   0  0  0  0  0  0  0  0  0  0  0  0
   21.2997  -20.6191  -11.7205 N   0  0  0  0  0  0  0  0  0  0  0  0
   25.2985  -21.0671  -10.8823 C   0  0  0  0  0  0  0  0  0  0  0  0
   25.4708  -22.2983  -10.7105 O   0  0  0  0  0  0  0  0  0  0  0  0
   28.4160  -20.9197   -7.5007 C   0  0  0  0  0  0  0  0  0  0  0  0
   27.6347  -19.6191   -7.5912 C   0  0  2  0  0  0  0  0  0  0  0  0
   28.2521  -18.5736   -6.7436 C   0  0  0  0  0  0  0  0  0  0  0  0
   26.1692  -19.7935   -7.5336 C   0  0  0  0  0  0  0  0  0  0  0  0
   25.5194  -20.7964   -8.4062 C   0  0  2  0  0  0  0  0  0  0  0  0
   25.3526  -20.2085   -9.7535 N   0  0  0  0  0  0  0  0  0  0  0  0
   24.2273  -21.3325   -7.9883 C   0  0  0  0  0  0  0  0  0  0  0  0
   24.1892  -22.4238   -7.1207 O   0  0  0  0  0  0  0  0  0  0  0  0
   23.1588  -20.8513   -8.3782 O   0  0  0  0  0  0  0  0  0  0  0  0
  2  1  1  0
  3  2  1  0
  3  5  1  0
  3  4  1  1
  5  6  2  0
  5  7  1  0
  7  8  1  0
  8 15  1  0
  8  9  1  6
  9 10  1  0
 10 11  2  0
 10 14  1  0
 11 12  1  0
 12 13  1  0
 14 13  2  0
 15 22  1  0
 15 16  2  0
 18 17  1  1
 18 19  1  0
 18 20  1  0
 21 20  1  1
 21 23  1  0
 22 21  1  0
 23 24  1  0
 25 23  2  0
M  END
$$$$
