SHL.pdb
     RDKit          3D

 25 25  0  0  1  0  0  0  0  0999 V2000
   20.1742  -18.9344  -10.7016 O   0  0  0  0  0  0  0  0  0  0  0  0
   20.8765  -20.0399  -10.2109 C   0  0  0  0  0  0  0  0  0  0  0  0
   21.7199  -20.5862  -11.3384 C   0  0  2  0  0  0  0  0  0  0  0  0
   21.0662  -21.6905  -12.0115 N   0  0  0  0  0  0  0  0  0  0  0  0
   23.0901  -20.9266  -10.9060 C   0  0  0  0  0  0  0  0  0  0  0  0
   23.3023  -21.9501  -10.1996 O   0  0  0  0  0  0  0  0  0  0  0  0
   24.2276  -20.1477  -11.2461 N   0  0  0  0  0  0  0  0  0  0  0  0
   25.5732  -20.4486  -10.8762 C   0  0  1  0  0  0  0  0  0  0  0  0
   26.5913  -20.0495  -11.8919 C   0  0  0  0  0  0  0  0  0  0  0  0
   26.3668  -20.6888  -13.2120 C   0  0  0  0  0  0  0  0  0  0  0  0
   26.6629  -21.9893  -13.5552 C   0  0  0  0  0  0  0  0  0  0  0  0
   26.3072  -22.1682  -14.8334 N   0  0  0  0  0  0  0  0  0  0  0  0
   25.7941  -21.0224  -15.3150 C   0  0  0  0  0  0  0  0  0  0  0  0
   25.8333  -20.1219  -14.3191 N   0  0  0  0  0  0  0  0  0  0  0  0
   25.9472  -19.9509   -9.5449 C   0  0  0  0  0  0  0  0  0  0  0  0
   25.3802  -18.9309   -9.0830 O   0  0  0  0  0  0  0  0  0  0  0  0
   28.3443  -19.5957   -4.8032 C   0  0  0  0  0  0  0  0  0  0  0  0
   27.0208  -20.3228   -4.9753 C   0  0  2  0  0  0  0  0  0  0  0  0
   26.8309  -21.3313   -3.9077 C   0  0  0  0  0  0  0  0  0  0  0  0
   26.7269  -20.7135   -6.3690 C   0  0  0  0  0  0  0  0  0  0  0  0
   27.3615  -19.9743   -7.4827 C   0  0  2  0  0  0  0  0  0  0  0  0
   26.9386  -20.5932   -8.7582 N   0  0  0  0  0  0  0  0  0  0  0  0
   28.8180  -19.8735   -7.4950 C   0  0  0  0  0  0  0  0  0  0  0  0
   29.4333  -18.7974   -6.8560 O   0  0  0  0  0  0  0  0  0  0  0  0
   29.5302  -20.7127   -8.0550 O   0  0  0  0  0  0  0  0  0  0  0  0
  2  1  1  0
  3  2  1  0
  3  5  1  0
  3  4  1  1
  5  6  2  0
  5  7  1  0
  7  8  1  0
  8 15  1  0
  8  9  1  6
  9 10  1  0
 10 11  2  0
 10 14  1  0
 11 12  1  0
 12 13  1  0
 14 13  2  0
 15 22  1  0
 15 16  2  0
 18 17  1  6
 18 19  1  0
 18 20  1  0
 21 20  1  1
 21 23  1  0
 22 21  1  0
 23 24  1  0
 25 23  2  0
M  END
$$$$
