SHL.pdb
     RDKit          3D

 25 25  0  0  1  0  0  0  0  0999 V2000
   22.6369  -14.6531  -18.5003 O   0  0  0  0  0  0  0  0  0  0  0  0
   21.9284  -13.4474  -18.5205 C   0  0  0  0  0  0  0  0  0  0  0  0
   22.4351  -12.5972  -17.3796 C   0  0  2  0  0  0  0  0  0  0  0  0
   22.6367  -13.3786  -16.1760 N   0  0  0  0  0  0  0  0  0  0  0  0
   21.5906  -11.4097  -17.1410 C   0  0  0  0  0  0  0  0  0  0  0  0
   21.3066  -10.6259  -18.0878 O   0  0  0  0  0  0  0  0  0  0  0  0
   21.0571  -11.0798  -15.8671 N   0  0  0  0  0  0  0  0  0  0  0  0
   20.2950   -9.9097  -15.5706 C   0  0  1  0  0  0  0  0  0  0  0  0
   19.1330  -10.1488  -14.6649 C   0  0  0  0  0  0  0  0  0  0  0  0
   18.0370  -10.9016  -15.3236 C   0  0  0  0  0  0  0  0  0  0  0  0
   18.0119  -11.3413  -16.6284 C   0  0  0  0  0  0  0  0  0  0  0  0
   16.8499  -11.9761  -16.8260 N   0  0  0  0  0  0  0  0  0  0  0  0
   16.1341  -11.9543  -15.6879 C   0  0  0  0  0  0  0  0  0  0  0  0
   16.8651  -11.2960  -14.7733 N   0  0  0  0  0  0  0  0  0  0  0  0
   21.1043   -8.7819  -15.0875 C   0  0  0  0  0  0  0  0  0  0  0  0
   21.9209   -8.9616  -14.1515 O   0  0  0  0  0  0  0  0  0  0  0  0
   23.2628   -3.7432  -15.7723 C   0  0  0  0  0  0  0  0  0  0  0  0
   23.8534   -5.0663  -16.2313 C   0  0  2  0  0  0  0  0  0  0  0  0
   24.8108   -4.8589  -17.3417 C   0  0  0  0  0  0  0  0  0  0  0  0
   22.8636   -6.1558  -16.3532 C   0  0  0  0  0  0  0  0  0  0  0  0
   21.9378   -6.4286  -15.2316 C   0  0  2  0  0  0  0  0  0  0  0  0
   20.9903   -7.4845  -15.6513 N   0  0  0  0  0  0  0  0  0  0  0  0
   21.1594   -5.3138  -14.7000 C   0  0  0  0  0  0  0  0  0  0  0  0
   21.6839   -4.5508  -13.6571 O   0  0  0  0  0  0  0  0  0  0  0  0
   20.0450   -5.0196  -15.1436 O   0  0  0  0  0  0  0  0  0  0  0  0
  2  1  1  0
  3  2  1  0
  3  5  1  0
  3  4  1  1
  5  6  2  0
  5  7  1  0
  7  8  1  0
  8 15  1  0
  8  9  1  1
  9 10  1  0
 10 11  2  0
 10 14  1  0
 11 12  1  0
 12 13  1  0
 14 13  2  0
 15 22  1  0
 15 16  2  0
 18 17  1  6
 18 19  1  0
 18 20  1  0
 21 20  1  6
 21 23  1  0
 22 21  1  0
 23 24  1  0
 25 23  2  0
M  END
$$$$
