SHL.pdb
     RDKit          3D

 25 25  0  0  1  0  0  0  0  0999 V2000
   23.1572  -11.5055  -17.8659 O   0  0  0  0  0  0  0  0  0  0  0  0
   21.9918  -10.7786  -18.1298 C   0  0  0  0  0  0  0  0  0  0  0  0
   20.9800  -11.1295  -17.0648 C   0  0  2  0  0  0  0  0  0  0  0  0
   20.0496  -12.1425  -17.5212 N   0  0  0  0  0  0  0  0  0  0  0  0
   20.2917   -9.9400  -16.5249 C   0  0  0  0  0  0  0  0  0  0  0  0
   19.2574   -9.4885  -17.0888 O   0  0  0  0  0  0  0  0  0  0  0  0
   20.7346   -9.2447  -15.3688 N   0  0  0  0  0  0  0  0  0  0  0  0
   20.1804   -8.0239  -14.8783 C   0  0  1  0  0  0  0  0  0  0  0  0
   20.2964   -7.8489  -13.4006 C   0  0  0  0  0  0  0  0  0  0  0  0
   19.2195   -8.5448  -12.6538 C   0  0  0  0  0  0  0  0  0  0  0  0
   18.1750   -9.2602  -13.1957 C   0  0  0  0  0  0  0  0  0  0  0  0
   17.4294   -9.7271  -12.1865 N   0  0  0  0  0  0  0  0  0  0  0  0
   17.9663   -9.3314  -11.0190 C   0  0  0  0  0  0  0  0  0  0  0  0
   19.0603   -8.6089  -11.3112 N   0  0  0  0  0  0  0  0  0  0  0  0
   20.6663   -6.8280  -15.5811 C   0  0  0  0  0  0  0  0  0  0  0  0
   21.8954   -6.5744  -15.5953 O   0  0  0  0  0  0  0  0  0  0  0  0
   20.6908   -4.3911  -20.8079 C   0  0  0  0  0  0  0  0  0  0  0  0
   20.8812   -4.0396  -19.3415 C   0  0  2  0  0  0  0  0  0  0  0  0
   22.2460   -3.5195  -19.0974 C   0  0  0  0  0  0  0  0  0  0  0  0
   20.3368   -5.0457  -18.4071 C   0  0  0  0  0  0  0  0  0  0  0  0
   20.3333   -4.7648  -16.9543 C   0  0  2  0  0  0  0  0  0  0  0  0
   19.7812   -5.9428  -16.2498 N   0  0  0  0  0  0  0  0  0  0  0  0
   19.6117   -3.5848  -16.4871 C   0  0  0  0  0  0  0  0  0  0  0  0
   18.4530   -3.7490  -15.7286 O   0  0  0  0  0  0  0  0  0  0  0  0
   19.9928   -2.4379  -16.7412 O   0  0  0  0  0  0  0  0  0  0  0  0
  2  1  1  0
  3  2  1  0
  3  5  1  0
  3  4  1  6
  5  6  2  0
  5  7  1  0
  7  8  1  0
  8 15  1  0
  8  9  1  1
  9 10  1  0
 10 11  2  0
 10 14  1  0
 11 12  1  0
 12 13  1  0
 14 13  2  0
 15 22  1  0
 15 16  2  0
 18 17  1  6
 18 19  1  0
 18 20  1  0
 21 20  1  6
 21 23  1  0
 22 21  1  0
 23 24  1  0
 25 23  2  0
M  END
$$$$
