SHL.pdb
     RDKit          3D

 25 25  0  0  1  0  0  0  0  0999 V2000
   17.3387  -14.0557  -17.1541 O   0  0  0  0  0  0  0  0  0  0  0  0
   17.1775  -12.6668  -17.1869 C   0  0  0  0  0  0  0  0  0  0  0  0
   18.3933  -12.0474  -16.5394 C   0  0  2  0  0  0  0  0  0  0  0  0
   18.5837  -12.5273  -15.1854 N   0  0  0  0  0  0  0  0  0  0  0  0
   18.3843  -10.5727  -16.6143 C   0  0  0  0  0  0  0  0  0  0  0  0
   18.4566   -9.9884  -17.7301 O   0  0  0  0  0  0  0  0  0  0  0  0
   18.2963   -9.7377  -15.4692 N   0  0  0  0  0  0  0  0  0  0  0  0
   18.3407   -8.3109  -15.4842 C   0  0  1  0  0  0  0  0  0  0  0  0
   17.2463   -7.6560  -14.7088 C   0  0  0  0  0  0  0  0  0  0  0  0
   15.9486   -7.6644  -15.4281 C   0  0  0  0  0  0  0  0  0  0  0  0
   15.7212   -8.1256  -16.7057 C   0  0  0  0  0  0  0  0  0  0  0  0
   14.4215   -7.9560  -16.9786 N   0  0  0  0  0  0  0  0  0  0  0  0
   13.8142   -7.4012  -15.9149 C   0  0  0  0  0  0  0  0  0  0  0  0
   14.7529   -7.2253  -14.9704 N   0  0  0  0  0  0  0  0  0  0  0  0
   19.6475   -7.7547  -15.1061 C   0  0  0  0  0  0  0  0  0  0  0  0
   20.2694   -8.2419  -14.1308 O   0  0  0  0  0  0  0  0  0  0  0  0
   24.1304   -4.7413  -17.9748 C   0  0  0  0  0  0  0  0  0  0  0  0
   23.7356   -5.5648  -16.7599 C   0  0  2  0  0  0  0  0  0  0  0  0
   24.8003   -6.5331  -16.4111 C   0  0  0  0  0  0  0  0  0  0  0  0
   22.3370   -6.0393  -16.7846 C   0  0  0  0  0  0  0  0  0  0  0  0
   21.6260   -6.2794  -15.5094 C   0  0  2  0  0  0  0  0  0  0  0  0
   20.2334   -6.6741  -15.8155 N   0  0  0  0  0  0  0  0  0  0  0  0
   21.5797   -5.1920  -14.5363 C   0  0  0  0  0  0  0  0  0  0  0  0
   22.6140   -5.0602  -13.6101 O   0  0  0  0  0  0  0  0  0  0  0  0
   20.6511   -4.3785  -14.5034 O   0  0  0  0  0  0  0  0  0  0  0  0
  2  1  1  0
  3  2  1  0
  3  5  1  0
  3  4  1  1
  5  6  2  0
  5  7  1  0
  7  8  1  0
  8 15  1  0
  8  9  1  1
  9 10  1  0
 10 11  2  0
 10 14  1  0
 11 12  1  0
 12 13  1  0
 14 13  2  0
 15 22  1  0
 15 16  2  0
 18 17  1  6
 18 19  1  0
 18 20  1  0
 21 20  1  6
 21 23  1  0
 22 21  1  0
 23 24  1  0
 25 23  2  0
M  END
$$$$
