DWM.pdb
     RDKit          3D

 31 32  0  0  1  0  0  0  0  0999 V2000
   10.8599  -16.8412   19.3289 N   0  0  0  0  0  0  0  0  0  0  0  0
   11.8290  -16.9948   20.3774 C   0  0  1  0  0  0  0  0  0  0  0  0
   13.1950  -16.4967   19.9746 C   0  0  0  0  0  0  0  0  0  0  0  0
   13.6732  -17.3219   18.8446 C   0  0  0  0  0  0  0  0  0  0  0  0
   13.8391  -16.7964   17.7031 O   0  0  0  0  0  0  0  0  0  0  0  0
   11.3205  -16.3371   21.6004 C   0  0  0  0  0  0  0  0  0  0  0  0
   11.8616  -15.3023   22.0505 O   0  0  0  0  0  0  0  0  0  0  0  0
   13.9463  -18.6599   18.9990 O   0  0  0  0  0  0  0  0  0  0  0  0
   10.2120  -16.8817   22.2691 N   0  0  0  0  0  0  0  0  0  0  0  0
    9.5679  -16.3104   23.4077 C   0  0  1  0  0  0  0  0  0  0  0  0
    8.0944  -16.1938   23.1827 C   0  0  0  0  0  0  0  0  0  0  0  0
    7.3645  -15.5067   24.2695 C   0  0  0  0  0  0  0  0  0  0  0  0
    6.5803  -16.0890   25.2516 C   0  0  0  0  0  0  0  0  0  0  0  0
    6.1286  -15.1391   26.0637 N   0  0  0  0  0  0  0  0  0  0  0  0
    6.5901  -13.9608   25.6447 C   0  0  0  0  0  0  0  0  0  0  0  0
    6.4012  -12.6915   26.1377 C   0  0  0  0  0  0  0  0  0  0  0  0
    6.9860  -11.6089   25.5122 C   0  0  0  0  0  0  0  0  0  0  0  0
    7.7613  -11.7558   24.3982 C   0  0  0  0  0  0  0  0  0  0  0  0
    7.9492  -13.0380   23.9048 C   0  0  0  0  0  0  0  0  0  0  0  0
    7.3789  -14.1536   24.5062 C   0  0  0  0  0  0  0  0  0  0  0  0
    9.8088  -17.1813   24.5806 C   0  0  0  0  0  0  0  0  0  0  0  0
    8.8976  -17.9056   25.0276 O   0  0  0  0  0  0  0  0  0  0  0  0
    9.2252  -13.5922   30.5335 C   0  0  0  0  0  0  0  0  0  0  0  0
    9.2777  -13.9315   28.7505 S   0  0  0  0  0  0  0  0  0  0  0  0
   10.4487  -15.2400   28.3926 C   0  0  0  0  0  0  0  0  0  0  0  0
   10.5556  -15.5878   26.9558 C   0  0  0  0  0  0  0  0  0  0  0  0
   11.2436  -16.8596   26.6063 C   0  0  2  0  0  0  0  0  0  0  0  0
   11.1017  -17.2013   25.2194 N   0  0  0  0  0  0  0  0  0  0  0  0
   10.8053  -17.9934   27.4517 C   0  0  0  0  0  0  0  0  0  0  0  0
   10.0929  -19.0460   26.8993 O   0  0  0  0  0  0  0  0  0  0  0  0
   11.0827  -17.9959   28.6729 O   0  0  0  0  0  0  0  0  0  0  0  0
  2  1  1  6
  3  4  1  0
  3  2  1  0
  4  5  2  0
  6  2  1  0
  6  7  2  0
  8  4  1  0
  9  6  1  0
 10  9  1  0
 10 11  1  6
 12 20  1  0
 12 11  1  0
 13 12  2  0
 14 13  1  0
 14 15  1  0
 15 16  1  0
 15 20  2  0
 16 17  2  0
 17 18  1  0
 19 18  2  0
 20 19  1  0
 21 10  1  0
 22 21  2  0
 23 24  1  0
 24 25  1  0
 25 26  1  0
 27 26  1  1
 27 28  1  0
 27 29  1  0
 28 21  1  0
 29 30  1  0
 31 29  2  0
M  END
$$$$
