DWM.pdb
     RDKit          3D

 31 32  0  0  1  0  0  0  0  0999 V2000
   10.7626  -18.1321   19.4331 N   0  0  0  0  0  0  0  0  0  0  0  0
   11.9117  -17.6645   20.1563 C   0  0  1  0  0  0  0  0  0  0  0  0
   12.9133  -16.9774   19.2613 C   0  0  0  0  0  0  0  0  0  0  0  0
   13.4386  -17.9747   18.3045 C   0  0  0  0  0  0  0  0  0  0  0  0
   13.2400  -17.8250   17.0616 O   0  0  0  0  0  0  0  0  0  0  0  0
   11.4592  -16.8045   21.2710 C   0  0  0  0  0  0  0  0  0  0  0  0
   12.1151  -15.7963   21.6169 O   0  0  0  0  0  0  0  0  0  0  0  0
   14.1455  -19.0737   18.7300 O   0  0  0  0  0  0  0  0  0  0  0  0
   10.2741  -17.1230   21.9539 N   0  0  0  0  0  0  0  0  0  0  0  0
    9.7002  -16.3631   23.0173 C   0  0  1  0  0  0  0  0  0  0  0  0
    8.2076  -16.4426   22.9827 C   0  0  0  0  0  0  0  0  0  0  0  0
    7.5266  -15.1305   23.0122 C   0  0  0  0  0  0  0  0  0  0  0  0
    7.0426  -14.4126   21.9311 C   0  0  0  0  0  0  0  0  0  0  0  0
    6.4641  -13.3014   22.3742 N   0  0  0  0  0  0  0  0  0  0  0  0
    6.5553  -13.2708   23.7038 C   0  0  0  0  0  0  0  0  0  0  0  0
    6.1223  -12.3378   24.6159 C   0  0  0  0  0  0  0  0  0  0  0  0
    6.3475  -12.5277   25.9644 C   0  0  0  0  0  0  0  0  0  0  0  0
    6.9985  -13.6315   26.4353 C   0  0  0  0  0  0  0  0  0  0  0  0
    7.4330  -14.5699   25.5115 C   0  0  0  0  0  0  0  0  0  0  0  0
    7.2247  -14.4161   24.1460 C   0  0  0  0  0  0  0  0  0  0  0  0
   10.1819  -16.9064   24.3076 C   0  0  0  0  0  0  0  0  0  0  0  0
   10.5800  -18.0854   24.3876 O   0  0  0  0  0  0  0  0  0  0  0  0
    9.9893  -13.3035   29.7878 C   0  0  0  0  0  0  0  0  0  0  0  0
   10.8411  -14.7615   30.4552 S   0  0  0  0  0  0  0  0  0  0  0  0
   11.0638  -15.9999   29.1791 C   0  0  0  0  0  0  0  0  0  0  0  0
   10.5799  -15.5902   27.8394 C   0  0  0  0  0  0  0  0  0  0  0  0
   10.7161  -16.5720   26.7300 C   0  0  2  0  0  0  0  0  0  0  0  0
   10.1961  -16.0767   25.4872 N   0  0  0  0  0  0  0  0  0  0  0  0
   10.0983  -17.8791   27.0493 C   0  0  0  0  0  0  0  0  0  0  0  0
   10.8664  -18.9107   27.5655 O   0  0  0  0  0  0  0  0  0  0  0  0
    8.8736  -18.0480   26.8496 O   0  0  0  0  0  0  0  0  0  0  0  0
  2  1  1  6
  3  4  1  0
  3  2  1  0
  4  5  2  0
  6  2  1  0
  6  7  2  0
  8  4  1  0
  9  6  1  0
 10  9  1  0
 10 11  1  1
 12 20  1  0
 12 11  1  0
 13 12  2  0
 14 13  1  0
 14 15  1  0
 15 16  1  0
 15 20  2  0
 16 17  2  0
 17 18  1  0
 19 18  2  0
 20 19  1  0
 21 10  1  0
 22 21  2  0
 23 24  1  0
 24 25  1  0
 25 26  1  0
 27 26  1  1
 27 28  1  0
 27 29  1  0
 28 21  1  0
 29 30  1  0
 31 29  2  0
M  END
$$$$
