DWM.pdb
     RDKit          3D

 31 32  0  0  1  0  0  0  0  0999 V2000
    8.4555  -18.0266   20.1370 N   0  0  0  0  0  0  0  0  0  0  0  0
    9.7500  -17.4051   20.1448 C   0  0  1  0  0  0  0  0  0  0  0  0
    9.9529  -16.4855   18.9660 C   0  0  0  0  0  0  0  0  0  0  0  0
   10.3875  -17.3019   17.8124 C   0  0  0  0  0  0  0  0  0  0  0  0
   10.0656  -18.5261   17.7465 O   0  0  0  0  0  0  0  0  0  0  0  0
    9.9457  -16.7213   21.4414 C   0  0  0  0  0  0  0  0  0  0  0  0
   10.6405  -15.6840   21.5266 O   0  0  0  0  0  0  0  0  0  0  0  0
   11.1403  -16.7640   16.7963 O   0  0  0  0  0  0  0  0  0  0  0  0
    9.3425  -17.2436   22.5972 N   0  0  0  0  0  0  0  0  0  0  0  0
    9.6205  -16.8320   23.9354 C   0  0  1  0  0  0  0  0  0  0  0  0
    8.4892  -17.1858   24.8467 C   0  0  0  0  0  0  0  0  0  0  0  0
    7.4124  -16.1741   24.9026 C   0  0  0  0  0  0  0  0  0  0  0  0
    6.0501  -16.4041   25.0012 C   0  0  0  0  0  0  0  0  0  0  0  0
    5.4180  -15.2369   25.0625 N   0  0  0  0  0  0  0  0  0  0  0  0
    6.3199  -14.2568   25.0066 C   0  0  0  0  0  0  0  0  0  0  0  0
    6.1691  -12.8905   25.0265 C   0  0  0  0  0  0  0  0  0  0  0  0
    7.2745  -12.0681   24.9443 C   0  0  0  0  0  0  0  0  0  0  0  0
    8.5389  -12.5726   24.8414 C   0  0  0  0  0  0  0  0  0  0  0  0
    8.6860  -13.9513   24.8220 C   0  0  0  0  0  0  0  0  0  0  0  0
    7.5987  -14.8131   24.9040 C   0  0  0  0  0  0  0  0  0  0  0  0
   10.8472  -17.5176   24.4017 C   0  0  0  0  0  0  0  0  0  0  0  0
   10.9578  -18.7553   24.2975 O   0  0  0  0  0  0  0  0  0  0  0  0
   10.0867  -14.3650   30.9823 C   0  0  0  0  0  0  0  0  0  0  0  0
   10.0429  -14.3614   29.1672 S   0  0  0  0  0  0  0  0  0  0  0  0
   11.1177  -15.6353   28.5088 C   0  0  0  0  0  0  0  0  0  0  0  0
   11.1593  -15.6943   27.0284 C   0  0  0  0  0  0  0  0  0  0  0  0
   12.0881  -16.6756   26.4058 C   0  0  2  0  0  0  0  0  0  0  0  0
   11.9288  -16.7603   24.9818 N   0  0  0  0  0  0  0  0  0  0  0  0
   11.9754  -18.0243   27.0063 C   0  0  0  0  0  0  0  0  0  0  0  0
   13.1133  -18.7342   27.3552 O   0  0  0  0  0  0  0  0  0  0  0  0
   10.8421  -18.5218   27.1978 O   0  0  0  0  0  0  0  0  0  0  0  0
  2  1  1  1
  3  4  1  0
  3  2  1  0
  4  5  2  0
  6  2  1  0
  6  7  2  0
  8  4  1  0
  9  6  1  0
 10  9  1  0
 10 11  1  1
 12 20  1  0
 12 11  1  0
 13 12  2  0
 14 13  1  0
 14 15  1  0
 15 16  1  0
 15 20  2  0
 16 17  2  0
 17 18  1  0
 19 18  2  0
 20 19  1  0
 21 10  1  0
 22 21  2  0
 23 24  1  0
 24 25  1  0
 25 26  1  0
 27 26  1  1
 27 28  1  0
 27 29  1  0
 28 21  1  0
 29 30  1  0
 31 29  2  0
M  END
$$$$
