DWM.pdb
     RDKit          3D

 31 32  0  0  1  0  0  0  0  0999 V2000
   11.0245  -16.2812   18.3393 N   0  0  0  0  0  0  0  0  0  0  0  0
   11.1218  -17.1593   19.4714 C   0  0  1  0  0  0  0  0  0  0  0  0
   12.4844  -17.7963   19.5888 C   0  0  0  0  0  0  0  0  0  0  0  0
   12.7649  -18.5226   18.3319 C   0  0  0  0  0  0  0  0  0  0  0  0
   11.9781  -19.4358   17.9396 O   0  0  0  0  0  0  0  0  0  0  0  0
   10.7333  -16.4160   20.6894 C   0  0  0  0  0  0  0  0  0  0  0  0
   11.3920  -15.4264   21.0804 O   0  0  0  0  0  0  0  0  0  0  0  0
   13.8688  -18.2319   17.5667 O   0  0  0  0  0  0  0  0  0  0  0  0
    9.6067  -16.8263   21.4207 N   0  0  0  0  0  0  0  0  0  0  0  0
    9.1165  -16.2027   22.6074 C   0  0  1  0  0  0  0  0  0  0  0  0
    7.6579  -16.4765   22.7888 C   0  0  0  0  0  0  0  0  0  0  0  0
    7.0507  -15.7981   23.9538 C   0  0  0  0  0  0  0  0  0  0  0  0
    6.3939  -16.3897   25.0202 C   0  0  0  0  0  0  0  0  0  0  0  0
    6.0277  -15.4452   25.8801 N   0  0  0  0  0  0  0  0  0  0  0  0
    6.4220  -14.2614   25.4110 C   0  0  0  0  0  0  0  0  0  0  0  0
    6.2754  -12.9942   25.9236 C   0  0  0  0  0  0  0  0  0  0  0  0
    6.7693  -11.9046   25.2351 C   0  0  0  0  0  0  0  0  0  0  0  0
    7.4113  -12.0423   24.0382 C   0  0  0  0  0  0  0  0  0  0  0  0
    7.5570  -13.3223   23.5253 C   0  0  0  0  0  0  0  0  0  0  0  0
    7.0752  -14.4448   24.1883 C   0  0  0  0  0  0  0  0  0  0  0  0
    9.8562  -16.7413   23.7714 C   0  0  0  0  0  0  0  0  0  0  0  0
   10.2025  -17.9388   23.8009 O   0  0  0  0  0  0  0  0  0  0  0  0
   10.6130  -12.9444   29.5748 C   0  0  0  0  0  0  0  0  0  0  0  0
    9.3714  -13.8167   28.5777 S   0  0  0  0  0  0  0  0  0  0  0  0
    9.9757  -15.4324   28.0918 C   0  0  0  0  0  0  0  0  0  0  0  0
   11.0734  -15.3999   27.0964 C   0  0  0  0  0  0  0  0  0  0  0  0
   11.0025  -16.3620   25.9640 C   0  0  2  0  0  0  0  0  0  0  0  0
   10.1848  -15.8855   24.8848 N   0  0  0  0  0  0  0  0  0  0  0  0
   10.5452  -17.7050   26.3875 C   0  0  0  0  0  0  0  0  0  0  0  0
    9.3852  -18.2497   25.8601 O   0  0  0  0  0  0  0  0  0  0  0  0
   11.2148  -18.3483   27.2279 O   0  0  0  0  0  0  0  0  0  0  0  0
  2  1  1  6
  3  4  1  0
  3  2  1  0
  4  5  2  0
  6  2  1  0
  6  7  2  0
  8  4  1  0
  9  6  1  0
 10  9  1  0
 10 11  1  1
 12 20  1  0
 12 11  1  0
 13 12  2  0
 14 13  1  0
 14 15  1  0
 15 16  1  0
 15 20  2  0
 16 17  2  0
 17 18  1  0
 19 18  2  0
 20 19  1  0
 21 10  1  0
 22 21  2  0
 23 24  1  0
 24 25  1  0
 25 26  1  0
 27 26  1  1
 27 28  1  0
 27 29  1  0
 28 21  1  0
 29 30  1  0
 31 29  2  0
M  END
$$$$
