DWM.pdb
     RDKit          3D

 31 32  0  0  1  0  0  0  0  0999 V2000
   10.7707  -17.3673   19.6436 N   0  0  0  0  0  0  0  0  0  0  0  0
   11.8430  -16.8608   20.4535 C   0  0  1  0  0  0  0  0  0  0  0  0
   12.7785  -15.9686   19.6756 C   0  0  0  0  0  0  0  0  0  0  0  0
   13.4989  -16.8023   18.6895 C   0  0  0  0  0  0  0  0  0  0  0  0
   13.3391  -16.5956   17.4492 O   0  0  0  0  0  0  0  0  0  0  0  0
   11.2712  -16.1897   21.6408 C   0  0  0  0  0  0  0  0  0  0  0  0
   11.6889  -15.0709   22.0146 O   0  0  0  0  0  0  0  0  0  0  0  0
   14.3480  -17.8080   19.0849 O   0  0  0  0  0  0  0  0  0  0  0  0
   10.2423  -16.8172   22.3620 N   0  0  0  0  0  0  0  0  0  0  0  0
    9.6333  -16.3097   23.5490 C   0  0  1  0  0  0  0  0  0  0  0  0
    8.1436  -16.4062   23.4658 C   0  0  0  0  0  0  0  0  0  0  0  0
    7.4268  -15.7377   24.5727 C   0  0  0  0  0  0  0  0  0  0  0  0
    6.7403  -16.3418   25.6130 C   0  0  0  0  0  0  0  0  0  0  0  0
    6.2671  -15.4006   26.4229 N   0  0  0  0  0  0  0  0  0  0  0  0
    6.6205  -14.2068   25.9464 C   0  0  0  0  0  0  0  0  0  0  0  0
    6.3691  -12.9388   26.4142 C   0  0  0  0  0  0  0  0  0  0  0  0
    6.8410  -11.8384   25.7274 C   0  0  0  0  0  0  0  0  0  0  0  0
    7.5632  -11.9661   24.5760 C   0  0  0  0  0  0  0  0  0  0  0  0
    7.8145  -13.2470   24.1081 C   0  0  0  0  0  0  0  0  0  0  0  0
    7.3582  -14.3801   24.7711 C   0  0  0  0  0  0  0  0  0  0  0  0
   10.1038  -17.1052   24.7058 C   0  0  0  0  0  0  0  0  0  0  0  0
   10.5409  -18.2614   24.5416 O   0  0  0  0  0  0  0  0  0  0  0  0
    9.0615  -12.4511   28.6344 C   0  0  0  0  0  0  0  0  0  0  0  0
    8.9298  -14.2560   28.4869 S   0  0  0  0  0  0  0  0  0  0  0  0
   10.5567  -14.9991   28.3753 C   0  0  0  0  0  0  0  0  0  0  0  0
   10.5556  -16.4807   28.4171 C   0  0  0  0  0  0  0  0  0  0  0  0
   10.7250  -17.2044   27.1285 C   0  0  2  0  0  0  0  0  0  0  0  0
   10.0616  -16.5505   26.0364 N   0  0  0  0  0  0  0  0  0  0  0  0
   10.2894  -18.6172   27.2091 C   0  0  0  0  0  0  0  0  0  0  0  0
    9.3400  -19.1100   26.3280 O   0  0  0  0  0  0  0  0  0  0  0  0
   10.7854  -19.3671   28.0809 O   0  0  0  0  0  0  0  0  0  0  0  0
  2  1  1  6
  3  4  1  0
  3  2  1  0
  4  5  2  0
  6  2  1  0
  6  7  2  0
  8  4  1  0
  9  6  1  0
 10  9  1  0
 10 11  1  6
 12 20  1  0
 12 11  1  0
 13 12  2  0
 14 13  1  0
 14 15  1  0
 15 16  1  0
 15 20  2  0
 16 17  2  0
 17 18  1  0
 19 18  2  0
 20 19  1  0
 21 10  1  0
 22 21  2  0
 23 24  1  0
 24 25  1  0
 25 26  1  0
 27 26  1  1
 27 28  1  0
 27 29  1  0
 28 21  1  0
 29 30  1  0
 31 29  2  0
M  END
$$$$
