DWM.pdb
     RDKit          3D

 31 32  0  0  1  0  0  0  0  0999 V2000
   10.4080  -16.6656   18.2399 N   0  0  0  0  0  0  0  0  0  0  0  0
   11.0336  -17.2002   19.4167 C   0  0  1  0  0  0  0  0  0  0  0  0
   12.5320  -17.3034   19.2743 C   0  0  0  0  0  0  0  0  0  0  0  0
   12.8274  -18.1939   18.1315 C   0  0  0  0  0  0  0  0  0  0  0  0
   12.9406  -17.7103   16.9653 O   0  0  0  0  0  0  0  0  0  0  0  0
   10.6266  -16.3909   20.5857 C   0  0  0  0  0  0  0  0  0  0  0  0
   11.1385  -15.2704   20.8057 O   0  0  0  0  0  0  0  0  0  0  0  0
   12.9847  -19.5487   18.3000 O   0  0  0  0  0  0  0  0  0  0  0  0
    9.6497  -16.8868   21.4644 N   0  0  0  0  0  0  0  0  0  0  0  0
    9.1211  -16.1918   22.5937 C   0  0  1  0  0  0  0  0  0  0  0  0
    7.6683  -16.4961   22.7734 C   0  0  0  0  0  0  0  0  0  0  0  0
    7.0612  -15.8831   23.9741 C   0  0  0  0  0  0  0  0  0  0  0  0
    6.3406  -16.5230   24.9690 C   0  0  0  0  0  0  0  0  0  0  0  0
    5.9978  -15.6334   25.8946 N   0  0  0  0  0  0  0  0  0  0  0  0
    6.4688  -14.4387   25.5371 C   0  0  0  0  0  0  0  0  0  0  0  0
    6.3732  -13.2117   26.1498 C   0  0  0  0  0  0  0  0  0  0  0  0
    6.9456  -12.0983   25.5686 C   0  0  0  0  0  0  0  0  0  0  0  0
    7.6171  -12.1726   24.3822 C   0  0  0  0  0  0  0  0  0  0  0  0
    7.7111  -13.4123   23.7682 C   0  0  0  0  0  0  0  0  0  0  0  0
    7.1498  -14.5570   24.3216 C   0  0  0  0  0  0  0  0  0  0  0  0
    9.8564  -16.6193   23.8056 C   0  0  0  0  0  0  0  0  0  0  0  0
   10.3701  -17.7539   23.8657 O   0  0  0  0  0  0  0  0  0  0  0  0
    9.7337  -13.0993   29.3386 C   0  0  0  0  0  0  0  0  0  0  0  0
   11.0519  -14.2655   29.7848 S   0  0  0  0  0  0  0  0  0  0  0  0
   11.2881  -15.4764   28.4850 C   0  0  0  0  0  0  0  0  0  0  0  0
   10.5720  -15.1672   27.2247 C   0  0  0  0  0  0  0  0  0  0  0  0
   10.7615  -16.0989   26.0805 C   0  0  2  0  0  0  0  0  0  0  0  0
    9.9867  -15.7268   24.9310 N   0  0  0  0  0  0  0  0  0  0  0  0
   10.4815  -17.5070   26.4424 C   0  0  0  0  0  0  0  0  0  0  0  0
    9.1920  -18.0086   26.3630 O   0  0  0  0  0  0  0  0  0  0  0  0
   11.4195  -18.2449   26.8220 O   0  0  0  0  0  0  0  0  0  0  0  0
  2  1  1  6
  3  4  1  0
  3  2  1  0
  4  5  2  0
  6  2  1  0
  6  7  2  0
  8  4  1  0
  9  6  1  0
 10  9  1  0
 10 11  1  1
 12 20  1  0
 12 11  1  0
 13 12  2  0
 14 13  1  0
 14 15  1  0
 15 16  1  0
 15 20  2  0
 16 17  2  0
 17 18  1  0
 19 18  2  0
 20 19  1  0
 21 10  1  0
 22 21  2  0
 23 24  1  0
 24 25  1  0
 25 26  1  0
 27 26  1  1
 27 28  1  0
 27 29  1  0
 28 21  1  0
 29 30  1  0
 31 29  2  0
M  END
$$$$
