DWM.pdb
     RDKit          3D

 31 32  0  0  1  0  0  0  0  0999 V2000
   10.6482  -19.1650   20.6242 N   0  0  0  0  0  0  0  0  0  0  0  0
   11.6512  -18.1648   20.3881 C   0  0  1  0  0  0  0  0  0  0  0  0
   11.6915  -17.7207   18.9467 C   0  0  0  0  0  0  0  0  0  0  0  0
   12.8336  -18.3906   18.2886 C   0  0  0  0  0  0  0  0  0  0  0  0
   13.4250  -17.8268   17.3195 O   0  0  0  0  0  0  0  0  0  0  0  0
   11.4372  -17.0408   21.3249 C   0  0  0  0  0  0  0  0  0  0  0  0
   12.2177  -16.0629   21.3501 O   0  0  0  0  0  0  0  0  0  0  0  0
   13.2779  -19.6232   18.7031 O   0  0  0  0  0  0  0  0  0  0  0  0
   10.3404  -17.0698   22.2017 N   0  0  0  0  0  0  0  0  0  0  0  0
    9.9764  -16.0294   23.1086 C   0  0  1  0  0  0  0  0  0  0  0  0
    8.5285  -16.1212   23.4702 C   0  0  0  0  0  0  0  0  0  0  0  0
    7.6042  -15.6976   22.3968 C   0  0  0  0  0  0  0  0  0  0  0  0
    6.4917  -16.3787   21.9310 C   0  0  0  0  0  0  0  0  0  0  0  0
    5.9031  -15.6511   20.9877 N   0  0  0  0  0  0  0  0  0  0  0  0
    6.5929  -14.5224   20.8230 C   0  0  0  0  0  0  0  0  0  0  0  0
    6.3956  -13.4611   19.9717 C   0  0  0  0  0  0  0  0  0  0  0  0
    7.2684  -12.3918   19.9802 C   0  0  0  0  0  0  0  0  0  0  0  0
    8.3434  -12.3490   20.8206 C   0  0  0  0  0  0  0  0  0  0  0  0
    8.5381  -13.4216   21.6777 C   0  0  0  0  0  0  0  0  0  0  0  0
    7.6816  -14.5159   21.7006 C   0  0  0  0  0  0  0  0  0  0  0  0
   10.7896  -16.1610   24.3389 C   0  0  0  0  0  0  0  0  0  0  0  0
   11.7545  -15.3980   24.5431 O   0  0  0  0  0  0  0  0  0  0  0  0
    9.1177  -12.5363   28.2094 C   0  0  0  0  0  0  0  0  0  0  0  0
   10.3202  -13.6889   28.9319 S   0  0  0  0  0  0  0  0  0  0  0  0
    9.8448  -15.3847   28.6004 C   0  0  0  0  0  0  0  0  0  0  0  0
    9.8057  -15.7380   27.1615 C   0  0  0  0  0  0  0  0  0  0  0  0
   10.6077  -16.9106   26.7201 C   0  0  2  0  0  0  0  0  0  0  0  0
   10.4738  -17.1741   25.3155 N   0  0  0  0  0  0  0  0  0  0  0  0
   10.2979  -18.1343   27.4938 C   0  0  0  0  0  0  0  0  0  0  0  0
    9.8008  -19.2602   26.8567 O   0  0  0  0  0  0  0  0  0  0  0  0
   10.4881  -18.1465   28.7316 O   0  0  0  0  0  0  0  0  0  0  0  0
  2  1  1  6
  3  4  1  0
  3  2  1  0
  4  5  2  0
  6  2  1  0
  6  7  2  0
  8  4  1  0
  9  6  1  0
 10  9  1  0
 10 11  1  1
 12 20  1  0
 12 11  1  0
 13 12  2  0
 14 13  1  0
 14 15  1  0
 15 16  1  0
 15 20  2  0
 16 17  2  0
 17 18  1  0
 19 18  2  0
 20 19  1  0
 21 10  1  0
 22 21  2  0
 23 24  1  0
 24 25  1  0
 25 26  1  0
 27 26  1  1
 27 28  1  0
 27 29  1  0
 28 21  1  0
 29 30  1  0
 31 29  2  0
M  END
$$$$
