DWM.pdb
     RDKit          3D

 31 32  0  0  1  0  0  0  0  0999 V2000
    9.8067  -19.1321   19.7153 N   0  0  0  0  0  0  0  0  0  0  0  0
   11.0824  -18.4872   19.8523 C   0  0  1  0  0  0  0  0  0  0  0  0
   11.5933  -17.9402   18.5423 C   0  0  0  0  0  0  0  0  0  0  0  0
   11.9189  -19.0816   17.6605 C   0  0  0  0  0  0  0  0  0  0  0  0
   11.5953  -20.2583   18.0030 O   0  0  0  0  0  0  0  0  0  0  0  0
   10.9854  -17.4513   20.9032 C   0  0  0  0  0  0  0  0  0  0  0  0
   11.9567  -16.7088   21.1705 O   0  0  0  0  0  0  0  0  0  0  0  0
   12.5711  -18.9004   16.4644 O   0  0  0  0  0  0  0  0  0  0  0  0
    9.7841  -17.2972   21.6143 N   0  0  0  0  0  0  0  0  0  0  0  0
    9.5560  -16.3549   22.6620 C   0  0  1  0  0  0  0  0  0  0  0  0
    8.1304  -15.9045   22.6714 C   0  0  0  0  0  0  0  0  0  0  0  0
    7.9187  -14.5638   23.2578 C   0  0  0  0  0  0  0  0  0  0  0  0
    8.2854  -13.3436   22.7144 C   0  0  0  0  0  0  0  0  0  0  0  0
    7.8865  -12.3711   23.5274 N   0  0  0  0  0  0  0  0  0  0  0  0
    7.2747  -12.9149   24.5795 C   0  0  0  0  0  0  0  0  0  0  0  0
    6.7007  -12.3368   25.6869 C   0  0  0  0  0  0  0  0  0  0  0  0
    6.1278  -13.1254   26.6643 C   0  0  0  0  0  0  0  0  0  0  0  0
    6.1104  -14.4871   26.5696 C   0  0  0  0  0  0  0  0  0  0  0  0
    6.6904  -15.0656   25.4507 C   0  0  0  0  0  0  0  0  0  0  0  0
    7.2760  -14.3067   24.4443 C   0  0  0  0  0  0  0  0  0  0  0  0
    9.8669  -16.9975   23.9592 C   0  0  0  0  0  0  0  0  0  0  0  0
    9.8189  -18.2378   24.0775 O   0  0  0  0  0  0  0  0  0  0  0  0
    9.7673  -12.6147   28.2929 C   0  0  0  0  0  0  0  0  0  0  0  0
   10.6620  -13.9287   29.1702 S   0  0  0  0  0  0  0  0  0  0  0  0
   10.4226  -15.5065   28.3547 C   0  0  0  0  0  0  0  0  0  0  0  0
   11.3419  -15.7525   27.2185 C   0  0  0  0  0  0  0  0  0  0  0  0
   10.9335  -16.7690   26.2121 C   0  0  2  0  0  0  0  0  0  0  0  0
   10.2291  -16.1946   25.1012 N   0  0  0  0  0  0  0  0  0  0  0  0
   10.1326  -17.8646   26.8042 C   0  0  0  0  0  0  0  0  0  0  0  0
    8.8520  -18.1255   26.3433 O   0  0  0  0  0  0  0  0  0  0  0  0
   10.6205  -18.5565   27.7269 O   0  0  0  0  0  0  0  0  0  0  0  0
  2  1  1  6
  3  4  1  0
  3  2  1  0
  4  5  2  0
  6  2  1  0
  6  7  2  0
  8  4  1  0
  9  6  1  0
 10  9  1  0
 10 11  1  1
 12 20  1  0
 12 11  1  0
 13 12  2  0
 14 13  1  0
 14 15  1  0
 15 16  1  0
 15 20  2  0
 16 17  2  0
 17 18  1  0
 19 18  2  0
 20 19  1  0
 21 10  1  0
 22 21  2  0
 23 24  1  0
 24 25  1  0
 25 26  1  0
 27 26  1  1
 27 28  1  0
 27 29  1  0
 28 21  1  0
 29 30  1  0
 31 29  2  0
M  END
$$$$
