DWM.pdb
     RDKit          3D

 31 32  0  0  1  0  0  0  0  0999 V2000
    9.4087  -18.2572   20.1884 N   0  0  0  0  0  0  0  0  0  0  0  0
   10.5168  -17.3471   20.2642 C   0  0  1  0  0  0  0  0  0  0  0  0
   10.5350  -16.3672   19.1172 C   0  0  0  0  0  0  0  0  0  0  0  0
   11.4156  -16.9091   18.0603 C   0  0  0  0  0  0  0  0  0  0  0  0
   12.4414  -16.2595   17.6966 O   0  0  0  0  0  0  0  0  0  0  0  0
   10.4995  -16.6797   21.5837 C   0  0  0  0  0  0  0  0  0  0  0  0
   11.3216  -15.7783   21.8630 O   0  0  0  0  0  0  0  0  0  0  0  0
   11.1499  -18.1131   17.4531 O   0  0  0  0  0  0  0  0  0  0  0  0
    9.5455  -17.0626   22.5406 N   0  0  0  0  0  0  0  0  0  0  0  0
    9.4187  -16.5118   23.8513 C   0  0  1  0  0  0  0  0  0  0  0  0
    8.1732  -17.0032   24.5168 C   0  0  0  0  0  0  0  0  0  0  0  0
    7.1411  -15.9644   24.7212 C   0  0  0  0  0  0  0  0  0  0  0  0
    5.7765  -16.0869   24.5178 C   0  0  0  0  0  0  0  0  0  0  0  0
    5.1857  -14.9438   24.8497 N   0  0  0  0  0  0  0  0  0  0  0  0
    6.1168  -14.0829   25.2606 C   0  0  0  0  0  0  0  0  0  0  0  0
    6.0135  -12.7831   25.6963 C   0  0  0  0  0  0  0  0  0  0  0  0
    7.1438  -12.0817   26.0647 C   0  0  0  0  0  0  0  0  0  0  0  0
    8.3868  -12.6435   26.0108 C   0  0  0  0  0  0  0  0  0  0  0  0
    8.4860  -13.9548   25.5710 C   0  0  0  0  0  0  0  0  0  0  0  0
    7.3722  -14.6950   25.1925 C   0  0  0  0  0  0  0  0  0  0  0  0
   10.5902  -16.9226   24.6582 C   0  0  0  0  0  0  0  0  0  0  0  0
   11.3306  -17.8484   24.2714 O   0  0  0  0  0  0  0  0  0  0  0  0
   11.5220  -13.3503   30.0999 C   0  0  0  0  0  0  0  0  0  0  0  0
   10.3119  -14.6091   29.6021 S   0  0  0  0  0  0  0  0  0  0  0  0
   11.1429  -16.0916   29.0335 C   0  0  0  0  0  0  0  0  0  0  0  0
   12.1324  -15.8613   27.9542 C   0  0  0  0  0  0  0  0  0  0  0  0
   11.9965  -16.6707   26.7135 C   0  0  2  0  0  0  0  0  0  0  0  0
   10.8881  -16.2553   25.9016 N   0  0  0  0  0  0  0  0  0  0  0  0
   11.9023  -18.1223   26.9899 C   0  0  0  0  0  0  0  0  0  0  0  0
   10.7254  -18.8094   26.7382 O   0  0  0  0  0  0  0  0  0  0  0  0
   12.8954  -18.7278   27.4540 O   0  0  0  0  0  0  0  0  0  0  0  0
  2  1  1  6
  3  4  1  0
  3  2  1  0
  4  5  2  0
  6  2  1  0
  6  7  2  0
  8  4  1  0
  9  6  1  0
 10  9  1  0
 10 11  1  1
 12 20  1  0
 12 11  1  0
 13 12  2  0
 14 13  1  0
 14 15  1  0
 15 16  1  0
 15 20  2  0
 16 17  2  0
 17 18  1  0
 19 18  2  0
 20 19  1  0
 21 10  1  0
 22 21  2  0
 23 24  1  0
 24 25  1  0
 25 26  1  0
 27 26  1  1
 27 28  1  0
 27 29  1  0
 28 21  1  0
 29 30  1  0
 31 29  2  0
M  END
$$$$
