DWM.pdb
     RDKit          3D

 31 32  0  0  1  0  0  0  0  0999 V2000
   11.3345  -18.2509   18.5014 N   0  0  0  0  0  0  0  0  0  0  0  0
   11.1964  -18.6469   19.8747 C   0  0  1  0  0  0  0  0  0  0  0  0
   12.3634  -19.4741   20.3543 C   0  0  0  0  0  0  0  0  0  0  0  0
   12.5412  -20.6072   19.4212 C   0  0  0  0  0  0  0  0  0  0  0  0
   11.7901  -20.7146   18.4058 O   0  0  0  0  0  0  0  0  0  0  0  0
   10.9747  -17.4409   20.7014 C   0  0  0  0  0  0  0  0  0  0  0  0
   11.7167  -16.4388   20.5947 O   0  0  0  0  0  0  0  0  0  0  0  0
   13.5103  -21.5598   19.6264 O   0  0  0  0  0  0  0  0  0  0  0  0
    9.9144  -17.4182   21.6220 N   0  0  0  0  0  0  0  0  0  0  0  0
    9.5788  -16.3225   22.4731 C   0  0  1  0  0  0  0  0  0  0  0  0
    8.1476  -15.9286   22.2940 C   0  0  0  0  0  0  0  0  0  0  0  0
    7.8096  -14.5962   22.8385 C   0  0  0  0  0  0  0  0  0  0  0  0
    8.0755  -13.3638   22.2649 C   0  0  0  0  0  0  0  0  0  0  0  0
    7.5800  -12.4083   23.0442 N   0  0  0  0  0  0  0  0  0  0  0  0
    7.0024  -12.9749   24.1036 C   0  0  0  0  0  0  0  0  0  0  0  0
    6.3626  -12.4195   25.1863 C   0  0  0  0  0  0  0  0  0  0  0  0
    5.8466  -13.2283   26.1786 C   0  0  0  0  0  0  0  0  0  0  0  0
    5.9508  -14.5883   26.1231 C   0  0  0  0  0  0  0  0  0  0  0  0
    6.5967  -15.1439   25.0291 C   0  0  0  0  0  0  0  0  0  0  0  0
    7.1285  -14.3643   24.0088 C   0  0  0  0  0  0  0  0  0  0  0  0
    9.7947  -16.7268   23.8810 C   0  0  0  0  0  0  0  0  0  0  0  0
    9.8198  -17.9332   24.1952 O   0  0  0  0  0  0  0  0  0  0  0  0
   10.8814  -14.2287   31.3843 C   0  0  0  0  0  0  0  0  0  0  0  0
   10.7276  -13.7606   29.6367 S   0  0  0  0  0  0  0  0  0  0  0  0
   10.6843  -15.2186   28.5956 C   0  0  0  0  0  0  0  0  0  0  0  0
   10.4075  -14.9405   27.1664 C   0  0  0  0  0  0  0  0  0  0  0  0
   10.3657  -16.1009   26.2363 C   0  0  2  0  0  0  0  0  0  0  0  0
    9.9787  -15.7283   24.9053 N   0  0  0  0  0  0  0  0  0  0  0  0
    9.4934  -17.1916   26.7278 C   0  0  0  0  0  0  0  0  0  0  0  0
   10.0168  -18.2119   27.5060 O   0  0  0  0  0  0  0  0  0  0  0  0
    8.2756  -17.1871   26.4354 O   0  0  0  0  0  0  0  0  0  0  0  0
  2  1  1  6
  3  4  1  0
  3  2  1  0
  4  5  2  0
  6  2  1  0
  6  7  2  0
  8  4  1  0
  9  6  1  0
 10  9  1  0
 10 11  1  1
 12 20  1  0
 12 11  1  0
 13 12  2  0
 14 13  1  0
 14 15  1  0
 15 16  1  0
 15 20  2  0
 16 17  2  0
 17 18  1  0
 19 18  2  0
 20 19  1  0
 21 10  1  0
 22 21  2  0
 23 24  1  0
 24 25  1  0
 25 26  1  0
 27 26  1  1
 27 28  1  0
 27 29  1  0
 28 21  1  0
 29 30  1  0
 31 29  2  0
M  END
$$$$
