DWM.pdb
     RDKit          3D

 31 32  0  0  1  0  0  0  0  0999 V2000
   10.5689  -18.2286   19.4710 N   0  0  0  0  0  0  0  0  0  0  0  0
   11.4854  -17.1892   19.8473 C   0  0  1  0  0  0  0  0  0  0  0  0
   11.7870  -16.2486   18.7068 C   0  0  0  0  0  0  0  0  0  0  0  0
   12.5556  -16.9920   17.6856 C   0  0  0  0  0  0  0  0  0  0  0  0
   11.9805  -17.3963   16.6309 O   0  0  0  0  0  0  0  0  0  0  0  0
   10.9549  -16.4900   21.0375 C   0  0  0  0  0  0  0  0  0  0  0  0
   11.5522  -15.5062   21.5288 O   0  0  0  0  0  0  0  0  0  0  0  0
   13.8934  -17.2604   17.8496 O   0  0  0  0  0  0  0  0  0  0  0  0
    9.7612  -16.9365   21.6276 N   0  0  0  0  0  0  0  0  0  0  0  0
    9.1738  -16.4045   22.8148 C   0  0  1  0  0  0  0  0  0  0  0  0
    7.6911  -16.5969   22.8071 C   0  0  0  0  0  0  0  0  0  0  0  0
    6.9942  -16.0082   23.9707 C   0  0  0  0  0  0  0  0  0  0  0  0
    6.2866  -16.6813   24.9529 C   0  0  0  0  0  0  0  0  0  0  0  0
    5.8426  -15.8023   25.8450 N   0  0  0  0  0  0  0  0  0  0  0  0
    6.2353  -14.5825   25.4779 C   0  0  0  0  0  0  0  0  0  0  0  0
    6.0241  -13.3544   26.0587 C   0  0  0  0  0  0  0  0  0  0  0  0
    6.5326  -12.2123   25.4736 C   0  0  0  0  0  0  0  0  0  0  0  0
    7.2524  -12.2587   24.3146 C   0  0  0  0  0  0  0  0  0  0  0  0
    7.4631  -13.4996   23.7327 C   0  0  0  0  0  0  0  0  0  0  0  0
    6.9691  -14.6726   24.2910 C   0  0  0  0  0  0  0  0  0  0  0  0
    9.7447  -17.1065   23.9868 C   0  0  0  0  0  0  0  0  0  0  0  0
   10.2131  -18.2560   23.8684 O   0  0  0  0  0  0  0  0  0  0  0  0
   10.9866  -11.8382   28.0568 C   0  0  0  0  0  0  0  0  0  0  0  0
   10.9909  -13.5764   28.5816 S   0  0  0  0  0  0  0  0  0  0  0  0
   10.8702  -14.6633   27.1618 C   0  0  0  0  0  0  0  0  0  0  0  0
   10.6810  -16.0934   27.5018 C   0  0  0  0  0  0  0  0  0  0  0  0
   10.4866  -17.0471   26.3767 C   0  0  2  0  0  0  0  0  0  0  0  0
    9.7652  -16.4673   25.2795 N   0  0  0  0  0  0  0  0  0  0  0  0
    9.8295  -18.3032   26.8039 C   0  0  0  0  0  0  0  0  0  0  0  0
    8.5835  -18.6480   26.3047 O   0  0  0  0  0  0  0  0  0  0  0  0
   10.4078  -19.0549   27.6217 O   0  0  0  0  0  0  0  0  0  0  0  0
  2  1  1  6
  3  4  1  0
  3  2  1  0
  4  5  2  0
  6  2  1  0
  6  7  2  0
  8  4  1  0
  9  6  1  0
 10  9  1  0
 10 11  1  6
 12 20  1  0
 12 11  1  0
 13 12  2  0
 14 13  1  0
 14 15  1  0
 15 16  1  0
 15 20  2  0
 16 17  2  0
 17 18  1  0
 19 18  2  0
 20 19  1  0
 21 10  1  0
 22 21  2  0
 23 24  1  0
 24 25  1  0
 25 26  1  0
 27 26  1  1
 27 28  1  0
 27 29  1  0
 28 21  1  0
 29 30  1  0
 31 29  2  0
M  END
$$$$
