DWM.pdb
     RDKit          3D

 31 32  0  0  1  0  0  0  0  0999 V2000
   10.2561  -18.4405   19.4842 N   0  0  0  0  0  0  0  0  0  0  0  0
   11.1317  -17.3038   19.5412 C   0  0  1  0  0  0  0  0  0  0  0  0
   11.2892  -16.6320   18.1995 C   0  0  0  0  0  0  0  0  0  0  0  0
   10.0328  -16.8138   17.4414 C   0  0  0  0  0  0  0  0  0  0  0  0
    9.5390  -15.8431   16.7928 O   0  0  0  0  0  0  0  0  0  0  0  0
   10.6482  -16.3784   20.5885 C   0  0  0  0  0  0  0  0  0  0  0  0
   11.2364  -15.2979   20.8180 O   0  0  0  0  0  0  0  0  0  0  0  0
    9.3766  -18.0211   17.4197 O   0  0  0  0  0  0  0  0  0  0  0  0
    9.5104  -16.7164   21.3392 N   0  0  0  0  0  0  0  0  0  0  0  0
    9.0922  -16.0761   22.5445 C   0  0  1  0  0  0  0  0  0  0  0  0
    7.6236  -16.2555   22.7603 C   0  0  0  0  0  0  0  0  0  0  0  0
    7.1132  -15.6528   24.0103 C   0  0  0  0  0  0  0  0  0  0  0  0
    6.4542  -16.2975   25.0439 C   0  0  0  0  0  0  0  0  0  0  0  0
    6.1926  -15.4179   26.0049 N   0  0  0  0  0  0  0  0  0  0  0  0
    6.6569  -14.2250   25.6331 C   0  0  0  0  0  0  0  0  0  0  0  0
    6.6254  -13.0068   26.2695 C   0  0  0  0  0  0  0  0  0  0  0  0
    7.1737  -11.8931   25.6661 C   0  0  0  0  0  0  0  0  0  0  0  0
    7.7583  -11.9585   24.4341 C   0  0  0  0  0  0  0  0  0  0  0  0
    7.7880  -13.1893   23.7962 C   0  0  0  0  0  0  0  0  0  0  0  0
    7.2482  -14.3341   24.3706 C   0  0  0  0  0  0  0  0  0  0  0  0
    9.8234  -16.6763   23.6835 C   0  0  0  0  0  0  0  0  0  0  0  0
   10.1799  -17.8706   23.6467 O   0  0  0  0  0  0  0  0  0  0  0  0
    9.6092  -13.1199   30.0980 C   0  0  0  0  0  0  0  0  0  0  0  0
   10.9548  -13.6805   29.0155 S   0  0  0  0  0  0  0  0  0  0  0  0
   10.3592  -14.9096   27.8553 C   0  0  0  0  0  0  0  0  0  0  0  0
   11.3732  -15.3669   26.8758 C   0  0  0  0  0  0  0  0  0  0  0  0
   10.9616  -16.4086   25.8967 C   0  0  2  0  0  0  0  0  0  0  0  0
   10.1317  -15.8849   24.8491 N   0  0  0  0  0  0  0  0  0  0  0  0
   10.2919  -17.5610   26.5413 C   0  0  0  0  0  0  0  0  0  0  0  0
   11.0365  -18.5268   27.1996 O   0  0  0  0  0  0  0  0  0  0  0  0
    9.0445  -17.6586   26.4882 O   0  0  0  0  0  0  0  0  0  0  0  0
  2  1  1  6
  3  4  1  0
  3  2  1  0
  4  5  2  0
  6  2  1  0
  6  7  2  0
  8  4  1  0
  9  6  1  0
 10  9  1  0
 10 11  1  1
 12 20  1  0
 12 11  1  0
 13 12  2  0
 14 13  1  0
 14 15  1  0
 15 16  1  0
 15 20  2  0
 16 17  2  0
 17 18  1  0
 19 18  2  0
 20 19  1  0
 21 10  1  0
 22 21  2  0
 23 24  1  0
 24 25  1  0
 25 26  1  0
 27 26  1  1
 27 28  1  0
 27 29  1  0
 28 21  1  0
 29 30  1  0
 31 29  2  0
M  END
$$$$
