DWM.pdb
     RDKit          3D

 31 32  0  0  1  0  0  0  0  0999 V2000
    8.4213  -17.8868   20.0513 N   0  0  0  0  0  0  0  0  0  0  0  0
    9.5881  -17.0500   20.0650 C   0  0  1  0  0  0  0  0  0  0  0  0
    9.6428  -16.1209   18.8775 C   0  0  0  0  0  0  0  0  0  0  0  0
   10.1448  -16.8853   17.7155 C   0  0  0  0  0  0  0  0  0  0  0  0
   10.3967  -18.1220   17.8327 O   0  0  0  0  0  0  0  0  0  0  0  0
    9.6462  -16.3296   21.3552 C   0  0  0  0  0  0  0  0  0  0  0  0
    9.9813  -15.1250   21.4084 O   0  0  0  0  0  0  0  0  0  0  0  0
   10.3486  -16.2850   16.4962 O   0  0  0  0  0  0  0  0  0  0  0  0
    9.3203  -17.0072   22.5415 N   0  0  0  0  0  0  0  0  0  0  0  0
    9.6191  -16.5564   23.8625 C   0  0  1  0  0  0  0  0  0  0  0  0
    8.5703  -17.0067   24.8283 C   0  0  0  0  0  0  0  0  0  0  0  0
    7.4291  -16.0767   24.9661 C   0  0  0  0  0  0  0  0  0  0  0  0
    6.0832  -16.4012   25.0064 C   0  0  0  0  0  0  0  0  0  0  0  0
    5.3755  -15.2895   25.1770 N   0  0  0  0  0  0  0  0  0  0  0  0
    6.2125  -14.2545   25.2484 C   0  0  0  0  0  0  0  0  0  0  0  0
    5.9727  -12.9106   25.4110 C   0  0  0  0  0  0  0  0  0  0  0  0
    7.0235  -12.0162   25.4442 C   0  0  0  0  0  0  0  0  0  0  0  0
    8.3196  -12.4262   25.3186 C   0  0  0  0  0  0  0  0  0  0  0  0
    8.5566  -13.7826   25.1551 C   0  0  0  0  0  0  0  0  0  0  0  0
    7.5264  -14.7149   25.1178 C   0  0  0  0  0  0  0  0  0  0  0  0
   10.9262  -17.1165   24.2748 C   0  0  0  0  0  0  0  0  0  0  0  0
   11.1909  -18.3180   24.0724 O   0  0  0  0  0  0  0  0  0  0  0  0
    9.6591  -13.4242   28.6127 C   0  0  0  0  0  0  0  0  0  0  0  0
   10.7211  -14.4984   29.6200 S   0  0  0  0  0  0  0  0  0  0  0  0
   11.3489  -15.8612   28.6401 C   0  0  0  0  0  0  0  0  0  0  0  0
   11.2608  -15.6518   27.1755 C   0  0  0  0  0  0  0  0  0  0  0  0
   12.1996  -16.4197   26.3140 C   0  0  2  0  0  0  0  0  0  0  0  0
   11.9084  -16.2771   24.9157 N   0  0  0  0  0  0  0  0  0  0  0  0
   12.2551  -17.8550   26.6731 C   0  0  0  0  0  0  0  0  0  0  0  0
   12.9189  -18.2665   27.8180 O   0  0  0  0  0  0  0  0  0  0  0  0
   11.6971  -18.6980   25.9341 O   0  0  0  0  0  0  0  0  0  0  0  0
  2  1  1  1
  3  4  1  0
  3  2  1  0
  4  5  2  0
  6  2  1  0
  6  7  2  0
  8  4  1  0
  9  6  1  0
 10  9  1  0
 10 11  1  1
 12 20  1  0
 12 11  1  0
 13 12  2  0
 14 13  1  0
 14 15  1  0
 15 16  1  0
 15 20  2  0
 16 17  2  0
 17 18  1  0
 19 18  2  0
 20 19  1  0
 21 10  1  0
 22 21  2  0
 23 24  1  0
 24 25  1  0
 25 26  1  0
 27 26  1  1
 27 28  1  0
 27 29  1  0
 28 21  1  0
 29 30  1  0
 31 29  2  0
M  END
$$$$
