DWM.pdb
     RDKit          3D

 31 32  0  0  1  0  0  0  0  0999 V2000
    8.1887  -17.9122   21.6753 N   0  0  0  0  0  0  0  0  0  0  0  0
    9.1164  -17.0164   21.0436 C   0  0  1  0  0  0  0  0  0  0  0  0
    8.4982  -16.2712   19.8866 C   0  0  0  0  0  0  0  0  0  0  0  0
    8.3232  -17.2201   18.7663 C   0  0  0  0  0  0  0  0  0  0  0  0
    8.6722  -18.4310   18.9023 O   0  0  0  0  0  0  0  0  0  0  0  0
    9.6818  -16.1115   22.0675 C   0  0  0  0  0  0  0  0  0  0  0  0
   10.4368  -15.1659   21.7483 O   0  0  0  0  0  0  0  0  0  0  0  0
    7.7858  -16.8211   17.5659 O   0  0  0  0  0  0  0  0  0  0  0  0
    9.3674  -16.3155   23.4210 N   0  0  0  0  0  0  0  0  0  0  0  0
    9.9386  -15.6069   24.5206 C   0  0  1  0  0  0  0  0  0  0  0  0
    9.0153  -15.6157   25.6966 C   0  0  0  0  0  0  0  0  0  0  0  0
    7.7116  -14.9622   25.4528 C   0  0  0  0  0  0  0  0  0  0  0  0
    6.5375  -15.5645   25.0320 C   0  0  0  0  0  0  0  0  0  0  0  0
    5.5794  -14.6459   24.9678 N   0  0  0  0  0  0  0  0  0  0  0  0
    6.0885  -13.4686   25.3309 C   0  0  0  0  0  0  0  0  0  0  0  0
    5.5095  -12.2249   25.4200 C   0  0  0  0  0  0  0  0  0  0  0  0
    6.2592  -11.1363   25.8176 C   0  0  0  0  0  0  0  0  0  0  0  0
    7.5827  -11.2520   26.1319 C   0  0  0  0  0  0  0  0  0  0  0  0
    8.1621  -12.5084   26.0407 C   0  0  0  0  0  0  0  0  0  0  0  0
    7.4414  -13.6292   25.6458 C   0  0  0  0  0  0  0  0  0  0  0  0
   11.2109  -16.2610   24.9021 C   0  0  0  0  0  0  0  0  0  0  0  0
   12.2963  -15.6645   24.7576 O   0  0  0  0  0  0  0  0  0  0  0  0
   11.2891  -13.8648   28.4674 C   0  0  0  0  0  0  0  0  0  0  0  0
   10.9138  -15.5138   29.1280 S   0  0  0  0  0  0  0  0  0  0  0  0
   12.1654  -16.6936   28.6249 C   0  0  0  0  0  0  0  0  0  0  0  0
   11.6477  -17.8302   27.8268 C   0  0  0  0  0  0  0  0  0  0  0  0
   12.1654  -17.9889   26.4412 C   0  0  2  0  0  0  0  0  0  0  0  0
   11.2085  -17.5968   25.4458 N   0  0  0  0  0  0  0  0  0  0  0  0
   12.6429  -19.3633   26.1672 C   0  0  0  0  0  0  0  0  0  0  0  0
   12.1061  -20.0969   25.1212 O   0  0  0  0  0  0  0  0  0  0  0  0
   13.5375  -19.8611   26.8885 O   0  0  0  0  0  0  0  0  0  0  0  0
  2  1  1  1
  3  4  1  0
  3  2  1  0
  4  5  2  0
  6  2  1  0
  6  7  2  0
  8  4  1  0
  9  6  1  0
 10  9  1  0
 10 11  1  1
 12 20  1  0
 12 11  1  0
 13 12  2  0
 14 13  1  0
 14 15  1  0
 15 16  1  0
 15 20  2  0
 16 17  2  0
 17 18  1  0
 19 18  2  0
 20 19  1  0
 21 10  1  0
 22 21  2  0
 23 24  1  0
 24 25  1  0
 25 26  1  0
 27 26  1  1
 27 28  1  0
 27 29  1  0
 28 21  1  0
 29 30  1  0
 31 29  2  0
M  END
$$$$
