QVL.pdb
     RDKit          3D

 25 24  0  0  1  0  0  0  0  0999 V2000
   20.8585  -15.7705  -15.2935 N   0  0  0  0  0  0  0  0  0  0  0  0
   19.9141  -16.3591  -16.1789 C   0  0  0  0  0  0  0  0  0  0  0  0
   19.3237  -17.3980  -15.8507 O   0  0  0  0  0  0  0  0  0  0  0  0
   19.6730  -15.7056  -17.4598 C   0  0  0  0  0  0  0  0  0  0  0  0
   20.4884  -14.5022  -17.7603 C   0  0  0  0  0  0  0  0  0  0  0  0
   20.1927  -13.8905  -19.0961 C   0  0  2  0  0  0  0  0  0  0  0  0
   20.7006  -14.6862  -20.1970 N   0  0  0  0  0  0  0  0  0  0  0  0
   20.8154  -12.5494  -19.1981 C   0  0  0  0  0  0  0  0  0  0  0  0
   21.8810  -12.4414  -19.8078 O   0  0  0  0  0  0  0  0  0  0  0  0
   19.8195   -9.5111  -20.9515 C   0  0  0  0  0  0  0  0  0  0  0  0
   19.8249   -9.1747  -19.4875 C   0  0  2  0  0  0  0  0  0  0  0  0
   20.1656   -7.7027  -19.4093 C   0  0  0  0  0  0  0  0  0  0  0  0
   20.7402  -10.0594  -18.7303 C   0  0  2  0  0  0  0  0  0  0  0  0
   20.2343  -11.4308  -18.6312 N   0  0  0  0  0  0  0  0  0  0  0  0
   21.0375   -9.6848  -17.3413 C   0  0  0  0  0  0  0  0  0  0  0  0
   20.1140   -9.7133  -16.4853 O   0  0  0  0  0  0  0  0  0  0  0  0
   25.8224  -10.5724  -14.8917 C   0  0  0  0  0  0  0  0  0  0  0  0
   24.3536  -10.4757  -15.2577 C   0  0  1  0  0  0  0  0  0  0  0  0
   23.6036  -11.3000  -14.2130 C   0  0  0  0  0  0  0  0  0  0  0  0
   23.8995   -9.0602  -15.1032 C   0  0  0  0  0  0  0  0  0  0  0  0
   22.4351   -8.8662  -15.4496 C   0  0  2  0  0  0  0  0  0  0  0  0
   22.3078   -9.2866  -16.8637 N   0  0  0  0  0  0  0  0  0  0  0  0
   22.0192   -7.4474  -15.3570 C   0  0  0  0  0  0  0  0  0  0  0  0
   21.4483   -6.9525  -14.1986 O   0  0  0  0  0  0  0  0  0  0  0  0
   22.1725   -6.6594  -16.3222 O   0  0  0  0  0  0  0  0  0  0  0  0
  2  4  1  0
  2  1  1  0
  3  2  2  0
  5  6  1  0
  5  4  1  0
  6  7  1  6
  8  9  2  0
  8  6  1  0
 11 10  1  6
 11 13  1  0
 11 12  1  0
 13 14  1  1
 14  8  1  0
 15 22  1  0
 15 13  1  0
 16 15  2  0
 18 17  1  1
 19 18  1  0
 20 18  1  0
 21 20  1  6
 21 23  1  0
 21 22  1  0
 23 24  1  0
 25 23  2  0
M  END
$$$$
