QVL.pdb
     RDKit          3D

 25 24  0  0  1  0  0  0  0  0999 V2000
   21.5817  -18.4609  -14.1832 N   0  0  0  0  0  0  0  0  0  0  0  0
   21.0448  -19.5394  -13.4276 C   0  0  0  0  0  0  0  0  0  0  0  0
   20.3464  -20.3973  -13.9859 O   0  0  0  0  0  0  0  0  0  0  0  0
   21.3426  -19.5945  -12.0014 C   0  0  0  0  0  0  0  0  0  0  0  0
   22.2693  -20.6638  -11.5528 C   0  0  0  0  0  0  0  0  0  0  0  0
   23.5403  -20.7325  -12.3438 C   0  0  2  0  0  0  0  0  0  0  0  0
   23.4321  -21.6073  -13.4954 N   0  0  0  0  0  0  0  0  0  0  0  0
   24.6447  -21.2486  -11.5009 C   0  0  0  0  0  0  0  0  0  0  0  0
   24.6280  -22.4368  -11.1737 O   0  0  0  0  0  0  0  0  0  0  0  0
   28.0376  -21.5282  -12.5000 C   0  0  0  0  0  0  0  0  0  0  0  0
   28.1079  -20.7020  -11.2473 C   0  0  2  0  0  0  0  0  0  0  0  0
   29.4072  -21.0898  -10.5764 C   0  0  0  0  0  0  0  0  0  0  0  0
   26.9023  -20.8862  -10.4068 C   0  0  2  0  0  0  0  0  0  0  0  0
   25.6805  -20.4366  -11.0790 N   0  0  0  0  0  0  0  0  0  0  0  0
   26.8760  -20.1932   -9.1119 C   0  0  0  0  0  0  0  0  0  0  0  0
   26.3827  -19.0363   -9.0432 O   0  0  0  0  0  0  0  0  0  0  0  0
   26.1291  -22.5311   -4.2707 C   0  0  0  0  0  0  0  0  0  0  0  0
   26.0404  -21.5137   -5.3922 C   0  0  1  0  0  0  0  0  0  0  0  0
   25.0093  -20.4799   -4.9431 C   0  0  0  0  0  0  0  0  0  0  0  0
   27.3477  -20.7997   -5.5144 C   0  0  0  0  0  0  0  0  0  0  0  0
   27.3988  -19.8551   -6.7006 C   0  0  2  0  0  0  0  0  0  0  0  0
   27.3664  -20.7266   -7.8973 N   0  0  0  0  0  0  0  0  0  0  0  0
   28.6557  -19.0722   -6.7414 C   0  0  0  0  0  0  0  0  0  0  0  0
   28.7576  -17.8642   -6.0756 O   0  0  0  0  0  0  0  0  0  0  0  0
   29.6575  -19.4812   -7.3779 O   0  0  0  0  0  0  0  0  0  0  0  0
  2  4  1  0
  2  1  1  0
  3  2  2  0
  5  6  1  0
  5  4  1  0
  6  7  1  6
  8  9  2  0
  8  6  1  0
 11 10  1  6
 11 13  1  0
 11 12  1  0
 13 14  1  6
 14  8  1  0
 15 22  1  0
 15 13  1  0
 16 15  2  0
 18 17  1  1
 19 18  1  0
 20 18  1  0
 21 20  1  1
 21 23  1  0
 21 22  1  0
 23 24  1  0
 25 23  2  0
M  END
$$$$
