QVL.pdb
     RDKit          3D

 25 24  0  0  1  0  0  0  0  0999 V2000
   23.0613  -15.0084  -17.2318 N   0  0  0  0  0  0  0  0  0  0  0  0
   21.9951  -15.9352  -17.3941 C   0  0  0  0  0  0  0  0  0  0  0  0
   20.8979  -15.5464  -17.8188 O   0  0  0  0  0  0  0  0  0  0  0  0
   22.2391  -17.3307  -17.0489 C   0  0  0  0  0  0  0  0  0  0  0  0
   23.5722  -17.6561  -16.4827 C   0  0  0  0  0  0  0  0  0  0  0  0
   24.2838  -18.7575  -17.2081 C   0  0  2  0  0  0  0  0  0  0  0  0
   23.4035  -19.5060  -18.0843 N   0  0  0  0  0  0  0  0  0  0  0  0
   24.8656  -19.7192  -16.2421 C   0  0  0  0  0  0  0  0  0  0  0  0
   24.3682  -20.8439  -16.1612 O   0  0  0  0  0  0  0  0  0  0  0  0
   28.6451  -20.6337  -15.6221 C   0  0  0  0  0  0  0  0  0  0  0  0
   28.0111  -20.1208  -14.3605 C   0  0  2  0  0  0  0  0  0  0  0  0
   28.6678  -20.8879  -13.2340 C   0  0  0  0  0  0  0  0  0  0  0  0
   26.5354  -20.2391  -14.4073 C   0  0  2  0  0  0  0  0  0  0  0  0
   25.9406  -19.3864  -15.4397 N   0  0  0  0  0  0  0  0  0  0  0  0
   25.7964  -19.8934  -13.1858 C   0  0  0  0  0  0  0  0  0  0  0  0
   25.8164  -18.7045  -12.7704 O   0  0  0  0  0  0  0  0  0  0  0  0
   20.9695  -21.3173  -12.4106 C   0  0  0  0  0  0  0  0  0  0  0  0
   22.2860  -20.5639  -12.4075 C   0  0  1  0  0  0  0  0  0  0  0  0
   21.9228  -19.0806  -12.3708 C   0  0  0  0  0  0  0  0  0  0  0  0
   23.0219  -20.8632  -11.1415 C   0  0  0  0  0  0  0  0  0  0  0  0
   24.4428  -20.3311  -11.1418 C   0  0  2  0  0  0  0  0  0  0  0  0
   25.0378  -20.8031  -12.4129 N   0  0  0  0  0  0  0  0  0  0  0  0
   25.2494  -20.8831  -10.0287 C   0  0  0  0  0  0  0  0  0  0  0  0
   25.1807  -20.3287   -8.7635 O   0  0  0  0  0  0  0  0  0  0  0  0
   26.0136  -21.8640  -10.2020 O   0  0  0  0  0  0  0  0  0  0  0  0
  2  4  1  0
  2  1  1  0
  3  2  2  0
  5  6  1  0
  5  4  1  0
  6  7  1  6
  8  9  2  0
  8  6  1  0
 11 10  1  6
 11 13  1  0
 11 12  1  0
 13 14  1  6
 14  8  1  0
 15 22  1  0
 15 13  1  0
 16 15  2  0
 18 17  1  1
 19 18  1  0
 20 18  1  0
 21 20  1  1
 21 23  1  0
 21 22  1  0
 23 24  1  0
 25 23  2  0
M  END
$$$$
