QVL.pdb
     RDKit          3D

 25 24  0  0  1  0  0  0  0  0999 V2000
   25.2392  -24.8311  -19.2978 N   0  0  0  0  0  0  0  0  0  0  0  0
   25.1258  -26.2160  -18.9953 C   0  0  0  0  0  0  0  0  0  0  0  0
   24.7621  -27.0121  -19.8724 O   0  0  0  0  0  0  0  0  0  0  0  0
   25.4478  -26.6523  -17.6418 C   0  0  0  0  0  0  0  0  0  0  0  0
   25.9242  -25.6095  -16.6988 C   0  0  0  0  0  0  0  0  0  0  0  0
   27.2850  -25.0744  -17.0272 C   0  0  2  0  0  0  0  0  0  0  0  0
   28.3453  -26.0019  -16.6829 N   0  0  0  0  0  0  0  0  0  0  0  0
   27.5388  -23.8189  -16.2819 C   0  0  0  0  0  0  0  0  0  0  0  0
   28.2202  -23.8722  -15.2562 O   0  0  0  0  0  0  0  0  0  0  0  0
   29.0313  -20.4897  -17.5245 C   0  0  0  0  0  0  0  0  0  0  0  0
   27.6462  -20.2517  -16.9937 C   0  0  2  0  0  0  0  0  0  0  0  0
   27.6695  -18.8579  -16.4061 C   0  0  0  0  0  0  0  0  0  0  0  0
   27.2385  -21.3132  -16.0446 C   0  0  2  0  0  0  0  0  0  0  0  0
   27.0344  -22.6042  -16.7066 N   0  0  0  0  0  0  0  0  0  0  0  0
   25.9973  -21.0962  -15.2895 C   0  0  0  0  0  0  0  0  0  0  0  0
   24.8946  -21.3959  -15.8192 O   0  0  0  0  0  0  0  0  0  0  0  0
   25.8673  -20.3099   -9.7552 C   0  0  0  0  0  0  0  0  0  0  0  0
   25.4899  -20.9227  -11.0904 C   0  0  1  0  0  0  0  0  0  0  0  0
   24.3993  -21.9493  -10.7901 C   0  0  0  0  0  0  0  0  0  0  0  0
   24.8727  -19.8732  -11.9574 C   0  0  0  0  0  0  0  0  0  0  0  0
   24.5955  -20.3575  -13.3682 C   0  0  2  0  0  0  0  0  0  0  0  0
   25.9277  -20.5683  -13.9792 N   0  0  0  0  0  0  0  0  0  0  0  0
   23.8779  -19.3459  -14.1784 C   0  0  0  0  0  0  0  0  0  0  0  0
   22.4991  -19.3733  -14.2835 O   0  0  0  0  0  0  0  0  0  0  0  0
   24.4980  -18.4409  -14.7886 O   0  0  0  0  0  0  0  0  0  0  0  0
  2  4  1  0
  2  1  1  0
  3  2  2  0
  5  6  1  0
  5  4  1  0
  6  7  1  1
  8  9  2  0
  8  6  1  0
 11 10  1  1
 11 13  1  0
 11 12  1  0
 13 14  1  6
 14  8  1  0
 15 22  1  0
 15 13  1  0
 16 15  2  0
 18 17  1  1
 19 18  1  0
 20 18  1  0
 21 20  1  1
 21 23  1  0
 21 22  1  0
 23 24  1  0
 25 23  2  0
M  END
$$$$
