QVL.pdb
     RDKit          3D

 25 24  0  0  1  0  0  0  0  0999 V2000
   20.6571  -21.8089  -13.3375 N   0  0  0  0  0  0  0  0  0  0  0  0
   20.4216  -20.4654  -12.9352 C   0  0  0  0  0  0  0  0  0  0  0  0
   19.4588  -19.8406  -13.4022 O   0  0  0  0  0  0  0  0  0  0  0  0
   21.3375  -19.8659  -11.9722 C   0  0  0  0  0  0  0  0  0  0  0  0
   22.3866  -20.7509  -11.4068 C   0  0  0  0  0  0  0  0  0  0  0  0
   23.6284  -20.8256  -12.2424 C   0  0  2  0  0  0  0  0  0  0  0  0
   23.4676  -21.6808  -13.4025 N   0  0  0  0  0  0  0  0  0  0  0  0
   24.7535  -21.3704  -11.4462 C   0  0  0  0  0  0  0  0  0  0  0  0
   24.7302  -22.5630  -11.1361 O   0  0  0  0  0  0  0  0  0  0  0  0
   28.3460  -21.5783  -12.3679 C   0  0  0  0  0  0  0  0  0  0  0  0
   28.2559  -20.7507  -11.1175 C   0  0  2  0  0  0  0  0  0  0  0  0
   29.5384  -21.0164  -10.3603 C   0  0  0  0  0  0  0  0  0  0  0  0
   27.0197  -21.0475  -10.3576 C   0  0  2  0  0  0  0  0  0  0  0  0
   25.8152  -20.5800  -11.0485 N   0  0  0  0  0  0  0  0  0  0  0  0
   26.9071  -20.4731   -9.0103 C   0  0  0  0  0  0  0  0  0  0  0  0
   26.2983  -19.3814   -8.8559 O   0  0  0  0  0  0  0  0  0  0  0  0
   27.4569  -21.0902   -3.1668 C   0  0  0  0  0  0  0  0  0  0  0  0
   28.3023  -20.4378   -4.2440 C   0  0  1  0  0  0  0  0  0  0  0  0
   29.7564  -20.6847   -3.8460 C   0  0  0  0  0  0  0  0  0  0  0  0
   28.0800  -21.1461   -5.5412 C   0  0  0  0  0  0  0  0  0  0  0  0
   27.3648  -20.2897   -6.5693 C   0  0  2  0  0  0  0  0  0  0  0  0
   27.4339  -21.0561   -7.8343 N   0  0  0  0  0  0  0  0  0  0  0  0
   28.0419  -18.9902   -6.7866 C   0  0  0  0  0  0  0  0  0  0  0  0
   27.5462  -17.8311   -6.2177 O   0  0  0  0  0  0  0  0  0  0  0  0
   29.0788  -18.9055   -7.4893 O   0  0  0  0  0  0  0  0  0  0  0  0
  2  4  1  0
  2  1  1  0
  3  2  2  0
  5  6  1  0
  5  4  1  0
  6  7  1  6
  8  9  2  0
  8  6  1  0
 11 10  1  6
 11 13  1  0
 11 12  1  0
 13 14  1  6
 14  8  1  0
 15 22  1  0
 15 13  1  0
 16 15  2  0
 18 17  1  1
 19 18  1  0
 20 18  1  0
 21 20  1  1
 21 23  1  0
 21 22  1  0
 23 24  1  0
 25 23  2  0
M  END
$$$$
