QVL.pdb
     RDKit          3D

 25 24  0  0  1  0  0  0  0  0999 V2000
   20.0183  -21.6078  -12.1556 N   0  0  0  0  0  0  0  0  0  0  0  0
   20.4440  -21.9721  -13.4626 C   0  0  0  0  0  0  0  0  0  0  0  0
   20.1554  -21.2525  -14.4292 O   0  0  0  0  0  0  0  0  0  0  0  0
   21.2170  -23.1987  -13.6165 C   0  0  0  0  0  0  0  0  0  0  0  0
   22.6305  -23.1593  -13.1649 C   0  0  0  0  0  0  0  0  0  0  0  0
   23.4426  -22.0809  -13.8155 C   0  0  2  0  0  0  0  0  0  0  0  0
   23.6471  -22.3164  -15.2318 N   0  0  0  0  0  0  0  0  0  0  0  0
   24.7814  -21.9928  -13.1859 C   0  0  0  0  0  0  0  0  0  0  0  0
   25.5414  -22.9580  -13.2844 O   0  0  0  0  0  0  0  0  0  0  0  0
   27.3874  -19.4951  -13.9264 C   0  0  0  0  0  0  0  0  0  0  0  0
   27.1642  -19.4181  -12.4429 C   0  0  2  0  0  0  0  0  0  0  0  0
   28.5196  -19.1164  -11.8425 C   0  0  0  0  0  0  0  0  0  0  0  0
   26.5219  -20.6485  -11.9257 C   0  0  2  0  0  0  0  0  0  0  0  0
   25.1913  -20.8656  -12.4991 N   0  0  0  0  0  0  0  0  0  0  0  0
   26.3064  -20.7328  -10.4751 C   0  0  0  0  0  0  0  0  0  0  0  0
   25.1400  -20.6031  -10.0179 O   0  0  0  0  0  0  0  0  0  0  0  0
   29.4397  -21.3801   -5.1916 C   0  0  0  0  0  0  0  0  0  0  0  0
   28.1210  -21.0301   -5.8545 C   0  0  1  0  0  0  0  0  0  0  0  0
   27.8833  -19.5493   -5.5646 C   0  0  0  0  0  0  0  0  0  0  0  0
   28.2629  -21.1663   -7.3361 C   0  0  0  0  0  0  0  0  0  0  0  0
   26.9628  -20.9266   -8.0806 C   0  0  2  0  0  0  0  0  0  0  0  0
   27.3221  -20.9574   -9.5168 N   0  0  0  0  0  0  0  0  0  0  0  0
   26.3831  -19.5959   -7.7846 C   0  0  0  0  0  0  0  0  0  0  0  0
   25.2656  -19.4752   -6.9788 O   0  0  0  0  0  0  0  0  0  0  0  0
   26.8875  -18.5466   -8.2545 O   0  0  0  0  0  0  0  0  0  0  0  0
  2  4  1  0
  2  1  1  0
  3  2  2  0
  5  6  1  0
  5  4  1  0
  6  7  1  6
  8  9  2  0
  8  6  1  0
 11 10  1  6
 11 13  1  0
 11 12  1  0
 13 14  1  6
 14  8  1  0
 15 22  1  0
 15 13  1  0
 16 15  2  0
 18 17  1  1
 19 18  1  0
 20 18  1  0
 21 20  1  1
 21 23  1  0
 21 22  1  0
 23 24  1  0
 25 23  2  0
M  END
$$$$
