QVL.pdb
     RDKit          3D

 25 24  0  0  1  0  0  0  0  0999 V2000
   15.4527  -14.1826  -13.8377 N   0  0  0  0  0  0  0  0  0  0  0  0
   16.2820  -14.8259  -14.7973 C   0  0  0  0  0  0  0  0  0  0  0  0
   16.9848  -15.7890  -14.4597 O   0  0  0  0  0  0  0  0  0  0  0  0
   16.2721  -14.3186  -16.1642 C   0  0  0  0  0  0  0  0  0  0  0  0
   17.1413  -13.1497  -16.4498 C   0  0  0  0  0  0  0  0  0  0  0  0
   17.0782  -12.6835  -17.8727 C   0  0  2  0  0  0  0  0  0  0  0  0
   17.5863  -13.6716  -18.8047 N   0  0  0  0  0  0  0  0  0  0  0  0
   17.8877  -11.4546  -18.0489 C   0  0  0  0  0  0  0  0  0  0  0  0
   18.9431  -11.5321  -18.6806 O   0  0  0  0  0  0  0  0  0  0  0  0
   17.1217   -8.2586  -19.8115 C   0  0  0  0  0  0  0  0  0  0  0  0
   17.3382   -7.9417  -18.3592 C   0  0  2  0  0  0  0  0  0  0  0  0
   17.9034   -6.5387  -18.3286 C   0  0  0  0  0  0  0  0  0  0  0  0
   18.1870   -8.9617  -17.7013 C   0  0  2  0  0  0  0  0  0  0  0  0
   17.4897  -10.2384  -17.5267 N   0  0  0  0  0  0  0  0  0  0  0  0
   18.6981   -8.6450  -16.3610 C   0  0  0  0  0  0  0  0  0  0  0  0
   17.8829   -8.4761  -15.4159 O   0  0  0  0  0  0  0  0  0  0  0  0
   23.2800  -10.6709  -14.1711 C   0  0  0  0  0  0  0  0  0  0  0  0
   22.4859   -9.5771  -14.8594 C   0  0  1  0  0  0  0  0  0  0  0  0
   22.0998  -10.1341  -16.2284 C   0  0  0  0  0  0  0  0  0  0  0  0
   21.2141   -9.3452  -14.1094 C   0  0  0  0  0  0  0  0  0  0  0  0
   20.4247   -8.1600  -14.6332 C   0  0  2  0  0  0  0  0  0  0  0  0
   20.0657   -8.5126  -16.0258 N   0  0  0  0  0  0  0  0  0  0  0  0
   21.2334   -6.9194  -14.6716 C   0  0  0  0  0  0  0  0  0  0  0  0
   21.5967   -6.3498  -15.8784 O   0  0  0  0  0  0  0  0  0  0  0  0
   21.6094   -6.3540  -13.6156 O   0  0  0  0  0  0  0  0  0  0  0  0
  2  4  1  0
  2  1  1  0
  3  2  2  0
  5  6  1  0
  5  4  1  0
  6  7  1  6
  8  9  2  0
  8  6  1  0
 11 10  1  6
 11 13  1  0
 11 12  1  0
 13 14  1  1
 14  8  1  0
 15 22  1  0
 15 13  1  0
 16 15  2  0
 18 17  1  1
 19 18  1  0
 20 18  1  0
 21 20  1  6
 21 23  1  0
 21 22  1  0
 23 24  1  0
 25 23  2  0
M  END
$$$$
