QVL.pdb
     RDKit          3D

 25 24  0  0  1  0  0  0  0  0999 V2000
   25.9939  -16.3439  -18.0844 N   0  0  0  0  0  0  0  0  0  0  0  0
   26.8885  -15.5215  -17.3457 C   0  0  0  0  0  0  0  0  0  0  0  0
   27.3641  -14.5027  -17.8666 O   0  0  0  0  0  0  0  0  0  0  0  0
   27.2162  -15.9159  -15.9808 C   0  0  0  0  0  0  0  0  0  0  0  0
   26.4858  -17.0844  -15.4288 C   0  0  0  0  0  0  0  0  0  0  0  0
   27.3732  -18.2385  -15.0736 C   0  0  2  0  0  0  0  0  0  0  0  0
   28.0879  -18.7643  -16.2208 N   0  0  0  0  0  0  0  0  0  0  0  0
   26.5722  -19.3493  -14.5069 C   0  0  0  0  0  0  0  0  0  0  0  0
   26.2666  -20.2886  -15.2439 O   0  0  0  0  0  0  0  0  0  0  0  0
   27.4384  -21.0986  -11.1709 C   0  0  0  0  0  0  0  0  0  0  0  0
   25.9924  -20.6923  -11.1434 C   0  0  2  0  0  0  0  0  0  0  0  0
   25.2770  -21.7849  -10.3798 C   0  0  0  0  0  0  0  0  0  0  0  0
   25.4699  -20.4517  -12.5083 C   0  0  2  0  0  0  0  0  0  0  0  0
   26.1655  -19.3547  -13.1859 N   0  0  0  0  0  0  0  0  0  0  0  0
   24.0476  -20.1049  -12.6298 C   0  0  0  0  0  0  0  0  0  0  0  0
   23.6278  -19.0381  -12.1082 O   0  0  0  0  0  0  0  0  0  0  0  0
   22.0419  -20.0742  -17.1240 C   0  0  0  0  0  0  0  0  0  0  0  0
   22.1541  -19.5977  -15.6883 C   0  0  1  0  0  0  0  0  0  0  0  0
   21.5617  -18.1899  -15.6638 C   0  0  0  0  0  0  0  0  0  0  0  0
   21.2881  -20.4494  -14.8174 C   0  0  0  0  0  0  0  0  0  0  0  0
   21.6821  -20.3932  -13.3533 C   0  0  2  0  0  0  0  0  0  0  0  0
   23.0784  -20.8836  -13.3041 N   0  0  0  0  0  0  0  0  0  0  0  0
   20.8545  -21.2905  -12.5141 C   0  0  0  0  0  0  0  0  0  0  0  0
   21.3032  -22.5541  -12.1752 O   0  0  0  0  0  0  0  0  0  0  0  0
   19.7291  -20.9308  -12.0896 O   0  0  0  0  0  0  0  0  0  0  0  0
  2  4  1  0
  2  1  1  0
  3  2  2  0
  5  6  1  0
  5  4  1  0
  6  7  1  6
  8  9  2  0
  8  6  1  0
 11 10  1  6
 11 13  1  0
 11 12  1  0
 13 14  1  1
 14  8  1  0
 15 22  1  0
 15 13  1  0
 16 15  2  0
 18 17  1  6
 19 18  1  0
 20 18  1  0
 21 20  1  6
 21 23  1  0
 21 22  1  0
 23 24  1  0
 25 23  2  0
M  END
$$$$
