QVL.pdb
     RDKit          3D

 25 24  0  0  1  0  0  0  0  0999 V2000
   26.5773  -17.9057  -17.9164 N   0  0  0  0  0  0  0  0  0  0  0  0
   27.9724  -18.0718  -17.6965 C   0  0  0  0  0  0  0  0  0  0  0  0
   28.7853  -17.4172  -18.3644 O   0  0  0  0  0  0  0  0  0  0  0  0
   28.3988  -19.0218  -16.6759 C   0  0  0  0  0  0  0  0  0  0  0  0
   27.3277  -19.6867  -15.8921 C   0  0  0  0  0  0  0  0  0  0  0  0
   27.8398  -20.6600  -14.8742 C   0  0  2  0  0  0  0  0  0  0  0  0
   28.6243  -21.7252  -15.4685 N   0  0  0  0  0  0  0  0  0  0  0  0
   26.7106  -21.2941  -14.1536 C   0  0  0  0  0  0  0  0  0  0  0  0
   26.1974  -22.3042  -14.6386 O   0  0  0  0  0  0  0  0  0  0  0  0
   25.3552  -19.8090  -10.2522 C   0  0  0  0  0  0  0  0  0  0  0  0
   25.4281  -21.2423  -10.6960 C   0  0  2  0  0  0  0  0  0  0  0  0
   26.7893  -21.7356  -10.2570 C   0  0  0  0  0  0  0  0  0  0  0  0
   25.1637  -21.3757  -12.1473 C   0  0  2  0  0  0  0  0  0  0  0  0
   26.2264  -20.7837  -12.9639 N   0  0  0  0  0  0  0  0  0  0  0  0
   23.9315  -20.7643  -12.6628 C   0  0  0  0  0  0  0  0  0  0  0  0
   23.9309  -19.5414  -12.9641 O   0  0  0  0  0  0  0  0  0  0  0  0
   20.3541  -20.8971  -17.0445 C   0  0  0  0  0  0  0  0  0  0  0  0
   20.2824  -20.5368  -15.5728 C   0  0  1  0  0  0  0  0  0  0  0  0
   19.0159  -21.2019  -15.0370 C   0  0  0  0  0  0  0  0  0  0  0  0
   21.4371  -21.1593  -14.8564 C   0  0  0  0  0  0  0  0  0  0  0  0
   21.5585  -20.6993  -13.4157 C   0  0  2  0  0  0  0  0  0  0  0  0
   22.7093  -21.4480  -12.8608 N   0  0  0  0  0  0  0  0  0  0  0  0
   20.3617  -21.0436  -12.6134 C   0  0  0  0  0  0  0  0  0  0  0  0
   19.3372  -20.1299  -12.4448 O   0  0  0  0  0  0  0  0  0  0  0  0
   20.2450  -22.1680  -12.0675 O   0  0  0  0  0  0  0  0  0  0  0  0
  2  4  1  0
  2  1  1  0
  3  2  2  0
  5  6  1  0
  5  4  1  0
  6  7  1  6
  8  9  2  0
  8  6  1  0
 11 10  1  6
 11 13  1  0
 11 12  1  0
 13 14  1  6
 14  8  1  0
 15 22  1  0
 15 13  1  0
 16 15  2  0
 18 17  1  6
 19 18  1  0
 20 18  1  0
 21 20  1  6
 21 23  1  0
 21 22  1  0
 23 24  1  0
 25 23  2  0
M  END
$$$$
