QVL.pdb
     RDKit          3D

 25 24  0  0  1  0  0  0  0  0999 V2000
   24.1538  -24.5073  -16.6951 N   0  0  0  0  0  0  0  0  0  0  0  0
   24.7864  -25.6093  -17.3337 C   0  0  0  0  0  0  0  0  0  0  0  0
   24.1433  -26.3210  -18.1182 O   0  0  0  0  0  0  0  0  0  0  0  0
   26.1910  -25.8624  -17.0357 C   0  0  0  0  0  0  0  0  0  0  0  0
   26.8700  -24.8921  -16.1407 C   0  0  0  0  0  0  0  0  0  0  0  0
   27.4173  -23.6932  -16.8541 C   0  0  2  0  0  0  0  0  0  0  0  0
   28.7025  -23.9532  -17.4735 N   0  0  0  0  0  0  0  0  0  0  0  0
   27.6049  -22.5700  -15.9054 C   0  0  0  0  0  0  0  0  0  0  0  0
   28.7114  -22.4205  -15.3836 O   0  0  0  0  0  0  0  0  0  0  0  0
   27.6628  -19.0116  -16.3932 C   0  0  0  0  0  0  0  0  0  0  0  0
   26.5187  -19.2547  -15.4505 C   0  0  2  0  0  0  0  0  0  0  0  0
   26.4493  -18.0268  -14.5694 C   0  0  0  0  0  0  0  0  0  0  0  0
   26.6817  -20.5307  -14.7164 C   0  0  2  0  0  0  0  0  0  0  0  0
   26.5786  -21.6972  -15.5969 N   0  0  0  0  0  0  0  0  0  0  0  0
   25.7252  -20.8095  -13.6369 C   0  0  0  0  0  0  0  0  0  0  0  0
   24.6925  -21.4850  -13.8893 O   0  0  0  0  0  0  0  0  0  0  0  0
   26.7004  -19.8021   -8.1472 C   0  0  0  0  0  0  0  0  0  0  0  0
   26.2867  -20.6339   -9.3463 C   0  0  1  0  0  0  0  0  0  0  0  0
   25.7225  -21.9363   -8.7815 C   0  0  0  0  0  0  0  0  0  0  0  0
   25.1668  -19.9476  -10.0593 C   0  0  0  0  0  0  0  0  0  0  0  0
   24.7655  -20.6468  -11.3446 C   0  0  2  0  0  0  0  0  0  0  0  0
   25.8664  -20.3775  -12.2976 N   0  0  0  0  0  0  0  0  0  0  0  0
   23.5187  -20.0913  -11.9205 C   0  0  0  0  0  0  0  0  0  0  0  0
   22.2960  -20.6841  -11.6629 O   0  0  0  0  0  0  0  0  0  0  0  0
   23.5375  -19.0728  -12.6542 O   0  0  0  0  0  0  0  0  0  0  0  0
  2  4  1  0
  2  1  1  0
  3  2  2  0
  5  6  1  0
  5  4  1  0
  6  7  1  1
  8  9  2  0
  8  6  1  0
 11 10  1  6
 11 13  1  0
 11 12  1  0
 13 14  1  6
 14  8  1  0
 15 22  1  0
 15 13  1  0
 16 15  2  0
 18 17  1  1
 19 18  1  0
 20 18  1  0
 21 20  1  1
 21 23  1  0
 21 22  1  0
 23 24  1  0
 25 23  2  0
M  END
$$$$
