QVL.pdb
     RDKit          3D

 25 24  0  0  1  0  0  0  0  0999 V2000
   19.1241  -17.9994  -14.2780 N   0  0  0  0  0  0  0  0  0  0  0  0
   19.5121  -16.9977  -15.2099 C   0  0  0  0  0  0  0  0  0  0  0  0
   18.6561  -16.4454  -15.9153 O   0  0  0  0  0  0  0  0  0  0  0  0
   20.9261  -16.6536  -15.2997 C   0  0  0  0  0  0  0  0  0  0  0  0
   21.8343  -17.2957  -14.3166 C   0  0  0  0  0  0  0  0  0  0  0  0
   22.4476  -18.5728  -14.8053 C   0  0  2  0  0  0  0  0  0  0  0  0
   21.5731  -19.3016  -15.7038 N   0  0  0  0  0  0  0  0  0  0  0  0
   22.7519  -19.4682  -13.6643 C   0  0  0  0  0  0  0  0  0  0  0  0
   21.8145  -19.9031  -12.9927 O   0  0  0  0  0  0  0  0  0  0  0  0
   25.2302  -23.1645  -12.0349 C   0  0  0  0  0  0  0  0  0  0  0  0
   24.7596  -22.1434  -13.0311 C   0  0  2  0  0  0  0  0  0  0  0  0
   25.8489  -22.0640  -14.0780 C   0  0  0  0  0  0  0  0  0  0  0  0
   24.4395  -20.8537  -12.3768 C   0  0  2  0  0  0  0  0  0  0  0  0
   24.0483  -19.8219  -13.3407 N   0  0  0  0  0  0  0  0  0  0  0  0
   25.5035  -20.2214  -11.5857 C   0  0  0  0  0  0  0  0  0  0  0  0
   26.3332  -19.4684  -12.1609 O   0  0  0  0  0  0  0  0  0  0  0  0
   27.2344  -18.9950   -5.9241 C   0  0  0  0  0  0  0  0  0  0  0  0
   27.5091  -18.9274   -7.4143 C   0  0  1  0  0  0  0  0  0  0  0  0
   29.0001  -19.2148   -7.5817 C   0  0  0  0  0  0  0  0  0  0  0  0
   26.7733  -20.0320   -8.1015 C   0  0  0  0  0  0  0  0  0  0  0  0
   26.9992  -20.0513   -9.6017 C   0  0  2  0  0  0  0  0  0  0  0  0
   25.6828  -20.3843  -10.1922 N   0  0  0  0  0  0  0  0  0  0  0  0
   27.9607  -21.1012  -10.0114 C   0  0  0  0  0  0  0  0  0  0  0  0
   29.2317  -20.7663  -10.4419 O   0  0  0  0  0  0  0  0  0  0  0  0
   27.6502  -22.3172   -9.9793 O   0  0  0  0  0  0  0  0  0  0  0  0
  2  4  1  0
  2  1  1  0
  3  2  2  0
  5  6  1  0
  5  4  1  0
  6  7  1  6
  8  9  2  0
  8  6  1  0
 11 10  1  1
 11 13  1  0
 11 12  1  0
 13 14  1  6
 14  8  1  0
 15 22  1  0
 15 13  1  0
 16 15  2  0
 18 17  1  1
 19 18  1  0
 20 18  1  0
 21 20  1  1
 21 23  1  0
 21 22  1  0
 23 24  1  0
 25 23  2  0
M  END
$$$$
