QVL.pdb
     RDKit          3D

 25 24  0  0  1  0  0  0  0  0999 V2000
   25.2427  -26.9167  -16.6028 N   0  0  0  0  0  0  0  0  0  0  0  0
   23.9392  -26.7755  -16.0522 C   0  0  0  0  0  0  0  0  0  0  0  0
   23.0275  -27.5289  -16.4220 O   0  0  0  0  0  0  0  0  0  0  0  0
   23.7230  -25.7323  -15.0568 C   0  0  0  0  0  0  0  0  0  0  0  0
   24.9041  -24.9187  -14.6737 C   0  0  0  0  0  0  0  0  0  0  0  0
   25.0310  -23.6389  -15.4430 C   0  0  2  0  0  0  0  0  0  0  0  0
   25.5462  -23.8441  -16.7830 N   0  0  0  0  0  0  0  0  0  0  0  0
   25.9580  -22.7118  -14.7519 C   0  0  0  0  0  0  0  0  0  0  0  0
   27.1685  -22.8387  -14.9458 O   0  0  0  0  0  0  0  0  0  0  0  0
   26.5026  -19.1466  -15.0520 C   0  0  0  0  0  0  0  0  0  0  0  0
   26.0854  -19.3599  -13.6248 C   0  0  2  0  0  0  0  0  0  0  0  0
   26.8215  -18.3083  -12.8241 C   0  0  0  0  0  0  0  0  0  0  0  0
   26.3356  -20.7530  -13.1882 C   0  0  2  0  0  0  0  0  0  0  0  0
   25.5004  -21.7200  -13.9051 N   0  0  0  0  0  0  0  0  0  0  0  0
   26.1071  -21.0621  -11.7704 C   0  0  0  0  0  0  0  0  0  0  0  0
   25.0128  -21.5792  -11.4221 O   0  0  0  0  0  0  0  0  0  0  0  0
   28.8224  -20.5306   -6.2479 C   0  0  0  0  0  0  0  0  0  0  0  0
   27.5466  -20.8251   -7.0136 C   0  0  1  0  0  0  0  0  0  0  0  0
   26.5650  -19.7159   -6.6399 C   0  0  0  0  0  0  0  0  0  0  0  0
   27.8108  -20.6968   -8.4791 C   0  0  0  0  0  0  0  0  0  0  0  0
   26.6151  -21.0765   -9.3324 C   0  0  2  0  0  0  0  0  0  0  0  0
   27.0361  -20.8274  -10.7300 N   0  0  0  0  0  0  0  0  0  0  0  0
   25.4340  -20.2267   -9.0542 C   0  0  0  0  0  0  0  0  0  0  0  0
   24.3277  -20.7447   -8.4057 O   0  0  0  0  0  0  0  0  0  0  0  0
   25.4048  -19.0195   -9.3976 O   0  0  0  0  0  0  0  0  0  0  0  0
  2  4  1  0
  2  1  1  0
  3  2  2  0
  5  6  1  0
  5  4  1  0
  6  7  1  6
  8  9  2  0
  8  6  1  0
 11 10  1  6
 11 13  1  0
 11 12  1  0
 13 14  1  6
 14  8  1  0
 15 22  1  0
 15 13  1  0
 16 15  2  0
 18 17  1  1
 19 18  1  0
 20 18  1  0
 21 20  1  1
 21 23  1  0
 21 22  1  0
 23 24  1  0
 25 23  2  0
M  END
$$$$
