QVL.pdb
     RDKit          3D

 25 24  0  0  1  0  0  0  0  0999 V2000
   18.2349  -20.2183  -15.7751 N   0  0  0  0  0  0  0  0  0  0  0  0
   18.1069  -19.0339  -14.9986 C   0  0  0  0  0  0  0  0  0  0  0  0
   17.7142  -17.9859  -15.5306 O   0  0  0  0  0  0  0  0  0  0  0  0
   18.4479  -19.1004  -13.5826 C   0  0  0  0  0  0  0  0  0  0  0  0
   18.9019  -20.4156  -13.0653 C   0  0  0  0  0  0  0  0  0  0  0  0
   20.3922  -20.5704  -13.0336 C   0  0  2  0  0  0  0  0  0  0  0  0
   20.9068  -21.2428  -14.2110 N   0  0  0  0  0  0  0  0  0  0  0  0
   20.8025  -21.3700  -11.8552 C   0  0  0  0  0  0  0  0  0  0  0  0
   20.8144  -22.5984  -11.9542 O   0  0  0  0  0  0  0  0  0  0  0  0
   23.8163  -20.6517   -9.3258 C   0  0  0  0  0  0  0  0  0  0  0  0
   22.5001  -20.7532   -8.6090 C   0  0  2  0  0  0  0  0  0  0  0  0
   22.8120  -21.3925   -7.2738 C   0  0  0  0  0  0  0  0  0  0  0  0
   21.4949  -21.4791   -9.4193 C   0  0  2  0  0  0  0  0  0  0  0  0
   21.1676  -20.7755  -10.6620 N   0  0  0  0  0  0  0  0  0  0  0  0
   20.1894  -21.7341   -8.7961 C   0  0  0  0  0  0  0  0  0  0  0  0
   19.3058  -20.8372   -8.8299 O   0  0  0  0  0  0  0  0  0  0  0  0
   16.7001  -25.2097  -10.1061 C   0  0  0  0  0  0  0  0  0  0  0  0
   17.7573  -24.8468   -9.0808 C   0  0  1  0  0  0  0  0  0  0  0  0
   19.0925  -24.8791   -9.8223 C   0  0  0  0  0  0  0  0  0  0  0  0
   17.5437  -23.4377   -8.6303 C   0  0  0  0  0  0  0  0  0  0  0  0
   18.4856  -23.0225   -7.5157 C   0  0  2  0  0  0  0  0  0  0  0  0
   19.8232  -22.9351   -8.1449 N   0  0  0  0  0  0  0  0  0  0  0  0
   18.5562  -24.0327   -6.4345 C   0  0  0  0  0  0  0  0  0  0  0  0
   17.4896  -24.2235   -5.5750 O   0  0  0  0  0  0  0  0  0  0  0  0
   19.5804  -24.7396   -6.2694 O   0  0  0  0  0  0  0  0  0  0  0  0
  2  4  1  0
  2  1  1  0
  3  2  2  0
  5  6  1  0
  5  4  1  0
  6  7  1  6
  8  9  2  0
  8  6  1  0
 11 10  1  6
 11 13  1  0
 11 12  1  0
 13 14  1  6
 14  8  1  0
 15 22  1  0
 15 13  1  0
 16 15  2  0
 18 17  1  6
 19 18  1  0
 20 18  1  0
 21 20  1  6
 21 23  1  0
 21 22  1  0
 23 24  1  0
 25 23  2  0
M  END
$$$$
