GLY.pdb
     RDKit          3D

 25 25  0  0  1  0  0  0  0  0999 V2000
   27.9166  -21.6876  -16.1123 N   0  0  0  0  0  0  0  0  0  0  0  0
   27.2207  -20.5763  -15.5210 C   0  0  0  0  0  0  0  0  0  0  0  0
   26.0197  -21.1134  -14.7799 C   0  0  0  0  0  0  0  0  0  0  0  0
   25.4619  -22.1523  -15.1965 O   0  0  0  0  0  0  0  0  0  0  0  0
   25.7725  -20.5676   -9.3701 C   0  0  0  0  0  0  0  0  0  0  0  0
   25.6730  -21.0428  -10.7827 C   0  0  1  0  0  0  0  0  0  0  0  0
   25.4487  -22.5782  -10.7566 C   0  0  0  0  0  0  0  0  0  0  0  0
   24.4712  -20.5001  -11.4926 C   0  0  0  0  0  0  0  0  0  0  0  0
   24.3114  -20.8914  -12.9430 C   0  0  2  0  0  0  0  0  0  0  0  0
   25.5265  -20.4663  -13.6394 N   0  0  0  0  0  0  0  0  0  0  0  0
   23.1318  -20.2915  -13.5329 C   0  0  0  0  0  0  0  0  0  0  0  0
   23.0545  -19.0139  -13.5388 O   0  0  0  0  0  0  0  0  0  0  0  0
   16.5130  -18.3673  -18.9039 O   0  0  0  0  0  0  0  0  0  0  0  0
   17.6251  -18.8511  -18.2227 C   0  0  0  0  0  0  0  0  0  0  0  0
   17.6527  -20.1817  -17.8277 C   0  0  0  0  0  0  0  0  0  0  0  0
   18.7426  -20.6831  -17.1524 C   0  0  0  0  0  0  0  0  0  0  0  0
   19.8403  -19.8939  -16.8433 C   0  0  0  0  0  0  0  0  0  0  0  0
   20.9809  -20.4617  -16.1215 C   0  0  0  0  0  0  0  0  0  0  0  0
   20.9260  -20.2343  -14.6147 C   0  0  2  0  0  0  0  0  0  0  0  0
   22.0757  -20.9966  -14.1014 N   0  0  0  0  0  0  0  0  0  0  0  0
   19.6918  -20.7809  -14.0343 C   0  0  0  0  0  0  0  0  0  0  0  0
   19.6456  -21.9852  -13.7034 O   0  0  0  0  0  0  0  0  0  0  0  0
   19.8238  -18.5711  -17.2306 C   0  0  0  0  0  0  0  0  0  0  0  0
   18.7191  -18.0728  -17.9123 C   0  0  0  0  0  0  0  0  0  0  0  0
   18.5880  -19.9875  -13.8497 O   0  0  0  0  0  0  0  0  0  0  0  0
  1  2  1  0
  3  4  2  0
  3  2  1  0
  6  5  1  1
  6  8  1  0
  7  6  1  0
  9  8  1  1
  9 10  1  0
 10  3  1  0
 11  9  1  0
 12 11  2  0
 13 14  1  0
 14 15  2  0
 15 16  1  0
 17 18  1  0
 17 16  2  0
 19 18  1  6
 19 21  1  0
 19 20  1  0
 20 11  1  0
 21 25  1  0
 22 21  2  0
 23 17  1  0
 24 23  2  0
 24 14  1  0
M  END
$$$$
