GLY.pdb
     RDKit          3D

 25 25  0  0  1  0  0  0  0  0999 V2000
   27.9197    3.8757    2.2273 N   0  0  0  0  0  0  0  0  0  0  0  0
   27.0015    4.3103    1.2091 C   0  0  0  0  0  0  0  0  0  0  0  0
   26.9008    3.2200    0.1693 C   0  0  0  0  0  0  0  0  0  0  0  0
   27.8987    2.9600   -0.5386 O   0  0  0  0  0  0  0  0  0  0  0  0
   23.4208   -1.0664    1.1121 C   0  0  0  0  0  0  0  0  0  0  0  0
   24.6396   -0.3012    0.7118 C   0  0  1  0  0  0  0  0  0  0  0  0
   25.7237   -1.3221    0.2746 C   0  0  0  0  0  0  0  0  0  0  0  0
   24.4161    0.5505   -0.4995 C   0  0  0  0  0  0  0  0  0  0  0  0
   25.5847    1.3920   -0.9566 C   0  0  2  0  0  0  0  0  0  0  0  0
   25.7117    2.5015   -0.0107 N   0  0  0  0  0  0  0  0  0  0  0  0
   25.3999    1.8752   -2.3100 C   0  0  0  0  0  0  0  0  0  0  0  0
   24.8004    2.9955   -2.4643 O   0  0  0  0  0  0  0  0  0  0  0  0
   25.5221    2.4898  -11.1594 O   0  0  0  0  0  0  0  0  0  0  0  0
   25.6599    2.0784   -9.8379 C   0  0  0  0  0  0  0  0  0  0  0  0
   26.7113    2.5746   -9.0791 C   0  0  0  0  0  0  0  0  0  0  0  0
   26.8680    2.1819   -7.7689 C   0  0  0  0  0  0  0  0  0  0  0  0
   25.9974    1.2894   -7.1617 C   0  0  0  0  0  0  0  0  0  0  0  0
   26.1972    0.8929   -5.7664 C   0  0  0  0  0  0  0  0  0  0  0  0
   25.5659    1.8507   -4.7618 C   0  0  2  0  0  0  0  0  0  0  0  0
   25.8300    1.2189   -3.4588 N   0  0  0  0  0  0  0  0  0  0  0  0
   24.1135    1.9535   -4.9582 C   0  0  0  0  0  0  0  0  0  0  0  0
   23.3519    1.1647   -4.3584 O   0  0  0  0  0  0  0  0  0  0  0  0
   24.9497    0.7901   -7.9057 C   0  0  0  0  0  0  0  0  0  0  0  0
   24.7988    1.1920   -9.2282 C   0  0  0  0  0  0  0  0  0  0  0  0
   23.5803    2.9043   -5.7909 O   0  0  0  0  0  0  0  0  0  0  0  0
  1  2  1  0
  3  4  2  0
  3  2  1  0
  6  5  1  6
  6  8  1  0
  7  6  1  0
  9  8  1  1
  9 10  1  0
 10  3  1  0
 11  9  1  0
 12 11  2  0
 13 14  1  0
 14 15  2  0
 15 16  1  0
 17 18  1  0
 17 16  2  0
 19 18  1  6
 19 21  1  0
 19 20  1  0
 20 11  1  0
 21 25  1  0
 22 21  2  0
 23 17  1  0
 24 23  2  0
 24 14  1  0
M  END
$$$$
