GLY.pdb
     RDKit          3D

 25 25  0  0  1  0  0  0  0  0999 V2000
   22.2815  -16.1185  -18.5924 N   0  0  0  0  0  0  0  0  0  0  0  0
   21.2482  -15.4782  -17.8235 C   0  0  0  0  0  0  0  0  0  0  0  0
   21.9076  -14.6441  -16.7513 C   0  0  0  0  0  0  0  0  0  0  0  0
   21.2756  -14.3911  -15.7021 O   0  0  0  0  0  0  0  0  0  0  0  0
   27.3264  -14.8791  -16.3736 C   0  0  0  0  0  0  0  0  0  0  0  0
   25.8860  -14.7843  -15.9897 C   0  0  1  0  0  0  0  0  0  0  0  0
   25.7733  -15.0930  -14.4730 C   0  0  0  0  0  0  0  0  0  0  0  0
   25.3392  -13.3974  -16.1319 C   0  0  0  0  0  0  0  0  0  0  0  0
   23.8458  -13.2413  -15.9656 C   0  0  2  0  0  0  0  0  0  0  0  0
   23.2095  -14.1538  -16.9167 N   0  0  0  0  0  0  0  0  0  0  0  0
   23.4221  -11.8736  -16.1873 C   0  0  0  0  0  0  0  0  0  0  0  0
   23.8422  -11.2851  -17.2434 O   0  0  0  0  0  0  0  0  0  0  0  0
   18.5652   -4.8723  -17.6286 O   0  0  0  0  0  0  0  0  0  0  0  0
   19.1219   -6.1087  -17.3186 C   0  0  0  0  0  0  0  0  0  0  0  0
   20.3118   -6.4881  -17.9250 C   0  0  0  0  0  0  0  0  0  0  0  0
   20.8818   -7.7070  -17.6338 C   0  0  0  0  0  0  0  0  0  0  0  0
   20.3016   -8.5925  -16.7380 C   0  0  0  0  0  0  0  0  0  0  0  0
   20.9359   -9.8816  -16.4549 C   0  0  0  0  0  0  0  0  0  0  0  0
   22.2608   -9.7610  -15.7098 C   0  0  2  0  0  0  0  0  0  0  0  0
   22.5864  -11.1489  -15.3434 N   0  0  0  0  0  0  0  0  0  0  0  0
   22.1165   -8.9637  -14.4842 C   0  0  0  0  0  0  0  0  0  0  0  0
   21.7450   -9.5178  -13.4273 O   0  0  0  0  0  0  0  0  0  0  0  0
   19.1199   -8.2263  -16.1299 C   0  0  0  0  0  0  0  0  0  0  0  0
   18.5511   -6.9934  -16.4296 C   0  0  0  0  0  0  0  0  0  0  0  0
   22.3843   -7.6183  -14.4827 O   0  0  0  0  0  0  0  0  0  0  0  0
  1  2  1  0
  3  4  2  0
  3  2  1  0
  6  5  1  1
  6  8  1  0
  7  6  1  0
  9  8  1  6
  9 10  1  0
 10  3  1  0
 11  9  1  0
 12 11  2  0
 13 14  1  0
 14 15  2  0
 15 16  1  0
 17 18  1  0
 17 16  2  0
 19 18  1  1
 19 21  1  0
 19 20  1  0
 20 11  1  0
 21 25  1  0
 22 21  2  0
 23 17  1  0
 24 23  2  0
 24 14  1  0
M  END
$$$$
