GLY.pdb
     RDKit          3D

 25 25  0  0  1  0  0  0  0  0999 V2000
   26.5655  -21.7527  -16.1265 N   0  0  0  0  0  0  0  0  0  0  0  0
   25.8156  -21.0403  -17.1260 C   0  0  0  0  0  0  0  0  0  0  0  0
   25.0949  -19.8989  -16.4493 C   0  0  0  0  0  0  0  0  0  0  0  0
   24.5223  -20.1032  -15.3563 O   0  0  0  0  0  0  0  0  0  0  0  0
   27.1166  -14.9305  -16.7464 C   0  0  0  0  0  0  0  0  0  0  0  0
   26.3617  -16.0934  -16.1905 C   0  0  1  0  0  0  0  0  0  0  0  0
   26.0902  -15.8140  -14.6883 C   0  0  0  0  0  0  0  0  0  0  0  0
   25.0004  -16.2426  -16.7964 C   0  0  0  0  0  0  0  0  0  0  0  0
   24.2611  -17.5230  -16.4858 C   0  0  2  0  0  0  0  0  0  0  0  0
   25.0603  -18.6232  -17.0271 N   0  0  0  0  0  0  0  0  0  0  0  0
   22.9252  -17.5199  -17.0468 C   0  0  0  0  0  0  0  0  0  0  0  0
   22.7984  -17.8326  -18.2815 O   0  0  0  0  0  0  0  0  0  0  0  0
   14.0953  -17.3667  -17.8509 O   0  0  0  0  0  0  0  0  0  0  0  0
   15.4133  -17.4034  -17.4079 C   0  0  0  0  0  0  0  0  0  0  0  0
   15.8762  -16.3963  -16.5719 C   0  0  0  0  0  0  0  0  0  0  0  0
   17.1768  -16.4115  -16.1207 C   0  0  0  0  0  0  0  0  0  0  0  0
   18.0646  -17.4159  -16.4760 C   0  0  0  0  0  0  0  0  0  0  0  0
   19.4415  -17.3974  -15.9784 C   0  0  0  0  0  0  0  0  0  0  0  0
   20.4861  -17.2205  -17.0751 C   0  0  2  0  0  0  0  0  0  0  0  0
   21.7644  -17.2093  -16.3455 N   0  0  0  0  0  0  0  0  0  0  0  0
   20.3211  -15.9372  -17.7712 C   0  0  0  0  0  0  0  0  0  0  0  0
   20.8474  -14.9065  -17.2991 O   0  0  0  0  0  0  0  0  0  0  0  0
   17.6159  -18.4210  -17.3059 C   0  0  0  0  0  0  0  0  0  0  0  0
   16.3008  -18.3981  -17.7569 C   0  0  0  0  0  0  0  0  0  0  0  0
   19.5973  -15.8535  -18.9335 O   0  0  0  0  0  0  0  0  0  0  0  0
  1  2  1  0
  3  4  2  0
  3  2  1  0
  6  5  1  6
  6  8  1  0
  7  6  1  0
  9  8  1  6
  9 10  1  0
 10  3  1  0
 11  9  1  0
 12 11  2  0
 13 14  1  0
 14 15  2  0
 15 16  1  0
 17 18  1  0
 17 16  2  0
 19 18  1  1
 19 21  1  0
 19 20  1  0
 20 11  1  0
 21 25  1  0
 22 21  2  0
 23 17  1  0
 24 23  2  0
 24 14  1  0
M  END
$$$$
