GLY.pdb
     RDKit          3D

 25 25  0  0  1  0  0  0  0  0999 V2000
   26.2421  -21.0514   -8.1722 N   0  0  0  0  0  0  0  0  0  0  0  0
   25.0122  -20.3843   -8.5055 C   0  0  0  0  0  0  0  0  0  0  0  0
   24.9608  -20.2131  -10.0049 C   0  0  0  0  0  0  0  0  0  0  0  0
   24.1123  -19.4394  -10.5005 O   0  0  0  0  0  0  0  0  0  0  0  0
   29.7402  -21.4443  -12.7995 C   0  0  0  0  0  0  0  0  0  0  0  0
   28.5514  -20.7096  -12.2720 C   0  0  1  0  0  0  0  0  0  0  0  0
   28.5657  -19.2799  -12.8754 C   0  0  0  0  0  0  0  0  0  0  0  0
   27.2548  -21.2991  -12.7345 C   0  0  0  0  0  0  0  0  0  0  0  0
   25.9954  -20.6082  -12.2666 C   0  0  2  0  0  0  0  0  0  0  0  0
   25.8459  -20.9056  -10.8413 N   0  0  0  0  0  0  0  0  0  0  0  0
   24.8351  -21.0431  -13.0175 C   0  0  0  0  0  0  0  0  0  0  0  0
   24.5054  -22.2774  -12.9399 O   0  0  0  0  0  0  0  0  0  0  0  0
   16.6079  -21.4280  -15.8680 O   0  0  0  0  0  0  0  0  0  0  0  0
   17.8573  -21.0594  -15.3802 C   0  0  0  0  0  0  0  0  0  0  0  0
   18.4558  -21.8325  -14.3946 C   0  0  0  0  0  0  0  0  0  0  0  0
   19.6920  -21.4874  -13.8964 C   0  0  0  0  0  0  0  0  0  0  0  0
   20.3801  -20.3722  -14.3501 C   0  0  0  0  0  0  0  0  0  0  0  0
   21.6924  -20.0351  -13.7948 C   0  0  0  0  0  0  0  0  0  0  0  0
   22.8437  -20.8013  -14.4371 C   0  0  2  0  0  0  0  0  0  0  0  0
   24.0442  -20.2209  -13.8138 N   0  0  0  0  0  0  0  0  0  0  0  0
   22.8985  -20.5712  -15.8872 C   0  0  0  0  0  0  0  0  0  0  0  0
   23.5760  -19.6220  -16.3366 O   0  0  0  0  0  0  0  0  0  0  0  0
   19.7954  -19.5970  -15.3286 C   0  0  0  0  0  0  0  0  0  0  0  0
   18.5467  -19.9527  -15.8263 C   0  0  0  0  0  0  0  0  0  0  0  0
   22.2163  -21.3842  -16.7563 O   0  0  0  0  0  0  0  0  0  0  0  0
  1  2  1  0
  3  4  2  0
  3  2  1  0
  6  5  1  6
  6  8  1  0
  7  6  1  0
  9  8  1  6
  9 10  1  0
 10  3  1  0
 11  9  1  0
 12 11  2  0
 13 14  1  0
 14 15  2  0
 15 16  1  0
 17 18  1  0
 17 16  2  0
 19 18  1  1
 19 21  1  0
 19 20  1  0
 20 11  1  0
 21 25  1  0
 22 21  2  0
 23 17  1  0
 24 23  2  0
 24 14  1  0
M  END
$$$$
