GLY.pdb
     RDKit          3D

 25 25  0  0  1  0  0  0  0  0999 V2000
   23.4534  -13.8171  -18.9420 N   0  0  0  0  0  0  0  0  0  0  0  0
   22.5398  -12.7071  -18.9856 C   0  0  0  0  0  0  0  0  0  0  0  0
   22.8292  -11.8124  -17.8041 C   0  0  0  0  0  0  0  0  0  0  0  0
   22.0410  -11.8126  -16.8330 O   0  0  0  0  0  0  0  0  0  0  0  0
   28.0209  -10.6521  -16.5170 C   0  0  0  0  0  0  0  0  0  0  0  0
   26.5636  -10.9360  -16.3535 C   0  0  1  0  0  0  0  0  0  0  0  0
   26.2916  -11.1918  -14.8472 C   0  0  0  0  0  0  0  0  0  0  0  0
   25.7028   -9.7593  -16.6957 C   0  0  0  0  0  0  0  0  0  0  0  0
   24.2121  -10.0021  -16.7308 C   0  0  2  0  0  0  0  0  0  0  0  0
   23.9618  -10.9882  -17.7830 N   0  0  0  0  0  0  0  0  0  0  0  0
   23.4755   -8.7782  -16.9731 C   0  0  0  0  0  0  0  0  0  0  0  0
   23.4691   -8.3148  -18.1662 O   0  0  0  0  0  0  0  0  0  0  0  0
   17.0915   -3.5010  -18.7965 O   0  0  0  0  0  0  0  0  0  0  0  0
   17.9974   -4.4788  -18.3991 C   0  0  0  0  0  0  0  0  0  0  0  0
   19.2695   -4.4910  -18.9550 C   0  0  0  0  0  0  0  0  0  0  0  0
   20.1832   -5.4490  -18.5772 C   0  0  0  0  0  0  0  0  0  0  0  0
   19.8772   -6.4257  -17.6415 C   0  0  0  0  0  0  0  0  0  0  0  0
   20.8743   -7.4301  -17.2661 C   0  0  0  0  0  0  0  0  0  0  0  0
   22.0231   -6.8705  -16.4340 C   0  0  2  0  0  0  0  0  0  0  0  0
   22.7665   -8.0680  -16.0096 N   0  0  0  0  0  0  0  0  0  0  0  0
   21.5294   -6.1665  -15.2427 C   0  0  0  0  0  0  0  0  0  0  0  0
   21.1879   -4.9675  -15.3312 O   0  0  0  0  0  0  0  0  0  0  0  0
   18.6169   -6.4233  -17.0829 C   0  0  0  0  0  0  0  0  0  0  0  0
   17.7002   -5.4522  -17.4700 C   0  0  0  0  0  0  0  0  0  0  0  0
   21.4370   -6.8069  -14.0330 O   0  0  0  0  0  0  0  0  0  0  0  0
  1  2  1  0
  3  4  2  0
  3  2  1  0
  6  5  1  1
  6  8  1  0
  7  6  1  0
  9  8  1  6
  9 10  1  0
 10  3  1  0
 11  9  1  0
 12 11  2  0
 13 14  1  0
 14 15  2  0
 15 16  1  0
 17 18  1  0
 17 16  2  0
 19 18  1  6
 19 21  1  0
 19 20  1  0
 20 11  1  0
 21 25  1  0
 22 21  2  0
 23 17  1  0
 24 23  2  0
 24 14  1  0
M  END
$$$$
