GLY.pdb
     RDKit          3D

 25 25  0  0  1  0  0  0  0  0999 V2000
   28.7935  -31.1075  -16.6642 N   0  0  0  0  0  0  0  0  0  0  0  0
   28.7506  -32.4195  -16.0761 C   0  0  0  0  0  0  0  0  0  0  0  0
   27.5248  -32.5020  -15.1982 C   0  0  0  0  0  0  0  0  0  0  0  0
   26.8937  -31.4550  -14.9340 O   0  0  0  0  0  0  0  0  0  0  0  0
   23.4820  -35.8634  -16.0695 C   0  0  0  0  0  0  0  0  0  0  0  0
   24.2888  -34.6944  -15.6070 C   0  0  1  0  0  0  0  0  0  0  0  0
   23.3051  -33.5728  -15.1795 C   0  0  0  0  0  0  0  0  0  0  0  0
   25.0804  -34.9905  -14.3708 C   0  0  0  0  0  0  0  0  0  0  0  0
   25.9142  -33.8587  -13.8173 C   0  0  2  0  0  0  0  0  0  0  0  0
   27.0894  -33.7285  -14.6799 N   0  0  0  0  0  0  0  0  0  0  0  0
   26.2979  -34.0993  -12.4410 C   0  0  0  0  0  0  0  0  0  0  0  0
   27.2178  -34.9622  -12.2227 O   0  0  0  0  0  0  0  0  0  0  0  0
   27.2508  -32.9542   -3.7057 O   0  0  0  0  0  0  0  0  0  0  0  0
   27.0811  -32.8491   -5.0822 C   0  0  0  0  0  0  0  0  0  0  0  0
   25.8364  -32.4983   -5.5875 C   0  0  0  0  0  0  0  0  0  0  0  0
   25.6445  -32.3881   -6.9463 C   0  0  0  0  0  0  0  0  0  0  0  0
   26.6686  -32.6188   -7.8526 C   0  0  0  0  0  0  0  0  0  0  0  0
   26.4263  -32.4943   -9.2913 C   0  0  0  0  0  0  0  0  0  0  0  0
   26.2416  -33.8325   -9.9987 C   0  0  2  0  0  0  0  0  0  0  0  0
   25.7483  -33.4596  -11.3345 N   0  0  0  0  0  0  0  0  0  0  0  0
   25.2285  -34.6586   -9.3279 C   0  0  0  0  0  0  0  0  0  0  0  0
   24.0202  -34.5002   -9.6052 O   0  0  0  0  0  0  0  0  0  0  0  0
   27.9087  -32.9679   -7.3622 C   0  0  0  0  0  0  0  0  0  0  0  0
   28.0939  -33.0769   -5.9885 C   0  0  0  0  0  0  0  0  0  0  0  0
   25.5900  -35.6028   -8.4007 O   0  0  0  0  0  0  0  0  0  0  0  0
  1  2  1  0
  3  4  2  0
  3  2  1  0
  6  5  1  1
  6  8  1  0
  7  6  1  0
  9  8  1  6
  9 10  1  0
 10  3  1  0
 11  9  1  0
 12 11  2  0
 13 14  1  0
 14 15  2  0
 15 16  1  0
 17 18  1  0
 17 16  2  0
 19 18  1  1
 19 21  1  0
 19 20  1  0
 20 11  1  0
 21 25  1  0
 22 21  2  0
 23 17  1  0
 24 23  2  0
 24 14  1  0
M  END
$$$$
