GLY.pdb
     RDKit          3D

 25 25  0  0  1  0  0  0  0  0999 V2000
   25.6803  -17.0820  -16.4303 N   0  0  0  0  0  0  0  0  0  0  0  0
   25.5204  -17.3133  -15.0197 C   0  0  0  0  0  0  0  0  0  0  0  0
   25.6405  -18.7975  -14.7693 C   0  0  0  0  0  0  0  0  0  0  0  0
   25.0517  -19.5933  -15.5337 O   0  0  0  0  0  0  0  0  0  0  0  0
   30.2852  -20.2871  -12.5620 C   0  0  0  0  0  0  0  0  0  0  0  0
   29.0117  -20.1033  -13.3207 C   0  0  1  0  0  0  0  0  0  0  0  0
   29.2228  -20.6621  -14.7530 C   0  0  0  0  0  0  0  0  0  0  0  0
   27.8837  -20.9155  -12.7635 C   0  0  0  0  0  0  0  0  0  0  0  0
   26.5300  -20.7177  -13.4043 C   0  0  2  0  0  0  0  0  0  0  0  0
   26.3981  -19.2901  -13.6988 N   0  0  0  0  0  0  0  0  0  0  0  0
   25.4580  -21.1770  -12.5445 C   0  0  0  0  0  0  0  0  0  0  0  0
   25.4340  -22.4192  -12.2366 O   0  0  0  0  0  0  0  0  0  0  0  0
   27.7964  -20.0783   -6.4370 O   0  0  0  0  0  0  0  0  0  0  0  0
   26.7198  -20.0233   -7.3160 C   0  0  0  0  0  0  0  0  0  0  0  0
   25.7658  -21.0315   -7.2840 C   0  0  0  0  0  0  0  0  0  0  0  0
   24.6915  -20.9984   -8.1443 C   0  0  0  0  0  0  0  0  0  0  0  0
   24.5194  -19.9744   -9.0635 C   0  0  0  0  0  0  0  0  0  0  0  0
   23.3650  -19.9741   -9.9644 C   0  0  0  0  0  0  0  0  0  0  0  0
   23.4773  -20.9822  -11.1030 C   0  0  2  0  0  0  0  0  0  0  0  0
   24.4529  -20.3707  -12.0200 N   0  0  0  0  0  0  0  0  0  0  0  0
   22.1966  -21.1435  -11.8049 C   0  0  0  0  0  0  0  0  0  0  0  0
   22.0795  -20.7305  -12.9786 O   0  0  0  0  0  0  0  0  0  0  0  0
   25.4605  -18.9680   -9.1042 C   0  0  0  0  0  0  0  0  0  0  0  0
   26.5424  -19.0090   -8.2319 C   0  0  0  0  0  0  0  0  0  0  0  0
   21.1262  -21.7420  -11.1901 O   0  0  0  0  0  0  0  0  0  0  0  0
  1  2  1  0
  3  4  2  0
  3  2  1  0
  6  5  1  1
  6  8  1  0
  7  6  1  0
  9  8  1  1
  9 10  1  0
 10  3  1  0
 11  9  1  0
 12 11  2  0
 13 14  1  0
 14 15  2  0
 15 16  1  0
 17 18  1  0
 17 16  2  0
 19 18  1  1
 19 21  1  0
 19 20  1  0
 20 11  1  0
 21 25  1  0
 22 21  2  0
 23 17  1  0
 24 23  2  0
 24 14  1  0
M  END
$$$$
