GLY.pdb
     RDKit          3D

 25 25  0  0  1  0  0  0  0  0999 V2000
   29.4741  -21.5307  -13.5905 N   0  0  0  0  0  0  0  0  0  0  0  0
   29.0113  -20.4405  -12.7744 C   0  0  0  0  0  0  0  0  0  0  0  0
   27.9702  -20.9754  -11.8203 C   0  0  0  0  0  0  0  0  0  0  0  0
   27.2835  -21.9638  -12.1604 O   0  0  0  0  0  0  0  0  0  0  0  0
   28.8807  -21.0932   -7.7536 C   0  0  0  0  0  0  0  0  0  0  0  0
   27.5020  -20.6795   -7.3546 C   0  0  1  0  0  0  0  0  0  0  0  0
   27.6254  -19.6681   -6.1841 C   0  0  0  0  0  0  0  0  0  0  0  0
   26.7907  -19.9211   -8.4324 C   0  0  0  0  0  0  0  0  0  0  0  0
   26.5860  -20.6445   -9.7428 C   0  0  2  0  0  0  0  0  0  0  0  0
   27.7660  -20.3819  -10.5678 N   0  0  0  0  0  0  0  0  0  0  0  0
   25.3738  -20.2134  -10.4091 C   0  0  0  0  0  0  0  0  0  0  0  0
   25.3326  -19.0122  -10.8492 O   0  0  0  0  0  0  0  0  0  0  0  0
   19.3621  -20.3365  -16.6642 O   0  0  0  0  0  0  0  0  0  0  0  0
   20.3283  -20.6070  -15.7009 C   0  0  0  0  0  0  0  0  0  0  0  0
   21.3907  -19.7278  -15.5401 C   0  0  0  0  0  0  0  0  0  0  0  0
   22.3591  -19.9746  -14.5932 C   0  0  0  0  0  0  0  0  0  0  0  0
   22.3154  -21.0926  -13.7738 C   0  0  0  0  0  0  0  0  0  0  0  0
   23.3650  -21.3232  -12.7791 C   0  0  0  0  0  0  0  0  0  0  0  0
   23.1939  -20.5000  -11.5070 C   0  0  2  0  0  0  0  0  0  0  0  0
   24.2495  -21.0067  -10.6150 N   0  0  0  0  0  0  0  0  0  0  0  0
   21.8850  -20.7404  -10.8843 C   0  0  0  0  0  0  0  0  0  0  0  0
   20.8894  -20.0904  -11.2692 O   0  0  0  0  0  0  0  0  0  0  0  0
   21.2651  -21.9725  -13.9246 C   0  0  0  0  0  0  0  0  0  0  0  0
   20.2913  -21.7157  -14.8833 C   0  0  0  0  0  0  0  0  0  0  0  0
   21.7394  -21.6696   -9.8856 O   0  0  0  0  0  0  0  0  0  0  0  0
  1  2  1  0
  3  4  2  0
  3  2  1  0
  6  5  1  6
  6  8  1  0
  7  6  1  0
  9  8  1  1
  9 10  1  0
 10  3  1  0
 11  9  1  0
 12 11  2  0
 13 14  1  0
 14 15  2  0
 15 16  1  0
 17 18  1  0
 17 16  2  0
 19 18  1  6
 19 21  1  0
 19 20  1  0
 20 11  1  0
 21 25  1  0
 22 21  2  0
 23 17  1  0
 24 23  2  0
 24 14  1  0
M  END
$$$$
