GLY.pdb
     RDKit          3D

 25 25  0  0  1  0  0  0  0  0999 V2000
   30.9214  -25.7570  -16.6731 N   0  0  0  0  0  0  0  0  0  0  0  0
   30.0634  -25.0715  -17.6020 C   0  0  0  0  0  0  0  0  0  0  0  0
   29.6625  -23.7520  -16.9870 C   0  0  0  0  0  0  0  0  0  0  0  0
   30.0688  -23.4670  -15.8390 O   0  0  0  0  0  0  0  0  0  0  0  0
   28.4864  -19.0319  -20.0587 C   0  0  0  0  0  0  0  0  0  0  0  0
   29.0315  -19.8843  -18.9598 C   0  0  1  0  0  0  0  0  0  0  0  0
   29.5645  -18.9454  -17.8450 C   0  0  0  0  0  0  0  0  0  0  0  0
   27.9755  -20.7050  -18.2860 C   0  0  0  0  0  0  0  0  0  0  0  0
   28.4260  -21.5627  -17.1268 C   0  0  2  0  0  0  0  0  0  0  0  0
   28.8468  -22.8497  -17.6822 N   0  0  0  0  0  0  0  0  0  0  0  0
   27.3732  -21.7338  -16.1461 C   0  0  0  0  0  0  0  0  0  0  0  0
   26.5895  -22.7364  -16.2843 O   0  0  0  0  0  0  0  0  0  0  0  0
   22.3206  -20.7104   -8.9343 O   0  0  0  0  0  0  0  0  0  0  0  0
   23.3275  -20.6379   -9.8912 C   0  0  0  0  0  0  0  0  0  0  0  0
   23.0848  -19.9659  -11.0816 C   0  0  0  0  0  0  0  0  0  0  0  0
   24.0661  -19.8810  -12.0435 C   0  0  0  0  0  0  0  0  0  0  0  0
   25.3171  -20.4531  -11.8674 C   0  0  0  0  0  0  0  0  0  0  0  0
   26.3353  -20.3443  -12.9141 C   0  0  0  0  0  0  0  0  0  0  0  0
   26.0806  -21.2525  -14.1122 C   0  0  2  0  0  0  0  0  0  0  0  0
   27.1500  -20.8955  -15.0584 N   0  0  0  0  0  0  0  0  0  0  0  0
   24.7789  -20.9702  -14.7323 C   0  0  0  0  0  0  0  0  0  0  0  0
   24.6688  -20.0133  -15.5286 O   0  0  0  0  0  0  0  0  0  0  0  0
   25.5692  -21.1229  -10.6892 C   0  0  0  0  0  0  0  0  0  0  0  0
   24.5726  -21.2039   -9.7230 C   0  0  0  0  0  0  0  0  0  0  0  0
   23.6811  -21.7429  -14.4500 O   0  0  0  0  0  0  0  0  0  0  0  0
  1  2  1  0
  3  4  2  0
  3  2  1  0
  6  5  1  6
  6  8  1  0
  7  6  1  0
  9  8  1  6
  9 10  1  0
 10  3  1  0
 11  9  1  0
 12 11  2  0
 13 14  1  0
 14 15  2  0
 15 16  1  0
 17 18  1  0
 17 16  2  0
 19 18  1  1
 19 21  1  0
 19 20  1  0
 20 11  1  0
 21 25  1  0
 22 21  2  0
 23 17  1  0
 24 23  2  0
 24 14  1  0
M  END
$$$$
