GLY.pdb
     RDKit          3D

 25 25  0  0  1  0  0  0  0  0999 V2000
   29.9571  -25.6888  -17.1627 N   0  0  0  0  0  0  0  0  0  0  0  0
   29.3971  -24.6769  -18.0178 C   0  0  0  0  0  0  0  0  0  0  0  0
   28.8093  -23.5946  -17.1441 C   0  0  0  0  0  0  0  0  0  0  0  0
   28.8204  -23.7418  -15.9022 O   0  0  0  0  0  0  0  0  0  0  0  0
   29.4411  -18.2659  -18.5353 C   0  0  0  0  0  0  0  0  0  0  0  0
   29.3388  -19.5399  -17.7623 C   0  0  1  0  0  0  0  0  0  0  0  0
   29.7119  -19.2361  -16.2869 C   0  0  0  0  0  0  0  0  0  0  0  0
   27.9378  -20.0648  -17.6946 C   0  0  0  0  0  0  0  0  0  0  0  0
   27.7307  -21.3323  -16.8990 C   0  0  2  0  0  0  0  0  0  0  0  0
   28.2556  -22.4360  -17.7042 N   0  0  0  0  0  0  0  0  0  0  0  0
   26.3339  -21.5384  -16.5738 C   0  0  0  0  0  0  0  0  0  0  0  0
   25.5473  -21.8831  -17.5230 O   0  0  0  0  0  0  0  0  0  0  0  0
   18.7220  -21.9409  -12.0131 O   0  0  0  0  0  0  0  0  0  0  0  0
   20.0502  -21.9310  -12.4262 C   0  0  0  0  0  0  0  0  0  0  0  0
   20.8244  -20.8022  -12.1937 C   0  0  0  0  0  0  0  0  0  0  0  0
   22.1414  -20.7691  -12.5935 C   0  0  0  0  0  0  0  0  0  0  0  0
   22.7404  -21.8433  -13.2343 C   0  0  0  0  0  0  0  0  0  0  0  0
   24.1434  -21.7708  -13.6471 C   0  0  0  0  0  0  0  0  0  0  0  0
   24.3308  -21.6099  -15.1519 C   0  0  2  0  0  0  0  0  0  0  0  0
   25.7792  -21.3974  -15.3057 N   0  0  0  0  0  0  0  0  0  0  0  0
   23.6175  -20.4294  -15.6582 C   0  0  0  0  0  0  0  0  0  0  0  0
   22.5053  -20.5699  -16.2107 O   0  0  0  0  0  0  0  0  0  0  0  0
   21.9811  -22.9694  -13.4703 C   0  0  0  0  0  0  0  0  0  0  0  0
   20.6518  -22.9945  -13.0633 C   0  0  0  0  0  0  0  0  0  0  0  0
   24.1549  -19.1735  -15.5328 O   0  0  0  0  0  0  0  0  0  0  0  0
  1  2  1  0
  3  4  2  0
  3  2  1  0
  6  5  1  6
  6  8  1  0
  7  6  1  0
  9  8  1  6
  9 10  1  0
 10  3  1  0
 11  9  1  0
 12 11  2  0
 13 14  1  0
 14 15  2  0
 15 16  1  0
 17 18  1  0
 17 16  2  0
 19 18  1  1
 19 21  1  0
 19 20  1  0
 20 11  1  0
 21 25  1  0
 22 21  2  0
 23 17  1  0
 24 23  2  0
 24 14  1  0
M  END
$$$$
