GLY.pdb
     RDKit          3D

 25 25  0  0  1  0  0  0  0  0999 V2000
   29.4466  -20.4434  -13.0030 N   0  0  0  0  0  0  0  0  0  0  0  0
   28.5189  -21.5215  -13.2174 C   0  0  0  0  0  0  0  0  0  0  0  0
   27.6157  -21.6124  -12.0107 C   0  0  0  0  0  0  0  0  0  0  0  0
   26.6221  -22.3710  -12.0500 O   0  0  0  0  0  0  0  0  0  0  0  0
   26.5758  -21.0950   -6.5885 C   0  0  0  0  0  0  0  0  0  0  0  0
   26.9247  -19.8525   -7.3408 C   0  0  1  0  0  0  0  0  0  0  0  0
   27.8817  -19.0100   -6.4560 C   0  0  0  0  0  0  0  0  0  0  0  0
   27.7110  -20.1307   -8.5845 C   0  0  0  0  0  0  0  0  0  0  0  0
   26.9806  -20.8434   -9.6984 C   0  0  2  0  0  0  0  0  0  0  0  0
   27.8756  -20.8626  -10.8563 N   0  0  0  0  0  0  0  0  0  0  0  0
   25.7249  -20.1944  -10.0169 C   0  0  0  0  0  0  0  0  0  0  0  0
   25.7682  -18.9774  -10.4112 O   0  0  0  0  0  0  0  0  0  0  0  0
   20.0877  -19.4905  -16.2700 O   0  0  0  0  0  0  0  0  0  0  0  0
   20.9869  -19.8228  -15.2622 C   0  0  0  0  0  0  0  0  0  0  0  0
   22.1215  -19.0435  -15.0813 C   0  0  0  0  0  0  0  0  0  0  0  0
   23.0257  -19.3529  -14.0903 C   0  0  0  0  0  0  0  0  0  0  0  0
   22.8448  -20.4374  -13.2451 C   0  0  0  0  0  0  0  0  0  0  0  0
   23.8294  -20.7371  -12.2036 C   0  0  0  0  0  0  0  0  0  0  0  0
   23.4009  -20.2909  -10.8099 C   0  0  2  0  0  0  0  0  0  0  0  0
   24.4719  -20.7934   -9.9342 N   0  0  0  0  0  0  0  0  0  0  0  0
   22.1291  -20.9119  -10.4152 C   0  0  0  0  0  0  0  0  0  0  0  0
   22.1365  -22.0177   -9.8328 O   0  0  0  0  0  0  0  0  0  0  0  0
   21.7217  -21.2184  -13.4156 C   0  0  0  0  0  0  0  0  0  0  0  0
   20.8136  -20.8988  -14.4189 C   0  0  0  0  0  0  0  0  0  0  0  0
   20.9322  -20.2947  -10.6764 O   0  0  0  0  0  0  0  0  0  0  0  0
  1  2  1  0
  3  4  2  0
  3  2  1  0
  6  5  1  1
  6  8  1  0
  7  6  1  0
  9  8  1  1
  9 10  1  0
 10  3  1  0
 11  9  1  0
 12 11  2  0
 13 14  1  0
 14 15  2  0
 15 16  1  0
 17 18  1  0
 17 16  2  0
 19 18  1  6
 19 21  1  0
 19 20  1  0
 20 11  1  0
 21 25  1  0
 22 21  2  0
 23 17  1  0
 24 23  2  0
 24 14  1  0
M  END
$$$$
