GLY.pdb
     RDKit          3D

 25 25  0  0  1  0  0  0  0  0999 V2000
   22.0286  -31.0229  -15.9376 N   0  0  0  0  0  0  0  0  0  0  0  0
   23.4184  -30.6680  -16.0450 C   0  0  0  0  0  0  0  0  0  0  0  0
   24.2430  -31.8679  -15.6448 C   0  0  0  0  0  0  0  0  0  0  0  0
   23.6679  -32.8683  -15.1623 O   0  0  0  0  0  0  0  0  0  0  0  0
   28.3493  -35.2081  -16.5598 C   0  0  0  0  0  0  0  0  0  0  0  0
   28.8004  -33.9363  -15.9192 C   0  0  1  0  0  0  0  0  0  0  0  0
   30.0685  -33.4467  -16.6678 C   0  0  0  0  0  0  0  0  0  0  0  0
   27.8130  -32.8228  -16.0856 C   0  0  0  0  0  0  0  0  0  0  0  0
   26.4816  -32.9933  -15.3922 C   0  0  2  0  0  0  0  0  0  0  0  0
   25.6346  -31.8739  -15.8065 N   0  0  0  0  0  0  0  0  0  0  0  0
   26.6292  -33.0340  -13.9514 C   0  0  0  0  0  0  0  0  0  0  0  0
   26.9588  -31.9494  -13.3569 O   0  0  0  0  0  0  0  0  0  0  0  0
   24.7657  -32.8933   -5.6477 O   0  0  0  0  0  0  0  0  0  0  0  0
   24.9007  -32.9958   -7.0283 C   0  0  0  0  0  0  0  0  0  0  0  0
   25.7228  -32.0996   -7.6978 C   0  0  0  0  0  0  0  0  0  0  0  0
   25.8721  -32.1815   -9.0640 C   0  0  0  0  0  0  0  0  0  0  0  0
   25.2190  -33.1461   -9.8165 C   0  0  0  0  0  0  0  0  0  0  0  0
   25.4003  -33.2009  -11.2684 C   0  0  0  0  0  0  0  0  0  0  0  0
   26.6057  -34.0272  -11.7037 C   0  0  2  0  0  0  0  0  0  0  0  0
   26.4339  -34.1610  -13.1594 N   0  0  0  0  0  0  0  0  0  0  0  0
   26.5877  -35.3642  -11.0948 C   0  0  0  0  0  0  0  0  0  0  0  0
   25.9109  -36.2734  -11.6213 O   0  0  0  0  0  0  0  0  0  0  0  0
   24.4000  -34.0413   -9.1622 C   0  0  0  0  0  0  0  0  0  0  0  0
   24.2549  -33.9516   -7.7822 C   0  0  0  0  0  0  0  0  0  0  0  0
   27.3043  -35.6298   -9.9555 O   0  0  0  0  0  0  0  0  0  0  0  0
  1  2  1  0
  3  4  2  0
  3  2  1  0
  6  5  1  6
  6  8  1  0
  7  6  1  0
  9  8  1  6
  9 10  1  0
 10  3  1  0
 11  9  1  0
 12 11  2  0
 13 14  1  0
 14 15  2  0
 15 16  1  0
 17 18  1  0
 17 16  2  0
 19 18  1  1
 19 21  1  0
 19 20  1  0
 20 11  1  0
 21 25  1  0
 22 21  2  0
 23 17  1  0
 24 23  2  0
 24 14  1  0
M  END
$$$$
