GLY.pdb
     RDKit          3D

 25 25  0  0  1  0  0  0  0  0999 V2000
   31.1141  -22.3812  -10.6081 N   0  0  0  0  0  0  0  0  0  0  0  0
   30.6179  -21.0983  -10.1876 C   0  0  0  0  0  0  0  0  0  0  0  0
   29.2694  -21.3042   -9.5402 C   0  0  0  0  0  0  0  0  0  0  0  0
   28.5772  -22.2904   -9.8758 O   0  0  0  0  0  0  0  0  0  0  0  0
   28.4608  -18.7603   -4.6977 C   0  0  0  0  0  0  0  0  0  0  0  0
   28.4780  -19.8002   -5.7698 C   0  0  1  0  0  0  0  0  0  0  0  0
   28.1243  -21.1642   -5.1197 C   0  0  0  0  0  0  0  0  0  0  0  0
   27.4116  -19.5875   -6.7994 C   0  0  0  0  0  0  0  0  0  0  0  0
   27.4442  -20.5011   -8.0022 C   0  0  2  0  0  0  0  0  0  0  0  0
   28.7879  -20.4101   -8.5751 N   0  0  0  0  0  0  0  0  0  0  0  0
   26.4335  -20.1412   -8.9760 C   0  0  0  0  0  0  0  0  0  0  0  0
   26.5538  -19.0127   -9.5679 O   0  0  0  0  0  0  0  0  0  0  0  0
   21.5894  -20.7411  -16.1678 O   0  0  0  0  0  0  0  0  0  0  0  0
   22.4164  -20.8458  -15.0544 C   0  0  0  0  0  0  0  0  0  0  0  0
   22.4684  -22.0460  -14.3584 C   0  0  0  0  0  0  0  0  0  0  0  0
   23.2796  -22.1733  -13.2534 C   0  0  0  0  0  0  0  0  0  0  0  0
   24.0657  -21.1262  -12.7963 C   0  0  0  0  0  0  0  0  0  0  0  0
   24.9145  -21.2981  -11.6155 C   0  0  0  0  0  0  0  0  0  0  0  0
   24.4692  -20.4688  -10.4159 C   0  0  2  0  0  0  0  0  0  0  0  0
   25.3424  -20.9308   -9.3247 N   0  0  0  0  0  0  0  0  0  0  0  0
   23.0710  -20.7474  -10.0605 C   0  0  0  0  0  0  0  0  0  0  0  0
   22.1504  -20.1660  -10.6740 O   0  0  0  0  0  0  0  0  0  0  0  0
   24.0219  -19.9298  -13.4794 C   0  0  0  0  0  0  0  0  0  0  0  0
   23.2000  -19.8097  -14.5945 C   0  0  0  0  0  0  0  0  0  0  0  0
   22.7608  -21.6378   -9.0641 O   0  0  0  0  0  0  0  0  0  0  0  0
  1  2  1  0
  3  4  2  0
  3  2  1  0
  6  5  1  1
  6  8  1  0
  7  6  1  0
  9  8  1  1
  9 10  1  0
 10  3  1  0
 11  9  1  0
 12 11  2  0
 13 14  1  0
 14 15  2  0
 15 16  1  0
 17 18  1  0
 17 16  2  0
 19 18  1  6
 19 21  1  0
 19 20  1  0
 20 11  1  0
 21 25  1  0
 22 21  2  0
 23 17  1  0
 24 23  2  0
 24 14  1  0
M  END
$$$$
