GLY.pdb
     RDKit          3D

 25 25  0  0  1  0  0  0  0  0999 V2000
   29.5826  -22.8861  -16.9068 N   0  0  0  0  0  0  0  0  0  0  0  0
   28.5023  -22.1953  -17.5584 C   0  0  0  0  0  0  0  0  0  0  0  0
   27.6781  -21.5042  -16.4985 C   0  0  0  0  0  0  0  0  0  0  0  0
   27.7895  -21.8684  -15.3072 O   0  0  0  0  0  0  0  0  0  0  0  0
   26.8166  -16.0724  -16.8189 C   0  0  0  0  0  0  0  0  0  0  0  0
   27.0755  -17.4542  -16.3142 C   0  0  1  0  0  0  0  0  0  0  0  0
   27.4370  -17.3540  -14.8083 C   0  0  0  0  0  0  0  0  0  0  0  0
   25.8552  -18.3215  -16.3501 C   0  0  0  0  0  0  0  0  0  0  0  0
   26.0159  -19.7326  -15.8352 C   0  0  2  0  0  0  0  0  0  0  0  0
   26.7965  -20.4677  -16.8314 N   0  0  0  0  0  0  0  0  0  0  0  0
   24.7343  -20.3667  -15.6011 C   0  0  0  0  0  0  0  0  0  0  0  0
   24.0957  -20.8094  -16.6183 O   0  0  0  0  0  0  0  0  0  0  0  0
   25.9076  -20.6750   -8.6672 O   0  0  0  0  0  0  0  0  0  0  0  0
   25.1730  -21.0666   -9.7815 C   0  0  0  0  0  0  0  0  0  0  0  0
   25.8284  -21.6609  -10.8514 C   0  0  0  0  0  0  0  0  0  0  0  0
   25.1223  -22.0568  -11.9650 C   0  0  0  0  0  0  0  0  0  0  0  0
   23.7501  -21.8819  -12.0638 C   0  0  0  0  0  0  0  0  0  0  0  0
   23.0331  -22.3136  -13.2653 C   0  0  0  0  0  0  0  0  0  0  0  0
   22.8313  -21.2023  -14.2897 C   0  0  2  0  0  0  0  0  0  0  0  0
   24.1438  -20.5391  -14.3532 N   0  0  0  0  0  0  0  0  0  0  0  0
   21.8259  -20.2313  -13.8369 C   0  0  0  0  0  0  0  0  0  0  0  0
   20.6224  -20.5650  -13.7897 O   0  0  0  0  0  0  0  0  0  0  0  0
   23.0889  -21.2928  -11.0074 C   0  0  0  0  0  0  0  0  0  0  0  0
   23.8096  -20.8959   -9.8865 C   0  0  0  0  0  0  0  0  0  0  0  0
   22.1893  -18.9621  -13.4640 O   0  0  0  0  0  0  0  0  0  0  0  0
  1  2  1  0
  3  4  2  0
  3  2  1  0
  6  5  1  1
  6  8  1  0
  7  6  1  0
  9  8  1  6
  9 10  1  0
 10  3  1  0
 11  9  1  0
 12 11  2  0
 13 14  1  0
 14 15  2  0
 15 16  1  0
 17 18  1  0
 17 16  2  0
 19 18  1  1
 19 21  1  0
 19 20  1  0
 20 11  1  0
 21 25  1  0
 22 21  2  0
 23 17  1  0
 24 23  2  0
 24 14  1  0
M  END
$$$$
