GLY.pdb
     RDKit          3D

 25 25  0  0  1  0  0  0  0  0999 V2000
   26.4557  -16.5461  -19.1040 N   0  0  0  0  0  0  0  0  0  0  0  0
   27.2037  -17.2615  -18.1052 C   0  0  0  0  0  0  0  0  0  0  0  0
   26.4214  -18.4959  -17.7254 C   0  0  0  0  0  0  0  0  0  0  0  0
   25.3351  -18.7289  -18.3000 O   0  0  0  0  0  0  0  0  0  0  0  0
   29.3202  -22.8411  -15.9410 C   0  0  0  0  0  0  0  0  0  0  0  0
   28.2931  -22.0278  -16.6584 C   0  0  1  0  0  0  0  0  0  0  0  0
   27.5606  -22.9582  -17.6616 C   0  0  0  0  0  0  0  0  0  0  0  0
   27.2115  -21.5298  -15.7502 C   0  0  0  0  0  0  0  0  0  0  0  0
   26.1896  -20.6021  -16.3646 C   0  0  2  0  0  0  0  0  0  0  0  0
   26.8944  -19.3768  -16.7442 N   0  0  0  0  0  0  0  0  0  0  0  0
   25.1031  -20.3198  -15.4485 C   0  0  0  0  0  0  0  0  0  0  0  0
   25.3977  -19.7820  -14.3250 O   0  0  0  0  0  0  0  0  0  0  0  0
   17.6701  -16.8937  -12.5190 O   0  0  0  0  0  0  0  0  0  0  0  0
   18.8009  -17.3551  -13.1848 C   0  0  0  0  0  0  0  0  0  0  0  0
   18.6624  -18.3364  -14.1571 C   0  0  0  0  0  0  0  0  0  0  0  0
   19.7671  -18.8086  -14.8294 C   0  0  0  0  0  0  0  0  0  0  0  0
   21.0432  -18.3324  -14.5686 C   0  0  0  0  0  0  0  0  0  0  0  0
   22.1950  -18.8605  -15.3024 C   0  0  0  0  0  0  0  0  0  0  0  0
   22.7685  -20.1397  -14.7025 C   0  0  2  0  0  0  0  0  0  0  0  0
   23.7595  -20.5817  -15.6971 N   0  0  0  0  0  0  0  0  0  0  0  0
   21.7364  -21.1760  -14.5622 C   0  0  0  0  0  0  0  0  0  0  0  0
   21.4910  -21.9371  -15.5226 O   0  0  0  0  0  0  0  0  0  0  0  0
   21.1926  -17.3580  -13.6051 C   0  0  0  0  0  0  0  0  0  0  0  0
   20.0717  -16.8866  -12.9309 C   0  0  0  0  0  0  0  0  0  0  0  0
   21.0376  -21.3209  -13.3906 O   0  0  0  0  0  0  0  0  0  0  0  0
  1  2  1  0
  3  4  2  0
  3  2  1  0
  6  5  1  1
  6  8  1  0
  7  6  1  0
  9  8  1  1
  9 10  1  0
 10  3  1  0
 11  9  1  0
 12 11  2  0
 13 14  1  0
 14 15  2  0
 15 16  1  0
 17 18  1  0
 17 16  2  0
 19 18  1  6
 19 21  1  0
 19 20  1  0
 20 11  1  0
 21 25  1  0
 22 21  2  0
 23 17  1  0
 24 23  2  0
 24 14  1  0
M  END
$$$$
