HNF.pdb
     RDKit          3D

 30 31  0  0  1  0  0  0  0  0999 V2000
    9.4281  -15.4662   19.9173 N   0  0  0  0  0  0  0  0  0  0  0  0
    8.4589  -14.7010   20.6825 C   0  0  1  0  0  0  0  0  0  0  0  0
    7.2219  -14.5746   19.8114 C   0  0  0  0  0  0  0  0  0  0  0  0
    7.5124  -14.1336   18.4453 C   0  0  0  0  0  0  0  0  0  0  0  0
    7.9804  -12.8855   18.0672 C   0  0  0  0  0  0  0  0  0  0  0  0
    8.1201  -12.8297   16.7316 N   0  0  0  0  0  0  0  0  0  0  0  0
    7.7437  -14.0305   16.2790 C   0  0  0  0  0  0  0  0  0  0  0  0
    7.3746  -14.8282   17.2977 N   0  0  0  0  0  0  0  0  0  0  0  0
    8.1653  -15.4672   21.9206 C   0  0  0  0  0  0  0  0  0  0  0  0
    7.1948  -15.2044   22.6921 O   0  0  0  0  0  0  0  0  0  0  0  0
   10.9903  -18.9200   21.7564 N   0  0  0  0  0  0  0  0  0  0  0  0
   10.5636  -18.8563   23.1017 C   0  0  0  0  0  0  0  0  0  0  0  0
   11.4092  -18.8611   24.0107 O   0  0  0  0  0  0  0  0  0  0  0  0
    9.1202  -18.7844   23.4013 C   0  0  0  0  0  0  0  0  0  0  0  0
    8.7040  -17.3411   23.5064 C   0  0  2  0  0  0  0  0  0  0  0  0
    8.9645  -16.5710   22.3402 N   0  0  0  0  0  0  0  0  0  0  0  0
    9.2489  -16.7282   24.7470 C   0  0  0  0  0  0  0  0  0  0  0  0
   10.3350  -16.0627   24.6343 O   0  0  0  0  0  0  0  0  0  0  0  0
    8.6507  -16.8374   26.0052 N   0  0  0  0  0  0  0  0  0  0  0  0
    9.2447  -16.1886   27.1550 C   0  0  1  0  0  0  0  0  0  0  0  0
    8.2275  -15.3106   27.8634 C   0  0  0  0  0  0  0  0  0  0  0  0
    7.7748  -14.1606   27.0689 C   0  0  0  0  0  0  0  0  0  0  0  0
    8.4712  -12.9485   27.0464 C   0  0  0  0  0  0  0  0  0  0  0  0
    8.0489  -11.8808   26.2902 C   0  0  0  0  0  0  0  0  0  0  0  0
    6.9140  -11.9660   25.5197 C   0  0  0  0  0  0  0  0  0  0  0  0
    6.2095  -13.1479   25.5240 C   0  0  0  0  0  0  0  0  0  0  0  0
    6.6400  -14.2120   26.2841 C   0  0  0  0  0  0  0  0  0  0  0  0
    9.9434  -17.1248   28.0371 C   0  0  0  0  0  0  0  0  0  0  0  0
    9.8132  -18.3544   27.8579 O   0  0  0  0  0  0  0  0  0  0  0  0
   10.7609  -16.7199   29.0844 O   0  0  0  0  0  0  0  0  0  0  0  0
  2  1  1  6
  2  3  1  0
  4  3  1  0
  4  8  1  0
  5  6  1  0
  5  4  2  0
  6  7  1  0
  7  8  2  0
  9 10  2  0
  9  2  1  0
 11 12  1  0
 12 14  1  0
 13 12  2  0
 15 14  1  6
 15 16  1  0
 16  9  1  0
 17 19  1  0
 17 15  1  0
 18 17  2  0
 20 19  1  0
 20 28  1  0
 20 21  1  1
 22 23  2  0
 22 21  1  0
 24 23  1  0
 25 24  2  0
 26 25  1  0
 26 27  2  0
 27 22  1  0
 28 30  1  0
 29 28  2  0
M  END
$$$$
