HNF.pdb
     RDKit          3D

 30 31  0  0  1  0  0  0  0  0999 V2000
    8.8291  -16.6196   19.8467 N   0  0  0  0  0  0  0  0  0  0  0  0
    8.8132  -15.5581   20.8383 C   0  0  1  0  0  0  0  0  0  0  0  0
    7.5891  -14.7094   20.5446 C   0  0  0  0  0  0  0  0  0  0  0  0
    7.6666  -13.9950   19.2684 C   0  0  0  0  0  0  0  0  0  0  0  0
    8.1586  -12.7147   19.0725 C   0  0  0  0  0  0  0  0  0  0  0  0
    8.0627  -12.3764   17.7752 N   0  0  0  0  0  0  0  0  0  0  0  0
    7.5166  -13.4343   17.1660 C   0  0  0  0  0  0  0  0  0  0  0  0
    7.2716  -14.4182   18.0504 N   0  0  0  0  0  0  0  0  0  0  0  0
    8.7115  -16.1994   22.1742 C   0  0  0  0  0  0  0  0  0  0  0  0
    7.7646  -16.9727   22.5086 O   0  0  0  0  0  0  0  0  0  0  0  0
   12.1058  -19.2614   25.7682 N   0  0  0  0  0  0  0  0  0  0  0  0
   10.8546  -18.8779   25.2359 C   0  0  0  0  0  0  0  0  0  0  0  0
    9.8122  -19.2811   25.7765 O   0  0  0  0  0  0  0  0  0  0  0  0
   10.8101  -18.0042   24.0472 C   0  0  0  0  0  0  0  0  0  0  0  0
    9.8685  -16.8579   24.3059 C   0  0  2  0  0  0  0  0  0  0  0  0
    9.6846  -15.9900   23.1952 N   0  0  0  0  0  0  0  0  0  0  0  0
   10.2465  -16.1413   25.5531 C   0  0  0  0  0  0  0  0  0  0  0  0
   11.2977  -15.4147   25.5064 O   0  0  0  0  0  0  0  0  0  0  0  0
    9.5296  -16.2167   26.7503 N   0  0  0  0  0  0  0  0  0  0  0  0
    9.9768  -15.4848   27.9165 C   0  0  1  0  0  0  0  0  0  0  0  0
    8.8900  -14.5470   28.4135 C   0  0  0  0  0  0  0  0  0  0  0  0
    8.2823  -13.7247   27.3584 C   0  0  0  0  0  0  0  0  0  0  0  0
    7.1027  -14.0982   26.7074 C   0  0  0  0  0  0  0  0  0  0  0  0
    6.5326  -13.3171   25.7301 C   0  0  0  0  0  0  0  0  0  0  0  0
    7.1070  -12.1270   25.3525 C   0  0  0  0  0  0  0  0  0  0  0  0
    8.2689  -11.7361   25.9773 C   0  0  0  0  0  0  0  0  0  0  0  0
    8.8326  -12.5244   26.9552 C   0  0  0  0  0  0  0  0  0  0  0  0
   10.5355  -16.3546   28.9529 C   0  0  0  0  0  0  0  0  0  0  0  0
   10.4508  -17.5949   28.8281 O   0  0  0  0  0  0  0  0  0  0  0  0
   11.1684  -15.8738   30.0919 O   0  0  0  0  0  0  0  0  0  0  0  0
  2  1  1  6
  2  3  1  0
  4  3  1  0
  4  8  1  0
  5  6  1  0
  5  4  2  0
  6  7  1  0
  7  8  2  0
  9 10  2  0
  9  2  1  0
 11 12  1  0
 12 14  1  0
 13 12  2  0
 15 14  1  6
 15 16  1  0
 16  9  1  0
 17 19  1  0
 17 15  1  0
 18 17  2  0
 20 19  1  0
 20 28  1  0
 20 21  1  1
 22 23  2  0
 22 21  1  0
 24 23  1  0
 25 24  2  0
 26 25  1  0
 26 27  2  0
 27 22  1  0
 28 30  1  0
 29 28  2  0
M  END
$$$$
