HNF.pdb
     RDKit          3D

 30 31  0  0  1  0  0  0  0  0999 V2000
    9.4679  -16.5541   20.1744 N   0  0  0  0  0  0  0  0  0  0  0  0
    9.2129  -15.7103   21.3291 C   0  0  1  0  0  0  0  0  0  0  0  0
    7.8764  -15.0332   21.0838 C   0  0  0  0  0  0  0  0  0  0  0  0
    7.8457  -14.2276   19.8610 C   0  0  0  0  0  0  0  0  0  0  0  0
    8.5829  -13.0807   19.6144 C   0  0  0  0  0  0  0  0  0  0  0  0
    8.2911  -12.5975   18.3946 N   0  0  0  0  0  0  0  0  0  0  0  0
    7.3811  -13.4335   17.8835 C   0  0  0  0  0  0  0  0  0  0  0  0
    7.1012  -14.4211   18.7534 N   0  0  0  0  0  0  0  0  0  0  0  0
    9.1539  -16.5944   22.5212 C   0  0  0  0  0  0  0  0  0  0  0  0
    8.5905  -17.7296   22.5229 O   0  0  0  0  0  0  0  0  0  0  0  0
   13.2665  -19.1047   25.1840 N   0  0  0  0  0  0  0  0  0  0  0  0
   11.8655  -19.0126   25.0273 C   0  0  0  0  0  0  0  0  0  0  0  0
   11.1245  -19.6987   25.7495 O   0  0  0  0  0  0  0  0  0  0  0  0
   11.3088  -18.1017   24.0082 C   0  0  0  0  0  0  0  0  0  0  0  0
   10.3441  -17.1496   24.6640 C   0  0  2  0  0  0  0  0  0  0  0  0
    9.7344  -16.2270   23.7707 N   0  0  0  0  0  0  0  0  0  0  0  0
   10.9735  -16.4956   25.8421 C   0  0  0  0  0  0  0  0  0  0  0  0
   12.0281  -17.0443   26.3132 O   0  0  0  0  0  0  0  0  0  0  0  0
   10.4853  -15.3363   26.4509 N   0  0  0  0  0  0  0  0  0  0  0  0
    9.8489  -15.4060   27.7494 C   0  0  1  0  0  0  0  0  0  0  0  0
    8.3390  -15.3088   27.6153 C   0  0  0  0  0  0  0  0  0  0  0  0
    7.8690  -14.0280   27.0698 C   0  0  0  0  0  0  0  0  0  0  0  0
    8.6814  -12.8909   27.0296 C   0  0  0  0  0  0  0  0  0  0  0  0
    8.2393  -11.6992   26.5056 C   0  0  0  0  0  0  0  0  0  0  0  0
    6.9684  -11.5799   25.9961 C   0  0  0  0  0  0  0  0  0  0  0  0
    6.1480  -12.6841   26.0238 C   0  0  0  0  0  0  0  0  0  0  0  0
    6.5993  -13.8735   26.5502 C   0  0  0  0  0  0  0  0  0  0  0  0
   10.3061  -16.5465   28.5451 C   0  0  0  0  0  0  0  0  0  0  0  0
   10.8080  -16.3500   29.6723 O   0  0  0  0  0  0  0  0  0  0  0  0
   10.2135  -17.8633   28.1132 O   0  0  0  0  0  0  0  0  0  0  0  0
  2  1  1  6
  2  3  1  0
  4  3  1  0
  4  8  1  0
  5  6  1  0
  5  4  2  0
  6  7  1  0
  7  8  2  0
  9 10  2  0
  9  2  1  0
 11 12  1  0
 12 14  1  0
 13 12  2  0
 15 14  1  6
 15 16  1  0
 16  9  1  0
 17 19  1  0
 17 15  1  0
 18 17  2  0
 20 19  1  0
 20 28  1  0
 20 21  1  6
 22 23  2  0
 22 21  1  0
 24 23  1  0
 25 24  2  0
 26 25  1  0
 26 27  2  0
 27 22  1  0
 28 30  1  0
 29 28  2  0
M  END
$$$$
