HNF.pdb
     RDKit          3D

 30 31  0  0  1  0  0  0  0  0999 V2000
   11.2394  -15.7694   18.3351 N   0  0  0  0  0  0  0  0  0  0  0  0
   11.8722  -14.7670   19.1748 C   0  0  1  0  0  0  0  0  0  0  0  0
   12.7355  -13.9175   18.2593 C   0  0  0  0  0  0  0  0  0  0  0  0
   14.1514  -14.2914   18.2792 C   0  0  0  0  0  0  0  0  0  0  0  0
   14.6702  -15.5243   18.6404 C   0  0  0  0  0  0  0  0  0  0  0  0
   16.0114  -15.5044   18.5535 N   0  0  0  0  0  0  0  0  0  0  0  0
   16.3281  -14.2720   18.1420 C   0  0  0  0  0  0  0  0  0  0  0  0
   15.2199  -13.5282   17.9718 N   0  0  0  0  0  0  0  0  0  0  0  0
   10.7907  -13.9579   19.7928 C   0  0  0  0  0  0  0  0  0  0  0  0
   10.2452  -12.9667   19.2216 O   0  0  0  0  0  0  0  0  0  0  0  0
    7.9835  -12.4833   19.4565 N   0  0  0  0  0  0  0  0  0  0  0  0
    7.8212  -13.8753   19.2783 C   0  0  0  0  0  0  0  0  0  0  0  0
    7.5575  -14.3192   18.1492 O   0  0  0  0  0  0  0  0  0  0  0  0
    7.9690  -14.7762   20.4380 C   0  0  0  0  0  0  0  0  0  0  0  0
    8.9023  -14.1501   21.4401 C   0  0  2  0  0  0  0  0  0  0  0  0
   10.2781  -14.2392   21.0932 N   0  0  0  0  0  0  0  0  0  0  0  0
    8.6101  -14.6489   22.8104 C   0  0  0  0  0  0  0  0  0  0  0  0
    7.3782  -14.7723   23.1303 O   0  0  0  0  0  0  0  0  0  0  0  0
    9.5891  -14.9838   23.7497 N   0  0  0  0  0  0  0  0  0  0  0  0
    9.2088  -15.4304   25.0732 C   0  0  1  0  0  0  0  0  0  0  0  0
    7.7187  -15.2405   25.2984 C   0  0  0  0  0  0  0  0  0  0  0  0
    7.3598  -13.9233   25.8416 C   0  0  0  0  0  0  0  0  0  0  0  0
    8.3136  -13.0503   26.3735 C   0  0  0  0  0  0  0  0  0  0  0  0
    7.9723  -11.8138   26.8682 C   0  0  0  0  0  0  0  0  0  0  0  0
    6.6666  -11.3848   26.8580 C   0  0  0  0  0  0  0  0  0  0  0  0
    5.7078  -12.2249   26.3402 C   0  0  0  0  0  0  0  0  0  0  0  0
    6.0588  -13.4613   25.8467 C   0  0  0  0  0  0  0  0  0  0  0  0
    9.6924  -16.7780   25.3784 C   0  0  0  0  0  0  0  0  0  0  0  0
   10.2301  -17.4582   24.4789 O   0  0  0  0  0  0  0  0  0  0  0  0
    9.5875  -17.3590   26.6356 O   0  0  0  0  0  0  0  0  0  0  0  0
  2  1  1  6
  2  3  1  0
  4  3  1  0
  4  8  1  0
  5  6  1  0
  5  4  2  0
  6  7  1  0
  7  8  2  0
  9 10  2  0
  9  2  1  0
 11 12  1  0
 12 14  1  0
 13 12  2  0
 15 14  1  6
 15 16  1  0
 16  9  1  0
 17 19  1  0
 17 15  1  0
 18 17  2  0
 20 19  1  0
 20 28  1  0
 20 21  1  6
 22 23  2  0
 22 21  1  0
 24 23  1  0
 25 24  2  0
 26 25  1  0
 26 27  2  0
 27 22  1  0
 28 30  1  0
 29 28  2  0
M  END
$$$$
