HNF.pdb
     RDKit          3D

 30 31  0  0  1  0  0  0  0  0999 V2000
    5.8388  -16.4716   20.6865 N   0  0  0  0  0  0  0  0  0  0  0  0
    7.0374  -16.1222   21.4291 C   0  0  1  0  0  0  0  0  0  0  0  0
    7.1147  -14.6060   21.4380 C   0  0  0  0  0  0  0  0  0  0  0  0
    7.6176  -14.0396   20.1844 C   0  0  0  0  0  0  0  0  0  0  0  0
    7.9856  -14.7484   19.0523 C   0  0  0  0  0  0  0  0  0  0  0  0
    8.4129  -13.9044   18.0975 N   0  0  0  0  0  0  0  0  0  0  0  0
    8.3130  -12.6804   18.6269 C   0  0  0  0  0  0  0  0  0  0  0  0
    7.8357  -12.7434   19.8832 N   0  0  0  0  0  0  0  0  0  0  0  0
    6.8795  -16.6579   22.8054 C   0  0  0  0  0  0  0  0  0  0  0  0
    5.8648  -16.4338   23.5310 O   0  0  0  0  0  0  0  0  0  0  0  0
    5.8350  -20.3470   24.3685 N   0  0  0  0  0  0  0  0  0  0  0  0
    7.1949  -20.1586   24.0352 C   0  0  0  0  0  0  0  0  0  0  0  0
    7.6362  -20.6384   22.9785 O   0  0  0  0  0  0  0  0  0  0  0  0
    8.0657  -19.3940   24.9492 C   0  0  0  0  0  0  0  0  0  0  0  0
    7.8054  -17.9217   24.7706 C   0  0  2  0  0  0  0  0  0  0  0  0
    7.8714  -17.4754   23.4225 N   0  0  0  0  0  0  0  0  0  0  0  0
    8.6556  -17.1241   25.6941 C   0  0  0  0  0  0  0  0  0  0  0  0
    9.8492  -16.8734   25.3098 O   0  0  0  0  0  0  0  0  0  0  0  0
    8.2299  -16.6425   26.9350 N   0  0  0  0  0  0  0  0  0  0  0  0
    9.1579  -15.9578   27.8100 C   0  0  1  0  0  0  0  0  0  0  0  0
    8.5421  -14.6807   28.3552 C   0  0  0  0  0  0  0  0  0  0  0  0
    8.1280  -13.7268   27.3173 C   0  0  0  0  0  0  0  0  0  0  0  0
    6.7834  -13.4628   27.0399 C   0  0  0  0  0  0  0  0  0  0  0  0
    6.4034  -12.5590   26.0761 C   0  0  0  0  0  0  0  0  0  0  0  0
    7.3412  -11.8737   25.3414 C   0  0  0  0  0  0  0  0  0  0  0  0
    8.6720  -12.1151   25.5943 C   0  0  0  0  0  0  0  0  0  0  0  0
    9.0434  -13.0217   26.5616 C   0  0  0  0  0  0  0  0  0  0  0  0
    9.7223  -16.8350   28.8370 C   0  0  0  0  0  0  0  0  0  0  0  0
   10.5829  -16.3877   29.6246 O   0  0  0  0  0  0  0  0  0  0  0  0
    9.3506  -18.1642   28.9924 O   0  0  0  0  0  0  0  0  0  0  0  0
  2  1  1  6
  2  3  1  0
  4  3  1  0
  4  8  1  0
  5  6  1  0
  5  4  2  0
  6  7  1  0
  7  8  2  0
  9 10  2  0
  9  2  1  0
 11 12  1  0
 12 14  1  0
 13 12  2  0
 15 14  1  6
 15 16  1  0
 16  9  1  0
 17 19  1  0
 17 15  1  0
 18 17  2  0
 20 19  1  0
 20 28  1  0
 20 21  1  1
 22 23  2  0
 22 21  1  0
 24 23  1  0
 25 24  2  0
 26 25  1  0
 26 27  2  0
 27 22  1  0
 28 30  1  0
 29 28  2  0
M  END
$$$$
