HNF.pdb
     RDKit          3D

 30 31  0  0  1  0  0  0  0  0999 V2000
    8.2482  -16.9453   19.3540 N   0  0  0  0  0  0  0  0  0  0  0  0
    8.0652  -15.8344   20.2720 C   0  0  1  0  0  0  0  0  0  0  0  0
    7.0407  -14.9116   19.6365 C   0  0  0  0  0  0  0  0  0  0  0  0
    7.5526  -14.1842   18.4729 C   0  0  0  0  0  0  0  0  0  0  0  0
    7.0428  -14.2313   17.1854 C   0  0  0  0  0  0  0  0  0  0  0  0
    7.7709  -13.4479   16.3714 N   0  0  0  0  0  0  0  0  0  0  0  0
    8.7260  -12.9162   17.1416 C   0  0  0  0  0  0  0  0  0  0  0  0
    8.6094  -13.3489   18.4103 N   0  0  0  0  0  0  0  0  0  0  0  0
    7.5598  -16.3941   21.5517 C   0  0  0  0  0  0  0  0  0  0  0  0
    6.6509  -17.2747   21.6195 O   0  0  0  0  0  0  0  0  0  0  0  0
    5.5532  -19.0374   23.9693 N   0  0  0  0  0  0  0  0  0  0  0  0
    6.6821  -18.6785   24.7392 C   0  0  0  0  0  0  0  0  0  0  0  0
    6.6700  -18.8703   25.9657 O   0  0  0  0  0  0  0  0  0  0  0  0
    7.8553  -18.0827   24.0706 C   0  0  0  0  0  0  0  0  0  0  0  0
    7.7116  -16.5839   24.0532 C   0  0  2  0  0  0  0  0  0  0  0  0
    8.0660  -15.9767   22.8177 N   0  0  0  0  0  0  0  0  0  0  0  0
    8.4021  -15.9783   25.2230 C   0  0  0  0  0  0  0  0  0  0  0  0
    8.3971  -14.7019   25.3001 O   0  0  0  0  0  0  0  0  0  0  0  0
    9.0437  -16.7134   26.2234 N   0  0  0  0  0  0  0  0  0  0  0  0
    9.4213  -16.0779   27.4681 C   0  0  1  0  0  0  0  0  0  0  0  0
    8.2153  -15.4378   28.1338 C   0  0  0  0  0  0  0  0  0  0  0  0
    7.8074  -14.1617   27.5305 C   0  0  0  0  0  0  0  0  0  0  0  0
    6.5343  -13.9666   26.9864 C   0  0  0  0  0  0  0  0  0  0  0  0
    6.1551  -12.7655   26.4353 C   0  0  0  0  0  0  0  0  0  0  0  0
    7.0225  -11.7001   26.3982 C   0  0  0  0  0  0  0  0  0  0  0  0
    8.2820  -11.8655   26.9268 C   0  0  0  0  0  0  0  0  0  0  0  0
    8.6532  -13.0718   27.4770 C   0  0  0  0  0  0  0  0  0  0  0  0
   10.1898  -16.9617   28.3464 C   0  0  0  0  0  0  0  0  0  0  0  0
   10.6718  -16.5097   29.4067 O   0  0  0  0  0  0  0  0  0  0  0  0
   10.4205  -18.3023   28.0660 O   0  0  0  0  0  0  0  0  0  0  0  0
  2  1  1  6
  2  3  1  0
  4  3  1  0
  4  8  1  0
  5  6  1  0
  5  4  2  0
  6  7  1  0
  7  8  2  0
  9 10  2  0
  9  2  1  0
 11 12  1  0
 12 14  1  0
 13 12  2  0
 15 14  1  6
 15 16  1  0
 16  9  1  0
 17 19  1  0
 17 15  1  0
 18 17  2  0
 20 19  1  0
 20 28  1  0
 20 21  1  1
 22 23  2  0
 22 21  1  0
 24 23  1  0
 25 24  2  0
 26 25  1  0
 26 27  2  0
 27 22  1  0
 28 30  1  0
 29 28  2  0
M  END
$$$$
