HNF.pdb
     RDKit          3D

 30 31  0  0  1  0  0  0  0  0999 V2000
    9.1482  -16.0846   19.4026 N   0  0  0  0  0  0  0  0  0  0  0  0
    8.3695  -15.0040   19.9822 C   0  0  1  0  0  0  0  0  0  0  0  0
    7.2064  -14.7540   19.0390 C   0  0  0  0  0  0  0  0  0  0  0  0
    7.6223  -14.4169   17.6757 C   0  0  0  0  0  0  0  0  0  0  0  0
    8.3558  -13.3059   17.2919 C   0  0  0  0  0  0  0  0  0  0  0  0
    8.5416  -13.3124   15.9607 N   0  0  0  0  0  0  0  0  0  0  0  0
    7.9310  -14.4161   15.5166 C   0  0  0  0  0  0  0  0  0  0  0  0
    7.3720  -15.0931   16.5362 N   0  0  0  0  0  0  0  0  0  0  0  0
    7.8911  -15.4641   21.3111 C   0  0  0  0  0  0  0  0  0  0  0  0
    7.1299  -14.7778   22.0565 O   0  0  0  0  0  0  0  0  0  0  0  0
    5.9163  -19.6708   21.8384 N   0  0  0  0  0  0  0  0  0  0  0  0
    6.2280  -18.8705   22.9600 C   0  0  0  0  0  0  0  0  0  0  0  0
    5.3080  -18.3896   23.6410 O   0  0  0  0  0  0  0  0  0  0  0  0
    7.6421  -18.6215   23.3019 C   0  0  0  0  0  0  0  0  0  0  0  0
    7.9342  -17.1499   23.1746 C   0  0  2  0  0  0  0  0  0  0  0  0
    8.2579  -16.7298   21.8556 N   0  0  0  0  0  0  0  0  0  0  0  0
    8.9375  -16.7259   24.1873 C   0  0  0  0  0  0  0  0  0  0  0  0
   10.1681  -16.7994   23.8479 O   0  0  0  0  0  0  0  0  0  0  0  0
    8.6153  -16.2604   25.4650 N   0  0  0  0  0  0  0  0  0  0  0  0
    9.6634  -15.9151   26.4021 C   0  0  1  0  0  0  0  0  0  0  0  0
    9.8582  -14.4098   26.4619 C   0  0  0  0  0  0  0  0  0  0  0  0
    8.6284  -13.6594   26.7505 C   0  0  0  0  0  0  0  0  0  0  0  0
    8.3878  -13.0715   27.9960 C   0  0  0  0  0  0  0  0  0  0  0  0
    7.2405  -12.3596   28.2549 C   0  0  0  0  0  0  0  0  0  0  0  0
    6.2769  -12.1972   27.2885 C   0  0  0  0  0  0  0  0  0  0  0  0
    6.4887  -12.7660   26.0537 C   0  0  0  0  0  0  0  0  0  0  0  0
    7.6407  -13.4770   25.8032 C   0  0  0  0  0  0  0  0  0  0  0  0
    9.4859  -16.5472   27.7104 C   0  0  0  0  0  0  0  0  0  0  0  0
   10.3506  -16.3823   28.5970 O   0  0  0  0  0  0  0  0  0  0  0  0
    8.3896  -17.3366   28.0332 O   0  0  0  0  0  0  0  0  0  0  0  0
  2  1  1  6
  2  3  1  0
  4  3  1  0
  4  8  1  0
  5  6  1  0
  5  4  2  0
  6  7  1  0
  7  8  2  0
  9 10  2  0
  9  2  1  0
 11 12  1  0
 12 14  1  0
 13 12  2  0
 15 14  1  6
 15 16  1  0
 16  9  1  0
 17 19  1  0
 17 15  1  0
 18 17  2  0
 20 19  1  0
 20 28  1  0
 20 21  1  1
 22 23  2  0
 22 21  1  0
 24 23  1  0
 25 24  2  0
 26 25  1  0
 26 27  2  0
 27 22  1  0
 28 30  1  0
 29 28  2  0
M  END
$$$$
