HNF.pdb
     RDKit          3D

 30 31  0  0  1  0  0  0  0  0999 V2000
    7.1643  -17.9200   16.4637 N   0  0  0  0  0  0  0  0  0  0  0  0
    8.3850  -17.3744   17.0317 C   0  0  1  0  0  0  0  0  0  0  0  0
    8.1583  -15.8819   17.1927 C   0  0  0  0  0  0  0  0  0  0  0  0
    8.2576  -15.1372   15.9355 C   0  0  0  0  0  0  0  0  0  0  0  0
    8.2009  -13.7606   15.7897 C   0  0  0  0  0  0  0  0  0  0  0  0
    8.3122  -13.4285   14.4920 N   0  0  0  0  0  0  0  0  0  0  0  0
    8.4375  -14.5855   13.8330 C   0  0  0  0  0  0  0  0  0  0  0  0
    8.4067  -15.6247   14.6870 N   0  0  0  0  0  0  0  0  0  0  0  0
    8.5936  -18.0289   18.3486 C   0  0  0  0  0  0  0  0  0  0  0  0
    7.6509  -18.5000   19.0526 O   0  0  0  0  0  0  0  0  0  0  0  0
   12.3335  -20.6049   17.9133 N   0  0  0  0  0  0  0  0  0  0  0  0
   12.1130  -19.7238   18.9954 C   0  0  0  0  0  0  0  0  0  0  0  0
   12.7939  -18.6898   19.0886 O   0  0  0  0  0  0  0  0  0  0  0  0
   11.0765  -20.0486   19.9946 C   0  0  0  0  0  0  0  0  0  0  0  0
   10.1391  -18.8792   20.1389 C   0  0  2  0  0  0  0  0  0  0  0  0
    9.8878  -18.1781   18.9279 N   0  0  0  0  0  0  0  0  0  0  0  0
   10.5760  -17.9920   21.2496 C   0  0  0  0  0  0  0  0  0  0  0  0
   10.9592  -18.5619   22.3283 O   0  0  0  0  0  0  0  0  0  0  0  0
   10.5908  -16.5963   21.1806 N   0  0  0  0  0  0  0  0  0  0  0  0
   11.0409  -15.8140   22.3126 C   0  0  1  0  0  0  0  0  0  0  0  0
   10.5232  -14.3887   22.2224 C   0  0  0  0  0  0  0  0  0  0  0  0
    9.1641  -14.2804   21.6749 C   0  0  0  0  0  0  0  0  0  0  0  0
    8.9221  -14.0768   20.3131 C   0  0  0  0  0  0  0  0  0  0  0  0
    7.6472  -13.9895   19.8059 C   0  0  0  0  0  0  0  0  0  0  0  0
    6.5511  -14.1006   20.6275 C   0  0  0  0  0  0  0  0  0  0  0  0
    6.7613  -14.3011   21.9724 C   0  0  0  0  0  0  0  0  0  0  0  0
    8.0415  -14.3875   22.4715 C   0  0  0  0  0  0  0  0  0  0  0  0
   10.7744  -16.4666   23.5955 C   0  0  0  0  0  0  0  0  0  0  0  0
    9.9886  -17.4368   23.6420 O   0  0  0  0  0  0  0  0  0  0  0  0
   11.3555  -16.0636   24.7910 O   0  0  0  0  0  0  0  0  0  0  0  0
  2  1  1  1
  2  3  1  0
  4  3  1  0
  4  8  1  0
  5  6  1  0
  5  4  2  0
  6  7  1  0
  7  8  2  0
  9 10  2  0
  9  2  1  0
 11 12  1  0
 12 14  1  0
 13 12  2  0
 15 14  1  6
 15 16  1  0
 16  9  1  0
 17 19  1  0
 17 15  1  0
 18 17  2  0
 20 19  1  0
 20 28  1  0
 20 21  1  1
 22 23  2  0
 22 21  1  0
 24 23  1  0
 25 24  2  0
 26 25  1  0
 26 27  2  0
 27 22  1  0
 28 30  1  0
 29 28  2  0
M  END
$$$$
