HNF.pdb
     RDKit          3D

 30 31  0  0  1  0  0  0  0  0999 V2000
   10.0114  -16.6220   18.8863 N   0  0  0  0  0  0  0  0  0  0  0  0
    8.9200  -15.8259   19.4205 C   0  0  1  0  0  0  0  0  0  0  0  0
    7.7848  -15.9185   18.4166 C   0  0  0  0  0  0  0  0  0  0  0  0
    7.9218  -14.9893   17.2928 C   0  0  0  0  0  0  0  0  0  0  0  0
    8.9751  -14.1166   17.0726 C   0  0  0  0  0  0  0  0  0  0  0  0
    8.7600  -13.4065   15.9518 N   0  0  0  0  0  0  0  0  0  0  0  0
    7.5846  -13.8309   15.4759 C   0  0  0  0  0  0  0  0  0  0  0  0
    7.0659  -14.7842   16.2712 N   0  0  0  0  0  0  0  0  0  0  0  0
    8.5314  -16.4224   20.7241 C   0  0  0  0  0  0  0  0  0  0  0  0
    7.4995  -17.1405   20.8848 O   0  0  0  0  0  0  0  0  0  0  0  0
   11.0584  -19.6014   23.4908 N   0  0  0  0  0  0  0  0  0  0  0  0
   10.2258  -18.8541   22.6282 C   0  0  0  0  0  0  0  0  0  0  0  0
   10.5868  -18.6493   21.4581 O   0  0  0  0  0  0  0  0  0  0  0  0
    8.9416  -18.3313   23.1341 C   0  0  0  0  0  0  0  0  0  0  0  0
    8.9918  -16.8267   23.1615 C   0  0  2  0  0  0  0  0  0  0  0  0
    9.3003  -16.2289   21.9091 N   0  0  0  0  0  0  0  0  0  0  0  0
    9.8648  -16.3521   24.2680 C   0  0  0  0  0  0  0  0  0  0  0  0
   10.9671  -15.7952   23.9366 O   0  0  0  0  0  0  0  0  0  0  0  0
    9.5526  -16.4789   25.6243 N   0  0  0  0  0  0  0  0  0  0  0  0
   10.2804  -15.7150   26.6156 C   0  0  1  0  0  0  0  0  0  0  0  0
   10.2003  -14.2281   26.3153 C   0  0  0  0  0  0  0  0  0  0  0  0
    8.8482  -13.6662   26.4367 C   0  0  0  0  0  0  0  0  0  0  0  0
    7.8972  -13.7832   25.4185 C   0  0  0  0  0  0  0  0  0  0  0  0
    6.6295  -13.2663   25.5443 C   0  0  0  0  0  0  0  0  0  0  0  0
    6.2454  -12.6081   26.6881 C   0  0  0  0  0  0  0  0  0  0  0  0
    7.1624  -12.4786   27.7056 C   0  0  0  0  0  0  0  0  0  0  0  0
    8.4297  -12.9997   27.5711 C   0  0  0  0  0  0  0  0  0  0  0  0
    9.9118  -16.0683   27.9875 C   0  0  0  0  0  0  0  0  0  0  0  0
   10.4826  -15.5028   28.9442 O   0  0  0  0  0  0  0  0  0  0  0  0
    8.9440  -17.0154   28.2969 O   0  0  0  0  0  0  0  0  0  0  0  0
  2  1  1  6
  2  3  1  0
  4  3  1  0
  4  8  1  0
  5  6  1  0
  5  4  2  0
  6  7  1  0
  7  8  2  0
  9 10  2  0
  9  2  1  0
 11 12  1  0
 12 14  1  0
 13 12  2  0
 15 14  1  6
 15 16  1  0
 16  9  1  0
 17 19  1  0
 17 15  1  0
 18 17  2  0
 20 19  1  0
 20 28  1  0
 20 21  1  6
 22 23  2  0
 22 21  1  0
 24 23  1  0
 25 24  2  0
 26 25  1  0
 26 27  2  0
 27 22  1  0
 28 30  1  0
 29 28  2  0
M  END
$$$$
