HNF.pdb
     RDKit          3D

 30 31  0  0  1  0  0  0  0  0999 V2000
    8.2487  -17.4477   18.4135 N   0  0  0  0  0  0  0  0  0  0  0  0
    8.9690  -16.5433   19.2930 C   0  0  1  0  0  0  0  0  0  0  0  0
    8.1192  -15.2912   19.4166 C   0  0  0  0  0  0  0  0  0  0  0  0
    8.0367  -14.5169   18.1761 C   0  0  0  0  0  0  0  0  0  0  0  0
    6.8922  -14.2752   17.4335 C   0  0  0  0  0  0  0  0  0  0  0  0
    7.1920  -13.5399   16.3490 N   0  0  0  0  0  0  0  0  0  0  0  0
    8.5102  -13.3237   16.4128 C   0  0  0  0  0  0  0  0  0  0  0  0
    9.0348  -13.9051   17.5069 N   0  0  0  0  0  0  0  0  0  0  0  0
    9.1149  -17.2224   20.6059 C   0  0  0  0  0  0  0  0  0  0  0  0
    8.1322  -17.6162   21.3027 O   0  0  0  0  0  0  0  0  0  0  0  0
   11.3359  -20.9450   22.4250 N   0  0  0  0  0  0  0  0  0  0  0  0
   12.0107  -19.7771   22.0050 C   0  0  0  0  0  0  0  0  0  0  0  0
   12.6847  -19.8034   20.9626 O   0  0  0  0  0  0  0  0  0  0  0  0
   11.9013  -18.5469   22.8130 C   0  0  0  0  0  0  0  0  0  0  0  0
   10.5754  -17.8874   22.5402 C   0  0  2  0  0  0  0  0  0  0  0  0
   10.3890  -17.4856   21.1893 N   0  0  0  0  0  0  0  0  0  0  0  0
   10.3238  -16.7941   23.5165 C   0  0  0  0  0  0  0  0  0  0  0  0
   11.0889  -15.7717   23.4495 O   0  0  0  0  0  0  0  0  0  0  0  0
    9.3164  -16.8221   24.4846 N   0  0  0  0  0  0  0  0  0  0  0  0
    9.0968  -15.6774   25.3432 C   0  0  1  0  0  0  0  0  0  0  0  0
    7.7094  -15.0985   25.1251 C   0  0  0  0  0  0  0  0  0  0  0  0
    7.4053  -13.9396   25.9755 C   0  0  0  0  0  0  0  0  0  0  0  0
    8.1972  -13.5917   27.0739 C   0  0  0  0  0  0  0  0  0  0  0  0
    7.9140  -12.4980   27.8575 C   0  0  0  0  0  0  0  0  0  0  0  0
    6.8303  -11.6971   27.5873 C   0  0  0  0  0  0  0  0  0  0  0  0
    6.0341  -12.0175   26.5119 C   0  0  0  0  0  0  0  0  0  0  0  0
    6.3254  -13.1144   25.7325 C   0  0  0  0  0  0  0  0  0  0  0  0
    9.4170  -15.9498   26.7454 C   0  0  0  0  0  0  0  0  0  0  0  0
   10.4924  -15.5316   27.2245 O   0  0  0  0  0  0  0  0  0  0  0  0
    8.5788  -16.6609   27.5945 O   0  0  0  0  0  0  0  0  0  0  0  0
  2  1  1  6
  2  3  1  0
  4  3  1  0
  4  8  1  0
  5  6  1  0
  5  4  2  0
  6  7  1  0
  7  8  2  0
  9 10  2  0
  9  2  1  0
 11 12  1  0
 12 14  1  0
 13 12  2  0
 15 14  1  6
 15 16  1  0
 16  9  1  0
 17 19  1  0
 17 15  1  0
 18 17  2  0
 20 19  1  0
 20 28  1  0
 20 21  1  1
 22 23  2  0
 22 21  1  0
 24 23  1  0
 25 24  2  0
 26 25  1  0
 26 27  2  0
 27 22  1  0
 28 30  1  0
 29 28  2  0
M  END
$$$$
