HNF.pdb
     RDKit          3D

 30 31  0  0  1  0  0  0  0  0999 V2000
    6.1360  -19.3223   20.4749 N   0  0  0  0  0  0  0  0  0  0  0  0
    5.9869  -17.9874   21.0281 C   0  0  1  0  0  0  0  0  0  0  0  0
    4.7001  -17.9937   21.8337 C   0  0  0  0  0  0  0  0  0  0  0  0
    3.6149  -18.7413   21.1946 C   0  0  0  0  0  0  0  0  0  0  0  0
    3.6053  -19.2272   19.8971 C   0  0  0  0  0  0  0  0  0  0  0  0
    2.4416  -19.8513   19.6462 N   0  0  0  0  0  0  0  0  0  0  0  0
    1.7308  -19.7569   20.7750 C   0  0  0  0  0  0  0  0  0  0  0  0
    2.4224  -19.0915   21.7180 N   0  0  0  0  0  0  0  0  0  0  0  0
    7.1625  -17.7337   21.8998 C   0  0  0  0  0  0  0  0  0  0  0  0
    8.0782  -18.5857   22.1046 O   0  0  0  0  0  0  0  0  0  0  0  0
    9.7191  -15.6397   20.1172 N   0  0  0  0  0  0  0  0  0  0  0  0
    9.0696  -14.4512   20.5189 C   0  0  0  0  0  0  0  0  0  0  0  0
    9.0718  -13.4684   19.7602 O   0  0  0  0  0  0  0  0  0  0  0  0
    8.3997  -14.4002   21.8331 C   0  0  0  0  0  0  0  0  0  0  0  0
    8.5488  -15.7315   22.5207 C   0  0  2  0  0  0  0  0  0  0  0  0
    7.3517  -16.4958   22.5814 N   0  0  0  0  0  0  0  0  0  0  0  0
    9.2061  -15.5661   23.8446 C   0  0  0  0  0  0  0  0  0  0  0  0
   10.4333  -15.2069   23.8399 O   0  0  0  0  0  0  0  0  0  0  0  0
    8.5683  -15.7774   25.0699 N   0  0  0  0  0  0  0  0  0  0  0  0
    9.3012  -15.6294   26.3096 C   0  0  1  0  0  0  0  0  0  0  0  0
    8.4373  -14.9698   27.3708 C   0  0  0  0  0  0  0  0  0  0  0  0
    7.7676  -13.7430   26.9179 C   0  0  0  0  0  0  0  0  0  0  0  0
    6.4270  -13.7274   26.5212 C   0  0  0  0  0  0  0  0  0  0  0  0
    5.8031  -12.5730   26.1110 C   0  0  0  0  0  0  0  0  0  0  0  0
    6.4812  -11.3781   26.0753 C   0  0  0  0  0  0  0  0  0  0  0  0
    7.8021  -11.3656   26.4604 C   0  0  0  0  0  0  0  0  0  0  0  0
    8.4187  -12.5264   26.8700 C   0  0  0  0  0  0  0  0  0  0  0  0
    9.9369  -16.8740   26.7453 C   0  0  0  0  0  0  0  0  0  0  0  0
    9.7522  -17.9222   26.0910 O   0  0  0  0  0  0  0  0  0  0  0  0
   10.7514  -16.9619   27.8669 O   0  0  0  0  0  0  0  0  0  0  0  0
  2  1  1  1
  2  3  1  0
  4  3  1  0
  4  8  1  0
  5  6  1  0
  5  4  2  0
  6  7  1  0
  7  8  2  0
  9 10  2  0
  9  2  1  0
 11 12  1  0
 12 14  1  0
 13 12  2  0
 15 14  1  1
 15 16  1  0
 16  9  1  0
 17 19  1  0
 17 15  1  0
 18 17  2  0
 20 19  1  0
 20 28  1  0
 20 21  1  1
 22 23  2  0
 22 21  1  0
 24 23  1  0
 25 24  2  0
 26 25  1  0
 26 27  2  0
 27 22  1  0
 28 30  1  0
 29 28  2  0
M  END
$$$$
