HNF.pdb
     RDKit          3D

 30 31  0  0  1  0  0  0  0  0999 V2000
    6.7071  -16.3721   21.2309 N   0  0  0  0  0  0  0  0  0  0  0  0
    8.0344  -15.8797   21.5569 C   0  0  1  0  0  0  0  0  0  0  0  0
    7.9124  -14.3740   21.7088 C   0  0  0  0  0  0  0  0  0  0  0  0
    7.9422  -13.6542   20.4336 C   0  0  0  0  0  0  0  0  0  0  0  0
    8.0876  -14.2171   19.1760 C   0  0  0  0  0  0  0  0  0  0  0  0
    8.0845  -13.2559   18.2365 N   0  0  0  0  0  0  0  0  0  0  0  0
    7.9384  -12.1038   18.8996 C   0  0  0  0  0  0  0  0  0  0  0  0
    7.8511  -12.3252   20.2239 N   0  0  0  0  0  0  0  0  0  0  0  0
    8.4424  -16.5151   22.8359 C   0  0  0  0  0  0  0  0  0  0  0  0
    7.6251  -16.8332   23.7508 O   0  0  0  0  0  0  0  0  0  0  0  0
   12.0948  -19.2789   21.8768 N   0  0  0  0  0  0  0  0  0  0  0  0
   11.2853  -19.3270   23.0336 C   0  0  0  0  0  0  0  0  0  0  0  0
   10.4171  -20.2088   23.1343 O   0  0  0  0  0  0  0  0  0  0  0  0
   11.4873  -18.3283   24.1013 C   0  0  0  0  0  0  0  0  0  0  0  0
   10.2208  -17.5359   24.2891 C   0  0  2  0  0  0  0  0  0  0  0  0
    9.8030  -16.8187   23.1349 N   0  0  0  0  0  0  0  0  0  0  0  0
   10.3106  -16.6861   25.5063 C   0  0  0  0  0  0  0  0  0  0  0  0
   11.0880  -15.6724   25.4476 O   0  0  0  0  0  0  0  0  0  0  0  0
    9.6056  -16.9296   26.6880 N   0  0  0  0  0  0  0  0  0  0  0  0
    9.8997  -16.1684   27.8838 C   0  0  1  0  0  0  0  0  0  0  0  0
    8.6481  -15.4875   28.4105 C   0  0  0  0  0  0  0  0  0  0  0  0
    8.0838  -14.4852   27.4963 C   0  0  0  0  0  0  0  0  0  0  0  0
    6.9571  -14.7429   26.7098 C   0  0  0  0  0  0  0  0  0  0  0  0
    6.4267  -13.7957   25.8663 C   0  0  0  0  0  0  0  0  0  0  0  0
    6.9902  -12.5464   25.7636 C   0  0  0  0  0  0  0  0  0  0  0  0
    8.1004  -12.2667   26.5268 C   0  0  0  0  0  0  0  0  0  0  0  0
    8.6246  -13.2213   27.3690 C   0  0  0  0  0  0  0  0  0  0  0  0
   10.6240  -16.9480   28.8891 C   0  0  0  0  0  0  0  0  0  0  0  0
   10.7822  -18.1758   28.7205 O   0  0  0  0  0  0  0  0  0  0  0  0
   11.1582  -16.3928   30.0447 O   0  0  0  0  0  0  0  0  0  0  0  0
  2  1  1  1
  2  3  1  0
  4  3  1  0
  4  8  1  0
  5  6  1  0
  5  4  2  0
  6  7  1  0
  7  8  2  0
  9 10  2  0
  9  2  1  0
 11 12  1  0
 12 14  1  0
 13 12  2  0
 15 14  1  6
 15 16  1  0
 16  9  1  0
 17 19  1  0
 17 15  1  0
 18 17  2  0
 20 19  1  0
 20 28  1  0
 20 21  1  1
 22 23  2  0
 22 21  1  0
 24 23  1  0
 25 24  2  0
 26 25  1  0
 26 27  2  0
 27 22  1  0
 28 30  1  0
 29 28  2  0
M  END
$$$$
