HNF.pdb
     RDKit          3D

 30 31  0  0  1  0  0  0  0  0999 V2000
    7.7756  -17.2482   18.7353 N   0  0  0  0  0  0  0  0  0  0  0  0
    8.8931  -16.6386   19.4351 C   0  0  1  0  0  0  0  0  0  0  0  0
    8.3858  -15.3231   19.9983 C   0  0  0  0  0  0  0  0  0  0  0  0
    8.0794  -14.3269   18.9693 C   0  0  0  0  0  0  0  0  0  0  0  0
    8.2368  -14.4837   17.6017 C   0  0  0  0  0  0  0  0  0  0  0  0
    7.8691  -13.3599   16.9626 N   0  0  0  0  0  0  0  0  0  0  0  0
    7.4854  -12.5092   17.9205 C   0  0  0  0  0  0  0  0  0  0  0  0
    7.6056  -13.0753   19.1351 N   0  0  0  0  0  0  0  0  0  0  0  0
    9.2957  -17.5664   20.5229 C   0  0  0  0  0  0  0  0  0  0  0  0
    9.3258  -18.8266   20.3920 O   0  0  0  0  0  0  0  0  0  0  0  0
   11.2560  -20.5303   20.5858 N   0  0  0  0  0  0  0  0  0  0  0  0
   10.8550  -20.0812   21.8638 C   0  0  0  0  0  0  0  0  0  0  0  0
   10.0731  -20.7728   22.5359 O   0  0  0  0  0  0  0  0  0  0  0  0
   11.3741  -18.7983   22.3767 C   0  0  0  0  0  0  0  0  0  0  0  0
   10.2229  -17.9397   22.8289 C   0  0  2  0  0  0  0  0  0  0  0  0
    9.6836  -17.1027   21.8143 N   0  0  0  0  0  0  0  0  0  0  0  0
   10.5766  -17.2015   24.0706 C   0  0  0  0  0  0  0  0  0  0  0  0
   11.5446  -16.3696   23.9928 O   0  0  0  0  0  0  0  0  0  0  0  0
    9.9217  -17.3638   25.2944 N   0  0  0  0  0  0  0  0  0  0  0  0
    9.4048  -16.2129   26.0043 C   0  0  1  0  0  0  0  0  0  0  0  0
    8.6234  -15.3081   25.0672 C   0  0  0  0  0  0  0  0  0  0  0  0
    8.0866  -14.1016   25.7114 C   0  0  0  0  0  0  0  0  0  0  0  0
    8.9004  -13.0239   26.0732 C   0  0  0  0  0  0  0  0  0  0  0  0
    8.3892  -11.8925   26.6639 C   0  0  0  0  0  0  0  0  0  0  0  0
    7.0444  -11.7774   26.9235 C   0  0  0  0  0  0  0  0  0  0  0  0
    6.2211  -12.8241   26.5776 C   0  0  0  0  0  0  0  0  0  0  0  0
    6.7418  -13.9531   25.9861 C   0  0  0  0  0  0  0  0  0  0  0  0
    8.6825  -16.5760   27.2247 C   0  0  0  0  0  0  0  0  0  0  0  0
    7.7571  -17.4134   27.1671 O   0  0  0  0  0  0  0  0  0  0  0  0
    8.9703  -16.0339   28.4707 O   0  0  0  0  0  0  0  0  0  0  0  0
  2  1  1  1
  2  3  1  0
  4  3  1  0
  4  8  1  0
  5  6  1  0
  5  4  2  0
  6  7  1  0
  7  8  2  0
  9 10  2  0
  9  2  1  0
 11 12  1  0
 12 14  1  0
 13 12  2  0
 15 14  1  6
 15 16  1  0
 16  9  1  0
 17 19  1  0
 17 15  1  0
 18 17  2  0
 20 19  1  0
 20 28  1  0
 20 21  1  6
 22 23  2  0
 22 21  1  0
 24 23  1  0
 25 24  2  0
 26 25  1  0
 26 27  2  0
 27 22  1  0
 28 30  1  0
 29 28  2  0
M  END
$$$$
