FEK.pdb
     RDKit          3D

 30 30  0  0  1  0  0  0  0  0999 V2000
   28.4611  -20.7253   -8.5222 N   0  0  0  0  0  0  0  0  0  0  0  0
   27.0399  -20.5243   -8.5197 C   0  0  1  0  0  0  0  0  0  0  0  0
   26.6268  -19.3823   -7.6099 C   0  0  0  0  0  0  0  0  0  0  0  0
   27.2890  -19.6301   -6.2953 C   0  0  0  0  0  0  0  0  0  0  0  0
   26.8277  -20.5949   -5.4404 C   0  0  0  0  0  0  0  0  0  0  0  0
   27.4561  -20.8088   -4.2278 C   0  0  0  0  0  0  0  0  0  0  0  0
   28.5392  -20.0457   -3.8982 C   0  0  0  0  0  0  0  0  0  0  0  0
   29.0172  -19.0782   -4.7335 C   0  0  0  0  0  0  0  0  0  0  0  0
   28.3855  -18.8674   -5.9462 C   0  0  0  0  0  0  0  0  0  0  0  0
   26.5742  -20.3131   -9.9040 C   0  0  0  0  0  0  0  0  0  0  0  0
   27.0563  -19.3488  -10.5791 O   0  0  0  0  0  0  0  0  0  0  0  0
   25.6037  -21.1852  -10.4506 N   0  0  0  0  0  0  0  0  0  0  0  0
   25.1240  -20.8775  -11.8283 C   0  0  1  0  0  0  0  0  0  0  0  0
   25.5710  -22.0315  -12.6954 C   0  0  0  0  0  0  0  0  0  0  0  0
   25.2400  -21.9548  -14.1310 C   0  0  0  0  0  0  0  0  0  0  0  0
   25.7714  -23.0737  -14.8997 C   0  0  0  0  0  0  0  0  0  0  0  0
   25.0800  -24.0793  -15.1586 O   0  0  0  0  0  0  0  0  0  0  0  0
   23.6415  -20.8127  -11.7880 C   0  0  0  0  0  0  0  0  0  0  0  0
   23.0279  -21.6130  -10.9918 O   0  0  0  0  0  0  0  0  0  0  0  0
   27.0760  -23.0268  -15.3578 O   0  0  0  0  0  0  0  0  0  0  0  0
   22.8248  -19.9516  -12.5359 N   0  0  0  0  0  0  0  0  0  0  0  0
   21.3546  -19.9516  -12.3652 C   0  0  1  0  0  0  0  0  0  0  0  0
   20.7331  -18.9355  -13.2639 C   0  0  0  0  0  0  0  0  0  0  0  0
   20.7844  -19.2468  -14.7300 C   0  0  0  0  0  0  0  0  0  0  0  0
   20.1854  -18.0395  -15.4744 C   0  0  0  0  0  0  0  0  0  0  0  0
   20.1478  -18.3199  -16.9669 C   0  0  0  0  0  0  0  0  0  0  0  0
   19.5423  -17.1269  -17.5732 N   0  0  0  0  0  0  0  0  0  0  0  0
   20.8530  -21.3075  -12.6397 C   0  0  0  0  0  0  0  0  0  0  0  0
   21.4480  -22.0741  -13.4695 O   0  0  0  0  0  0  0  0  0  0  0  0
   19.7302  -21.8611  -12.0452 O   0  0  0  0  0  0  0  0  0  0  0  0
  2 10  1  0
  2  1  1  6
  3  2  1  0
  4  3  1  0
  4  9  2  0
  5  4  1  0
  6  5  2  0
  6  7  1  0
  7  8  2  0
  8  9  1  0
 10 11  2  0
 12 13  1  0
 12 10  1  0
 13 14  1  6
 14 15  1  0
 15 16  1  0
 16 20  1  0
 17 16  2  0
 18 13  1  0
 19 18  2  0
 21 18  1  0
 22 23  1  6
 22 21  1  0
 24 25  1  0
 24 23  1  0
 25 26  1  0
 26 27  1  0
 28 22  1  0
 28 30  1  0
 29 28  2  0
M  END
$$$$
