FEK.pdb
     RDKit          3D

 30 30  0  0  1  0  0  0  0  0999 V2000
   24.7642  -21.1055   -8.4845 N   0  0  0  0  0  0  0  0  0  0  0  0
   25.4840  -20.2120   -9.3470 C   0  0  1  0  0  0  0  0  0  0  0  0
   26.9752  -20.4923   -9.3424 C   0  0  0  0  0  0  0  0  0  0  0  0
   27.4743  -20.0969   -7.9923 C   0  0  0  0  0  0  0  0  0  0  0  0
   28.3464  -20.8923   -7.2985 C   0  0  0  0  0  0  0  0  0  0  0  0
   28.7971  -20.5070   -6.0497 C   0  0  0  0  0  0  0  0  0  0  0  0
   28.3603  -19.3260   -5.5220 C   0  0  0  0  0  0  0  0  0  0  0  0
   27.4913  -18.5166   -6.1943 C   0  0  0  0  0  0  0  0  0  0  0  0
   27.0426  -18.9058   -7.4438 C   0  0  0  0  0  0  0  0  0  0  0  0
   24.9201  -20.2877  -10.7087 C   0  0  0  0  0  0  0  0  0  0  0  0
   23.7743  -20.8143  -10.8758 O   0  0  0  0  0  0  0  0  0  0  0  0
   25.6633  -19.7744  -11.7974 N   0  0  0  0  0  0  0  0  0  0  0  0
   24.9013  -19.4485  -13.0367 C   0  0  1  0  0  0  0  0  0  0  0  0
   25.8932  -18.8149  -13.9844 C   0  0  0  0  0  0  0  0  0  0  0  0
   25.3695  -18.3403  -15.2793 C   0  0  0  0  0  0  0  0  0  0  0  0
   26.3727  -17.6527  -16.0831 C   0  0  0  0  0  0  0  0  0  0  0  0
   26.8392  -16.5462  -15.7447 O   0  0  0  0  0  0  0  0  0  0  0  0
   24.3938  -20.7226  -13.6048 C   0  0  0  0  0  0  0  0  0  0  0  0
   24.8847  -21.8194  -13.1499 O   0  0  0  0  0  0  0  0  0  0  0  0
   26.8245  -18.2360  -17.2535 O   0  0  0  0  0  0  0  0  0  0  0  0
   23.4138  -20.8593  -14.5992 N   0  0  0  0  0  0  0  0  0  0  0  0
   22.3111  -21.8363  -14.4572 C   0  0  1  0  0  0  0  0  0  0  0  0
   21.6854  -21.7124  -13.1083 C   0  0  0  0  0  0  0  0  0  0  0  0
   20.4848  -22.5778  -12.8670 C   0  0  0  0  0  0  0  0  0  0  0  0
   19.9959  -22.2918  -11.4353 C   0  0  0  0  0  0  0  0  0  0  0  0
   18.8332  -23.2080  -11.0940 C   0  0  0  0  0  0  0  0  0  0  0  0
   18.4332  -22.8394   -9.7295 N   0  0  0  0  0  0  0  0  0  0  0  0
   21.3389  -21.6029  -15.5369 C   0  0  0  0  0  0  0  0  0  0  0  0
   20.8077  -20.4544  -15.7076 O   0  0  0  0  0  0  0  0  0  0  0  0
   20.9240  -22.5704  -16.4382 O   0  0  0  0  0  0  0  0  0  0  0  0
  2 10  1  0
  2  1  1  1
  3  2  1  0
  4  3  1  0
  4  9  2  0
  5  4  1  0
  6  5  2  0
  6  7  1  0
  7  8  2  0
  8  9  1  0
 10 11  2  0
 12 13  1  0
 12 10  1  0
 13 14  1  6
 14 15  1  0
 15 16  1  0
 16 20  1  0
 17 16  2  0
 18 13  1  0
 19 18  2  0
 21 18  1  0
 22 23  1  1
 22 21  1  0
 24 25  1  0
 24 23  1  0
 25 26  1  0
 26 27  1  0
 28 22  1  0
 28 30  1  0
 29 28  2  0
M  END
$$$$
