FEK.pdb
     RDKit          3D

 30 30  0  0  1  0  0  0  0  0999 V2000
   21.9804  -17.4377  -19.1788 N   0  0  0  0  0  0  0  0  0  0  0  0
   22.2841  -17.3438  -17.7791 C   0  0  1  0  0  0  0  0  0  0  0  0
   21.6462  -16.1258  -17.1373 C   0  0  0  0  0  0  0  0  0  0  0  0
   22.3178  -14.9341  -17.7347 C   0  0  0  0  0  0  0  0  0  0  0  0
   21.7357  -14.2299  -18.7544 C   0  0  0  0  0  0  0  0  0  0  0  0
   22.3744  -13.1285  -19.2930 C   0  0  0  0  0  0  0  0  0  0  0  0
   23.5895  -12.7564  -18.7939 C   0  0  0  0  0  0  0  0  0  0  0  0
   24.1896  -13.4424  -17.7783 C   0  0  0  0  0  0  0  0  0  0  0  0
   23.5470  -14.5440  -17.2419 C   0  0  0  0  0  0  0  0  0  0  0  0
   21.8743  -18.5914  -17.1057 C   0  0  0  0  0  0  0  0  0  0  0  0
   20.8225  -19.1898  -17.4977 O   0  0  0  0  0  0  0  0  0  0  0  0
   22.6574  -19.0951  -16.0408 N   0  0  0  0  0  0  0  0  0  0  0  0
   22.2445  -20.4071  -15.4654 C   0  0  1  0  0  0  0  0  0  0  0  0
   23.5120  -21.0665  -14.9731 C   0  0  0  0  0  0  0  0  0  0  0  0
   23.3582  -22.3114  -14.1967 C   0  0  0  0  0  0  0  0  0  0  0  0
   24.6317  -22.9431  -13.8732 C   0  0  0  0  0  0  0  0  0  0  0  0
   25.7209  -22.4258  -14.1933 O   0  0  0  0  0  0  0  0  0  0  0  0
   21.3336  -20.1352  -14.3252 C   0  0  0  0  0  0  0  0  0  0  0  0
   21.5094  -19.0479  -13.6636 O   0  0  0  0  0  0  0  0  0  0  0  0
   24.6411  -24.1480  -13.1934 O   0  0  0  0  0  0  0  0  0  0  0  0
   20.2791  -20.9510  -13.8888 N   0  0  0  0  0  0  0  0  0  0  0  0
   19.4307  -20.5561  -12.7421 C   0  0  1  0  0  0  0  0  0  0  0  0
   18.4610  -19.5018  -13.1595 C   0  0  0  0  0  0  0  0  0  0  0  0
   17.4341  -19.9257  -14.1669 C   0  0  0  0  0  0  0  0  0  0  0  0
   16.6017  -18.6801  -14.5223 C   0  0  0  0  0  0  0  0  0  0  0  0
   15.5393  -19.0439  -15.5453 C   0  0  0  0  0  0  0  0  0  0  0  0
   14.7742  -17.8101  -15.7692 N   0  0  0  0  0  0  0  0  0  0  0  0
   18.7503  -21.7563  -12.2300 C   0  0  0  0  0  0  0  0  0  0  0  0
   18.8761  -22.8843  -12.8147 O   0  0  0  0  0  0  0  0  0  0  0  0
   17.9399  -21.7760  -11.1059 O   0  0  0  0  0  0  0  0  0  0  0  0
  2 10  1  0
  2  1  1  6
  3  2  1  0
  4  3  1  0
  4  9  2  0
  5  4  1  0
  6  5  2  0
  6  7  1  0
  7  8  2  0
  8  9  1  0
 10 11  2  0
 12 13  1  0
 12 10  1  0
 13 14  1  1
 14 15  1  0
 15 16  1  0
 16 20  1  0
 17 16  2  0
 18 13  1  0
 19 18  2  0
 21 18  1  0
 22 23  1  6
 22 21  1  0
 24 25  1  0
 24 23  1  0
 25 26  1  0
 26 27  1  0
 28 22  1  0
 28 30  1  0
 29 28  2  0
M  END
$$$$
