FEK.pdb
     RDKit          3D

 30 30  0  0  1  0  0  0  0  0999 V2000
   15.6045  -14.6545    4.4913 N   0  0  0  0  0  0  0  0  0  0  0  0
   16.8539  -14.3810    5.1427 C   0  0  1  0  0  0  0  0  0  0  0  0
   16.9086  -12.9720    5.7034 C   0  0  0  0  0  0  0  0  0  0  0  0
   18.3039  -12.7668    6.1923 C   0  0  0  0  0  0  0  0  0  0  0  0
   18.6791  -13.1592    7.4492 C   0  0  0  0  0  0  0  0  0  0  0  0
   19.9769  -12.9606    7.8820 C   0  0  0  0  0  0  0  0  0  0  0  0
   20.8741  -12.3694    7.0397 C   0  0  0  0  0  0  0  0  0  0  0  0
   20.5237  -11.9696    5.7828 C   0  0  0  0  0  0  0  0  0  0  0  0
   19.2239  -12.1703    5.3534 C   0  0  0  0  0  0  0  0  0  0  0  0
   17.0904  -15.3932    6.1902 C   0  0  0  0  0  0  0  0  0  0  0  0
   16.2377  -15.5284    7.1243 O   0  0  0  0  0  0  0  0  0  0  0  0
   18.2576  -16.1906    6.1342 N   0  0  0  0  0  0  0  0  0  0  0  0
   18.4148  -17.2267    7.1946 C   0  0  1  0  0  0  0  0  0  0  0  0
   18.0203  -18.5399    6.5595 C   0  0  0  0  0  0  0  0  0  0  0  0
   18.1245  -19.7465    7.4019 C   0  0  0  0  0  0  0  0  0  0  0  0
   17.7018  -20.9606    6.7144 C   0  0  0  0  0  0  0  0  0  0  0  0
   17.3605  -20.9504    5.5145 O   0  0  0  0  0  0  0  0  0  0  0  0
   19.8457  -17.2587    7.5883 C   0  0  0  0  0  0  0  0  0  0  0  0
   20.7259  -17.1660    6.6569 O   0  0  0  0  0  0  0  0  0  0  0  0
   17.6756  -22.1597    7.4039 O   0  0  0  0  0  0  0  0  0  0  0  0
   20.3482  -17.3759    8.8928 N   0  0  0  0  0  0  0  0  0  0  0  0
   21.8003  -17.5147    9.1435 C   0  0  1  0  0  0  0  0  0  0  0  0
   22.3557  -16.2333    9.6687 C   0  0  0  0  0  0  0  0  0  0  0  0
   21.4794  -15.4929   10.6346 C   0  0  0  0  0  0  0  0  0  0  0  0
   22.2915  -14.2964   11.1632 C   0  0  0  0  0  0  0  0  0  0  0  0
   21.4840  -13.5457   12.2082 C   0  0  0  0  0  0  0  0  0  0  0  0
   22.3669  -12.4744   12.6884 N   0  0  0  0  0  0  0  0  0  0  0  0
   22.0074  -18.6287   10.0825 C   0  0  0  0  0  0  0  0  0  0  0  0
   21.0188  -19.2862   10.5520 O   0  0  0  0  0  0  0  0  0  0  0  0
   23.2484  -19.0549   10.5285 O   0  0  0  0  0  0  0  0  0  0  0  0
  2 10  1  0
  2  1  1  1
  3  2  1  0
  4  3  1  0
  4  9  2  0
  5  4  1  0
  6  5  2  0
  6  7  1  0
  7  8  2  0
  8  9  1  0
 10 11  2  0
 12 13  1  0
 12 10  1  0
 13 14  1  6
 14 15  1  0
 15 16  1  0
 16 20  1  0
 17 16  2  0
 18 13  1  0
 19 18  2  0
 21 18  1  0
 22 23  1  1
 22 21  1  0
 24 25  1  0
 24 23  1  0
 25 26  1  0
 26 27  1  0
 28 22  1  0
 28 30  1  0
 29 28  2  0
M  END
$$$$
