FEK.pdb
     RDKit          3D

 30 30  0  0  1  0  0  0  0  0999 V2000
   21.3379   -7.6476  -12.5780 N   0  0  0  0  0  0  0  0  0  0  0  0
   20.5044   -7.6537  -13.7465 C   0  0  1  0  0  0  0  0  0  0  0  0
   20.1531   -9.0618  -14.1894 C   0  0  0  0  0  0  0  0  0  0  0  0
   21.4244   -9.6842  -14.6632 C   0  0  0  0  0  0  0  0  0  0  0  0
   22.1428  -10.5279  -13.8592 C   0  0  0  0  0  0  0  0  0  0  0  0
   23.3174  -11.0945  -14.3179 C   0  0  0  0  0  0  0  0  0  0  0  0
   23.7474  -10.8001  -15.5799 C   0  0  0  0  0  0  0  0  0  0  0  0
   23.0488   -9.9621  -16.3996 C   0  0  0  0  0  0  0  0  0  0  0  0
   21.8737   -9.3973  -15.9368 C   0  0  0  0  0  0  0  0  0  0  0  0
   19.2960   -6.8468  -13.4886 C   0  0  0  0  0  0  0  0  0  0  0  0
   18.8274   -6.7940  -12.3072 O   0  0  0  0  0  0  0  0  0  0  0  0
   18.6851   -6.1502  -14.5576 N   0  0  0  0  0  0  0  0  0  0  0  0
   17.4672   -5.3544  -14.2320 C   0  0  1  0  0  0  0  0  0  0  0  0
   17.4475   -4.2000  -15.2069 C   0  0  0  0  0  0  0  0  0  0  0  0
   18.3345   -3.0596  -14.9086 C   0  0  0  0  0  0  0  0  0  0  0  0
   18.2577   -2.0004  -15.9074 C   0  0  0  0  0  0  0  0  0  0  0  0
   18.8066   -2.1089  -17.0225 O   0  0  0  0  0  0  0  0  0  0  0  0
   16.2852   -6.2261  -14.4480 C   0  0  0  0  0  0  0  0  0  0  0  0
   16.3755   -7.1489  -15.3374 O   0  0  0  0  0  0  0  0  0  0  0  0
   17.5595   -0.8414  -15.6189 O   0  0  0  0  0  0  0  0  0  0  0  0
   15.0601   -6.1517  -13.7686 N   0  0  0  0  0  0  0  0  0  0  0  0
   13.9414   -7.0598  -14.1071 C   0  0  1  0  0  0  0  0  0  0  0  0
   13.4043   -7.6967  -12.8694 C   0  0  0  0  0  0  0  0  0  0  0  0
   12.2534   -8.6372  -13.0695 C   0  0  0  0  0  0  0  0  0  0  0  0
   11.8124   -9.1223  -11.6764 C   0  0  0  0  0  0  0  0  0  0  0  0
   10.6630  -10.1061  -11.8122 C   0  0  0  0  0  0  0  0  0  0  0  0
   10.3531  -10.5361  -10.4423 N   0  0  0  0  0  0  0  0  0  0  0  0
   12.9110   -6.2860  -14.8179 C   0  0  0  0  0  0  0  0  0  0  0  0
   12.8647   -5.0132  -14.7281 O   0  0  0  0  0  0  0  0  0  0  0  0
   11.9308   -6.8439  -15.6231 O   0  0  0  0  0  0  0  0  0  0  0  0
  2 10  1  0
  2  1  1  1
  3  2  1  0
  4  3  1  0
  4  9  2  0
  5  4  1  0
  6  5  2  0
  6  7  1  0
  7  8  2  0
  8  9  1  0
 10 11  2  0
 12 13  1  0
 12 10  1  0
 13 14  1  6
 14 15  1  0
 15 16  1  0
 16 20  1  0
 17 16  2  0
 18 13  1  0
 19 18  2  0
 21 18  1  0
 22 23  1  1
 22 21  1  0
 24 25  1  0
 24 23  1  0
 25 26  1  0
 26 27  1  0
 28 22  1  0
 28 30  1  0
 29 28  2  0
M  END
$$$$
