FEK.pdb
     RDKit          3D

 30 30  0  0  1  0  0  0  0  0999 V2000
   20.4186  -13.9126  -16.8373 N   0  0  0  0  0  0  0  0  0  0  0  0
   20.0455  -12.6740  -17.4593 C   0  0  1  0  0  0  0  0  0  0  0  0
   18.8227  -12.8257  -18.3448 C   0  0  0  0  0  0  0  0  0  0  0  0
   19.2497  -13.6466  -19.5161 C   0  0  0  0  0  0  0  0  0  0  0  0
   18.9622  -14.9834  -19.5868 C   0  0  0  0  0  0  0  0  0  0  0  0
   19.3662  -15.7253  -20.6810 C   0  0  0  0  0  0  0  0  0  0  0  0
   20.0534  -15.1062  -21.6853 C   0  0  0  0  0  0  0  0  0  0  0  0
   20.3518  -13.7754  -21.6372 C   0  0  0  0  0  0  0  0  0  0  0  0
   19.9456  -13.0364  -20.5404 C   0  0  0  0  0  0  0  0  0  0  0  0
   19.8402  -11.6476  -16.4190 C   0  0  0  0  0  0  0  0  0  0  0  0
   19.1523  -11.9387  -15.3894 O   0  0  0  0  0  0  0  0  0  0  0  0
   20.4112  -10.3643  -16.5875 N   0  0  0  0  0  0  0  0  0  0  0  0
   20.0946   -9.3461  -15.5455 C   0  0  1  0  0  0  0  0  0  0  0  0
   21.4222   -8.9014  -14.9769 C   0  0  0  0  0  0  0  0  0  0  0  0
   21.3835   -7.8849  -13.9085 C   0  0  0  0  0  0  0  0  0  0  0  0
   21.7490   -6.5528  -14.3746 C   0  0  0  0  0  0  0  0  0  0  0  0
   22.7527   -6.3604  -15.0902 O   0  0  0  0  0  0  0  0  0  0  0  0
   19.4183   -8.2072  -16.2156 C   0  0  0  0  0  0  0  0  0  0  0  0
   19.9529   -7.7379  -17.2856 O   0  0  0  0  0  0  0  0  0  0  0  0
   20.9673   -5.4683  -14.0185 O   0  0  0  0  0  0  0  0  0  0  0  0
   18.2334   -7.5812  -15.8008 N   0  0  0  0  0  0  0  0  0  0  0  0
   17.6778   -6.4271  -16.5426 C   0  0  1  0  0  0  0  0  0  0  0  0
   16.2165   -6.6203  -16.7736 C   0  0  0  0  0  0  0  0  0  0  0  0
   15.8530   -7.5763  -17.8704 C   0  0  0  0  0  0  0  0  0  0  0  0
   14.3163   -7.6638  -17.9092 C   0  0  0  0  0  0  0  0  0  0  0  0
   13.8805   -8.6010  -19.0225 C   0  0  0  0  0  0  0  0  0  0  0  0
   12.4144   -8.6461  -18.9434 N   0  0  0  0  0  0  0  0  0  0  0  0
   17.9553   -5.2022  -15.7757 C   0  0  0  0  0  0  0  0  0  0  0  0
   18.2007   -5.2508  -14.5237 O   0  0  0  0  0  0  0  0  0  0  0  0
   17.9772   -3.9275  -16.3192 O   0  0  0  0  0  0  0  0  0  0  0  0
  2 10  1  0
  2  1  1  1
  3  2  1  0
  4  3  1  0
  4  9  2  0
  5  4  1  0
  6  5  2  0
  6  7  1  0
  7  8  2  0
  8  9  1  0
 10 11  2  0
 12 13  1  0
 12 10  1  0
 13 14  1  6
 14 15  1  0
 15 16  1  0
 16 20  1  0
 17 16  2  0
 18 13  1  0
 19 18  2  0
 21 18  1  0
 22 23  1  1
 22 21  1  0
 24 25  1  0
 24 23  1  0
 25 26  1  0
 26 27  1  0
 28 22  1  0
 28 30  1  0
 29 28  2  0
M  END
$$$$
