FEK.pdb
     RDKit          3D

 30 30  0  0  1  0  0  0  0  0999 V2000
   19.5900   -5.9827  -15.0891 N   0  0  0  0  0  0  0  0  0  0  0  0
   20.5215   -6.8042  -15.8086 C   0  0  1  0  0  0  0  0  0  0  0  0
   21.6210   -7.3405  -14.9109 C   0  0  0  0  0  0  0  0  0  0  0  0
   22.6210   -6.2418  -14.7667 C   0  0  0  0  0  0  0  0  0  0  0  0
   22.4862   -5.2838  -13.7979 C   0  0  0  0  0  0  0  0  0  0  0  0
   23.4243   -4.2752  -13.6809 C   0  0  0  0  0  0  0  0  0  0  0  0
   24.4824   -4.2500  -14.5434 C   0  0  0  0  0  0  0  0  0  0  0  0
   24.6382   -5.1935  -15.5169 C   0  0  0  0  0  0  0  0  0  0  0  0
   23.6972   -6.2013  -15.6306 C   0  0  0  0  0  0  0  0  0  0  0  0
   19.7910   -7.8935  -16.4848 C   0  0  0  0  0  0  0  0  0  0  0  0
   18.8224   -8.4565  -15.8824 O   0  0  0  0  0  0  0  0  0  0  0  0
   20.1817   -8.2884  -17.7858 N   0  0  0  0  0  0  0  0  0  0  0  0
   19.2944   -9.2593  -18.4880 C   0  0  1  0  0  0  0  0  0  0  0  0
   19.1302   -8.7349  -19.8957 C   0  0  0  0  0  0  0  0  0  0  0  0
   18.3453   -9.5645  -20.8295 C   0  0  0  0  0  0  0  0  0  0  0  0
   18.3045   -9.0194  -22.1810 C   0  0  0  0  0  0  0  0  0  0  0  0
   19.1163   -9.3778  -23.0579 O   0  0  0  0  0  0  0  0  0  0  0  0
   19.9866  -10.5723  -18.5092 C   0  0  0  0  0  0  0  0  0  0  0  0
   21.2704  -10.5725  -18.5612 O   0  0  0  0  0  0  0  0  0  0  0  0
   17.3433   -8.0795  -22.5076 O   0  0  0  0  0  0  0  0  0  0  0  0
   19.3776  -11.8355  -18.4723 N   0  0  0  0  0  0  0  0  0  0  0  0
   20.1870  -13.0740  -18.4301 C   0  0  1  0  0  0  0  0  0  0  0  0
   19.3257  -14.2387  -18.0727 C   0  0  0  0  0  0  0  0  0  0  0  0
   18.8741  -14.2987  -16.6439 C   0  0  0  0  0  0  0  0  0  0  0  0
   17.8506  -15.4437  -16.5361 C   0  0  0  0  0  0  0  0  0  0  0  0
   17.2805  -15.4959  -15.1290 C   0  0  0  0  0  0  0  0  0  0  0  0
   16.3353  -16.6203  -15.1321 N   0  0  0  0  0  0  0  0  0  0  0  0
   20.8361  -13.2521  -19.7387 C   0  0  0  0  0  0  0  0  0  0  0  0
   20.1775  -13.1165  -20.8241 O   0  0  0  0  0  0  0  0  0  0  0  0
   22.1738  -13.5705  -19.9112 O   0  0  0  0  0  0  0  0  0  0  0  0
  2 10  1  0
  2  1  1  1
  3  2  1  0
  4  3  1  0
  4  9  2  0
  5  4  1  0
  6  5  2  0
  6  7  1  0
  7  8  2  0
  8  9  1  0
 10 11  2  0
 12 13  1  0
 12 10  1  0
 13 14  1  6
 14 15  1  0
 15 16  1  0
 16 20  1  0
 17 16  2  0
 18 13  1  0
 19 18  2  0
 21 18  1  0
 22 23  1  6
 22 21  1  0
 24 25  1  0
 24 23  1  0
 25 26  1  0
 26 27  1  0
 28 22  1  0
 28 30  1  0
 29 28  2  0
M  END
$$$$
