FEK.pdb
     RDKit          3D

 30 30  0  0  1  0  0  0  0  0999 V2000
   24.0494  -21.4583  -19.0535 N   0  0  0  0  0  0  0  0  0  0  0  0
   22.7102  -20.9988  -19.2893 C   0  0  1  0  0  0  0  0  0  0  0  0
   22.0680  -21.6963  -20.4741 C   0  0  0  0  0  0  0  0  0  0  0  0
   22.8054  -21.2328  -21.6864 C   0  0  0  0  0  0  0  0  0  0  0  0
   23.8214  -21.9760  -22.2248 C   0  0  0  0  0  0  0  0  0  0  0  0
   24.4909  -21.5290  -23.3486 C   0  0  0  0  0  0  0  0  0  0  0  0
   24.1242  -20.3397  -23.9101 C   0  0  0  0  0  0  0  0  0  0  0  0
   23.1150  -19.5815  -23.3916 C   0  0  0  0  0  0  0  0  0  0  0  0
   22.4474  -20.0324  -22.2669 C   0  0  0  0  0  0  0  0  0  0  0  0
   21.9120  -21.1685  -18.0597 C   0  0  0  0  0  0  0  0  0  0  0  0
   22.1602  -22.1513  -17.2913 O   0  0  0  0  0  0  0  0  0  0  0  0
   20.8899  -20.2371  -17.7614 N   0  0  0  0  0  0  0  0  0  0  0  0
   20.0619  -20.5127  -16.5526 C   0  0  1  0  0  0  0  0  0  0  0  0
   19.4355  -19.1936  -16.1639 C   0  0  0  0  0  0  0  0  0  0  0  0
   19.5699  -18.7808  -14.7540 C   0  0  0  0  0  0  0  0  0  0  0  0
   19.0650  -17.4366  -14.5023 C   0  0  0  0  0  0  0  0  0  0  0  0
   19.8005  -16.5314  -14.0596 O   0  0  0  0  0  0  0  0  0  0  0  0
   19.0084  -21.4852  -16.9372 C   0  0  0  0  0  0  0  0  0  0  0  0
   18.9656  -21.8693  -18.1625 O   0  0  0  0  0  0  0  0  0  0  0  0
   17.7362  -17.1490  -14.7586 O   0  0  0  0  0  0  0  0  0  0  0  0
   18.0408  -22.0438  -16.0888 N   0  0  0  0  0  0  0  0  0  0  0  0
   17.3395  -23.2966  -16.4487 C   0  0  1  0  0  0  0  0  0  0  0  0
   18.3285  -24.3862  -16.6954 C   0  0  0  0  0  0  0  0  0  0  0  0
   18.3437  -24.9472  -18.0860 C   0  0  0  0  0  0  0  0  0  0  0  0
   19.4655  -26.0004  -18.1414 C   0  0  0  0  0  0  0  0  0  0  0  0
   19.5172  -26.6274  -19.5240 C   0  0  0  0  0  0  0  0  0  0  0  0
   20.6542  -27.5568  -19.4889 N   0  0  0  0  0  0  0  0  0  0  0  0
   16.4064  -23.6374  -15.3631 C   0  0  0  0  0  0  0  0  0  0  0  0
   16.6111  -23.2354  -14.1686 O   0  0  0  0  0  0  0  0  0  0  0  0
   15.2592  -24.3972  -15.5278 O   0  0  0  0  0  0  0  0  0  0  0  0
  2 10  1  0
  2  1  1  1
  3  2  1  0
  4  3  1  0
  4  9  2  0
  5  4  1  0
  6  5  2  0
  6  7  1  0
  7  8  2  0
  8  9  1  0
 10 11  2  0
 12 13  1  0
 12 10  1  0
 13 14  1  6
 14 15  1  0
 15 16  1  0
 16 20  1  0
 17 16  2  0
 18 13  1  0
 19 18  2  0
 21 18  1  0
 22 23  1  1
 22 21  1  0
 24 25  1  0
 24 23  1  0
 25 26  1  0
 26 27  1  0
 28 22  1  0
 28 30  1  0
 29 28  2  0
M  END
$$$$
