FEK.pdb
     RDKit          3D

 30 30  0  0  1  0  0  0  0  0999 V2000
   28.7260  -21.1229   -9.1403 N   0  0  0  0  0  0  0  0  0  0  0  0
   27.3521  -20.7073   -9.1468 C   0  0  1  0  0  0  0  0  0  0  0  0
   27.1656  -19.3431   -8.5090 C   0  0  0  0  0  0  0  0  0  0  0  0
   27.5914  -19.4818   -7.0851 C   0  0  0  0  0  0  0  0  0  0  0  0
   28.7971  -18.9955   -6.6556 C   0  0  0  0  0  0  0  0  0  0  0  0
   29.1718  -19.1336   -5.3322 C   0  0  0  0  0  0  0  0  0  0  0  0
   28.3241  -19.7601   -4.4645 C   0  0  0  0  0  0  0  0  0  0  0  0
   27.1176  -20.2531   -4.8690 C   0  0  0  0  0  0  0  0  0  0  0  0
   26.7462  -20.1127   -6.1943 C   0  0  0  0  0  0  0  0  0  0  0  0
   26.8398  -20.7359  -10.5305 C   0  0  0  0  0  0  0  0  0  0  0  0
   27.4948  -20.1428  -11.4455 O   0  0  0  0  0  0  0  0  0  0  0  0
   25.6339  -21.4206  -10.8103 N   0  0  0  0  0  0  0  0  0  0  0  0
   25.1557  -21.3891  -12.2221 C   0  0  1  0  0  0  0  0  0  0  0  0
   25.1751  -22.8214  -12.7033 C   0  0  0  0  0  0  0  0  0  0  0  0
   24.6969  -23.0704  -14.0765 C   0  0  0  0  0  0  0  0  0  0  0  0
   24.7831  -24.4729  -14.4652 C   0  0  0  0  0  0  0  0  0  0  0  0
   25.2470  -25.3395  -13.6970 O   0  0  0  0  0  0  0  0  0  0  0  0
   23.7649  -20.8701  -12.2178 C   0  0  0  0  0  0  0  0  0  0  0  0
   23.0469  -21.0882  -11.1749 O   0  0  0  0  0  0  0  0  0  0  0  0
   24.3409  -24.8611  -15.7173 O   0  0  0  0  0  0  0  0  0  0  0  0
   23.1418  -20.1492  -13.2474 N   0  0  0  0  0  0  0  0  0  0  0  0
   21.7474  -19.6719  -13.1115 C   0  0  1  0  0  0  0  0  0  0  0  0
   21.3868  -18.8028  -14.2694 C   0  0  0  0  0  0  0  0  0  0  0  0
   20.0020  -18.2278  -14.2438 C   0  0  0  0  0  0  0  0  0  0  0  0
   19.8693  -17.3017  -15.4666 C   0  0  0  0  0  0  0  0  0  0  0  0
   18.4755  -16.6990  -15.5090 C   0  0  0  0  0  0  0  0  0  0  0  0
   18.5109  -15.7094  -16.5939 N   0  0  0  0  0  0  0  0  0  0  0  0
   20.8616  -20.8423  -13.0066 C   0  0  0  0  0  0  0  0  0  0  0  0
   19.8422  -20.8296  -12.2380 O   0  0  0  0  0  0  0  0  0  0  0  0
   21.0420  -22.0246  -13.7067 O   0  0  0  0  0  0  0  0  0  0  0  0
  2 10  1  0
  2  1  1  6
  3  2  1  0
  4  3  1  0
  4  9  2  0
  5  4  1  0
  6  5  2  0
  6  7  1  0
  7  8  2  0
  8  9  1  0
 10 11  2  0
 12 13  1  0
 12 10  1  0
 13 14  1  1
 14 15  1  0
 15 16  1  0
 16 20  1  0
 17 16  2  0
 18 13  1  0
 19 18  2  0
 21 18  1  0
 22 23  1  6
 22 21  1  0
 24 25  1  0
 24 23  1  0
 25 26  1  0
 26 27  1  0
 28 22  1  0
 28 30  1  0
 29 28  2  0
M  END
$$$$
