FEK.pdb
     RDKit          3D

 30 30  0  0  1  0  0  0  0  0999 V2000
   26.3602  -20.9754  -13.7257 N   0  0  0  0  0  0  0  0  0  0  0  0
   25.7455  -20.9957  -12.4288 C   0  0  1  0  0  0  0  0  0  0  0  0
   26.4766  -20.1102  -11.4369 C   0  0  0  0  0  0  0  0  0  0  0  0
   27.8657  -20.6472  -11.3366 C   0  0  0  0  0  0  0  0  0  0  0  0
   28.8029  -20.3714  -12.2958 C   0  0  0  0  0  0  0  0  0  0  0  0
   30.0842  -20.8781  -12.1833 C   0  0  0  0  0  0  0  0  0  0  0  0
   30.3982  -21.6545  -11.1050 C   0  0  0  0  0  0  0  0  0  0  0  0
   29.4814  -21.9433  -10.1364 C   0  0  0  0  0  0  0  0  0  0  0  0
   28.2002  -21.4342  -10.2527 C   0  0  0  0  0  0  0  0  0  0  0  0
   24.3255  -20.6143  -12.5553 C   0  0  0  0  0  0  0  0  0  0  0  0
   24.0258  -19.3888  -12.7174 O   0  0  0  0  0  0  0  0  0  0  0  0
   23.3293  -21.6168  -12.4940 N   0  0  0  0  0  0  0  0  0  0  0  0
   21.9142  -21.1665  -12.6269 C   0  0  1  0  0  0  0  0  0  0  0  0
   21.7578  -20.6906  -14.0526 C   0  0  0  0  0  0  0  0  0  0  0  0
   20.4282  -20.1870  -14.4459 C   0  0  0  0  0  0  0  0  0  0  0  0
   20.3811  -19.7170  -15.8251 C   0  0  0  0  0  0  0  0  0  0  0  0
   19.9489  -20.4356  -16.7488 O   0  0  0  0  0  0  0  0  0  0  0  0
   21.0401  -22.3409  -12.3812 C   0  0  0  0  0  0  0  0  0  0  0  0
   21.2714  -23.4114  -13.0530 O   0  0  0  0  0  0  0  0  0  0  0  0
   20.8255  -18.4418  -16.1257 O   0  0  0  0  0  0  0  0  0  0  0  0
   19.9728  -22.4093  -11.4734 N   0  0  0  0  0  0  0  0  0  0  0  0
   19.0913  -23.5970  -11.4173 C   0  0  1  0  0  0  0  0  0  0  0  0
   18.3476  -23.6241  -10.1241 C   0  0  0  0  0  0  0  0  0  0  0  0
   19.0656  -24.2671   -8.9751 C   0  0  0  0  0  0  0  0  0  0  0  0
   18.0997  -24.2681   -7.7761 C   0  0  0  0  0  0  0  0  0  0  0  0
   18.7821  -24.8787   -6.5640 C   0  0  0  0  0  0  0  0  0  0  0  0
   17.8175  -24.7450   -5.4643 N   0  0  0  0  0  0  0  0  0  0  0  0
   18.1814  -23.5579  -12.5732 C   0  0  0  0  0  0  0  0  0  0  0  0
   17.9564  -24.6041  -13.2695 O   0  0  0  0  0  0  0  0  0  0  0  0
   17.5066  -22.4249  -12.9991 O   0  0  0  0  0  0  0  0  0  0  0  0
  2 10  1  0
  2  1  1  6
  3  2  1  0
  4  3  1  0
  4  9  2  0
  5  4  1  0
  6  5  2  0
  6  7  1  0
  7  8  2  0
  8  9  1  0
 10 11  2  0
 12 13  1  0
 12 10  1  0
 13 14  1  6
 14 15  1  0
 15 16  1  0
 16 20  1  0
 17 16  2  0
 18 13  1  0
 19 18  2  0
 21 18  1  0
 22 23  1  1
 22 21  1  0
 24 25  1  0
 24 23  1  0
 25 26  1  0
 26 27  1  0
 28 22  1  0
 28 30  1  0
 29 28  2  0
M  END
$$$$
