FEK.pdb
     RDKit          3D

 30 30  0  0  1  0  0  0  0  0999 V2000
   29.7973  -24.0309  -18.1202 N   0  0  0  0  0  0  0  0  0  0  0  0
   28.8610  -25.0886  -17.8656 C   0  0  1  0  0  0  0  0  0  0  0  0
   29.4686  -26.1994  -17.0292 C   0  0  0  0  0  0  0  0  0  0  0  0
   28.4274  -27.2634  -16.9213 C   0  0  0  0  0  0  0  0  0  0  0  0
   28.3863  -28.3069  -17.8069 C   0  0  0  0  0  0  0  0  0  0  0  0
   27.4141  -29.2824  -17.6886 C   0  0  0  0  0  0  0  0  0  0  0  0
   26.4996  -29.1888  -16.6790 C   0  0  0  0  0  0  0  0  0  0  0  0
   26.5202  -28.1584  -15.7845 C   0  0  0  0  0  0  0  0  0  0  0  0
   27.4949  -27.1842  -15.9063 C   0  0  0  0  0  0  0  0  0  0  0  0
   27.6521  -24.5285  -17.2311 C   0  0  0  0  0  0  0  0  0  0  0  0
   27.7664  -23.8913  -16.1361 O   0  0  0  0  0  0  0  0  0  0  0  0
   26.3942  -24.7110  -17.8519 N   0  0  0  0  0  0  0  0  0  0  0  0
   25.2184  -24.0818  -17.1851 C   0  0  1  0  0  0  0  0  0  0  0  0
   24.6268  -23.1248  -18.1939 C   0  0  0  0  0  0  0  0  0  0  0  0
   23.4002  -22.4090  -17.7949 C   0  0  0  0  0  0  0  0  0  0  0  0
   22.9502  -21.4473  -18.7939 C   0  0  0  0  0  0  0  0  0  0  0  0
   23.5519  -21.2952  -19.8762 O   0  0  0  0  0  0  0  0  0  0  0  0
   24.2461  -25.1585  -16.8706 C   0  0  0  0  0  0  0  0  0  0  0  0
   24.1442  -26.1351  -17.6993 O   0  0  0  0  0  0  0  0  0  0  0  0
   21.8273  -20.6792  -18.5428 O   0  0  0  0  0  0  0  0  0  0  0  0
   23.4157  -25.2272  -15.7420 N   0  0  0  0  0  0  0  0  0  0  0  0
   22.5233  -26.3867  -15.5185 C   0  0  1  0  0  0  0  0  0  0  0  0
   22.0286  -26.3902  -14.1108 C   0  0  0  0  0  0  0  0  0  0  0  0
   21.1245  -27.5287  -13.7428 C   0  0  0  0  0  0  0  0  0  0  0  0
   20.8319  -27.4107  -12.2358 C   0  0  0  0  0  0  0  0  0  0  0  0
   19.9520  -28.5655  -11.7888 C   0  0  0  0  0  0  0  0  0  0  0  0
   19.8041  -28.4041  -10.3363 N   0  0  0  0  0  0  0  0  0  0  0  0
   21.4188  -26.3193  -16.4885 C   0  0  0  0  0  0  0  0  0  0  0  0
   20.9179  -25.1983  -16.8389 O   0  0  0  0  0  0  0  0  0  0  0  0
   20.8400  -27.4242  -17.0924 O   0  0  0  0  0  0  0  0  0  0  0  0
  2 10  1  0
  2  1  1  1
  3  2  1  0
  4  3  1  0
  4  9  2  0
  5  4  1  0
  6  5  2  0
  6  7  1  0
  7  8  2  0
  8  9  1  0
 10 11  2  0
 12 13  1  0
 12 10  1  0
 13 14  1  6
 14 15  1  0
 15 16  1  0
 16 20  1  0
 17 16  2  0
 18 13  1  0
 19 18  2  0
 21 18  1  0
 22 23  1  1
 22 21  1  0
 24 25  1  0
 24 23  1  0
 25 26  1  0
 26 27  1  0
 28 22  1  0
 28 30  1  0
 29 28  2  0
M  END
$$$$
