FEK.pdb
     RDKit          3D

 30 30  0  0  1  0  0  0  0  0999 V2000
   18.3235  -11.3381  -16.0938 N   0  0  0  0  0  0  0  0  0  0  0  0
   18.8773  -10.2182  -16.8005 C   0  0  1  0  0  0  0  0  0  0  0  0
   18.3065  -10.0879  -18.2003 C   0  0  0  0  0  0  0  0  0  0  0  0
   18.7560  -11.2960  -18.9530 C   0  0  0  0  0  0  0  0  0  0  0  0
   17.8775  -12.2932  -19.2821 C   0  0  0  0  0  0  0  0  0  0  0  0
   18.3144  -13.4034  -19.9804 C   0  0  0  0  0  0  0  0  0  0  0  0
   19.6301  -13.4888  -20.3348 C   0  0  0  0  0  0  0  0  0  0  0  0
   20.5245  -12.5079  -20.0181 C   0  0  0  0  0  0  0  0  0  0  0  0
   20.0832  -11.3985  -19.3192 C   0  0  0  0  0  0  0  0  0  0  0  0
   18.6670   -8.9897  -16.0103 C   0  0  0  0  0  0  0  0  0  0  0  0
   17.5092   -8.7439  -15.5446 O   0  0  0  0  0  0  0  0  0  0  0  0
   19.7545   -8.1129  -15.7874 N   0  0  0  0  0  0  0  0  0  0  0  0
   19.4798   -6.8959  -14.9711 C   0  0  1  0  0  0  0  0  0  0  0  0
   20.8062   -6.4808  -14.3779 C   0  0  0  0  0  0  0  0  0  0  0  0
   20.8361   -5.2048  -13.6382 C   0  0  0  0  0  0  0  0  0  0  0  0
   22.1055   -4.9670  -12.9619 C   0  0  0  0  0  0  0  0  0  0  0  0
   22.8329   -3.9963  -13.2537 O   0  0  0  0  0  0  0  0  0  0  0  0
   18.9764   -5.8408  -15.8860 C   0  0  0  0  0  0  0  0  0  0  0  0
   19.5257   -5.7386  -17.0430 O   0  0  0  0  0  0  0  0  0  0  0  0
   22.5217   -5.8360  -11.9691 O   0  0  0  0  0  0  0  0  0  0  0  0
   17.9427   -4.9308  -15.6191 N   0  0  0  0  0  0  0  0  0  0  0  0
   17.5241   -3.9315  -16.6275 C   0  0  1  0  0  0  0  0  0  0  0  0
   16.0440   -3.9753  -16.8105 C   0  0  0  0  0  0  0  0  0  0  0  0
   15.5515   -4.8673  -17.9108 C   0  0  0  0  0  0  0  0  0  0  0  0
   14.0128   -4.8219  -17.8814 C   0  0  0  0  0  0  0  0  0  0  0  0
   13.4484   -5.7561  -18.9380 C   0  0  0  0  0  0  0  0  0  0  0  0
   12.0003   -5.7918  -18.6942 N   0  0  0  0  0  0  0  0  0  0  0  0
   17.9840   -2.6044  -16.1882 C   0  0  0  0  0  0  0  0  0  0  0  0
   17.7149   -2.1682  -15.0189 O   0  0  0  0  0  0  0  0  0  0  0  0
   18.7262   -1.7352  -16.9719 O   0  0  0  0  0  0  0  0  0  0  0  0
  2 10  1  0
  2  1  1  1
  3  2  1  0
  4  3  1  0
  4  9  2  0
  5  4  1  0
  6  5  2  0
  6  7  1  0
  7  8  2  0
  8  9  1  0
 10 11  2  0
 12 13  1  0
 12 10  1  0
 13 14  1  6
 14 15  1  0
 15 16  1  0
 16 20  1  0
 17 16  2  0
 18 13  1  0
 19 18  2  0
 21 18  1  0
 22 23  1  1
 22 21  1  0
 24 25  1  0
 24 23  1  0
 25 26  1  0
 26 27  1  0
 28 22  1  0
 28 30  1  0
 29 28  2  0
M  END
$$$$
