FEK.pdb
     RDKit          3D

 30 30  0  0  1  0  0  0  0  0999 V2000
   18.2022  -12.3449  -15.3827 N   0  0  0  0  0  0  0  0  0  0  0  0
   18.1325  -11.1790  -16.2170 C   0  0  1  0  0  0  0  0  0  0  0  0
   16.9063  -11.1894  -17.1107 C   0  0  0  0  0  0  0  0  0  0  0  0
   17.1186  -12.2823  -18.1050 C   0  0  0  0  0  0  0  0  0  0  0  0
   17.9694  -12.1198  -19.1654 C   0  0  0  0  0  0  0  0  0  0  0  0
   18.1524  -13.1451  -20.0744 C   0  0  0  0  0  0  0  0  0  0  0  0
   17.4740  -14.3168  -19.8984 C   0  0  0  0  0  0  0  0  0  0  0  0
   16.6208  -14.5023  -18.8497 C   0  0  0  0  0  0  0  0  0  0  0  0
   16.4405  -13.4738  -17.9421 C   0  0  0  0  0  0  0  0  0  0  0  0
   18.1799   -9.9702  -15.3719 C   0  0  0  0  0  0  0  0  0  0  0  0
   17.5192   -9.9483  -14.2851 O   0  0  0  0  0  0  0  0  0  0  0  0
   18.9570   -8.8632  -15.7864 N   0  0  0  0  0  0  0  0  0  0  0  0
   19.0076   -7.6943  -14.8624 C   0  0  1  0  0  0  0  0  0  0  0  0
   20.4588   -7.2790  -14.7907 C   0  0  0  0  0  0  0  0  0  0  0  0
   20.7712   -6.0815  -13.9877 C   0  0  0  0  0  0  0  0  0  0  0  0
   22.1795   -5.7088  -14.0433 C   0  0  0  0  0  0  0  0  0  0  0  0
   23.0258   -6.4248  -14.6156 O   0  0  0  0  0  0  0  0  0  0  0  0
   18.1939   -6.6072  -15.4622 C   0  0  0  0  0  0  0  0  0  0  0  0
   18.3416   -6.3699  -16.7162 O   0  0  0  0  0  0  0  0  0  0  0  0
   22.5965   -4.5315  -13.4482 O   0  0  0  0  0  0  0  0  0  0  0  0
   17.2602   -5.8005  -14.7947 N   0  0  0  0  0  0  0  0  0  0  0  0
   16.5096   -4.7456  -15.5120 C   0  0  1  0  0  0  0  0  0  0  0  0
   15.0865   -4.7328  -15.0638 C   0  0  0  0  0  0  0  0  0  0  0  0
   14.2693   -5.9256  -15.4617 C   0  0  0  0  0  0  0  0  0  0  0  0
   12.8852   -5.7705  -14.8052 C   0  0  0  0  0  0  0  0  0  0  0  0
   12.0193   -6.9741  -15.1358 C   0  0  0  0  0  0  0  0  0  0  0  0
   10.7584   -6.7579  -14.4138 N   0  0  0  0  0  0  0  0  0  0  0  0
   17.1730   -3.4545  -15.2703 C   0  0  0  0  0  0  0  0  0  0  0  0
   16.7318   -2.3787  -15.7978 O   0  0  0  0  0  0  0  0  0  0  0  0
   18.2966   -3.2893  -14.4760 O   0  0  0  0  0  0  0  0  0  0  0  0
  2 10  1  0
  2  1  1  1
  3  2  1  0
  4  3  1  0
  4  9  2  0
  5  4  1  0
  6  5  2  0
  6  7  1  0
  7  8  2  0
  8  9  1  0
 10 11  2  0
 12 13  1  0
 12 10  1  0
 13 14  1  6
 14 15  1  0
 15 16  1  0
 16 20  1  0
 17 16  2  0
 18 13  1  0
 19 18  2  0
 21 18  1  0
 22 23  1  1
 22 21  1  0
 24 25  1  0
 24 23  1  0
 25 26  1  0
 26 27  1  0
 28 22  1  0
 28 30  1  0
 29 28  2  0
M  END
$$$$
