FEK.pdb
     RDKit          3D

 30 30  0  0  1  0  0  0  0  0999 V2000
   23.4296  -10.5486  -14.5720 N   0  0  0  0  0  0  0  0  0  0  0  0
   22.7097   -9.8000  -15.5628 C   0  0  1  0  0  0  0  0  0  0  0  0
   21.9034  -10.6983  -16.4823 C   0  0  0  0  0  0  0  0  0  0  0  0
   22.8840  -11.3544  -17.3967 C   0  0  0  0  0  0  0  0  0  0  0  0
   23.4578  -12.5554  -17.0761 C   0  0  0  0  0  0  0  0  0  0  0  0
   24.3631  -13.1464  -17.9376 C   0  0  0  0  0  0  0  0  0  0  0  0
   24.6742  -12.5157  -19.1079 C   0  0  0  0  0  0  0  0  0  0  0  0
   24.1156  -11.3184  -19.4492 C   0  0  0  0  0  0  0  0  0  0  0  0
   23.2100  -10.7303  -18.5843 C   0  0  0  0  0  0  0  0  0  0  0  0
   21.8561   -8.7992  -14.8939 C   0  0  0  0  0  0  0  0  0  0  0  0
   21.3062   -9.0959  -13.7859 O   0  0  0  0  0  0  0  0  0  0  0  0
   21.6672   -7.5335  -15.4968 N   0  0  0  0  0  0  0  0  0  0  0  0
   20.8243   -6.5541  -14.7530 C   0  0  1  0  0  0  0  0  0  0  0  0
   21.6391   -5.2848  -14.6606 C   0  0  0  0  0  0  0  0  0  0  0  0
   20.9846   -4.1153  -14.0441 C   0  0  0  0  0  0  0  0  0  0  0  0
   21.8554   -2.9486  -13.9675 C   0  0  0  0  0  0  0  0  0  0  0  0
   21.5407   -1.8594  -14.4881 O   0  0  0  0  0  0  0  0  0  0  0  0
   19.5956   -6.3159  -15.5511 C   0  0  0  0  0  0  0  0  0  0  0  0
   19.7175   -6.2256  -16.8270 O   0  0  0  0  0  0  0  0  0  0  0  0
   23.0644   -3.0437  -13.3017 O   0  0  0  0  0  0  0  0  0  0  0  0
   18.2913   -6.1819  -15.0522 N   0  0  0  0  0  0  0  0  0  0  0  0
   17.1358   -6.0265  -15.9639 C   0  0  1  0  0  0  0  0  0  0  0  0
   16.1324   -7.1009  -15.7093 C   0  0  0  0  0  0  0  0  0  0  0  0
   14.8423   -6.9773  -16.4639 C   0  0  0  0  0  0  0  0  0  0  0  0
   14.0070   -8.2317  -16.1490 C   0  0  0  0  0  0  0  0  0  0  0  0
   12.7779   -8.2709  -17.0409 C   0  0  0  0  0  0  0  0  0  0  0  0
   12.1535   -9.5762  -16.7880 N   0  0  0  0  0  0  0  0  0  0  0  0
   16.5646   -4.6843  -15.7688 C   0  0  0  0  0  0  0  0  0  0  0  0
   16.5306   -4.1453  -14.6120 O   0  0  0  0  0  0  0  0  0  0  0  0
   16.0308   -3.9066  -16.7841 O   0  0  0  0  0  0  0  0  0  0  0  0
  2 10  1  0
  2  1  1  1
  3  2  1  0
  4  3  1  0
  4  9  2  0
  5  4  1  0
  6  5  2  0
  6  7  1  0
  7  8  2  0
  8  9  1  0
 10 11  2  0
 12 13  1  0
 12 10  1  0
 13 14  1  6
 14 15  1  0
 15 16  1  0
 16 20  1  0
 17 16  2  0
 18 13  1  0
 19 18  2  0
 21 18  1  0
 22 23  1  1
 22 21  1  0
 24 25  1  0
 24 23  1  0
 25 26  1  0
 26 27  1  0
 28 22  1  0
 28 30  1  0
 29 28  2  0
M  END
$$$$
