HVS.pdb
     RDKit          3D

 24 24  0  0  1  0  0  0  0  0999 V2000
   23.5162  -12.7355  -19.7575 N   0  0  0  0  0  0  0  0  0  0  0  0
   23.0517  -13.0825  -18.4301 C   0  0  1  0  0  0  0  0  0  0  0  0
   21.6057  -12.7288  -18.3206 C   0  0  0  0  0  0  0  0  0  0  0  0
   21.4710  -11.2498  -18.4901 C   0  0  0  0  0  0  0  0  0  0  0  0
   20.9853  -10.5276  -19.5599 C   0  0  0  0  0  0  0  0  0  0  0  0
   21.0339   -9.2107  -19.3203 N   0  0  0  0  0  0  0  0  0  0  0  0
   21.5552   -9.0900  -18.0869 C   0  0  0  0  0  0  0  0  0  0  0  0
   21.8241  -10.3011  -17.5720 N   0  0  0  0  0  0  0  0  0  0  0  0
   23.3631  -14.4603  -18.0633 C   0  0  0  0  0  0  0  0  0  0  0  0
   23.1022  -15.3929  -18.8491 O   0  0  0  0  0  0  0  0  0  0  0  0
   26.7424  -15.6367  -16.9706 C   0  0  0  0  0  0  0  0  0  0  0  0
   25.7541  -16.1280  -15.9654 C   0  0  1  0  0  0  0  0  0  0  0  0
   25.8552  -15.3354  -14.6832 C   0  0  0  0  0  0  0  0  0  0  0  0
   24.3268  -16.0890  -16.4462 C   0  0  2  0  0  0  0  0  0  0  0  0
   23.9613  -14.7510  -16.8186 N   0  0  0  0  0  0  0  0  0  0  0  0
   23.3857  -16.6768  -15.4576 C   0  0  0  0  0  0  0  0  0  0  0  0
   22.8906  -15.9329  -14.5725 O   0  0  0  0  0  0  0  0  0  0  0  0
   19.3868  -18.3019  -15.5242 O   0  0  0  0  0  0  0  0  0  0  0  0
   20.6238  -17.8122  -15.9422 C   0  0  0  0  0  0  0  0  0  0  0  0
   21.6966  -18.5010  -15.0882 C   0  0  2  0  0  0  0  0  0  0  0  0
   23.0150  -18.0445  -15.4618 N   0  0  0  0  0  0  0  0  0  0  0  0
   21.5629  -19.9679  -15.1674 C   0  0  0  0  0  0  0  0  0  0  0  0
   22.2028  -20.6180  -16.0272 O   0  0  0  0  0  0  0  0  0  0  0  0
   20.7378  -20.6718  -14.3078 O   0  0  0  0  0  0  0  0  0  0  0  0
  2  9  1  0
  2  1  1  6
  3  2  1  0
  4  5  2  0
  4  3  1  0
  6  5  1  0
  7  8  2  0
  7  6  1  0
  8  4  1  0
  9 10  2  0
 12 11  1  6
 12 13  1  0
 14 15  1  1
 14 12  1  0
 15  9  1  0
 16 14  1  0
 17 16  2  0
 18 19  1  0
 20 19  1  6
 20 21  1  0
 21 16  1  0
 22 20  1  0
 22 24  1  0
 23 22  2  0
M  END
$$$$
