HVS.pdb
     RDKit          3D

 24 24  0  0  1  0  0  0  0  0999 V2000
   22.8480  -19.2698  -17.4479 N   0  0  0  0  0  0  0  0  0  0  0  0
   23.4427  -18.5780  -16.3229 C   0  0  1  0  0  0  0  0  0  0  0  0
   22.4354  -17.6354  -15.7529 C   0  0  0  0  0  0  0  0  0  0  0  0
   22.2449  -16.5121  -16.7204 C   0  0  0  0  0  0  0  0  0  0  0  0
   21.1631  -16.2164  -17.5230 C   0  0  0  0  0  0  0  0  0  0  0  0
   21.3863  -15.1172  -18.2552 N   0  0  0  0  0  0  0  0  0  0  0  0
   22.6213  -14.7067  -17.9177 C   0  0  0  0  0  0  0  0  0  0  0  0
   23.1532  -15.5296  -16.9988 N   0  0  0  0  0  0  0  0  0  0  0  0
   24.0345  -19.4877  -15.3471 C   0  0  0  0  0  0  0  0  0  0  0  0
   23.3692  -20.4397  -14.8929 O   0  0  0  0  0  0  0  0  0  0  0  0
   27.6613  -20.8099  -15.8047 C   0  0  0  0  0  0  0  0  0  0  0  0
   27.4515  -20.3964  -14.3857 C   0  0  1  0  0  0  0  0  0  0  0  0
   28.1882  -19.1115  -14.0877 C   0  0  0  0  0  0  0  0  0  0  0  0
   26.0028  -20.2207  -14.0110 C   0  0  2  0  0  0  0  0  0  0  0  0
   25.3627  -19.3000  -14.9084 N   0  0  0  0  0  0  0  0  0  0  0  0
   25.8352  -19.8298  -12.5871 C   0  0  0  0  0  0  0  0  0  0  0  0
   26.2004  -18.6821  -12.2245 O   0  0  0  0  0  0  0  0  0  0  0  0
   23.1890  -21.5442  -10.0927 O   0  0  0  0  0  0  0  0  0  0  0  0
   23.7682  -20.3333   -9.7148 C   0  0  0  0  0  0  0  0  0  0  0  0
   25.2216  -20.3524  -10.2064 C   0  0  2  0  0  0  0  0  0  0  0  0
   25.2801  -20.6920  -11.6091 N   0  0  0  0  0  0  0  0  0  0  0  0
   26.0418  -21.2514   -9.3726 C   0  0  0  0  0  0  0  0  0  0  0  0
   26.6680  -22.2044   -9.8933 O   0  0  0  0  0  0  0  0  0  0  0  0
   26.1494  -21.0792   -8.0037 O   0  0  0  0  0  0  0  0  0  0  0  0
  2  9  1  0
  2  1  1  6
  3  2  1  0
  4  5  2  0
  4  3  1  0
  6  5  1  0
  7  8  2  0
  7  6  1  0
  8  4  1  0
  9 10  2  0
 12 11  1  6
 12 13  1  0
 14 15  1  6
 14 12  1  0
 15  9  1  0
 16 14  1  0
 17 16  2  0
 18 19  1  0
 20 19  1  1
 20 21  1  0
 21 16  1  0
 22 20  1  0
 22 24  1  0
 23 22  2  0
M  END
$$$$
