HVS.pdb
     RDKit          3D

 24 24  0  0  1  0  0  0  0  0999 V2000
   21.1652  -34.2580  -11.0488 N   0  0  0  0  0  0  0  0  0  0  0  0
   21.3225  -33.8146   -9.6789 C   0  0  1  0  0  0  0  0  0  0  0  0
   20.0897  -34.1693   -8.9157 C   0  0  0  0  0  0  0  0  0  0  0  0
   18.9498  -33.3799   -9.4741 C   0  0  0  0  0  0  0  0  0  0  0  0
   18.5874  -32.0704   -9.2380 C   0  0  0  0  0  0  0  0  0  0  0  0
   17.4942  -31.7346   -9.9352 N   0  0  0  0  0  0  0  0  0  0  0  0
   17.1547  -32.8390  -10.6228 C   0  0  0  0  0  0  0  0  0  0  0  0
   18.0149  -33.8367  -10.3602 N   0  0  0  0  0  0  0  0  0  0  0  0
   22.5626  -34.2852   -9.0701 C   0  0  0  0  0  0  0  0  0  0  0  0
   22.9989  -35.4231   -9.3346 O   0  0  0  0  0  0  0  0  0  0  0  0
   26.9604  -33.1843   -7.4455 C   0  0  0  0  0  0  0  0  0  0  0  0
   25.6161  -32.8672   -8.0118 C   0  0  1  0  0  0  0  0  0  0  0  0
   25.6768  -32.7797   -9.5189 C   0  0  0  0  0  0  0  0  0  0  0  0
   24.5456  -33.8555   -7.6280 C   0  0  2  0  0  0  0  0  0  0  0  0
   23.2794  -33.4593   -8.1779 N   0  0  0  0  0  0  0  0  0  0  0  0
   24.4807  -34.0696   -6.1588 C   0  0  0  0  0  0  0  0  0  0  0  0
   23.9797  -33.1713   -5.4349 O   0  0  0  0  0  0  0  0  0  0  0  0
   25.1030  -37.0381   -2.3681 O   0  0  0  0  0  0  0  0  0  0  0  0
   25.3107  -36.8809   -3.7380 C   0  0  0  0  0  0  0  0  0  0  0  0
   24.8943  -35.4488   -4.0988 C   0  0  2  0  0  0  0  0  0  0  0  0
   24.9589  -35.2445   -5.5272 N   0  0  0  0  0  0  0  0  0  0  0  0
   25.7020  -34.4673   -3.3504 C   0  0  0  0  0  0  0  0  0  0  0  0
   26.8137  -34.0919   -3.7916 O   0  0  0  0  0  0  0  0  0  0  0  0
   25.2694  -33.9314   -2.1500 O   0  0  0  0  0  0  0  0  0  0  0  0
  2  9  1  0
  2  1  1  6
  3  2  1  0
  4  5  2  0
  4  3  1  0
  6  5  1  0
  7  8  2  0
  7  6  1  0
  8  4  1  0
  9 10  2  0
 12 11  1  6
 12 13  1  0
 14 15  1  1
 14 12  1  0
 15  9  1  0
 16 14  1  0
 17 16  2  0
 18 19  1  0
 20 19  1  6
 20 21  1  0
 21 16  1  0
 22 20  1  0
 22 24  1  0
 23 22  2  0
M  END
$$$$
