HVS.pdb
     RDKit          3D

 24 24  0  0  1  0  0  0  0  0999 V2000
   19.2830  -12.2198  -17.7076 N   0  0  0  0  0  0  0  0  0  0  0  0
   19.0908  -11.2285  -16.6691 C   0  0  1  0  0  0  0  0  0  0  0  0
   19.1123  -11.9132  -15.3430 C   0  0  0  0  0  0  0  0  0  0  0  0
   17.9328  -12.8284  -15.2690 C   0  0  0  0  0  0  0  0  0  0  0  0
   16.5884  -12.5274  -15.2069 C   0  0  0  0  0  0  0  0  0  0  0  0
   15.8429  -13.6387  -15.1493 N   0  0  0  0  0  0  0  0  0  0  0  0
   16.7183  -14.6589  -15.1747 C   0  0  0  0  0  0  0  0  0  0  0  0
   17.9766  -14.1941  -15.2463 N   0  0  0  0  0  0  0  0  0  0  0  0
   20.0153  -10.1048  -16.7807 C   0  0  0  0  0  0  0  0  0  0  0  0
   21.2461  -10.2970  -16.7223 O   0  0  0  0  0  0  0  0  0  0  0  0
   20.5548   -8.0724  -19.6502 C   0  0  0  0  0  0  0  0  0  0  0  0
   20.2097   -7.1164  -18.5568 C   0  0  1  0  0  0  0  0  0  0  0  0
   18.7805   -6.6449  -18.6889 C   0  0  0  0  0  0  0  0  0  0  0  0
   20.4072   -7.6780  -17.1727 C   0  0  2  0  0  0  0  0  0  0  0  0
   19.5273   -8.7921  -16.9553 N   0  0  0  0  0  0  0  0  0  0  0  0
   20.2709   -6.6375  -16.1206 C   0  0  0  0  0  0  0  0  0  0  0  0
   19.1189   -6.2714  -15.7729 O   0  0  0  0  0  0  0  0  0  0  0  0
   22.3021   -6.6090  -12.8762 O   0  0  0  0  0  0  0  0  0  0  0  0
   22.3992   -5.3103  -13.3747 C   0  0  0  0  0  0  0  0  0  0  0  0
   21.2488   -5.1197  -14.3720 C   0  0  2  0  0  0  0  0  0  0  0  0
   21.3826   -6.0318  -15.4839 N   0  0  0  0  0  0  0  0  0  0  0  0
   21.1612   -3.7118  -14.8034 C   0  0  0  0  0  0  0  0  0  0  0  0
   21.7095   -3.3386  -15.8672 O   0  0  0  0  0  0  0  0  0  0  0  0
   20.4803   -2.7631  -14.0607 O   0  0  0  0  0  0  0  0  0  0  0  0
  2  9  1  0
  2  1  1  6
  3  2  1  0
  4  5  2  0
  4  3  1  0
  6  5  1  0
  7  8  2  0
  7  6  1  0
  8  4  1  0
  9 10  2  0
 12 11  1  6
 12 13  1  0
 14 15  1  1
 14 12  1  0
 15  9  1  0
 16 14  1  0
 17 16  2  0
 18 19  1  0
 20 19  1  1
 20 21  1  0
 21 16  1  0
 22 20  1  0
 22 24  1  0
 23 22  2  0
M  END
$$$$
