HVS.pdb
     RDKit          3D

 24 24  0  0  1  0  0  0  0  0999 V2000
   19.7315  -14.0490  -15.8188 N   0  0  0  0  0  0  0  0  0  0  0  0
   19.0513  -12.8274  -16.1970 C   0  0  1  0  0  0  0  0  0  0  0  0
   17.5788  -13.0431  -16.0813 C   0  0  0  0  0  0  0  0  0  0  0  0
   17.1633  -14.0153  -17.1379 C   0  0  0  0  0  0  0  0  0  0  0  0
   16.8693  -15.3584  -17.0308 C   0  0  0  0  0  0  0  0  0  0  0  0
   16.5376  -15.8803  -18.2189 N   0  0  0  0  0  0  0  0  0  0  0  0
   16.6202  -14.8620  -19.0930 C   0  0  0  0  0  0  0  0  0  0  0  0
   16.9939  -13.7351  -18.4647 N   0  0  0  0  0  0  0  0  0  0  0  0
   19.5459  -11.6578  -15.4778 C   0  0  0  0  0  0  0  0  0  0  0  0
   19.3859  -11.5657  -14.2445 O   0  0  0  0  0  0  0  0  0  0  0  0
   22.8121  -10.8384  -14.7658 C   0  0  0  0  0  0  0  0  0  0  0  0
   22.3046   -9.6323  -15.4841 C   0  0  1  0  0  0  0  0  0  0  0  0
   22.7887   -9.6179  -16.9152 C   0  0  0  0  0  0  0  0  0  0  0  0
   20.8030   -9.5092  -15.4809 C   0  0  2  0  0  0  0  0  0  0  0  0
   20.2090  -10.6211  -16.1689 N   0  0  0  0  0  0  0  0  0  0  0  0
   20.3462   -8.2022  -16.0208 C   0  0  0  0  0  0  0  0  0  0  0  0
   20.4284   -7.9932  -17.2584 O   0  0  0  0  0  0  0  0  0  0  0  0
   18.2466   -5.4963  -13.7161 O   0  0  0  0  0  0  0  0  0  0  0  0
   18.0893   -5.4382  -15.1004 C   0  0  0  0  0  0  0  0  0  0  0  0
   19.4165   -5.8855  -15.7272 C   0  0  2  0  0  0  0  0  0  0  0  0
   19.8184   -7.1708  -15.2049 N   0  0  0  0  0  0  0  0  0  0  0  0
   20.4532   -4.8521  -15.5448 C   0  0  0  0  0  0  0  0  0  0  0  0
   20.2719   -3.6884  -15.9745 O   0  0  0  0  0  0  0  0  0  0  0  0
   21.6480   -5.1240  -14.9018 O   0  0  0  0  0  0  0  0  0  0  0  0
  2  9  1  0
  2  1  1  1
  3  2  1  0
  4  5  2  0
  4  3  1  0
  6  5  1  0
  7  8  2  0
  7  6  1  0
  8  4  1  0
  9 10  2  0
 12 11  1  6
 12 13  1  0
 14 15  1  6
 14 12  1  0
 15  9  1  0
 16 14  1  0
 17 16  2  0
 18 19  1  0
 20 19  1  1
 20 21  1  0
 21 16  1  0
 22 20  1  0
 22 24  1  0
 23 22  2  0
M  END
$$$$
