HVS.pdb
     RDKit          3D

 24 24  0  0  1  0  0  0  0  0999 V2000
   32.2611  -28.0760  -18.9439 N   0  0  0  0  0  0  0  0  0  0  0  0
   31.9336  -29.4343  -18.5623 C   0  0  1  0  0  0  0  0  0  0  0  0
   33.0507  -29.9833  -17.7384 C   0  0  0  0  0  0  0  0  0  0  0  0
   34.2437  -30.1559  -18.6222 C   0  0  0  0  0  0  0  0  0  0  0  0
   34.4411  -31.0263  -19.6735 C   0  0  0  0  0  0  0  0  0  0  0  0
   35.6568  -30.8698  -20.2134 N   0  0  0  0  0  0  0  0  0  0  0  0
   36.2417  -29.8910  -19.5010 C   0  0  0  0  0  0  0  0  0  0  0  0
   35.4109  -29.4496  -18.5422 N   0  0  0  0  0  0  0  0  0  0  0  0
   30.6174  -29.5466  -17.9418 C   0  0  0  0  0  0  0  0  0  0  0  0
   30.2135  -28.6605  -17.1628 O   0  0  0  0  0  0  0  0  0  0  0  0
   27.6263  -28.9377  -19.2085 C   0  0  0  0  0  0  0  0  0  0  0  0
   27.4499  -30.3400  -18.7281 C   0  0  1  0  0  0  0  0  0  0  0  0
   27.5109  -31.3131  -19.8822 C   0  0  0  0  0  0  0  0  0  0  0  0
   28.4578  -30.7586  -17.6894 C   0  0  2  0  0  0  0  0  0  0  0  0
   29.7900  -30.6565  -18.2162 N   0  0  0  0  0  0  0  0  0  0  0  0
   28.1698  -32.1094  -17.1408 C   0  0  0  0  0  0  0  0  0  0  0  0
   28.5005  -33.1211  -17.8109 O   0  0  0  0  0  0  0  0  0  0  0  0
   25.7705  -32.6302  -13.8377 O   0  0  0  0  0  0  0  0  0  0  0  0
   26.8305  -33.5350  -13.8853 C   0  0  0  0  0  0  0  0  0  0  0  0
   27.2798  -33.6311  -15.3493 C   0  0  2  0  0  0  0  0  0  0  0  0
   27.5360  -32.3167  -15.8904 N   0  0  0  0  0  0  0  0  0  0  0  0
   26.2974  -34.3890  -16.1471 C   0  0  0  0  0  0  0  0  0  0  0  0
   26.0696  -35.5955  -15.8940 O   0  0  0  0  0  0  0  0  0  0  0  0
   25.5998  -33.8053  -17.1901 O   0  0  0  0  0  0  0  0  0  0  0  0
  2  9  1  0
  2  1  1  1
  3  2  1  0
  4  5  2  0
  4  3  1  0
  6  5  1  0
  7  8  2  0
  7  6  1  0
  8  4  1  0
  9 10  2  0
 12 11  1  6
 12 13  1  0
 14 15  1  6
 14 12  1  0
 15  9  1  0
 16 14  1  0
 17 16  2  0
 18 19  1  0
 20 19  1  1
 20 21  1  0
 21 16  1  0
 22 20  1  0
 22 24  1  0
 23 22  2  0
M  END
$$$$
