HVS.pdb
     RDKit          3D

 24 24  0  0  1  0  0  0  0  0999 V2000
   30.2675  -23.0196  -17.6022 N   0  0  0  0  0  0  0  0  0  0  0  0
   28.8672  -22.6886  -17.4359 C   0  0  1  0  0  0  0  0  0  0  0  0
   28.0501  -23.9049  -17.7202 C   0  0  0  0  0  0  0  0  0  0  0  0
   27.9755  -24.0831  -19.2025 C   0  0  0  0  0  0  0  0  0  0  0  0
   28.2648  -25.1911  -19.9709 C   0  0  0  0  0  0  0  0  0  0  0  0
   28.0714  -24.9444  -21.2731 N   0  0  0  0  0  0  0  0  0  0  0  0
   27.6548  -23.6677  -21.3377 C   0  0  0  0  0  0  0  0  0  0  0  0
   27.5907  -23.1335  -20.1069 N   0  0  0  0  0  0  0  0  0  0  0  0
   28.5826  -22.0603  -16.1497 C   0  0  0  0  0  0  0  0  0  0  0  0
   29.2582  -22.3559  -15.1440 O   0  0  0  0  0  0  0  0  0  0  0  0
   28.2943  -18.2898  -15.7084 C   0  0  0  0  0  0  0  0  0  0  0  0
   27.1101  -18.9386  -15.0720 C   0  0  1  0  0  0  0  0  0  0  0  0
   25.8754  -18.7511  -15.9221 C   0  0  0  0  0  0  0  0  0  0  0  0
   27.2933  -20.4100  -14.8041 C   0  0  2  0  0  0  0  0  0  0  0  0
   27.5423  -21.1140  -16.0309 N   0  0  0  0  0  0  0  0  0  0  0  0
   26.1549  -20.9874  -14.0431 C   0  0  0  0  0  0  0  0  0  0  0  0
   25.1315  -21.3622  -14.6708 O   0  0  0  0  0  0  0  0  0  0  0  0
   25.8406  -20.5450   -9.9229 O   0  0  0  0  0  0  0  0  0  0  0  0
   25.3637  -21.7637  -10.4047 C   0  0  0  0  0  0  0  0  0  0  0  0
   25.0049  -21.5584  -11.8824 C   0  0  2  0  0  0  0  0  0  0  0  0
   26.1645  -21.1383  -12.6341 N   0  0  0  0  0  0  0  0  0  0  0  0
   23.8735  -20.6218  -12.0185 C   0  0  0  0  0  0  0  0  0  0  0  0
   24.0500  -19.4794  -12.5036 O   0  0  0  0  0  0  0  0  0  0  0  0
   22.5926  -20.9638  -11.6216 O   0  0  0  0  0  0  0  0  0  0  0  0
  2  9  1  0
  2  1  1  1
  3  2  1  0
  4  5  2  0
  4  3  1  0
  6  5  1  0
  7  8  2  0
  7  6  1  0
  8  4  1  0
  9 10  2  0
 12 11  1  6
 12 13  1  0
 14 15  1  6
 14 12  1  0
 15  9  1  0
 16 14  1  0
 17 16  2  0
 18 19  1  0
 20 19  1  1
 20 21  1  0
 21 16  1  0
 22 20  1  0
 22 24  1  0
 23 22  2  0
M  END
$$$$
