HVS.pdb
     RDKit          3D

 24 24  0  0  1  0  0  0  0  0999 V2000
   19.5253  -11.9822  -17.9152 N   0  0  0  0  0  0  0  0  0  0  0  0
   18.8717  -11.7031  -16.6530 C   0  0  1  0  0  0  0  0  0  0  0  0
   18.3622  -12.9851  -16.0832 C   0  0  0  0  0  0  0  0  0  0  0  0
   17.3838  -13.5712  -17.0494 C   0  0  0  0  0  0  0  0  0  0  0  0
   16.0507  -13.2743  -17.2403 C   0  0  0  0  0  0  0  0  0  0  0  0
   15.5181  -14.0287  -18.2104 N   0  0  0  0  0  0  0  0  0  0  0  0
   16.5193  -14.8147  -18.6433 C   0  0  0  0  0  0  0  0  0  0  0  0
   17.6464  -14.5559  -17.9599 N   0  0  0  0  0  0  0  0  0  0  0  0
   19.7085  -10.9301  -15.7407 C   0  0  0  0  0  0  0  0  0  0  0  0
   19.3353  -10.7252  -14.5686 O   0  0  0  0  0  0  0  0  0  0  0  0
   24.1398   -9.2268  -14.5764 C   0  0  0  0  0  0  0  0  0  0  0  0
   23.1942  -10.0831  -15.3515 C   0  0  1  0  0  0  0  0  0  0  0  0
   23.2310  -11.5088  -14.8529 C   0  0  0  0  0  0  0  0  0  0  0  0
   21.7684   -9.5971  -15.3207 C   0  0  2  0  0  0  0  0  0  0  0  0
   20.9457  -10.4077  -16.1745 N   0  0  0  0  0  0  0  0  0  0  0  0
   21.6620   -8.1502  -15.6425 C   0  0  0  0  0  0  0  0  0  0  0  0
   21.9629   -7.7609  -16.8000 O   0  0  0  0  0  0  0  0  0  0  0  0
   19.8935   -3.8017  -14.8701 O   0  0  0  0  0  0  0  0  0  0  0  0
   19.8674   -5.1536  -14.5292 C   0  0  0  0  0  0  0  0  0  0  0  0
   21.1933   -5.7660  -14.9998 C   0  0  2  0  0  0  0  0  0  0  0  0
   21.2350   -7.1790  -14.7031 N   0  0  0  0  0  0  0  0  0  0  0  0
   22.3380   -5.0339  -14.4256 C   0  0  0  0  0  0  0  0  0  0  0  0
   22.7034   -5.2513  -13.2463 O   0  0  0  0  0  0  0  0  0  0  0  0
   23.0418   -4.0929  -15.1564 O   0  0  0  0  0  0  0  0  0  0  0  0
  2  9  1  0
  2  1  1  6
  3  2  1  0
  4  5  2  0
  4  3  1  0
  6  5  1  0
  7  8  2  0
  7  6  1  0
  8  4  1  0
  9 10  2  0
 12 11  1  1
 12 13  1  0
 14 15  1  6
 14 12  1  0
 15  9  1  0
 16 14  1  0
 17 16  2  0
 18 19  1  0
 20 19  1  1
 20 21  1  0
 21 16  1  0
 22 20  1  0
 22 24  1  0
 23 22  2  0
M  END
$$$$
