HVS.pdb
     RDKit          3D

 24 24  0  0  1  0  0  0  0  0999 V2000
   19.4032  -12.3199  -18.4729 N   0  0  0  0  0  0  0  0  0  0  0  0
   20.0080  -11.0040  -18.5031 C   0  0  1  0  0  0  0  0  0  0  0  0
   19.3225  -10.1852  -19.5459 C   0  0  0  0  0  0  0  0  0  0  0  0
   19.6448  -10.7666  -20.8848 C   0  0  0  0  0  0  0  0  0  0  0  0
   20.7401  -11.5038  -21.2830 C   0  0  0  0  0  0  0  0  0  0  0  0
   20.6563  -11.8398  -22.5769 N   0  0  0  0  0  0  0  0  0  0  0  0
   19.4975  -11.3128  -23.0095 C   0  0  0  0  0  0  0  0  0  0  0  0
   18.8760  -10.6653  -22.0101 N   0  0  0  0  0  0  0  0  0  0  0  0
   20.0643  -10.3763  -17.1868 C   0  0  0  0  0  0  0  0  0  0  0  0
   19.0985  -10.4730  -16.4038 O   0  0  0  0  0  0  0  0  0  0  0  0
   22.0946  -11.3175  -14.5957 C   0  0  0  0  0  0  0  0  0  0  0  0
   22.3527   -9.8490  -14.6671 C   0  0  1  0  0  0  0  0  0  0  0  0
   23.7228   -9.5733  -15.2409 C   0  0  0  0  0  0  0  0  0  0  0  0
   21.3301   -9.0900  -15.4722 C   0  0  2  0  0  0  0  0  0  0  0  0
   21.2097   -9.6551  -16.7871 N   0  0  0  0  0  0  0  0  0  0  0  0
   21.6146   -7.6318  -15.5085 C   0  0  0  0  0  0  0  0  0  0  0  0
   22.5176   -7.2073  -16.2742 O   0  0  0  0  0  0  0  0  0  0  0  0
   20.3222   -3.0987  -14.7388 O   0  0  0  0  0  0  0  0  0  0  0  0
   19.9411   -4.4393  -14.6933 C   0  0  0  0  0  0  0  0  0  0  0  0
   21.2261   -5.2775  -14.7189 C   0  0  2  0  0  0  0  0  0  0  0  0
   20.9140   -6.6878  -14.7173 N   0  0  0  0  0  0  0  0  0  0  0  0
   22.1196   -4.8951  -13.6092 C   0  0  0  0  0  0  0  0  0  0  0  0
   22.1118   -5.5430  -12.5360 O   0  0  0  0  0  0  0  0  0  0  0  0
   22.9879   -3.8222  -13.7093 O   0  0  0  0  0  0  0  0  0  0  0  0
  2  9  1  0
  2  1  1  1
  3  2  1  0
  4  5  2  0
  4  3  1  0
  6  5  1  0
  7  8  2  0
  7  6  1  0
  8  4  1  0
  9 10  2  0
 12 11  1  6
 12 13  1  0
 14 15  1  6
 14 12  1  0
 15  9  1  0
 16 14  1  0
 17 16  2  0
 18 19  1  0
 20 19  1  1
 20 21  1  0
 21 16  1  0
 22 20  1  0
 22 24  1  0
 23 22  2  0
M  END
$$$$
