TPC.pdb
     RDKit          3D

 21 21  0  0  1  0  0  0  0  0999 V2000
   19.6760  -10.5207  -19.1762 C   0  0  0  0  0  0  0  0  0  0  0  0
   19.0348  -11.5575  -18.2897 C   0  0  1  0  0  0  0  0  0  0  0  0
   18.7230  -12.6459  -19.1394 O   0  0  0  0  0  0  0  0  0  0  0  0
   20.0005  -12.0492  -17.1933 C   0  0  2  0  0  0  0  0  0  0  0  0
   19.4632  -13.2644  -16.7135 N   0  0  0  0  0  0  0  0  0  0  0  0
   20.2470  -10.9698  -16.2380 C   0  0  0  0  0  0  0  0  0  0  0  0
   19.3091  -10.0957  -16.2123 O   0  0  0  0  0  0  0  0  0  0  0  0
   21.3266  -10.7679  -15.3787 N   0  0  0  0  0  0  0  0  0  0  0  0
   21.9841  -11.8055  -14.5222 C   0  0  0  0  0  0  0  0  0  0  0  0
   23.4672  -11.5117  -14.8109 C   0  0  0  0  0  0  0  0  0  0  0  0
   23.4887  -10.1536  -15.5126 C   0  0  0  0  0  0  0  0  0  0  0  0
   22.1252   -9.6340  -15.0185 C   0  0  1  0  0  0  0  0  0  0  0  0
   21.8266   -8.3169  -15.4511 C   0  0  0  0  0  0  0  0  0  0  0  0
   21.6604   -7.9327  -16.6035 O   0  0  0  0  0  0  0  0  0  0  0  0
   21.6984   -7.2913  -14.4335 N   0  0  0  0  0  0  0  0  0  0  0  0
   21.5126   -5.9234  -14.7947 C   0  0  1  0  0  0  0  0  0  0  0  0
   20.0683   -5.4679  -14.5999 C   0  0  0  0  0  0  0  0  0  0  0  0
   20.0377   -3.6771  -14.9835 S   0  0  0  0  0  0  0  0  0  0  0  0
   22.3512   -5.0652  -13.9407 C   0  0  0  0  0  0  0  0  0  0  0  0
   22.4600   -5.3036  -12.7326 O   0  0  0  0  0  0  0  0  0  0  0  0
   23.0063   -3.9944  -14.5303 O   0  0  0  0  0  0  0  0  0  0  0  0
  2  1  1  6
  2  3  1  0
  4  2  1  0
  4  5  1  1
  6  4  1  0
  6  7  2  0
  8  6  1  0
  9  8  1  0
 10 11  1  0
 10  9  1  0
 11 12  1  0
 12  8  1  0
 12 13  1  6
 13 15  1  0
 14 13  2  0
 15 16  1  0
 16 19  1  0
 16 17  1  1
 17 18  1  0
 19 20  2  0
 19 21  1  0
M  END
$$$$
