TPC.pdb
     RDKit          3D

 21 21  0  0  1  0  0  0  0  0999 V2000
   23.8562  -11.0183  -20.2364 C   0  0  0  0  0  0  0  0  0  0  0  0
   23.4765  -12.3028  -19.5452 C   0  0  1  0  0  0  0  0  0  0  0  0
   23.7759  -13.3348  -20.4666 O   0  0  0  0  0  0  0  0  0  0  0  0
   24.3044  -12.5299  -18.2648 C   0  0  2  0  0  0  0  0  0  0  0  0
   24.2073  -13.9090  -17.9743 N   0  0  0  0  0  0  0  0  0  0  0  0
   23.8946  -11.5704  -17.2402 C   0  0  0  0  0  0  0  0  0  0  0  0
   22.6312  -11.3515  -17.2313 O   0  0  0  0  0  0  0  0  0  0  0  0
   24.6644  -10.8840  -16.3015 N   0  0  0  0  0  0  0  0  0  0  0  0
   25.7927  -11.4498  -15.4958 C   0  0  0  0  0  0  0  0  0  0  0  0
   26.8458  -10.3401  -15.6662 C   0  0  0  0  0  0  0  0  0  0  0  0
   26.0926   -9.1441  -16.2488 C   0  0  0  0  0  0  0  0  0  0  0  0
   24.6741   -9.5422  -15.7986 C   0  0  1  0  0  0  0  0  0  0  0  0
   23.6803   -8.5890  -16.1369 C   0  0  0  0  0  0  0  0  0  0  0  0
   23.3750   -8.1995  -17.2587 O   0  0  0  0  0  0  0  0  0  0  0  0
   22.9268   -7.9935  -15.0500 N   0  0  0  0  0  0  0  0  0  0  0  0
   21.9951   -6.9415  -15.2978 C   0  0  1  0  0  0  0  0  0  0  0  0
   20.6392   -7.2088  -14.6485 C   0  0  0  0  0  0  0  0  0  0  0  0
   19.5918   -5.7548  -15.0276 S   0  0  0  0  0  0  0  0  0  0  0  0
   22.5028   -5.6826  -14.7264 C   0  0  0  0  0  0  0  0  0  0  0  0
   23.0146   -5.6702  -13.6012 O   0  0  0  0  0  0  0  0  0  0  0  0
   22.3887   -4.5264  -15.4839 O   0  0  0  0  0  0  0  0  0  0  0  0
  2  1  1  6
  2  3  1  0
  4  2  1  0
  4  5  1  1
  6  4  1  0
  6  7  2  0
  8  6  1  0
  9  8  1  0
 10 11  1  0
 10  9  1  0
 11 12  1  0
 12  8  1  0
 12 13  1  6
 13 15  1  0
 14 13  2  0
 15 16  1  0
 16 19  1  0
 16 17  1  1
 17 18  1  0
 19 20  2  0
 19 21  1  0
M  END
$$$$
