TPC.pdb
     RDKit          3D

 21 21  0  0  1  0  0  0  0  0999 V2000
   11.0490  -12.0555  -12.2959 C   0  0  0  0  0  0  0  0  0  0  0  0
   11.9856  -11.0437  -11.6869 C   0  0  1  0  0  0  0  0  0  0  0  0
   11.1556  -10.0327  -11.1459 O   0  0  0  0  0  0  0  0  0  0  0  0
   12.8250  -11.6543  -10.5472 C   0  0  2  0  0  0  0  0  0  0  0  0
   11.9160  -12.3517   -9.7207 N   0  0  0  0  0  0  0  0  0  0  0  0
   13.6612  -10.6168   -9.9449 C   0  0  0  0  0  0  0  0  0  0  0  0
   13.0329   -9.8965   -9.0901 O   0  0  0  0  0  0  0  0  0  0  0  0
   15.0045  -10.3138  -10.1652 N   0  0  0  0  0  0  0  0  0  0  0  0
   16.1205  -11.2990  -10.3276 C   0  0  0  0  0  0  0  0  0  0  0  0
   16.8382  -10.7126  -11.5566 C   0  0  0  0  0  0  0  0  0  0  0  0
   16.2642   -9.3072  -11.7367 C   0  0  0  0  0  0  0  0  0  0  0  0
   15.7509   -9.0980  -10.2993 C   0  0  1  0  0  0  0  0  0  0  0  0
   15.1798   -7.8189  -10.0786 C   0  0  0  0  0  0  0  0  0  0  0  0
   14.2407   -7.3102  -10.6807 O   0  0  0  0  0  0  0  0  0  0  0  0
   15.7548   -7.0017   -9.0273 N   0  0  0  0  0  0  0  0  0  0  0  0
   15.2990   -5.6675   -8.8075 C   0  0  1  0  0  0  0  0  0  0  0  0
   15.2655   -5.3078   -7.3240 C   0  0  0  0  0  0  0  0  0  0  0  0
   14.6275   -3.5937   -7.2246 S   0  0  0  0  0  0  0  0  0  0  0  0
   16.2149   -4.7155   -9.4585 C   0  0  0  0  0  0  0  0  0  0  0  0
   17.4336   -4.9226   -9.4575 O   0  0  0  0  0  0  0  0  0  0  0  0
   15.6707   -3.5931  -10.0648 O   0  0  0  0  0  0  0  0  0  0  0  0
  2  1  1  1
  2  3  1  0
  4  2  1  0
  4  5  1  1
  6  4  1  0
  6  7  2  0
  8  6  1  0
  9  8  1  0
 10 11  1  0
 10  9  1  0
 11 12  1  0
 12  8  1  0
 12 13  1  6
 13 15  1  0
 14 13  2  0
 15 16  1  0
 16 19  1  0
 16 17  1  1
 17 18  1  0
 19 20  2  0
 19 21  1  0
M  END
$$$$
