TPC.pdb
     RDKit          3D

 21 21  0  0  1  0  0  0  0  0999 V2000
   18.3547  -10.2986  -18.5237 C   0  0  0  0  0  0  0  0  0  0  0  0
   18.6202  -11.5165  -17.6763 C   0  0  1  0  0  0  0  0  0  0  0  0
   18.0665  -12.6062  -18.3904 O   0  0  0  0  0  0  0  0  0  0  0  0
   20.1300  -11.7658  -17.4899 C   0  0  2  0  0  0  0  0  0  0  0  0
   20.2558  -13.1036  -17.0540 N   0  0  0  0  0  0  0  0  0  0  0  0
   20.7028  -10.7053  -16.6619 C   0  0  0  0  0  0  0  0  0  0  0  0
   19.8582  -10.1924  -15.8446 O   0  0  0  0  0  0  0  0  0  0  0  0
   21.9995  -10.1926  -16.6395 N   0  0  0  0  0  0  0  0  0  0  0  0
   23.2658  -10.9769  -16.7941 C   0  0  0  0  0  0  0  0  0  0  0  0
   24.0235  -10.0943  -17.8022 C   0  0  0  0  0  0  0  0  0  0  0  0
   23.2641   -8.7680  -17.8400 C   0  0  0  0  0  0  0  0  0  0  0  0
   22.5594   -8.8839  -16.4749 C   0  0  1  0  0  0  0  0  0  0  0  0
   21.7754   -7.7507  -16.1404 C   0  0  0  0  0  0  0  0  0  0  0  0
   20.7863   -7.3304  -16.7306 O   0  0  0  0  0  0  0  0  0  0  0  0
   22.1685   -6.9863  -14.9721 N   0  0  0  0  0  0  0  0  0  0  0  0
   21.5246   -5.7528  -14.6557 C   0  0  1  0  0  0  0  0  0  0  0  0
   20.9501   -5.7499  -13.2410 C   0  0  0  0  0  0  0  0  0  0  0  0
   20.3330   -4.0517  -12.9401 S   0  0  0  0  0  0  0  0  0  0  0  0
   22.4993   -4.6510  -14.7244 C   0  0  0  0  0  0  0  0  0  0  0  0
   22.1288   -3.5077  -15.0138 O   0  0  0  0  0  0  0  0  0  0  0  0
   23.8301   -4.9359  -14.4569 O   0  0  0  0  0  0  0  0  0  0  0  0
  2  1  1  6
  2  3  1  0
  4  2  1  0
  4  5  1  1
  6  4  1  0
  6  7  2  0
  8  6  1  0
  9  8  1  0
 10 11  1  0
 10  9  1  0
 11 12  1  0
 12  8  1  0
 12 13  1  6
 13 15  1  0
 14 13  2  0
 15 16  1  0
 16 19  1  0
 16 17  1  1
 17 18  1  0
 19 20  2  0
 19 21  1  0
M  END
$$$$
