TPC.pdb
     RDKit          3D

 21 21  0  0  1  0  0  0  0  0999 V2000
   16.2185  -10.4006  -11.5930 C   0  0  0  0  0  0  0  0  0  0  0  0
   14.7453  -10.6994  -11.4829 C   0  0  1  0  0  0  0  0  0  0  0  0
   14.6471  -12.1090  -11.3981 O   0  0  0  0  0  0  0  0  0  0  0  0
   14.1305  -10.0852  -10.2097 C   0  0  2  0  0  0  0  0  0  0  0  0
   12.8960  -10.7434  -10.0132 N   0  0  0  0  0  0  0  0  0  0  0  0
   14.1341   -8.6269  -10.3186 C   0  0  0  0  0  0  0  0  0  0  0  0
   14.1284   -8.2122  -11.5320 O   0  0  0  0  0  0  0  0  0  0  0  0
   14.1419   -7.6572   -9.3164 N   0  0  0  0  0  0  0  0  0  0  0  0
   13.3596   -7.6950   -8.0400 C   0  0  0  0  0  0  0  0  0  0  0  0
   14.4483   -7.2917   -7.0294 C   0  0  0  0  0  0  0  0  0  0  0  0
   15.6071   -6.7505   -7.8669 C   0  0  0  0  0  0  0  0  0  0  0  0
   14.8100   -6.4021   -9.1384 C   0  0  1  0  0  0  0  0  0  0  0  0
   15.5937   -5.7994  -10.1550 C   0  0  0  0  0  0  0  0  0  0  0  0
   16.7304   -6.1059  -10.4975 O   0  0  0  0  0  0  0  0  0  0  0  0
   15.0056   -4.6932  -10.8858 N   0  0  0  0  0  0  0  0  0  0  0  0
   15.7666   -3.9692  -11.8516 C   0  0  1  0  0  0  0  0  0  0  0  0
   15.1290   -4.0146  -13.2383 C   0  0  0  0  0  0  0  0  0  0  0  0
   15.2796   -5.7458  -13.8172 S   0  0  0  0  0  0  0  0  0  0  0  0
   15.8442   -2.5510  -11.4622 C   0  0  0  0  0  0  0  0  0  0  0  0
   14.9901   -2.0621  -10.7140 O   0  0  0  0  0  0  0  0  0  0  0  0
   16.8944   -1.7922  -11.9570 O   0  0  0  0  0  0  0  0  0  0  0  0
  2  1  1  1
  2  3  1  0
  4  2  1  0
  4  5  1  6
  6  4  1  0
  6  7  2  0
  8  6  1  0
  9  8  1  0
 10 11  1  0
 10  9  1  0
 11 12  1  0
 12  8  1  0
 12 13  1  6
 13 15  1  0
 14 13  2  0
 15 16  1  0
 16 19  1  0
 16 17  1  6
 17 18  1  0
 19 20  2  0
 19 21  1  0
M  END
$$$$
