TPC.pdb
     RDKit          3D

 21 21  0  0  1  0  0  0  0  0999 V2000
   18.8962   -8.6774  -17.6756 C   0  0  0  0  0  0  0  0  0  0  0  0
   18.5746   -8.3972  -16.2299 C   0  0  1  0  0  0  0  0  0  0  0  0
   17.3178   -9.0044  -15.9941 O   0  0  0  0  0  0  0  0  0  0  0  0
   19.6124   -9.0276  -15.2802 C   0  0  2  0  0  0  0  0  0  0  0  0
   19.7134  -10.3858  -15.6554 N   0  0  0  0  0  0  0  0  0  0  0  0
   19.2655   -8.7100  -13.8956 C   0  0  0  0  0  0  0  0  0  0  0  0
   18.2143   -9.3201  -13.4869 O   0  0  0  0  0  0  0  0  0  0  0  0
   19.9010   -7.8629  -12.9883 N   0  0  0  0  0  0  0  0  0  0  0  0
   21.3780   -7.7413  -12.7736 C   0  0  0  0  0  0  0  0  0  0  0  0
   21.5361   -6.2103  -12.7570 C   0  0  0  0  0  0  0  0  0  0  0  0
   20.1192   -5.6518  -12.6229 C   0  0  0  0  0  0  0  0  0  0  0  0
   19.4498   -6.9035  -12.0243 C   0  0  1  0  0  0  0  0  0  0  0  0
   18.0797   -6.7205  -11.7075 C   0  0  0  0  0  0  0  0  0  0  0  0
   17.1697   -6.4374  -12.4789 O   0  0  0  0  0  0  0  0  0  0  0  0
   17.6863   -6.8811  -10.3207 N   0  0  0  0  0  0  0  0  0  0  0  0
   16.3436   -6.6296   -9.9086 C   0  0  1  0  0  0  0  0  0  0  0  0
   16.0576   -7.1782   -8.5127 C   0  0  0  0  0  0  0  0  0  0  0  0
   14.2920   -6.8279   -8.1741 S   0  0  0  0  0  0  0  0  0  0  0  0
   16.1033   -5.1776   -9.8556 C   0  0  0  0  0  0  0  0  0  0  0  0
   16.9426   -4.4247   -9.3485 O   0  0  0  0  0  0  0  0  0  0  0  0
   14.9188   -4.6897  -10.3869 O   0  0  0  0  0  0  0  0  0  0  0  0
  2  1  1  6
  2  3  1  0
  4  2  1  0
  4  5  1  1
  6  4  1  0
  6  7  2  0
  8  6  1  0
  9  8  1  0
 10 11  1  0
 10  9  1  0
 11 12  1  0
 12  8  1  0
 12 13  1  6
 13 15  1  0
 14 13  2  0
 15 16  1  0
 16 19  1  0
 16 17  1  1
 17 18  1  0
 19 20  2  0
 19 21  1  0
M  END
$$$$
