TPC.pdb
     RDKit          3D

 21 21  0  0  1  0  0  0  0  0999 V2000
   18.1748   -8.8044  -17.5656 C   0  0  0  0  0  0  0  0  0  0  0  0
   17.7285   -8.8271  -16.1261 C   0  0  1  0  0  0  0  0  0  0  0  0
   16.3762   -9.2448  -16.1524 O   0  0  0  0  0  0  0  0  0  0  0  0
   18.5401   -9.8375  -15.2912 C   0  0  2  0  0  0  0  0  0  0  0  0
   18.1345  -11.1195  -15.7241 N   0  0  0  0  0  0  0  0  0  0  0  0
   18.4180   -9.5094  -13.8714 C   0  0  0  0  0  0  0  0  0  0  0  0
   17.3104   -9.9004  -13.3573 O   0  0  0  0  0  0  0  0  0  0  0  0
   19.3125   -8.8516  -13.0275 N   0  0  0  0  0  0  0  0  0  0  0  0
   20.7831   -9.1116  -12.9185 C   0  0  0  0  0  0  0  0  0  0  0  0
   21.3271   -7.6718  -12.9433 C   0  0  0  0  0  0  0  0  0  0  0  0
   20.1130   -6.7694  -12.7221 C   0  0  0  0  0  0  0  0  0  0  0  0
   19.1916   -7.8074  -12.0536 C   0  0  1  0  0  0  0  0  0  0  0  0
   17.9401   -7.2797  -11.6460 C   0  0  0  0  0  0  0  0  0  0  0  0
   17.1581   -6.6171  -12.3188 O   0  0  0  0  0  0  0  0  0  0  0  0
   17.5159   -7.5399  -10.2837 N   0  0  0  0  0  0  0  0  0  0  0  0
   16.3003   -6.9885   -9.7793 C   0  0  1  0  0  0  0  0  0  0  0  0
   15.4991   -8.0057   -8.9702 C   0  0  0  0  0  0  0  0  0  0  0  0
   14.9723   -9.3025  -10.1517 S   0  0  0  0  0  0  0  0  0  0  0  0
   16.6010   -5.8644   -8.8765 C   0  0  0  0  0  0  0  0  0  0  0  0
   17.7362   -5.7287   -8.4062 O   0  0  0  0  0  0  0  0  0  0  0  0
   15.5805   -4.9747   -8.5758 O   0  0  0  0  0  0  0  0  0  0  0  0
  2  1  1  6
  2  3  1  0
  4  2  1  0
  4  5  1  1
  6  4  1  0
  6  7  2  0
  8  6  1  0
  9  8  1  0
 10 11  1  0
 10  9  1  0
 11 12  1  0
 12  8  1  0
 12 13  1  6
 13 15  1  0
 14 13  2  0
 15 16  1  0
 16 19  1  0
 16 17  1  1
 17 18  1  0
 19 20  2  0
 19 21  1  0
M  END
$$$$
