TPC.pdb
     RDKit          3D

 21 21  0  0  1  0  0  0  0  0999 V2000
   27.1665  -20.6341  -18.9512 C   0  0  0  0  0  0  0  0  0  0  0  0
   27.8444  -21.9657  -18.7532 C   0  0  1  0  0  0  0  0  0  0  0  0
   28.9268  -21.9821  -19.6653 O   0  0  0  0  0  0  0  0  0  0  0  0
   28.4021  -22.1170  -17.3240 C   0  0  2  0  0  0  0  0  0  0  0  0
   29.1320  -23.3264  -17.3137 N   0  0  0  0  0  0  0  0  0  0  0  0
   27.3197  -21.9469  -16.3556 C   0  0  0  0  0  0  0  0  0  0  0  0
   26.3283  -22.7329  -16.5647 O   0  0  0  0  0  0  0  0  0  0  0  0
   27.2215  -21.0760  -15.2708 N   0  0  0  0  0  0  0  0  0  0  0  0
   28.3489  -20.6131  -14.4006 C   0  0  0  0  0  0  0  0  0  0  0  0
   28.0551  -19.1035  -14.3371 C   0  0  0  0  0  0  0  0  0  0  0  0
   26.6360  -18.9372  -14.8807 C   0  0  0  0  0  0  0  0  0  0  0  0
   26.1423  -20.3763  -14.6390 C   0  0  1  0  0  0  0  0  0  0  0  0
   24.7844  -20.5800  -14.9932 C   0  0  0  0  0  0  0  0  0  0  0  0
   24.3004  -20.5703  -16.1196 O   0  0  0  0  0  0  0  0  0  0  0  0
   23.8428  -20.8296  -13.9185 N   0  0  0  0  0  0  0  0  0  0  0  0
   22.4630  -21.0644  -14.1963 C   0  0  1  0  0  0  0  0  0  0  0  0
   22.1592  -22.5483  -14.3891 C   0  0  0  0  0  0  0  0  0  0  0  0
   20.3605  -22.6670  -14.7141 S   0  0  0  0  0  0  0  0  0  0  0  0
   21.6422  -20.6028  -13.0640 C   0  0  0  0  0  0  0  0  0  0  0  0
   22.0394  -20.7542  -11.9032 O   0  0  0  0  0  0  0  0  0  0  0  0
   20.4241  -20.0001  -13.3407 O   0  0  0  0  0  0  0  0  0  0  0  0
  2  1  1  1
  2  3  1  0
  4  2  1  0
  4  5  1  6
  6  4  1  0
  6  7  2  0
  8  6  1  0
  9  8  1  0
 10 11  1  0
 10  9  1  0
 11 12  1  0
 12  8  1  0
 12 13  1  6
 13 15  1  0
 14 13  2  0
 15 16  1  0
 16 19  1  0
 16 17  1  1
 17 18  1  0
 19 20  2  0
 19 21  1  0
M  END
$$$$
