TPC.pdb
     RDKit          3D

 21 21  0  0  1  0  0  0  0  0999 V2000
   18.3311   -9.0544  -18.9233 C   0  0  0  0  0  0  0  0  0  0  0  0
   17.4077   -9.7665  -17.9683 C   0  0  1  0  0  0  0  0  0  0  0  0
   16.7380  -10.7441  -18.7426 O   0  0  0  0  0  0  0  0  0  0  0  0
   18.1856  -10.4772  -16.8430 C   0  0  2  0  0  0  0  0  0  0  0  0
   17.2982  -11.4291  -16.2934 N   0  0  0  0  0  0  0  0  0  0  0  0
   18.7786   -9.4802  -15.9526 C   0  0  0  0  0  0  0  0  0  0  0  0
   17.9850   -8.5097  -15.6832 O   0  0  0  0  0  0  0  0  0  0  0  0
   20.0471   -9.4422  -15.3746 N   0  0  0  0  0  0  0  0  0  0  0  0
   20.7512  -10.5820  -14.7057 C   0  0  0  0  0  0  0  0  0  0  0  0
   22.1493  -10.4608  -15.3382 C   0  0  0  0  0  0  0  0  0  0  0  0
   22.1765   -9.0911  -16.0169 C   0  0  0  0  0  0  0  0  0  0  0  0
   21.0452   -8.4274  -15.2087 C   0  0  1  0  0  0  0  0  0  0  0  0
   20.8223   -7.0692  -15.5499 C   0  0  0  0  0  0  0  0  0  0  0  0
   20.5055   -6.6203  -16.6460 O   0  0  0  0  0  0  0  0  0  0  0  0
   20.9812   -6.0809  -14.5002 N   0  0  0  0  0  0  0  0  0  0  0  0
   20.8902   -4.6866  -14.7901 C   0  0  1  0  0  0  0  0  0  0  0  0
   19.6848   -4.0361  -14.1153 C   0  0  0  0  0  0  0  0  0  0  0  0
   18.2016   -4.7010  -14.9598 S   0  0  0  0  0  0  0  0  0  0  0  0
   22.0884   -3.9946  -14.2859 C   0  0  0  0  0  0  0  0  0  0  0  0
   22.8641   -4.5718  -13.5155 O   0  0  0  0  0  0  0  0  0  0  0  0
   22.3142   -2.6901  -14.6993 O   0  0  0  0  0  0  0  0  0  0  0  0
  2  1  1  6
  2  3  1  0
  4  2  1  0
  4  5  1  1
  6  4  1  0
  6  7  2  0
  8  6  1  0
  9  8  1  0
 10 11  1  0
 10  9  1  0
 11 12  1  0
 12  8  1  0
 12 13  1  6
 13 15  1  0
 14 13  2  0
 15 16  1  0
 16 19  1  0
 16 17  1  1
 17 18  1  0
 19 20  2  0
 19 21  1  0
M  END
$$$$
