TPC.pdb
     RDKit          3D

 21 21  0  0  1  0  0  0  0  0999 V2000
   38.4845   -8.0798   -8.5139 C   0  0  0  0  0  0  0  0  0  0  0  0
   37.9539   -8.7927   -7.2965 C   0  0  1  0  0  0  0  0  0  0  0  0
   36.5500   -8.6149   -7.3319 O   0  0  0  0  0  0  0  0  0  0  0  0
   38.2605  -10.3029   -7.3388 C   0  0  2  0  0  0  0  0  0  0  0  0
   37.4386  -10.8977   -6.3558 N   0  0  0  0  0  0  0  0  0  0  0  0
   39.7057  -10.5115   -7.2594 C   0  0  0  0  0  0  0  0  0  0  0  0
   40.2412   -9.9466   -6.2404 O   0  0  0  0  0  0  0  0  0  0  0  0
   40.5535  -11.2181   -8.1119 N   0  0  0  0  0  0  0  0  0  0  0  0
   40.1731  -12.3786   -8.9786 C   0  0  0  0  0  0  0  0  0  0  0  0
   40.8445  -11.9739  -10.3033 C   0  0  0  0  0  0  0  0  0  0  0  0
   41.7937  -10.8285   -9.9504 C   0  0  0  0  0  0  0  0  0  0  0  0
   41.9438  -11.1283   -8.4467 C   0  0  1  0  0  0  0  0  0  0  0  0
   42.8390  -10.2550   -7.7782 C   0  0  0  0  0  0  0  0  0  0  0  0
   42.9042   -9.0351   -7.8823 O   0  0  0  0  0  0  0  0  0  0  0  0
   43.7947  -10.8488   -6.8630 N   0  0  0  0  0  0  0  0  0  0  0  0
   44.7207  -10.0348   -6.1445 C   0  0  1  0  0  0  0  0  0  0  0  0
   44.9766  -10.5617   -4.7344 C   0  0  0  0  0  0  0  0  0  0  0  0
   43.3697  -10.4880   -3.8583 S   0  0  0  0  0  0  0  0  0  0  0  0
   46.0187  -10.0253   -6.8402 C   0  0  0  0  0  0  0  0  0  0  0  0
   46.9002   -9.2261   -6.5048 O   0  0  0  0  0  0  0  0  0  0  0  0
   46.2160  -10.9317   -7.8712 O   0  0  0  0  0  0  0  0  0  0  0  0
  2  1  1  6
  2  3  1  0
  4  2  1  0
  4  5  1  1
  6  4  1  0
  6  7  2  0
  8  6  1  0
  9  8  1  0
 10 11  1  0
 10  9  1  0
 11 12  1  0
 12  8  1  0
 12 13  1  1
 13 15  1  0
 14 13  2  0
 15 16  1  0
 16 19  1  0
 16 17  1  1
 17 18  1  0
 19 20  2  0
 19 21  1  0
M  END
$$$$
