TPC.pdb
     RDKit          3D

 21 21  0  0  1  0  0  0  0  0999 V2000
   24.0965  -11.9442  -14.9425 C   0  0  0  0  0  0  0  0  0  0  0  0
   23.7546  -12.2159  -16.3851 C   0  0  1  0  0  0  0  0  0  0  0  0
   23.9929  -13.5976  -16.5799 O   0  0  0  0  0  0  0  0  0  0  0  0
   22.2711  -11.9245  -16.6862 C   0  0  2  0  0  0  0  0  0  0  0  0
   21.9866  -12.5649  -17.9128 N   0  0  0  0  0  0  0  0  0  0  0  0
   22.0220  -10.4878  -16.5749 C   0  0  0  0  0  0  0  0  0  0  0  0
   23.0911   -9.7838  -16.6493 O   0  0  0  0  0  0  0  0  0  0  0  0
   20.8202   -9.8011  -16.4051 N   0  0  0  0  0  0  0  0  0  0  0  0
   19.5118  -10.1296  -17.0553 C   0  0  0  0  0  0  0  0  0  0  0  0
   18.5633  -10.0313  -15.8470 C   0  0  0  0  0  0  0  0  0  0  0  0
   19.3685   -9.3391  -14.7471 C   0  0  0  0  0  0  0  0  0  0  0  0
   20.4169   -8.6552  -15.6452 C   0  0  1  0  0  0  0  0  0  0  0  0
   21.3368   -7.8452  -14.9320 C   0  0  0  0  0  0  0  0  0  0  0  0
   22.0481   -8.1800  -13.9912 O   0  0  0  0  0  0  0  0  0  0  0  0
   21.4683   -6.4607  -15.3436 N   0  0  0  0  0  0  0  0  0  0  0  0
   22.3622   -5.5790  -14.6657 C   0  0  1  0  0  0  0  0  0  0  0  0
   23.2902   -4.8459  -15.6315 C   0  0  0  0  0  0  0  0  0  0  0  0
   24.3946   -6.1186  -16.3496 S   0  0  0  0  0  0  0  0  0  0  0  0
   21.5943   -4.5494  -13.9451 C   0  0  0  0  0  0  0  0  0  0  0  0
   20.4028   -4.3584  -14.2134 O   0  0  0  0  0  0  0  0  0  0  0  0
   22.2448   -3.8111  -12.9678 O   0  0  0  0  0  0  0  0  0  0  0  0
  2  1  1  1
  2  3  1  0
  4  2  1  0
  4  5  1  6
  6  4  1  0
  6  7  2  0
  8  6  1  0
  9  8  1  0
 10 11  1  0
 10  9  1  0
 11 12  1  0
 12  8  1  0
 12 13  1  1
 13 15  1  0
 14 13  2  0
 15 16  1  0
 16 19  1  0
 16 17  1  6
 17 18  1  0
 19 20  2  0
 19 21  1  0
M  END
$$$$
