TPC.pdb
     RDKit          3D

 21 21  0  0  1  0  0  0  0  0999 V2000
   25.8851  -14.3175  -19.7856 C   0  0  0  0  0  0  0  0  0  0  0  0
   25.1878  -13.2799  -18.9436 C   0  0  1  0  0  0  0  0  0  0  0  0
   23.8149  -13.3805  -19.2735 O   0  0  0  0  0  0  0  0  0  0  0  0
   25.3543  -13.5596  -17.4367 C   0  0  2  0  0  0  0  0  0  0  0  0
   25.0059  -14.9156  -17.2486 N   0  0  0  0  0  0  0  0  0  0  0  0
   24.6386  -12.5421  -16.6679 C   0  0  0  0  0  0  0  0  0  0  0  0
   23.3640  -12.6661  -16.7319 O   0  0  0  0  0  0  0  0  0  0  0  0
   25.1364  -11.4904  -15.8992 N   0  0  0  0  0  0  0  0  0  0  0  0
   26.3287  -11.5403  -14.9946 C   0  0  0  0  0  0  0  0  0  0  0  0
   27.0457  -10.2400  -15.4004 C   0  0  0  0  0  0  0  0  0  0  0  0
   26.0284   -9.4484  -16.2223 C   0  0  0  0  0  0  0  0  0  0  0  0
   24.7498  -10.1260  -15.6937 C   0  0  1  0  0  0  0  0  0  0  0  0
   23.5539   -9.5792  -16.2245 C   0  0  0  0  0  0  0  0  0  0  0  0
   23.1597   -9.6392  -17.3839 O   0  0  0  0  0  0  0  0  0  0  0  0
   22.6827   -8.8636  -15.3121 N   0  0  0  0  0  0  0  0  0  0  0  0
   21.5098   -8.2047  -15.7880 C   0  0  1  0  0  0  0  0  0  0  0  0
   20.2824   -8.5313  -14.9405 C   0  0  0  0  0  0  0  0  0  0  0  0
   18.8979   -7.5609  -15.6452 S   0  0  0  0  0  0  0  0  0  0  0  0
   21.6985   -6.7455  -15.7239 C   0  0  0  0  0  0  0  0  0  0  0  0
   22.2343   -6.2287  -14.7370 O   0  0  0  0  0  0  0  0  0  0  0  0
   21.2604   -5.9806  -16.7947 O   0  0  0  0  0  0  0  0  0  0  0  0
  2  1  1  6
  2  3  1  0
  4  2  1  0
  4  5  1  6
  6  4  1  0
  6  7  2  0
  8  6  1  0
  9  8  1  0
 10 11  1  0
 10  9  1  0
 11 12  1  0
 12  8  1  0
 12 13  1  6
 13 15  1  0
 14 13  2  0
 15 16  1  0
 16 19  1  0
 16 17  1  1
 17 18  1  0
 19 20  2  0
 19 21  1  0
M  END
$$$$
