DVP.pdb
     RDKit          3D

 23 23  0  0  1  0  0  0  0  0999 V2000
   18.6145  -12.8568  -15.8431 N   0  0  0  0  0  0  0  0  0  0  0  0
   19.0028  -11.6711  -16.5382 C   0  0  1  0  0  0  0  0  0  0  0  0
   17.8776  -11.0991  -17.3528 C   0  0  0  0  0  0  0  0  0  0  0  0
   17.5473  -11.9914  -18.5046 C   0  0  0  0  0  0  0  0  0  0  0  0
   18.1501  -13.0530  -18.7186 O   0  0  0  0  0  0  0  0  0  0  0  0
   19.4875  -10.6025  -15.6072 C   0  0  0  0  0  0  0  0  0  0  0  0
   18.9157  -10.4391  -14.4972 O   0  0  0  0  0  0  0  0  0  0  0  0
   16.5237  -11.6118  -19.3664 O   0  0  0  0  0  0  0  0  0  0  0  0
   22.5214  -10.4085  -13.8088 C   0  0  0  0  0  0  0  0  0  0  0  0
   22.4984   -9.2218  -14.7273 C   0  0  1  0  0  0  0  0  0  0  0  0
   23.3641   -9.3060  -15.9170 C   0  0  0  0  0  0  0  0  0  0  0  0
   21.0771   -8.7506  -14.9481 C   0  0  2  0  0  0  0  0  0  0  0  0
   20.5641   -9.7605  -15.9150 N   0  0  0  0  0  0  0  0  0  0  0  0
   20.9240   -7.4490  -15.5831 C   0  0  0  0  0  0  0  0  0  0  0  0
   21.9726   -6.6791  -15.6553 O   0  0  0  0  0  0  0  0  0  0  0  0
   19.7610   -6.8743  -16.1588 N   0  0  0  0  0  0  0  0  0  0  0  0
   18.4698   -7.6026  -16.0796 C   0  0  0  0  0  0  0  0  0  0  0  0
   17.4048   -6.5551  -16.2552 C   0  0  0  0  0  0  0  0  0  0  0  0
   18.0509   -5.5166  -17.1432 C   0  0  0  0  0  0  0  0  0  0  0  0
   19.5395   -5.6289  -16.8349 C   0  0  1  0  0  0  0  0  0  0  0  0
   19.8273   -4.4395  -15.9715 C   0  0  0  0  0  0  0  0  0  0  0  0
   19.8029   -3.2583  -16.3614 O   0  0  0  0  0  0  0  0  0  0  0  0
   20.1411   -4.6928  -14.6476 O   0  0  0  0  0  0  0  0  0  0  0  0
  2  1  1  1
  2  3  1  0
  3  4  1  0
  4  5  2  0
  6 13  1  0
  6  2  1  0
  7  6  2  0
  8  4  1  0
 10  9  1  6
 10 12  1  0
 11 10  1  0
 12 14  1  0
 12 13  1  6
 14 16  1  0
 15 14  2  0
 16 17  1  0
 16 20  1  0
 17 18  1  0
 18 19  1  0
 20 19  1  0
 20 21  1  1
 21 23  1  0
 22 21  2  0
M  END
$$$$
