DVP.pdb
     RDKit          3D

 23 23  0  0  1  0  0  0  0  0999 V2000
   24.2734  -17.9012  -19.4411 N   0  0  0  0  0  0  0  0  0  0  0  0
   23.9624  -17.7295  -18.0578 C   0  0  1  0  0  0  0  0  0  0  0  0
   22.4811  -17.6724  -17.8142 C   0  0  0  0  0  0  0  0  0  0  0  0
   21.9016  -16.4051  -18.3530 C   0  0  0  0  0  0  0  0  0  0  0  0
   21.2113  -16.3734  -19.3818 O   0  0  0  0  0  0  0  0  0  0  0  0
   24.5269  -18.8280  -17.2104 C   0  0  0  0  0  0  0  0  0  0  0  0
   24.2387  -20.0255  -17.4723 O   0  0  0  0  0  0  0  0  0  0  0  0
   22.1494  -15.2188  -17.6704 O   0  0  0  0  0  0  0  0  0  0  0  0
   27.2711  -17.7588  -14.5070 C   0  0  0  0  0  0  0  0  0  0  0  0
   27.3352  -19.1740  -15.0027 C   0  0  1  0  0  0  0  0  0  0  0  0
   28.2376  -20.0781  -14.2679 C   0  0  0  0  0  0  0  0  0  0  0  0
   25.9458  -19.6925  -15.3050 C   0  0  2  0  0  0  0  0  0  0  0  0
   25.3743  -18.5857  -16.1215 N   0  0  0  0  0  0  0  0  0  0  0  0
   25.0624  -19.8661  -14.1602 C   0  0  0  0  0  0  0  0  0  0  0  0
   24.7002  -18.8010  -13.5030 O   0  0  0  0  0  0  0  0  0  0  0  0
   24.5147  -21.0661  -13.6365 N   0  0  0  0  0  0  0  0  0  0  0  0
   24.7719  -22.3519  -14.3325 C   0  0  0  0  0  0  0  0  0  0  0  0
   24.5602  -23.4208  -13.2957 C   0  0  0  0  0  0  0  0  0  0  0  0
   23.5152  -22.8380  -12.3722 C   0  0  0  0  0  0  0  0  0  0  0  0
   23.7215  -21.3310  -12.4712 C   0  0  1  0  0  0  0  0  0  0  0  0
   24.4218  -20.9709  -11.1972 C   0  0  0  0  0  0  0  0  0  0  0  0
   23.8493  -20.6848  -10.1304 O   0  0  0  0  0  0  0  0  0  0  0  0
   25.8054  -20.9613  -11.2288 O   0  0  0  0  0  0  0  0  0  0  0  0
  2  1  1  6
  2  3  1  0
  3  4  1  0
  4  5  2  0
  6 13  1  0
  6  2  1  0
  7  6  2  0
  8  4  1  0
 10  9  1  1
 10 12  1  0
 11 10  1  0
 12 14  1  0
 12 13  1  6
 14 16  1  0
 15 14  2  0
 16 17  1  0
 16 20  1  0
 17 18  1  0
 18 19  1  0
 20 19  1  0
 20 21  1  1
 21 23  1  0
 22 21  2  0
M  END
$$$$
