DVP.pdb
     RDKit          3D

 23 23  0  0  1  0  0  0  0  0999 V2000
   22.0202   -6.4050  -15.3459 N   0  0  0  0  0  0  0  0  0  0  0  0
   20.9465   -7.3457  -15.3908 C   0  0  1  0  0  0  0  0  0  0  0  0
   19.7546   -6.8084  -16.1308 C   0  0  0  0  0  0  0  0  0  0  0  0
   19.1583   -5.6458  -15.4063 C   0  0  0  0  0  0  0  0  0  0  0  0
   18.9101   -5.6740  -14.1924 O   0  0  0  0  0  0  0  0  0  0  0  0
   21.3498   -8.6339  -16.0401 C   0  0  0  0  0  0  0  0  0  0  0  0
   21.9190   -8.6124  -17.1631 O   0  0  0  0  0  0  0  0  0  0  0  0
   18.8728   -4.4904  -16.1262 O   0  0  0  0  0  0  0  0  0  0  0  0
   23.8639  -10.6807  -15.2751 C   0  0  0  0  0  0  0  0  0  0  0  0
   22.6796  -11.5948  -15.1558 C   0  0  1  0  0  0  0  0  0  0  0  0
   22.2858  -11.9703  -13.7862 C   0  0  0  0  0  0  0  0  0  0  0  0
   21.5727  -11.1516  -16.0880 C   0  0  2  0  0  0  0  0  0  0  0  0
   21.1213   -9.8839  -15.4501 N   0  0  0  0  0  0  0  0  0  0  0  0
   20.4069  -12.0216  -16.1592 C   0  0  0  0  0  0  0  0  0  0  0  0
   19.7375  -12.2343  -15.0618 O   0  0  0  0  0  0  0  0  0  0  0  0
   19.8698  -12.6944  -17.2875 N   0  0  0  0  0  0  0  0  0  0  0  0
   20.4684  -12.4679  -18.6270 C   0  0  0  0  0  0  0  0  0  0  0  0
   20.0820  -13.6669  -19.4490 C   0  0  0  0  0  0  0  0  0  0  0  0
   18.7499  -14.0935  -18.8765 C   0  0  0  0  0  0  0  0  0  0  0  0
   18.8017  -13.6423  -17.4215 C   0  0  1  0  0  0  0  0  0  0  0  0
   19.0450  -14.9046  -16.6531 C   0  0  0  0  0  0  0  0  0  0  0  0
   20.1359  -15.2294  -16.1509 O   0  0  0  0  0  0  0  0  0  0  0  0
   17.9666  -15.7585  -16.5014 O   0  0  0  0  0  0  0  0  0  0  0  0
  2  1  1  6
  2  3  1  0
  3  4  1  0
  4  5  2  0
  6 13  1  0
  6  2  1  0
  7  6  2  0
  8  4  1  0
 10  9  1  1
 10 12  1  0
 11 10  1  0
 12 14  1  0
 12 13  1  1
 14 16  1  0
 15 14  2  0
 16 17  1  0
 16 20  1  0
 17 18  1  0
 18 19  1  0
 20 19  1  0
 20 21  1  1
 21 23  1  0
 22 21  2  0
M  END
$$$$
