DVP.pdb
     RDKit          3D

 23 23  0  0  1  0  0  0  0  0999 V2000
   28.6850  -20.8077  -16.3913 N   0  0  0  0  0  0  0  0  0  0  0  0
   27.8023  -19.9429  -15.6754 C   0  0  1  0  0  0  0  0  0  0  0  0
   26.9528  -19.1138  -16.5963 C   0  0  0  0  0  0  0  0  0  0  0  0
   27.7935  -18.1614  -17.3824 C   0  0  0  0  0  0  0  0  0  0  0  0
   27.9890  -18.2939  -18.5990 O   0  0  0  0  0  0  0  0  0  0  0  0
   26.8881  -20.6988  -14.7607 C   0  0  0  0  0  0  0  0  0  0  0  0
   26.4622  -21.8325  -15.1056 O   0  0  0  0  0  0  0  0  0  0  0  0
   28.3765  -17.0869  -16.7189 O   0  0  0  0  0  0  0  0  0  0  0  0
   25.0093  -20.8401  -10.2151 C   0  0  0  0  0  0  0  0  0  0  0  0
   26.0585  -20.5687  -11.2534 C   0  0  1  0  0  0  0  0  0  0  0  0
   27.4332  -20.9707  -10.9065 C   0  0  0  0  0  0  0  0  0  0  0  0
   25.5579  -20.9606  -12.6270 C   0  0  2  0  0  0  0  0  0  0  0  0
   26.4757  -20.1988  -13.5187 N   0  0  0  0  0  0  0  0  0  0  0  0
   24.2048  -20.5383  -12.9614 C   0  0  0  0  0  0  0  0  0  0  0  0
   23.8568  -19.3180  -12.6659 O   0  0  0  0  0  0  0  0  0  0  0  0
   23.1720  -21.2841  -13.5869 N   0  0  0  0  0  0  0  0  0  0  0  0
   23.4423  -22.6732  -14.0356 C   0  0  0  0  0  0  0  0  0  0  0  0
   22.0956  -23.3373  -14.1242 C   0  0  0  0  0  0  0  0  0  0  0  0
   21.1510  -22.2114  -14.4771 C   0  0  0  0  0  0  0  0  0  0  0  0
   21.8041  -20.9694  -13.8818 C   0  0  1  0  0  0  0  0  0  0  0  0
   20.9961  -20.6812  -12.6542 C   0  0  0  0  0  0  0  0  0  0  0  0
   21.2985  -21.0484  -11.5046 O   0  0  0  0  0  0  0  0  0  0  0  0
   19.8328  -19.9528  -12.8315 O   0  0  0  0  0  0  0  0  0  0  0  0
  2  1  1  6
  2  3  1  0
  3  4  1  0
  4  5  2  0
  6 13  1  0
  6  2  1  0
  7  6  2  0
  8  4  1  0
 10  9  1  1
 10 12  1  0
 11 10  1  0
 12 14  1  0
 12 13  1  6
 14 16  1  0
 15 14  2  0
 16 17  1  0
 16 20  1  0
 17 18  1  0
 18 19  1  0
 20 19  1  0
 20 21  1  1
 21 23  1  0
 22 21  2  0
M  END
$$$$
