DVP.pdb
     RDKit          3D

 23 23  0  0  1  0  0  0  0  0999 V2000
   26.0646  -20.4507  -11.4058 N   0  0  0  0  0  0  0  0  0  0  0  0
   25.5934  -20.1902  -10.0829 C   0  0  1  0  0  0  0  0  0  0  0  0
   24.5625  -21.1904   -9.6427 C   0  0  0  0  0  0  0  0  0  0  0  0
   23.2632  -20.9585  -10.3427 C   0  0  0  0  0  0  0  0  0  0  0  0
   22.8144  -21.7433  -11.1905 O   0  0  0  0  0  0  0  0  0  0  0  0
   26.7022  -20.1974   -9.0758 C   0  0  0  0  0  0  0  0  0  0  0  0
   27.6372  -21.0335   -9.1868 O   0  0  0  0  0  0  0  0  0  0  0  0
   22.5335  -19.8172  -10.0272 O   0  0  0  0  0  0  0  0  0  0  0  0
   28.6183  -17.2910   -5.6422 C   0  0  0  0  0  0  0  0  0  0  0  0
   28.0104  -17.6290   -6.9721 C   0  0  1  0  0  0  0  0  0  0  0  0
   28.4548  -16.8113   -8.1148 C   0  0  0  0  0  0  0  0  0  0  0  0
   27.9812  -19.1286   -7.1751 C   0  0  2  0  0  0  0  0  0  0  0  0
   26.7519  -19.3047   -7.9972 N   0  0  0  0  0  0  0  0  0  0  0  0
   27.8007  -19.9351   -5.9759 C   0  0  0  0  0  0  0  0  0  0  0  0
   26.6114  -19.9809   -5.4457 O   0  0  0  0  0  0  0  0  0  0  0  0
   28.7615  -20.7093   -5.2748 N   0  0  0  0  0  0  0  0  0  0  0  0
   30.1108  -20.9064   -5.8618 C   0  0  0  0  0  0  0  0  0  0  0  0
   31.0066  -21.2548   -4.7048 C   0  0  0  0  0  0  0  0  0  0  0  0
   30.0945  -21.9672   -3.7328 C   0  0  0  0  0  0  0  0  0  0  0  0
   28.7158  -21.3774   -4.0064 C   0  0  1  0  0  0  0  0  0  0  0  0
   28.4837  -20.4385   -2.8630 C   0  0  0  0  0  0  0  0  0  0  0  0
   28.7582  -19.2251   -2.8754 O   0  0  0  0  0  0  0  0  0  0  0  0
   27.9225  -20.9780   -1.7187 O   0  0  0  0  0  0  0  0  0  0  0  0
  2  1  1  6
  2  3  1  0
  3  4  1  0
  4  5  2  0
  6 13  1  0
  6  2  1  0
  7  6  2  0
  8  4  1  0
 10  9  1  1
 10 12  1  0
 11 10  1  0
 12 14  1  0
 12 13  1  6
 14 16  1  0
 15 14  2  0
 16 17  1  0
 16 20  1  0
 17 18  1  0
 18 19  1  0
 20 19  1  0
 20 21  1  1
 21 23  1  0
 22 21  2  0
M  END
$$$$
