DVP.pdb
     RDKit          3D

 23 23  0  0  1  0  0  0  0  0999 V2000
   21.3518  -20.8508  -10.7680 N   0  0  0  0  0  0  0  0  0  0  0  0
   21.7467  -20.8657  -12.1404 C   0  0  1  0  0  0  0  0  0  0  0  0
   20.6976  -20.2721  -13.0371 C   0  0  0  0  0  0  0  0  0  0  0  0
   19.7694  -21.3284  -13.5420 C   0  0  0  0  0  0  0  0  0  0  0  0
   20.0511  -22.5348  -13.5058 O   0  0  0  0  0  0  0  0  0  0  0  0
   23.0249  -20.1191  -12.3695 C   0  0  0  0  0  0  0  0  0  0  0  0
   23.1172  -18.9178  -12.0033 O   0  0  0  0  0  0  0  0  0  0  0  0
   18.5441  -20.9377  -14.0716 O   0  0  0  0  0  0  0  0  0  0  0  0
   26.1082  -22.3650  -12.8280 C   0  0  0  0  0  0  0  0  0  0  0  0
   26.3822  -20.9587  -12.3812 C   0  0  1  0  0  0  0  0  0  0  0  0
   27.8012  -20.5701  -12.2967 C   0  0  0  0  0  0  0  0  0  0  0  0
   25.4487  -19.9910  -13.0761 C   0  0  2  0  0  0  0  0  0  0  0  0
   24.1427  -20.7005  -12.9818 N   0  0  0  0  0  0  0  0  0  0  0  0
   25.6990  -19.7633  -14.4927 C   0  0  0  0  0  0  0  0  0  0  0  0
   25.5503  -20.7693  -15.3071 O   0  0  0  0  0  0  0  0  0  0  0  0
   26.0920  -18.5643  -15.1424 N   0  0  0  0  0  0  0  0  0  0  0  0
   26.2940  -17.3310  -14.3410 C   0  0  0  0  0  0  0  0  0  0  0  0
   27.1941  -16.4553  -15.1691 C   0  0  0  0  0  0  0  0  0  0  0  0
   26.8528  -16.8191  -16.5958 C   0  0  0  0  0  0  0  0  0  0  0  0
   26.3839  -18.2672  -16.5149 C   0  0  1  0  0  0  0  0  0  0  0  0
   27.5385  -19.0583  -17.0480 C   0  0  0  0  0  0  0  0  0  0  0  0
   28.3296  -19.7164  -16.3488 O   0  0  0  0  0  0  0  0  0  0  0  0
   27.7224  -19.0439  -18.4196 O   0  0  0  0  0  0  0  0  0  0  0  0
  2  1  1  1
  2  3  1  0
  3  4  1  0
  4  5  2  0
  6 13  1  0
  6  2  1  0
  7  6  2  0
  8  4  1  0
 10  9  1  6
 10 12  1  0
 11 10  1  0
 12 14  1  0
 12 13  1  6
 14 16  1  0
 15 14  2  0
 16 17  1  0
 16 20  1  0
 17 18  1  0
 18 19  1  0
 20 19  1  0
 20 21  1  1
 21 23  1  0
 22 21  2  0
M  END
$$$$
