DVP.pdb
     RDKit          3D

 23 23  0  0  1  0  0  0  0  0999 V2000
   19.6154  -13.1570  -17.5813 N   0  0  0  0  0  0  0  0  0  0  0  0
   19.8487  -11.7759  -17.8600 C   0  0  1  0  0  0  0  0  0  0  0  0
   18.7148  -11.1539  -18.6244 C   0  0  0  0  0  0  0  0  0  0  0  0
   18.5969  -11.7572  -19.9861 C   0  0  0  0  0  0  0  0  0  0  0  0
   19.5818  -12.1499  -20.6278 O   0  0  0  0  0  0  0  0  0  0  0  0
   20.0578  -10.9743  -16.6120 C   0  0  0  0  0  0  0  0  0  0  0  0
   19.2439  -11.0865  -15.6577 O   0  0  0  0  0  0  0  0  0  0  0  0
   17.3316  -11.8804  -20.5504 O   0  0  0  0  0  0  0  0  0  0  0  0
   22.7170  -11.3115  -14.4841 C   0  0  0  0  0  0  0  0  0  0  0  0
   22.7432   -9.8407  -14.7814 C   0  0  1  0  0  0  0  0  0  0  0  0
   23.8749   -9.3639  -15.5962 C   0  0  0  0  0  0  0  0  0  0  0  0
   21.3648   -9.3557  -15.1759 C   0  0  2  0  0  0  0  0  0  0  0  0
   21.1324  -10.0901  -16.4504 N   0  0  0  0  0  0  0  0  0  0  0  0
   21.2475   -7.9371  -15.4839 C   0  0  0  0  0  0  0  0  0  0  0  0
   22.1877   -7.3895  -16.2007 O   0  0  0  0  0  0  0  0  0  0  0  0
   20.2227   -7.0297  -15.1087 N   0  0  0  0  0  0  0  0  0  0  0  0
   19.0630   -7.5211  -14.3229 C   0  0  0  0  0  0  0  0  0  0  0  0
   18.4926   -6.3062  -13.6438 C   0  0  0  0  0  0  0  0  0  0  0  0
   18.7998   -5.1728  -14.5953 C   0  0  0  0  0  0  0  0  0  0  0  0
   20.0634   -5.6202  -15.3208 C   0  0  1  0  0  0  0  0  0  0  0  0
   21.1552   -4.8107  -14.6918 C   0  0  0  0  0  0  0  0  0  0  0  0
   21.9938   -5.2557  -13.8876 O   0  0  0  0  0  0  0  0  0  0  0  0
   21.2197   -3.4735  -15.0425 O   0  0  0  0  0  0  0  0  0  0  0  0
  2  1  1  1
  2  3  1  0
  3  4  1  0
  4  5  2  0
  6 13  1  0
  6  2  1  0
  7  6  2  0
  8  4  1  0
 10  9  1  6
 10 12  1  0
 11 10  1  0
 12 14  1  0
 12 13  1  6
 14 16  1  0
 15 14  2  0
 16 17  1  0
 16 20  1  0
 17 18  1  0
 18 19  1  0
 20 19  1  0
 20 21  1  1
 21 23  1  0
 22 21  2  0
M  END
$$$$
