DVP.pdb
     RDKit          3D

 23 23  0  0  1  0  0  0  0  0999 V2000
   23.3503   -5.1504  -15.6204 N   0  0  0  0  0  0  0  0  0  0  0  0
   22.5727   -6.1320  -14.9337 C   0  0  1  0  0  0  0  0  0  0  0  0
   21.2713   -5.5732  -14.4326 C   0  0  0  0  0  0  0  0  0  0  0  0
   21.5069   -4.5246  -13.3948 C   0  0  0  0  0  0  0  0  0  0  0  0
   20.6056   -3.7788  -12.9854 O   0  0  0  0  0  0  0  0  0  0  0  0
   22.2637   -7.3154  -15.7984 C   0  0  0  0  0  0  0  0  0  0  0  0
   21.9275   -7.1372  -16.9987 O   0  0  0  0  0  0  0  0  0  0  0  0
   22.7879   -4.3843  -12.8715 O   0  0  0  0  0  0  0  0  0  0  0  0
   23.3293  -10.6953  -14.3068 C   0  0  0  0  0  0  0  0  0  0  0  0
   23.0631  -10.8031  -15.7799 C   0  0  1  0  0  0  0  0  0  0  0  0
   22.9312  -12.1693  -16.3166 C   0  0  0  0  0  0  0  0  0  0  0  0
   22.0135   -9.7982  -16.2032 C   0  0  2  0  0  0  0  0  0  0  0  0
   22.3312   -8.6341  -15.3303 N   0  0  0  0  0  0  0  0  0  0  0  0
   20.6301  -10.1610  -15.9285 C   0  0  0  0  0  0  0  0  0  0  0  0
   20.3104  -10.4585  -14.7010 O   0  0  0  0  0  0  0  0  0  0  0  0
   19.5375  -10.2387  -16.8311 N   0  0  0  0  0  0  0  0  0  0  0  0
   19.7162   -9.7915  -18.2353 C   0  0  0  0  0  0  0  0  0  0  0  0
   18.6362  -10.4849  -19.0196 C   0  0  0  0  0  0  0  0  0  0  0  0
   17.5039  -10.6412  -18.0307 C   0  0  0  0  0  0  0  0  0  0  0  0
   18.1947  -10.7175  -16.6741 C   0  0  1  0  0  0  0  0  0  0  0  0
   18.1339  -12.1693  -16.3113 C   0  0  0  0  0  0  0  0  0  0  0  0
   19.0935  -12.9580  -16.3816 O   0  0  0  0  0  0  0  0  0  0  0  0
   16.9140  -12.6495  -15.8680 O   0  0  0  0  0  0  0  0  0  0  0  0
  2  1  1  6
  2  3  1  0
  3  4  1  0
  4  5  2  0
  6 13  1  0
  6  2  1  0
  7  6  2  0
  8  4  1  0
 10  9  1  1
 10 12  1  0
 11 10  1  0
 12 14  1  0
 12 13  1  1
 14 16  1  0
 15 14  2  0
 16 17  1  0
 16 20  1  0
 17 18  1  0
 18 19  1  0
 20 19  1  0
 20 21  1  6
 21 23  1  0
 22 21  2  0
M  END
$$$$
