DVP.pdb
     RDKit          3D

 23 23  0  0  1  0  0  0  0  0999 V2000
   23.3681  -12.9522  -19.3892 N   0  0  0  0  0  0  0  0  0  0  0  0
   23.4237  -11.5271  -19.3138 C   0  0  1  0  0  0  0  0  0  0  0  0
   22.3044  -10.8765  -20.0760 C   0  0  0  0  0  0  0  0  0  0  0  0
   22.4478  -11.1198  -21.5431 C   0  0  0  0  0  0  0  0  0  0  0  0
   23.3327  -11.8490  -22.0136 O   0  0  0  0  0  0  0  0  0  0  0  0
   23.3677  -11.0326  -17.9010 C   0  0  0  0  0  0  0  0  0  0  0  0
   22.5446  -11.5430  -17.0961 O   0  0  0  0  0  0  0  0  0  0  0  0
   21.5518  -10.5023  -22.4093 O   0  0  0  0  0  0  0  0  0  0  0  0
   25.9662  -11.0638  -15.4039 C   0  0  0  0  0  0  0  0  0  0  0  0
   25.5662   -9.6270  -15.5705 C   0  0  1  0  0  0  0  0  0  0  0  0
   26.5371   -8.7595  -16.2611 C   0  0  0  0  0  0  0  0  0  0  0  0
   24.1231   -9.5273  -16.0157 C   0  0  2  0  0  0  0  0  0  0  0  0
   24.1997  -10.0126  -17.4217 N   0  0  0  0  0  0  0  0  0  0  0  0
   23.5585   -8.1858  -16.0671 C   0  0  0  0  0  0  0  0  0  0  0  0
   24.2615   -7.2505  -16.6403 O   0  0  0  0  0  0  0  0  0  0  0  0
   22.3098   -7.7294  -15.5705 N   0  0  0  0  0  0  0  0  0  0  0  0
   21.3377   -8.7097  -15.0248 C   0  0  0  0  0  0  0  0  0  0  0  0
   20.4307   -7.9184  -14.1227 C   0  0  0  0  0  0  0  0  0  0  0  0
   20.4014   -6.5411  -14.7444 C   0  0  0  0  0  0  0  0  0  0  0  0
   21.7470   -6.4157  -15.4493 C   0  0  1  0  0  0  0  0  0  0  0  0
   22.5485   -5.5201  -14.5557 C   0  0  0  0  0  0  0  0  0  0  0  0
   23.4687   -5.9022  -13.8106 O   0  0  0  0  0  0  0  0  0  0  0  0
   22.2277   -4.1740  -14.5739 O   0  0  0  0  0  0  0  0  0  0  0  0
  2  1  1  1
  2  3  1  0
  3  4  1  0
  4  5  2  0
  6 13  1  0
  6  2  1  0
  7  6  2  0
  8  4  1  0
 10  9  1  6
 10 12  1  0
 11 10  1  0
 12 14  1  0
 12 13  1  6
 14 16  1  0
 15 14  2  0
 16 17  1  0
 16 20  1  0
 17 18  1  0
 18 19  1  0
 20 19  1  0
 20 21  1  1
 21 23  1  0
 22 21  2  0
M  END
$$$$
