DVP.pdb
     RDKit          3D

 23 23  0  0  1  0  0  0  0  0999 V2000
   19.4242  -13.0401  -17.4654 N   0  0  0  0  0  0  0  0  0  0  0  0
   19.5342  -11.6182  -17.5412 C   0  0  1  0  0  0  0  0  0  0  0  0
   18.1932  -10.9535  -17.6713 C   0  0  0  0  0  0  0  0  0  0  0  0
   17.5890  -11.2316  -19.0091 C   0  0  0  0  0  0  0  0  0  0  0  0
   16.6324  -12.0050  -19.1598 O   0  0  0  0  0  0  0  0  0  0  0  0
   20.2213  -11.0391  -16.3428 C   0  0  0  0  0  0  0  0  0  0  0  0
   19.8625  -11.3937  -15.1890 O   0  0  0  0  0  0  0  0  0  0  0  0
   18.1242  -10.5958  -20.1244 O   0  0  0  0  0  0  0  0  0  0  0  0
   23.6320  -11.3938  -15.4751 C   0  0  0  0  0  0  0  0  0  0  0  0
   23.4085   -9.9117  -15.5512 C   0  0  1  0  0  0  0  0  0  0  0  0
   24.0194   -9.2221  -16.7015 C   0  0  0  0  0  0  0  0  0  0  0  0
   21.9652   -9.5773  -15.2416 C   0  0  2  0  0  0  0  0  0  0  0  0
   21.2615  -10.1061  -16.4429 N   0  0  0  0  0  0  0  0  0  0  0  0
   21.6389   -8.1606  -15.1563 C   0  0  0  0  0  0  0  0  0  0  0  0
   21.8405   -7.4242  -16.2120 O   0  0  0  0  0  0  0  0  0  0  0  0
   21.1117   -7.4366  -14.0553 N   0  0  0  0  0  0  0  0  0  0  0  0
   20.7916   -8.1531  -12.7951 C   0  0  0  0  0  0  0  0  0  0  0  0
   20.7981   -7.1007  -11.7204 C   0  0  0  0  0  0  0  0  0  0  0  0
   20.3613   -5.8417  -12.4336 C   0  0  0  0  0  0  0  0  0  0  0  0
   20.8198   -6.0442  -13.8731 C   0  0  1  0  0  0  0  0  0  0  0  0
   22.0328   -5.1747  -13.9987 C   0  0  0  0  0  0  0  0  0  0  0  0
   23.2062   -5.5870  -13.9695 O   0  0  0  0  0  0  0  0  0  0  0  0
   21.8121   -3.8178  -14.1580 O   0  0  0  0  0  0  0  0  0  0  0  0
  2  1  1  1
  2  3  1  0
  3  4  1  0
  4  5  2  0
  6 13  1  0
  6  2  1  0
  7  6  2  0
  8  4  1  0
 10  9  1  6
 10 12  1  0
 11 10  1  0
 12 14  1  0
 12 13  1  6
 14 16  1  0
 15 14  2  0
 16 17  1  0
 16 20  1  0
 17 18  1  0
 18 19  1  0
 20 19  1  0
 20 21  1  1
 21 23  1  0
 22 21  2  0
M  END
$$$$
