DVP.pdb
     RDKit          3D

 23 23  0  0  1  0  0  0  0  0999 V2000
   29.1823  -18.6271  -19.5132 N   0  0  0  0  0  0  0  0  0  0  0  0
   28.5323  -19.6714  -18.7876 C   0  0  1  0  0  0  0  0  0  0  0  0
   29.2591  -20.9807  -18.9080 C   0  0  0  0  0  0  0  0  0  0  0  0
   29.2279  -21.4792  -20.3160 C   0  0  0  0  0  0  0  0  0  0  0  0
   30.2322  -21.9305  -20.8849 O   0  0  0  0  0  0  0  0  0  0  0  0
   28.3994  -19.3502  -17.3306 C   0  0  0  0  0  0  0  0  0  0  0  0
   29.3395  -18.7598  -16.7362 O   0  0  0  0  0  0  0  0  0  0  0  0
   28.0235  -21.4327  -21.0102 O   0  0  0  0  0  0  0  0  0  0  0  0
   25.3628  -17.7305  -16.4640 C   0  0  0  0  0  0  0  0  0  0  0  0
   26.5647  -17.6992  -15.5658 C   0  0  1  0  0  0  0  0  0  0  0  0
   26.5179  -16.7334  -14.4536 C   0  0  0  0  0  0  0  0  0  0  0  0
   27.0125  -19.1057  -15.2312 C   0  0  2  0  0  0  0  0  0  0  0  0
   27.2616  -19.6797  -16.5827 N   0  0  0  0  0  0  0  0  0  0  0  0
   26.0214  -19.9594  -14.5910 C   0  0  0  0  0  0  0  0  0  0  0  0
   24.9254  -20.2178  -15.2462 O   0  0  0  0  0  0  0  0  0  0  0  0
   26.0749  -20.5771  -13.3143 N   0  0  0  0  0  0  0  0  0  0  0  0
   27.2582  -20.3578  -12.4451 C   0  0  0  0  0  0  0  0  0  0  0  0
   26.7900  -20.6496  -11.0458 C   0  0  0  0  0  0  0  0  0  0  0  0
   25.7131  -21.6946  -11.2270 C   0  0  0  0  0  0  0  0  0  0  0  0
   25.1463  -21.4167  -12.6144 C   0  0  1  0  0  0  0  0  0  0  0  0
   23.8371  -20.7399  -12.3483 C   0  0  0  0  0  0  0  0  0  0  0  0
   23.6544  -19.5098  -12.3873 O   0  0  0  0  0  0  0  0  0  0  0  0
   22.7650  -21.5583  -12.0383 O   0  0  0  0  0  0  0  0  0  0  0  0
  2  1  1  6
  2  3  1  0
  3  4  1  0
  4  5  2  0
  6 13  1  0
  6  2  1  0
  7  6  2  0
  8  4  1  0
 10  9  1  1
 10 12  1  0
 11 10  1  0
 12 14  1  0
 12 13  1  6
 14 16  1  0
 15 14  2  0
 16 17  1  0
 16 20  1  0
 17 18  1  0
 18 19  1  0
 20 19  1  0
 20 21  1  1
 21 23  1  0
 22 21  2  0
M  END
$$$$
