DVP.pdb
     RDKit          3D

 23 23  0  0  1  0  0  0  0  0999 V2000
   24.8502  -21.1462  -12.5510 N   0  0  0  0  0  0  0  0  0  0  0  0
   24.7227  -20.5102  -11.2786 C   0  0  1  0  0  0  0  0  0  0  0  0
   23.3662  -20.7281  -10.6709 C   0  0  0  0  0  0  0  0  0  0  0  0
   22.3141  -20.0008  -11.4430 C   0  0  0  0  0  0  0  0  0  0  0  0
   21.8516  -18.9115  -11.0749 O   0  0  0  0  0  0  0  0  0  0  0  0
   25.7491  -20.9921  -10.2998 C   0  0  0  0  0  0  0  0  0  0  0  0
   25.8978  -22.2285  -10.1135 O   0  0  0  0  0  0  0  0  0  0  0  0
   21.8392  -20.5722  -12.6189 O   0  0  0  0  0  0  0  0  0  0  0  0
   29.7106  -19.2756   -9.1871 C   0  0  0  0  0  0  0  0  0  0  0  0
   28.8761  -20.4422   -9.6288 C   0  0  1  0  0  0  0  0  0  0  0  0
   29.6134  -21.6633   -9.9993 C   0  0  0  0  0  0  0  0  0  0  0  0
   27.6822  -20.6154   -8.7149 C   0  0  2  0  0  0  0  0  0  0  0  0
   26.5663  -20.1207   -9.5681 N   0  0  0  0  0  0  0  0  0  0  0  0
   27.6760  -19.8027   -7.5064 C   0  0  0  0  0  0  0  0  0  0  0  0
   27.2877  -18.5632   -7.6077 O   0  0  0  0  0  0  0  0  0  0  0  0
   28.0400  -20.1742   -6.1858 N   0  0  0  0  0  0  0  0  0  0  0  0
   28.4978  -21.5604   -5.9163 C   0  0  0  0  0  0  0  0  0  0  0  0
   29.2953  -21.4811   -4.6435 C   0  0  0  0  0  0  0  0  0  0  0  0
   28.6572  -20.3448   -3.8779 C   0  0  0  0  0  0  0  0  0  0  0  0
   28.0886  -19.4329   -4.9589 C   0  0  1  0  0  0  0  0  0  0  0  0
   29.0468  -18.2832   -5.0120 C   0  0  0  0  0  0  0  0  0  0  0  0
   29.9287  -18.1350   -5.8770 O   0  0  0  0  0  0  0  0  0  0  0  0
   28.9271  -17.3268   -4.0188 O   0  0  0  0  0  0  0  0  0  0  0  0
  2  1  1  6
  2  3  1  0
  3  4  1  0
  4  5  2  0
  6 13  1  0
  6  2  1  0
  7  6  2  0
  8  4  1  0
 10  9  1  1
 10 12  1  0
 11 10  1  0
 12 14  1  0
 12 13  1  6
 14 16  1  0
 15 14  2  0
 16 17  1  0
 16 20  1  0
 17 18  1  0
 18 19  1  0
 20 19  1  0
 20 21  1  6
 21 23  1  0
 22 21  2  0
M  END
$$$$
