DVP.pdb
     RDKit          3D

 23 23  0  0  1  0  0  0  0  0999 V2000
   20.2547  -11.1510  -16.6767 N   0  0  0  0  0  0  0  0  0  0  0  0
   21.0578   -9.9708  -16.6353 C   0  0  1  0  0  0  0  0  0  0  0  0
   21.4679   -9.5175  -18.0077 C   0  0  0  0  0  0  0  0  0  0  0  0
   22.5274  -10.4093  -18.5682 C   0  0  0  0  0  0  0  0  0  0  0  0
   22.4153  -11.6433  -18.5911 O   0  0  0  0  0  0  0  0  0  0  0  0
   20.3546   -8.8310  -15.9644 C   0  0  0  0  0  0  0  0  0  0  0  0
   19.1466   -8.6003  -16.2351 O   0  0  0  0  0  0  0  0  0  0  0  0
   23.6813   -9.8274  -19.0825 O   0  0  0  0  0  0  0  0  0  0  0  0
   19.5771   -8.6590  -12.6270 C   0  0  0  0  0  0  0  0  0  0  0  0
   20.3853   -7.4152  -12.8554 C   0  0  1  0  0  0  0  0  0  0  0  0
   21.7463   -7.4134  -12.2900 C   0  0  0  0  0  0  0  0  0  0  0  0
   20.2390   -6.9440  -14.2862 C   0  0  2  0  0  0  0  0  0  0  0  0
   20.9846   -7.9938  -15.0345 N   0  0  0  0  0  0  0  0  0  0  0  0
   20.8700   -5.6721  -14.6106 C   0  0  0  0  0  0  0  0  0  0  0  0
   22.1598   -5.5745  -14.4544 O   0  0  0  0  0  0  0  0  0  0  0  0
   20.2679   -4.4806  -15.0922 N   0  0  0  0  0  0  0  0  0  0  0  0
   18.8125   -4.4635  -15.3846 C   0  0  0  0  0  0  0  0  0  0  0  0
   18.4072   -3.0161  -15.3284 C   0  0  0  0  0  0  0  0  0  0  0  0
   19.6453   -2.2684  -15.7671 C   0  0  0  0  0  0  0  0  0  0  0  0
   20.7998   -3.1750  -15.3564 C   0  0  1  0  0  0  0  0  0  0  0  0
   21.3656   -2.5197  -14.1343 C   0  0  0  0  0  0  0  0  0  0  0  0
   21.1464   -2.8886  -12.9666 O   0  0  0  0  0  0  0  0  0  0  0  0
   22.1893   -1.4266  -14.3391 O   0  0  0  0  0  0  0  0  0  0  0  0
  2  1  1  6
  2  3  1  0
  3  4  1  0
  4  5  2  0
  6 13  1  0
  6  2  1  0
  7  6  2  0
  8  4  1  0
 10  9  1  6
 10 12  1  0
 11 10  1  0
 12 14  1  0
 12 13  1  6
 14 16  1  0
 15 14  2  0
 16 17  1  0
 16 20  1  0
 17 18  1  0
 18 19  1  0
 20 19  1  0
 20 21  1  1
 21 23  1  0
 22 21  2  0
M  END
$$$$
