DVP.pdb
     RDKit          3D

 23 23  0  0  1  0  0  0  0  0999 V2000
   16.5448  -12.8040  -16.7594 N   0  0  0  0  0  0  0  0  0  0  0  0
   16.6621  -11.4094  -16.4751 C   0  0  1  0  0  0  0  0  0  0  0  0
   15.6940  -10.9648  -15.4158 C   0  0  0  0  0  0  0  0  0  0  0  0
   14.2843  -11.2026  -15.8498 C   0  0  0  0  0  0  0  0  0  0  0  0
   13.8059  -10.6870  -16.8702 O   0  0  0  0  0  0  0  0  0  0  0  0
   18.0414  -11.0380  -16.0240 C   0  0  0  0  0  0  0  0  0  0  0  0
   18.6058  -11.7176  -15.1266 O   0  0  0  0  0  0  0  0  0  0  0  0
   13.4827  -12.0350  -15.0757 O   0  0  0  0  0  0  0  0  0  0  0  0
   21.0068  -11.1891  -17.7852 C   0  0  0  0  0  0  0  0  0  0  0  0
   20.9223   -9.7469  -17.3786 C   0  0  1  0  0  0  0  0  0  0  0  0
   20.6349   -8.7849  -18.4574 C   0  0  0  0  0  0  0  0  0  0  0  0
   20.1209   -9.6026  -16.1028 C   0  0  2  0  0  0  0  0  0  0  0  0
   18.7475   -9.9532  -16.5598 N   0  0  0  0  0  0  0  0  0  0  0  0
   20.0445   -8.2610  -15.5412 C   0  0  0  0  0  0  0  0  0  0  0  0
   19.5897   -7.3067  -16.3028 O   0  0  0  0  0  0  0  0  0  0  0  0
   20.4016   -7.8227  -14.2395 N   0  0  0  0  0  0  0  0  0  0  0  0
   20.9604   -8.7962  -13.2680 C   0  0  0  0  0  0  0  0  0  0  0  0
   21.7151   -7.9725  -12.2608 C   0  0  0  0  0  0  0  0  0  0  0  0
   20.9689   -6.6586  -12.2246 C   0  0  0  0  0  0  0  0  0  0  0  0
   20.3587   -6.5319  -13.6156 C   0  0  1  0  0  0  0  0  0  0  0  0
   21.2239   -5.5233  -14.3065 C   0  0  0  0  0  0  0  0  0  0  0  0
   22.0793   -5.7951  -15.1680 O   0  0  0  0  0  0  0  0  0  0  0  0
   21.0442   -4.1989  -13.9474 O   0  0  0  0  0  0  0  0  0  0  0  0
  2  1  1  1
  2  3  1  0
  3  4  1  0
  4  5  2  0
  6 13  1  0
  6  2  1  0
  7  6  2  0
  8  4  1  0
 10  9  1  6
 10 12  1  0
 11 10  1  0
 12 14  1  0
 12 13  1  6
 14 16  1  0
 15 14  2  0
 16 17  1  0
 16 20  1  0
 17 18  1  0
 18 19  1  0
 20 19  1  0
 20 21  1  6
 21 23  1  0
 22 21  2  0
M  END
$$$$
