DVP.pdb
     RDKit          3D

 23 23  0  0  1  0  0  0  0  0999 V2000
   19.1822  -13.7506  -15.8868 N   0  0  0  0  0  0  0  0  0  0  0  0
   19.1588  -12.5290  -16.6263 C   0  0  1  0  0  0  0  0  0  0  0  0
   17.8542  -12.3271  -17.3435 C   0  0  0  0  0  0  0  0  0  0  0  0
   17.6308  -13.4040  -18.3547 C   0  0  0  0  0  0  0  0  0  0  0  0
   16.6816  -14.1977  -18.2832 O   0  0  0  0  0  0  0  0  0  0  0  0
   19.3945  -11.3347  -15.7535 C   0  0  0  0  0  0  0  0  0  0  0  0
   18.7025  -11.1790  -14.7130 O   0  0  0  0  0  0  0  0  0  0  0  0
   18.5246  -13.5155  -19.4144 O   0  0  0  0  0  0  0  0  0  0  0  0
   22.3276  -10.6731  -14.0068 C   0  0  0  0  0  0  0  0  0  0  0  0
   22.1176   -9.4299  -14.8207 C   0  0  1  0  0  0  0  0  0  0  0  0
   23.0549   -9.2207  -15.9386 C   0  0  0  0  0  0  0  0  0  0  0  0
   20.6464   -9.2328  -15.1164 C   0  0  2  0  0  0  0  0  0  0  0  0
   20.3634  -10.3649  -16.0419 N   0  0  0  0  0  0  0  0  0  0  0  0
   20.2928   -8.0127  -15.8286 C   0  0  0  0  0  0  0  0  0  0  0  0
   20.9376   -7.7399  -16.9274 O   0  0  0  0  0  0  0  0  0  0  0  0
   19.3125   -7.0426  -15.4937 N   0  0  0  0  0  0  0  0  0  0  0  0
   18.4975   -7.2207  -14.2657 C   0  0  0  0  0  0  0  0  0  0  0  0
   17.9970   -5.8472  -13.9115 C   0  0  0  0  0  0  0  0  0  0  0  0
   17.8741   -5.1439  -15.2436 C   0  0  0  0  0  0  0  0  0  0  0  0
   18.9232   -5.8140  -16.1232 C   0  0  1  0  0  0  0  0  0  0  0  0
   20.0384   -4.8167  -16.1908 C   0  0  0  0  0  0  0  0  0  0  0  0
   21.1396   -4.9457  -15.6264 O   0  0  0  0  0  0  0  0  0  0  0  0
   19.8086   -3.6758  -16.9397 O   0  0  0  0  0  0  0  0  0  0  0  0
  2  1  1  1
  2  3  1  0
  3  4  1  0
  4  5  2  0
  6 13  1  0
  6  2  1  0
  7  6  2  0
  8  4  1  0
 10  9  1  6
 10 12  1  0
 11 10  1  0
 12 14  1  0
 12 13  1  6
 14 16  1  0
 15 14  2  0
 16 17  1  0
 16 20  1  0
 17 18  1  0
 18 19  1  0
 20 19  1  0
 20 21  1  1
 21 23  1  0
 22 21  2  0
M  END
$$$$
