DVP.pdb
     RDKit          3D

 23 23  0  0  1  0  0  0  0  0999 V2000
   21.3618   -6.9189  -14.4125 N   0  0  0  0  0  0  0  0  0  0  0  0
   20.8089   -8.1249  -14.9413 C   0  0  1  0  0  0  0  0  0  0  0  0
   19.6070   -7.8650  -15.8044 C   0  0  0  0  0  0  0  0  0  0  0  0
   18.5155   -7.2179  -15.0159 C   0  0  0  0  0  0  0  0  0  0  0  0
   17.9851   -6.1528  -15.3629 O   0  0  0  0  0  0  0  0  0  0  0  0
   21.8035   -8.8939  -15.7556 C   0  0  0  0  0  0  0  0  0  0  0  0
   22.5702   -8.2790  -16.5430 O   0  0  0  0  0  0  0  0  0  0  0  0
   18.0819   -7.8383  -13.8490 O   0  0  0  0  0  0  0  0  0  0  0  0
   24.3286  -13.0233  -15.6841 C   0  0  0  0  0  0  0  0  0  0  0  0
   23.6562  -11.7739  -15.1950 C   0  0  1  0  0  0  0  0  0  0  0  0
   24.4044  -10.9803  -14.2040 C   0  0  0  0  0  0  0  0  0  0  0  0
   23.0393  -11.0172  -16.3516 C   0  0  2  0  0  0  0  0  0  0  0  0
   21.9257  -10.2876  -15.6840 N   0  0  0  0  0  0  0  0  0  0  0  0
   22.4376  -11.8281  -17.4010 C   0  0  0  0  0  0  0  0  0  0  0  0
   21.5671  -12.7315  -17.0493 O   0  0  0  0  0  0  0  0  0  0  0  0
   22.6639  -11.7771  -18.8012 N   0  0  0  0  0  0  0  0  0  0  0  0
   23.5839  -10.7526  -19.3561 C   0  0  0  0  0  0  0  0  0  0  0  0
   24.0245  -11.2874  -20.6911 C   0  0  0  0  0  0  0  0  0  0  0  0
   22.8487  -12.1099  -21.1658 C   0  0  0  0  0  0  0  0  0  0  0  0
   22.1751  -12.5824  -19.8827 C   0  0  1  0  0  0  0  0  0  0  0  0
   22.5766  -14.0204  -19.7642 C   0  0  0  0  0  0  0  0  0  0  0  0
   23.3898  -14.4629  -18.9331 O   0  0  0  0  0  0  0  0  0  0  0  0
   21.9902  -14.9055  -20.6519 O   0  0  0  0  0  0  0  0  0  0  0  0
  2  1  1  6
  2  3  1  0
  3  4  1  0
  4  5  2  0
  6 13  1  0
  6  2  1  0
  7  6  2  0
  8  4  1  0
 10  9  1  6
 10 12  1  0
 11 10  1  0
 12 14  1  0
 12 13  1  1
 14 16  1  0
 15 14  2  0
 16 17  1  0
 16 20  1  0
 17 18  1  0
 18 19  1  0
 20 19  1  0
 20 21  1  1
 21 23  1  0
 22 21  2  0
M  END
$$$$
