MNM.pdb
     RDKit          3D

 25 24  0  0  1  0  0  0  0  0999 V2000
    8.5265  -11.5229   20.1292 C   0  0  0  0  0  0  0  0  0  0  0  0
    7.6244  -12.5462   18.9645 S   0  0  0  0  0  0  0  0  0  0  0  0
    7.7421  -14.2773   19.3054 C   0  0  0  0  0  0  0  0  0  0  0  0
    7.7809  -14.7072   20.7212 C   0  0  0  0  0  0  0  0  0  0  0  0
    8.9698  -15.4397   21.1499 C   0  0  2  0  0  0  0  0  0  0  0  0
    9.4189  -16.5325   20.3651 N   0  0  0  0  0  0  0  0  0  0  0  0
    8.8539  -15.9422   22.5745 C   0  0  0  0  0  0  0  0  0  0  0  0
    8.1457  -15.3257   23.4112 O   0  0  0  0  0  0  0  0  0  0  0  0
   11.5691  -20.1189   26.1129 N   0  0  0  0  0  0  0  0  0  0  0  0
   10.3539  -19.5349   25.6641 C   0  0  0  0  0  0  0  0  0  0  0  0
    9.3629  -19.5726   26.4169 O   0  0  0  0  0  0  0  0  0  0  0  0
   10.2922  -18.9059   24.3363 C   0  0  0  0  0  0  0  0  0  0  0  0
    9.5131  -17.6211   24.3647 C   0  0  2  0  0  0  0  0  0  0  0  0
    9.5347  -17.1072   22.9909 N   0  0  0  0  0  0  0  0  0  0  0  0
   10.1214  -16.6213   25.2650 C   0  0  0  0  0  0  0  0  0  0  0  0
   11.3125  -16.2089   25.0291 O   0  0  0  0  0  0  0  0  0  0  0  0
    5.8110  -12.1042   25.8521 C   0  0  0  0  0  0  0  0  0  0  0  0
    6.9321  -12.5033   27.2237 S   0  0  0  0  0  0  0  0  0  0  0  0
    8.1974  -13.6658   26.5935 C   0  0  0  0  0  0  0  0  0  0  0  0
    9.1691  -14.0003   27.7150 C   0  0  0  0  0  0  0  0  0  0  0  0
   10.1624  -15.0293   27.2091 C   0  0  2  0  0  0  0  0  0  0  0  0
    9.5020  -16.0425   26.4041 N   0  0  0  0  0  0  0  0  0  0  0  0
   11.0002  -15.5641   28.2882 C   0  0  0  0  0  0  0  0  0  0  0  0
   11.7539  -14.8185   28.9367 O   0  0  0  0  0  0  0  0  0  0  0  0
   10.9496  -16.9084   28.5851 O   0  0  0  0  0  0  0  0  0  0  0  0
  1  2  1  0
  3  2  1  0
  4  3  1  0
  5  4  1  0
  5  6  1  6
  7  8  2  0
  7  5  1  0
  9 10  1  0
 10 12  1  0
 11 10  2  0
 13 12  1  6
 13 14  1  0
 14  7  1  0
 15 13  1  0
 15 16  2  0
 18 17  1  0
 19 20  1  0
 19 18  1  0
 21 22  1  0
 21 20  1  1
 22 15  1  0
 23 21  1  0
 24 23  2  0
 25 23  1  0
M  END
$$$$
