MNM.pdb
     RDKit          3D

 25 24  0  0  1  0  0  0  0  0999 V2000
    7.8518  -12.0863   19.6662 C   0  0  0  0  0  0  0  0  0  0  0  0
    8.2405  -12.9885   18.1654 S   0  0  0  0  0  0  0  0  0  0  0  0
    7.4889  -14.5872   18.0868 C   0  0  0  0  0  0  0  0  0  0  0  0
    6.9655  -15.1730   19.3412 C   0  0  0  0  0  0  0  0  0  0  0  0
    7.9285  -15.8724   20.1881 C   0  0  2  0  0  0  0  0  0  0  0  0
    8.5308  -17.0605   19.7005 N   0  0  0  0  0  0  0  0  0  0  0  0
    7.3634  -16.1974   21.5556 C   0  0  0  0  0  0  0  0  0  0  0  0
    6.7511  -15.3197   22.2163 O   0  0  0  0  0  0  0  0  0  0  0  0
    7.2252  -21.1823   25.2570 N   0  0  0  0  0  0  0  0  0  0  0  0
    6.9269  -19.8367   24.9110 C   0  0  0  0  0  0  0  0  0  0  0  0
    6.4064  -19.1033   25.7719 O   0  0  0  0  0  0  0  0  0  0  0  0
    7.2352  -19.3442   23.5601 C   0  0  0  0  0  0  0  0  0  0  0  0
    7.0275  -17.8601   23.4480 C   0  0  2  0  0  0  0  0  0  0  0  0
    7.5108  -17.4859   22.1145 N   0  0  0  0  0  0  0  0  0  0  0  0
    7.7915  -17.1127   24.4669 C   0  0  0  0  0  0  0  0  0  0  0  0
    9.0718  -17.0910   24.3983 O   0  0  0  0  0  0  0  0  0  0  0  0
    6.4360  -10.7801   26.1077 C   0  0  0  0  0  0  0  0  0  0  0  0
    6.7736  -11.6677   27.6554 S   0  0  0  0  0  0  0  0  0  0  0  0
    7.8650  -13.0835   27.2632 C   0  0  0  0  0  0  0  0  0  0  0  0
    7.0461  -14.1706   26.5838 C   0  0  0  0  0  0  0  0  0  0  0  0
    7.9676  -15.3187   26.2179 C   0  0  2  0  0  0  0  0  0  0  0  0
    7.2376  -16.3841   25.5525 N   0  0  0  0  0  0  0  0  0  0  0  0
    8.7779  -15.7604   27.3585 C   0  0  0  0  0  0  0  0  0  0  0  0
    8.5752  -16.8641   27.8926 O   0  0  0  0  0  0  0  0  0  0  0  0
    9.7746  -14.9413   27.8417 O   0  0  0  0  0  0  0  0  0  0  0  0
  1  2  1  0
  3  2  1  0
  4  3  1  0
  5  4  1  0
  5  6  1  6
  7  8  2  0
  7  5  1  0
  9 10  1  0
 10 12  1  0
 11 10  2  0
 13 12  1  1
 13 14  1  0
 14  7  1  0
 15 13  1  0
 15 16  2  0
 18 17  1  0
 19 20  1  0
 19 18  1  0
 21 22  1  0
 21 20  1  1
 22 15  1  0
 23 21  1  0
 24 23  2  0
 25 23  1  0
M  END
$$$$
