MNM.pdb
     RDKit          3D

 25 24  0  0  1  0  0  0  0  0999 V2000
    8.4190  -11.8063   21.4713 C   0  0  0  0  0  0  0  0  0  0  0  0
    8.3883  -13.1268   20.2578 S   0  0  0  0  0  0  0  0  0  0  0  0
    7.0340  -14.2450   20.4637 C   0  0  0  0  0  0  0  0  0  0  0  0
    6.9551  -15.4166   19.5629 C   0  0  0  0  0  0  0  0  0  0  0  0
    8.1317  -16.2806   19.5089 C   0  0  2  0  0  0  0  0  0  0  0  0
    8.1823  -17.3055   18.5297 N   0  0  0  0  0  0  0  0  0  0  0  0
    8.4276  -16.9346   20.8430 C   0  0  0  0  0  0  0  0  0  0  0  0
    7.5843  -17.6990   21.3780 O   0  0  0  0  0  0  0  0  0  0  0  0
   13.1382  -18.6624   24.2535 N   0  0  0  0  0  0  0  0  0  0  0  0
   11.7591  -18.5362   23.9349 C   0  0  0  0  0  0  0  0  0  0  0  0
   10.9220  -19.0305   24.7126 O   0  0  0  0  0  0  0  0  0  0  0  0
   11.3540  -17.8333   22.7084 C   0  0  0  0  0  0  0  0  0  0  0  0
    9.9770  -17.2445   22.8333 C   0  0  2  0  0  0  0  0  0  0  0  0
    9.6501  -16.7016   21.5104 N   0  0  0  0  0  0  0  0  0  0  0  0
    9.9257  -16.1557   23.8294 C   0  0  0  0  0  0  0  0  0  0  0  0
   10.8751  -15.2944   23.8649 O   0  0  0  0  0  0  0  0  0  0  0  0
    6.3094  -11.2147   25.4622 C   0  0  0  0  0  0  0  0  0  0  0  0
    6.5717  -11.9397   27.1063 S   0  0  0  0  0  0  0  0  0  0  0  0
    8.0365  -13.0326   27.0100 C   0  0  0  0  0  0  0  0  0  0  0  0
    7.8051  -14.0821   25.9334 C   0  0  0  0  0  0  0  0  0  0  0  0
    9.0233  -14.9832   25.8608 C   0  0  2  0  0  0  0  0  0  0  0  0
    8.8953  -15.9507   24.7846 N   0  0  0  0  0  0  0  0  0  0  0  0
    9.3550  -15.5681   27.1648 C   0  0  0  0  0  0  0  0  0  0  0  0
    9.1120  -16.7628   27.4058 O   0  0  0  0  0  0  0  0  0  0  0  0
    9.9429  -14.7829   28.1321 O   0  0  0  0  0  0  0  0  0  0  0  0
  1  2  1  0
  3  2  1  0
  4  3  1  0
  5  4  1  0
  5  6  1  6
  7  8  2  0
  7  5  1  0
  9 10  1  0
 10 12  1  0
 11 10  2  0
 13 12  1  6
 13 14  1  0
 14  7  1  0
 15 13  1  0
 15 16  2  0
 18 17  1  0
 19 20  1  0
 19 18  1  0
 21 22  1  0
 21 20  1  1
 22 15  1  0
 23 21  1  0
 24 23  2  0
 25 23  1  0
M  END
$$$$
