MNM.pdb
     RDKit          3D

 25 24  0  0  1  0  0  0  0  0999 V2000
    8.2032  -11.8152   20.2209 C   0  0  0  0  0  0  0  0  0  0  0  0
    7.9000  -12.5795   18.6267 S   0  0  0  0  0  0  0  0  0  0  0  0
    7.8968  -14.3470   18.6792 C   0  0  0  0  0  0  0  0  0  0  0  0
    7.8534  -15.0043   20.0046 C   0  0  0  0  0  0  0  0  0  0  0  0
    9.1303  -15.4522   20.5547 C   0  0  2  0  0  0  0  0  0  0  0  0
    9.9265  -16.3455   19.7932 N   0  0  0  0  0  0  0  0  0  0  0  0
    8.9807  -16.0646   21.9323 C   0  0  0  0  0  0  0  0  0  0  0  0
    8.1627  -15.5833   22.7574 O   0  0  0  0  0  0  0  0  0  0  0  0
   10.3767  -20.8247   25.2621 N   0  0  0  0  0  0  0  0  0  0  0  0
   10.8767  -19.5344   24.9390 C   0  0  0  0  0  0  0  0  0  0  0  0
   11.5160  -18.9106   25.8063 O   0  0  0  0  0  0  0  0  0  0  0  0
   10.6317  -18.9693   23.6036 C   0  0  0  0  0  0  0  0  0  0  0  0
    9.7420  -17.7597   23.6659 C   0  0  2  0  0  0  0  0  0  0  0  0
    9.7521  -17.1832   22.3170 N   0  0  0  0  0  0  0  0  0  0  0  0
   10.2374  -16.7533   24.6261 C   0  0  0  0  0  0  0  0  0  0  0  0
   11.1948  -15.9743   24.2784 O   0  0  0  0  0  0  0  0  0  0  0  0
    6.2507  -12.8150   27.1169 C   0  0  0  0  0  0  0  0  0  0  0  0
    7.8131  -11.8908   27.1603 S   0  0  0  0  0  0  0  0  0  0  0  0
    9.1738  -13.0986   27.3582 C   0  0  0  0  0  0  0  0  0  0  0  0
    8.8443  -14.3545   26.5655 C   0  0  0  0  0  0  0  0  0  0  0  0
   10.0073  -15.3219   26.6788 C   0  0  2  0  0  0  0  0  0  0  0  0
    9.7439  -16.5455   25.9412 N   0  0  0  0  0  0  0  0  0  0  0  0
   10.4171  -15.5308   28.0720 C   0  0  0  0  0  0  0  0  0  0  0  0
   10.3132  -16.6490   28.6042 O   0  0  0  0  0  0  0  0  0  0  0  0
   10.9228  -14.4744   28.7973 O   0  0  0  0  0  0  0  0  0  0  0  0
  1  2  1  0
  3  2  1  0
  4  3  1  0
  5  4  1  0
  5  6  1  6
  7  8  2  0
  7  5  1  0
  9 10  1  0
 10 12  1  0
 11 10  2  0
 13 12  1  6
 13 14  1  0
 14  7  1  0
 15 13  1  0
 15 16  2  0
 18 17  1  0
 19 20  1  0
 19 18  1  0
 21 22  1  0
 21 20  1  1
 22 15  1  0
 23 21  1  0
 24 23  2  0
 25 23  1  0
M  END
$$$$
