MNM.pdb
     RDKit          3D

 25 24  0  0  1  0  0  0  0  0999 V2000
    8.4494  -12.0539   26.5523 C   0  0  0  0  0  0  0  0  0  0  0  0
    6.7650  -12.6213   26.3105 S   0  0  0  0  0  0  0  0  0  0  0  0
    6.5952  -14.3802   26.3763 C   0  0  0  0  0  0  0  0  0  0  0  0
    7.6298  -15.2050   25.7130 C   0  0  0  0  0  0  0  0  0  0  0  0
    7.1554  -16.2196   24.7754 C   0  0  2  0  0  0  0  0  0  0  0  0
    6.1880  -17.1585   25.2164 N   0  0  0  0  0  0  0  0  0  0  0  0
    8.2910  -17.0151   24.1646 C   0  0  0  0  0  0  0  0  0  0  0  0
    8.5757  -18.1584   24.6045 O   0  0  0  0  0  0  0  0  0  0  0  0
   12.2177  -16.5388   19.6781 N   0  0  0  0  0  0  0  0  0  0  0  0
   11.3394  -17.4358   20.3438 C   0  0  0  0  0  0  0  0  0  0  0  0
   11.6023  -18.6525   20.3196 O   0  0  0  0  0  0  0  0  0  0  0  0
   10.1526  -16.9153   21.0388 C   0  0  0  0  0  0  0  0  0  0  0  0
   10.2227  -17.1605   22.5198 C   0  0  2  0  0  0  0  0  0  0  0  0
    9.0494  -16.4929   23.0941 N   0  0  0  0  0  0  0  0  0  0  0  0
   11.4456  -16.5916   23.1208 C   0  0  0  0  0  0  0  0  0  0  0  0
   12.5784  -17.1384   22.8716 O   0  0  0  0  0  0  0  0  0  0  0  0
   10.1483  -12.5471   27.8158 C   0  0  0  0  0  0  0  0  0  0  0  0
   10.6665  -13.9707   28.8168 S   0  0  0  0  0  0  0  0  0  0  0  0
   11.5852  -15.1181   27.7266 C   0  0  0  0  0  0  0  0  0  0  0  0
   10.9723  -15.0812   26.3349 C   0  0  0  0  0  0  0  0  0  0  0  0
   12.0134  -15.5389   25.3311 C   0  0  2  0  0  0  0  0  0  0  0  0
   11.5028  -15.4575   23.9734 N   0  0  0  0  0  0  0  0  0  0  0  0
   12.5857  -16.8424   25.6857 C   0  0  0  0  0  0  0  0  0  0  0  0
   11.9493  -17.8912   25.4872 O   0  0  0  0  0  0  0  0  0  0  0  0
   13.8433  -16.9030   26.2449 O   0  0  0  0  0  0  0  0  0  0  0  0
  1  2  1  0
  3  2  1  0
  4  3  1  0
  5  4  1  0
  5  6  1  1
  7  8  2  0
  7  5  1  0
  9 10  1  0
 10 12  1  0
 11 10  2  0
 13 12  1  6
 13 14  1  0
 14  7  1  0
 15 13  1  0
 15 16  2  0
 18 17  1  0
 19 20  1  0
 19 18  1  0
 21 22  1  0
 21 20  1  1
 22 15  1  0
 23 21  1  0
 24 23  2  0
 25 23  1  0
M  END
$$$$
