MNM.pdb
     RDKit          3D

 25 24  0  0  1  0  0  0  0  0999 V2000
    7.7561  -11.3633   20.1029 C   0  0  0  0  0  0  0  0  0  0  0  0
    7.6166  -12.6241   18.8347 S   0  0  0  0  0  0  0  0  0  0  0  0
    8.4967  -14.1099   19.2149 C   0  0  0  0  0  0  0  0  0  0  0  0
    8.6168  -14.5037   20.6366 C   0  0  0  0  0  0  0  0  0  0  0  0
    9.4862  -15.6405   20.9291 C   0  0  2  0  0  0  0  0  0  0  0  0
    9.4971  -16.7405   20.0337 N   0  0  0  0  0  0  0  0  0  0  0  0
    9.2483  -16.2059   22.3144 C   0  0  0  0  0  0  0  0  0  0  0  0
    8.3907  -15.6880   23.0745 O   0  0  0  0  0  0  0  0  0  0  0  0
    8.4938  -19.8121   22.5798 N   0  0  0  0  0  0  0  0  0  0  0  0
    9.7560  -20.1856   23.1151 C   0  0  0  0  0  0  0  0  0  0  0  0
   10.2371  -21.2868   22.7895 O   0  0  0  0  0  0  0  0  0  0  0  0
   10.4593  -19.2755   24.0314 C   0  0  0  0  0  0  0  0  0  0  0  0
    9.7928  -17.9303   24.0999 C   0  0  2  0  0  0  0  0  0  0  0  0
    9.9802  -17.3207   22.7789 N   0  0  0  0  0  0  0  0  0  0  0  0
   10.4011  -17.0594   25.1255 C   0  0  0  0  0  0  0  0  0  0  0  0
   11.6673  -16.8576   25.1045 O   0  0  0  0  0  0  0  0  0  0  0  0
    6.6231  -12.0710   26.1522 C   0  0  0  0  0  0  0  0  0  0  0  0
    7.7370  -12.6108   27.4808 S   0  0  0  0  0  0  0  0  0  0  0  0
    8.9434  -13.7828   26.7594 C   0  0  0  0  0  0  0  0  0  0  0  0
    9.5311  -14.6396   27.8705 C   0  0  0  0  0  0  0  0  0  0  0  0
   10.4022  -15.7146   27.2486 C   0  0  2  0  0  0  0  0  0  0  0  0
    9.7058  -16.3927   26.1687 N   0  0  0  0  0  0  0  0  0  0  0  0
   10.9752  -16.6123   28.2577 C   0  0  0  0  0  0  0  0  0  0  0  0
   12.0504  -16.3365   28.8165 O   0  0  0  0  0  0  0  0  0  0  0  0
   10.3124  -17.7737   28.5888 O   0  0  0  0  0  0  0  0  0  0  0  0
  1  2  1  0
  3  2  1  0
  4  3  1  0
  5  4  1  0
  5  6  1  6
  7  8  2  0
  7  5  1  0
  9 10  1  0
 10 12  1  0
 11 10  2  0
 13 12  1  6
 13 14  1  0
 14  7  1  0
 15 13  1  0
 15 16  2  0
 18 17  1  0
 19 20  1  0
 19 18  1  0
 21 22  1  0
 21 20  1  1
 22 15  1  0
 23 21  1  0
 24 23  2  0
 25 23  1  0
M  END
$$$$
