MNM.pdb
     RDKit          3D

 25 24  0  0  1  0  0  0  0  0999 V2000
    7.9770  -11.8156   20.3661 C   0  0  0  0  0  0  0  0  0  0  0  0
    7.6391  -12.7470   18.8709 S   0  0  0  0  0  0  0  0  0  0  0  0
    7.3710  -14.4712   19.1574 C   0  0  0  0  0  0  0  0  0  0  0  0
    7.4272  -14.9623   20.5525 C   0  0  0  0  0  0  0  0  0  0  0  0
    8.7354  -15.3879   21.0439 C   0  0  2  0  0  0  0  0  0  0  0  0
    9.4790  -16.3257   20.2828 N   0  0  0  0  0  0  0  0  0  0  0  0
    8.6722  -15.9244   22.4593 C   0  0  0  0  0  0  0  0  0  0  0  0
    7.7615  -15.5502   23.2417 O   0  0  0  0  0  0  0  0  0  0  0  0
   10.6655  -20.0372   22.1139 N   0  0  0  0  0  0  0  0  0  0  0  0
    9.9511  -19.6845   23.2906 C   0  0  0  0  0  0  0  0  0  0  0  0
    8.8728  -20.2606   23.5261 O   0  0  0  0  0  0  0  0  0  0  0  0
   10.4931  -18.6590   24.1946 C   0  0  0  0  0  0  0  0  0  0  0  0
    9.6007  -17.4519   24.2656 C   0  0  2  0  0  0  0  0  0  0  0  0
    9.6290  -16.8515   22.9275 N   0  0  0  0  0  0  0  0  0  0  0  0
   10.0809  -16.4620   25.2504 C   0  0  0  0  0  0  0  0  0  0  0  0
   11.2440  -15.9433   25.1006 O   0  0  0  0  0  0  0  0  0  0  0  0
    6.8063  -11.3461   25.1403 C   0  0  0  0  0  0  0  0  0  0  0  0
    7.4111  -11.9910   26.7264 S   0  0  0  0  0  0  0  0  0  0  0  0
    8.5196  -13.4033   26.3714 C   0  0  0  0  0  0  0  0  0  0  0  0
    9.0724  -13.9443   27.6813 C   0  0  0  0  0  0  0  0  0  0  0  0
    9.9661  -15.1324   27.3799 C   0  0  2  0  0  0  0  0  0  0  0  0
    9.3621  -16.0027   26.3856 N   0  0  0  0  0  0  0  0  0  0  0  0
   10.4014  -15.8188   28.6013 C   0  0  0  0  0  0  0  0  0  0  0  0
   10.0745  -16.9980   28.8186 O   0  0  0  0  0  0  0  0  0  0  0  0
   11.1816  -15.1474   29.5169 O   0  0  0  0  0  0  0  0  0  0  0  0
  1  2  1  0
  3  2  1  0
  4  3  1  0
  5  4  1  0
  5  6  1  6
  7  8  2  0
  7  5  1  0
  9 10  1  0
 10 12  1  0
 11 10  2  0
 13 12  1  6
 13 14  1  0
 14  7  1  0
 15 13  1  0
 15 16  2  0
 18 17  1  0
 19 20  1  0
 19 18  1  0
 21 22  1  0
 21 20  1  1
 22 15  1  0
 23 21  1  0
 24 23  2  0
 25 23  1  0
M  END
$$$$
