MNM.pdb
     RDKit          3D

 25 24  0  0  1  0  0  0  0  0999 V2000
    8.5652  -11.9768   19.8645 C   0  0  0  0  0  0  0  0  0  0  0  0
    7.4950  -13.2198   20.5905 S   0  0  0  0  0  0  0  0  0  0  0  0
    7.3890  -14.7054   19.6375 C   0  0  0  0  0  0  0  0  0  0  0  0
    6.4730  -15.7695   20.1059 C   0  0  0  0  0  0  0  0  0  0  0  0
    6.7150  -16.2974   21.4463 C   0  0  2  0  0  0  0  0  0  0  0  0
    6.7259  -15.3980   22.5431 N   0  0  0  0  0  0  0  0  0  0  0  0
    7.9969  -17.1008   21.5261 C   0  0  0  0  0  0  0  0  0  0  0  0
    7.9620  -18.3579   21.5143 O   0  0  0  0  0  0  0  0  0  0  0  0
   11.4718  -18.7721   19.4478 N   0  0  0  0  0  0  0  0  0  0  0  0
   11.2617  -17.3699   19.5434 C   0  0  0  0  0  0  0  0  0  0  0  0
   10.8978  -16.7528   18.5251 O   0  0  0  0  0  0  0  0  0  0  0  0
   11.4760  -16.6849   20.8269 C   0  0  0  0  0  0  0  0  0  0  0  0
   10.5130  -17.1594   21.8785 C   0  0  2  0  0  0  0  0  0  0  0  0
    9.2516  -16.4587   21.6144 N   0  0  0  0  0  0  0  0  0  0  0  0
   10.9725  -16.8309   23.2428 C   0  0  0  0  0  0  0  0  0  0  0  0
   12.0866  -16.2149   23.3969 O   0  0  0  0  0  0  0  0  0  0  0  0
   10.3102  -12.8053   29.5207 C   0  0  0  0  0  0  0  0  0  0  0  0
    9.4415  -13.5729   28.1231 S   0  0  0  0  0  0  0  0  0  0  0  0
   10.4538  -14.9813   27.5389 C   0  0  0  0  0  0  0  0  0  0  0  0
    9.9070  -15.4687   26.2058 C   0  0  0  0  0  0  0  0  0  0  0  0
   10.7400  -16.6472   25.7384 C   0  0  2  0  0  0  0  0  0  0  0  0
   10.2832  -17.1318   24.4472 N   0  0  0  0  0  0  0  0  0  0  0  0
   10.8541  -17.6851   26.7691 C   0  0  0  0  0  0  0  0  0  0  0  0
   11.4851  -17.4722   27.8184 O   0  0  0  0  0  0  0  0  0  0  0  0
   10.2542  -18.9091   26.5702 O   0  0  0  0  0  0  0  0  0  0  0  0
  1  2  1  0
  3  2  1  0
  4  3  1  0
  5  4  1  0
  5  6  1  1
  7  8  2  0
  7  5  1  0
  9 10  1  0
 10 12  1  0
 11 10  2  0
 13 12  1  6
 13 14  1  0
 14  7  1  0
 15 13  1  0
 15 16  2  0
 18 17  1  0
 19 20  1  0
 19 18  1  0
 21 22  1  0
 21 20  1  1
 22 15  1  0
 23 21  1  0
 24 23  2  0
 25 23  1  0
M  END
$$$$
