MNM.pdb
     RDKit          3D

 25 24  0  0  1  0  0  0  0  0999 V2000
    7.9253  -11.8595   25.9895 C   0  0  0  0  0  0  0  0  0  0  0  0
    6.6442  -11.8860   24.7343 S   0  0  0  0  0  0  0  0  0  0  0  0
    6.8991  -13.1160   23.4897 C   0  0  0  0  0  0  0  0  0  0  0  0
    7.7896  -14.2546   23.8080 C   0  0  0  0  0  0  0  0  0  0  0  0
    8.0154  -15.2263   22.7410 C   0  0  2  0  0  0  0  0  0  0  0  0
    6.8930  -15.8168   22.1060 N   0  0  0  0  0  0  0  0  0  0  0  0
    8.9188  -16.3615   23.1777 C   0  0  0  0  0  0  0  0  0  0  0  0
    8.4284  -17.4236   23.6393 O   0  0  0  0  0  0  0  0  0  0  0  0
   12.5881  -16.7191   20.2533 N   0  0  0  0  0  0  0  0  0  0  0  0
   12.2249  -17.5695   21.3323 C   0  0  0  0  0  0  0  0  0  0  0  0
   11.6869  -18.6619   21.0727 O   0  0  0  0  0  0  0  0  0  0  0  0
   12.4882  -17.1471   22.7160 C   0  0  0  0  0  0  0  0  0  0  0  0
   11.2614  -17.2624   23.5762 C   0  0  2  0  0  0  0  0  0  0  0  0
   10.3230  -16.2519   23.0760 N   0  0  0  0  0  0  0  0  0  0  0  0
   11.5514  -16.9915   24.9984 C   0  0  0  0  0  0  0  0  0  0  0  0
   12.4128  -16.0911   25.3013 O   0  0  0  0  0  0  0  0  0  0  0  0
    7.9985  -14.1617   28.1524 C   0  0  0  0  0  0  0  0  0  0  0  0
    9.5941  -14.1349   29.0187 S   0  0  0  0  0  0  0  0  0  0  0  0
   10.7728  -15.1502   28.0547 C   0  0  0  0  0  0  0  0  0  0  0  0
   10.4628  -16.6223   28.2803 C   0  0  0  0  0  0  0  0  0  0  0  0
   11.4338  -17.4556   27.4655 C   0  0  2  0  0  0  0  0  0  0  0  0
   10.9513  -17.6433   26.1081 N   0  0  0  0  0  0  0  0  0  0  0  0
   11.8066  -18.6970   28.1529 C   0  0  0  0  0  0  0  0  0  0  0  0
   11.4330  -19.8003   27.7196 O   0  0  0  0  0  0  0  0  0  0  0  0
   12.5799  -18.6376   29.2914 O   0  0  0  0  0  0  0  0  0  0  0  0
  1  2  1  0
  3  2  1  0
  4  3  1  0
  5  4  1  0
  5  6  1  1
  7  8  2  0
  7  5  1  0
  9 10  1  0
 10 12  1  0
 11 10  2  0
 13 12  1  6
 13 14  1  0
 14  7  1  0
 15 13  1  0
 15 16  2  0
 18 17  1  0
 19 20  1  0
 19 18  1  0
 21 22  1  0
 21 20  1  1
 22 15  1  0
 23 21  1  0
 24 23  2  0
 25 23  1  0
M  END
$$$$
