MNM.pdb
     RDKit          3D

 25 24  0  0  1  0  0  0  0  0999 V2000
    9.2793  -13.1045   18.3842 C   0  0  0  0  0  0  0  0  0  0  0  0
    7.6107  -12.6439   18.8540 S   0  0  0  0  0  0  0  0  0  0  0  0
    6.6503  -13.9958   19.4679 C   0  0  0  0  0  0  0  0  0  0  0  0
    7.2898  -14.9264   20.4247 C   0  0  0  0  0  0  0  0  0  0  0  0
    8.4072  -14.3983   21.2034 C   0  0  2  0  0  0  0  0  0  0  0  0
    9.5434  -13.8996   20.5162 N   0  0  0  0  0  0  0  0  0  0  0  0
    8.9160  -15.3920   22.2275 C   0  0  0  0  0  0  0  0  0  0  0  0
    8.1161  -15.9639   23.0115 O   0  0  0  0  0  0  0  0  0  0  0  0
   14.0387  -15.5373   23.0345 N   0  0  0  0  0  0  0  0  0  0  0  0
   12.9889  -16.0411   22.2201 C   0  0  0  0  0  0  0  0  0  0  0  0
   12.8177  -15.5393   21.0936 O   0  0  0  0  0  0  0  0  0  0  0  0
   12.1366  -17.1310   22.7183 C   0  0  0  0  0  0  0  0  0  0  0  0
   10.8612  -16.6102   23.3187 C   0  0  2  0  0  0  0  0  0  0  0  0
   10.2918  -15.6959   22.3228 N   0  0  0  0  0  0  0  0  0  0  0  0
   11.0986  -15.8708   24.5745 C   0  0  0  0  0  0  0  0  0  0  0  0
   11.3642  -14.6173   24.5225 O   0  0  0  0  0  0  0  0  0  0  0  0
    6.2885  -13.2186   26.4886 C   0  0  0  0  0  0  0  0  0  0  0  0
    7.8099  -12.7876   27.3813 S   0  0  0  0  0  0  0  0  0  0  0  0
    8.6266  -14.3467   27.8829 C   0  0  0  0  0  0  0  0  0  0  0  0
    9.1880  -15.0347   26.6478 C   0  0  0  0  0  0  0  0  0  0  0  0
   10.5091  -15.6861   27.0106 C   0  0  2  0  0  0  0  0  0  0  0  0
   11.0576  -16.4203   25.8832 N   0  0  0  0  0  0  0  0  0  0  0  0
   10.4187  -16.4621   28.2524 C   0  0  0  0  0  0  0  0  0  0  0  0
   10.0764  -17.6566   28.2320 O   0  0  0  0  0  0  0  0  0  0  0  0
   10.7172  -15.8584   29.4542 O   0  0  0  0  0  0  0  0  0  0  0  0
  1  2  1  0
  3  2  1  0
  4  3  1  0
  5  4  1  0
  5  6  1  6
  7  8  2  0
  7  5  1  0
  9 10  1  0
 10 12  1  0
 11 10  2  0
 13 12  1  6
 13 14  1  0
 14  7  1  0
 15 13  1  0
 15 16  2  0
 18 17  1  0
 19 20  1  0
 19 18  1  0
 21 22  1  0
 21 20  1  6
 22 15  1  0
 23 21  1  0
 24 23  2  0
 25 23  1  0
M  END
$$$$
