THW.pdb
     RDKit          3D

 32 34  0  0  1  0  0  0  0  0999 V2000
    9.5586  -12.6374   20.4653 C   0  0  0  0  0  0  0  0  0  0  0  0
    8.2158  -12.9020   19.8318 C   0  0  1  0  0  0  0  0  0  0  0  0
    8.0435  -12.1591   18.6662 O   0  0  0  0  0  0  0  0  0  0  0  0
    8.0402  -14.3747   19.4622 C   0  0  2  0  0  0  0  0  0  0  0  0
    6.7129  -14.4989   18.9112 N   0  0  0  0  0  0  0  0  0  0  0  0
    8.3047  -15.2857   20.5825 C   0  0  0  0  0  0  0  0  0  0  0  0
    7.3398  -15.5752   21.3528 O   0  0  0  0  0  0  0  0  0  0  0  0
    9.5523  -15.8749   20.8798 N   0  0  0  0  0  0  0  0  0  0  0  0
    9.6615  -16.9426   21.8933 C   0  0  1  0  0  0  0  0  0  0  0  0
   10.7184  -17.8743   21.3487 C   0  0  0  0  0  0  0  0  0  0  0  0
   10.2521  -18.7831   20.2862 C   0  0  0  0  0  0  0  0  0  0  0  0
    9.0271  -19.4493   20.1541 C   0  0  0  0  0  0  0  0  0  0  0  0
    9.0198  -20.1872   19.0230 N   0  0  0  0  0  0  0  0  0  0  0  0
   10.2086  -20.0044   18.4376 C   0  0  0  0  0  0  0  0  0  0  0  0
   10.9507  -19.1715   19.1767 N   0  0  0  0  0  0  0  0  0  0  0  0
    9.9247  -16.3906   23.2122 C   0  0  0  0  0  0  0  0  0  0  0  0
   10.8090  -15.4636   23.2833 O   0  0  0  0  0  0  0  0  0  0  0  0
    9.3255  -16.7460   24.4275 N   0  0  0  0  0  0  0  0  0  0  0  0
    9.8499  -16.3055   25.7016 C   0  0  1  0  0  0  0  0  0  0  0  0
    8.7584  -16.2708   26.7667 C   0  0  0  0  0  0  0  0  0  0  0  0
    7.6225  -15.4354   26.3182 C   0  0  0  0  0  0  0  0  0  0  0  0
    6.4928  -15.8939   25.6331 C   0  0  0  0  0  0  0  0  0  0  0  0
    5.6767  -14.8576   25.3844 N   0  0  0  0  0  0  0  0  0  0  0  0
    6.2334  -13.7399   25.8829 C   0  0  0  0  0  0  0  0  0  0  0  0
    5.8168  -12.4042   25.9150 C   0  0  0  0  0  0  0  0  0  0  0  0
    6.5859  -11.4239   26.5160 C   0  0  0  0  0  0  0  0  0  0  0  0
    7.7706  -11.8050   27.0775 C   0  0  0  0  0  0  0  0  0  0  0  0
    8.2323  -13.0943   27.0772 C   0  0  0  0  0  0  0  0  0  0  0  0
    7.4552  -14.0753   26.4736 C   0  0  0  0  0  0  0  0  0  0  0  0
   11.0599  -17.0175   26.1378 C   0  0  0  0  0  0  0  0  0  0  0  0
   11.8008  -16.6409   27.2527 O   0  0  0  0  0  0  0  0  0  0  0  0
   11.5080  -18.0295   25.5186 O   0  0  0  0  0  0  0  0  0  0  0  0
  2  1  1  6
  2  4  1  0
  3  2  1  0
  4  5  1  1
  6  8  1  0
  6  4  1  0
  7  6  2  0
  9  8  1  0
  9 16  1  0
  9 10  1  6
 11 12  2  0
 11 10  1  0
 13 12  1  0
 14 15  2  0
 14 13  1  0
 15 11  1  0
 16 18  1  0
 17 16  2  0
 18 19  1  0
 19 20  1  1
 19 30  1  0
 21 20  1  0
 22 21  2  0
 23 22  1  0
 24 23  1  0
 24 29  2  0
 25 24  1  0
 26 25  2  0
 26 27  1  0
 27 28  2  0
 28 29  1  0
 29 21  1  0
 30 32  2  0
 30 31  1  0
M  END
$$$$
