THW.pdb
     RDKit          3D

 32 34  0  0  1  0  0  0  0  0999 V2000
    7.9350  -12.2581   19.5157 C   0  0  0  0  0  0  0  0  0  0  0  0
    8.4818  -13.3054   20.4530 C   0  0  1  0  0  0  0  0  0  0  0  0
    7.8768  -13.2381   21.7058 O   0  0  0  0  0  0  0  0  0  0  0  0
    8.2622  -14.7200   19.9175 C   0  0  2  0  0  0  0  0  0  0  0  0
    6.8510  -14.8341   19.6408 N   0  0  0  0  0  0  0  0  0  0  0  0
    8.7767  -15.7622   20.8141 C   0  0  0  0  0  0  0  0  0  0  0  0
    7.9490  -16.3597   21.5665 O   0  0  0  0  0  0  0  0  0  0  0  0
   10.1266  -16.1626   20.9122 N   0  0  0  0  0  0  0  0  0  0  0  0
   10.5429  -17.1816   21.8956 C   0  0  1  0  0  0  0  0  0  0  0  0
   11.7811  -17.8039   21.2942 C   0  0  0  0  0  0  0  0  0  0  0  0
   11.5262  -18.7262   20.1732 C   0  0  0  0  0  0  0  0  0  0  0  0
   10.3446  -19.3836   19.8078 C   0  0  0  0  0  0  0  0  0  0  0  0
   10.5551  -20.1402   18.7091 N   0  0  0  0  0  0  0  0  0  0  0  0
   11.8393  -19.9778   18.3714 C   0  0  0  0  0  0  0  0  0  0  0  0
   12.4282  -19.1393   19.2321 N   0  0  0  0  0  0  0  0  0  0  0  0
   10.7067  -16.6002   23.2180 C   0  0  0  0  0  0  0  0  0  0  0  0
   11.4228  -15.5384   23.2963 O   0  0  0  0  0  0  0  0  0  0  0  0
   10.1727  -17.0574   24.4296 N   0  0  0  0  0  0  0  0  0  0  0  0
   10.3855  -16.3567   25.6771 C   0  0  1  0  0  0  0  0  0  0  0  0
    9.8781  -14.9202   25.5979 C   0  0  0  0  0  0  0  0  0  0  0  0
    8.4102  -14.8779   25.7793 C   0  0  0  0  0  0  0  0  0  0  0  0
    7.5392  -15.9631   25.6399 C   0  0  0  0  0  0  0  0  0  0  0  0
    6.2824  -15.5528   25.8719 N   0  0  0  0  0  0  0  0  0  0  0  0
    6.3025  -14.2391   26.1577 C   0  0  0  0  0  0  0  0  0  0  0  0
    5.2965  -13.3227   26.4845 C   0  0  0  0  0  0  0  0  0  0  0  0
    5.5889  -11.9978   26.7545 C   0  0  0  0  0  0  0  0  0  0  0  0
    6.8972  -11.6128   26.6895 C   0  0  0  0  0  0  0  0  0  0  0  0
    7.9248  -12.4615   26.3745 C   0  0  0  0  0  0  0  0  0  0  0  0
    7.6258  -13.7916   26.1057 C   0  0  0  0  0  0  0  0  0  0  0  0
    9.9027  -17.0748   26.8656 C   0  0  0  0  0  0  0  0  0  0  0  0
    9.1915  -18.2676   26.7938 O   0  0  0  0  0  0  0  0  0  0  0  0
   10.1068  -16.6473   28.0420 O   0  0  0  0  0  0  0  0  0  0  0  0
  2  1  1  6
  2  4  1  0
  3  2  1  0
  4  5  1  1
  6  8  1  0
  6  4  1  0
  7  6  2  0
  9  8  1  0
  9 16  1  0
  9 10  1  6
 11 12  2  0
 11 10  1  0
 13 12  1  0
 14 15  2  0
 14 13  1  0
 15 11  1  0
 16 18  1  0
 17 16  2  0
 18 19  1  0
 19 20  1  6
 19 30  1  0
 21 20  1  0
 22 21  2  0
 23 22  1  0
 24 23  1  0
 24 29  2  0
 25 24  1  0
 26 25  2  0
 26 27  1  0
 27 28  2  0
 28 29  1  0
 29 21  1  0
 30 32  2  0
 30 31  1  0
M  END
$$$$
