THW.pdb
     RDKit          3D

 32 34  0  0  1  0  0  0  0  0999 V2000
    7.1368  -21.0923   21.4199 C   0  0  0  0  0  0  0  0  0  0  0  0
    7.9243  -19.8819   21.8550 C   0  0  1  0  0  0  0  0  0  0  0  0
    9.1138  -20.2430   22.4834 O   0  0  0  0  0  0  0  0  0  0  0  0
    8.2890  -18.9841   20.6730 C   0  0  2  0  0  0  0  0  0  0  0  0
    8.9851  -19.8219   19.7272 N   0  0  0  0  0  0  0  0  0  0  0  0
    9.0398  -17.7864   21.0689 C   0  0  0  0  0  0  0  0  0  0  0  0
   10.2940  -17.7832   20.8817 O   0  0  0  0  0  0  0  0  0  0  0  0
    8.4815  -16.6251   21.6448 N   0  0  0  0  0  0  0  0  0  0  0  0
    9.3366  -15.4821   22.0207 C   0  0  1  0  0  0  0  0  0  0  0  0
    8.5283  -14.2639   21.6403 C   0  0  0  0  0  0  0  0  0  0  0  0
    8.4266  -14.0188   20.1905 C   0  0  0  0  0  0  0  0  0  0  0  0
    8.9355  -14.7651   19.1200 C   0  0  0  0  0  0  0  0  0  0  0  0
    8.6100  -14.1776   17.9484 N   0  0  0  0  0  0  0  0  0  0  0  0
    7.9090  -13.0793   18.2513 C   0  0  0  0  0  0  0  0  0  0  0  0
    7.7913  -12.9730   19.5801 N   0  0  0  0  0  0  0  0  0  0  0  0
    9.7391  -15.5628   23.4154 C   0  0  0  0  0  0  0  0  0  0  0  0
   10.5043  -14.6288   23.8496 O   0  0  0  0  0  0  0  0  0  0  0  0
    9.3902  -16.5413   24.3550 N   0  0  0  0  0  0  0  0  0  0  0  0
    9.8482  -16.4892   25.7261 C   0  0  1  0  0  0  0  0  0  0  0  0
    8.6795  -16.5734   26.7030 C   0  0  0  0  0  0  0  0  0  0  0  0
    7.6064  -15.6334   26.3101 C   0  0  0  0  0  0  0  0  0  0  0  0
    6.3862  -15.9864   25.7251 C   0  0  0  0  0  0  0  0  0  0  0  0
    5.6664  -14.8758   25.5013 N   0  0  0  0  0  0  0  0  0  0  0  0
    6.3732  -13.8112   25.9195 C   0  0  0  0  0  0  0  0  0  0  0  0
    6.1022  -12.4383   25.9363 C   0  0  0  0  0  0  0  0  0  0  0  0
    7.0131  -11.5304   26.4458 C   0  0  0  0  0  0  0  0  0  0  0  0
    8.1906  -12.0210   26.9324 C   0  0  0  0  0  0  0  0  0  0  0  0
    8.5136  -13.3518   26.9424 C   0  0  0  0  0  0  0  0  0  0  0  0
    7.5946  -14.2597   26.4308 C   0  0  0  0  0  0  0  0  0  0  0  0
   10.9317  -17.4321   26.0395 C   0  0  0  0  0  0  0  0  0  0  0  0
   11.5669  -17.4734   27.2758 O   0  0  0  0  0  0  0  0  0  0  0  0
   11.3589  -18.2750   25.1937 O   0  0  0  0  0  0  0  0  0  0  0  0
  2  1  1  6
  2  4  1  0
  3  2  1  0
  4  5  1  6
  6  8  1  0
  6  4  1  0
  7  6  2  0
  9  8  1  0
  9 16  1  0
  9 10  1  1
 11 12  2  0
 11 10  1  0
 13 12  1  0
 14 15  2  0
 14 13  1  0
 15 11  1  0
 16 18  1  0
 17 16  2  0
 18 19  1  0
 19 20  1  1
 19 30  1  0
 21 20  1  0
 22 21  2  0
 23 22  1  0
 24 23  1  0
 24 29  2  0
 25 24  1  0
 26 25  2  0
 26 27  1  0
 27 28  2  0
 28 29  1  0
 29 21  1  0
 30 32  2  0
 30 31  1  0
M  END
$$$$
