THW.pdb
     RDKit          3D

 32 34  0  0  1  0  0  0  0  0999 V2000
    7.4680  -22.6582   20.9886 C   0  0  0  0  0  0  0  0  0  0  0  0
    8.0825  -21.2863   21.1106 C   0  0  1  0  0  0  0  0  0  0  0  0
    9.4634  -21.3256   20.9328 O   0  0  0  0  0  0  0  0  0  0  0  0
    7.5182  -20.3148   20.0742 C   0  0  2  0  0  0  0  0  0  0  0  0
    7.7794  -20.9027   18.7830 N   0  0  0  0  0  0  0  0  0  0  0  0
    8.0381  -18.9499   20.2203 C   0  0  0  0  0  0  0  0  0  0  0  0
    9.1350  -18.6682   19.6497 O   0  0  0  0  0  0  0  0  0  0  0  0
    7.4166  -17.9120   20.9474 N   0  0  0  0  0  0  0  0  0  0  0  0
    8.0948  -16.6157   21.1435 C   0  0  1  0  0  0  0  0  0  0  0  0
    7.0633  -15.5856   20.7477 C   0  0  0  0  0  0  0  0  0  0  0  0
    7.4887  -14.1858   20.9263 C   0  0  0  0  0  0  0  0  0  0  0  0
    8.2004  -13.3501   20.0562 C   0  0  0  0  0  0  0  0  0  0  0  0
    8.3791  -12.1364   20.6209 N   0  0  0  0  0  0  0  0  0  0  0  0
    7.7990  -12.1842   21.8253 C   0  0  0  0  0  0  0  0  0  0  0  0
    7.2649  -13.3957   22.0196 N   0  0  0  0  0  0  0  0  0  0  0  0
    8.6210  -16.4964   22.4935 C   0  0  0  0  0  0  0  0  0  0  0  0
    7.8590  -16.8932   23.4465 O   0  0  0  0  0  0  0  0  0  0  0  0
    9.8700  -15.9998   22.8880 N   0  0  0  0  0  0  0  0  0  0  0  0
   10.2561  -15.9059   24.2789 C   0  0  1  0  0  0  0  0  0  0  0  0
    9.8705  -14.5533   24.8696 C   0  0  0  0  0  0  0  0  0  0  0  0
    8.4842  -14.5889   25.3854 C   0  0  0  0  0  0  0  0  0  0  0  0
    7.6509  -15.7118   25.4093 C   0  0  0  0  0  0  0  0  0  0  0  0
    6.4659  -15.3708   25.9397 N   0  0  0  0  0  0  0  0  0  0  0  0
    6.4965  -14.0660   26.2628 C   0  0  0  0  0  0  0  0  0  0  0  0
    5.5560  -13.2099   26.8469 C   0  0  0  0  0  0  0  0  0  0  0  0
    5.8471  -11.8800   27.0923 C   0  0  0  0  0  0  0  0  0  0  0  0
    7.0874  -11.4289   26.7426 C   0  0  0  0  0  0  0  0  0  0  0  0
    8.0488  -12.2167   26.1676 C   0  0  0  0  0  0  0  0  0  0  0  0
    7.7518  -13.5521   25.9246 C   0  0  0  0  0  0  0  0  0  0  0  0
    9.8234  -17.0417   25.1060 C   0  0  0  0  0  0  0  0  0  0  0  0
    9.2378  -18.1860   24.5758 O   0  0  0  0  0  0  0  0  0  0  0  0
    9.9586  -17.0489   26.3670 O   0  0  0  0  0  0  0  0  0  0  0  0
  2  1  1  6
  2  4  1  0
  3  2  1  0
  4  5  1  6
  6  8  1  0
  6  4  1  0
  7  6  2  0
  9  8  1  0
  9 16  1  0
  9 10  1  1
 11 12  2  0
 11 10  1  0
 13 12  1  0
 14 15  2  0
 14 13  1  0
 15 11  1  0
 16 18  1  0
 17 16  2  0
 18 19  1  0
 19 20  1  1
 19 30  1  0
 21 20  1  0
 22 21  2  0
 23 22  1  0
 24 23  1  0
 24 29  2  0
 25 24  1  0
 26 25  2  0
 26 27  1  0
 27 28  2  0
 28 29  1  0
 29 21  1  0
 30 32  2  0
 30 31  1  0
M  END
$$$$
