THW.pdb
     RDKit          3D

 32 34  0  0  1  0  0  0  0  0999 V2000
    5.7358  -18.6913   19.4814 C   0  0  0  0  0  0  0  0  0  0  0  0
    6.5739  -17.9131   20.4645 C   0  0  1  0  0  0  0  0  0  0  0  0
    6.1191  -18.0797   21.7705 O   0  0  0  0  0  0  0  0  0  0  0  0
    8.0388  -18.3483   20.4343 C   0  0  2  0  0  0  0  0  0  0  0  0
    8.0413  -19.7773   20.6317 N   0  0  0  0  0  0  0  0  0  0  0  0
    8.8775  -17.6162   21.3911 C   0  0  0  0  0  0  0  0  0  0  0  0
    8.8921  -18.0155   22.5947 O   0  0  0  0  0  0  0  0  0  0  0  0
    9.6787  -16.4952   21.0850 N   0  0  0  0  0  0  0  0  0  0  0  0
    9.3866  -15.1739   21.6748 C   0  0  1  0  0  0  0  0  0  0  0  0
    8.0273  -14.8075   21.1270 C   0  0  0  0  0  0  0  0  0  0  0  0
    8.0211  -14.4056   19.7090 C   0  0  0  0  0  0  0  0  0  0  0  0
    8.2842  -13.1562   19.1331 C   0  0  0  0  0  0  0  0  0  0  0  0
    8.1654  -13.2301   17.7898 N   0  0  0  0  0  0  0  0  0  0  0  0
    7.8337  -14.4938   17.5026 C   0  0  0  0  0  0  0  0  0  0  0  0
    7.7456  -15.2038   18.6334 N   0  0  0  0  0  0  0  0  0  0  0  0
    9.4950  -15.2094   23.1241 C   0  0  0  0  0  0  0  0  0  0  0  0
    9.4880  -14.0787   23.7306 O   0  0  0  0  0  0  0  0  0  0  0  0
    9.6044  -16.3354   23.9501 N   0  0  0  0  0  0  0  0  0  0  0  0
    9.9421  -16.2306   25.3528 C   0  0  1  0  0  0  0  0  0  0  0  0
    8.7602  -16.6172   26.2364 C   0  0  0  0  0  0  0  0  0  0  0  0
    7.6221  -15.6987   26.0113 C   0  0  0  0  0  0  0  0  0  0  0  0
    6.3776  -16.0557   25.4828 C   0  0  0  0  0  0  0  0  0  0  0  0
    5.5970  -14.9657   25.4169 N   0  0  0  0  0  0  0  0  0  0  0  0
    6.2876  -13.9107   25.8837 C   0  0  0  0  0  0  0  0  0  0  0  0
    5.9611  -12.5600   26.0500 C   0  0  0  0  0  0  0  0  0  0  0  0
    6.8685  -11.6593   26.5782 C   0  0  0  0  0  0  0  0  0  0  0  0
    8.0987  -12.1344   26.9317 C   0  0  0  0  0  0  0  0  0  0  0  0
    8.4772  -13.4431   26.7923 C   0  0  0  0  0  0  0  0  0  0  0  0
    7.5616  -14.3440   26.2627 C   0  0  0  0  0  0  0  0  0  0  0  0
   11.1903  -16.9106   25.7281 C   0  0  0  0  0  0  0  0  0  0  0  0
   11.7084  -16.8865   27.0183 O   0  0  0  0  0  0  0  0  0  0  0  0
   11.8792  -17.5681   24.8906 O   0  0  0  0  0  0  0  0  0  0  0  0
  2  1  1  6
  2  4  1  0
  3  2  1  0
  4  5  1  1
  6  8  1  0
  6  4  1  0
  7  6  2  0
  9  8  1  0
  9 16  1  0
  9 10  1  1
 11 12  2  0
 11 10  1  0
 13 12  1  0
 14 15  2  0
 14 13  1  0
 15 11  1  0
 16 18  1  0
 17 16  2  0
 18 19  1  0
 19 20  1  1
 19 30  1  0
 21 20  1  0
 22 21  2  0
 23 22  1  0
 24 23  1  0
 24 29  2  0
 25 24  1  0
 26 25  2  0
 26 27  1  0
 27 28  2  0
 28 29  1  0
 29 21  1  0
 30 32  2  0
 30 31  1  0
M  END
$$$$
