THW.pdb
     RDKit          3D

 32 34  0  0  1  0  0  0  0  0999 V2000
    5.6745  -15.6989   20.0494 C   0  0  0  0  0  0  0  0  0  0  0  0
    6.8234  -15.9580   20.9914 C   0  0  1  0  0  0  0  0  0  0  0  0
    6.5203  -16.9650   21.9047 O   0  0  0  0  0  0  0  0  0  0  0  0
    8.0867  -16.3862   20.2452 C   0  0  2  0  0  0  0  0  0  0  0  0
    7.7396  -17.5788   19.5116 N   0  0  0  0  0  0  0  0  0  0  0  0
    9.2493  -16.5496   21.1264 C   0  0  0  0  0  0  0  0  0  0  0  0
    9.5096  -17.7140   21.5561 O   0  0  0  0  0  0  0  0  0  0  0  0
   10.1128  -15.5128   21.5408 N   0  0  0  0  0  0  0  0  0  0  0  0
   11.1356  -15.7507   22.5783 C   0  0  1  0  0  0  0  0  0  0  0  0
   12.2694  -14.8223   22.2115 C   0  0  0  0  0  0  0  0  0  0  0  0
   12.9474  -15.1469   20.9437 C   0  0  0  0  0  0  0  0  0  0  0  0
   12.7175  -16.2023   20.0520 C   0  0  0  0  0  0  0  0  0  0  0  0
   13.5726  -16.1238   19.0097 N   0  0  0  0  0  0  0  0  0  0  0  0
   14.3368  -15.0463   19.2203 C   0  0  0  0  0  0  0  0  0  0  0  0
   13.9756  -14.4555   20.3653 N   0  0  0  0  0  0  0  0  0  0  0  0
   10.5826  -15.5765   23.9115 C   0  0  0  0  0  0  0  0  0  0  0  0
    9.5086  -14.8807   24.0038 O   0  0  0  0  0  0  0  0  0  0  0  0
   11.0793  -16.0811   25.1202 N   0  0  0  0  0  0  0  0  0  0  0  0
   10.2143  -16.3935   26.2367 C   0  0  1  0  0  0  0  0  0  0  0  0
    8.8749  -16.9471   25.7605 C   0  0  0  0  0  0  0  0  0  0  0  0
    7.8315  -15.8994   25.8159 C   0  0  0  0  0  0  0  0  0  0  0  0
    6.4971  -16.0555   25.4277 C   0  0  0  0  0  0  0  0  0  0  0  0
    5.8459  -14.8960   25.6106 N   0  0  0  0  0  0  0  0  0  0  0  0
    6.7076  -13.9896   26.1042 C   0  0  0  0  0  0  0  0  0  0  0  0
    6.5633  -12.6502   26.4836 C   0  0  0  0  0  0  0  0  0  0  0  0
    7.6285  -11.9255   26.9875 C   0  0  0  0  0  0  0  0  0  0  0  0
    8.8303  -12.5633   27.1010 C   0  0  0  0  0  0  0  0  0  0  0  0
    9.0340  -13.8702   26.7459 C   0  0  0  0  0  0  0  0  0  0  0  0
    7.9605  -14.5941   26.2418 C   0  0  0  0  0  0  0  0  0  0  0  0
   10.8430  -17.2192   27.2780 C   0  0  0  0  0  0  0  0  0  0  0  0
   10.3903  -17.2564   28.5923 O   0  0  0  0  0  0  0  0  0  0  0  0
   11.8471  -17.9565   27.0403 O   0  0  0  0  0  0  0  0  0  0  0  0
  2  1  1  6
  2  4  1  0
  3  2  1  0
  4  5  1  1
  6  8  1  0
  6  4  1  0
  7  6  2  0
  9  8  1  0
  9 16  1  0
  9 10  1  6
 11 12  2  0
 11 10  1  0
 13 12  1  0
 14 15  2  0
 14 13  1  0
 15 11  1  0
 16 18  1  0
 17 16  2  0
 18 19  1  0
 19 20  1  6
 19 30  1  0
 21 20  1  0
 22 21  2  0
 23 22  1  0
 24 23  1  0
 24 29  2  0
 25 24  1  0
 26 25  2  0
 26 27  1  0
 27 28  2  0
 28 29  1  0
 29 21  1  0
 30 32  2  0
 30 31  1  0
M  END
$$$$
