THW.pdb
     RDKit          3D

 32 34  0  0  1  0  0  0  0  0999 V2000
    9.9175  -20.1135   18.1229 C   0  0  0  0  0  0  0  0  0  0  0  0
   10.0420  -18.7058   18.6494 C   0  0  1  0  0  0  0  0  0  0  0  0
    9.0195  -17.8883   18.1735 O   0  0  0  0  0  0  0  0  0  0  0  0
    9.9863  -18.6612   20.1761 C   0  0  2  0  0  0  0  0  0  0  0  0
    8.7565  -19.3125   20.5561 N   0  0  0  0  0  0  0  0  0  0  0  0
   10.1314  -17.3051   20.7190 C   0  0  0  0  0  0  0  0  0  0  0  0
   11.2429  -16.7166   20.5570 O   0  0  0  0  0  0  0  0  0  0  0  0
    9.1306  -16.5909   21.4121 N   0  0  0  0  0  0  0  0  0  0  0  0
    9.4092  -15.2562   21.9777 C   0  0  1  0  0  0  0  0  0  0  0  0
    8.2439  -14.4052   21.5305 C   0  0  0  0  0  0  0  0  0  0  0  0
    8.1838  -14.1544   20.0794 C   0  0  0  0  0  0  0  0  0  0  0  0
    9.0630  -14.5563   19.0658 C   0  0  0  0  0  0  0  0  0  0  0  0
    8.6285  -14.1062   17.8690 N   0  0  0  0  0  0  0  0  0  0  0  0
    7.4978  -13.4299   18.1006 C   0  0  0  0  0  0  0  0  0  0  0  0
    7.2209  -13.4514   19.4097 N   0  0  0  0  0  0  0  0  0  0  0  0
    9.6246  -15.3280   23.4137 C   0  0  0  0  0  0  0  0  0  0  0  0
    9.8579  -14.2204   24.0178 O   0  0  0  0  0  0  0  0  0  0  0  0
    9.6062  -16.4668   24.2292 N   0  0  0  0  0  0  0  0  0  0  0  0
    9.9845  -16.4198   25.6246 C   0  0  1  0  0  0  0  0  0  0  0  0
    8.7737  -16.6118   26.5325 C   0  0  0  0  0  0  0  0  0  0  0  0
    7.6903  -15.6766   26.1568 C   0  0  0  0  0  0  0  0  0  0  0  0
    6.5087  -16.0210   25.4928 C   0  0  0  0  0  0  0  0  0  0  0  0
    5.7653  -14.9178   25.3140 N   0  0  0  0  0  0  0  0  0  0  0  0
    6.4196  -13.8663   25.8376 C   0  0  0  0  0  0  0  0  0  0  0  0
    6.1056  -12.5061   25.9374 C   0  0  0  0  0  0  0  0  0  0  0  0
    6.9645  -11.6117   26.5506 C   0  0  0  0  0  0  0  0  0  0  0  0
    8.1340  -12.1026   27.0557 C   0  0  0  0  0  0  0  0  0  0  0  0
    8.4974  -13.4212   26.9879 C   0  0  0  0  0  0  0  0  0  0  0  0
    7.6305  -14.3158   26.3723 C   0  0  0  0  0  0  0  0  0  0  0  0
   11.1139  -17.2927   25.9762 C   0  0  0  0  0  0  0  0  0  0  0  0
   11.7038  -17.2993   27.2354 O   0  0  0  0  0  0  0  0  0  0  0  0
   11.6259  -18.1022   25.1449 O   0  0  0  0  0  0  0  0  0  0  0  0
  2  1  1  1
  2  4  1  0
  3  2  1  0
  4  5  1  6
  6  8  1  0
  6  4  1  0
  7  6  2  0
  9  8  1  0
  9 16  1  0
  9 10  1  1
 11 12  2  0
 11 10  1  0
 13 12  1  0
 14 15  2  0
 14 13  1  0
 15 11  1  0
 16 18  1  0
 17 16  2  0
 18 19  1  0
 19 20  1  1
 19 30  1  0
 21 20  1  0
 22 21  2  0
 23 22  1  0
 24 23  1  0
 24 29  2  0
 25 24  1  0
 26 25  2  0
 26 27  1  0
 27 28  2  0
 28 29  1  0
 29 21  1  0
 30 32  2  0
 30 31  1  0
M  END
$$$$
