THW.pdb
     RDKit          3D

 32 34  0  0  1  0  0  0  0  0999 V2000
   13.0911  -19.9061   19.0360 C   0  0  0  0  0  0  0  0  0  0  0  0
   12.6472  -18.8428   20.0091 C   0  0  1  0  0  0  0  0  0  0  0  0
   13.6869  -18.4502   20.8487 O   0  0  0  0  0  0  0  0  0  0  0  0
   12.1430  -17.5899   19.2934 C   0  0  2  0  0  0  0  0  0  0  0  0
   13.2576  -17.0823   18.5312 N   0  0  0  0  0  0  0  0  0  0  0  0
   11.5504  -16.6041   20.2055 C   0  0  0  0  0  0  0  0  0  0  0  0
   12.2778  -15.6392   20.5906 O   0  0  0  0  0  0  0  0  0  0  0  0
   10.2273  -16.6360   20.6958 N   0  0  0  0  0  0  0  0  0  0  0  0
    9.7409  -15.5982   21.6260 C   0  0  1  0  0  0  0  0  0  0  0  0
    8.2853  -15.4183   21.2644 C   0  0  0  0  0  0  0  0  0  0  0  0
    8.0463  -14.6443   20.0331 C   0  0  0  0  0  0  0  0  0  0  0  0
    8.9566  -13.9638   19.2144 C   0  0  0  0  0  0  0  0  0  0  0  0
    8.3080  -13.3825   18.1824 N   0  0  0  0  0  0  0  0  0  0  0  0
    7.0115  -13.6778   18.3284 C   0  0  0  0  0  0  0  0  0  0  0  0
    6.8416  -14.4281   19.4234 N   0  0  0  0  0  0  0  0  0  0  0  0
   10.0081  -15.9635   23.0076 C   0  0  0  0  0  0  0  0  0  0  0  0
   11.2338  -16.1783   23.3205 O   0  0  0  0  0  0  0  0  0  0  0  0
    9.0855  -16.1091   24.0516 N   0  0  0  0  0  0  0  0  0  0  0  0
    9.4938  -16.4477   25.3974 C   0  0  1  0  0  0  0  0  0  0  0  0
    8.3030  -16.4562   26.3508 C   0  0  0  0  0  0  0  0  0  0  0  0
    7.4123  -15.3065   26.0784 C   0  0  0  0  0  0  0  0  0  0  0  0
    6.1312  -15.3805   25.5225 C   0  0  0  0  0  0  0  0  0  0  0  0
    5.6242  -14.1421   25.4161 N   0  0  0  0  0  0  0  0  0  0  0  0
    6.5285  -13.2634   25.8826 C   0  0  0  0  0  0  0  0  0  0  0  0
    6.5180  -11.8702   26.0159 C   0  0  0  0  0  0  0  0  0  0  0  0
    7.5963  -11.1898   26.5526 C   0  0  0  0  0  0  0  0  0  0  0  0
    8.6759  -11.9262   26.9479 C   0  0  0  0  0  0  0  0  0  0  0  0
    8.7460  -13.2899   26.8422 C   0  0  0  0  0  0  0  0  0  0  0  0
    7.6596  -13.9686   26.3039 C   0  0  0  0  0  0  0  0  0  0  0  0
   10.3189  -17.6607   25.4933 C   0  0  0  0  0  0  0  0  0  0  0  0
   11.4583  -17.7418   26.2863 O   0  0  0  0  0  0  0  0  0  0  0  0
   10.0404  -18.7192   24.8526 O   0  0  0  0  0  0  0  0  0  0  0  0
  2  1  1  6
  2  4  1  0
  3  2  1  0
  4  5  1  1
  6  8  1  0
  6  4  1  0
  7  6  2  0
  9  8  1  0
  9 16  1  0
  9 10  1  1
 11 12  2  0
 11 10  1  0
 13 12  1  0
 14 15  2  0
 14 13  1  0
 15 11  1  0
 16 18  1  0
 17 16  2  0
 18 19  1  0
 19 20  1  1
 19 30  1  0
 21 20  1  0
 22 21  2  0
 23 22  1  0
 24 23  1  0
 24 29  2  0
 25 24  1  0
 26 25  2  0
 26 27  1  0
 27 28  2  0
 28 29  1  0
 29 21  1  0
 30 32  2  0
 30 31  1  0
M  END
$$$$
