THW.pdb
     RDKit          3D

 32 34  0  0  1  0  0  0  0  0999 V2000
    8.6006  -11.8894   19.0019 C   0  0  0  0  0  0  0  0  0  0  0  0
    8.8257  -13.1174   19.8479 C   0  0  1  0  0  0  0  0  0  0  0  0
    8.2739  -12.9726   21.1186 O   0  0  0  0  0  0  0  0  0  0  0  0
    8.2018  -14.3638   19.2206 C   0  0  2  0  0  0  0  0  0  0  0  0
    6.8089  -14.0558   19.0065 N   0  0  0  0  0  0  0  0  0  0  0  0
    8.4253  -15.5804   20.0110 C   0  0  0  0  0  0  0  0  0  0  0  0
    7.4654  -16.0144   20.7170 O   0  0  0  0  0  0  0  0  0  0  0  0
    9.6279  -16.3181   20.0534 N   0  0  0  0  0  0  0  0  0  0  0  0
    9.8641  -17.3179   21.1134 C   0  0  1  0  0  0  0  0  0  0  0  0
   10.5670  -18.4553   20.4105 C   0  0  0  0  0  0  0  0  0  0  0  0
   10.3504  -18.5086   18.9536 C   0  0  0  0  0  0  0  0  0  0  0  0
    9.5566  -17.6926   18.1377 C   0  0  0  0  0  0  0  0  0  0  0  0
    9.6457  -18.0951   16.8517 N   0  0  0  0  0  0  0  0  0  0  0  0
   10.4750  -19.1446   16.8345 C   0  0  0  0  0  0  0  0  0  0  0  0
   10.9023  -19.4007   18.0765 N   0  0  0  0  0  0  0  0  0  0  0  0
   10.5765  -16.7336   22.2381 C   0  0  0  0  0  0  0  0  0  0  0  0
   11.1753  -15.6190   22.0250 O   0  0  0  0  0  0  0  0  0  0  0  0
   10.6898  -17.2391   23.5395 N   0  0  0  0  0  0  0  0  0  0  0  0
   10.2749  -16.4796   24.6986 C   0  0  1  0  0  0  0  0  0  0  0  0
    8.9440  -15.7762   24.4513 C   0  0  0  0  0  0  0  0  0  0  0  0
    8.5592  -14.9658   25.6279 C   0  0  0  0  0  0  0  0  0  0  0  0
    8.9761  -15.1889   26.9440 C   0  0  0  0  0  0  0  0  0  0  0  0
    8.4253  -14.2628   27.7444 N   0  0  0  0  0  0  0  0  0  0  0  0
    7.6643  -13.4437   26.9976 C   0  0  0  0  0  0  0  0  0  0  0  0
    6.8880  -12.3216   27.3093 C   0  0  0  0  0  0  0  0  0  0  0  0
    6.1957  -11.6304   26.3312 C   0  0  0  0  0  0  0  0  0  0  0  0
    6.2946  -12.0827   25.0468 C   0  0  0  0  0  0  0  0  0  0  0  0
    7.0364  -13.1739   24.6799 C   0  0  0  0  0  0  0  0  0  0  0  0
    7.7311  -13.8637   25.6659 C   0  0  0  0  0  0  0  0  0  0  0  0
   10.3033  -17.2345   25.9598 C   0  0  0  0  0  0  0  0  0  0  0  0
   10.9744  -16.7908   27.0940 O   0  0  0  0  0  0  0  0  0  0  0  0
    9.7119  -18.3484   26.0935 O   0  0  0  0  0  0  0  0  0  0  0  0
  2  1  1  6
  2  4  1  0
  3  2  1  0
  4  5  1  1
  6  8  1  0
  6  4  1  0
  7  6  2  0
  9  8  1  0
  9 16  1  0
  9 10  1  6
 11 12  2  0
 11 10  1  0
 13 12  1  0
 14 15  2  0
 14 13  1  0
 15 11  1  0
 16 18  1  0
 17 16  2  0
 18 19  1  0
 19 20  1  6
 19 30  1  0
 21 20  1  0
 22 21  2  0
 23 22  1  0
 24 23  1  0
 24 29  2  0
 25 24  1  0
 26 25  2  0
 26 27  1  0
 27 28  2  0
 28 29  1  0
 29 21  1  0
 30 32  2  0
 30 31  1  0
M  END
$$$$
