THW.pdb
     RDKit          3D

 32 34  0  0  1  0  0  0  0  0999 V2000
    5.9006  -20.2648   21.3655 C   0  0  0  0  0  0  0  0  0  0  0  0
    7.0836  -19.3637   21.6167 C   0  0  1  0  0  0  0  0  0  0  0  0
    8.2672  -20.0899   21.7248 O   0  0  0  0  0  0  0  0  0  0  0  0
    7.2750  -18.3474   20.4912 C   0  0  2  0  0  0  0  0  0  0  0  0
    7.4729  -19.1119   19.2840 N   0  0  0  0  0  0  0  0  0  0  0  0
    8.3459  -17.3809   20.7632 C   0  0  0  0  0  0  0  0  0  0  0  0
    9.4942  -17.6153   20.2787 O   0  0  0  0  0  0  0  0  0  0  0  0
    8.2075  -16.2003   21.5241 N   0  0  0  0  0  0  0  0  0  0  0  0
    9.3744  -15.3407   21.8042 C   0  0  1  0  0  0  0  0  0  0  0  0
    8.9402  -13.9605   21.3701 C   0  0  0  0  0  0  0  0  0  0  0  0
    8.5232  -13.8596   19.9600 C   0  0  0  0  0  0  0  0  0  0  0  0
    7.2970  -13.4546   19.4176 C   0  0  0  0  0  0  0  0  0  0  0  0
    7.3440  -13.5131   18.0692 N   0  0  0  0  0  0  0  0  0  0  0  0
    8.5681  -13.9452   17.7461 C   0  0  0  0  0  0  0  0  0  0  0  0
    9.2800  -14.1540   18.8598 N   0  0  0  0  0  0  0  0  0  0  0  0
    9.7972  -15.4633   23.1898 C   0  0  0  0  0  0  0  0  0  0  0  0
   10.7995  -14.7487   23.5521 O   0  0  0  0  0  0  0  0  0  0  0  0
    9.2398  -16.2702   24.1900 N   0  0  0  0  0  0  0  0  0  0  0  0
    9.8025  -16.3452   25.5204 C   0  0  1  0  0  0  0  0  0  0  0  0
    8.7080  -16.3818   26.5824 C   0  0  0  0  0  0  0  0  0  0  0  0
    7.5949  -15.4804   26.2113 C   0  0  0  0  0  0  0  0  0  0  0  0
    6.3851  -15.8740   25.6306 C   0  0  0  0  0  0  0  0  0  0  0  0
    5.6195  -14.7902   25.4283 N   0  0  0  0  0  0  0  0  0  0  0  0
    6.2864  -13.7040   25.8563 C   0  0  0  0  0  0  0  0  0  0  0  0
    5.9606  -12.3435   25.8948 C   0  0  0  0  0  0  0  0  0  0  0  0
    6.8385  -11.4069   26.4104 C   0  0  0  0  0  0  0  0  0  0  0  0
    8.0387  -11.8564   26.8809 C   0  0  0  0  0  0  0  0  0  0  0  0
    8.4149  -13.1732   26.8693 C   0  0  0  0  0  0  0  0  0  0  0  0
    7.5289  -14.1101   26.3518 C   0  0  0  0  0  0  0  0  0  0  0  0
   10.8106  -17.4011   25.6935 C   0  0  0  0  0  0  0  0  0  0  0  0
   11.1029  -18.3389   24.7092 O   0  0  0  0  0  0  0  0  0  0  0  0
   11.4833  -17.5240   26.7616 O   0  0  0  0  0  0  0  0  0  0  0  0
  2  1  1  6
  2  4  1  0
  3  2  1  0
  4  5  1  6
  6  8  1  0
  6  4  1  0
  7  6  2  0
  9  8  1  0
  9 16  1  0
  9 10  1  1
 11 12  2  0
 11 10  1  0
 13 12  1  0
 14 15  2  0
 14 13  1  0
 15 11  1  0
 16 18  1  0
 17 16  2  0
 18 19  1  0
 19 20  1  1
 19 30  1  0
 21 20  1  0
 22 21  2  0
 23 22  1  0
 24 23  1  0
 24 29  2  0
 25 24  1  0
 26 25  2  0
 26 27  1  0
 27 28  2  0
 28 29  1  0
 29 21  1  0
 30 32  2  0
 30 31  1  0
M  END
$$$$
