THW.pdb
     RDKit          3D

 32 34  0  0  1  0  0  0  0  0999 V2000
    7.4780  -12.5025   18.5404 C   0  0  0  0  0  0  0  0  0  0  0  0
    7.7082  -13.8352   19.2077 C   0  0  1  0  0  0  0  0  0  0  0  0
    8.0690  -14.8147   18.2855 O   0  0  0  0  0  0  0  0  0  0  0  0
    8.8201  -13.7643   20.2540 C   0  0  2  0  0  0  0  0  0  0  0  0
   10.0132  -13.3605   19.5508 N   0  0  0  0  0  0  0  0  0  0  0  0
    8.9742  -15.0089   21.0169 C   0  0  0  0  0  0  0  0  0  0  0  0
    8.0024  -15.3869   21.7386 O   0  0  0  0  0  0  0  0  0  0  0  0
   10.1213  -15.8312   21.0163 N   0  0  0  0  0  0  0  0  0  0  0  0
   10.1915  -17.0309   21.8735 C   0  0  1  0  0  0  0  0  0  0  0  0
   11.1680  -17.9427   21.1686 C   0  0  0  0  0  0  0  0  0  0  0  0
   10.7266  -18.4139   19.8437 C   0  0  0  0  0  0  0  0  0  0  0  0
    9.4548  -18.8161   19.4164 C   0  0  0  0  0  0  0  0  0  0  0  0
    9.4946  -19.1758   18.1153 N   0  0  0  0  0  0  0  0  0  0  0  0
   10.7588  -19.0116   17.7100 C   0  0  0  0  0  0  0  0  0  0  0  0
   11.5017  -18.5583   18.7265 N   0  0  0  0  0  0  0  0  0  0  0  0
   10.5306  -16.6797   23.2429 C   0  0  0  0  0  0  0  0  0  0  0  0
   11.5805  -15.9615   23.4108 O   0  0  0  0  0  0  0  0  0  0  0  0
    9.8458  -17.0286   24.4140 N   0  0  0  0  0  0  0  0  0  0  0  0
   10.2875  -16.5951   25.7215 C   0  0  1  0  0  0  0  0  0  0  0  0
   10.0661  -15.0978   25.9116 C   0  0  0  0  0  0  0  0  0  0  0  0
    8.6207  -14.7813   25.8966 C   0  0  0  0  0  0  0  0  0  0  0  0
    7.5888  -15.6909   25.6447 C   0  0  0  0  0  0  0  0  0  0  0  0
    6.4108  -15.0503   25.7073 N   0  0  0  0  0  0  0  0  0  0  0  0
    6.6375  -13.7558   25.9912 C   0  0  0  0  0  0  0  0  0  0  0  0
    5.7856  -12.6617   26.1803 C   0  0  0  0  0  0  0  0  0  0  0  0
    6.2817  -11.4067   26.4846 C   0  0  0  0  0  0  0  0  0  0  0  0
    7.6358  -11.2709   26.5931 C   0  0  0  0  0  0  0  0  0  0  0  0
    8.5198  -12.3022   26.4185 C   0  0  0  0  0  0  0  0  0  0  0  0
    8.0163  -13.5610   26.1145 C   0  0  0  0  0  0  0  0  0  0  0  0
    9.7674  -17.4017   26.8351 C   0  0  0  0  0  0  0  0  0  0  0  0
    8.8608  -18.4414   26.6596 O   0  0  0  0  0  0  0  0  0  0  0  0
   10.1166  -17.1979   28.0372 O   0  0  0  0  0  0  0  0  0  0  0  0
  2  1  1  6
  2  4  1  0
  3  2  1  0
  4  5  1  6
  6  8  1  0
  6  4  1  0
  7  6  2  0
  9  8  1  0
  9 16  1  0
  9 10  1  6
 11 12  2  0
 11 10  1  0
 13 12  1  0
 14 15  2  0
 14 13  1  0
 15 11  1  0
 16 18  1  0
 17 16  2  0
 18 19  1  0
 19 20  1  1
 19 30  1  0
 21 20  1  0
 22 21  2  0
 23 22  1  0
 24 23  1  0
 24 29  2  0
 25 24  1  0
 26 25  2  0
 26 27  1  0
 27 28  2  0
 28 29  1  0
 29 21  1  0
 30 32  2  0
 30 31  1  0
M  END
$$$$
