THW.pdb
     RDKit          3D

 32 34  0  0  1  0  0  0  0  0999 V2000
    8.1214  -12.8046   20.0890 C   0  0  0  0  0  0  0  0  0  0  0  0
    7.7831  -13.5087   18.7990 C   0  0  1  0  0  0  0  0  0  0  0  0
    8.0051  -12.6897   17.6944 O   0  0  0  0  0  0  0  0  0  0  0  0
    8.6198  -14.7727   18.6031 C   0  0  2  0  0  0  0  0  0  0  0  0
    8.2062  -15.3415   17.3435 N   0  0  0  0  0  0  0  0  0  0  0  0
    8.5288  -15.7052   19.7331 C   0  0  0  0  0  0  0  0  0  0  0  0
    7.7119  -16.6709   19.6415 O   0  0  0  0  0  0  0  0  0  0  0  0
    9.2800  -15.6207   20.9250 N   0  0  0  0  0  0  0  0  0  0  0  0
    9.0205  -16.5423   22.0486 C   0  0  1  0  0  0  0  0  0  0  0  0
    9.3627  -17.9089   21.5035 C   0  0  0  0  0  0  0  0  0  0  0  0
   10.7198  -18.0270   20.9407 C   0  0  0  0  0  0  0  0  0  0  0  0
   11.7130  -17.0509   20.7906 C   0  0  0  0  0  0  0  0  0  0  0  0
   12.8128  -17.5913   20.2231 N   0  0  0  0  0  0  0  0  0  0  0  0
   12.5397  -18.8835   20.0105 C   0  0  0  0  0  0  0  0  0  0  0  0
   11.2997  -19.1566   20.4332 N   0  0  0  0  0  0  0  0  0  0  0  0
    9.7485  -16.1370   23.2400 C   0  0  0  0  0  0  0  0  0  0  0  0
   11.0294  -16.1600   23.1687 O   0  0  0  0  0  0  0  0  0  0  0  0
    9.2210  -15.7173   24.4679 N   0  0  0  0  0  0  0  0  0  0  0  0
    9.8922  -15.9773   25.7226 C   0  0  1  0  0  0  0  0  0  0  0  0
    8.9159  -15.9237   26.8935 C   0  0  0  0  0  0  0  0  0  0  0  0
    7.7463  -15.0827   26.5554 C   0  0  0  0  0  0  0  0  0  0  0  0
    6.4670  -15.5524   26.2416 C   0  0  0  0  0  0  0  0  0  0  0  0
    5.6643  -14.5078   25.9841 N   0  0  0  0  0  0  0  0  0  0  0  0
    6.3741  -13.3739   26.1189 C   0  0  0  0  0  0  0  0  0  0  0  0
    6.0392  -12.0219   25.9825 C   0  0  0  0  0  0  0  0  0  0  0  0
    6.9730  -11.0235   26.1946 C   0  0  0  0  0  0  0  0  0  0  0  0
    8.2376  -11.4035   26.5415 C   0  0  0  0  0  0  0  0  0  0  0  0
    8.6258  -12.7085   26.6893 C   0  0  0  0  0  0  0  0  0  0  0  0
    7.6837  -13.7073   26.4765 C   0  0  0  0  0  0  0  0  0  0  0  0
   10.7288  -17.1863   25.7233 C   0  0  0  0  0  0  0  0  0  0  0  0
   11.9158  -17.2864   26.4407 O   0  0  0  0  0  0  0  0  0  0  0  0
   10.4171  -18.2235   25.0634 O   0  0  0  0  0  0  0  0  0  0  0  0
  2  1  1  1
  2  4  1  0
  3  2  1  0
  4  5  1  6
  6  8  1  0
  6  4  1  0
  7  6  2  0
  9  8  1  0
  9 16  1  0
  9 10  1  6
 11 12  2  0
 11 10  1  0
 13 12  1  0
 14 15  2  0
 14 13  1  0
 15 11  1  0
 16 18  1  0
 17 16  2  0
 18 19  1  0
 19 20  1  1
 19 30  1  0
 21 20  1  0
 22 21  2  0
 23 22  1  0
 24 23  1  0
 24 29  2  0
 25 24  1  0
 26 25  2  0
 26 27  1  0
 27 28  2  0
 28 29  1  0
 29 21  1  0
 30 32  2  0
 30 31  1  0
M  END
$$$$
