THW.pdb
     RDKit          3D

 32 34  0  0  1  0  0  0  0  0999 V2000
    7.5079  -20.9934   20.6873 C   0  0  0  0  0  0  0  0  0  0  0  0
    8.2318  -19.7782   21.2104 C   0  0  1  0  0  0  0  0  0  0  0  0
    9.4372  -20.1218   21.8181 O   0  0  0  0  0  0  0  0  0  0  0  0
    8.5522  -18.7821   20.0962 C   0  0  2  0  0  0  0  0  0  0  0  0
    9.3233  -19.5056   19.1150 N   0  0  0  0  0  0  0  0  0  0  0  0
    9.2079  -17.5627   20.5841 C   0  0  0  0  0  0  0  0  0  0  0  0
   10.4484  -17.4252   20.3593 O   0  0  0  0  0  0  0  0  0  0  0  0
    8.5713  -16.5181   21.2881 N   0  0  0  0  0  0  0  0  0  0  0  0
    9.3449  -15.3683   21.7965 C   0  0  1  0  0  0  0  0  0  0  0  0
    8.5201  -14.1607   21.4184 C   0  0  0  0  0  0  0  0  0  0  0  0
    8.2407  -14.0307   19.9771 C   0  0  0  0  0  0  0  0  0  0  0  0
    8.7031  -14.8029   18.9039 C   0  0  0  0  0  0  0  0  0  0  0  0
    8.1985  -14.3331   17.7427 N   0  0  0  0  0  0  0  0  0  0  0  0
    7.4297  -13.2838   18.0547 C   0  0  0  0  0  0  0  0  0  0  0  0
    7.4446  -13.0933   19.3792 N   0  0  0  0  0  0  0  0  0  0  0  0
    9.6365  -15.5159   23.2132 C   0  0  0  0  0  0  0  0  0  0  0  0
   10.3716  -14.6103   23.7478 O   0  0  0  0  0  0  0  0  0  0  0  0
    9.2084  -16.5320   24.0771 N   0  0  0  0  0  0  0  0  0  0  0  0
    9.6893  -16.6386   25.4372 C   0  0  1  0  0  0  0  0  0  0  0  0
    8.5324  -16.7426   26.4261 C   0  0  0  0  0  0  0  0  0  0  0  0
    7.5179  -15.7017   26.1488 C   0  0  0  0  0  0  0  0  0  0  0  0
    6.2823  -15.9113   25.5283 C   0  0  0  0  0  0  0  0  0  0  0  0
    5.6296  -14.7418   25.4385 N   0  0  0  0  0  0  0  0  0  0  0  0
    6.3951  -13.7772   25.9784 C   0  0  0  0  0  0  0  0  0  0  0  0
    6.2044  -12.4023   26.1576 C   0  0  0  0  0  0  0  0  0  0  0  0
    7.1640  -11.6157   26.7693 C   0  0  0  0  0  0  0  0  0  0  0  0
    8.3084  -12.2283   27.1925 C   0  0  0  0  0  0  0  0  0  0  0  0
    8.5532  -13.5677   27.0447 C   0  0  0  0  0  0  0  0  0  0  0  0
    7.5855  -14.3535   26.4310 C   0  0  0  0  0  0  0  0  0  0  0  0
   10.7153  -17.6722   25.6381 C   0  0  0  0  0  0  0  0  0  0  0  0
   11.3906  -17.8464   26.8411 O   0  0  0  0  0  0  0  0  0  0  0  0
   11.0517  -18.4774   24.7179 O   0  0  0  0  0  0  0  0  0  0  0  0
  2  1  1  6
  2  4  1  0
  3  2  1  0
  4  5  1  6
  6  8  1  0
  6  4  1  0
  7  6  2  0
  9  8  1  0
  9 16  1  0
  9 10  1  1
 11 12  2  0
 11 10  1  0
 13 12  1  0
 14 15  2  0
 14 13  1  0
 15 11  1  0
 16 18  1  0
 17 16  2  0
 18 19  1  0
 19 20  1  1
 19 30  1  0
 21 20  1  0
 22 21  2  0
 23 22  1  0
 24 23  1  0
 24 29  2  0
 25 24  1  0
 26 25  2  0
 26 27  1  0
 27 28  2  0
 28 29  1  0
 29 21  1  0
 30 32  2  0
 30 31  1  0
M  END
$$$$
