THW.pdb
     RDKit          3D

 32 34  0  0  1  0  0  0  0  0999 V2000
    8.0831  -19.8916   23.0702 C   0  0  0  0  0  0  0  0  0  0  0  0
    8.2163  -20.0776   21.5795 C   0  0  1  0  0  0  0  0  0  0  0  0
    7.4192  -21.1234   21.1202 O   0  0  0  0  0  0  0  0  0  0  0  0
    7.8070  -18.8221   20.8097 C   0  0  2  0  0  0  0  0  0  0  0  0
    7.7886  -19.1899   19.4149 N   0  0  0  0  0  0  0  0  0  0  0  0
    8.6561  -17.6619   21.1058 C   0  0  0  0  0  0  0  0  0  0  0  0
    9.8466  -17.6705   20.6689 O   0  0  0  0  0  0  0  0  0  0  0  0
    8.2586  -16.5247   21.8413 N   0  0  0  0  0  0  0  0  0  0  0  0
    9.2175  -15.4414   22.1345 C   0  0  1  0  0  0  0  0  0  0  0  0
    8.4743  -14.1736   21.7847 C   0  0  0  0  0  0  0  0  0  0  0  0
    8.1663  -14.0139   20.3523 C   0  0  0  0  0  0  0  0  0  0  0  0
    8.5587  -14.7992   19.2608 C   0  0  0  0  0  0  0  0  0  0  0  0
    8.0515  -14.2908   18.1171 N   0  0  0  0  0  0  0  0  0  0  0  0
    7.3493  -13.2044   18.4580 C   0  0  0  0  0  0  0  0  0  0  0  0
    7.4078  -13.0286   19.7833 N   0  0  0  0  0  0  0  0  0  0  0  0
    9.7088  -15.5294   23.5000 C   0  0  0  0  0  0  0  0  0  0  0  0
   10.6234  -14.6955   23.8385 O   0  0  0  0  0  0  0  0  0  0  0  0
    9.3025  -16.4180   24.5036 N   0  0  0  0  0  0  0  0  0  0  0  0
   10.0600  -16.6004   25.7224 C   0  0  1  0  0  0  0  0  0  0  0  0
    9.4226  -15.8494   26.8872 C   0  0  0  0  0  0  0  0  0  0  0  0
    8.1470  -15.2278   26.4676 C   0  0  0  0  0  0  0  0  0  0  0  0
    7.0011  -15.9153   26.0553 C   0  0  0  0  0  0  0  0  0  0  0  0
    6.0422  -15.0286   25.7451 N   0  0  0  0  0  0  0  0  0  0  0  0
    6.5216  -13.7877   25.9406 C   0  0  0  0  0  0  0  0  0  0  0  0
    5.9566  -12.5164   25.7883 C   0  0  0  0  0  0  0  0  0  0  0  0
    6.6747  -11.3697   26.0768 C   0  0  0  0  0  0  0  0  0  0  0  0
    7.9587  -11.5210   26.5154 C   0  0  0  0  0  0  0  0  0  0  0  0
    8.5666  -12.7366   26.6832 C   0  0  0  0  0  0  0  0  0  0  0  0
    7.8405  -13.8853   26.3934 C   0  0  0  0  0  0  0  0  0  0  0  0
   10.3696  -18.0022   26.0395 C   0  0  0  0  0  0  0  0  0  0  0  0
   11.2307  -18.3750   27.0657 O   0  0  0  0  0  0  0  0  0  0  0  0
    9.8658  -18.9684   25.3907 O   0  0  0  0  0  0  0  0  0  0  0  0
  2  1  1  1
  2  4  1  0
  3  2  1  0
  4  5  1  6
  6  8  1  0
  6  4  1  0
  7  6  2  0
  9  8  1  0
  9 16  1  0
  9 10  1  1
 11 12  2  0
 11 10  1  0
 13 12  1  0
 14 15  2  0
 14 13  1  0
 15 11  1  0
 16 18  1  0
 17 16  2  0
 18 19  1  0
 19 20  1  1
 19 30  1  0
 21 20  1  0
 22 21  2  0
 23 22  1  0
 24 23  1  0
 24 29  2  0
 25 24  1  0
 26 25  2  0
 26 27  1  0
 27 28  2  0
 28 29  1  0
 29 21  1  0
 30 32  2  0
 30 31  1  0
M  END
$$$$
