THW.pdb
     RDKit          3D

 32 34  0  0  1  0  0  0  0  0999 V2000
    6.0531  -21.1054   24.7755 C   0  0  0  0  0  0  0  0  0  0  0  0
    6.8886  -19.9857   24.2075 C   0  0  1  0  0  0  0  0  0  0  0  0
    8.2271  -20.1087   24.5730 O   0  0  0  0  0  0  0  0  0  0  0  0
    6.8357  -19.9533   22.6803 C   0  0  2  0  0  0  0  0  0  0  0  0
    7.2688  -21.2541   22.2319 N   0  0  0  0  0  0  0  0  0  0  0  0
    7.5992  -18.8417   22.1005 C   0  0  0  0  0  0  0  0  0  0  0  0
    8.7922  -19.0681   21.7346 O   0  0  0  0  0  0  0  0  0  0  0  0
    7.1161  -17.5291   21.9115 N   0  0  0  0  0  0  0  0  0  0  0  0
    8.0125  -16.4543   21.4421 C   0  0  1  0  0  0  0  0  0  0  0  0
    7.0820  -15.3999   20.8905 C   0  0  0  0  0  0  0  0  0  0  0  0
    7.7555  -14.2610   20.2411 C   0  0  0  0  0  0  0  0  0  0  0  0
    9.1212  -14.0319   20.0308 C   0  0  0  0  0  0  0  0  0  0  0  0
    9.3017  -12.8544   19.3947 N   0  0  0  0  0  0  0  0  0  0  0  0
    8.0853  -12.3336   19.1984 C   0  0  0  0  0  0  0  0  0  0  0  0
    7.1569  -13.1593   19.6953 N   0  0  0  0  0  0  0  0  0  0  0  0
    8.9073  -16.0159   22.5008 C   0  0  0  0  0  0  0  0  0  0  0  0
    9.8074  -15.1605   22.1776 O   0  0  0  0  0  0  0  0  0  0  0  0
    8.9079  -16.4125   23.8442 N   0  0  0  0  0  0  0  0  0  0  0  0
    9.9020  -15.9431   24.7844 C   0  0  1  0  0  0  0  0  0  0  0  0
    9.3306  -15.8569   26.1962 C   0  0  0  0  0  0  0  0  0  0  0  0
    7.9988  -15.2124   26.1782 C   0  0  0  0  0  0  0  0  0  0  0  0
    6.7748  -15.8724   26.0303 C   0  0  0  0  0  0  0  0  0  0  0  0
    5.7812  -14.9702   26.0547 N   0  0  0  0  0  0  0  0  0  0  0  0
    6.3132  -13.7456   26.2135 C   0  0  0  0  0  0  0  0  0  0  0  0
    5.7468  -12.4700   26.3160 C   0  0  0  0  0  0  0  0  0  0  0  0
    6.5322  -11.3452   26.4938 C   0  0  0  0  0  0  0  0  0  0  0  0
    7.8841  -11.5224   26.5647 C   0  0  0  0  0  0  0  0  0  0  0  0
    8.4969  -12.7435   26.4702 C   0  0  0  0  0  0  0  0  0  0  0  0
    7.7033  -13.8702   26.2931 C   0  0  0  0  0  0  0  0  0  0  0  0
   11.1822  -16.6631   24.7227 C   0  0  0  0  0  0  0  0  0  0  0  0
   11.4025  -17.7473   23.8802 O   0  0  0  0  0  0  0  0  0  0  0  0
   12.1755  -16.3372   25.4407 O   0  0  0  0  0  0  0  0  0  0  0  0
  2  1  1  6
  2  4  1  0
  3  2  1  0
  4  5  1  6
  6  8  1  0
  6  4  1  0
  7  6  2  0
  9  8  1  0
  9 16  1  0
  9 10  1  1
 11 12  2  0
 11 10  1  0
 13 12  1  0
 14 15  2  0
 14 13  1  0
 15 11  1  0
 16 18  1  0
 17 16  2  0
 18 19  1  0
 19 20  1  1
 19 30  1  0
 21 20  1  0
 22 21  2  0
 23 22  1  0
 24 23  1  0
 24 29  2  0
 25 24  1  0
 26 25  2  0
 26 27  1  0
 27 28  2  0
 28 29  1  0
 29 21  1  0
 30 32  2  0
 30 31  1  0
M  END
$$$$
