QMI.pdb
     RDKit          3D

 26 25  0  0  1  0  0  0  0  0999 V2000
   16.6194  -16.2469  -15.7865 N   0  0  0  0  0  0  0  0  0  0  0  0
   17.3834  -16.1725  -17.0051 C   0  0  0  0  0  0  0  0  0  0  0  0
   16.7511  -16.3630  -18.0558 O   0  0  0  0  0  0  0  0  0  0  0  0
   18.8122  -15.8927  -16.9609 C   0  0  0  0  0  0  0  0  0  0  0  0
   19.1815  -14.7508  -16.0757 C   0  0  0  0  0  0  0  0  0  0  0  0
   19.5594  -13.5493  -16.8556 C   0  0  2  0  0  0  0  0  0  0  0  0
   20.1462  -13.7801  -18.1426 N   0  0  0  0  0  0  0  0  0  0  0  0
   20.5251  -12.6734  -16.1088 C   0  0  0  0  0  0  0  0  0  0  0  0
   20.2918  -12.2261  -14.9562 O   0  0  0  0  0  0  0  0  0  0  0  0
   28.1329  -10.6024  -15.8695 C   0  0  0  0  0  0  0  0  0  0  0  0
   26.7565  -11.6424  -16.3612 S   0  0  0  0  0  0  0  0  0  0  0  0
   25.1587  -10.8952  -15.8686 C   0  0  0  0  0  0  0  0  0  0  0  0
   24.0630  -11.7686  -16.4008 C   0  0  0  0  0  0  0  0  0  0  0  0
   22.6795  -11.3471  -16.0239 C   0  0  2  0  0  0  0  0  0  0  0  0
   21.7756  -12.3007  -16.6824 N   0  0  0  0  0  0  0  0  0  0  0  0
   22.3184   -9.9810  -16.5111 C   0  0  0  0  0  0  0  0  0  0  0  0
   22.3235   -9.7475  -17.7438 O   0  0  0  0  0  0  0  0  0  0  0  0
   18.3659   -6.7251  -18.1069 C   0  0  0  0  0  0  0  0  0  0  0  0
   19.6597   -6.5853  -17.3922 C   0  0  0  0  0  0  0  0  0  0  0  0
   20.2801   -7.7979  -16.8338 C   0  0  2  0  0  0  0  0  0  0  0  0
   19.3478   -8.7254  -16.0953 C   0  0  0  0  0  0  0  0  0  0  0  0
   21.5857   -7.6361  -16.1650 C   0  0  2  0  0  0  0  0  0  0  0  0
   21.9734   -8.9527  -15.6190 N   0  0  0  0  0  0  0  0  0  0  0  0
   21.7029   -6.6262  -15.1156 C   0  0  0  0  0  0  0  0  0  0  0  0
   21.9222   -6.9725  -13.7780 O   0  0  0  0  0  0  0  0  0  0  0  0
   21.6137   -5.3999  -15.3566 O   0  0  0  0  0  0  0  0  0  0  0  0
  2  3  2  0
  2  1  1  0
  4  2  1  0
  5  4  1  0
  6  5  1  0
  6  7  1  6
  8  9  2  0
  8  6  1  0
 10 11  1  0
 11 12  1  0
 13 12  1  0
 14 13  1  6
 14 15  1  0
 15  8  1  0
 16 14  1  0
 16 17  2  0
 19 20  1  0
 19 18  1  0
 20 21  1  1
 20 22  1  0
 22 23  1  1
 22 24  1  0
 23 16  1  0
 24 25  1  0
 26 24  2  0
M  END
$$$$
