QMI.pdb
     RDKit          3D

 26 25  0  0  1  0  0  0  0  0999 V2000
   27.4171  -16.7871  -14.4841 N   0  0  0  0  0  0  0  0  0  0  0  0
   27.9253  -17.2128  -15.7626 C   0  0  0  0  0  0  0  0  0  0  0  0
   28.7625  -16.4646  -16.2914 O   0  0  0  0  0  0  0  0  0  0  0  0
   27.4540  -18.4523  -16.3653 C   0  0  0  0  0  0  0  0  0  0  0  0
   26.6597  -19.3138  -15.4429 C   0  0  0  0  0  0  0  0  0  0  0  0
   27.5302  -20.1080  -14.5450 C   0  0  2  0  0  0  0  0  0  0  0  0
   28.4028  -21.0556  -15.1729 N   0  0  0  0  0  0  0  0  0  0  0  0
   26.7367  -20.8816  -13.5303 C   0  0  0  0  0  0  0  0  0  0  0  0
   26.2549  -22.0204  -13.7629 O   0  0  0  0  0  0  0  0  0  0  0  0
   28.3824  -20.4837   -6.7559 C   0  0  0  0  0  0  0  0  0  0  0  0
   26.9091  -19.9986   -7.6571 S   0  0  0  0  0  0  0  0  0  0  0  0
   26.8677  -20.7737   -9.3158 C   0  0  0  0  0  0  0  0  0  0  0  0
   25.6440  -20.2741  -10.0226 C   0  0  0  0  0  0  0  0  0  0  0  0
   25.4095  -20.8658  -11.3749 C   0  0  2  0  0  0  0  0  0  0  0  0
   26.4877  -20.3513  -12.2310 N   0  0  0  0  0  0  0  0  0  0  0  0
   24.1132  -20.4496  -11.9917 C   0  0  0  0  0  0  0  0  0  0  0  0
   23.9978  -19.2889  -12.4536 O   0  0  0  0  0  0  0  0  0  0  0  0
   20.7251  -21.5900  -16.4043 C   0  0  0  0  0  0  0  0  0  0  0  0
   20.6777  -21.1287  -14.9939 C   0  0  0  0  0  0  0  0  0  0  0  0
   21.8280  -21.4282  -14.1255 C   0  0  2  0  0  0  0  0  0  0  0  0
   22.3385  -22.8461  -14.1867 C   0  0  0  0  0  0  0  0  0  0  0  0
   21.7926  -20.8842  -12.7540 C   0  0  2  0  0  0  0  0  0  0  0  0
   23.0212  -21.3296  -12.0655 N   0  0  0  0  0  0  0  0  0  0  0  0
   20.6340  -21.1930  -11.9191 C   0  0  0  0  0  0  0  0  0  0  0  0
   20.7171  -22.0758  -10.8370 O   0  0  0  0  0  0  0  0  0  0  0  0
   19.5074  -20.6852  -12.1267 O   0  0  0  0  0  0  0  0  0  0  0  0
  2  3  2  0
  2  1  1  0
  4  2  1  0
  5  4  1  0
  6  5  1  0
  6  7  1  6
  8  9  2  0
  8  6  1  0
 10 11  1  0
 11 12  1  0
 13 12  1  0
 14 13  1  1
 14 15  1  0
 15  8  1  0
 16 14  1  0
 16 17  2  0
 19 20  1  0
 19 18  1  0
 20 21  1  1
 20 22  1  0
 22 23  1  1
 22 24  1  0
 23 16  1  0
 24 25  1  0
 26 24  2  0
M  END
$$$$
