QMI.pdb
     RDKit          3D

 26 25  0  0  1  0  0  0  0  0999 V2000
   21.6334  -11.7452    6.0846 N   0  0  0  0  0  0  0  0  0  0  0  0
   20.4002  -11.4403    5.4061 C   0  0  0  0  0  0  0  0  0  0  0  0
   20.5092  -10.8572    4.3159 O   0  0  0  0  0  0  0  0  0  0  0  0
   19.1230  -11.8082    6.0019 C   0  0  0  0  0  0  0  0  0  0  0  0
   19.2439  -12.5747    7.2754 C   0  0  0  0  0  0  0  0  0  0  0  0
   18.3823  -13.7798    7.2766 C   0  0  2  0  0  0  0  0  0  0  0  0
   16.9696  -13.5565    7.3675 N   0  0  0  0  0  0  0  0  0  0  0  0
   18.7282  -14.7187    8.3974 C   0  0  0  0  0  0  0  0  0  0  0  0
   18.4926  -14.4575    9.6055 O   0  0  0  0  0  0  0  0  0  0  0  0
   17.7233  -20.5224    7.8687 C   0  0  0  0  0  0  0  0  0  0  0  0
   18.5670  -20.7758    9.4314 S   0  0  0  0  0  0  0  0  0  0  0  0
   19.4002  -19.2419    9.9852 C   0  0  0  0  0  0  0  0  0  0  0  0
   19.1070  -18.1733    8.9758 C   0  0  0  0  0  0  0  0  0  0  0  0
   19.7845  -16.8648    9.2259 C   0  0  2  0  0  0  0  0  0  0  0  0
   19.3517  -15.9742    8.1397 N   0  0  0  0  0  0  0  0  0  0  0  0
   21.2760  -16.9447    9.1695 C   0  0  0  0  0  0  0  0  0  0  0  0
   21.8422  -17.0780    8.0579 O   0  0  0  0  0  0  0  0  0  0  0  0
   24.4439  -13.3997   11.0322 C   0  0  0  0  0  0  0  0  0  0  0  0
   23.8708  -14.5811   10.3392 C   0  0  0  0  0  0  0  0  0  0  0  0
   24.1705  -15.9171   10.8797 C   0  0  2  0  0  0  0  0  0  0  0  0
   25.6175  -16.1725   11.2201 C   0  0  0  0  0  0  0  0  0  0  0  0
   23.5180  -17.0675   10.2247 C   0  0  2  0  0  0  0  0  0  0  0  0
   22.0578  -16.8739   10.3341 N   0  0  0  0  0  0  0  0  0  0  0  0
   23.8617  -18.4105   10.6864 C   0  0  0  0  0  0  0  0  0  0  0  0
   23.2563  -18.9829   11.8102 O   0  0  0  0  0  0  0  0  0  0  0  0
   24.7142  -19.1192   10.1025 O   0  0  0  0  0  0  0  0  0  0  0  0
  2  3  2  0
  2  1  1  0
  4  2  1  0
  5  4  1  0
  6  5  1  0
  6  7  1  1
  8  9  2  0
  8  6  1  0
 10 11  1  0
 11 12  1  0
 13 12  1  0
 14 13  1  6
 14 15  1  0
 15  8  1  0
 16 14  1  0
 16 17  2  0
 19 20  1  0
 19 18  1  0
 20 21  1  6
 20 22  1  0
 22 23  1  1
 22 24  1  0
 23 16  1  0
 24 25  1  0
 26 24  2  0
M  END
$$$$
