QMI.pdb
     RDKit          3D

 26 25  0  0  1  0  0  0  0  0999 V2000
   20.6386  -20.5554  -14.1519 N   0  0  0  0  0  0  0  0  0  0  0  0
   21.5037  -19.6618  -14.8779 C   0  0  0  0  0  0  0  0  0  0  0  0
   21.0472  -19.2042  -15.9374 O   0  0  0  0  0  0  0  0  0  0  0  0
   22.8298  -19.3447  -14.3656 C   0  0  0  0  0  0  0  0  0  0  0  0
   23.1128  -19.9133  -13.0163 C   0  0  0  0  0  0  0  0  0  0  0  0
   24.5676  -20.0346  -12.7640 C   0  0  2  0  0  0  0  0  0  0  0  0
   25.3279  -20.7604  -13.7381 N   0  0  0  0  0  0  0  0  0  0  0  0
   24.8578  -20.6847  -11.4408 C   0  0  0  0  0  0  0  0  0  0  0  0
   24.8743  -21.9327  -11.2812 O   0  0  0  0  0  0  0  0  0  0  0  0
   28.5225  -19.5854   -4.5921 C   0  0  0  0  0  0  0  0  0  0  0  0
   28.0057  -19.0727   -6.2316 S   0  0  0  0  0  0  0  0  0  0  0  0
   26.6552  -20.1388   -6.8588 C   0  0  0  0  0  0  0  0  0  0  0  0
   26.3351  -19.6960   -8.2546 C   0  0  0  0  0  0  0  0  0  0  0  0
   25.2962  -20.5118   -8.9537 C   0  0  2  0  0  0  0  0  0  0  0  0
   25.1334  -19.9028  -10.2815 N   0  0  0  0  0  0  0  0  0  0  0  0
   23.9613  -20.4806   -8.2821 C   0  0  0  0  0  0  0  0  0  0  0  0
   23.2977  -19.4158   -8.2841 O   0  0  0  0  0  0  0  0  0  0  0  0
   20.1894  -22.9346   -9.9885 C   0  0  0  0  0  0  0  0  0  0  0  0
   20.9842  -22.0021   -9.1501 C   0  0  0  0  0  0  0  0  0  0  0  0
   21.1600  -22.3264   -7.7250 C   0  0  2  0  0  0  0  0  0  0  0  0
   19.8908  -22.6041   -6.9589 C   0  0  0  0  0  0  0  0  0  0  0  0
   22.1278  -21.5106   -6.9659 C   0  0  2  0  0  0  0  0  0  0  0  0
   23.4334  -21.6173   -7.6484 N   0  0  0  0  0  0  0  0  0  0  0  0
   22.3035  -21.7946   -5.5434 C   0  0  0  0  0  0  0  0  0  0  0  0
   21.4218  -21.2995   -4.5767 O   0  0  0  0  0  0  0  0  0  0  0  0
   23.2502  -22.4944   -5.1146 O   0  0  0  0  0  0  0  0  0  0  0  0
  2  3  2  0
  2  1  1  0
  4  2  1  0
  5  4  1  0
  6  5  1  0
  6  7  1  6
  8  9  2  0
  8  6  1  0
 10 11  1  0
 11 12  1  0
 13 12  1  0
 14 13  1  1
 14 15  1  0
 15  8  1  0
 16 14  1  0
 16 17  2  0
 19 20  1  0
 19 18  1  0
 20 21  1  1
 20 22  1  0
 22 23  1  6
 22 24  1  0
 23 16  1  0
 24 25  1  0
 26 24  2  0
M  END
$$$$
