QMI.pdb
     RDKit          3D

 26 25  0  0  1  0  0  0  0  0999 V2000
   28.0617  -17.3168  -15.2416 N   0  0  0  0  0  0  0  0  0  0  0  0
   28.5696  -17.7761  -16.5086 C   0  0  0  0  0  0  0  0  0  0  0  0
   29.4891  -17.1041  -17.0017 O   0  0  0  0  0  0  0  0  0  0  0  0
   28.0054  -18.9608  -17.1409 C   0  0  0  0  0  0  0  0  0  0  0  0
   27.0700  -19.7286  -16.2693 C   0  0  0  0  0  0  0  0  0  0  0  0
   27.7906  -20.6814  -15.3932 C   0  0  2  0  0  0  0  0  0  0  0  0
   28.4438  -21.7795  -16.0422 N   0  0  0  0  0  0  0  0  0  0  0  0
   26.8873  -21.2879  -14.3570 C   0  0  0  0  0  0  0  0  0  0  0  0
   26.2344  -22.3453  -14.5537 O   0  0  0  0  0  0  0  0  0  0  0  0
   27.7499  -20.4098   -8.1774 C   0  0  0  0  0  0  0  0  0  0  0  0
   25.9603  -20.3018   -8.1156 S   0  0  0  0  0  0  0  0  0  0  0  0
   25.2088  -20.9506   -9.6545 C   0  0  0  0  0  0  0  0  0  0  0  0
   26.1352  -20.6256  -10.7871 C   0  0  0  0  0  0  0  0  0  0  0  0
   25.7075  -21.1441  -12.1220 C   0  0  2  0  0  0  0  0  0  0  0  0
   26.7245  -20.6820  -13.0772 N   0  0  0  0  0  0  0  0  0  0  0  0
   24.3901  -20.6045  -12.5775 C   0  0  0  0  0  0  0  0  0  0  0  0
   24.2922  -19.3879  -12.8679 O   0  0  0  0  0  0  0  0  0  0  0  0
   20.2094  -21.5507  -16.5406 C   0  0  0  0  0  0  0  0  0  0  0  0
   20.4740  -21.0340  -15.1741 C   0  0  0  0  0  0  0  0  0  0  0  0
   21.7438  -21.4009  -14.5260 C   0  0  2  0  0  0  0  0  0  0  0  0
   22.1447  -22.8494  -14.6520 C   0  0  0  0  0  0  0  0  0  0  0  0
   21.9961  -20.8451  -13.1822 C   0  0  2  0  0  0  0  0  0  0  0  0
   23.2591  -21.4297  -12.6875 N   0  0  0  0  0  0  0  0  0  0  0  0
   20.9604  -21.0047  -12.1640 C   0  0  0  0  0  0  0  0  0  0  0  0
   19.8076  -20.2121  -12.1521 O   0  0  0  0  0  0  0  0  0  0  0  0
   21.0488  -21.8571  -11.2500 O   0  0  0  0  0  0  0  0  0  0  0  0
  2  3  2  0
  2  1  1  0
  4  2  1  0
  5  4  1  0
  6  5  1  0
  6  7  1  6
  8  9  2  0
  8  6  1  0
 10 11  1  0
 11 12  1  0
 13 12  1  0
 14 13  1  1
 14 15  1  0
 15  8  1  0
 16 14  1  0
 16 17  2  0
 19 20  1  0
 19 18  1  0
 20 21  1  1
 20 22  1  0
 22 23  1  1
 22 24  1  0
 23 16  1  0
 24 25  1  0
 26 24  2  0
M  END
$$$$
