QMI.pdb
     RDKit          3D

 26 25  0  0  1  0  0  0  0  0999 V2000
   35.2351  -33.5008   -9.7730 N   0  0  0  0  0  0  0  0  0  0  0  0
   35.6017  -34.8924   -9.8318 C   0  0  0  0  0  0  0  0  0  0  0  0
   36.8073  -35.1440   -9.6787 O   0  0  0  0  0  0  0  0  0  0  0  0
   34.5865  -35.9108  -10.0640 C   0  0  0  0  0  0  0  0  0  0  0  0
   33.8287  -36.3043   -8.8414 C   0  0  0  0  0  0  0  0  0  0  0  0
   34.7113  -36.9112   -7.8181 C   0  0  2  0  0  0  0  0  0  0  0  0
   35.2454  -38.2063   -8.1201 N   0  0  0  0  0  0  0  0  0  0  0  0
   34.0242  -37.0441   -6.4885 C   0  0  0  0  0  0  0  0  0  0  0  0
   33.1963  -37.9570   -6.2349 O   0  0  0  0  0  0  0  0  0  0  0  0
   36.9720  -36.5245   -1.1549 C   0  0  0  0  0  0  0  0  0  0  0  0
   35.5597  -35.5726   -0.5917 S   0  0  0  0  0  0  0  0  0  0  0  0
   34.1200  -35.8150   -1.6973 C   0  0  0  0  0  0  0  0  0  0  0  0
   34.6349  -35.9178   -3.1012 C   0  0  0  0  0  0  0  0  0  0  0  0
   33.5974  -36.2170   -4.1345 C   0  0  2  0  0  0  0  0  0  0  0  0
   34.2832  -36.1241   -5.4311 N   0  0  0  0  0  0  0  0  0  0  0  0
   32.4728  -35.2326   -4.1533 C   0  0  0  0  0  0  0  0  0  0  0  0
   32.6809  -34.0707   -4.5783 O   0  0  0  0  0  0  0  0  0  0  0  0
   27.1849  -34.3104   -6.2612 C   0  0  0  0  0  0  0  0  0  0  0  0
   28.0507  -34.0447   -5.0848 C   0  0  0  0  0  0  0  0  0  0  0  0
   29.2431  -34.8868   -4.8948 C   0  0  2  0  0  0  0  0  0  0  0  0
   29.0290  -36.3689   -5.0741 C   0  0  0  0  0  0  0  0  0  0  0  0
   30.1182  -34.5623   -3.7515 C   0  0  2  0  0  0  0  0  0  0  0  0
   31.1879  -35.5799   -3.7054 N   0  0  0  0  0  0  0  0  0  0  0  0
   29.5093  -34.4436   -2.4286 C   0  0  0  0  0  0  0  0  0  0  0  0
   29.6740  -35.4280   -1.4483 O   0  0  0  0  0  0  0  0  0  0  0  0
   28.8092  -33.4570   -2.1022 O   0  0  0  0  0  0  0  0  0  0  0  0
  2  3  2  0
  2  1  1  0
  4  2  1  0
  5  4  1  0
  6  5  1  0
  6  7  1  6
  8  9  2  0
  8  6  1  0
 10 11  1  0
 11 12  1  0
 13 12  1  0
 14 13  1  1
 14 15  1  0
 15  8  1  0
 16 14  1  0
 16 17  2  0
 19 20  1  0
 19 18  1  0
 20 21  1  1
 20 22  1  0
 22 23  1  1
 22 24  1  0
 23 16  1  0
 24 25  1  0
 26 24  2  0
M  END
$$$$
