QMI.pdb
     RDKit          3D

 26 25  0  0  1  0  0  0  0  0999 V2000
   21.5276  -23.3583  -15.3740 N   0  0  0  0  0  0  0  0  0  0  0  0
   20.9899  -22.4961  -16.3946 C   0  0  0  0  0  0  0  0  0  0  0  0
   19.7520  -22.4498  -16.4706 O   0  0  0  0  0  0  0  0  0  0  0  0
   21.8820  -21.7448  -17.2672 C   0  0  0  0  0  0  0  0  0  0  0  0
   23.3276  -21.8925  -16.9323 C   0  0  0  0  0  0  0  0  0  0  0  0
   23.7776  -20.8613  -15.9687 C   0  0  2  0  0  0  0  0  0  0  0  0
   23.8301  -19.5131  -16.4519 N   0  0  0  0  0  0  0  0  0  0  0  0
   25.1442  -21.1604  -15.4204 C   0  0  0  0  0  0  0  0  0  0  0  0
   26.0628  -21.6689  -16.1137 O   0  0  0  0  0  0  0  0  0  0  0  0
   27.3578  -16.5182  -15.4285 C   0  0  0  0  0  0  0  0  0  0  0  0
   28.8194  -17.5383  -15.6311 S   0  0  0  0  0  0  0  0  0  0  0  0
   28.6161  -19.1528  -14.7909 C   0  0  0  0  0  0  0  0  0  0  0  0
   27.1812  -19.2730  -14.3743 C   0  0  0  0  0  0  0  0  0  0  0  0
   26.8378  -20.5326  -13.6469 C   0  0  2  0  0  0  0  0  0  0  0  0
   25.4705  -20.8765  -14.0623 N   0  0  0  0  0  0  0  0  0  0  0  0
   26.8268  -20.3790  -12.1602 C   0  0  0  0  0  0  0  0  0  0  0  0
   27.8489  -20.6914  -11.5031 O   0  0  0  0  0  0  0  0  0  0  0  0
   27.2681  -20.0131   -7.6506 C   0  0  0  0  0  0  0  0  0  0  0  0
   26.8005  -20.5619   -8.9485 C   0  0  0  0  0  0  0  0  0  0  0  0
   25.3540  -20.5630   -9.2221 C   0  0  2  0  0  0  0  0  0  0  0  0
   24.5001  -21.2832   -8.2088 C   0  0  0  0  0  0  0  0  0  0  0  0
   24.9351  -20.8134  -10.6149 C   0  0  2  0  0  0  0  0  0  0  0  0
   25.6972  -19.8923  -11.4825 N   0  0  0  0  0  0  0  0  0  0  0  0
   23.5134  -20.7123  -10.9365 C   0  0  0  0  0  0  0  0  0  0  0  0
   22.5815  -21.6442  -10.4672 O   0  0  0  0  0  0  0  0  0  0  0  0
   23.0541  -19.7885  -11.6476 O   0  0  0  0  0  0  0  0  0  0  0  0
  2  3  2  0
  2  1  1  0
  4  2  1  0
  5  4  1  0
  6  5  1  0
  6  7  1  6
  8  9  2  0
  8  6  1  0
 10 11  1  0
 11 12  1  0
 13 12  1  0
 14 13  1  6
 14 15  1  0
 15  8  1  0
 16 14  1  0
 16 17  2  0
 19 20  1  0
 19 18  1  0
 20 21  1  1
 20 22  1  0
 22 23  1  6
 22 24  1  0
 23 16  1  0
 24 25  1  0
 26 24  2  0
M  END
$$$$
