QMI.pdb
     RDKit          3D

 26 25  0  0  1  0  0  0  0  0999 V2000
   29.1890  -18.3548  -16.4151 N   0  0  0  0  0  0  0  0  0  0  0  0
   27.7615  -18.2399  -16.2622 C   0  0  0  0  0  0  0  0  0  0  0  0
   27.1332  -17.8855  -17.2720 O   0  0  0  0  0  0  0  0  0  0  0  0
   27.1343  -18.5275  -14.9794 C   0  0  0  0  0  0  0  0  0  0  0  0
   28.0982  -18.8646  -13.8926 C   0  0  0  0  0  0  0  0  0  0  0  0
   28.2557  -20.3287  -13.7310 C   0  0  2  0  0  0  0  0  0  0  0  0
   28.2145  -21.1131  -14.9296 N   0  0  0  0  0  0  0  0  0  0  0  0
   27.2145  -20.9100  -12.8171 C   0  0  0  0  0  0  0  0  0  0  0  0
   26.3235  -21.7050  -13.2138 O   0  0  0  0  0  0  0  0  0  0  0  0
   27.3239  -19.0957   -6.6304 C   0  0  0  0  0  0  0  0  0  0  0  0
   26.3404  -20.5871   -6.4681 S   0  0  0  0  0  0  0  0  0  0  0  0
   25.5843  -21.0537   -8.0696 C   0  0  0  0  0  0  0  0  0  0  0  0
   26.5423  -20.6683   -9.1560 C   0  0  0  0  0  0  0  0  0  0  0  0
   26.1393  -21.0890  -10.5324 C   0  0  2  0  0  0  0  0  0  0  0  0
   27.1865  -20.5818  -11.4303 N   0  0  0  0  0  0  0  0  0  0  0  0
   24.8420  -20.4976  -10.9812 C   0  0  0  0  0  0  0  0  0  0  0  0
   24.7648  -19.2600  -11.1719 O   0  0  0  0  0  0  0  0  0  0  0  0
   21.2816  -20.4434  -15.3840 C   0  0  0  0  0  0  0  0  0  0  0  0
   21.3262  -20.2673  -13.9104 C   0  0  0  0  0  0  0  0  0  0  0  0
   22.4676  -20.8377  -13.1764 C   0  0  2  0  0  0  0  0  0  0  0  0
   22.8990  -22.2157  -13.6119 C   0  0  0  0  0  0  0  0  0  0  0  0
   22.4766  -20.6644  -11.7107 C   0  0  2  0  0  0  0  0  0  0  0  0
   23.7073  -21.2972  -11.1942 N   0  0  0  0  0  0  0  0  0  0  0  0
   21.3284  -21.1535  -10.9510 C   0  0  0  0  0  0  0  0  0  0  0  0
   20.0937  -20.4960  -10.9726 O   0  0  0  0  0  0  0  0  0  0  0  0
   21.3877  -22.1847  -10.2418 O   0  0  0  0  0  0  0  0  0  0  0  0
  2  3  2  0
  2  1  1  0
  4  2  1  0
  5  4  1  0
  6  5  1  0
  6  7  1  6
  8  9  2  0
  8  6  1  0
 10 11  1  0
 11 12  1  0
 13 12  1  0
 14 13  1  1
 14 15  1  0
 15  8  1  0
 16 14  1  0
 16 17  2  0
 19 20  1  0
 19 18  1  0
 20 21  1  1
 20 22  1  0
 22 23  1  1
 22 24  1  0
 23 16  1  0
 24 25  1  0
 26 24  2  0
M  END
$$$$
