QMI.pdb
     RDKit          3D

 26 25  0  0  1  0  0  0  0  0999 V2000
   15.3095  -12.4181  -14.5479 N   0  0  0  0  0  0  0  0  0  0  0  0
   14.2287  -11.4745  -14.6736 C   0  0  0  0  0  0  0  0  0  0  0  0
   13.0835  -11.9440  -14.5821 O   0  0  0  0  0  0  0  0  0  0  0  0
   14.5080  -10.0628  -14.8989 C   0  0  0  0  0  0  0  0  0  0  0  0
   15.9608   -9.7291  -14.9410 C   0  0  0  0  0  0  0  0  0  0  0  0
   16.4619   -9.6254  -16.3312 C   0  0  2  0  0  0  0  0  0  0  0  0
   16.5483  -10.8482  -17.0734 N   0  0  0  0  0  0  0  0  0  0  0  0
   17.8283   -9.0037  -16.3928 C   0  0  0  0  0  0  0  0  0  0  0  0
   18.8825   -9.6434  -16.1426 O   0  0  0  0  0  0  0  0  0  0  0  0
   19.9834   -4.0383  -20.5060 C   0  0  0  0  0  0  0  0  0  0  0  0
   19.9973   -3.4927  -18.7972 S   0  0  0  0  0  0  0  0  0  0  0  0
   20.3766   -4.8823  -17.6662 C   0  0  0  0  0  0  0  0  0  0  0  0
   19.1610   -5.7563  -17.5935 C   0  0  0  0  0  0  0  0  0  0  0  0
   19.3224   -6.9962  -16.7747 C   0  0  2  0  0  0  0  0  0  0  0  0
   17.9980   -7.6329  -16.7446 N   0  0  0  0  0  0  0  0  0  0  0  0
   19.7210   -6.7289  -15.3592 C   0  0  0  0  0  0  0  0  0  0  0  0
   18.8501   -6.3582  -14.5357 O   0  0  0  0  0  0  0  0  0  0  0  0
   22.6419   -9.4541  -11.0553 C   0  0  0  0  0  0  0  0  0  0  0  0
   22.1518   -8.1513  -11.5719 C   0  0  0  0  0  0  0  0  0  0  0  0
   21.8428   -8.0445  -13.0072 C   0  0  2  0  0  0  0  0  0  0  0  0
   22.8404   -8.6873  -13.9379 C   0  0  0  0  0  0  0  0  0  0  0  0
   21.3557   -6.7387  -13.4930 C   0  0  2  0  0  0  0  0  0  0  0  0
   21.0494   -6.8836  -14.9307 N   0  0  0  0  0  0  0  0  0  0  0  0
   22.2082   -5.5682  -13.2978 C   0  0  0  0  0  0  0  0  0  0  0  0
   22.3553   -4.9616  -12.0458 O   0  0  0  0  0  0  0  0  0  0  0  0
   22.8513   -5.0467  -14.2383 O   0  0  0  0  0  0  0  0  0  0  0  0
  2  3  2  0
  2  1  1  0
  4  2  1  0
  5  4  1  0
  6  5  1  0
  6  7  1  1
  8  9  2  0
  8  6  1  0
 10 11  1  0
 11 12  1  0
 13 12  1  0
 14 13  1  6
 14 15  1  0
 15  8  1  0
 16 14  1  0
 16 17  2  0
 19 20  1  0
 19 18  1  0
 20 21  1  6
 20 22  1  0
 22 23  1  6
 22 24  1  0
 23 16  1  0
 24 25  1  0
 26 24  2  0
M  END
$$$$
