QMI.pdb
     RDKit          3D

 26 25  0  0  1  0  0  0  0  0999 V2000
   31.0183  -24.1580  -16.5064 N   0  0  0  0  0  0  0  0  0  0  0  0
   30.8228  -23.4243  -17.7302 C   0  0  0  0  0  0  0  0  0  0  0  0
   31.7999  -22.7770  -18.1382 O   0  0  0  0  0  0  0  0  0  0  0  0
   29.5369  -23.4635  -18.4132 C   0  0  0  0  0  0  0  0  0  0  0  0
   28.5408  -24.3772  -17.7832 C   0  0  0  0  0  0  0  0  0  0  0  0
   27.2809  -23.6726  -17.4503 C   0  0  2  0  0  0  0  0  0  0  0  0
   26.6946  -22.8825  -18.4923 N   0  0  0  0  0  0  0  0  0  0  0  0
   27.4432  -22.7538  -16.2726 C   0  0  0  0  0  0  0  0  0  0  0  0
   28.1537  -23.0406  -15.2745 O   0  0  0  0  0  0  0  0  0  0  0  0
   27.9078  -16.3503  -16.7660 C   0  0  0  0  0  0  0  0  0  0  0  0
   26.7011  -16.5179  -15.4493 S   0  0  0  0  0  0  0  0  0  0  0  0
   26.8926  -18.1192  -14.5815 C   0  0  0  0  0  0  0  0  0  0  0  0
   26.8304  -19.2066  -15.6113 C   0  0  0  0  0  0  0  0  0  0  0  0
   26.8938  -20.5970  -15.0668 C   0  0  2  0  0  0  0  0  0  0  0  0
   26.7871  -21.4892  -16.2298 N   0  0  0  0  0  0  0  0  0  0  0  0
   25.7650  -20.9288  -14.1450 C   0  0  0  0  0  0  0  0  0  0  0  0
   24.7591  -21.5272  -14.5968 O   0  0  0  0  0  0  0  0  0  0  0  0
   26.8870  -20.9811   -8.7478 C   0  0  0  0  0  0  0  0  0  0  0  0
   26.3643  -21.3359  -10.0913 C   0  0  0  0  0  0  0  0  0  0  0  0
   25.0857  -20.7445  -10.5182 C   0  0  2  0  0  0  0  0  0  0  0  0
   23.9473  -20.8765   -9.5377 C   0  0  0  0  0  0  0  0  0  0  0  0
   24.6745  -20.9737  -11.9170 C   0  0  2  0  0  0  0  0  0  0  0  0
   25.8057  -20.5853  -12.7839 N   0  0  0  0  0  0  0  0  0  0  0  0
   23.4567  -20.3221  -12.3938 C   0  0  0  0  0  0  0  0  0  0  0  0
   22.2398  -21.0062  -12.4850 O   0  0  0  0  0  0  0  0  0  0  0  0
   23.4370  -19.1196  -12.7454 O   0  0  0  0  0  0  0  0  0  0  0  0
  2  3  2  0
  2  1  1  0
  4  2  1  0
  5  4  1  0
  6  5  1  0
  6  7  1  6
  8  9  2  0
  8  6  1  0
 10 11  1  0
 11 12  1  0
 13 12  1  0
 14 13  1  6
 14 15  1  0
 15  8  1  0
 16 14  1  0
 16 17  2  0
 19 20  1  0
 19 18  1  0
 20 21  1  1
 20 22  1  0
 22 23  1  6
 22 24  1  0
 23 16  1  0
 24 25  1  0
 26 24  2  0
M  END
$$$$
