QMI.pdb
     RDKit          3D

 26 25  0  0  1  0  0  0  0  0999 V2000
   22.9026  -29.0347  -18.0303 N   0  0  0  0  0  0  0  0  0  0  0  0
   23.8643  -30.1060  -17.9909 C   0  0  0  0  0  0  0  0  0  0  0  0
   24.6930  -30.1272  -18.9146 O   0  0  0  0  0  0  0  0  0  0  0  0
   23.8277  -31.0875  -16.9152 C   0  0  0  0  0  0  0  0  0  0  0  0
   22.7081  -30.8908  -15.9499 C   0  0  0  0  0  0  0  0  0  0  0  0
   22.7555  -31.8751  -14.8438 C   0  0  2  0  0  0  0  0  0  0  0  0
   22.3036  -33.2009  -15.1469 N   0  0  0  0  0  0  0  0  0  0  0  0
   21.9561  -31.4248  -13.6540 C   0  0  0  0  0  0  0  0  0  0  0  0
   20.7304  -31.6753  -13.5193 O   0  0  0  0  0  0  0  0  0  0  0  0
   23.2368  -32.7425   -7.7243 C   0  0  0  0  0  0  0  0  0  0  0  0
   23.2619  -30.9516   -7.6251 S   0  0  0  0  0  0  0  0  0  0  0  0
   22.1766  -30.2071   -8.8987 C   0  0  0  0  0  0  0  0  0  0  0  0
   22.7102  -30.6045  -10.2418 C   0  0  0  0  0  0  0  0  0  0  0  0
   21.8145  -30.2894  -11.3960 C   0  0  2  0  0  0  0  0  0  0  0  0
   22.5605  -30.6779  -12.6013 N   0  0  0  0  0  0  0  0  0  0  0  0
   21.4912  -28.8355  -11.5208 C   0  0  0  0  0  0  0  0  0  0  0  0
   22.4204  -28.0139  -11.7100 O   0  0  0  0  0  0  0  0  0  0  0  0
   18.1397  -27.2138  -14.9717 C   0  0  0  0  0  0  0  0  0  0  0  0
   19.1830  -27.3151  -13.9203 C   0  0  0  0  0  0  0  0  0  0  0  0
   18.8998  -26.7268  -12.6010 C   0  0  2  0  0  0  0  0  0  0  0  0
   18.3225  -25.3335  -12.6195 C   0  0  0  0  0  0  0  0  0  0  0  0
   19.9171  -26.9180  -11.5489 C   0  0  2  0  0  0  0  0  0  0  0  0
   20.1697  -28.3686  -11.4310 N   0  0  0  0  0  0  0  0  0  0  0  0
   19.6500  -26.3665  -10.2225 C   0  0  0  0  0  0  0  0  0  0  0  0
   20.0227  -25.0635   -9.8753 O   0  0  0  0  0  0  0  0  0  0  0  0
   19.0747  -27.0287   -9.3278 O   0  0  0  0  0  0  0  0  0  0  0  0
  2  3  2  0
  2  1  1  0
  4  2  1  0
  5  4  1  0
  6  5  1  0
  6  7  1  6
  8  9  2  0
  8  6  1  0
 10 11  1  0
 11 12  1  0
 13 12  1  0
 14 13  1  1
 14 15  1  0
 15  8  1  0
 16 14  1  0
 16 17  2  0
 19 20  1  0
 19 18  1  0
 20 21  1  6
 20 22  1  0
 22 23  1  1
 22 24  1  0
 23 16  1  0
 24 25  1  0
 26 24  2  0
M  END
$$$$
