QMI.pdb
     RDKit          3D

 26 25  0  0  1  0  0  0  0  0999 V2000
   27.5944  -22.3816  -17.5419 N   0  0  0  0  0  0  0  0  0  0  0  0
   28.7558  -21.5319  -17.4856 C   0  0  0  0  0  0  0  0  0  0  0  0
   29.2407  -21.2006  -18.5790 O   0  0  0  0  0  0  0  0  0  0  0  0
   29.2991  -21.1138  -16.2004 C   0  0  0  0  0  0  0  0  0  0  0  0
   28.5350  -21.6186  -15.0235 C   0  0  0  0  0  0  0  0  0  0  0  0
   27.6858  -20.5629  -14.4244 C   0  0  2  0  0  0  0  0  0  0  0  0
   28.3560  -19.5766  -13.6295 N   0  0  0  0  0  0  0  0  0  0  0  0
   26.6052  -21.1364  -13.5520 C   0  0  0  0  0  0  0  0  0  0  0  0
   25.8578  -22.0792  -13.9201 O   0  0  0  0  0  0  0  0  0  0  0  0
   26.5785  -18.9772   -7.6169 C   0  0  0  0  0  0  0  0  0  0  0  0
   26.9570  -20.7302   -7.6592 S   0  0  0  0  0  0  0  0  0  0  0  0
   26.7695  -21.4028   -9.3523 C   0  0  0  0  0  0  0  0  0  0  0  0
   25.6177  -20.6950   -9.9996 C   0  0  0  0  0  0  0  0  0  0  0  0
   25.2950  -21.1500  -11.3862 C   0  0  2  0  0  0  0  0  0  0  0  0
   26.3715  -20.6292  -12.2407 N   0  0  0  0  0  0  0  0  0  0  0  0
   24.0063  -20.6026  -11.9090 C   0  0  0  0  0  0  0  0  0  0  0  0
   23.8608  -19.3601  -12.0047 O   0  0  0  0  0  0  0  0  0  0  0  0
   22.5098  -21.5227  -16.5106 C   0  0  0  0  0  0  0  0  0  0  0  0
   22.6238  -21.0105  -15.1218 C   0  0  0  0  0  0  0  0  0  0  0  0
   21.5173  -21.2789  -14.1887 C   0  0  2  0  0  0  0  0  0  0  0  0
   20.1343  -20.9966  -14.7201 C   0  0  0  0  0  0  0  0  0  0  0  0
   21.6996  -20.8457  -12.7897 C   0  0  2  0  0  0  0  0  0  0  0  0
   22.9543  -21.4488  -12.2958 N   0  0  0  0  0  0  0  0  0  0  0  0
   20.6261  -21.1196  -11.8371 C   0  0  0  0  0  0  0  0  0  0  0  0
   19.6904  -20.1438  -11.4775 O   0  0  0  0  0  0  0  0  0  0  0  0
   20.4864  -22.2396  -11.2930 O   0  0  0  0  0  0  0  0  0  0  0  0
  2  3  2  0
  2  1  1  0
  4  2  1  0
  5  4  1  0
  6  5  1  0
  6  7  1  1
  8  9  2  0
  8  6  1  0
 10 11  1  0
 11 12  1  0
 13 12  1  0
 14 13  1  1
 14 15  1  0
 15  8  1  0
 16 14  1  0
 16 17  2  0
 19 20  1  0
 19 18  1  0
 20 21  1  6
 20 22  1  0
 22 23  1  1
 22 24  1  0
 23 16  1  0
 24 25  1  0
 26 24  2  0
M  END
$$$$
