QMI.pdb
     RDKit          3D

 26 25  0  0  1  0  0  0  0  0999 V2000
   24.5840  -17.4844  -18.4226 N   0  0  0  0  0  0  0  0  0  0  0  0
   23.5396  -18.0479  -19.2387 C   0  0  0  0  0  0  0  0  0  0  0  0
   22.8442  -17.2360  -19.8690 O   0  0  0  0  0  0  0  0  0  0  0  0
   23.3432  -19.4903  -19.2885 C   0  0  0  0  0  0  0  0  0  0  0  0
   24.3075  -20.2649  -18.4553 C   0  0  0  0  0  0  0  0  0  0  0  0
   23.7373  -20.6125  -17.1330 C   0  0  2  0  0  0  0  0  0  0  0  0
   23.2072  -19.5287  -16.3595 N   0  0  0  0  0  0  0  0  0  0  0  0
   24.7391  -21.3024  -16.2510 C   0  0  0  0  0  0  0  0  0  0  0  0
   25.3179  -22.3704  -16.5790 O   0  0  0  0  0  0  0  0  0  0  0  0
   28.9113  -18.0406  -12.2964 C   0  0  0  0  0  0  0  0  0  0  0  0
   29.5824  -19.4985  -13.0976 S   0  0  0  0  0  0  0  0  0  0  0  0
   28.3536  -20.8561  -13.1288 C   0  0  0  0  0  0  0  0  0  0  0  0
   27.2052  -20.4126  -13.9839 C   0  0  0  0  0  0  0  0  0  0  0  0
   26.0957  -21.4053  -14.1163 C   0  0  2  0  0  0  0  0  0  0  0  0
   25.0877  -20.7689  -14.9761 N   0  0  0  0  0  0  0  0  0  0  0  0
   25.4313  -21.7341  -12.8184 C   0  0  0  0  0  0  0  0  0  0  0  0
   24.4264  -22.4852  -12.8160 O   0  0  0  0  0  0  0  0  0  0  0  0
   26.0604  -20.6282   -6.7234 C   0  0  0  0  0  0  0  0  0  0  0  0
   25.2811  -21.0894   -7.9000 C   0  0  0  0  0  0  0  0  0  0  0  0
   25.9034  -20.9857   -9.2301 C   0  0  2  0  0  0  0  0  0  0  0  0
   26.7147  -19.7379   -9.4739 C   0  0  0  0  0  0  0  0  0  0  0  0
   25.0770  -21.3747  -10.3893 C   0  0  2  0  0  0  0  0  0  0  0  0
   25.9074  -21.2205  -11.6011 N   0  0  0  0  0  0  0  0  0  0  0  0
   23.8021  -20.6894  -10.5889 C   0  0  0  0  0  0  0  0  0  0  0  0
   22.6263  -21.1194   -9.9646 O   0  0  0  0  0  0  0  0  0  0  0  0
   23.6939  -19.6830  -11.3275 O   0  0  0  0  0  0  0  0  0  0  0  0
  2  3  2  0
  2  1  1  0
  4  2  1  0
  5  4  1  0
  6  5  1  0
  6  7  1  1
  8  9  2  0
  8  6  1  0
 10 11  1  0
 11 12  1  0
 13 12  1  0
 14 13  1  1
 14 15  1  0
 15  8  1  0
 16 14  1  0
 16 17  2  0
 19 20  1  0
 19 18  1  0
 20 21  1  6
 20 22  1  0
 22 23  1  6
 22 24  1  0
 23 16  1  0
 24 25  1  0
 26 24  2  0
M  END
$$$$
