QMI.pdb
     RDKit          3D

 26 25  0  0  1  0  0  0  0  0999 V2000
   16.3454  -12.1548  -15.6613 N   0  0  0  0  0  0  0  0  0  0  0  0
   16.8933  -12.8322  -16.8081 C   0  0  0  0  0  0  0  0  0  0  0  0
   16.0938  -13.5101  -17.4725 O   0  0  0  0  0  0  0  0  0  0  0  0
   18.3083  -12.7057  -17.1298 C   0  0  0  0  0  0  0  0  0  0  0  0
   19.0677  -11.8231  -16.1981 C   0  0  0  0  0  0  0  0  0  0  0  0
   19.6989  -10.6864  -16.9081 C   0  0  2  0  0  0  0  0  0  0  0  0
   20.6130  -11.0174  -17.9610 N   0  0  0  0  0  0  0  0  0  0  0  0
   20.4519   -9.7849  -15.9712 C   0  0  0  0  0  0  0  0  0  0  0  0
   19.9919   -9.4163  -14.8596 O   0  0  0  0  0  0  0  0  0  0  0  0
   27.0035  -11.7432  -15.0357 C   0  0  0  0  0  0  0  0  0  0  0  0
   26.2500  -10.2603  -15.7075 S   0  0  0  0  0  0  0  0  0  0  0  0
   24.5075  -10.1048  -15.1657 C   0  0  0  0  0  0  0  0  0  0  0  0
   23.9800   -8.8046  -15.6930 C   0  0  0  0  0  0  0  0  0  0  0  0
   22.5535   -8.5168  -15.3524 C   0  0  2  0  0  0  0  0  0  0  0  0
   21.7483   -9.2952  -16.3043 N   0  0  0  0  0  0  0  0  0  0  0  0
   22.1780   -7.0800  -15.5211 C   0  0  0  0  0  0  0  0  0  0  0  0
   22.1240   -6.5909  -16.6752 O   0  0  0  0  0  0  0  0  0  0  0  0
   18.0511   -3.2527  -15.0472 C   0  0  0  0  0  0  0  0  0  0  0  0
   19.5244   -3.3870  -14.9215 C   0  0  0  0  0  0  0  0  0  0  0  0
   20.0843   -4.7318  -14.7098 C   0  0  2  0  0  0  0  0  0  0  0  0
   19.3813   -5.5746  -13.6753 C   0  0  0  0  0  0  0  0  0  0  0  0
   21.5546   -4.8437  -14.6460 C   0  0  2  0  0  0  0  0  0  0  0  0
   21.8843   -6.2650  -14.4157 N   0  0  0  0  0  0  0  0  0  0  0  0
   22.2676   -4.0202  -13.6722 C   0  0  0  0  0  0  0  0  0  0  0  0
   22.8951   -4.5765  -12.5524 O   0  0  0  0  0  0  0  0  0  0  0  0
   22.3550   -2.7756  -13.7874 O   0  0  0  0  0  0  0  0  0  0  0  0
  2  3  2  0
  2  1  1  0
  4  2  1  0
  5  4  1  0
  6  5  1  0
  6  7  1  6
  8  9  2  0
  8  6  1  0
 10 11  1  0
 11 12  1  0
 13 12  1  0
 14 13  1  6
 14 15  1  0
 15  8  1  0
 16 14  1  0
 16 17  2  0
 19 20  1  0
 19 18  1  0
 20 21  1  1
 20 22  1  0
 22 23  1  1
 22 24  1  0
 23 16  1  0
 24 25  1  0
 26 24  2  0
M  END
$$$$
