ISW.pdb
     RDKit          3D

 29 30  0  0  1  0  0  0  0  0999 V2000
   28.0573  -12.8523  -17.0584 C   0  0  0  0  0  0  0  0  0  0  0  0
   27.2983  -13.8843  -17.8468 C   0  0  0  0  0  0  0  0  0  0  0  0
   26.8081  -15.0284  -17.0080 C   0  0  2  0  0  0  0  0  0  0  0  0
   27.9811  -15.6619  -16.3356 C   0  0  0  0  0  0  0  0  0  0  0  0
   26.0273  -16.0494  -17.7918 C   0  0  2  0  0  0  0  0  0  0  0  0
   24.9748  -15.3391  -18.4941 N   0  0  0  0  0  0  0  0  0  0  0  0
   25.4568  -17.1222  -16.9751 C   0  0  0  0  0  0  0  0  0  0  0  0
   24.4767  -16.9766  -16.1991 O   0  0  0  0  0  0  0  0  0  0  0  0
   26.8222  -21.0618  -17.4386 O   0  0  0  0  0  0  0  0  0  0  0  0
   25.4923  -20.7480  -17.1853 C   0  0  0  0  0  0  0  0  0  0  0  0
   25.4216  -19.5224  -16.2899 C   0  0  2  0  0  0  0  0  0  0  0  0
   26.0221  -18.4257  -17.0378 N   0  0  0  0  0  0  0  0  0  0  0  0
   26.2318  -19.8118  -15.0604 C   0  0  0  0  0  0  0  0  0  0  0  0
   27.3803  -19.3114  -14.9977 O   0  0  0  0  0  0  0  0  0  0  0  0
   25.7589  -20.6039  -14.0050 N   0  0  0  0  0  0  0  0  0  0  0  0
   26.6357  -20.8400  -12.8497 C   0  0  1  0  0  0  0  0  0  0  0  0
   26.7019  -19.5879  -12.0035 C   0  0  0  0  0  0  0  0  0  0  0  0
   26.1097  -19.8830  -10.6807 C   0  0  0  0  0  0  0  0  0  0  0  0
   24.8006  -20.2228  -10.3905 C   0  0  0  0  0  0  0  0  0  0  0  0
   24.6583  -20.4052   -9.0659 N   0  0  0  0  0  0  0  0  0  0  0  0
   25.8687  -20.1849   -8.4996 C   0  0  0  0  0  0  0  0  0  0  0  0
   26.2502  -20.2446   -7.1772 C   0  0  0  0  0  0  0  0  0  0  0  0
   27.5455  -19.9785   -6.8442 C   0  0  0  0  0  0  0  0  0  0  0  0
   28.4831  -19.6502   -7.8054 C   0  0  0  0  0  0  0  0  0  0  0  0
   28.1103  -19.5881   -9.1323 C   0  0  0  0  0  0  0  0  0  0  0  0
   26.7993  -19.8581   -9.4642 C   0  0  0  0  0  0  0  0  0  0  0  0
   26.0580  -21.9273  -12.0450 C   0  0  0  0  0  0  0  0  0  0  0  0
   24.8490  -22.2103  -12.1523 O   0  0  0  0  0  0  0  0  0  0  0  0
   26.8469  -22.6381  -11.1706 O   0  0  0  0  0  0  0  0  0  0  0  0
  2  1  1  0
  3  5  1  0
  3  2  1  0
  3  4  1  6
  5  7  1  0
  5  6  1  1
  7  8  2  0
  9 10  1  0
 11 10  1  6
 11 13  1  0
 12 11  1  0
 12  7  1  0
 13 15  1  0
 13 14  2  0
 15 16  1  0
 16 27  1  0
 16 17  1  1
 18 17  1  0
 19 18  2  0
 20 19  1  0
 21 20  1  0
 21 26  2  0
 22 21  1  0
 23 22  2  0
 23 24  1  0
 24 25  2  0
 25 26  1  0
 26 18  1  0
 27 28  2  0
 27 29  1  0
M  END
$$$$
