ISW.pdb
     RDKit          3D

 29 30  0  0  1  0  0  0  0  0999 V2000
   29.1244  -16.9186  -18.0395 C   0  0  0  0  0  0  0  0  0  0  0  0
   28.9335  -18.3380  -18.4994 C   0  0  0  0  0  0  0  0  0  0  0  0
   27.5063  -18.7971  -18.4286 C   0  0  2  0  0  0  0  0  0  0  0  0
   26.6691  -17.8767  -19.2541 C   0  0  0  0  0  0  0  0  0  0  0  0
   26.9771  -18.8815  -17.0218 C   0  0  2  0  0  0  0  0  0  0  0  0
   27.9701  -19.5840  -16.2306 N   0  0  0  0  0  0  0  0  0  0  0  0
   25.6776  -19.5465  -16.9103 C   0  0  0  0  0  0  0  0  0  0  0  0
   24.6911  -19.3021  -17.6527 O   0  0  0  0  0  0  0  0  0  0  0  0
   25.4283  -22.4007  -14.1331 O   0  0  0  0  0  0  0  0  0  0  0  0
   24.4959  -22.5735  -15.1489 C   0  0  0  0  0  0  0  0  0  0  0  0
   24.2068  -21.2342  -15.8059 C   0  0  2  0  0  0  0  0  0  0  0  0
   25.4822  -20.5377  -15.9093 N   0  0  0  0  0  0  0  0  0  0  0  0
   23.2783  -20.4771  -14.9022 C   0  0  0  0  0  0  0  0  0  0  0  0
   23.7959  -19.8082  -13.9759 O   0  0  0  0  0  0  0  0  0  0  0  0
   21.8850  -20.4923  -15.0554 N   0  0  0  0  0  0  0  0  0  0  0  0
   21.0592  -19.7511  -14.0920 C   0  0  1  0  0  0  0  0  0  0  0  0
   21.3737  -18.2748  -14.1900 C   0  0  0  0  0  0  0  0  0  0  0  0
   21.2728  -17.8661  -15.6079 C   0  0  0  0  0  0  0  0  0  0  0  0
   22.3014  -17.6527  -16.5079 C   0  0  0  0  0  0  0  0  0  0  0  0
   21.7980  -17.2837  -17.6988 N   0  0  0  0  0  0  0  0  0  0  0  0
   20.4497  -17.2576  -17.5723 C   0  0  0  0  0  0  0  0  0  0  0  0
   19.4805  -16.9439  -18.4996 C   0  0  0  0  0  0  0  0  0  0  0  0
   18.1677  -16.9894  -18.1336 C   0  0  0  0  0  0  0  0  0  0  0  0
   17.7895  -17.3435  -16.8522 C   0  0  0  0  0  0  0  0  0  0  0  0
   18.7530  -17.6595  -15.9166 C   0  0  0  0  0  0  0  0  0  0  0  0
   20.0794  -17.6122  -16.2915 C   0  0  0  0  0  0  0  0  0  0  0  0
   19.6449  -19.9597  -14.4382 C   0  0  0  0  0  0  0  0  0  0  0  0
   19.3398  -20.5958  -15.4655 O   0  0  0  0  0  0  0  0  0  0  0  0
   18.6514  -19.4553  -13.6315 O   0  0  0  0  0  0  0  0  0  0  0  0
  2  1  1  0
  3  5  1  0
  3  2  1  0
  3  4  1  6
  5  7  1  0
  5  6  1  1
  7  8  2  0
  9 10  1  0
 11 10  1  1
 11 13  1  0
 12 11  1  0
 12  7  1  0
 13 15  1  0
 13 14  2  0
 15 16  1  0
 16 27  1  0
 16 17  1  6
 18 17  1  0
 19 18  2  0
 20 19  1  0
 21 20  1  0
 21 26  2  0
 22 21  1  0
 23 22  2  0
 23 24  1  0
 24 25  2  0
 25 26  1  0
 26 18  1  0
 27 28  2  0
 27 29  1  0
M  END
$$$$
