ISW.pdb
     RDKit          3D

 29 30  0  0  1  0  0  0  0  0999 V2000
   29.5824  -17.6822  -15.6975 C   0  0  0  0  0  0  0  0  0  0  0  0
   28.4062  -18.4371  -16.2534 C   0  0  0  0  0  0  0  0  0  0  0  0
   27.2331  -18.4792  -15.3180 C   0  0  2  0  0  0  0  0  0  0  0  0
   26.7119  -17.0906  -15.1459 C   0  0  0  0  0  0  0  0  0  0  0  0
   27.5576  -19.0960  -13.9836 C   0  0  2  0  0  0  0  0  0  0  0  0
   28.0692  -20.4295  -14.2396 N   0  0  0  0  0  0  0  0  0  0  0  0
   26.4224  -19.1574  -13.0611 C   0  0  0  0  0  0  0  0  0  0  0  0
   25.6574  -18.1890  -12.8141 O   0  0  0  0  0  0  0  0  0  0  0  0
   24.8437  -22.7619  -12.2222 O   0  0  0  0  0  0  0  0  0  0  0  0
   24.0981  -21.5919  -12.1437 C   0  0  0  0  0  0  0  0  0  0  0  0
   24.9506  -20.4859  -11.5444 C   0  0  2  0  0  0  0  0  0  0  0  0
   26.1368  -20.3744  -12.3829 N   0  0  0  0  0  0  0  0  0  0  0  0
   25.3376  -20.9124  -10.1587 C   0  0  0  0  0  0  0  0  0  0  0  0
   26.3633  -21.6247  -10.0417 O   0  0  0  0  0  0  0  0  0  0  0  0
   24.6081  -20.5496   -9.0180 N   0  0  0  0  0  0  0  0  0  0  0  0
   24.8825  -21.2441   -7.7524 C   0  0  1  0  0  0  0  0  0  0  0  0
   25.0591  -20.2263   -6.6474 C   0  0  0  0  0  0  0  0  0  0  0  0
   26.3986  -19.6139   -6.7825 C   0  0  0  0  0  0  0  0  0  0  0  0
   26.9048  -18.9010   -7.8545 C   0  0  0  0  0  0  0  0  0  0  0  0
   28.1664  -18.5165   -7.5933 N   0  0  0  0  0  0  0  0  0  0  0  0
   28.4774  -18.9773   -6.3582 C   0  0  0  0  0  0  0  0  0  0  0  0
   29.6427  -18.8505   -5.6347 C   0  0  0  0  0  0  0  0  0  0  0  0
   29.7206  -19.4082   -4.3927 C   0  0  0  0  0  0  0  0  0  0  0  0
   28.6551  -20.0977   -3.8451 C   0  0  0  0  0  0  0  0  0  0  0  0
   27.4839  -20.2299   -4.5622 C   0  0  0  0  0  0  0  0  0  0  0  0
   27.4099  -19.6641   -5.8178 C   0  0  0  0  0  0  0  0  0  0  0  0
   23.7273  -22.0967   -7.4327 C   0  0  0  0  0  0  0  0  0  0  0  0
   22.6703  -21.9877   -8.0840 O   0  0  0  0  0  0  0  0  0  0  0  0
   23.8059  -23.0189   -6.4150 O   0  0  0  0  0  0  0  0  0  0  0  0
  2  1  1  0
  3  5  1  0
  3  2  1  0
  3  4  1  1
  5  7  1  0
  5  6  1  6
  7  8  2  0
  9 10  1  0
 11 10  1  6
 11 13  1  0
 12 11  1  0
 12  7  1  0
 13 15  1  0
 13 14  2  0
 15 16  1  0
 16 27  1  0
 16 17  1  1
 18 17  1  0
 19 18  2  0
 20 19  1  0
 21 20  1  0
 21 26  2  0
 22 21  1  0
 23 22  2  0
 23 24  1  0
 24 25  2  0
 25 26  1  0
 26 18  1  0
 27 28  2  0
 27 29  1  0
M  END
$$$$
