ISW.pdb
     RDKit          3D

 29 30  0  0  1  0  0  0  0  0999 V2000
   30.0900  -15.7102  -18.9924 C   0  0  0  0  0  0  0  0  0  0  0  0
   29.1919  -16.9126  -18.8911 C   0  0  0  0  0  0  0  0  0  0  0  0
   28.6666  -17.1450  -17.5044 C   0  0  2  0  0  0  0  0  0  0  0  0
   28.9101  -18.5714  -17.1365 C   0  0  0  0  0  0  0  0  0  0  0  0
   27.2098  -16.7967  -17.3535 C   0  0  2  0  0  0  0  0  0  0  0  0
   27.0802  -15.3731  -17.6029 N   0  0  0  0  0  0  0  0  0  0  0  0
   26.6462  -17.1353  -16.0453 C   0  0  0  0  0  0  0  0  0  0  0  0
   26.9896  -16.5906  -14.9639 O   0  0  0  0  0  0  0  0  0  0  0  0
   23.5955  -19.8744  -15.8985 O   0  0  0  0  0  0  0  0  0  0  0  0
   23.6571  -18.9224  -14.8881 C   0  0  0  0  0  0  0  0  0  0  0  0
   25.1043  -18.5218  -14.6556 C   0  0  2  0  0  0  0  0  0  0  0  0
   25.6440  -18.1401  -15.9540 N   0  0  0  0  0  0  0  0  0  0  0  0
   25.8293  -19.7262  -14.1304 C   0  0  0  0  0  0  0  0  0  0  0  0
   26.3555  -20.4929  -14.9721 O   0  0  0  0  0  0  0  0  0  0  0  0
   25.9352  -20.0157  -12.7630 N   0  0  0  0  0  0  0  0  0  0  0  0
   26.6011  -21.2597  -12.3528 C   0  0  1  0  0  0  0  0  0  0  0  0
   27.5988  -20.9591  -11.2564 C   0  0  0  0  0  0  0  0  0  0  0  0
   26.8546  -20.6266  -10.0222 C   0  0  0  0  0  0  0  0  0  0  0  0
   25.4856  -20.5164   -9.8569 C   0  0  0  0  0  0  0  0  0  0  0  0
   25.2035  -20.1905   -8.5832 N   0  0  0  0  0  0  0  0  0  0  0  0
   26.3832  -20.0895   -7.9255 C   0  0  0  0  0  0  0  0  0  0  0  0
   26.6370  -19.7804   -6.6073 C   0  0  0  0  0  0  0  0  0  0  0  0
   27.9275  -19.7390   -6.1685 C   0  0  0  0  0  0  0  0  0  0  0  0
   28.9856  -20.0007   -7.0185 C   0  0  0  0  0  0  0  0  0  0  0  0
   28.7412  -20.3113   -8.3404 C   0  0  0  0  0  0  0  0  0  0  0  0
   27.4345  -20.3520   -8.7795 C   0  0  0  0  0  0  0  0  0  0  0  0
   25.5804  -22.1793  -11.8272 C   0  0  0  0  0  0  0  0  0  0  0  0
   24.4354  -21.7608  -11.5685 O   0  0  0  0  0  0  0  0  0  0  0  0
   25.8821  -23.5051  -11.6187 O   0  0  0  0  0  0  0  0  0  0  0  0
  2  1  1  0
  3  5  1  0
  3  2  1  0
  3  4  1  6
  5  7  1  0
  5  6  1  1
  7  8  2  0
  9 10  1  0
 11 10  1  6
 11 13  1  0
 12 11  1  0
 12  7  1  0
 13 15  1  0
 13 14  2  0
 15 16  1  0
 16 27  1  0
 16 17  1  1
 18 17  1  0
 19 18  2  0
 20 19  1  0
 21 20  1  0
 21 26  2  0
 22 21  1  0
 23 22  2  0
 23 24  1  0
 24 25  2  0
 25 26  1  0
 26 18  1  0
 27 28  2  0
 27 29  1  0
M  END
$$$$
