ISW.pdb
     RDKit          3D

 29 30  0  0  1  0  0  0  0  0999 V2000
   17.3200  -20.0464    0.2566 C   0  0  0  0  0  0  0  0  0  0  0  0
   16.3751  -20.4992    1.3359 C   0  0  0  0  0  0  0  0  0  0  0  0
   16.5998  -19.8074    2.6488 C   0  0  2  0  0  0  0  0  0  0  0  0
   18.0277  -19.9910    3.0449 C   0  0  0  0  0  0  0  0  0  0  0  0
   15.6785  -20.2857    3.7391 C   0  0  2  0  0  0  0  0  0  0  0  0
   14.3202  -20.0334    3.2953 N   0  0  0  0  0  0  0  0  0  0  0  0
   15.9120  -19.6547    5.0394 C   0  0  0  0  0  0  0  0  0  0  0  0
   15.4212  -18.5496    5.3886 O   0  0  0  0  0  0  0  0  0  0  0  0
   17.5092  -20.2860    9.5281 O   0  0  0  0  0  0  0  0  0  0  0  0
   17.2821  -20.8125    8.2623 C   0  0  0  0  0  0  0  0  0  0  0  0
   17.0003  -19.6829    7.2858 C   0  0  2  0  0  0  0  0  0  0  0  0
   16.7422  -20.3047    5.9937 N   0  0  0  0  0  0  0  0  0  0  0  0
   18.2333  -18.8309    7.2101 C   0  0  0  0  0  0  0  0  0  0  0  0
   19.1242  -19.1794    6.3990 O   0  0  0  0  0  0  0  0  0  0  0  0
   18.4178  -17.6858    7.9973 N   0  0  0  0  0  0  0  0  0  0  0  0
   19.7039  -16.9784    7.9267 C   0  0  1  0  0  0  0  0  0  0  0  0
   19.5361  -15.5735    8.4615 C   0  0  0  0  0  0  0  0  0  0  0  0
   19.1835  -14.6813    7.3357 C   0  0  0  0  0  0  0  0  0  0  0  0
   18.0333  -14.6938    6.5673 C   0  0  0  0  0  0  0  0  0  0  0  0
   18.0951  -13.7261    5.6358 N   0  0  0  0  0  0  0  0  0  0  0  0
   19.2792  -13.0890    5.7989 C   0  0  0  0  0  0  0  0  0  0  0  0
   19.8173  -12.0306    5.1004 C   0  0  0  0  0  0  0  0  0  0  0  0
   21.0447  -11.5532    5.4542 C   0  0  0  0  0  0  0  0  0  0  0  0
   21.7597  -12.1090    6.4985 C   0  0  0  0  0  0  0  0  0  0  0  0
   21.2288  -13.1692    7.2039 C   0  0  0  0  0  0  0  0  0  0  0  0
   19.9871  -13.6485    6.8425 C   0  0  0  0  0  0  0  0  0  0  0  0
   20.6729  -17.6952    8.7698 C   0  0  0  0  0  0  0  0  0  0  0  0
   21.8683  -17.3432    8.7861 O   0  0  0  0  0  0  0  0  0  0  0  0
   20.2668  -18.7566    9.5450 O   0  0  0  0  0  0  0  0  0  0  0  0
  2  1  1  0
  3  5  1  0
  3  2  1  0
  3  4  1  1
  5  7  1  0
  5  6  1  6
  7  8  2  0
  9 10  1  0
 11 10  1  1
 11 13  1  0
 12 11  1  0
 12  7  1  0
 13 15  1  0
 13 14  2  0
 15 16  1  0
 16 27  1  0
 16 17  1  1
 18 17  1  0
 19 18  2  0
 20 19  1  0
 21 20  1  0
 21 26  2  0
 22 21  1  0
 23 22  2  0
 23 24  1  0
 24 25  2  0
 25 26  1  0
 26 18  1  0
 27 28  2  0
 27 29  1  0
M  END
$$$$
