ISW.pdb
     RDKit          3D

 29 30  0  0  1  0  0  0  0  0999 V2000
   14.7963  -23.7197    0.1346 C   0  0  0  0  0  0  0  0  0  0  0  0
   15.8424  -23.1195    1.0334 C   0  0  0  0  0  0  0  0  0  0  0  0
   15.2992  -22.0650    1.9533 C   0  0  2  0  0  0  0  0  0  0  0  0
   14.7690  -20.9402    1.1268 C   0  0  0  0  0  0  0  0  0  0  0  0
   16.3117  -21.5642    2.9484 C   0  0  2  0  0  0  0  0  0  0  0  0
   16.7657  -22.7105    3.7136 N   0  0  0  0  0  0  0  0  0  0  0  0
   15.8048  -20.5245    3.8460 C   0  0  0  0  0  0  0  0  0  0  0  0
   14.9593  -19.6533    3.5143 O   0  0  0  0  0  0  0  0  0  0  0  0
   16.4168  -21.0335    7.7470 O   0  0  0  0  0  0  0  0  0  0  0  0
   15.3951  -20.1646    7.3833 C   0  0  0  0  0  0  0  0  0  0  0  0
   15.7721  -19.4476    6.0977 C   0  0  2  0  0  0  0  0  0  0  0  0
   16.2769  -20.4659    5.1862 N   0  0  0  0  0  0  0  0  0  0  0  0
   16.8592  -18.4671    6.4275 C   0  0  0  0  0  0  0  0  0  0  0  0
   18.0406  -18.8189    6.1957 O   0  0  0  0  0  0  0  0  0  0  0  0
   16.6041  -17.2013    6.9731 N   0  0  0  0  0  0  0  0  0  0  0  0
   17.7391  -16.3810    7.4184 C   0  0  1  0  0  0  0  0  0  0  0  0
   17.2437  -15.0074    7.8129 C   0  0  0  0  0  0  0  0  0  0  0  0
   17.6324  -14.0468    6.7577 C   0  0  0  0  0  0  0  0  0  0  0  0
   16.9276  -13.7020    5.6184 C   0  0  0  0  0  0  0  0  0  0  0  0
   17.6230  -12.7978    4.9065 N   0  0  0  0  0  0  0  0  0  0  0  0
   18.7730  -12.5570    5.5803 C   0  0  0  0  0  0  0  0  0  0  0  0
   19.8181  -11.7140    5.2725 C   0  0  0  0  0  0  0  0  0  0  0  0
   20.8856  -11.6391    6.1178 C   0  0  0  0  0  0  0  0  0  0  0  0
   20.9407  -12.3911    7.2763 C   0  0  0  0  0  0  0  0  0  0  0  0
   19.8986  -13.2382    7.5929 C   0  0  0  0  0  0  0  0  0  0  0  0
   18.8212  -13.3104    6.7350 C   0  0  0  0  0  0  0  0  0  0  0  0
   18.3416  -17.0251    8.5956 C   0  0  0  0  0  0  0  0  0  0  0  0
   17.7462  -17.9555    9.1727 O   0  0  0  0  0  0  0  0  0  0  0  0
   19.5643  -16.6058    9.0663 O   0  0  0  0  0  0  0  0  0  0  0  0
  2  1  1  0
  3  5  1  0
  3  2  1  0
  3  4  1  6
  5  7  1  0
  5  6  1  1
  7  8  2  0
  9 10  1  0
 11 10  1  1
 11 13  1  0
 12 11  1  0
 12  7  1  0
 13 15  1  0
 13 14  2  0
 15 16  1  0
 16 27  1  0
 16 17  1  1
 18 17  1  0
 19 18  2  0
 20 19  1  0
 21 20  1  0
 21 26  2  0
 22 21  1  0
 23 22  2  0
 23 24  1  0
 24 25  2  0
 25 26  1  0
 26 18  1  0
 27 28  2  0
 27 29  1  0
M  END
$$$$
