ISW.pdb
     RDKit          3D

 29 30  0  0  1  0  0  0  0  0999 V2000
   29.9529  -16.2963  -19.1327 C   0  0  0  0  0  0  0  0  0  0  0  0
   30.0273  -17.5999  -18.3859 C   0  0  0  0  0  0  0  0  0  0  0  0
   28.7517  -17.9505  -17.6769 C   0  0  2  0  0  0  0  0  0  0  0  0
   28.4123  -16.8440  -16.7336 C   0  0  0  0  0  0  0  0  0  0  0  0
   28.8165  -19.2682  -16.9518 C   0  0  2  0  0  0  0  0  0  0  0  0
   29.3042  -20.2553  -17.8970 N   0  0  0  0  0  0  0  0  0  0  0  0
   27.5392  -19.7006  -16.3816 C   0  0  0  0  0  0  0  0  0  0  0  0
   26.7405  -18.9399  -15.7756 O   0  0  0  0  0  0  0  0  0  0  0  0
   26.8188  -23.6834  -16.2266 O   0  0  0  0  0  0  0  0  0  0  0  0
   25.6649  -22.9323  -16.4144 C   0  0  0  0  0  0  0  0  0  0  0  0
   25.8929  -21.5170  -15.9106 C   0  0  2  0  0  0  0  0  0  0  0  0
   27.1442  -21.0615  -16.5018 N   0  0  0  0  0  0  0  0  0  0  0  0
   26.0229  -21.5829  -14.4170 C   0  0  0  0  0  0  0  0  0  0  0  0
   27.1532  -21.8609  -13.9499 O   0  0  0  0  0  0  0  0  0  0  0  0
   24.9484  -21.3495  -13.5475 N   0  0  0  0  0  0  0  0  0  0  0  0
   25.1996  -21.3381  -12.0997 C   0  0  1  0  0  0  0  0  0  0  0  0
   26.2771  -20.3248  -11.7835 C   0  0  0  0  0  0  0  0  0  0  0  0
   26.4041  -20.2171  -10.3139 C   0  0  0  0  0  0  0  0  0  0  0  0
   25.4952  -19.6844   -9.4174 C   0  0  0  0  0  0  0  0  0  0  0  0
   25.9846  -19.7649   -8.1676 N   0  0  0  0  0  0  0  0  0  0  0  0
   27.2047  -20.3467   -8.2526 C   0  0  0  0  0  0  0  0  0  0  0  0
   28.1094  -20.6528   -7.2599 C   0  0  0  0  0  0  0  0  0  0  0  0
   29.2907  -21.2465   -7.5940 C   0  0  0  0  0  0  0  0  0  0  0  0
   29.5990  -21.5472   -8.9075 C   0  0  0  0  0  0  0  0  0  0  0  0
   28.6991  -21.2445   -9.9086 C   0  0  0  0  0  0  0  0  0  0  0  0
   27.5058  -20.6442   -9.5657 C   0  0  0  0  0  0  0  0  0  0  0  0
   23.9584  -20.9403  -11.4180 C   0  0  0  0  0  0  0  0  0  0  0  0
   23.0539  -20.3633  -12.0521 O   0  0  0  0  0  0  0  0  0  0  0  0
   23.7878  -21.2024  -10.0784 O   0  0  0  0  0  0  0  0  0  0  0  0
  2  1  1  0
  3  5  1  0
  3  2  1  0
  3  4  1  1
  5  7  1  0
  5  6  1  6
  7  8  2  0
  9 10  1  0
 11 10  1  6
 11 13  1  0
 12 11  1  0
 12  7  1  0
 13 15  1  0
 13 14  2  0
 15 16  1  0
 16 27  1  0
 16 17  1  6
 18 17  1  0
 19 18  2  0
 20 19  1  0
 21 20  1  0
 21 26  2  0
 22 21  1  0
 23 22  2  0
 23 24  1  0
 24 25  2  0
 25 26  1  0
 26 18  1  0
 27 28  2  0
 27 29  1  0
M  END
$$$$
