IMV.pdb
     RDKit          3D

 24 23  0  0  1  0  0  0  0  0999 V2000
   26.8799  -14.5460  -17.0931 C   0  0  0  0  0  0  0  0  0  0  0  0
   27.5089  -15.7395  -16.4571 C   0  0  0  0  0  0  0  0  0  0  0  0
   26.5079  -16.7635  -15.9645 C   0  0  2  0  0  0  0  0  0  0  0  0
   25.6591  -16.0842  -14.9178 C   0  0  0  0  0  0  0  0  0  0  0  0
   27.2176  -17.9780  -15.4245 C   0  0  2  0  0  0  0  0  0  0  0  0
   28.1040  -18.5739  -16.3881 N   0  0  0  0  0  0  0  0  0  0  0  0
   26.3317  -18.9709  -14.8341 C   0  0  0  0  0  0  0  0  0  0  0  0
   25.7112  -19.8294  -15.5123 O   0  0  0  0  0  0  0  0  0  0  0  0
   26.9113  -20.9073   -8.6706 C   0  0  0  0  0  0  0  0  0  0  0  0
   25.1549  -21.2951   -8.9106 S   0  0  0  0  0  0  0  0  0  0  0  0
   24.7446  -21.1767  -10.6700 C   0  0  0  0  0  0  0  0  0  0  0  0
   25.6053  -20.1067  -11.3057 C   0  0  0  0  0  0  0  0  0  0  0  0
   25.3092  -19.9862  -12.7859 C   0  0  2  0  0  0  0  0  0  0  0  0
   26.1376  -18.9975  -13.4254 N   0  0  0  0  0  0  0  0  0  0  0  0
   23.8867  -19.7269  -13.0491 C   0  0  0  0  0  0  0  0  0  0  0  0
   23.3955  -18.6323  -12.6317 O   0  0  0  0  0  0  0  0  0  0  0  0
   22.0320  -19.4829  -16.1291 C   0  0  0  0  0  0  0  0  0  0  0  0
   21.2589  -20.4966  -15.3043 C   0  0  1  0  0  0  0  0  0  0  0  0
   21.5182  -21.9017  -15.8033 C   0  0  0  0  0  0  0  0  0  0  0  0
   21.6418  -20.3580  -13.8378 C   0  0  2  0  0  0  0  0  0  0  0  0
   23.0420  -20.6287  -13.7397 N   0  0  0  0  0  0  0  0  0  0  0  0
   20.8176  -21.2263  -12.9768 C   0  0  0  0  0  0  0  0  0  0  0  0
   21.3943  -22.3353  -12.3857 O   0  0  0  0  0  0  0  0  0  0  0  0
   19.6060  -20.9903  -12.7628 O   0  0  0  0  0  0  0  0  0  0  0  0
  2  1  1  0
  3  2  1  0
  3  4  1  1
  5  6  1  6
  5  3  1  0
  7  5  1  0
  8  7  2  0
 10  9  1  0
 11 10  1  0
 12 11  1  0
 13 12  1  1
 13 14  1  0
 14  7  1  0
 15 13  1  0
 15 16  2  0
 18 17  1  6
 18 20  1  0
 19 18  1  0
 20 21  1  6
 21 15  1  0
 22 20  1  0
 23 22  1  0
 24 22  2  0
M  END
$$$$
