IMV.pdb
     RDKit          3D

 24 23  0  0  1  0  0  0  0  0999 V2000
   26.7565  -15.8472  -17.6632 C   0  0  0  0  0  0  0  0  0  0  0  0
   27.6423  -17.0281  -17.4503 C   0  0  0  0  0  0  0  0  0  0  0  0
   27.2077  -17.9141  -16.3018 C   0  0  2  0  0  0  0  0  0  0  0  0
   27.2833  -17.0797  -15.0465 C   0  0  0  0  0  0  0  0  0  0  0  0
   28.0769  -19.1424  -16.2245 C   0  0  2  0  0  0  0  0  0  0  0  0
   28.0449  -19.9189  -17.4350 N   0  0  0  0  0  0  0  0  0  0  0  0
   27.8296  -19.9734  -15.0551 C   0  0  0  0  0  0  0  0  0  0  0  0
   26.8599  -20.7698  -14.9695 O   0  0  0  0  0  0  0  0  0  0  0  0
   32.4911  -21.9009  -10.9714 C   0  0  0  0  0  0  0  0  0  0  0  0
   31.1111  -21.8234   -9.7957 S   0  0  0  0  0  0  0  0  0  0  0  0
   29.5523  -21.6642  -10.7029 C   0  0  0  0  0  0  0  0  0  0  0  0
   29.7812  -20.8072  -11.9288 C   0  0  0  0  0  0  0  0  0  0  0  0
   28.5233  -20.7201  -12.7675 C   0  0  2  0  0  0  0  0  0  0  0  0
   28.7087  -19.9042  -13.9391 N   0  0  0  0  0  0  0  0  0  0  0  0
   27.3655  -20.2606  -11.9874 C   0  0  0  0  0  0  0  0  0  0  0  0
   27.3180  -19.0336  -11.6619 O   0  0  0  0  0  0  0  0  0  0  0  0
   22.7477  -20.6501  -10.6121 C   0  0  0  0  0  0  0  0  0  0  0  0
   23.9369  -21.1230  -11.4293 C   0  0  1  0  0  0  0  0  0  0  0  0
   23.7970  -20.6956  -12.8744 C   0  0  0  0  0  0  0  0  0  0  0  0
   25.2216  -20.5794  -10.8205 C   0  0  2  0  0  0  0  0  0  0  0  0
   26.3077  -21.1100  -11.5834 N   0  0  0  0  0  0  0  0  0  0  0  0
   25.3135  -20.8874   -9.3813 C   0  0  0  0  0  0  0  0  0  0  0  0
   24.7432  -20.0210   -8.4671 O   0  0  0  0  0  0  0  0  0  0  0  0
   25.8944  -21.9136   -8.9585 O   0  0  0  0  0  0  0  0  0  0  0  0
  2  1  1  0
  3  2  1  0
  3  4  1  1
  5  6  1  6
  5  3  1  0
  7  5  1  0
  8  7  2  0
 10  9  1  0
 11 10  1  0
 12 11  1  0
 13 12  1  1
 13 14  1  0
 14  7  1  0
 15 13  1  0
 15 16  2  0
 18 17  1  1
 18 20  1  0
 19 18  1  0
 20 21  1  6
 21 15  1  0
 22 20  1  0
 23 22  1  0
 24 22  2  0
M  END
$$$$
