IMV.pdb
     RDKit          3D

 24 23  0  0  1  0  0  0  0  0999 V2000
   28.5084  -18.0052  -17.8499 C   0  0  0  0  0  0  0  0  0  0  0  0
   28.6197  -18.0619  -16.3636 C   0  0  0  0  0  0  0  0  0  0  0  0
   27.4707  -18.7877  -15.6958 C   0  0  2  0  0  0  0  0  0  0  0  0
   26.7967  -17.7981  -14.7770 C   0  0  0  0  0  0  0  0  0  0  0  0
   27.9712  -20.0027  -14.9584 C   0  0  2  0  0  0  0  0  0  0  0  0
   28.6094  -20.9534  -15.8291 N   0  0  0  0  0  0  0  0  0  0  0  0
   26.9696  -20.6427  -14.1180 C   0  0  0  0  0  0  0  0  0  0  0  0
   26.1277  -21.4673  -14.5575 O   0  0  0  0  0  0  0  0  0  0  0  0
   26.3632  -19.3458   -7.6277 C   0  0  0  0  0  0  0  0  0  0  0  0
   25.5902  -20.9802   -7.7829 S   0  0  0  0  0  0  0  0  0  0  0  0
   25.1630  -21.2848   -9.5157 C   0  0  0  0  0  0  0  0  0  0  0  0
   26.2101  -20.6449  -10.4010 C   0  0  0  0  0  0  0  0  0  0  0  0
   25.9144  -20.9094  -11.8625 C   0  0  2  0  0  0  0  0  0  0  0  0
   26.9144  -20.3420  -12.7289 N   0  0  0  0  0  0  0  0  0  0  0  0
   24.5701  -20.4577  -12.2484 C   0  0  0  0  0  0  0  0  0  0  0  0
   24.3547  -19.2067  -12.2952 O   0  0  0  0  0  0  0  0  0  0  0  0
   22.9056  -20.7713  -15.2985 C   0  0  0  0  0  0  0  0  0  0  0  0
   21.8919  -21.3156  -14.3078 C   0  0  1  0  0  0  0  0  0  0  0  0
   21.8618  -22.8281  -14.3496 C   0  0  0  0  0  0  0  0  0  0  0  0
   22.2260  -20.8140  -12.9101 C   0  0  2  0  0  0  0  0  0  0  0  0
   23.5105  -21.3400  -12.5688 N   0  0  0  0  0  0  0  0  0  0  0  0
   21.1734  -21.1681  -11.9399 C   0  0  0  0  0  0  0  0  0  0  0  0
   21.4386  -22.1198  -10.9726 O   0  0  0  0  0  0  0  0  0  0  0  0
   20.0415  -20.6319  -11.9641 O   0  0  0  0  0  0  0  0  0  0  0  0
  2  1  1  0
  3  2  1  0
  3  4  1  1
  5  6  1  6
  5  3  1  0
  7  5  1  0
  8  7  2  0
 10  9  1  0
 11 10  1  0
 12 11  1  0
 13 12  1  1
 13 14  1  0
 14  7  1  0
 15 13  1  0
 15 16  2  0
 18 17  1  6
 18 20  1  0
 19 18  1  0
 20 21  1  1
 21 15  1  0
 22 20  1  0
 23 22  1  0
 24 22  2  0
M  END
$$$$
