IMV.pdb
     RDKit          3D

 24 23  0  0  1  0  0  0  0  0999 V2000
   29.4400  -16.9466  -17.1285 C   0  0  0  0  0  0  0  0  0  0  0  0
   27.9780  -17.2136  -17.2547 C   0  0  0  0  0  0  0  0  0  0  0  0
   27.5101  -18.4179  -16.4649 C   0  0  2  0  0  0  0  0  0  0  0  0
   26.6356  -19.2364  -17.3830 C   0  0  0  0  0  0  0  0  0  0  0  0
   26.7813  -17.9821  -15.2202 C   0  0  2  0  0  0  0  0  0  0  0  0
   27.5771  -17.1208  -14.3870 N   0  0  0  0  0  0  0  0  0  0  0  0
   26.2061  -19.0777  -14.4534 C   0  0  0  0  0  0  0  0  0  0  0  0
   25.7461  -20.1214  -14.9836 O   0  0  0  0  0  0  0  0  0  0  0  0
   27.3818  -20.5310   -8.0704 C   0  0  0  0  0  0  0  0  0  0  0  0
   25.5828  -20.7251   -8.2066 S   0  0  0  0  0  0  0  0  0  0  0  0
   25.1260  -20.9202   -9.9477 C   0  0  0  0  0  0  0  0  0  0  0  0
   25.8111  -19.8432  -10.7604 C   0  0  0  0  0  0  0  0  0  0  0  0
   25.5069  -20.0056  -12.2349 C   0  0  2  0  0  0  0  0  0  0  0  0
   26.1469  -18.9941  -13.0348 N   0  0  0  0  0  0  0  0  0  0  0  0
   24.0625  -20.0489  -12.5032 C   0  0  0  0  0  0  0  0  0  0  0  0
   23.4167  -18.9560  -12.4558 O   0  0  0  0  0  0  0  0  0  0  0  0
   22.1863  -23.3627  -14.2302 C   0  0  0  0  0  0  0  0  0  0  0  0
   21.6915  -21.9324  -14.3532 C   0  0  1  0  0  0  0  0  0  0  0  0
   20.2214  -21.9038  -14.7116 C   0  0  0  0  0  0  0  0  0  0  0  0
   21.9510  -21.1900  -13.0501 C   0  0  2  0  0  0  0  0  0  0  0  0
   23.3592  -21.2385  -12.8100 N   0  0  0  0  0  0  0  0  0  0  0  0
   21.1503  -21.7422  -11.9417 C   0  0  0  0  0  0  0  0  0  0  0  0
   19.8171  -21.3924  -11.8316 O   0  0  0  0  0  0  0  0  0  0  0  0
   21.6415  -22.5215  -11.0928 O   0  0  0  0  0  0  0  0  0  0  0  0
  2  1  1  0
  3  2  1  0
  3  4  1  6
  5  6  1  1
  5  3  1  0
  7  5  1  0
  8  7  2  0
 10  9  1  0
 11 10  1  0
 12 11  1  0
 13 12  1  1
 13 14  1  0
 14  7  1  0
 15 13  1  0
 15 16  2  0
 18 17  1  1
 18 20  1  0
 19 18  1  0
 20 21  1  1
 21 15  1  0
 22 20  1  0
 23 22  1  0
 24 22  2  0
M  END
$$$$
