IMV.pdb
     RDKit          3D

 24 23  0  0  1  0  0  0  0  0999 V2000
   28.6124  -17.4318  -17.2414 C   0  0  0  0  0  0  0  0  0  0  0  0
   28.9779  -18.5308  -16.3015 C   0  0  0  0  0  0  0  0  0  0  0  0
   27.7873  -19.1546  -15.6041 C   0  0  2  0  0  0  0  0  0  0  0  0
   27.1135  -18.0591  -14.8144 C   0  0  0  0  0  0  0  0  0  0  0  0
   28.2280  -20.3003  -14.7304 C   0  0  2  0  0  0  0  0  0  0  0  0
   28.8912  -21.3383  -15.4735 N   0  0  0  0  0  0  0  0  0  0  0  0
   27.1743  -20.8436  -13.8857 C   0  0  0  0  0  0  0  0  0  0  0  0
   26.3387  -21.6931  -14.2886 O   0  0  0  0  0  0  0  0  0  0  0  0
   27.1564  -19.7989   -7.5207 C   0  0  0  0  0  0  0  0  0  0  0  0
   25.5336  -20.6060   -7.6087 S   0  0  0  0  0  0  0  0  0  0  0  0
   25.1917  -21.0912   -9.3193 C   0  0  0  0  0  0  0  0  0  0  0  0
   26.2935  -20.5617  -10.2111 C   0  0  0  0  0  0  0  0  0  0  0  0
   26.0267  -20.9089  -11.6607 C   0  0  2  0  0  0  0  0  0  0  0  0
   27.0574  -20.4132  -12.5351 N   0  0  0  0  0  0  0  0  0  0  0  0
   24.7008  -20.4572  -12.1058 C   0  0  0  0  0  0  0  0  0  0  0  0
   24.5101  -19.2075  -12.2302 O   0  0  0  0  0  0  0  0  0  0  0  0
   23.1356  -21.1898  -15.1737 C   0  0  0  0  0  0  0  0  0  0  0  0
   22.0442  -21.4882  -14.1612 C   0  0  1  0  0  0  0  0  0  0  0  0
   21.8751  -22.9813  -13.9809 C   0  0  0  0  0  0  0  0  0  0  0  0
   22.3778  -20.8123  -12.8388 C   0  0  2  0  0  0  0  0  0  0  0  0
   23.6328  -21.3382  -12.4009 N   0  0  0  0  0  0  0  0  0  0  0  0
   21.2958  -20.9857  -11.8520 C   0  0  0  0  0  0  0  0  0  0  0  0
   20.0752  -20.3749  -12.0733 O   0  0  0  0  0  0  0  0  0  0  0  0
   21.4477  -21.6718  -10.8149 O   0  0  0  0  0  0  0  0  0  0  0  0
  2  1  1  0
  3  2  1  0
  3  4  1  1
  5  6  1  6
  5  3  1  0
  7  5  1  0
  8  7  2  0
 10  9  1  0
 11 10  1  0
 12 11  1  0
 13 12  1  1
 13 14  1  0
 14  7  1  0
 15 13  1  0
 15 16  2  0
 18 17  1  6
 18 20  1  0
 19 18  1  0
 20 21  1  1
 21 15  1  0
 22 20  1  0
 23 22  1  0
 24 22  2  0
M  END
$$$$
