IMV.pdb
     RDKit          3D

 24 23  0  0  1  0  0  0  0  0999 V2000
   22.2404  -19.3404  -15.5623 C   0  0  0  0  0  0  0  0  0  0  0  0
   23.4378  -19.4497  -14.6798 C   0  0  0  0  0  0  0  0  0  0  0  0
   23.1747  -20.1965  -13.3890 C   0  0  2  0  0  0  0  0  0  0  0  0
   21.9783  -19.5465  -12.7380 C   0  0  0  0  0  0  0  0  0  0  0  0
   24.3936  -20.1659  -12.5037 C   0  0  2  0  0  0  0  0  0  0  0  0
   25.5890  -20.5682  -13.1954 N   0  0  0  0  0  0  0  0  0  0  0  0
   24.2369  -20.8903  -11.2508 C   0  0  0  0  0  0  0  0  0  0  0  0
   23.9979  -22.1239  -11.1944 O   0  0  0  0  0  0  0  0  0  0  0  0
   26.7961  -19.4113   -5.3324 C   0  0  0  0  0  0  0  0  0  0  0  0
   27.6339  -19.6576   -6.9231 S   0  0  0  0  0  0  0  0  0  0  0  0
   26.5593  -20.6024   -8.0324 C   0  0  0  0  0  0  0  0  0  0  0  0
   25.1154  -20.3100   -7.6868 C   0  0  0  0  0  0  0  0  0  0  0  0
   24.1854  -20.8615   -8.7471 C   0  0  2  0  0  0  0  0  0  0  0  0
   24.3539  -20.1982  -10.0137 N   0  0  0  0  0  0  0  0  0  0  0  0
   22.7785  -20.8309   -8.3233 C   0  0  0  0  0  0  0  0  0  0  0  0
   22.1561  -19.7269   -8.4098 O   0  0  0  0  0  0  0  0  0  0  0  0
   19.8913  -21.9708   -9.6047 C   0  0  0  0  0  0  0  0  0  0  0  0
   19.8190  -22.5609   -8.2076 C   0  0  1  0  0  0  0  0  0  0  0  0
   20.1415  -24.0393   -8.2338 C   0  0  0  0  0  0  0  0  0  0  0  0
   20.7712  -21.8100   -7.2878 C   0  0  2  0  0  0  0  0  0  0  0  0
   22.0863  -21.9616   -7.8271 N   0  0  0  0  0  0  0  0  0  0  0  0
   20.6556  -22.2718   -5.8921 C   0  0  0  0  0  0  0  0  0  0  0  0
   19.4653  -22.0833   -5.2144 O   0  0  0  0  0  0  0  0  0  0  0  0
   21.6056  -22.8321   -5.2981 O   0  0  0  0  0  0  0  0  0  0  0  0
  2  1  1  0
  3  2  1  0
  3  4  1  1
  5  6  1  6
  5  3  1  0
  7  5  1  0
  8  7  2  0
 10  9  1  0
 11 10  1  0
 12 11  1  0
 13 12  1  1
 13 14  1  0
 14  7  1  0
 15 13  1  0
 15 16  2  0
 18 17  1  6
 18 20  1  0
 19 18  1  0
 20 21  1  6
 21 15  1  0
 22 20  1  0
 23 22  1  0
 24 22  2  0
M  END
$$$$
