IMV.pdb
     RDKit          3D

 24 23  0  0  1  0  0  0  0  0999 V2000
   28.3717  -17.8688  -17.2322 C   0  0  0  0  0  0  0  0  0  0  0  0
   28.8272  -18.8481  -16.2035 C   0  0  0  0  0  0  0  0  0  0  0  0
   27.7026  -19.4091  -15.3589 C   0  0  2  0  0  0  0  0  0  0  0  0
   27.0849  -18.2486  -14.6177 C   0  0  0  0  0  0  0  0  0  0  0  0
   28.2227  -20.4714  -14.4255 C   0  0  2  0  0  0  0  0  0  0  0  0
   28.8587  -21.5567  -15.1232 N   0  0  0  0  0  0  0  0  0  0  0  0
   27.2372  -20.9595  -13.4717 C   0  0  0  0  0  0  0  0  0  0  0  0
   26.4039  -21.8614  -13.7442 O   0  0  0  0  0  0  0  0  0  0  0  0
   27.6757  -20.0854   -7.0717 C   0  0  0  0  0  0  0  0  0  0  0  0
   25.8671  -20.1885   -7.1774 S   0  0  0  0  0  0  0  0  0  0  0  0
   25.3868  -20.6876   -8.8503 C   0  0  0  0  0  0  0  0  0  0  0  0
   26.4916  -20.3105   -9.8131 C   0  0  0  0  0  0  0  0  0  0  0  0
   26.1623  -20.7708  -11.2177 C   0  0  2  0  0  0  0  0  0  0  0  0
   27.1887  -20.4103  -12.1607 N   0  0  0  0  0  0  0  0  0  0  0  0
   24.8475  -20.2911  -11.6662 C   0  0  0  0  0  0  0  0  0  0  0  0
   24.7899  -19.1512  -12.2238 O   0  0  0  0  0  0  0  0  0  0  0  0
   22.8822  -22.7206  -13.7429 C   0  0  0  0  0  0  0  0  0  0  0  0
   22.8191  -21.2036  -13.7285 C   0  0  1  0  0  0  0  0  0  0  0  0
   21.7839  -20.7018  -14.7119 C   0  0  0  0  0  0  0  0  0  0  0  0
   22.5128  -20.7201  -12.3182 C   0  0  2  0  0  0  0  0  0  0  0  0
   23.6502  -21.0298  -11.5096 N   0  0  0  0  0  0  0  0  0  0  0  0
   21.2571  -21.2994  -11.8060 C   0  0  0  0  0  0  0  0  0  0  0  0
   20.0499  -20.8327  -12.2925 O   0  0  0  0  0  0  0  0  0  0  0  0
   21.2491  -22.2049  -10.9404 O   0  0  0  0  0  0  0  0  0  0  0  0
  2  1  1  0
  3  2  1  0
  3  4  1  1
  5  6  1  6
  5  3  1  0
  7  5  1  0
  8  7  2  0
 10  9  1  0
 11 10  1  0
 12 11  1  0
 13 12  1  1
 13 14  1  0
 14  7  1  0
 15 13  1  0
 15 16  2  0
 18 17  1  1
 18 20  1  0
 19 18  1  0
 20 21  1  1
 21 15  1  0
 22 20  1  0
 23 22  1  0
 24 22  2  0
M  END
$$$$
