IMV.pdb
     RDKit          3D

 24 23  0  0  1  0  0  0  0  0999 V2000
   28.0678  -16.5263  -17.1998 C   0  0  0  0  0  0  0  0  0  0  0  0
   28.5541  -17.6708  -16.3763 C   0  0  0  0  0  0  0  0  0  0  0  0
   27.4430  -18.4562  -15.7118 C   0  0  2  0  0  0  0  0  0  0  0  0
   26.6752  -17.4889  -14.8443 C   0  0  0  0  0  0  0  0  0  0  0  0
   28.0098  -19.6068  -14.9210 C   0  0  2  0  0  0  0  0  0  0  0  0
   28.7883  -20.5042  -15.7321 N   0  0  0  0  0  0  0  0  0  0  0  0
   27.0233  -20.3279  -14.1299 C   0  0  0  0  0  0  0  0  0  0  0  0
   26.3247  -21.2669  -14.5908 O   0  0  0  0  0  0  0  0  0  0  0  0
   26.9354  -19.8458   -7.7125 C   0  0  0  0  0  0  0  0  0  0  0  0
   25.3734  -20.7551   -7.8736 S   0  0  0  0  0  0  0  0  0  0  0  0
   25.0645  -21.1215   -9.6196 C   0  0  0  0  0  0  0  0  0  0  0  0
   26.0832  -20.3880  -10.4646 C   0  0  0  0  0  0  0  0  0  0  0  0
   25.8629  -20.6667  -11.9367 C   0  0  2  0  0  0  0  0  0  0  0  0
   26.8158  -19.9776  -12.7671 N   0  0  0  0  0  0  0  0  0  0  0  0
   24.4874  -20.3677  -12.3595 C   0  0  0  0  0  0  0  0  0  0  0  0
   24.1414  -19.1478  -12.4355 O   0  0  0  0  0  0  0  0  0  0  0  0
   22.8276  -21.4674  -15.4025 C   0  0  0  0  0  0  0  0  0  0  0  0
   21.8368  -21.7754  -14.2939 C   0  0  1  0  0  0  0  0  0  0  0  0
   21.8023  -23.2605  -14.0045 C   0  0  0  0  0  0  0  0  0  0  0  0
   22.2054  -20.9841  -13.0471 C   0  0  2  0  0  0  0  0  0  0  0  0
   23.5350  -21.3633  -12.6843 N   0  0  0  0  0  0  0  0  0  0  0  0
   21.2245  -21.1871  -11.9650 C   0  0  0  0  0  0  0  0  0  0  0  0
   19.9492  -20.6710  -12.1034 O   0  0  0  0  0  0  0  0  0  0  0  0
   21.5108  -21.8151  -10.9196 O   0  0  0  0  0  0  0  0  0  0  0  0
  2  1  1  0
  3  2  1  0
  3  4  1  1
  5  6  1  6
  5  3  1  0
  7  5  1  0
  8  7  2  0
 10  9  1  0
 11 10  1  0
 12 11  1  0
 13 12  1  1
 13 14  1  0
 14  7  1  0
 15 13  1  0
 15 16  2  0
 18 17  1  6
 18 20  1  0
 19 18  1  0
 20 21  1  1
 21 15  1  0
 22 20  1  0
 23 22  1  0
 24 22  2  0
M  END
$$$$
