IMV.pdb
     RDKit          3D

 24 23  0  0  1  0  0  0  0  0999 V2000
   22.8305  -18.1542  -16.2680 C   0  0  0  0  0  0  0  0  0  0  0  0
   23.8321  -19.2594  -16.2735 C   0  0  0  0  0  0  0  0  0  0  0  0
   24.1552  -19.7931  -14.8937 C   0  0  2  0  0  0  0  0  0  0  0  0
   24.6769  -18.6329  -14.0817 C   0  0  0  0  0  0  0  0  0  0  0  0
   25.1505  -20.9208  -14.9837 C   0  0  2  0  0  0  0  0  0  0  0  0
   24.6954  -21.9933  -15.8273 N   0  0  0  0  0  0  0  0  0  0  0  0
   25.6045  -21.4177  -13.6929 C   0  0  0  0  0  0  0  0  0  0  0  0
   24.8874  -22.1204  -12.9353 O   0  0  0  0  0  0  0  0  0  0  0  0
   31.8982  -20.8922  -11.5539 C   0  0  0  0  0  0  0  0  0  0  0  0
   31.2021  -22.2772  -10.6105 S   0  0  0  0  0  0  0  0  0  0  0  0
   29.3970  -22.1406  -10.5793 C   0  0  0  0  0  0  0  0  0  0  0  0
   28.9126  -21.7002  -11.9435 C   0  0  0  0  0  0  0  0  0  0  0  0
   27.4056  -21.5524  -11.9581 C   0  0  2  0  0  0  0  0  0  0  0  0
   26.9168  -21.1111  -13.2384 N   0  0  0  0  0  0  0  0  0  0  0  0
   26.9224  -20.6751  -10.8825 C   0  0  0  0  0  0  0  0  0  0  0  0
   26.9306  -19.4219  -11.0897 O   0  0  0  0  0  0  0  0  0  0  0  0
   25.1148  -22.1300   -7.3382 C   0  0  0  0  0  0  0  0  0  0  0  0
   24.8049  -20.7816   -7.9637 C   0  0  1  0  0  0  0  0  0  0  0  0
   24.2639  -19.8220   -6.9259 C   0  0  0  0  0  0  0  0  0  0  0  0
   26.0596  -20.2249   -8.6213 C   0  0  2  0  0  0  0  0  0  0  0  0
   26.4513  -21.1525   -9.6360 N   0  0  0  0  0  0  0  0  0  0  0  0
   27.1200  -19.9602   -7.6314 C   0  0  0  0  0  0  0  0  0  0  0  0
   26.9830  -18.8926   -6.7636 O   0  0  0  0  0  0  0  0  0  0  0  0
   28.1457  -20.6749   -7.5511 O   0  0  0  0  0  0  0  0  0  0  0  0
  2  1  1  0
  3  2  1  0
  3  4  1  1
  5  6  1  1
  5  3  1  0
  7  5  1  0
  8  7  2  0
 10  9  1  0
 11 10  1  0
 12 11  1  0
 13 12  1  6
 13 14  1  0
 14  7  1  0
 15 13  1  0
 15 16  2  0
 18 17  1  1
 18 20  1  0
 19 18  1  0
 20 21  1  6
 21 15  1  0
 22 20  1  0
 23 22  1  0
 24 22  2  0
M  END
$$$$
