IMV.pdb
     RDKit          3D

 24 23  0  0  1  0  0  0  0  0999 V2000
   28.1252  -21.3773  -16.2919 C   0  0  0  0  0  0  0  0  0  0  0  0
   26.8482  -21.6198  -15.5603 C   0  0  0  0  0  0  0  0  0  0  0  0
   26.6847  -20.7622  -14.3231 C   0  0  2  0  0  0  0  0  0  0  0  0
   27.8692  -21.0427  -13.4309 C   0  0  0  0  0  0  0  0  0  0  0  0
   25.3738  -21.0613  -13.6430 C   0  0  2  0  0  0  0  0  0  0  0  0
   24.2486  -20.9277  -14.5292 N   0  0  0  0  0  0  0  0  0  0  0  0
   25.1642  -20.3242  -12.4053 C   0  0  0  0  0  0  0  0  0  0  0  0
   25.0667  -19.0711  -12.3588 O   0  0  0  0  0  0  0  0  0  0  0  0
   21.0105  -20.9919   -7.9442 C   0  0  0  0  0  0  0  0  0  0  0  0
   20.8653  -20.0363   -9.4799 S   0  0  0  0  0  0  0  0  0  0  0  0
   22.5071  -19.8110  -10.2092 C   0  0  0  0  0  0  0  0  0  0  0  0
   23.5339  -20.4923   -9.3310 C   0  0  0  0  0  0  0  0  0  0  0  0
   24.9242  -20.3431   -9.9126 C   0  0  2  0  0  0  0  0  0  0  0  0
   25.0605  -21.0261  -11.1726 N   0  0  0  0  0  0  0  0  0  0  0  0
   25.9695  -20.7682   -8.9709 C   0  0  0  0  0  0  0  0  0  0  0  0
   26.1020  -22.0127   -8.7530 O   0  0  0  0  0  0  0  0  0  0  0  0
   29.9590  -20.5674   -6.4180 C   0  0  0  0  0  0  0  0  0  0  0  0
   29.0740  -20.2216   -7.6024 C   0  0  1  0  0  0  0  0  0  0  0  0
   29.3730  -21.1286   -8.7765 C   0  0  0  0  0  0  0  0  0  0  0  0
   27.6118  -20.3226   -7.1921 C   0  0  2  0  0  0  0  0  0  0  0  0
   26.8305  -19.8675   -8.2993 N   0  0  0  0  0  0  0  0  0  0  0  0
   27.3450  -19.5817   -5.9454 C   0  0  0  0  0  0  0  0  0  0  0  0
   27.9497  -19.9934   -4.7721 O   0  0  0  0  0  0  0  0  0  0  0  0
   26.5845  -18.5867   -5.9150 O   0  0  0  0  0  0  0  0  0  0  0  0
  2  1  1  0
  3  2  1  0
  3  4  1  1
  5  6  1  6
  5  3  1  0
  7  5  1  0
  8  7  2  0
 10  9  1  0
 11 10  1  0
 12 11  1  0
 13 12  1  1
 13 14  1  0
 14  7  1  0
 15 13  1  0
 15 16  2  0
 18 17  1  1
 18 20  1  0
 19 18  1  0
 20 21  1  6
 21 15  1  0
 22 20  1  0
 23 22  1  0
 24 22  2  0
M  END
$$$$
