IMV.pdb
     RDKit          3D

 24 23  0  0  1  0  0  0  0  0999 V2000
   23.4356  -19.7294  -14.5694 C   0  0  0  0  0  0  0  0  0  0  0  0
   24.7612  -19.9981  -13.9406 C   0  0  0  0  0  0  0  0  0  0  0  0
   24.6663  -20.5130  -12.5197 C   0  0  2  0  0  0  0  0  0  0  0  0
   23.8414  -19.5165  -11.7425 C   0  0  0  0  0  0  0  0  0  0  0  0
   26.0415  -20.6979  -11.9324 C   0  0  2  0  0  0  0  0  0  0  0  0
   26.8641  -21.5783  -12.7182 N   0  0  0  0  0  0  0  0  0  0  0  0
   26.0417  -21.0844  -10.5289 C   0  0  0  0  0  0  0  0  0  0  0  0
   25.6906  -22.2241  -10.1290 O   0  0  0  0  0  0  0  0  0  0  0  0
   30.1017  -18.8261   -6.0071 C   0  0  0  0  0  0  0  0  0  0  0  0
   28.6076  -19.0000   -4.9921 S   0  0  0  0  0  0  0  0  0  0  0  0
   27.3875  -20.0014   -5.8790 C   0  0  0  0  0  0  0  0  0  0  0  0
   27.4239  -19.6363   -7.3471 C   0  0  0  0  0  0  0  0  0  0  0  0
   26.4313  -20.4667   -8.1334 C   0  0  2  0  0  0  0  0  0  0  0  0
   26.4532  -20.1509   -9.5379 N   0  0  0  0  0  0  0  0  0  0  0  0
   25.0680  -20.3616   -7.5944 C   0  0  0  0  0  0  0  0  0  0  0  0
   24.3631  -19.3672   -7.9521 O   0  0  0  0  0  0  0  0  0  0  0  0
   22.9889  -23.6086   -6.1733 C   0  0  0  0  0  0  0  0  0  0  0  0
   22.3630  -22.3351   -6.7138 C   0  0  1  0  0  0  0  0  0  0  0  0
   20.9151  -22.2276   -6.2868 C   0  0  0  0  0  0  0  0  0  0  0  0
   23.1642  -21.1319   -6.2372 C   0  0  2  0  0  0  0  0  0  0  0  0
   24.5044  -21.3059   -6.7032 N   0  0  0  0  0  0  0  0  0  0  0  0
   23.0717  -20.9622   -4.7753 C   0  0  0  0  0  0  0  0  0  0  0  0
   24.1964  -21.1705   -3.9984 O   0  0  0  0  0  0  0  0  0  0  0  0
   22.0020  -20.6339   -4.2122 O   0  0  0  0  0  0  0  0  0  0  0  0
  2  1  1  0
  3  2  1  0
  3  4  1  1
  5  6  1  6
  5  3  1  0
  7  5  1  0
  8  7  2  0
 10  9  1  0
 11 10  1  0
 12 11  1  0
 13 12  1  1
 13 14  1  0
 14  7  1  0
 15 13  1  0
 15 16  2  0
 18 17  1  1
 18 20  1  0
 19 18  1  0
 20 21  1  1
 21 15  1  0
 22 20  1  0
 23 22  1  0
 24 22  2  0
M  END
$$$$
