IMV.pdb
     RDKit          3D

 24 23  0  0  1  0  0  0  0  0999 V2000
   18.6951  -23.2247  -11.0853 C   0  0  0  0  0  0  0  0  0  0  0  0
   19.0857  -24.3730  -10.2173 C   0  0  0  0  0  0  0  0  0  0  0  0
   18.1382  -24.6093   -9.0599 C   0  0  2  0  0  0  0  0  0  0  0  0
   18.1721  -23.3692   -8.2004 C   0  0  0  0  0  0  0  0  0  0  0  0
   18.5365  -25.8452   -8.2956 C   0  0  2  0  0  0  0  0  0  0  0  0
   18.6489  -27.0045   -9.1397 N   0  0  0  0  0  0  0  0  0  0  0  0
   17.7076  -26.1165   -7.1300 C   0  0  0  0  0  0  0  0  0  0  0  0
   16.5380  -26.5724   -7.2085 O   0  0  0  0  0  0  0  0  0  0  0  0
   19.4789  -28.7406   -1.4242 C   0  0  0  0  0  0  0  0  0  0  0  0
   18.5180  -27.3013   -0.8786 S   0  0  0  0  0  0  0  0  0  0  0  0
   17.4522  -26.7385   -2.2297 C   0  0  0  0  0  0  0  0  0  0  0  0
   18.2948  -26.5355   -3.4700 C   0  0  0  0  0  0  0  0  0  0  0  0
   17.4355  -26.1058   -4.6406 C   0  0  2  0  0  0  0  0  0  0  0  0
   18.2161  -25.8644   -5.8259 N   0  0  0  0  0  0  0  0  0  0  0  0
   16.5990  -24.9411   -4.3183 C   0  0  0  0  0  0  0  0  0  0  0  0
   17.1471  -23.7951   -4.3294 O   0  0  0  0  0  0  0  0  0  0  0  0
   12.3523  -22.6738   -4.1925 C   0  0  0  0  0  0  0  0  0  0  0  0
   13.1911  -23.9032   -4.4935 C   0  0  1  0  0  0  0  0  0  0  0  0
   13.4728  -24.0088   -5.9767 C   0  0  0  0  0  0  0  0  0  0  0  0
   14.4851  -23.8450   -3.6942 C   0  0  2  0  0  0  0  0  0  0  0  0
   15.2230  -25.0307   -3.9987 N   0  0  0  0  0  0  0  0  0  0  0  0
   14.2259  -23.6725   -2.2528 C   0  0  0  0  0  0  0  0  0  0  0  0
   14.3013  -22.4077   -1.6993 O   0  0  0  0  0  0  0  0  0  0  0  0
   13.9384  -24.6396   -1.5103 O   0  0  0  0  0  0  0  0  0  0  0  0
  2  1  1  0
  3  2  1  0
  3  4  1  1
  5  6  1  6
  5  3  1  0
  7  5  1  0
  8  7  2  0
 10  9  1  0
 11 10  1  0
 12 11  1  0
 13 12  1  1
 13 14  1  0
 14  7  1  0
 15 13  1  0
 15 16  2  0
 18 17  1  6
 18 20  1  0
 19 18  1  0
 20 21  1  1
 21 15  1  0
 22 20  1  0
 23 22  1  0
 24 22  2  0
M  END
$$$$
