IMV.pdb
     RDKit          3D

 24 23  0  0  1  0  0  0  0  0999 V2000
   28.4983  -17.7401  -17.2396 C   0  0  0  0  0  0  0  0  0  0  0  0
   28.7632  -18.6775  -16.1101 C   0  0  0  0  0  0  0  0  0  0  0  0
   27.5136  -19.3278  -15.5546 C   0  0  2  0  0  0  0  0  0  0  0  0
   26.6467  -18.2217  -15.0045 C   0  0  0  0  0  0  0  0  0  0  0  0
   27.8714  -20.3486  -14.5057 C   0  0  2  0  0  0  0  0  0  0  0  0
   28.7897  -21.3429  -14.9930 N   0  0  0  0  0  0  0  0  0  0  0  0
   26.7221  -20.9616  -13.8559 C   0  0  0  0  0  0  0  0  0  0  0  0
   26.0769  -21.9177  -14.3576 O   0  0  0  0  0  0  0  0  0  0  0  0
   26.3150  -19.3921   -7.6981 C   0  0  0  0  0  0  0  0  0  0  0  0
   26.3090  -21.1823   -7.9944 S   0  0  0  0  0  0  0  0  0  0  0  0
   26.3357  -21.5002   -9.7767 C   0  0  0  0  0  0  0  0  0  0  0  0
   25.1779  -20.7722  -10.4243 C   0  0  0  0  0  0  0  0  0  0  0  0
   25.1414  -21.0368  -11.9149 C   0  0  2  0  0  0  0  0  0  0  0  0
   26.2827  -20.4788  -12.5923 N   0  0  0  0  0  0  0  0  0  0  0  0
   23.8895  -20.5752  -12.5311 C   0  0  0  0  0  0  0  0  0  0  0  0
   23.6746  -19.3239  -12.5734 O   0  0  0  0  0  0  0  0  0  0  0  0
   22.5790  -21.3918  -15.8965 C   0  0  0  0  0  0  0  0  0  0  0  0
   21.4401  -21.6493  -14.9259 C   0  0  1  0  0  0  0  0  0  0  0  0
   21.2646  -23.1336  -14.6885 C   0  0  0  0  0  0  0  0  0  0  0  0
   21.7081  -20.9148  -13.6200 C   0  0  2  0  0  0  0  0  0  0  0  0
   22.9178  -21.4482  -13.0764 N   0  0  0  0  0  0  0  0  0  0  0  0
   20.5614  -21.0107  -12.6977 C   0  0  0  0  0  0  0  0  0  0  0  0
   19.3856  -20.3543  -13.0111 O   0  0  0  0  0  0  0  0  0  0  0  0
   20.6189  -21.6707  -11.6346 O   0  0  0  0  0  0  0  0  0  0  0  0
  2  1  1  0
  3  2  1  0
  3  4  1  1
  5  6  1  6
  5  3  1  0
  7  5  1  0
  8  7  2  0
 10  9  1  0
 11 10  1  0
 12 11  1  0
 13 12  1  1
 13 14  1  0
 14  7  1  0
 15 13  1  0
 15 16  2  0
 18 17  1  6
 18 20  1  0
 19 18  1  0
 20 21  1  1
 21 15  1  0
 22 20  1  0
 23 22  1  0
 24 22  2  0
M  END
$$$$
