IMV.pdb
     RDKit          3D

 24 23  0  0  1  0  0  0  0  0999 V2000
   18.8113  -22.9138  -17.4066 C   0  0  0  0  0  0  0  0  0  0  0  0
   18.0402  -22.7738  -16.1376 C   0  0  0  0  0  0  0  0  0  0  0  0
   18.8369  -23.1305  -14.9003 C   0  0  2  0  0  0  0  0  0  0  0  0
   19.2491  -24.5755  -15.0411 C   0  0  0  0  0  0  0  0  0  0  0  0
   18.0194  -22.8881  -13.6580 C   0  0  2  0  0  0  0  0  0  0  0  0
   17.6104  -21.5154  -13.5249 N   0  0  0  0  0  0  0  0  0  0  0  0
   18.6374  -23.3782  -12.4344 C   0  0  0  0  0  0  0  0  0  0  0  0
   19.1362  -24.5279  -12.3282 O   0  0  0  0  0  0  0  0  0  0  0  0
   23.3113  -20.8600   -9.2328 C   0  0  0  0  0  0  0  0  0  0  0  0
   22.2551  -21.2036   -7.7979 S   0  0  0  0  0  0  0  0  0  0  0  0
   20.9619  -22.3807   -8.2671 C   0  0  0  0  0  0  0  0  0  0  0  0
   20.3515  -21.9439   -9.5810 C   0  0  0  0  0  0  0  0  0  0  0  0
   19.3367  -22.9576  -10.0668 C   0  0  2  0  0  0  0  0  0  0  0  0
   18.6954  -22.5406  -11.2864 N   0  0  0  0  0  0  0  0  0  0  0  0
   18.3405  -23.2847   -9.0368 C   0  0  0  0  0  0  0  0  0  0  0  0
   17.3377  -22.5146   -8.9149 O   0  0  0  0  0  0  0  0  0  0  0  0
   16.3177  -26.0960   -8.8493 C   0  0  0  0  0  0  0  0  0  0  0  0
   16.8642  -26.0201   -7.4347 C   0  0  1  0  0  0  0  0  0  0  0  0
   17.9085  -27.0915   -7.2064 C   0  0  0  0  0  0  0  0  0  0  0  0
   17.4400  -24.6335   -7.1849 C   0  0  2  0  0  0  0  0  0  0  0  0
   18.4411  -24.4068   -8.1798 N   0  0  0  0  0  0  0  0  0  0  0  0
   17.9450  -24.4953   -5.8064 C   0  0  0  0  0  0  0  0  0  0  0  0
   17.0443  -24.4504   -4.7582 O   0  0  0  0  0  0  0  0  0  0  0  0
   19.1693  -24.4168   -5.5533 O   0  0  0  0  0  0  0  0  0  0  0  0
  2  1  1  0
  3  2  1  0
  3  4  1  6
  5  6  1  1
  5  3  1  0
  7  5  1  0
  8  7  2  0
 10  9  1  0
 11 10  1  0
 12 11  1  0
 13 12  1  1
 13 14  1  0
 14  7  1  0
 15 13  1  0
 15 16  2  0
 18 17  1  6
 18 20  1  0
 19 18  1  0
 20 21  1  6
 21 15  1  0
 22 20  1  0
 23 22  1  0
 24 22  2  0
M  END
$$$$
