IMV.pdb
     RDKit          3D

 24 23  0  0  1  0  0  0  0  0999 V2000
   28.0967  -16.3843  -18.1080 C   0  0  0  0  0  0  0  0  0  0  0  0
   28.0777  -16.8477  -16.6904 C   0  0  0  0  0  0  0  0  0  0  0  0
   27.1123  -17.9863  -16.4365 C   0  0  2  0  0  0  0  0  0  0  0  0
   25.7860  -17.5829  -17.0329 C   0  0  0  0  0  0  0  0  0  0  0  0
   27.0113  -18.2736  -14.9608 C   0  0  2  0  0  0  0  0  0  0  0  0
   28.2969  -18.4764  -14.3482 N   0  0  0  0  0  0  0  0  0  0  0  0
   26.0890  -19.3489  -14.6260 C   0  0  0  0  0  0  0  0  0  0  0  0
   25.7553  -20.2477  -15.4402 O   0  0  0  0  0  0  0  0  0  0  0  0
   25.2726  -20.6082   -8.4790 C   0  0  0  0  0  0  0  0  0  0  0  0
   26.4258  -21.6501   -9.4156 S   0  0  0  0  0  0  0  0  0  0  0  0
   26.2487  -21.3085  -11.1848 C   0  0  0  0  0  0  0  0  0  0  0  0
   24.8336  -20.8476  -11.4583 C   0  0  0  0  0  0  0  0  0  0  0  0
   24.6560  -20.4919  -12.9196 C   0  0  2  0  0  0  0  0  0  0  0  0
   25.5207  -19.4141  -13.3238 N   0  0  0  0  0  0  0  0  0  0  0  0
   23.2561  -20.1931  -13.2529 C   0  0  0  0  0  0  0  0  0  0  0  0
   22.8016  -19.0497  -12.9373 O   0  0  0  0  0  0  0  0  0  0  0  0
   21.5999  -20.3261  -16.5361 C   0  0  0  0  0  0  0  0  0  0  0  0
   20.7256  -21.1352  -15.5945 C   0  0  1  0  0  0  0  0  0  0  0  0
   20.9313  -22.6182  -15.8151 C   0  0  0  0  0  0  0  0  0  0  0  0
   21.0341  -20.7488  -14.1550 C   0  0  2  0  0  0  0  0  0  0  0  0
   22.3945  -21.1085  -13.9037 N   0  0  0  0  0  0  0  0  0  0  0  0
   20.0833  -21.3654  -13.2114 C   0  0  0  0  0  0  0  0  0  0  0  0
   18.8259  -20.8105  -13.0599 O   0  0  0  0  0  0  0  0  0  0  0  0
   20.3796  -22.3803  -12.5396 O   0  0  0  0  0  0  0  0  0  0  0  0
  2  1  1  0
  3  2  1  0
  3  4  1  1
  5  6  1  6
  5  3  1  0
  7  5  1  0
  8  7  2  0
 10  9  1  0
 11 10  1  0
 12 11  1  0
 13 12  1  1
 13 14  1  0
 14  7  1  0
 15 13  1  0
 15 16  2  0
 18 17  1  6
 18 20  1  0
 19 18  1  0
 20 21  1  1
 21 15  1  0
 22 20  1  0
 23 22  1  0
 24 22  2  0
M  END
$$$$
