IMV.pdb
     RDKit          3D

 24 23  0  0  1  0  0  0  0  0999 V2000
   28.5164  -17.8947  -17.4558 C   0  0  0  0  0  0  0  0  0  0  0  0
   28.9013  -18.9148  -16.4380 C   0  0  0  0  0  0  0  0  0  0  0  0
   27.7316  -19.4411  -15.6331 C   0  0  2  0  0  0  0  0  0  0  0  0
   27.1461  -18.2682  -14.8853 C   0  0  0  0  0  0  0  0  0  0  0  0
   28.1806  -20.5421  -14.7076 C   0  0  2  0  0  0  0  0  0  0  0  0
   28.7690  -21.6500  -15.4117 N   0  0  0  0  0  0  0  0  0  0  0  0
   27.1561  -20.9902  -13.7756 C   0  0  0  0  0  0  0  0  0  0  0  0
   26.2035  -21.7409  -14.1089 O   0  0  0  0  0  0  0  0  0  0  0  0
   27.5563  -20.5144   -7.1844 C   0  0  0  0  0  0  0  0  0  0  0  0
   25.7975  -20.1707   -7.4697 S   0  0  0  0  0  0  0  0  0  0  0  0
   25.3375  -20.7147   -9.1342 C   0  0  0  0  0  0  0  0  0  0  0  0
   26.4513  -20.3580  -10.0944 C   0  0  0  0  0  0  0  0  0  0  0  0
   26.1488  -20.8738  -11.4857 C   0  0  2  0  0  0  0  0  0  0  0  0
   27.2069  -20.5767  -12.4157 N   0  0  0  0  0  0  0  0  0  0  0  0
   24.8567  -20.3879  -11.9902 C   0  0  0  0  0  0  0  0  0  0  0  0
   24.7561  -19.1537  -12.2737 O   0  0  0  0  0  0  0  0  0  0  0  0
   22.3118  -22.7377  -14.0590 C   0  0  0  0  0  0  0  0  0  0  0  0
   22.3458  -21.2205  -14.1086 C   0  0  1  0  0  0  0  0  0  0  0  0
   21.0900  -20.6781  -14.7563 C   0  0  0  0  0  0  0  0  0  0  0  0
   22.5165  -20.6687  -12.7004 C   0  0  2  0  0  0  0  0  0  0  0  0
   23.7263  -21.2197  -12.1750 N   0  0  0  0  0  0  0  0  0  0  0  0
   21.3359  -20.9462  -11.8614 C   0  0  0  0  0  0  0  0  0  0  0  0
   20.1368  -20.3236  -12.1552 O   0  0  0  0  0  0  0  0  0  0  0  0
   21.3848  -21.7314  -10.8866 O   0  0  0  0  0  0  0  0  0  0  0  0
  2  1  1  0
  3  2  1  0
  3  4  1  1
  5  6  1  6
  5  3  1  0
  7  5  1  0
  8  7  2  0
 10  9  1  0
 11 10  1  0
 12 11  1  0
 13 12  1  1
 13 14  1  0
 14  7  1  0
 15 13  1  0
 15 16  2  0
 18 17  1  1
 18 20  1  0
 19 18  1  0
 20 21  1  1
 21 15  1  0
 22 20  1  0
 23 22  1  0
 24 22  2  0
M  END
$$$$
