ETS.pdb
     RDKit          3D

 23 22  0  0  1  0  0  0  0  0999 V2000
    9.6842  -15.4035   14.5384 N   0  0  0  0  0  0  0  0  0  0  0  0
    9.1771  -16.1138   15.6954 C   0  0  1  0  0  0  0  0  0  0  0  0
    9.7893  -17.5131   15.6745 C   0  0  0  0  0  0  0  0  0  0  0  0
    9.9825  -17.9904   14.2522 C   0  0  0  0  0  0  0  0  0  0  0  0
   10.6142  -19.3260   14.2994 C   0  0  0  0  0  0  0  0  0  0  0  0
   11.8015  -19.5098   13.9662 O   0  0  0  0  0  0  0  0  0  0  0  0
    9.6272  -15.4010   16.9161 C   0  0  0  0  0  0  0  0  0  0  0  0
   10.7173  -14.7796   16.9327 O   0  0  0  0  0  0  0  0  0  0  0  0
    9.8604  -20.4071   14.7286 O   0  0  0  0  0  0  0  0  0  0  0  0
    7.5513  -12.8219   19.0425 C   0  0  0  0  0  0  0  0  0  0  0  0
    8.0379  -13.9485   19.8919 C   0  0  1  0  0  0  0  0  0  0  0  0
    7.0283  -14.8534   20.2154 O   0  0  0  0  0  0  0  0  0  0  0  0
    9.2465  -14.6479   19.3074 C   0  0  2  0  0  0  0  0  0  0  0  0
    8.8668  -15.3784   18.1185 N   0  0  0  0  0  0  0  0  0  0  0  0
    9.8085  -15.5643   20.3498 C   0  0  0  0  0  0  0  0  0  0  0  0
    9.5023  -16.7844   20.3446 O   0  0  0  0  0  0  0  0  0  0  0  0
   12.6020  -16.0309   24.3192 O   0  0  0  0  0  0  0  0  0  0  0  0
   12.1772  -15.1731   23.3160 C   0  0  0  0  0  0  0  0  0  0  0  0
   11.1972  -15.9531   22.4315 C   0  0  2  0  0  0  0  0  0  0  0  0
   10.6914  -15.1183   21.3709 N   0  0  0  0  0  0  0  0  0  0  0  0
   10.1262  -16.4903   23.2950 C   0  0  0  0  0  0  0  0  0  0  0  0
    8.9925  -15.9589   23.3734 O   0  0  0  0  0  0  0  0  0  0  0  0
   10.3717  -17.6151   24.0453 O   0  0  0  0  0  0  0  0  0  0  0  0
  2  1  1  6
  2  3  1  0
  3  4  1  0
  4  5  1  0
  5  9  1  0
  6  5  2  0
  7 14  1  0
  7  2  1  0
  8  7  2  0
 11 10  1  6
 11 13  1  0
 12 11  1  0
 13 15  1  0
 13 14  1  6
 15 20  1  0
 16 15  2  0
 18 17  1  0
 19 21  1  0
 19 18  1  1
 20 19  1  0
 21 22  2  0
 21 23  1  0
M  END
$$$$
