ETS.pdb
     RDKit          3D

 23 22  0  0  1  0  0  0  0  0999 V2000
    9.9028  -18.4996   18.1124 N   0  0  0  0  0  0  0  0  0  0  0  0
   11.1218  -17.9986   18.7154 C   0  0  1  0  0  0  0  0  0  0  0  0
   12.1245  -17.7647   17.5870 C   0  0  0  0  0  0  0  0  0  0  0  0
   11.4109  -17.6051   16.2628 C   0  0  0  0  0  0  0  0  0  0  0  0
   12.4333  -17.5319   15.1978 C   0  0  0  0  0  0  0  0  0  0  0  0
   13.3340  -18.3865   15.0836 O   0  0  0  0  0  0  0  0  0  0  0  0
   10.8194  -16.7058   19.3771 C   0  0  0  0  0  0  0  0  0  0  0  0
   11.7239  -16.0474   19.9455 O   0  0  0  0  0  0  0  0  0  0  0  0
   12.3870  -16.4785   14.2981 O   0  0  0  0  0  0  0  0  0  0  0  0
    7.4243  -13.2307   20.5492 C   0  0  0  0  0  0  0  0  0  0  0  0
    7.8211  -14.4487   19.7834 C   0  0  1  0  0  0  0  0  0  0  0  0
    7.8534  -14.2319   18.4068 O   0  0  0  0  0  0  0  0  0  0  0  0
    9.1119  -15.0632   20.2808 C   0  0  2  0  0  0  0  0  0  0  0  0
    9.5125  -16.1441   19.4077 N   0  0  0  0  0  0  0  0  0  0  0  0
    8.8919  -15.5501   21.6797 C   0  0  0  0  0  0  0  0  0  0  0  0
    8.6590  -16.7680   21.8915 O   0  0  0  0  0  0  0  0  0  0  0  0
    7.9808  -12.8862   24.6244 O   0  0  0  0  0  0  0  0  0  0  0  0
    8.7597  -13.9176   25.1269 C   0  0  0  0  0  0  0  0  0  0  0  0
    8.6339  -15.0996   24.1583 C   0  0  2  0  0  0  0  0  0  0  0  0
    8.9327  -14.6882   22.8096 N   0  0  0  0  0  0  0  0  0  0  0  0
    7.2758  -15.6636   24.2953 C   0  0  0  0  0  0  0  0  0  0  0  0
    6.4119  -15.5698   23.3905 O   0  0  0  0  0  0  0  0  0  0  0  0
    6.9362  -16.3181   25.4550 O   0  0  0  0  0  0  0  0  0  0  0  0
  2  1  1  6
  2  3  1  0
  3  4  1  0
  4  5  1  0
  5  9  1  0
  6  5  2  0
  7 14  1  0
  7  2  1  0
  8  7  2  0
 11 10  1  1
 11 13  1  0
 12 11  1  0
 13 15  1  0
 13 14  1  6
 15 20  1  0
 16 15  2  0
 18 17  1  0
 19 21  1  0
 19 18  1  1
 20 19  1  0
 21 22  2  0
 21 23  1  0
M  END
$$$$
