ETS.pdb
     RDKit          3D

 23 22  0  0  1  0  0  0  0  0999 V2000
   10.4384  -16.9653   15.3797 N   0  0  0  0  0  0  0  0  0  0  0  0
    9.3281  -17.0875   16.3031 C   0  0  1  0  0  0  0  0  0  0  0  0
    9.2104  -18.5630   16.6801 C   0  0  0  0  0  0  0  0  0  0  0  0
   10.5624  -19.1278   17.0559 C   0  0  0  0  0  0  0  0  0  0  0  0
   10.3867  -20.5596   17.3787 C   0  0  0  0  0  0  0  0  0  0  0  0
    9.9719  -20.9424   18.4905 O   0  0  0  0  0  0  0  0  0  0  0  0
    9.6406  -16.2955   17.5179 C   0  0  0  0  0  0  0  0  0  0  0  0
   10.8037  -16.2718   17.9884 O   0  0  0  0  0  0  0  0  0  0  0  0
   10.6933  -21.5051   16.4127 O   0  0  0  0  0  0  0  0  0  0  0  0
    7.9602  -12.9828   20.8911 C   0  0  0  0  0  0  0  0  0  0  0  0
    7.7909  -13.7738   19.6369 C   0  0  1  0  0  0  0  0  0  0  0  0
    7.5433  -12.9717   18.5241 O   0  0  0  0  0  0  0  0  0  0  0  0
    8.9334  -14.7350   19.3874 C   0  0  2  0  0  0  0  0  0  0  0  0
    8.6614  -15.5300   18.2105 N   0  0  0  0  0  0  0  0  0  0  0  0
    9.0932  -15.5993   20.5998 C   0  0  0  0  0  0  0  0  0  0  0  0
    8.2714  -16.5248   20.8242 O   0  0  0  0  0  0  0  0  0  0  0  0
   12.5073  -15.2764   22.9235 O   0  0  0  0  0  0  0  0  0  0  0  0
   11.9180  -16.5274   22.8209 C   0  0  0  0  0  0  0  0  0  0  0  0
   10.4107  -16.3098   22.6425 C   0  0  2  0  0  0  0  0  0  0  0  0
   10.1504  -15.4255   21.5344 N   0  0  0  0  0  0  0  0  0  0  0  0
    9.8653  -15.8026   23.9178 C   0  0  0  0  0  0  0  0  0  0  0  0
    9.3064  -14.6837   24.0151 O   0  0  0  0  0  0  0  0  0  0  0  0
    9.9695  -16.5791   25.0468 O   0  0  0  0  0  0  0  0  0  0  0  0
  2  1  1  6
  2  3  1  0
  3  4  1  0
  4  5  1  0
  5  9  1  0
  6  5  2  0
  7 14  1  0
  7  2  1  0
  8  7  2  0
 11 10  1  1
 11 13  1  0
 12 11  1  0
 13 15  1  0
 13 14  1  6
 15 20  1  0
 16 15  2  0
 18 17  1  0
 19 21  1  0
 19 18  1  1
 20 19  1  0
 21 22  2  0
 21 23  1  0
M  END
$$$$
