ETS.pdb
     RDKit          3D

 23 22  0  0  1  0  0  0  0  0999 V2000
    9.1530  -14.9768   14.7811 N   0  0  0  0  0  0  0  0  0  0  0  0
    8.6860  -15.7869   15.8883 C   0  0  1  0  0  0  0  0  0  0  0  0
    9.2387  -17.1964   15.6855 C   0  0  0  0  0  0  0  0  0  0  0  0
   10.7215  -17.1513   15.3902 C   0  0  0  0  0  0  0  0  0  0  0  0
   11.1868  -18.5370   15.1700 C   0  0  0  0  0  0  0  0  0  0  0  0
   11.4175  -18.9855   14.0297 O   0  0  0  0  0  0  0  0  0  0  0  0
    9.2351  -15.2222   17.1454 C   0  0  0  0  0  0  0  0  0  0  0  0
   10.3867  -14.7245   17.1775 O   0  0  0  0  0  0  0  0  0  0  0  0
   11.3720  -19.3623   16.2681 O   0  0  0  0  0  0  0  0  0  0  0  0
    7.4700  -12.6781   19.6813 C   0  0  0  0  0  0  0  0  0  0  0  0
    7.8869  -13.9493   20.3426 C   0  0  1  0  0  0  0  0  0  0  0  0
    6.8140  -14.8038   20.5910 O   0  0  0  0  0  0  0  0  0  0  0  0
    9.0042  -14.6576   19.6068 C   0  0  2  0  0  0  0  0  0  0  0  0
    8.5057  -15.2104   18.3669 N   0  0  0  0  0  0  0  0  0  0  0  0
    9.5475  -15.7309   20.4985 C   0  0  0  0  0  0  0  0  0  0  0  0
    9.7143  -16.8947   20.0511 O   0  0  0  0  0  0  0  0  0  0  0  0
   12.6522  -17.5738   22.9813 O   0  0  0  0  0  0  0  0  0  0  0  0
   12.0251  -16.6709   22.1362 C   0  0  0  0  0  0  0  0  0  0  0  0
   10.6130  -16.4350   22.6853 C   0  0  2  0  0  0  0  0  0  0  0  0
    9.8933  -15.4995   21.8580 N   0  0  0  0  0  0  0  0  0  0  0  0
   10.7341  -15.9825   24.0859 C   0  0  0  0  0  0  0  0  0  0  0  0
   10.3939  -14.8330   24.4554 O   0  0  0  0  0  0  0  0  0  0  0  0
   11.2379  -16.8470   25.0279 O   0  0  0  0  0  0  0  0  0  0  0  0
  2  1  1  6
  2  3  1  0
  3  4  1  0
  4  5  1  0
  5  9  1  0
  6  5  2  0
  7 14  1  0
  7  2  1  0
  8  7  2  0
 11 10  1  6
 11 13  1  0
 12 11  1  0
 13 15  1  0
 13 14  1  6
 15 20  1  0
 16 15  2  0
 18 17  1  0
 19 21  1  0
 19 18  1  6
 20 19  1  0
 21 22  2  0
 21 23  1  0
M  END
$$$$
