ETS.pdb
     RDKit          3D

 23 22  0  0  1  0  0  0  0  0999 V2000
   10.3475  -16.8731   17.4055 N   0  0  0  0  0  0  0  0  0  0  0  0
   10.7656  -17.4144   18.6832 C   0  0  1  0  0  0  0  0  0  0  0  0
   12.2742  -17.6424   18.6088 C   0  0  0  0  0  0  0  0  0  0  0  0
   12.5845  -18.9289   17.8760 C   0  0  0  0  0  0  0  0  0  0  0  0
   14.0397  -19.1703   17.9712 C   0  0  0  0  0  0  0  0  0  0  0  0
   14.5831  -19.5349   19.0324 O   0  0  0  0  0  0  0  0  0  0  0  0
   10.4740  -16.4096   19.7349 C   0  0  0  0  0  0  0  0  0  0  0  0
   11.2981  -15.5022   20.0035 O   0  0  0  0  0  0  0  0  0  0  0  0
   14.8232  -18.9851   16.8428 O   0  0  0  0  0  0  0  0  0  0  0  0
    7.2019  -14.2096   20.0335 C   0  0  0  0  0  0  0  0  0  0  0  0
    7.4475  -15.0129   21.2671 C   0  0  1  0  0  0  0  0  0  0  0  0
    6.6138  -16.1262   21.3591 O   0  0  0  0  0  0  0  0  0  0  0  0
    8.9026  -15.3906   21.4445 C   0  0  2  0  0  0  0  0  0  0  0  0
    9.2672  -16.4126   20.4885 N   0  0  0  0  0  0  0  0  0  0  0  0
    9.0954  -15.8700   22.8499 C   0  0  0  0  0  0  0  0  0  0  0  0
    9.3591  -17.0801   23.0702 O   0  0  0  0  0  0  0  0  0  0  0  0
    7.7426  -13.6006   25.8815 O   0  0  0  0  0  0  0  0  0  0  0  0
    8.8770  -14.2736   26.3091 C   0  0  0  0  0  0  0  0  0  0  0  0
    9.1041  -15.4453   25.3464 C   0  0  2  0  0  0  0  0  0  0  0  0
    8.9935  -15.0095   23.9770 N   0  0  0  0  0  0  0  0  0  0  0  0
    8.1406  -16.5121   25.6854 C   0  0  0  0  0  0  0  0  0  0  0  0
    8.1491  -17.1021   26.7924 O   0  0  0  0  0  0  0  0  0  0  0  0
    7.1947  -16.8794   24.7588 O   0  0  0  0  0  0  0  0  0  0  0  0
  2  1  1  6
  2  3  1  0
  3  4  1  0
  4  5  1  0
  5  9  1  0
  6  5  2  0
  7 14  1  0
  7  2  1  0
  8  7  2  0
 11 10  1  6
 11 13  1  0
 12 11  1  0
 13 15  1  0
 13 14  1  6
 15 20  1  0
 16 15  2  0
 18 17  1  0
 19 21  1  0
 19 18  1  1
 20 19  1  0
 21 22  2  0
 21 23  1  0
M  END
$$$$
