ETS.pdb
     RDKit          3D

 23 22  0  0  1  0  0  0  0  0999 V2000
   13.6867  -14.0138   16.8864 N   0  0  0  0  0  0  0  0  0  0  0  0
   12.8829  -15.1090   17.3913 C   0  0  1  0  0  0  0  0  0  0  0  0
   13.8335  -16.2613   17.7106 C   0  0  0  0  0  0  0  0  0  0  0  0
   15.2317  -15.9508   17.2240 C   0  0  0  0  0  0  0  0  0  0  0  0
   16.0919  -17.1131   17.5312 C   0  0  0  0  0  0  0  0  0  0  0  0
   17.0929  -17.0203   18.2687 O   0  0  0  0  0  0  0  0  0  0  0  0
   12.2170  -14.6637   18.6399 C   0  0  0  0  0  0  0  0  0  0  0  0
   12.8353  -13.9761   19.4883 O   0  0  0  0  0  0  0  0  0  0  0  0
   15.7732  -18.3446   16.9808 O   0  0  0  0  0  0  0  0  0  0  0  0
    8.9669  -12.6450   18.8963 C   0  0  0  0  0  0  0  0  0  0  0  0
    8.8246  -13.9024   19.6874 C   0  0  1  0  0  0  0  0  0  0  0  0
    8.0238  -14.8501   19.0522 O   0  0  0  0  0  0  0  0  0  0  0  0
   10.1557  -14.4890   20.1065 C   0  0  2  0  0  0  0  0  0  0  0  0
   10.8647  -14.9822   18.9466 N   0  0  0  0  0  0  0  0  0  0  0  0
    9.8960  -15.5877   21.0902 C   0  0  0  0  0  0  0  0  0  0  0  0
    9.8852  -16.7854   20.7058 O   0  0  0  0  0  0  0  0  0  0  0  0
    8.8512  -14.7352   25.0516 O   0  0  0  0  0  0  0  0  0  0  0  0
    9.6386  -15.8608   24.8628 C   0  0  0  0  0  0  0  0  0  0  0  0
    9.3743  -16.3711   23.4412 C   0  0  2  0  0  0  0  0  0  0  0  0
    9.6548  -15.3437   22.4699 N   0  0  0  0  0  0  0  0  0  0  0  0
    7.9792  -16.8514   23.3773 C   0  0  0  0  0  0  0  0  0  0  0  0
    7.1046  -16.2918   22.6732 O   0  0  0  0  0  0  0  0  0  0  0  0
    7.6157  -17.9530   24.1140 O   0  0  0  0  0  0  0  0  0  0  0  0
  2  1  1  1
  2  3  1  0
  3  4  1  0
  4  5  1  0
  5  9  1  0
  6  5  2  0
  7 14  1  0
  7  2  1  0
  8  7  2  0
 11 10  1  6
 11 13  1  0
 12 11  1  0
 13 15  1  0
 13 14  1  6
 15 20  1  0
 16 15  2  0
 18 17  1  0
 19 21  1  0
 19 18  1  1
 20 19  1  0
 21 22  2  0
 21 23  1  0
M  END
$$$$
