ETS.pdb
     RDKit          3D

 23 22  0  0  1  0  0  0  0  0999 V2000
    8.7162  -17.2467   16.2447 N   0  0  0  0  0  0  0  0  0  0  0  0
    8.5220  -17.8165   17.5631 C   0  0  1  0  0  0  0  0  0  0  0  0
    9.3284  -19.1124   17.6218 C   0  0  0  0  0  0  0  0  0  0  0  0
   10.6370  -18.9615   16.8781 C   0  0  0  0  0  0  0  0  0  0  0  0
   11.3459  -20.2575   16.9314 C   0  0  0  0  0  0  0  0  0  0  0  0
   11.3879  -20.9480   17.9687 O   0  0  0  0  0  0  0  0  0  0  0  0
    9.0540  -16.8633   18.5676 C   0  0  0  0  0  0  0  0  0  0  0  0
   10.2036  -16.3753   18.4452 O   0  0  0  0  0  0  0  0  0  0  0  0
   11.9833  -20.7181   15.7900 O   0  0  0  0  0  0  0  0  0  0  0  0
    6.9278  -13.8999   20.4442 C   0  0  0  0  0  0  0  0  0  0  0  0
    7.6440  -14.8216   21.3741 C   0  0  1  0  0  0  0  0  0  0  0  0
    6.7854  -15.7133   22.0150 O   0  0  0  0  0  0  0  0  0  0  0  0
    8.8027  -15.5397   20.7160 C   0  0  2  0  0  0  0  0  0  0  0  0
    8.3094  -16.4521   19.7082 N   0  0  0  0  0  0  0  0  0  0  0  0
    9.5681  -16.2675   21.7774 C   0  0  0  0  0  0  0  0  0  0  0  0
    9.3400  -17.4857   21.9928 O   0  0  0  0  0  0  0  0  0  0  0  0
   13.2987  -16.3129   24.8517 O   0  0  0  0  0  0  0  0  0  0  0  0
   12.5542  -15.5163   23.9950 C   0  0  0  0  0  0  0  0  0  0  0  0
   11.2759  -16.2885   23.6472 C   0  0  2  0  0  0  0  0  0  0  0  0
   10.5637  -15.6399   22.5750 N   0  0  0  0  0  0  0  0  0  0  0  0
   10.4664  -16.4147   24.8759 C   0  0  0  0  0  0  0  0  0  0  0  0
    9.3920  -15.7890   25.0433 O   0  0  0  0  0  0  0  0  0  0  0  0
   10.8987  -17.2472   25.8802 O   0  0  0  0  0  0  0  0  0  0  0  0
  2  1  1  6
  2  3  1  0
  3  4  1  0
  4  5  1  0
  5  9  1  0
  6  5  2  0
  7 14  1  0
  7  2  1  0
  8  7  2  0
 11 10  1  6
 11 13  1  0
 12 11  1  0
 13 15  1  0
 13 14  1  6
 15 20  1  0
 16 15  2  0
 18 17  1  0
 19 21  1  0
 19 18  1  1
 20 19  1  0
 21 22  2  0
 21 23  1  0
M  END
$$$$
