ETS.pdb
     RDKit          3D

 23 22  0  0  1  0  0  0  0  0999 V2000
    7.8185  -13.5552   15.8455 N   0  0  0  0  0  0  0  0  0  0  0  0
    8.2688  -14.7771   16.4816 C   0  0  1  0  0  0  0  0  0  0  0  0
    9.2897  -15.4260   15.5490 C   0  0  0  0  0  0  0  0  0  0  0  0
    8.6232  -15.9067   14.2790 C   0  0  0  0  0  0  0  0  0  0  0  0
    9.6672  -16.4777   13.4020 C   0  0  0  0  0  0  0  0  0  0  0  0
   10.5299  -17.2707   13.8280 O   0  0  0  0  0  0  0  0  0  0  0  0
    8.9309  -14.4220   17.7608 C   0  0  0  0  0  0  0  0  0  0  0  0
    9.8052  -13.5228   17.8042 O   0  0  0  0  0  0  0  0  0  0  0  0
    9.6854  -16.1187   12.0633 O   0  0  0  0  0  0  0  0  0  0  0  0
    7.5261  -12.9721   20.8489 C   0  0  0  0  0  0  0  0  0  0  0  0
    8.1506  -14.2721   21.2331 C   0  0  1  0  0  0  0  0  0  0  0  0
    7.2095  -15.2752   21.4588 O   0  0  0  0  0  0  0  0  0  0  0  0
    9.2214  -14.7213   20.2621 C   0  0  2  0  0  0  0  0  0  0  0  0
    8.6225  -15.0656   18.9916 N   0  0  0  0  0  0  0  0  0  0  0  0
    9.9354  -15.8940   20.8598 C   0  0  0  0  0  0  0  0  0  0  0  0
    9.5281  -17.0616   20.6291 O   0  0  0  0  0  0  0  0  0  0  0  0
   13.4772  -15.3253   22.7866 O   0  0  0  0  0  0  0  0  0  0  0  0
   13.2511  -16.6365   22.3964 C   0  0  0  0  0  0  0  0  0  0  0  0
   11.7329  -16.8496   22.3660 C   0  0  2  0  0  0  0  0  0  0  0  0
   11.0774  -15.7552   21.6951 N   0  0  0  0  0  0  0  0  0  0  0  0
   11.2661  -17.0292   23.7556 C   0  0  0  0  0  0  0  0  0  0  0  0
   10.3721  -16.3115   24.2650 O   0  0  0  0  0  0  0  0  0  0  0  0
   11.8267  -18.0178   24.5280 O   0  0  0  0  0  0  0  0  0  0  0  0
  2  1  1  6
  2  3  1  0
  3  4  1  0
  4  5  1  0
  5  9  1  0
  6  5  2  0
  7 14  1  0
  7  2  1  0
  8  7  2  0
 11 10  1  6
 11 13  1  0
 12 11  1  0
 13 15  1  0
 13 14  1  6
 15 20  1  0
 16 15  2  0
 18 17  1  0
 19 21  1  0
 19 18  1  1
 20 19  1  0
 21 22  2  0
 21 23  1  0
M  END
$$$$
