ETS.pdb
     RDKit          3D

 23 22  0  0  1  0  0  0  0  0999 V2000
    7.8548  -17.0367   16.4384 N   0  0  0  0  0  0  0  0  0  0  0  0
    9.3013  -16.9785   16.5044 C   0  0  1  0  0  0  0  0  0  0  0  0
    9.7922  -16.3673   15.1934 C   0  0  0  0  0  0  0  0  0  0  0  0
    9.1631  -17.0673   14.0092 C   0  0  0  0  0  0  0  0  0  0  0  0
    9.7704  -16.5193   12.7779 C   0  0  0  0  0  0  0  0  0  0  0  0
    9.1788  -15.6893   12.0597 O   0  0  0  0  0  0  0  0  0  0  0  0
    9.6830  -16.0916   17.6308 C   0  0  0  0  0  0  0  0  0  0  0  0
   10.8226  -15.5684   17.6795 O   0  0  0  0  0  0  0  0  0  0  0  0
   11.0384  -16.9431   12.4123 O   0  0  0  0  0  0  0  0  0  0  0  0
    7.5631  -13.1777   19.4444 C   0  0  0  0  0  0  0  0  0  0  0  0
    7.9978  -14.2443   20.3935 C   0  0  1  0  0  0  0  0  0  0  0  0
    6.9497  -15.0749   20.7863 O   0  0  0  0  0  0  0  0  0  0  0  0
    9.1791  -15.0416   19.8833 C   0  0  2  0  0  0  0  0  0  0  0  0
    8.7992  -15.7860   18.7031 N   0  0  0  0  0  0  0  0  0  0  0  0
    9.6358  -15.9567   20.9771 C   0  0  0  0  0  0  0  0  0  0  0  0
    9.2367  -17.1493   21.0059 O   0  0  0  0  0  0  0  0  0  0  0  0
   13.1842  -16.2071   22.3319 O   0  0  0  0  0  0  0  0  0  0  0  0
   12.4115  -16.0580   23.4736 C   0  0  0  0  0  0  0  0  0  0  0  0
   10.9627  -16.3835   23.0913 C   0  0  2  0  0  0  0  0  0  0  0  0
   10.5181  -15.5395   22.0108 N   0  0  0  0  0  0  0  0  0  0  0  0
   10.1268  -16.2493   24.3014 C   0  0  0  0  0  0  0  0  0  0  0  0
   10.2998  -16.9567   25.3229 O   0  0  0  0  0  0  0  0  0  0  0  0
    9.1180  -15.3162   24.3185 O   0  0  0  0  0  0  0  0  0  0  0  0
  2  1  1  6
  2  3  1  0
  3  4  1  0
  4  5  1  0
  5  9  1  0
  6  5  2  0
  7 14  1  0
  7  2  1  0
  8  7  2  0
 11 10  1  6
 11 13  1  0
 12 11  1  0
 13 15  1  0
 13 14  1  6
 15 20  1  0
 16 15  2  0
 18 17  1  0
 19 21  1  0
 19 18  1  1
 20 19  1  0
 21 22  2  0
 21 23  1  0
M  END
$$$$
