ETS.pdb
     RDKit          3D

 23 22  0  0  1  0  0  0  0  0999 V2000
    7.9474  -13.5672   15.2594 N   0  0  0  0  0  0  0  0  0  0  0  0
    7.6794  -14.6282   16.2096 C   0  0  1  0  0  0  0  0  0  0  0  0
    8.0874  -15.9439   15.5493 C   0  0  0  0  0  0  0  0  0  0  0  0
    9.4663  -15.8297   14.9380 C   0  0  0  0  0  0  0  0  0  0  0  0
    9.8139  -17.1383   14.3449 C   0  0  0  0  0  0  0  0  0  0  0  0
   10.9732  -17.4121   13.9765 O   0  0  0  0  0  0  0  0  0  0  0  0
    8.5192  -14.4030   17.4115 C   0  0  0  0  0  0  0  0  0  0  0  0
    9.6303  -13.8267   17.3208 O   0  0  0  0  0  0  0  0  0  0  0  0
    8.8174  -18.0900   14.1948 O   0  0  0  0  0  0  0  0  0  0  0  0
    7.3950  -12.6711   20.6649 C   0  0  0  0  0  0  0  0  0  0  0  0
    7.9598  -14.0126   20.9948 C   0  0  1  0  0  0  0  0  0  0  0  0
    6.9776  -14.9409   21.3358 O   0  0  0  0  0  0  0  0  0  0  0  0
    8.8800  -14.5457   19.9175 C   0  0  2  0  0  0  0  0  0  0  0  0
    8.1253  -14.8179   18.7143 N   0  0  0  0  0  0  0  0  0  0  0  0
    9.5399  -15.7862   20.4351 C   0  0  0  0  0  0  0  0  0  0  0  0
    9.1652  -16.9149   20.0251 O   0  0  0  0  0  0  0  0  0  0  0  0
   13.3245  -16.2374   21.1561 O   0  0  0  0  0  0  0  0  0  0  0  0
   12.4595  -17.3211   21.1394 C   0  0  0  0  0  0  0  0  0  0  0  0
   11.2181  -16.9282   21.9492 C   0  0  2  0  0  0  0  0  0  0  0  0
   10.5934  -15.7561   21.3893 N   0  0  0  0  0  0  0  0  0  0  0  0
   11.6275  -16.7400   23.3557 C   0  0  0  0  0  0  0  0  0  0  0  0
   11.4734  -15.6535   23.9636 O   0  0  0  0  0  0  0  0  0  0  0  0
   12.2001  -17.7898   24.0328 O   0  0  0  0  0  0  0  0  0  0  0  0
  2  1  1  6
  2  3  1  0
  3  4  1  0
  4  5  1  0
  5  9  1  0
  6  5  2  0
  7 14  1  0
  7  2  1  0
  8  7  2  0
 11 10  1  6
 11 13  1  0
 12 11  1  0
 13 15  1  0
 13 14  1  6
 15 20  1  0
 16 15  2  0
 18 17  1  0
 19 21  1  0
 19 18  1  6
 20 19  1  0
 21 22  2  0
 21 23  1  0
M  END
$$$$
