PCE.pdb
     RDKit          3D

 23 23  0  0  1  0  0  0  0  0999 V2000
    7.6532  -15.0378   18.9445 N   0  0  0  0  0  0  0  0  0  0  0  0
    6.7183  -13.9925   19.2137 C   0  0  0  0  0  0  0  0  0  0  0  0
    7.5307  -12.6961   19.3160 C   0  0  0  0  0  0  0  0  0  0  0  0
    8.7425  -13.0811   18.4770 C   0  0  0  0  0  0  0  0  0  0  0  0
    8.9892  -14.4829   19.0461 C   0  0  1  0  0  0  0  0  0  0  0  0
    9.3592  -14.4246   20.4675 C   0  0  0  0  0  0  0  0  0  0  0  0
   10.4804  -13.9818   20.8296 O   0  0  0  0  0  0  0  0  0  0  0  0
    8.4979  -14.8542   21.5190 N   0  0  0  0  0  0  0  0  0  0  0  0
    8.9365  -14.8473   22.8993 C   0  0  1  0  0  0  0  0  0  0  0  0
    7.7377  -15.0422   23.7931 C   0  0  0  0  0  0  0  0  0  0  0  0
    8.1968  -15.1538   25.5309 S   0  0  0  0  0  0  0  0  0  0  0  0
    9.8548  -16.0190   23.1200 C   0  0  0  0  0  0  0  0  0  0  0  0
    9.5318  -17.1645   22.7209 O   0  0  0  0  0  0  0  0  0  0  0  0
   11.1010  -15.8626   23.7797 N   0  0  0  0  0  0  0  0  0  0  0  0
   12.0259  -16.9899   23.9845 C   0  0  1  0  0  0  0  0  0  0  0  0
   13.3360  -16.5603   23.4176 C   0  0  0  0  0  0  0  0  0  0  0  0
   14.4586  -17.5310   23.5564 C   0  0  0  0  0  0  0  0  0  0  0  0
   15.6759  -16.8939   23.0101 C   0  0  0  0  0  0  0  0  0  0  0  0
   16.1990  -15.9338   23.6089 O   0  0  0  0  0  0  0  0  0  0  0  0
   12.0716  -17.3768   25.3990 C   0  0  0  0  0  0  0  0  0  0  0  0
   11.4105  -16.6572   26.3972 O   0  0  0  0  0  0  0  0  0  0  0  0
   16.2374  -17.3549   21.8412 O   0  0  0  0  0  0  0  0  0  0  0  0
   12.7221  -18.3890   25.7555 O   0  0  0  0  0  0  0  0  0  0  0  0
  1  2  1  0
  2  3  1  0
  4  3  1  0
  5  4  1  0
  5  6  1  1
  5  1  1  0
  6  7  2  0
  8  9  1  0
  8  6  1  0
  9 12  1  0
  9 10  1  1
 11 10  1  0
 12 13  2  0
 12 14  1  0
 14 15  1  0
 15 16  1  1
 16 17  1  0
 17 18  1  0
 18 22  1  0
 19 18  2  0
 20 21  1  0
 20 15  1  0
 23 20  2  0
M  END
$$$$
