PCE.pdb
     RDKit          3D

 23 23  0  0  1  0  0  0  0  0999 V2000
    5.0933  -18.0730   20.3900 N   0  0  0  0  0  0  0  0  0  0  0  0
    5.5321  -18.0313   19.0318 C   0  0  0  0  0  0  0  0  0  0  0  0
    6.6142  -19.1084   18.8896 C   0  0  0  0  0  0  0  0  0  0  0  0
    6.2082  -20.0374   20.0266 C   0  0  0  0  0  0  0  0  0  0  0  0
    5.9570  -18.9861   21.1135 C   0  0  1  0  0  0  0  0  0  0  0  0
    7.1942  -18.2736   21.4633 C   0  0  0  0  0  0  0  0  0  0  0  0
    8.3074  -18.8608   21.4529 O   0  0  0  0  0  0  0  0  0  0  0  0
    7.2275  -16.8970   21.8318 N   0  0  0  0  0  0  0  0  0  0  0  0
    8.4077  -16.3078   22.4297 C   0  0  1  0  0  0  0  0  0  0  0  0
    8.2119  -14.8158   22.5280 C   0  0  0  0  0  0  0  0  0  0  0  0
    9.6063  -13.9983   23.3220 S   0  0  0  0  0  0  0  0  0  0  0  0
    8.5524  -16.8338   23.8323 C   0  0  0  0  0  0  0  0  0  0  0  0
    7.6108  -16.7199   24.6547 O   0  0  0  0  0  0  0  0  0  0  0  0
    9.7469  -17.4681   24.2603 N   0  0  0  0  0  0  0  0  0  0  0  0
    9.9280  -17.9478   25.6407 C   0  0  1  0  0  0  0  0  0  0  0  0
    9.8919  -19.4365   25.5709 C   0  0  0  0  0  0  0  0  0  0  0  0
   10.1505  -20.1576   26.8496 C   0  0  0  0  0  0  0  0  0  0  0  0
   10.1642  -21.6065   26.5553 C   0  0  0  0  0  0  0  0  0  0  0  0
    9.9612  -22.0083   25.3929 O   0  0  0  0  0  0  0  0  0  0  0  0
   11.1533  -17.3950   26.2286 C   0  0  0  0  0  0  0  0  0  0  0  0
   11.3580  -17.3202   27.6083 O   0  0  0  0  0  0  0  0  0  0  0  0
   10.4005  -22.5180   27.5592 O   0  0  0  0  0  0  0  0  0  0  0  0
   12.0703  -16.9652   25.4875 O   0  0  0  0  0  0  0  0  0  0  0  0
  1  2  1  0
  2  3  1  0
  4  3  1  0
  5  4  1  0
  5  6  1  6
  5  1  1  0
  6  7  2  0
  8  9  1  0
  8  6  1  0
  9 12  1  0
  9 10  1  1
 11 10  1  0
 12 13  2  0
 12 14  1  0
 14 15  1  0
 15 16  1  6
 16 17  1  0
 17 18  1  0
 18 22  1  0
 19 18  2  0
 20 21  1  0
 20 15  1  0
 23 20  2  0
M  END
$$$$
