PCE.pdb
     RDKit          3D

 23 23  0  0  1  0  0  0  0  0999 V2000
    6.8894  -14.8945   20.6657 N   0  0  0  0  0  0  0  0  0  0  0  0
    6.2705  -13.6159   20.5203 C   0  0  0  0  0  0  0  0  0  0  0  0
    7.4048  -12.5997   20.3420 C   0  0  0  0  0  0  0  0  0  0  0  0
    8.4898  -13.5147   19.7887 C   0  0  0  0  0  0  0  0  0  0  0  0
    8.3227  -14.6923   20.7557 C   0  0  1  0  0  0  0  0  0  0  0  0
    8.6490  -14.3012   22.1346 C   0  0  0  0  0  0  0  0  0  0  0  0
    9.8078  -13.9203   22.4452 O   0  0  0  0  0  0  0  0  0  0  0  0
    7.7017  -14.3226   23.1996 N   0  0  0  0  0  0  0  0  0  0  0  0
    8.0830  -13.9689   24.5512 C   0  0  1  0  0  0  0  0  0  0  0  0
    6.9311  -13.2543   25.2120 C   0  0  0  0  0  0  0  0  0  0  0  0
    7.3206  -12.7498   26.8963 S   0  0  0  0  0  0  0  0  0  0  0  0
    8.3316  -15.2328   25.3294 C   0  0  0  0  0  0  0  0  0  0  0  0
    7.3921  -16.0325   25.5609 O   0  0  0  0  0  0  0  0  0  0  0  0
    9.6240  -15.5530   25.8187 N   0  0  0  0  0  0  0  0  0  0  0  0
    9.8842  -16.7693   26.6068 C   0  0  1  0  0  0  0  0  0  0  0  0
   11.1111  -17.3857   26.0261 C   0  0  0  0  0  0  0  0  0  0  0  0
   11.1344  -17.5232   24.5421 C   0  0  0  0  0  0  0  0  0  0  0  0
   12.4066  -18.1783   24.1698 C   0  0  0  0  0  0  0  0  0  0  0  0
   12.8575  -19.1065   24.8691 O   0  0  0  0  0  0  0  0  0  0  0  0
    9.9790  -16.4542   28.0366 C   0  0  0  0  0  0  0  0  0  0  0  0
    9.9854  -17.4409   29.0253 O   0  0  0  0  0  0  0  0  0  0  0  0
   13.0989  -17.7691   23.0528 O   0  0  0  0  0  0  0  0  0  0  0  0
   10.0587  -15.2605   28.4156 O   0  0  0  0  0  0  0  0  0  0  0  0
  1  2  1  0
  2  3  1  0
  4  3  1  0
  5  4  1  0
  5  6  1  1
  5  1  1  0
  6  7  2  0
  8  9  1  0
  8  6  1  0
  9 12  1  0
  9 10  1  1
 11 10  1  0
 12 13  2  0
 12 14  1  0
 14 15  1  0
 15 16  1  6
 16 17  1  0
 17 18  1  0
 18 22  1  0
 19 18  2  0
 20 21  1  0
 20 15  1  0
 23 20  2  0
M  END
$$$$
