PCE.pdb
     RDKit          3D

 23 23  0  0  1  0  0  0  0  0999 V2000
    7.1212  -14.9153   19.5253 N   0  0  0  0  0  0  0  0  0  0  0  0
    6.4512  -13.6670   19.7038 C   0  0  0  0  0  0  0  0  0  0  0  0
    7.5306  -12.5796   19.6415 C   0  0  0  0  0  0  0  0  0  0  0  0
    8.5854  -13.3064   18.8171 C   0  0  0  0  0  0  0  0  0  0  0  0
    8.5494  -14.6634   19.5291 C   0  0  1  0  0  0  0  0  0  0  0  0
    8.9947  -14.5458   20.9251 C   0  0  0  0  0  0  0  0  0  0  0  0
   10.1960  -14.2957   21.2051 O   0  0  0  0  0  0  0  0  0  0  0  0
    8.1218  -14.7018   22.0412 N   0  0  0  0  0  0  0  0  0  0  0  0
    8.6189  -14.6287   23.3995 C   0  0  1  0  0  0  0  0  0  0  0  0
    7.4470  -14.5296   24.3433 C   0  0  0  0  0  0  0  0  0  0  0  0
    7.9612  -14.5451   26.0692 S   0  0  0  0  0  0  0  0  0  0  0  0
    9.3436  -15.9086   23.7181 C   0  0  0  0  0  0  0  0  0  0  0  0
    8.8162  -17.0187   23.4630 O   0  0  0  0  0  0  0  0  0  0  0  0
   10.6325  -15.8960   24.3106 N   0  0  0  0  0  0  0  0  0  0  0  0
   11.3789  -17.1344   24.5889 C   0  0  1  0  0  0  0  0  0  0  0  0
   12.7248  -16.9552   23.9734 C   0  0  0  0  0  0  0  0  0  0  0  0
   13.7015  -18.0574   24.2039 C   0  0  0  0  0  0  0  0  0  0  0  0
   14.9674  -17.6849   23.5371 C   0  0  0  0  0  0  0  0  0  0  0  0
   15.5123  -16.5947   23.7987 O   0  0  0  0  0  0  0  0  0  0  0  0
   11.4002  -17.4185   26.0282 C   0  0  0  0  0  0  0  0  0  0  0  0
   11.7771  -18.6606   26.5441 O   0  0  0  0  0  0  0  0  0  0  0  0
   15.5506  -18.5363   22.6264 O   0  0  0  0  0  0  0  0  0  0  0  0
   11.0721  -16.5300   26.8515 O   0  0  0  0  0  0  0  0  0  0  0  0
  1  2  1  0
  2  3  1  0
  4  3  1  0
  5  4  1  0
  5  6  1  1
  5  1  1  0
  6  7  2  0
  8  9  1  0
  8  6  1  0
  9 12  1  0
  9 10  1  1
 11 10  1  0
 12 13  2  0
 12 14  1  0
 14 15  1  0
 15 16  1  1
 16 17  1  0
 17 18  1  0
 18 22  1  0
 19 18  2  0
 20 21  1  0
 20 15  1  0
 23 20  2  0
M  END
$$$$
