PCE.pdb
     RDKit          3D

 23 23  0  0  1  0  0  0  0  0999 V2000
    7.8610  -15.3229   19.1096 N   0  0  0  0  0  0  0  0  0  0  0  0
    6.9545  -14.2214   19.1711 C   0  0  0  0  0  0  0  0  0  0  0  0
    7.8118  -12.9501   19.1709 C   0  0  0  0  0  0  0  0  0  0  0  0
    9.0637  -13.4802   18.4836 C   0  0  0  0  0  0  0  0  0  0  0  0
    9.2086  -14.8039   19.2430 C   0  0  1  0  0  0  0  0  0  0  0  0
    9.4768  -14.5743   20.6699 C   0  0  0  0  0  0  0  0  0  0  0  0
   10.5925  -14.1416   21.0600 O   0  0  0  0  0  0  0  0  0  0  0  0
    8.5177  -14.8177   21.6959 N   0  0  0  0  0  0  0  0  0  0  0  0
    8.8580  -14.6604   23.0949 C   0  0  1  0  0  0  0  0  0  0  0  0
    7.5869  -14.5108   23.8924 C   0  0  0  0  0  0  0  0  0  0  0  0
    7.9058  -14.3716   25.6594 S   0  0  0  0  0  0  0  0  0  0  0  0
    9.5399  -15.9150   23.5701 C   0  0  0  0  0  0  0  0  0  0  0  0
    9.0266  -17.0396   23.3521 O   0  0  0  0  0  0  0  0  0  0  0  0
   10.7717  -15.8619   24.2717 N   0  0  0  0  0  0  0  0  0  0  0  0
   11.4932  -17.0785   24.6809 C   0  0  1  0  0  0  0  0  0  0  0  0
   12.9445  -16.7476   24.5996 C   0  0  0  0  0  0  0  0  0  0  0  0
   13.7356  -17.5169   23.5975 C   0  0  0  0  0  0  0  0  0  0  0  0
   14.7130  -16.5904   22.9872 C   0  0  0  0  0  0  0  0  0  0  0  0
   14.9278  -16.6308   21.7600 O   0  0  0  0  0  0  0  0  0  0  0  0
   11.0447  -17.5313   26.0025 C   0  0  0  0  0  0  0  0  0  0  0  0
   11.3172  -18.8112   26.4913 O   0  0  0  0  0  0  0  0  0  0  0  0
   15.3897  -15.6805   23.7673 O   0  0  0  0  0  0  0  0  0  0  0  0
   10.3890  -16.7604   26.7445 O   0  0  0  0  0  0  0  0  0  0  0  0
  1  2  1  0
  2  3  1  0
  4  3  1  0
  5  4  1  0
  5  6  1  1
  5  1  1  0
  6  7  2  0
  8  9  1  0
  8  6  1  0
  9 12  1  0
  9 10  1  1
 11 10  1  0
 12 13  2  0
 12 14  1  0
 14 15  1  0
 15 16  1  1
 16 17  1  0
 17 18  1  0
 18 22  1  0
 19 18  2  0
 20 21  1  0
 20 15  1  0
 23 20  2  0
M  END
$$$$
