PCE.pdb
     RDKit          3D

 23 23  0  0  1  0  0  0  0  0999 V2000
    6.8635  -14.9584   20.9347 N   0  0  0  0  0  0  0  0  0  0  0  0
    6.3383  -13.6724   20.6038 C   0  0  0  0  0  0  0  0  0  0  0  0
    7.5434  -12.7408   20.4279 C   0  0  0  0  0  0  0  0  0  0  0  0
    8.6142  -13.7644   20.0725 C   0  0  0  0  0  0  0  0  0  0  0  0
    8.2934  -14.8218   21.1348 C   0  0  1  0  0  0  0  0  0  0  0  0
    8.5233  -14.3032   22.4909 C   0  0  0  0  0  0  0  0  0  0  0  0
    9.6818  -14.0122   22.8877 O   0  0  0  0  0  0  0  0  0  0  0  0
    7.4778  -14.0948   23.4372 N   0  0  0  0  0  0  0  0  0  0  0  0
    7.7556  -13.5805   24.7623 C   0  0  1  0  0  0  0  0  0  0  0  0
    6.4685  -13.0869   25.3738 C   0  0  0  0  0  0  0  0  0  0  0  0
    6.6762  -12.6033   27.0961 S   0  0  0  0  0  0  0  0  0  0  0  0
    8.2565  -14.7088   25.6230 C   0  0  0  0  0  0  0  0  0  0  0  0
    7.5677  -15.7472   25.7749 O   0  0  0  0  0  0  0  0  0  0  0  0
    9.5108  -14.6309   26.2811 N   0  0  0  0  0  0  0  0  0  0  0  0
   10.0202  -15.7223   27.1281 C   0  0  1  0  0  0  0  0  0  0  0  0
   11.1441  -16.3447   26.3719 C   0  0  0  0  0  0  0  0  0  0  0  0
   12.2936  -15.4503   26.0549 C   0  0  0  0  0  0  0  0  0  0  0  0
   13.2377  -16.2119   25.2095 C   0  0  0  0  0  0  0  0  0  0  0  0
   14.4620  -16.1579   25.4381 O   0  0  0  0  0  0  0  0  0  0  0  0
   10.3840  -15.2234   28.4591 C   0  0  0  0  0  0  0  0  0  0  0  0
   10.2588  -13.8794   28.8185 O   0  0  0  0  0  0  0  0  0  0  0  0
   12.7729  -16.9828   24.1684 O   0  0  0  0  0  0  0  0  0  0  0  0
   10.8275  -16.0119   29.3289 O   0  0  0  0  0  0  0  0  0  0  0  0
  1  2  1  0
  2  3  1  0
  4  3  1  0
  5  4  1  0
  5  6  1  1
  5  1  1  0
  6  7  2  0
  8  9  1  0
  8  6  1  0
  9 12  1  0
  9 10  1  1
 11 10  1  0
 12 13  2  0
 12 14  1  0
 14 15  1  0
 15 16  1  6
 16 17  1  0
 17 18  1  0
 18 22  1  0
 19 18  2  0
 20 21  1  0
 20 15  1  0
 23 20  2  0
M  END
$$$$
