PCE.pdb
     RDKit          3D

 23 23  0  0  1  0  0  0  0  0999 V2000
    6.7744  -14.7214   20.5901 N   0  0  0  0  0  0  0  0  0  0  0  0
    6.2704  -13.3954   20.4260 C   0  0  0  0  0  0  0  0  0  0  0  0
    7.4916  -12.4766   20.3013 C   0  0  0  0  0  0  0  0  0  0  0  0
    8.5194  -13.4776   19.7890 C   0  0  0  0  0  0  0  0  0  0  0  0
    8.2144  -14.6392   20.7415 C   0  0  1  0  0  0  0  0  0  0  0  0
    8.5133  -14.2795   22.1350 C   0  0  0  0  0  0  0  0  0  0  0  0
    9.6961  -14.0763   22.5144 O   0  0  0  0  0  0  0  0  0  0  0  0
    7.5114  -14.1367   23.1390 N   0  0  0  0  0  0  0  0  0  0  0  0
    7.8636  -13.8854   24.5211 C   0  0  1  0  0  0  0  0  0  0  0  0
    6.6339  -13.4234   25.2618 C   0  0  0  0  0  0  0  0  0  0  0  0
    6.9400  -13.2161   27.0243 S   0  0  0  0  0  0  0  0  0  0  0  0
    8.3053  -15.1794   25.1499 C   0  0  0  0  0  0  0  0  0  0  0  0
    7.5474  -16.1801   25.1454 O   0  0  0  0  0  0  0  0  0  0  0  0
    9.5800  -15.3032   25.7599 N   0  0  0  0  0  0  0  0  0  0  0  0
   10.0860  -16.5912   26.2631 C   0  0  1  0  0  0  0  0  0  0  0  0
   11.2364  -16.9559   25.3880 C   0  0  0  0  0  0  0  0  0  0  0  0
   11.9399  -18.2255   25.7275 C   0  0  0  0  0  0  0  0  0  0  0  0
   13.0259  -18.4165   24.7426 C   0  0  0  0  0  0  0  0  0  0  0  0
   13.7871  -17.4699   24.4628 O   0  0  0  0  0  0  0  0  0  0  0  0
   10.4111  -16.5021   27.6911 C   0  0  0  0  0  0  0  0  0  0  0  0
   10.5512  -17.6305   28.5024 O   0  0  0  0  0  0  0  0  0  0  0  0
   13.2030  -19.6365   24.1304 O   0  0  0  0  0  0  0  0  0  0  0  0
   10.5755  -15.3816   28.2319 O   0  0  0  0  0  0  0  0  0  0  0  0
  1  2  1  0
  2  3  1  0
  4  3  1  0
  5  4  1  0
  5  6  1  1
  5  1  1  0
  6  7  2  0
  8  9  1  0
  8  6  1  0
  9 12  1  0
  9 10  1  1
 11 10  1  0
 12 13  2  0
 12 14  1  0
 14 15  1  0
 15 16  1  6
 16 17  1  0
 17 18  1  0
 18 22  1  0
 19 18  2  0
 20 21  1  0
 20 15  1  0
 23 20  2  0
M  END
$$$$
