PCE.pdb
     RDKit          3D

 23 23  0  0  1  0  0  0  0  0999 V2000
    6.9343  -15.0026   20.8348 N   0  0  0  0  0  0  0  0  0  0  0  0
    6.3412  -13.7307   20.5713 C   0  0  0  0  0  0  0  0  0  0  0  0
    7.4969  -12.7502   20.3378 C   0  0  0  0  0  0  0  0  0  0  0  0
    8.5777  -13.7243   19.8867 C   0  0  0  0  0  0  0  0  0  0  0  0
    8.3685  -14.8162   20.9421 C   0  0  1  0  0  0  0  0  0  0  0  0
    8.6707  -14.3189   22.2919 C   0  0  0  0  0  0  0  0  0  0  0  0
    9.8371  -13.9679   22.6091 O   0  0  0  0  0  0  0  0  0  0  0  0
    7.6904  -14.1987   23.3198 N   0  0  0  0  0  0  0  0  0  0  0  0
    8.0539  -13.7870   24.6599 C   0  0  1  0  0  0  0  0  0  0  0  0
    6.8745  -13.0933   25.2939 C   0  0  0  0  0  0  0  0  0  0  0  0
    7.2548  -12.4764   26.9426 S   0  0  0  0  0  0  0  0  0  0  0  0
    8.3452  -15.0147   25.4800 C   0  0  0  0  0  0  0  0  0  0  0  0
    7.4506  -15.8719   25.6820 O   0  0  0  0  0  0  0  0  0  0  0  0
    9.6285  -15.2357   26.0429 N   0  0  0  0  0  0  0  0  0  0  0  0
    9.9268  -16.4135   26.8747 C   0  0  1  0  0  0  0  0  0  0  0  0
   11.1286  -17.0555   26.2697 C   0  0  0  0  0  0  0  0  0  0  0  0
   10.9993  -17.4733   24.8447 C   0  0  0  0  0  0  0  0  0  0  0  0
   12.2835  -18.0804   24.4345 C   0  0  0  0  0  0  0  0  0  0  0  0
   13.2146  -18.1841   25.2569 O   0  0  0  0  0  0  0  0  0  0  0  0
   10.0840  -16.0315   28.2826 C   0  0  0  0  0  0  0  0  0  0  0  0
   10.2500  -16.9712   29.3028 O   0  0  0  0  0  0  0  0  0  0  0  0
   12.4588  -18.5335   23.1468 O   0  0  0  0  0  0  0  0  0  0  0  0
   10.0729  -14.8209   28.6128 O   0  0  0  0  0  0  0  0  0  0  0  0
  1  2  1  0
  2  3  1  0
  4  3  1  0
  5  4  1  0
  5  6  1  1
  5  1  1  0
  6  7  2  0
  8  9  1  0
  8  6  1  0
  9 12  1  0
  9 10  1  1
 11 10  1  0
 12 13  2  0
 12 14  1  0
 14 15  1  0
 15 16  1  6
 16 17  1  0
 17 18  1  0
 18 22  1  0
 19 18  2  0
 20 21  1  0
 20 15  1  0
 23 20  2  0
M  END
$$$$
