PCE.pdb
     RDKit          3D

 23 23  0  0  1  0  0  0  0  0999 V2000
    7.0805  -15.1921   21.0990 N   0  0  0  0  0  0  0  0  0  0  0  0
    6.3611  -13.9805   20.8675 C   0  0  0  0  0  0  0  0  0  0  0  0
    7.4005  -12.9244   20.4728 C   0  0  0  0  0  0  0  0  0  0  0  0
    8.4985  -13.8298   19.9296 C   0  0  0  0  0  0  0  0  0  0  0  0
    8.4980  -14.8923   21.0344 C   0  0  1  0  0  0  0  0  0  0  0  0
    8.9093  -14.3210   22.3248 C   0  0  0  0  0  0  0  0  0  0  0  0
   10.0434  -13.7948   22.4707 O   0  0  0  0  0  0  0  0  0  0  0  0
    8.0761  -14.3188   23.4814 N   0  0  0  0  0  0  0  0  0  0  0  0
    8.5646  -13.8407   24.7582 C   0  0  1  0  0  0  0  0  0  0  0  0
    7.4141  -13.2424   25.5279 C   0  0  0  0  0  0  0  0  0  0  0  0
    7.9290  -12.6003   27.1297 S   0  0  0  0  0  0  0  0  0  0  0  0
    9.0719  -15.0147   25.5515 C   0  0  0  0  0  0  0  0  0  0  0  0
    8.3310  -16.0050   25.7665 O   0  0  0  0  0  0  0  0  0  0  0  0
   10.3906  -15.0346   26.0740 N   0  0  0  0  0  0  0  0  0  0  0  0
   10.8787  -16.1310   26.9272 C   0  0  1  0  0  0  0  0  0  0  0  0
   12.2997  -16.3587   26.5381 C   0  0  0  0  0  0  0  0  0  0  0  0
   12.5338  -16.7590   25.1215 C   0  0  0  0  0  0  0  0  0  0  0  0
   13.9944  -16.8662   24.9187 C   0  0  0  0  0  0  0  0  0  0  0  0
   14.7755  -16.2704   25.6860 O   0  0  0  0  0  0  0  0  0  0  0  0
   10.6786  -15.8164   28.3463 C   0  0  0  0  0  0  0  0  0  0  0  0
   10.8929  -16.7516   29.3614 O   0  0  0  0  0  0  0  0  0  0  0  0
   14.4996  -17.6221   23.8853 O   0  0  0  0  0  0  0  0  0  0  0  0
   10.3005  -14.6705   28.6912 O   0  0  0  0  0  0  0  0  0  0  0  0
  1  2  1  0
  2  3  1  0
  4  3  1  0
  5  4  1  0
  5  6  1  1
  5  1  1  0
  6  7  2  0
  8  9  1  0
  8  6  1  0
  9 12  1  0
  9 10  1  1
 11 10  1  0
 12 13  2  0
 12 14  1  0
 14 15  1  0
 15 16  1  1
 16 17  1  0
 17 18  1  0
 18 22  1  0
 19 18  2  0
 20 21  1  0
 20 15  1  0
 23 20  2  0
M  END
$$$$
