PCE.pdb
     RDKit          3D

 23 23  0  0  1  0  0  0  0  0999 V2000
    6.8959  -14.8865   20.7139 N   0  0  0  0  0  0  0  0  0  0  0  0
    6.2232  -13.6519   20.4643 C   0  0  0  0  0  0  0  0  0  0  0  0
    7.3120  -12.6147   20.1639 C   0  0  0  0  0  0  0  0  0  0  0  0
    8.4212  -13.5361   19.6728 C   0  0  0  0  0  0  0  0  0  0  0  0
    8.3214  -14.6223   20.7498 C   0  0  1  0  0  0  0  0  0  0  0  0
    8.6601  -14.0902   22.0776 C   0  0  0  0  0  0  0  0  0  0  0  0
    9.8426  -13.7709   22.3675 O   0  0  0  0  0  0  0  0  0  0  0  0
    7.6992  -13.8996   23.1131 N   0  0  0  0  0  0  0  0  0  0  0  0
    8.1071  -13.6082   24.4719 C   0  0  1  0  0  0  0  0  0  0  0  0
    6.8879  -13.2384   25.2786 C   0  0  0  0  0  0  0  0  0  0  0  0
    7.2926  -12.8816   26.9968 S   0  0  0  0  0  0  0  0  0  0  0  0
    8.6852  -14.8571   25.0810 C   0  0  0  0  0  0  0  0  0  0  0  0
    7.9983  -15.9051   25.1559 O   0  0  0  0  0  0  0  0  0  0  0  0
   10.0117  -14.8844   25.5830 N   0  0  0  0  0  0  0  0  0  0  0  0
   10.6294  -16.1181   26.0975 C   0  0  1  0  0  0  0  0  0  0  0  0
   11.9998  -16.1711   25.5132 C   0  0  0  0  0  0  0  0  0  0  0  0
   12.8553  -17.3093   25.9542 C   0  0  0  0  0  0  0  0  0  0  0  0
   14.1910  -17.1319   25.3454 C   0  0  0  0  0  0  0  0  0  0  0  0
   14.3191  -16.4444   24.3134 O   0  0  0  0  0  0  0  0  0  0  0  0
   10.5907  -16.1487   27.5639 C   0  0  0  0  0  0  0  0  0  0  0  0
   10.8125  -17.3163   28.2978 O   0  0  0  0  0  0  0  0  0  0  0  0
   15.2976  -17.7223   25.9119 O   0  0  0  0  0  0  0  0  0  0  0  0
   10.3514  -15.1002   28.2106 O   0  0  0  0  0  0  0  0  0  0  0  0
  1  2  1  0
  2  3  1  0
  4  3  1  0
  5  4  1  0
  5  6  1  1
  5  1  1  0
  6  7  2  0
  8  9  1  0
  8  6  1  0
  9 12  1  0
  9 10  1  1
 11 10  1  0
 12 13  2  0
 12 14  1  0
 14 15  1  0
 15 16  1  1
 16 17  1  0
 17 18  1  0
 18 22  1  0
 19 18  2  0
 20 21  1  0
 20 15  1  0
 23 20  2  0
M  END
$$$$
