PCE.pdb
     RDKit          3D

 23 23  0  0  1  0  0  0  0  0999 V2000
    7.6343  -14.3294   18.7064 N   0  0  0  0  0  0  0  0  0  0  0  0
    6.5888  -13.9852   19.6161 C   0  0  0  0  0  0  0  0  0  0  0  0
    7.2466  -13.2095   20.7637 C   0  0  0  0  0  0  0  0  0  0  0  0
    8.4810  -12.6790   20.0456 C   0  0  0  0  0  0  0  0  0  0  0  0
    8.8983  -13.9597   19.3138 C   0  0  1  0  0  0  0  0  0  0  0  0
    9.2824  -15.0153   20.2619 C   0  0  0  0  0  0  0  0  0  0  0  0
    8.4891  -15.4035   21.1586 O   0  0  0  0  0  0  0  0  0  0  0  0
   10.5513  -15.6644   20.2389 N   0  0  0  0  0  0  0  0  0  0  0  0
   10.8758  -16.7128   21.1840 C   0  0  1  0  0  0  0  0  0  0  0  0
   11.5080  -17.8620   20.4398 C   0  0  0  0  0  0  0  0  0  0  0  0
   11.8512  -19.2631   21.5179 S   0  0  0  0  0  0  0  0  0  0  0  0
   11.9008  -16.1890   22.1533 C   0  0  0  0  0  0  0  0  0  0  0  0
   12.6277  -15.2131   21.8449 O   0  0  0  0  0  0  0  0  0  0  0  0
   12.0726  -16.7785   23.4321 N   0  0  0  0  0  0  0  0  0  0  0  0
   13.1216  -16.3343   24.3651 C   0  0  1  0  0  0  0  0  0  0  0  0
   12.7708  -16.9165   25.6919 C   0  0  0  0  0  0  0  0  0  0  0  0
   11.5403  -16.3776   26.3379 C   0  0  0  0  0  0  0  0  0  0  0  0
   11.3688  -17.0726   27.6316 C   0  0  0  0  0  0  0  0  0  0  0  0
   12.1896  -17.9414   27.9859 O   0  0  0  0  0  0  0  0  0  0  0  0
   14.4518  -16.7054   23.8695 C   0  0  0  0  0  0  0  0  0  0  0  0
   15.6115  -16.0233   24.2450 O   0  0  0  0  0  0  0  0  0  0  0  0
   10.3059  -16.7660   28.4504 O   0  0  0  0  0  0  0  0  0  0  0  0
   14.5833  -17.6689   23.0762 O   0  0  0  0  0  0  0  0  0  0  0  0
  1  2  1  0
  2  3  1  0
  4  3  1  0
  5  4  1  0
  5  6  1  1
  5  1  1  0
  6  7  2  0
  8  9  1  0
  8  6  1  0
  9 12  1  0
  9 10  1  6
 11 10  1  0
 12 13  2  0
 12 14  1  0
 14 15  1  0
 15 16  1  1
 16 17  1  0
 17 18  1  0
 18 22  1  0
 19 18  2  0
 20 21  1  0
 20 15  1  0
 23 20  2  0
M  END
$$$$
