PCE.pdb
     RDKit          3D

 23 23  0  0  1  0  0  0  0  0999 V2000
    6.9384  -15.2166   20.8095 N   0  0  0  0  0  0  0  0  0  0  0  0
    6.2405  -13.9829   20.6357 C   0  0  0  0  0  0  0  0  0  0  0  0
    7.2942  -12.9350   20.2576 C   0  0  0  0  0  0  0  0  0  0  0  0
    8.3618  -13.8428   19.6604 C   0  0  0  0  0  0  0  0  0  0  0  0
    8.3604  -14.9440   20.7268 C   0  0  1  0  0  0  0  0  0  0  0  0
    8.8090  -14.4278   22.0279 C   0  0  0  0  0  0  0  0  0  0  0  0
    9.9788  -13.9907   22.1854 O   0  0  0  0  0  0  0  0  0  0  0  0
    7.9743  -14.3835   23.1827 N   0  0  0  0  0  0  0  0  0  0  0  0
    8.4935  -13.9677   24.4692 C   0  0  1  0  0  0  0  0  0  0  0  0
    7.3383  -13.5982   25.3652 C   0  0  0  0  0  0  0  0  0  0  0  0
    7.8831  -13.1183   27.0133 S   0  0  0  0  0  0  0  0  0  0  0  0
    9.1984  -15.1351   25.1057 C   0  0  0  0  0  0  0  0  0  0  0  0
    8.5814  -16.2048   25.3310 O   0  0  0  0  0  0  0  0  0  0  0  0
   10.5685  -15.0597   25.4655 N   0  0  0  0  0  0  0  0  0  0  0  0
   11.2935  -16.2082   26.0343 C   0  0  1  0  0  0  0  0  0  0  0  0
   12.6884  -16.1163   25.5166 C   0  0  0  0  0  0  0  0  0  0  0  0
   13.6411  -17.1478   26.0171 C   0  0  0  0  0  0  0  0  0  0  0  0
   14.9634  -16.8694   25.4169 C   0  0  0  0  0  0  0  0  0  0  0  0
   15.1485  -17.0637   24.1996 O   0  0  0  0  0  0  0  0  0  0  0  0
   11.1863  -16.2200   27.4976 C   0  0  0  0  0  0  0  0  0  0  0  0
   11.3606  -17.3806   28.2550 O   0  0  0  0  0  0  0  0  0  0  0  0
   15.9947  -16.3956   26.1955 O   0  0  0  0  0  0  0  0  0  0  0  0
   10.9290  -15.1610   28.1198 O   0  0  0  0  0  0  0  0  0  0  0  0
  1  2  1  0
  2  3  1  0
  4  3  1  0
  5  4  1  0
  5  6  1  1
  5  1  1  0
  6  7  2  0
  8  9  1  0
  8  6  1  0
  9 12  1  0
  9 10  1  1
 11 10  1  0
 12 13  2  0
 12 14  1  0
 14 15  1  0
 15 16  1  1
 16 17  1  0
 17 18  1  0
 18 22  1  0
 19 18  2  0
 20 21  1  0
 20 15  1  0
 23 20  2  0
M  END
$$$$
