PCE.pdb
     RDKit          3D

 23 23  0  0  1  0  0  0  0  0999 V2000
    6.3530  -14.4555   20.9162 N   0  0  0  0  0  0  0  0  0  0  0  0
    6.1282  -13.0551   20.7507 C   0  0  0  0  0  0  0  0  0  0  0  0
    7.4532  -12.4548   20.2654 C   0  0  0  0  0  0  0  0  0  0  0  0
    8.0789  -13.6876   19.6255 C   0  0  0  0  0  0  0  0  0  0  0  0
    7.7681  -14.7091   20.7253 C   0  0  1  0  0  0  0  0  0  0  0  0
    8.4698  -14.3792   21.9742 C   0  0  0  0  0  0  0  0  0  0  0  0
    9.7197  -14.2333   21.9983 O   0  0  0  0  0  0  0  0  0  0  0  0
    7.8050  -14.2034   23.2229 N   0  0  0  0  0  0  0  0  0  0  0  0
    8.5464  -14.1323   24.4650 C   0  0  1  0  0  0  0  0  0  0  0  0
    7.6668  -13.5161   25.5236 C   0  0  0  0  0  0  0  0  0  0  0  0
    6.1137  -14.4064   25.7193 S   0  0  0  0  0  0  0  0  0  0  0  0
    8.8734  -15.5312   24.9131 C   0  0  0  0  0  0  0  0  0  0  0  0
    8.0147  -16.4431   24.8294 O   0  0  0  0  0  0  0  0  0  0  0  0
   10.1508  -15.8557   25.4379 N   0  0  0  0  0  0  0  0  0  0  0  0
   10.4928  -17.2176   25.8812 C   0  0  1  0  0  0  0  0  0  0  0  0
   11.8414  -17.5112   25.3177 C   0  0  0  0  0  0  0  0  0  0  0  0
   11.9070  -17.6947   23.8399 C   0  0  0  0  0  0  0  0  0  0  0  0
   13.3175  -17.9533   23.4798 C   0  0  0  0  0  0  0  0  0  0  0  0
   14.1103  -17.0012   23.3429 O   0  0  0  0  0  0  0  0  0  0  0  0
   10.4055  -17.3282   27.3416 C   0  0  0  0  0  0  0  0  0  0  0  0
   10.5277  -18.5476   28.0121 O   0  0  0  0  0  0  0  0  0  0  0  0
   13.7629  -19.2423   23.2941 O   0  0  0  0  0  0  0  0  0  0  0  0
   10.2142  -16.3043   28.0416 O   0  0  0  0  0  0  0  0  0  0  0  0
  1  2  1  0
  2  3  1  0
  4  3  1  0
  5  4  1  0
  5  6  1  1
  5  1  1  0
  6  7  2  0
  8  9  1  0
  8  6  1  0
  9 12  1  0
  9 10  1  1
 11 10  1  0
 12 13  2  0
 12 14  1  0
 14 15  1  0
 15 16  1  1
 16 17  1  0
 17 18  1  0
 18 22  1  0
 19 18  2  0
 20 21  1  0
 20 15  1  0
 23 20  2  0
M  END
$$$$
