PCE.pdb
     RDKit          3D

 23 23  0  0  1  0  0  0  0  0999 V2000
    6.8178  -14.9860   19.8994 N   0  0  0  0  0  0  0  0  0  0  0  0
    6.1682  -13.7145   19.9158 C   0  0  0  0  0  0  0  0  0  0  0  0
    7.2650  -12.6614   19.7177 C   0  0  0  0  0  0  0  0  0  0  0  0
    8.3079  -13.5043   18.9948 C   0  0  0  0  0  0  0  0  0  0  0  0
    8.2499  -14.7586   19.8740 C   0  0  1  0  0  0  0  0  0  0  0  0
    8.6971  -14.4711   21.2445 C   0  0  0  0  0  0  0  0  0  0  0  0
    9.8899  -14.1490   21.4848 O   0  0  0  0  0  0  0  0  0  0  0  0
    7.8356  -14.5333   22.3784 N   0  0  0  0  0  0  0  0  0  0  0  0
    8.3424  -14.3251   23.7191 C   0  0  1  0  0  0  0  0  0  0  0  0
    7.1796  -14.0823   24.6481 C   0  0  0  0  0  0  0  0  0  0  0  0
    7.7023  -13.9248   26.3642 S   0  0  0  0  0  0  0  0  0  0  0  0
    9.0267  -15.5845   24.1778 C   0  0  0  0  0  0  0  0  0  0  0  0
    8.4172  -16.6818   24.1612 O   0  0  0  0  0  0  0  0  0  0  0  0
   10.3686  -15.5667   24.6376 N   0  0  0  0  0  0  0  0  0  0  0  0
   11.0930  -16.7998   24.9883 C   0  0  1  0  0  0  0  0  0  0  0  0
   12.4856  -16.6199   24.4878 C   0  0  0  0  0  0  0  0  0  0  0  0
   13.4662  -17.6673   24.8917 C   0  0  0  0  0  0  0  0  0  0  0  0
   14.7975  -17.2521   24.4003 C   0  0  0  0  0  0  0  0  0  0  0  0
   15.5782  -16.6415   25.1563 O   0  0  0  0  0  0  0  0  0  0  0  0
   10.9930  -17.0725   26.4265 C   0  0  0  0  0  0  0  0  0  0  0  0
   11.2650  -18.3282   26.9746 O   0  0  0  0  0  0  0  0  0  0  0  0
   15.1822  -17.5362   23.1097 O   0  0  0  0  0  0  0  0  0  0  0  0
   10.6521  -16.1612   27.2192 O   0  0  0  0  0  0  0  0  0  0  0  0
  1  2  1  0
  2  3  1  0
  4  3  1  0
  5  4  1  0
  5  6  1  1
  5  1  1  0
  6  7  2  0
  8  9  1  0
  8  6  1  0
  9 12  1  0
  9 10  1  1
 11 10  1  0
 12 13  2  0
 12 14  1  0
 14 15  1  0
 15 16  1  1
 16 17  1  0
 17 18  1  0
 18 22  1  0
 19 18  2  0
 20 21  1  0
 20 15  1  0
 23 20  2  0
M  END
$$$$
