PCE.pdb
     RDKit          3D

 23 23  0  0  1  0  0  0  0  0999 V2000
    8.7643  -14.5671   18.6081 N   0  0  0  0  0  0  0  0  0  0  0  0
    7.4141  -14.1693   18.3675 C   0  0  0  0  0  0  0  0  0  0  0  0
    7.2023  -12.8580   19.1337 C   0  0  0  0  0  0  0  0  0  0  0  0
    8.6408  -12.3613   19.2027 C   0  0  0  0  0  0  0  0  0  0  0  0
    9.3257  -13.6731   19.6025 C   0  0  1  0  0  0  0  0  0  0  0  0
    8.8843  -14.1226   20.9306 C   0  0  0  0  0  0  0  0  0  0  0  0
    9.0487  -13.4011   21.9487 O   0  0  0  0  0  0  0  0  0  0  0  0
    8.2518  -15.3790   21.1617 N   0  0  0  0  0  0  0  0  0  0  0  0
    7.9346  -15.8249   22.5027 C   0  0  1  0  0  0  0  0  0  0  0  0
    7.0884  -17.0700   22.4155 C   0  0  0  0  0  0  0  0  0  0  0  0
    8.0287  -18.4912   21.8330 S   0  0  0  0  0  0  0  0  0  0  0  0
    9.2132  -16.2004   23.2019 C   0  0  0  0  0  0  0  0  0  0  0  0
   10.2616  -16.4070   22.5430 O   0  0  0  0  0  0  0  0  0  0  0  0
    9.2689  -16.3300   24.6135 N   0  0  0  0  0  0  0  0  0  0  0  0
   10.4912  -16.7595   25.3132 C   0  0  1  0  0  0  0  0  0  0  0  0
   10.3420  -16.3067   26.7256 C   0  0  0  0  0  0  0  0  0  0  0  0
   11.4030  -16.7549   27.6718 C   0  0  0  0  0  0  0  0  0  0  0  0
   11.1106  -16.1582   28.9926 C   0  0  0  0  0  0  0  0  0  0  0  0
   10.0949  -15.4522   29.1465 O   0  0  0  0  0  0  0  0  0  0  0  0
   10.7029  -18.2028   25.1553 C   0  0  0  0  0  0  0  0  0  0  0  0
   11.9744  -18.7812   25.1586 O   0  0  0  0  0  0  0  0  0  0  0  0
   11.9548  -16.3778   30.0573 O   0  0  0  0  0  0  0  0  0  0  0  0
    9.7221  -18.9721   25.0099 O   0  0  0  0  0  0  0  0  0  0  0  0
  1  2  1  0
  2  3  1  0
  4  3  1  0
  5  4  1  0
  5  6  1  1
  5  1  1  0
  6  7  2  0
  8  9  1  0
  8  6  1  0
  9 12  1  0
  9 10  1  6
 11 10  1  0
 12 13  2  0
 12 14  1  0
 14 15  1  0
 15 16  1  1
 16 17  1  0
 17 18  1  0
 18 22  1  0
 19 18  2  0
 20 21  1  0
 20 15  1  0
 23 20  2  0
M  END
$$$$
