PCE.pdb
     RDKit          3D

 23 23  0  0  1  0  0  0  0  0999 V2000
    7.4904  -15.0624   19.3960 N   0  0  0  0  0  0  0  0  0  0  0  0
    6.7368  -13.8619   19.5692 C   0  0  0  0  0  0  0  0  0  0  0  0
    7.7526  -12.7156   19.6418 C   0  0  0  0  0  0  0  0  0  0  0  0
    8.9111  -13.3454   18.8789 C   0  0  0  0  0  0  0  0  0  0  0  0
    8.8966  -14.7334   19.5292 C   0  0  1  0  0  0  0  0  0  0  0  0
    9.2200  -14.6556   20.9610 C   0  0  0  0  0  0  0  0  0  0  0  0
   10.3833  -14.3738   21.3501 O   0  0  0  0  0  0  0  0  0  0  0  0
    8.2646  -14.8875   21.9932 N   0  0  0  0  0  0  0  0  0  0  0  0
    8.6586  -14.9269   23.3863 C   0  0  1  0  0  0  0  0  0  0  0  0
    7.4236  -14.8249   24.2457 C   0  0  0  0  0  0  0  0  0  0  0  0
    7.8134  -14.8699   26.0034 S   0  0  0  0  0  0  0  0  0  0  0  0
    9.2934  -16.2613   23.6711 C   0  0  0  0  0  0  0  0  0  0  0  0
    8.8904  -17.2956   23.0849 O   0  0  0  0  0  0  0  0  0  0  0  0
   10.3564  -16.3863   24.6022 N   0  0  0  0  0  0  0  0  0  0  0  0
   11.1099  -17.6406   24.7672 C   0  0  1  0  0  0  0  0  0  0  0  0
   12.2161  -17.5948   23.7689 C   0  0  0  0  0  0  0  0  0  0  0  0
   13.1630  -18.7458   23.7887 C   0  0  0  0  0  0  0  0  0  0  0  0
   14.1657  -18.5231   22.7251 C   0  0  0  0  0  0  0  0  0  0  0  0
   15.1762  -17.8308   22.9563 O   0  0  0  0  0  0  0  0  0  0  0  0
   11.5500  -17.8058   26.1571 C   0  0  0  0  0  0  0  0  0  0  0  0
   12.0641  -19.0094   26.6451 O   0  0  0  0  0  0  0  0  0  0  0  0
   13.9907  -19.0769   21.4773 O   0  0  0  0  0  0  0  0  0  0  0  0
   11.4734  -16.8456   26.9614 O   0  0  0  0  0  0  0  0  0  0  0  0
  1  2  1  0
  2  3  1  0
  4  3  1  0
  5  4  1  0
  5  6  1  1
  5  1  1  0
  6  7  2  0
  8  9  1  0
  8  6  1  0
  9 12  1  0
  9 10  1  1
 11 10  1  0
 12 13  2  0
 12 14  1  0
 14 15  1  0
 15 16  1  6
 16 17  1  0
 17 18  1  0
 18 22  1  0
 19 18  2  0
 20 21  1  0
 20 15  1  0
 23 20  2  0
M  END
$$$$
