YKS.pdb
     RDKit          3D

 28 28  0  0  1  0  0  0  0  0999 V2000
    5.7789  -10.5611   28.1003 O   0  0  0  0  0  0  0  0  0  0  0  0
    6.2894  -11.5335   27.2377 C   0  0  0  0  0  0  0  0  0  0  0  0
    7.4438  -12.1600   27.6283 C   0  0  0  0  0  0  0  0  0  0  0  0
    7.9974  -13.1208   26.8326 C   0  0  0  0  0  0  0  0  0  0  0  0
    7.3722  -13.4446   25.6340 C   0  0  0  0  0  0  0  0  0  0  0  0
    8.0126  -14.4720   24.8009 C   0  0  0  0  0  0  0  0  0  0  0  0
    7.1035  -15.6620   24.6517 C   0  0  2  0  0  0  0  0  0  0  0  0
    7.0191  -16.2522   26.0037 N   0  0  0  0  0  0  0  0  0  0  0  0
    7.6969  -16.6167   23.7062 C   0  0  0  0  0  0  0  0  0  0  0  0
    8.6010  -17.4229   24.0404 O   0  0  0  0  0  0  0  0  0  0  0  0
    6.2115  -12.8268   25.2230 C   0  0  0  0  0  0  0  0  0  0  0  0
    5.6710  -11.8548   26.0506 C   0  0  0  0  0  0  0  0  0  0  0  0
    7.2914  -16.7025   22.3316 N   0  0  0  0  0  0  0  0  0  0  0  0
    7.9828  -17.5275   21.3636 C   0  0  1  0  0  0  0  0  0  0  0  0
    7.1072  -17.5872   20.1124 C   0  0  0  0  0  0  0  0  0  0  0  0
    6.5540  -18.9633   19.8945 C   0  0  0  0  0  0  0  0  0  0  0  0
    5.7185  -18.9248   18.6244 C   0  0  0  0  0  0  0  0  0  0  0  0
    5.1204  -20.2955   18.3373 C   0  0  0  0  0  0  0  0  0  0  0  0
    4.3829  -20.2259   17.0934 N   0  0  0  0  0  0  0  0  0  0  0  0
    9.2865  -16.9003   21.0304 C   0  0  0  0  0  0  0  0  0  0  0  0
    9.5037  -15.6613   21.1979 O   0  0  0  0  0  0  0  0  0  0  0  0
   13.1176  -17.8357   22.8650 O   0  0  0  0  0  0  0  0  0  0  0  0
   11.7961  -17.8970   22.4767 C   0  0  0  0  0  0  0  0  0  0  0  0
   11.6779  -17.5594   21.0143 C   0  0  2  0  0  0  0  0  0  0  0  0
   10.3482  -17.6703   20.5073 N   0  0  0  0  0  0  0  0  0  0  0  0
   12.6512  -18.3997   20.2505 C   0  0  0  0  0  0  0  0  0  0  0  0
   13.8786  -17.8118   19.9750 O   0  0  0  0  0  0  0  0  0  0  0  0
   12.4048  -19.5605   19.8706 O   0  0  0  0  0  0  0  0  0  0  0  0
  2  1  1  0
  3  2  2  0
  4  3  1  0
  5 11  1  0
  5  4  2  0
  6  5  1  0
  7  6  1  0
  7  8  1  1
  9  7  1  0
  9 10  2  0
 11 12  2  0
 12  2  1  0
 13  9  1  0
 14 13  1  0
 14 15  1  6
 16 15  1  0
 16 17  1  0
 18 17  1  0
 19 18  1  0
 20 14  1  0
 21 20  2  0
 23 22  1  0
 24 23  1  1
 24 25  1  0
 25 20  1  0
 26 24  1  0
 27 26  1  0
 28 26  2  0
M  END
$$$$
