YKS.pdb
     RDKit          3D

 28 28  0  0  1  0  0  0  0  0999 V2000
    5.2820  -10.2389   27.5435 O   0  0  0  0  0  0  0  0  0  0  0  0
    5.9635  -11.3729   27.0965 C   0  0  0  0  0  0  0  0  0  0  0  0
    6.0726  -11.5323   25.7399 C   0  0  0  0  0  0  0  0  0  0  0  0
    6.7262  -12.6186   25.2344 C   0  0  0  0  0  0  0  0  0  0  0  0
    7.2710  -13.5463   26.1147 C   0  0  0  0  0  0  0  0  0  0  0  0
    7.9504  -14.7090   25.5265 C   0  0  0  0  0  0  0  0  0  0  0  0
    6.9692  -15.5496   24.7547 C   0  0  2  0  0  0  0  0  0  0  0  0
    6.7819  -16.7671   25.5710 N   0  0  0  0  0  0  0  0  0  0  0  0
    7.5383  -15.8878   23.4435 C   0  0  0  0  0  0  0  0  0  0  0  0
    7.9677  -17.0370   23.1712 O   0  0  0  0  0  0  0  0  0  0  0  0
    7.1723  -13.4048   27.4815 C   0  0  0  0  0  0  0  0  0  0  0  0
    6.5032  -12.2921   27.9676 C   0  0  0  0  0  0  0  0  0  0  0  0
    7.6476  -14.9351   22.3751 N   0  0  0  0  0  0  0  0  0  0  0  0
    8.1383  -15.2896   21.0600 C   0  0  1  0  0  0  0  0  0  0  0  0
    8.1520  -14.0112   20.2225 C   0  0  0  0  0  0  0  0  0  0  0  0
    9.0048  -14.1652   18.9993 C   0  0  0  0  0  0  0  0  0  0  0  0
    8.0979  -14.0173   17.7876 C   0  0  0  0  0  0  0  0  0  0  0  0
    8.8875  -14.2223   16.5017 C   0  0  0  0  0  0  0  0  0  0  0  0
    7.9681  -14.1824   15.3841 N   0  0  0  0  0  0  0  0  0  0  0  0
    9.5191  -15.8212   21.1812 C   0  0  0  0  0  0  0  0  0  0  0  0
   10.3855  -15.2873   21.9393 O   0  0  0  0  0  0  0  0  0  0  0  0
   10.5131  -19.5959   19.9029 O   0  0  0  0  0  0  0  0  0  0  0  0
   11.3731  -18.9174   20.7401 C   0  0  0  0  0  0  0  0  0  0  0  0
   11.2688  -17.4369   20.4875 C   0  0  2  0  0  0  0  0  0  0  0  0
    9.9253  -16.9568   20.4469 N   0  0  0  0  0  0  0  0  0  0  0  0
   12.0285  -17.1110   19.2411 C   0  0  0  0  0  0  0  0  0  0  0  0
   13.3641  -17.4906   19.2249 O   0  0  0  0  0  0  0  0  0  0  0  0
   11.5216  -16.5343   18.2598 O   0  0  0  0  0  0  0  0  0  0  0  0
  2  1  1  0
  3  2  2  0
  4  3  1  0
  5 11  1  0
  5  4  2  0
  6  5  1  0
  7  6  1  0
  7  8  1  1
  9  7  1  0
  9 10  2  0
 11 12  2  0
 12  2  1  0
 13  9  1  0
 14 13  1  0
 14 15  1  6
 16 15  1  0
 16 17  1  0
 18 17  1  0
 19 18  1  0
 20 14  1  0
 21 20  2  0
 23 22  1  0
 24 23  1  6
 24 25  1  0
 25 20  1  0
 26 24  1  0
 27 26  1  0
 28 26  2  0
M  END
$$$$
