YKS.pdb
     RDKit          3D

 28 28  0  0  1  0  0  0  0  0999 V2000
    8.8650  -11.9513   18.0417 O   0  0  0  0  0  0  0  0  0  0  0  0
    8.4449  -12.6257   19.1901 C   0  0  0  0  0  0  0  0  0  0  0  0
    9.3882  -13.3709   19.8479 C   0  0  0  0  0  0  0  0  0  0  0  0
    9.0457  -14.0557   20.9777 C   0  0  0  0  0  0  0  0  0  0  0  0
    7.7365  -13.9810   21.4393 C   0  0  0  0  0  0  0  0  0  0  0  0
    7.4082  -14.7482   22.6488 C   0  0  0  0  0  0  0  0  0  0  0  0
    7.2788  -16.2107   22.3184 C   0  0  2  0  0  0  0  0  0  0  0  0
    5.9827  -16.3329   21.6194 N   0  0  0  0  0  0  0  0  0  0  0  0
    7.2734  -16.9953   23.5601 C   0  0  0  0  0  0  0  0  0  0  0  0
    6.4046  -16.8366   24.4540 O   0  0  0  0  0  0  0  0  0  0  0  0
    6.7732  -13.2380   20.7929 C   0  0  0  0  0  0  0  0  0  0  0  0
    7.1487  -12.5524   19.6479 C   0  0  0  0  0  0  0  0  0  0  0  0
    8.2569  -18.0009   23.8479 N   0  0  0  0  0  0  0  0  0  0  0  0
    8.2288  -18.7973   25.0565 C   0  0  1  0  0  0  0  0  0  0  0  0
    8.1387  -20.2624   24.6309 C   0  0  0  0  0  0  0  0  0  0  0  0
    6.8945  -20.5285   23.8384 C   0  0  0  0  0  0  0  0  0  0  0  0
    6.8547  -22.0182   23.5354 C   0  0  0  0  0  0  0  0  0  0  0  0
    5.5972  -22.3703   22.7521 C   0  0  0  0  0  0  0  0  0  0  0  0
    5.6184  -23.7876   22.4576 N   0  0  0  0  0  0  0  0  0  0  0  0
    9.4843  -18.5751   25.8168 C   0  0  0  0  0  0  0  0  0  0  0  0
   10.5632  -18.2183   25.2519 O   0  0  0  0  0  0  0  0  0  0  0  0
    9.5022  -18.1075   29.8346 O   0  0  0  0  0  0  0  0  0  0  0  0
   10.7117  -17.9246   29.1987 C   0  0  0  0  0  0  0  0  0  0  0  0
   10.7558  -18.7489   27.9397 C   0  0  2  0  0  0  0  0  0  0  0  0
    9.5251  -18.7552   27.2167 N   0  0  0  0  0  0  0  0  0  0  0  0
   11.2193  -20.1275   28.2881 C   0  0  0  0  0  0  0  0  0  0  0  0
   12.4757  -20.2183   28.8722 O   0  0  0  0  0  0  0  0  0  0  0  0
   10.5419  -21.1522   28.0791 O   0  0  0  0  0  0  0  0  0  0  0  0
  2  1  1  0
  3  2  2  0
  4  3  1  0
  5 11  1  0
  5  4  2  0
  6  5  1  0
  7  6  1  0
  7  8  1  1
  9  7  1  0
  9 10  2  0
 11 12  2  0
 12  2  1  0
 13  9  1  0
 14 13  1  0
 14 15  1  6
 16 15  1  0
 16 17  1  0
 18 17  1  0
 19 18  1  0
 20 14  1  0
 21 20  2  0
 23 22  1  0
 24 23  1  1
 24 25  1  0
 25 20  1  0
 26 24  1  0
 27 26  1  0
 28 26  2  0
M  END
$$$$
