YKS.pdb
     RDKit          3D

 28 28  0  0  1  0  0  0  0  0999 V2000
    6.0544  -10.4783   28.3421 O   0  0  0  0  0  0  0  0  0  0  0  0
    6.4756  -11.5233   27.5170 C   0  0  0  0  0  0  0  0  0  0  0  0
    7.4554  -12.3436   28.0117 C   0  0  0  0  0  0  0  0  0  0  0  0
    7.9138  -13.3848   27.2578 C   0  0  0  0  0  0  0  0  0  0  0  0
    7.3717  -13.5912   25.9945 C   0  0  0  0  0  0  0  0  0  0  0  0
    7.9074  -14.7130   25.2109 C   0  0  0  0  0  0  0  0  0  0  0  0
    6.8005  -15.3920   24.4502 C   0  0  2  0  0  0  0  0  0  0  0  0
    6.4243  -16.5567   25.2782 N   0  0  0  0  0  0  0  0  0  0  0  0
    7.3018  -15.8283   23.1403 C   0  0  0  0  0  0  0  0  0  0  0  0
    7.7127  -16.9973   22.9311 O   0  0  0  0  0  0  0  0  0  0  0  0
    6.3864  -12.7783   25.4785 C   0  0  0  0  0  0  0  0  0  0  0  0
    5.9394  -11.7283   26.2658 C   0  0  0  0  0  0  0  0  0  0  0  0
    7.3609  -14.9561   22.0014 N   0  0  0  0  0  0  0  0  0  0  0  0
    7.9557  -15.3543   20.7431 C   0  0  1  0  0  0  0  0  0  0  0  0
    8.0618  -14.1003   19.8759 C   0  0  0  0  0  0  0  0  0  0  0  0
    8.7939  -14.3770   18.5974 C   0  0  0  0  0  0  0  0  0  0  0  0
    7.8244  -14.1299   17.4522 C   0  0  0  0  0  0  0  0  0  0  0  0
    8.4976  -14.4048   16.1142 C   0  0  0  0  0  0  0  0  0  0  0  0
    7.5503  -14.1273   15.0552 N   0  0  0  0  0  0  0  0  0  0  0  0
    9.3122  -15.9020   20.9960 C   0  0  0  0  0  0  0  0  0  0  0  0
   10.1090  -15.3762   21.8321 O   0  0  0  0  0  0  0  0  0  0  0  0
   10.3091  -19.6455   19.7975 O   0  0  0  0  0  0  0  0  0  0  0  0
   11.1994  -19.0139   20.6397 C   0  0  0  0  0  0  0  0  0  0  0  0
   11.1093  -17.5229   20.4517 C   0  0  2  0  0  0  0  0  0  0  0  0
    9.7725  -17.0445   20.3057 N   0  0  0  0  0  0  0  0  0  0  0  0
   11.9830  -17.1333   19.3021 C   0  0  0  0  0  0  0  0  0  0  0  0
   13.3207  -17.4910   19.4050 O   0  0  0  0  0  0  0  0  0  0  0  0
   11.5653  -16.5241   18.2986 O   0  0  0  0  0  0  0  0  0  0  0  0
  2  1  1  0
  3  2  2  0
  4  3  1  0
  5 11  1  0
  5  4  2  0
  6  5  1  0
  7  6  1  0
  7  8  1  1
  9  7  1  0
  9 10  2  0
 11 12  2  0
 12  2  1  0
 13  9  1  0
 14 13  1  0
 14 15  1  6
 16 15  1  0
 16 17  1  0
 18 17  1  0
 19 18  1  0
 20 14  1  0
 21 20  2  0
 23 22  1  0
 24 23  1  6
 24 25  1  0
 25 20  1  0
 26 24  1  0
 27 26  1  0
 28 26  2  0
M  END
$$$$
