YKS.pdb
     RDKit          3D

 28 28  0  0  1  0  0  0  0  0999 V2000
   10.3796  -14.0906   30.9194 O   0  0  0  0  0  0  0  0  0  0  0  0
   10.2293  -14.4511   29.5787 C   0  0  0  0  0  0  0  0  0  0  0  0
   10.6396  -15.7108   29.2287 C   0  0  0  0  0  0  0  0  0  0  0  0
   10.5213  -16.1284   27.9348 C   0  0  0  0  0  0  0  0  0  0  0  0
    9.9826  -15.2588   26.9934 C   0  0  0  0  0  0  0  0  0  0  0  0
    9.8903  -15.7439   25.6093 C   0  0  0  0  0  0  0  0  0  0  0  0
    8.4496  -15.9434   25.2227 C   0  0  2  0  0  0  0  0  0  0  0  0
    7.9671  -17.0368   26.0918 N   0  0  0  0  0  0  0  0  0  0  0  0
    8.3707  -16.3329   23.8087 C   0  0  0  0  0  0  0  0  0  0  0  0
    8.5117  -17.5222   23.4282 O   0  0  0  0  0  0  0  0  0  0  0  0
    9.5643  -13.9887   27.3243 C   0  0  0  0  0  0  0  0  0  0  0  0
    9.6960  -13.5906   28.6458 C   0  0  0  0  0  0  0  0  0  0  0  0
    8.1275  -15.3883   22.7552 N   0  0  0  0  0  0  0  0  0  0  0  0
    8.2855  -15.7220   21.3554 C   0  0  1  0  0  0  0  0  0  0  0  0
    8.0042  -14.4520   20.5530 C   0  0  0  0  0  0  0  0  0  0  0  0
    8.1284  -14.6949   19.0791 C   0  0  0  0  0  0  0  0  0  0  0  0
    7.6856  -13.4261   18.3672 C   0  0  0  0  0  0  0  0  0  0  0  0
    7.5786  -13.6653   16.8671 C   0  0  0  0  0  0  0  0  0  0  0  0
    7.2429  -12.4131   16.2228 N   0  0  0  0  0  0  0  0  0  0  0  0
    9.6815  -16.1656   21.1139 C   0  0  0  0  0  0  0  0  0  0  0  0
   10.6770  -15.5876   21.6482 O   0  0  0  0  0  0  0  0  0  0  0  0
   10.5517  -19.9046   19.7526 O   0  0  0  0  0  0  0  0  0  0  0  0
   11.5546  -19.1264   20.2906 C   0  0  0  0  0  0  0  0  0  0  0  0
   11.2938  -17.6754   19.9852 C   0  0  2  0  0  0  0  0  0  0  0  0
    9.9572  -17.2625   20.2688 N   0  0  0  0  0  0  0  0  0  0  0  0
   11.6839  -17.4089   18.5662 C   0  0  0  0  0  0  0  0  0  0  0  0
   12.9940  -17.7188   18.2261 O   0  0  0  0  0  0  0  0  0  0  0  0
   10.9031  -16.9379   17.7171 O   0  0  0  0  0  0  0  0  0  0  0  0
  2  1  1  0
  3  2  2  0
  4  3  1  0
  5 11  1  0
  5  4  2  0
  6  5  1  0
  7  6  1  0
  7  8  1  1
  9  7  1  0
  9 10  2  0
 11 12  2  0
 12  2  1  0
 13  9  1  0
 14 13  1  0
 14 15  1  6
 16 15  1  0
 16 17  1  0
 18 17  1  0
 19 18  1  0
 20 14  1  0
 21 20  2  0
 23 22  1  0
 24 23  1  6
 24 25  1  0
 25 20  1  0
 26 24  1  0
 27 26  1  0
 28 26  2  0
M  END
$$$$
