YKS.pdb
     RDKit          3D

 28 28  0  0  1  0  0  0  0  0999 V2000
    5.7207  -10.2181   27.3420 O   0  0  0  0  0  0  0  0  0  0  0  0
    6.2380  -11.4478   26.9295 C   0  0  0  0  0  0  0  0  0  0  0  0
    5.7405  -12.5651   27.5475 C   0  0  0  0  0  0  0  0  0  0  0  0
    6.2020  -13.7995   27.1927 C   0  0  0  0  0  0  0  0  0  0  0  0
    7.1744  -13.8961   26.2040 C   0  0  0  0  0  0  0  0  0  0  0  0
    7.6546  -15.2432   25.8663 C   0  0  0  0  0  0  0  0  0  0  0  0
    6.7858  -15.8532   24.7995 C   0  0  2  0  0  0  0  0  0  0  0  0
    6.1471  -17.0189   25.4451 N   0  0  0  0  0  0  0  0  0  0  0  0
    7.6226  -16.2806   23.6706 C   0  0  0  0  0  0  0  0  0  0  0  0
    8.1483  -17.4207   23.6149 O   0  0  0  0  0  0  0  0  0  0  0  0
    7.6877  -12.7856   25.5705 C   0  0  0  0  0  0  0  0  0  0  0  0
    7.2010  -11.5444   25.9505 C   0  0  0  0  0  0  0  0  0  0  0  0
    7.9039  -15.4321   22.5472 N   0  0  0  0  0  0  0  0  0  0  0  0
    8.7390  -15.8515   21.4416 C   0  0  1  0  0  0  0  0  0  0  0  0
    8.7949  -14.6895   20.4505 C   0  0  0  0  0  0  0  0  0  0  0  0
    8.0280  -14.9970   19.1998 C   0  0  0  0  0  0  0  0  0  0  0  0
    8.3808  -13.9321   18.1731 C   0  0  0  0  0  0  0  0  0  0  0  0
    7.7135  -14.2357   16.8383 C   0  0  0  0  0  0  0  0  0  0  0  0
    8.0637  -13.1911   15.8991 N   0  0  0  0  0  0  0  0  0  0  0  0
   10.1047  -16.1439   21.9449 C   0  0  0  0  0  0  0  0  0  0  0  0
   10.7716  -15.3014   22.6202 O   0  0  0  0  0  0  0  0  0  0  0  0
   11.6948  -19.9615   21.7987 O   0  0  0  0  0  0  0  0  0  0  0  0
   12.2975  -19.0262   22.6128 C   0  0  0  0  0  0  0  0  0  0  0  0
   12.0760  -17.6457   22.0544 C   0  0  2  0  0  0  0  0  0  0  0  0
   10.7210  -17.3878   21.6871 N   0  0  0  0  0  0  0  0  0  0  0  0
   13.0250  -17.4326   20.9183 C   0  0  0  0  0  0  0  0  0  0  0  0
   14.3679  -17.6487   21.1977 O   0  0  0  0  0  0  0  0  0  0  0  0
   12.6631  -17.0824   19.7787 O   0  0  0  0  0  0  0  0  0  0  0  0
  2  1  1  0
  3  2  2  0
  4  3  1  0
  5 11  1  0
  5  4  2  0
  6  5  1  0
  7  6  1  0
  7  8  1  1
  9  7  1  0
  9 10  2  0
 11 12  2  0
 12  2  1  0
 13  9  1  0
 14 13  1  0
 14 15  1  6
 16 15  1  0
 16 17  1  0
 18 17  1  0
 19 18  1  0
 20 14  1  0
 21 20  2  0
 23 22  1  0
 24 23  1  6
 24 25  1  0
 25 20  1  0
 26 24  1  0
 27 26  1  0
 28 26  2  0
M  END
$$$$
