YKS.pdb
     RDKit          3D

 28 28  0  0  1  0  0  0  0  0999 V2000
    5.6685  -11.0029   28.2560 O   0  0  0  0  0  0  0  0  0  0  0  0
    6.2732  -11.8558   27.3302 C   0  0  0  0  0  0  0  0  0  0  0  0
    7.3377  -12.5949   27.7757 C   0  0  0  0  0  0  0  0  0  0  0  0
    7.9754  -13.4489   26.9233 C   0  0  0  0  0  0  0  0  0  0  0  0
    7.5268  -13.5505   25.6115 C   0  0  0  0  0  0  0  0  0  0  0  0
    8.2539  -14.4689   24.7243 C   0  0  0  0  0  0  0  0  0  0  0  0
    7.2844  -15.3090   23.9373 C   0  0  2  0  0  0  0  0  0  0  0  0
    6.8005  -16.3299   24.8898 N   0  0  0  0  0  0  0  0  0  0  0  0
    7.9849  -15.9416   22.8119 C   0  0  0  0  0  0  0  0  0  0  0  0
    8.1657  -17.1832   22.7426 O   0  0  0  0  0  0  0  0  0  0  0  0
    6.4589  -12.8165   25.1437 C   0  0  0  0  0  0  0  0  0  0  0  0
    5.8297  -11.9569   26.0310 C   0  0  0  0  0  0  0  0  0  0  0  0
    8.5155  -15.1931   21.7077 N   0  0  0  0  0  0  0  0  0  0  0  0
    9.2134  -15.8182   20.6041 C   0  0  1  0  0  0  0  0  0  0  0  0
    9.3763  -14.7595   19.5139 C   0  0  0  0  0  0  0  0  0  0  0  0
    8.2293  -14.7836   18.5492 C   0  0  0  0  0  0  0  0  0  0  0  0
    8.6942  -14.1084   17.2684 C   0  0  0  0  0  0  0  0  0  0  0  0
    7.5481  -14.0097   16.2706 C   0  0  0  0  0  0  0  0  0  0  0  0
    7.9916  -13.2306   15.1338 N   0  0  0  0  0  0  0  0  0  0  0  0
   10.5505  -16.2695   21.0648 C   0  0  0  0  0  0  0  0  0  0  0  0
   11.0476  -15.8934   22.1703 O   0  0  0  0  0  0  0  0  0  0  0  0
   11.9083  -18.2933   23.0385 O   0  0  0  0  0  0  0  0  0  0  0  0
   12.1682  -18.8695   21.8132 C   0  0  0  0  0  0  0  0  0  0  0  0
   12.4858  -17.7990   20.8033 C   0  0  2  0  0  0  0  0  0  0  0  0
   11.3298  -17.1463   20.2790 N   0  0  0  0  0  0  0  0  0  0  0  0
   13.3404  -18.3943   19.7300 C   0  0  0  0  0  0  0  0  0  0  0  0
   14.5505  -18.9347   20.1444 O   0  0  0  0  0  0  0  0  0  0  0  0
   13.0138  -18.4189   18.5278 O   0  0  0  0  0  0  0  0  0  0  0  0
  2  1  1  0
  3  2  2  0
  4  3  1  0
  5 11  1  0
  5  4  2  0
  6  5  1  0
  7  6  1  0
  7  8  1  1
  9  7  1  0
  9 10  2  0
 11 12  2  0
 12  2  1  0
 13  9  1  0
 14 13  1  0
 14 15  1  6
 16 15  1  0
 16 17  1  0
 18 17  1  0
 19 18  1  0
 20 14  1  0
 21 20  2  0
 23 22  1  0
 24 23  1  1
 24 25  1  0
 25 20  1  0
 26 24  1  0
 27 26  1  0
 28 26  2  0
M  END
$$$$
