YKS.pdb
     RDKit          3D

 28 28  0  0  1  0  0  0  0  0999 V2000
    5.2356  -10.5222   27.1618 O   0  0  0  0  0  0  0  0  0  0  0  0
    6.0188  -11.5516   26.6354 C   0  0  0  0  0  0  0  0  0  0  0  0
    6.8468  -12.2057   27.5097 C   0  0  0  0  0  0  0  0  0  0  0  0
    7.6398  -13.2223   27.0621 C   0  0  0  0  0  0  0  0  0  0  0  0
    7.5890  -13.5740   25.7181 C   0  0  0  0  0  0  0  0  0  0  0  0
    8.4726  -14.6621   25.2768 C   0  0  0  0  0  0  0  0  0  0  0  0
    7.6618  -15.8789   24.9207 C   0  0  2  0  0  0  0  0  0  0  0  0
    7.2208  -16.4384   26.2153 N   0  0  0  0  0  0  0  0  0  0  0  0
    8.5094  -16.8402   24.2031 C   0  0  0  0  0  0  0  0  0  0  0  0
    9.1737  -17.7270   24.7959 O   0  0  0  0  0  0  0  0  0  0  0  0
    6.7639  -12.9293   24.8230 C   0  0  0  0  0  0  0  0  0  0  0  0
    5.9691  -11.9005   25.3047 C   0  0  0  0  0  0  0  0  0  0  0  0
    8.6444  -16.8411   22.7738 N   0  0  0  0  0  0  0  0  0  0  0  0
    9.4425  -17.8194   22.0655 C   0  0  1  0  0  0  0  0  0  0  0  0
    9.1224  -17.6733   20.5782 C   0  0  0  0  0  0  0  0  0  0  0  0
    9.9436  -18.6105   19.7450 C   0  0  0  0  0  0  0  0  0  0  0  0
    9.5601  -18.3857   18.2907 C   0  0  0  0  0  0  0  0  0  0  0  0
   10.4124  -19.2527   17.3738 C   0  0  0  0  0  0  0  0  0  0  0  0
   10.1439  -18.8765   16.0019 N   0  0  0  0  0  0  0  0  0  0  0  0
   10.8812  -17.5350   22.2962 C   0  0  0  0  0  0  0  0  0  0  0  0
   11.3849  -16.3878   22.0943 O   0  0  0  0  0  0  0  0  0  0  0  0
   13.3469  -20.3705   24.0709 O   0  0  0  0  0  0  0  0  0  0  0  0
   13.7321  -19.0476   24.1205 C   0  0  0  0  0  0  0  0  0  0  0  0
   13.1477  -18.3019   22.9505 C   0  0  2  0  0  0  0  0  0  0  0  0
   11.7547  -18.5448   22.7554 N   0  0  0  0  0  0  0  0  0  0  0  0
   13.9571  -18.6155   21.7326 C   0  0  0  0  0  0  0  0  0  0  0  0
   15.3167  -18.3469   21.8189 O   0  0  0  0  0  0  0  0  0  0  0  0
   13.4698  -19.0896   20.6884 O   0  0  0  0  0  0  0  0  0  0  0  0
  2  1  1  0
  3  2  2  0
  4  3  1  0
  5 11  1  0
  5  4  2  0
  6  5  1  0
  7  6  1  0
  7  8  1  1
  9  7  1  0
  9 10  2  0
 11 12  2  0
 12  2  1  0
 13  9  1  0
 14 13  1  0
 14 15  1  6
 16 15  1  0
 16 17  1  0
 18 17  1  0
 19 18  1  0
 20 14  1  0
 21 20  2  0
 23 22  1  0
 24 23  1  1
 24 25  1  0
 25 20  1  0
 26 24  1  0
 27 26  1  0
 28 26  2  0
M  END
$$$$
