YKS.pdb
     RDKit          3D

 28 28  0  0  1  0  0  0  0  0999 V2000
   10.1515  -14.5722   31.0646 O   0  0  0  0  0  0  0  0  0  0  0  0
   10.0271  -14.6934   29.6790 C   0  0  0  0  0  0  0  0  0  0  0  0
   10.4101  -15.8878   29.1272 C   0  0  0  0  0  0  0  0  0  0  0  0
   10.3148  -16.0742   27.7786 C   0  0  0  0  0  0  0  0  0  0  0  0
    9.8273  -15.0393   26.9887 C   0  0  0  0  0  0  0  0  0  0  0  0
    9.7585  -15.2777   25.5403 C   0  0  0  0  0  0  0  0  0  0  0  0
    8.3311  -15.4952   25.1159 C   0  0  2  0  0  0  0  0  0  0  0  0
    7.8748  -16.6676   25.8910 N   0  0  0  0  0  0  0  0  0  0  0  0
    8.2855  -15.7774   23.6752 C   0  0  0  0  0  0  0  0  0  0  0  0
    8.4438  -16.9338   23.2095 O   0  0  0  0  0  0  0  0  0  0  0  0
    9.4372  -13.8311   27.5234 C   0  0  0  0  0  0  0  0  0  0  0  0
    9.5445  -13.6691   28.8960 C   0  0  0  0  0  0  0  0  0  0  0  0
    8.0575  -14.7576   22.6906 N   0  0  0  0  0  0  0  0  0  0  0  0
    8.2918  -14.9698   21.2779 C   0  0  1  0  0  0  0  0  0  0  0  0
    7.9795  -13.6545   20.5650 C   0  0  0  0  0  0  0  0  0  0  0  0
    8.4588  -13.6724   19.1448 C   0  0  0  0  0  0  0  0  0  0  0  0
    7.2461  -13.4696   18.2499 C   0  0  0  0  0  0  0  0  0  0  0  0
    7.6452  -13.5547   16.7828 C   0  0  0  0  0  0  0  0  0  0  0  0
    6.4420  -13.5912   15.9785 N   0  0  0  0  0  0  0  0  0  0  0  0
    9.7179  -15.3248   21.0675 C   0  0  0  0  0  0  0  0  0  0  0  0
   10.6041  -15.1182   21.9521 O   0  0  0  0  0  0  0  0  0  0  0  0
   11.8805  -19.0419   20.5436 O   0  0  0  0  0  0  0  0  0  0  0  0
   10.8516  -18.1298   20.6449 C   0  0  0  0  0  0  0  0  0  0  0  0
   11.1722  -16.9065   19.8280 C   0  0  2  0  0  0  0  0  0  0  0  0
   10.1471  -15.9137   19.8582 N   0  0  0  0  0  0  0  0  0  0  0  0
   11.5080  -17.3371   18.4356 C   0  0  0  0  0  0  0  0  0  0  0  0
   12.6461  -18.1205   18.2981 O   0  0  0  0  0  0  0  0  0  0  0  0
   10.8272  -17.0276   17.4390 O   0  0  0  0  0  0  0  0  0  0  0  0
  2  1  1  0
  3  2  2  0
  4  3  1  0
  5 11  1  0
  5  4  2  0
  6  5  1  0
  7  6  1  0
  7  8  1  1
  9  7  1  0
  9 10  2  0
 11 12  2  0
 12  2  1  0
 13  9  1  0
 14 13  1  0
 14 15  1  6
 16 15  1  0
 16 17  1  0
 18 17  1  0
 19 18  1  0
 20 14  1  0
 21 20  2  0
 23 22  1  0
 24 23  1  1
 24 25  1  0
 25 20  1  0
 26 24  1  0
 27 26  1  0
 28 26  2  0
M  END
$$$$
