YKS.pdb
     RDKit          3D

 28 28  0  0  1  0  0  0  0  0999 V2000
    7.5164  -11.6155   18.4433 O   0  0  0  0  0  0  0  0  0  0  0  0
    7.8418  -12.7420   19.2018 C   0  0  0  0  0  0  0  0  0  0  0  0
    9.1233  -13.2135   19.0879 C   0  0  0  0  0  0  0  0  0  0  0  0
    9.5088  -14.3112   19.8013 C   0  0  0  0  0  0  0  0  0  0  0  0
    8.5846  -14.9313   20.6344 C   0  0  0  0  0  0  0  0  0  0  0  0
    9.0379  -16.1200   21.3699 C   0  0  0  0  0  0  0  0  0  0  0  0
    9.2489  -17.2696   20.4218 C   0  0  2  0  0  0  0  0  0  0  0  0
    7.8982  -17.6168   19.9334 N   0  0  0  0  0  0  0  0  0  0  0  0
    9.8439  -18.4001   21.1466 C   0  0  0  0  0  0  0  0  0  0  0  0
    9.3378  -18.8687   22.1971 O   0  0  0  0  0  0  0  0  0  0  0  0
    7.2917  -14.4735   20.7631 C   0  0  0  0  0  0  0  0  0  0  0  0
    6.9272  -13.3567   20.0270 C   0  0  0  0  0  0  0  0  0  0  0  0
   11.0455  -19.0551   20.7128 N   0  0  0  0  0  0  0  0  0  0  0  0
   11.5747  -20.2312   21.3703 C   0  0  1  0  0  0  0  0  0  0  0  0
   12.4317  -20.9749   20.3465 C   0  0  0  0  0  0  0  0  0  0  0  0
   11.5848  -21.6965   19.3420 C   0  0  0  0  0  0  0  0  0  0  0  0
   12.5199  -22.3133   18.3136 C   0  0  0  0  0  0  0  0  0  0  0  0
   11.7236  -22.9768   17.1980 C   0  0  0  0  0  0  0  0  0  0  0  0
   12.6507  -23.4935   16.2134 N   0  0  0  0  0  0  0  0  0  0  0  0
   12.4193  -19.8112   22.5167 C   0  0  0  0  0  0  0  0  0  0  0  0
   13.1962  -18.8098   22.4534 O   0  0  0  0  0  0  0  0  0  0  0  0
   11.7908  -21.4617   26.2467 O   0  0  0  0  0  0  0  0  0  0  0  0
   12.3883  -20.2213   26.1737 C   0  0  0  0  0  0  0  0  0  0  0  0
   13.1377  -20.0920   24.8743 C   0  0  2  0  0  0  0  0  0  0  0  0
   12.3891  -20.5206   23.7371 N   0  0  0  0  0  0  0  0  0  0  0  0
   14.4424  -20.8117   25.0023 C   0  0  0  0  0  0  0  0  0  0  0  0
   15.2667  -20.3987   26.0405 O   0  0  0  0  0  0  0  0  0  0  0  0
   14.7966  -21.7306   24.2390 O   0  0  0  0  0  0  0  0  0  0  0  0
  2  1  1  0
  3  2  2  0
  4  3  1  0
  5 11  1  0
  5  4  2  0
  6  5  1  0
  7  6  1  0
  7  8  1  1
  9  7  1  0
  9 10  2  0
 11 12  2  0
 12  2  1  0
 13  9  1  0
 14 13  1  0
 14 15  1  6
 16 15  1  0
 16 17  1  0
 18 17  1  0
 19 18  1  0
 20 14  1  0
 21 20  2  0
 23 22  1  0
 24 23  1  1
 24 25  1  0
 25 20  1  0
 26 24  1  0
 27 26  1  0
 28 26  2  0
M  END
$$$$
