YKS.pdb
     RDKit          3D

 28 28  0  0  1  0  0  0  0  0999 V2000
    8.0729  -12.1243   18.3073 O   0  0  0  0  0  0  0  0  0  0  0  0
    7.9865  -13.1561   19.2444 C   0  0  0  0  0  0  0  0  0  0  0  0
    7.4445  -12.8394   20.4624 C   0  0  0  0  0  0  0  0  0  0  0  0
    7.3299  -13.8002   21.4249 C   0  0  0  0  0  0  0  0  0  0  0  0
    7.7694  -15.0891   21.1453 C   0  0  0  0  0  0  0  0  0  0  0  0
    7.6430  -16.0869   22.2166 C   0  0  0  0  0  0  0  0  0  0  0  0
    7.3048  -17.4337   21.6362 C   0  0  2  0  0  0  0  0  0  0  0  0
    5.9060  -17.3126   21.1757 N   0  0  0  0  0  0  0  0  0  0  0  0
    7.4192  -18.4603   22.6804 C   0  0  0  0  0  0  0  0  0  0  0  0
    6.6663  -18.4855   23.6863 O   0  0  0  0  0  0  0  0  0  0  0  0
    8.3172  -15.4281   19.9276 C   0  0  0  0  0  0  0  0  0  0  0  0
    8.4215  -14.4326   18.9683 C   0  0  0  0  0  0  0  0  0  0  0  0
    8.3965  -19.5109   22.6331 N   0  0  0  0  0  0  0  0  0  0  0  0
    8.4906  -20.5361   23.6509 C   0  0  1  0  0  0  0  0  0  0  0  0
    8.0215  -21.8460   23.0185 C   0  0  0  0  0  0  0  0  0  0  0  0
    6.6180  -21.7355   22.5037 C   0  0  0  0  0  0  0  0  0  0  0  0
    5.6804  -22.0285   23.6646 C   0  0  0  0  0  0  0  0  0  0  0  0
    4.2385  -22.1027   23.1805 C   0  0  0  0  0  0  0  0  0  0  0  0
    3.7441  -23.4445   23.4065 N   0  0  0  0  0  0  0  0  0  0  0  0
    9.9053  -20.6685   24.0809 C   0  0  0  0  0  0  0  0  0  0  0  0
   10.7947  -21.1791   23.3334 O   0  0  0  0  0  0  0  0  0  0  0  0
   11.8106  -18.0624   26.4346 O   0  0  0  0  0  0  0  0  0  0  0  0
   12.4403  -19.0330   25.6849 C   0  0  0  0  0  0  0  0  0  0  0  0
   11.6778  -20.3276   25.7825 C   0  0  2  0  0  0  0  0  0  0  0  0
   10.3196  -20.2250   25.3558 N   0  0  0  0  0  0  0  0  0  0  0  0
   11.7989  -20.8483   27.1793 C   0  0  0  0  0  0  0  0  0  0  0  0
   13.0900  -21.0885   27.6301 O   0  0  0  0  0  0  0  0  0  0  0  0
   10.8191  -21.0638   27.9183 O   0  0  0  0  0  0  0  0  0  0  0  0
  2  1  1  0
  3  2  2  0
  4  3  1  0
  5 11  1  0
  5  4  2  0
  6  5  1  0
  7  6  1  0
  7  8  1  1
  9  7  1  0
  9 10  2  0
 11 12  2  0
 12  2  1  0
 13  9  1  0
 14 13  1  0
 14 15  1  6
 16 15  1  0
 16 17  1  0
 18 17  1  0
 19 18  1  0
 20 14  1  0
 21 20  2  0
 23 22  1  0
 24 23  1  1
 24 25  1  0
 25 20  1  0
 26 24  1  0
 27 26  1  0
 28 26  2  0
M  END
$$$$
