YKS.pdb
     RDKit          3D

 28 28  0  0  1  0  0  0  0  0999 V2000
    9.9389  -14.2139   30.9564 O   0  0  0  0  0  0  0  0  0  0  0  0
   10.3550  -14.7006   29.7153 C   0  0  0  0  0  0  0  0  0  0  0  0
   10.0597  -13.9314   28.6204 C   0  0  0  0  0  0  0  0  0  0  0  0
   10.4371  -14.3476   27.3766 C   0  0  0  0  0  0  0  0  0  0  0  0
   11.1184  -15.5525   27.2478 C   0  0  0  0  0  0  0  0  0  0  0  0
   11.4898  -15.9698   25.8886 C   0  0  0  0  0  0  0  0  0  0  0  0
   10.6656  -17.1556   25.4648 C   0  0  2  0  0  0  0  0  0  0  0  0
   11.0528  -18.2417   26.3889 N   0  0  0  0  0  0  0  0  0  0  0  0
   10.9964  -17.5124   24.0789 C   0  0  0  0  0  0  0  0  0  0  0  0
   12.0649  -18.0972   23.7701 O   0  0  0  0  0  0  0  0  0  0  0  0
   11.4249  -16.3405   28.3354 C   0  0  0  0  0  0  0  0  0  0  0  0
   11.0296  -15.8936   29.5868 C   0  0  0  0  0  0  0  0  0  0  0  0
   10.1276  -17.2218   22.9735 N   0  0  0  0  0  0  0  0  0  0  0  0
   10.4383  -17.6087   21.6135 C   0  0  1  0  0  0  0  0  0  0  0  0
    9.3539  -17.0147   20.7152 C   0  0  0  0  0  0  0  0  0  0  0  0
    9.6022  -17.3318   19.2714 C   0  0  0  0  0  0  0  0  0  0  0  0
    8.6136  -18.4130   18.8636 C   0  0  0  0  0  0  0  0  0  0  0  0
    8.6802  -18.6584   17.3622 C   0  0  0  0  0  0  0  0  0  0  0  0
    7.8094  -19.7682   17.0367 N   0  0  0  0  0  0  0  0  0  0  0  0
   11.7603  -17.0483   21.2366 C   0  0  0  0  0  0  0  0  0  0  0  0
   12.0271  -15.8124   21.3452 O   0  0  0  0  0  0  0  0  0  0  0  0
   15.2353  -19.2210   21.0890 O   0  0  0  0  0  0  0  0  0  0  0  0
   15.2140  -17.8424   21.0852 C   0  0  0  0  0  0  0  0  0  0  0  0
   14.0330  -17.3528   20.2902 C   0  0  2  0  0  0  0  0  0  0  0  0
   12.7844  -17.8816   20.7360 N   0  0  0  0  0  0  0  0  0  0  0  0
   14.2849  -17.6296   18.8422 C   0  0  0  0  0  0  0  0  0  0  0  0
   15.4295  -17.0578   18.3028 O   0  0  0  0  0  0  0  0  0  0  0  0
   13.5317  -18.3272   18.1360 O   0  0  0  0  0  0  0  0  0  0  0  0
  2  1  1  0
  3  2  2  0
  4  3  1  0
  5 11  1  0
  5  4  2  0
  6  5  1  0
  7  6  1  0
  7  8  1  1
  9  7  1  0
  9 10  2  0
 11 12  2  0
 12  2  1  0
 13  9  1  0
 14 13  1  0
 14 15  1  6
 16 15  1  0
 16 17  1  0
 18 17  1  0
 19 18  1  0
 20 14  1  0
 21 20  2  0
 23 22  1  0
 24 23  1  1
 24 25  1  0
 25 20  1  0
 26 24  1  0
 27 26  1  0
 28 26  2  0
M  END
$$$$
