GCR.pdb
     RDKit          3D

 22 21  0  0  1  0  0  0  0  0999 V2000
    4.3966  -19.9934   23.0069 N   0  0  0  0  0  0  0  0  0  0  0  0
    5.4294  -19.5439   23.9200 C   0  0  0  0  0  0  0  0  0  0  0  0
    5.7754  -18.1114   23.6302 C   0  0  0  0  0  0  0  0  0  0  0  0
    5.2314  -17.5032   22.6746 O   0  0  0  0  0  0  0  0  0  0  0  0
    6.7216  -17.4623   24.4506 N   0  0  0  0  0  0  0  0  0  0  0  0
    7.1598  -16.0921   24.1111 C   0  0  1  0  0  0  0  0  0  0  0  0
    7.2771  -15.3416   25.4261 C   0  0  0  0  0  0  0  0  0  0  0  0
    8.4391  -16.2091   26.4957 S   0  0  0  0  0  0  0  0  0  0  0  0
    8.4541  -16.2448   23.4139 C   0  0  0  0  0  0  0  0  0  0  0  0
    9.1808  -17.2745   23.6332 O   0  0  0  0  0  0  0  0  0  0  0  0
    8.3518  -15.3158   16.8524 N   0  0  0  0  0  0  0  0  0  0  0  0
    8.1336  -13.9300   17.0117 C   0  0  0  0  0  0  0  0  0  0  0  0
    8.1682  -13.1183   15.9908 N   0  0  0  0  0  0  0  0  0  0  0  0
    7.8630  -13.3695   18.2790 N   0  0  0  0  0  0  0  0  0  0  0  0
    8.8393  -13.2811   19.3056 C   0  0  0  0  0  0  0  0  0  0  0  0
    9.4765  -14.5818   19.6513 C   0  0  0  0  0  0  0  0  0  0  0  0
   10.4806  -14.4966   20.7422 C   0  0  0  0  0  0  0  0  0  0  0  0
   10.2388  -15.5969   21.7753 C   0  0  2  0  0  0  0  0  0  0  0  0
    8.9922  -15.3230   22.4844 N   0  0  0  0  0  0  0  0  0  0  0  0
   11.4017  -15.6820   22.6765 C   0  0  0  0  0  0  0  0  0  0  0  0
   11.2765  -15.4921   24.0260 O   0  0  0  0  0  0  0  0  0  0  0  0
   12.5269  -15.9401   22.1443 O   0  0  0  0  0  0  0  0  0  0  0  0
  1  2  1  0
  2  3  1  0
  3  5  1  0
  4  3  2  0
  5  6  1  0
  6  9  1  0
  6  7  1  1
  8  7  1  0
  9 10  2  0
  9 19  1  0
 11 12  1  0
 12 13  2  0
 12 14  1  0
 14 15  1  0
 15 16  1  0
 17 16  1  0
 18 17  1  6
 18 20  1  0
 19 18  1  0
 20 22  2  0
 20 21  1  0
M  END
$$$$
