GCR.pdb
     RDKit          3D

 22 21  0  0  1  0  0  0  0  0999 V2000
    8.5151  -17.5722   21.2565 N   0  0  0  0  0  0  0  0  0  0  0  0
    7.4922  -17.1042   22.1713 C   0  0  0  0  0  0  0  0  0  0  0  0
    8.0272  -15.9661   22.9925 C   0  0  0  0  0  0  0  0  0  0  0  0
    9.2368  -15.6349   22.9144 O   0  0  0  0  0  0  0  0  0  0  0  0
    7.1466  -15.2765   23.8521 N   0  0  0  0  0  0  0  0  0  0  0  0
    7.6331  -14.0959   24.5965 C   0  0  1  0  0  0  0  0  0  0  0  0
    6.4426  -13.1658   24.7500 C   0  0  0  0  0  0  0  0  0  0  0  0
    6.8946  -11.8096   25.8469 S   0  0  0  0  0  0  0  0  0  0  0  0
    8.1346  -14.6128   25.8872 C   0  0  0  0  0  0  0  0  0  0  0  0
    7.3549  -15.2711   26.6586 O   0  0  0  0  0  0  0  0  0  0  0  0
   12.2912  -19.8734   30.2604 N   0  0  0  0  0  0  0  0  0  0  0  0
   11.7535  -20.0708   28.9699 C   0  0  0  0  0  0  0  0  0  0  0  0
   11.3287  -21.2432   28.5864 N   0  0  0  0  0  0  0  0  0  0  0  0
   11.6482  -19.0073   28.0471 N   0  0  0  0  0  0  0  0  0  0  0  0
   11.5357  -17.6500   28.4469 C   0  0  0  0  0  0  0  0  0  0  0  0
   11.4573  -16.6874   27.3134 C   0  0  0  0  0  0  0  0  0  0  0  0
   11.3021  -15.2700   27.7284 C   0  0  0  0  0  0  0  0  0  0  0  0
    9.8265  -14.8716   27.7204 C   0  0  2  0  0  0  0  0  0  0  0  0
    9.4526  -14.4448   26.3750 N   0  0  0  0  0  0  0  0  0  0  0  0
    9.5992  -13.8270   28.7347 C   0  0  0  0  0  0  0  0  0  0  0  0
    9.4764  -14.1338   30.0628 O   0  0  0  0  0  0  0  0  0  0  0  0
    9.5228  -12.6274   28.3211 O   0  0  0  0  0  0  0  0  0  0  0  0
  1  2  1  0
  2  3  1  0
  3  5  1  0
  4  3  2  0
  5  6  1  0
  6  9  1  0
  6  7  1  1
  8  7  1  0
  9 10  2  0
  9 19  1  0
 11 12  1  0
 12 13  2  0
 12 14  1  0
 14 15  1  0
 15 16  1  0
 17 16  1  0
 18 17  1  6
 18 20  1  0
 19 18  1  0
 20 22  2  0
 20 21  1  0
M  END
$$$$
