GCR.pdb
     RDKit          3D

 22 21  0  0  1  0  0  0  0  0999 V2000
    8.8132  -13.6152   16.9566 N   0  0  0  0  0  0  0  0  0  0  0  0
    7.9456  -14.3244   17.8765 C   0  0  0  0  0  0  0  0  0  0  0  0
    8.4122  -14.1042   19.2870 C   0  0  0  0  0  0  0  0  0  0  0  0
    9.4959  -13.5108   19.5165 O   0  0  0  0  0  0  0  0  0  0  0  0
    7.6113  -14.5754   20.3484 N   0  0  0  0  0  0  0  0  0  0  0  0
    8.0591  -14.3731   21.7424 C   0  0  1  0  0  0  0  0  0  0  0  0
    6.8159  -14.4660   22.6094 C   0  0  0  0  0  0  0  0  0  0  0  0
    7.3075  -14.4643   24.3429 S   0  0  0  0  0  0  0  0  0  0  0  0
    9.0350  -15.4500   22.0117 C   0  0  0  0  0  0  0  0  0  0  0  0
    8.8450  -16.6200   21.5307 O   0  0  0  0  0  0  0  0  0  0  0  0
   16.8314  -17.4258   24.1905 N   0  0  0  0  0  0  0  0  0  0  0  0
   16.9251  -17.8013   22.8327 C   0  0  0  0  0  0  0  0  0  0  0  0
   18.0573  -18.1924   22.3159 N   0  0  0  0  0  0  0  0  0  0  0  0
   15.7974  -17.7749   21.9834 N   0  0  0  0  0  0  0  0  0  0  0  0
   14.8738  -16.6972   21.9642 C   0  0  0  0  0  0  0  0  0  0  0  0
   13.5142  -17.0537   22.4560 C   0  0  0  0  0  0  0  0  0  0  0  0
   12.5260  -15.9487   22.3677 C   0  0  0  0  0  0  0  0  0  0  0  0
   11.1726  -16.3998   22.9165 C   0  0  2  0  0  0  0  0  0  0  0  0
   10.2131  -15.3073   22.7830 N   0  0  0  0  0  0  0  0  0  0  0  0
   11.3379  -16.8476   24.3107 C   0  0  0  0  0  0  0  0  0  0  0  0
   11.9782  -18.0182   24.6152 O   0  0  0  0  0  0  0  0  0  0  0  0
   10.8594  -16.0974   25.2187 O   0  0  0  0  0  0  0  0  0  0  0  0
  1  2  1  0
  2  3  1  0
  3  5  1  0
  4  3  2  0
  5  6  1  0
  6  9  1  0
  6  7  1  1
  8  7  1  0
  9 10  2  0
  9 19  1  0
 11 12  1  0
 12 13  2  0
 12 14  1  0
 14 15  1  0
 15 16  1  0
 17 16  1  0
 18 17  1  1
 18 20  1  0
 19 18  1  0
 20 22  2  0
 20 21  1  0
M  END
$$$$
