GCR.pdb
     RDKit          3D

 22 21  0  0  1  0  0  0  0  0999 V2000
    7.3230  -13.4887   20.2076 N   0  0  0  0  0  0  0  0  0  0  0  0
    6.5834  -13.5397   21.4536 C   0  0  0  0  0  0  0  0  0  0  0  0
    7.5269  -13.3812   22.6113 C   0  0  0  0  0  0  0  0  0  0  0  0
    8.7698  -13.4404   22.4357 O   0  0  0  0  0  0  0  0  0  0  0  0
    6.9919  -13.1644   23.8984 N   0  0  0  0  0  0  0  0  0  0  0  0
    7.9046  -13.0491   25.0553 C   0  0  1  0  0  0  0  0  0  0  0  0
    7.1645  -12.2404   26.1060 C   0  0  0  0  0  0  0  0  0  0  0  0
    5.5944  -13.0463   26.4691 S   0  0  0  0  0  0  0  0  0  0  0  0
    8.1876  -14.4350   25.4841 C   0  0  0  0  0  0  0  0  0  0  0  0
    7.2434  -15.2972   25.5242 O   0  0  0  0  0  0  0  0  0  0  0  0
   11.7061  -21.4661   24.6906 N   0  0  0  0  0  0  0  0  0  0  0  0
   10.9502  -21.2114   23.5256 C   0  0  0  0  0  0  0  0  0  0  0  0
   10.4345  -22.1855   22.8278 N   0  0  0  0  0  0  0  0  0  0  0  0
   10.7173  -19.8940   23.0743 N   0  0  0  0  0  0  0  0  0  0  0  0
   11.2112  -18.7494   23.7531 C   0  0  0  0  0  0  0  0  0  0  0  0
   10.2133  -18.0926   24.6420 C   0  0  0  0  0  0  0  0  0  0  0  0
   10.7478  -16.9387   25.4088 C   0  0  0  0  0  0  0  0  0  0  0  0
    9.6484  -16.3163   26.2693 C   0  0  2  0  0  0  0  0  0  0  0  0
    9.4580  -14.9246   25.8708 N   0  0  0  0  0  0  0  0  0  0  0  0
   10.0049  -16.4593   27.6921 C   0  0  0  0  0  0  0  0  0  0  0  0
   10.1222  -17.6894   28.2803 O   0  0  0  0  0  0  0  0  0  0  0  0
   10.1991  -15.3884   28.3491 O   0  0  0  0  0  0  0  0  0  0  0  0
  1  2  1  0
  2  3  1  0
  3  5  1  0
  4  3  2  0
  5  6  1  0
  6  9  1  0
  6  7  1  1
  8  7  1  0
  9 10  2  0
  9 19  1  0
 11 12  1  0
 12 13  2  0
 12 14  1  0
 14 15  1  0
 15 16  1  0
 17 16  1  0
 18 17  1  6
 18 20  1  0
 19 18  1  0
 20 22  2  0
 20 21  1  0
M  END
$$$$
