GCR.pdb
     RDKit          3D

 22 21  0  0  1  0  0  0  0  0999 V2000
    7.0286  -16.4373   20.9625 N   0  0  0  0  0  0  0  0  0  0  0  0
    6.3853  -15.7831   22.0851 C   0  0  0  0  0  0  0  0  0  0  0  0
    7.4066  -15.0275   22.8862 C   0  0  0  0  0  0  0  0  0  0  0  0
    8.6289  -15.1136   22.6074 O   0  0  0  0  0  0  0  0  0  0  0  0
    6.9681  -14.2198   23.9563 N   0  0  0  0  0  0  0  0  0  0  0  0
    7.9616  -13.4847   24.7670 C   0  0  1  0  0  0  0  0  0  0  0  0
    7.2983  -12.1827   25.1804 C   0  0  0  0  0  0  0  0  0  0  0  0
    5.8222  -12.5556   26.1440 S   0  0  0  0  0  0  0  0  0  0  0  0
    8.2757  -14.3640   25.9128 C   0  0  0  0  0  0  0  0  0  0  0  0
    7.3510  -15.0617   26.4556 O   0  0  0  0  0  0  0  0  0  0  0  0
   10.0149  -20.5559   29.1795 N   0  0  0  0  0  0  0  0  0  0  0  0
   11.1540  -20.1787   29.9235 C   0  0  0  0  0  0  0  0  0  0  0  0
   12.0196  -21.0657   30.3311 N   0  0  0  0  0  0  0  0  0  0  0  0
   11.4048  -18.8280   30.2494 N   0  0  0  0  0  0  0  0  0  0  0  0
   11.6716  -17.8367   29.2691 C   0  0  0  0  0  0  0  0  0  0  0  0
   10.5281  -17.5625   28.3556 C   0  0  0  0  0  0  0  0  0  0  0  0
   10.7507  -16.4258   27.4262 C   0  0  0  0  0  0  0  0  0  0  0  0
    9.7523  -15.3035   27.7092 C   0  0  2  0  0  0  0  0  0  0  0  0
    9.5570  -14.5181   26.4938 N   0  0  0  0  0  0  0  0  0  0  0  0
   10.2383  -14.4939   28.8405 C   0  0  0  0  0  0  0  0  0  0  0  0
   10.0652  -14.8982   30.1364 O   0  0  0  0  0  0  0  0  0  0  0  0
   10.8264  -13.4026   28.5589 O   0  0  0  0  0  0  0  0  0  0  0  0
  1  2  1  0
  2  3  1  0
  3  5  1  0
  4  3  2  0
  5  6  1  0
  6  9  1  0
  6  7  1  1
  8  7  1  0
  9 10  2  0
  9 19  1  0
 11 12  1  0
 12 13  2  0
 12 14  1  0
 14 15  1  0
 15 16  1  0
 17 16  1  0
 18 17  1  6
 18 20  1  0
 19 18  1  0
 20 22  2  0
 20 21  1  0
M  END
$$$$
