GCR.pdb
     RDKit          3D

 22 21  0  0  1  0  0  0  0  0999 V2000
    7.9516  -17.9980   16.7001 N   0  0  0  0  0  0  0  0  0  0  0  0
    7.2062  -17.0578   17.5139 C   0  0  0  0  0  0  0  0  0  0  0  0
    8.1493  -16.2882   18.3937 C   0  0  0  0  0  0  0  0  0  0  0  0
    9.3630  -16.6063   18.4620 O   0  0  0  0  0  0  0  0  0  0  0  0
    7.6471  -15.2023   19.1411 N   0  0  0  0  0  0  0  0  0  0  0  0
    8.5426  -14.4850   20.0728 C   0  0  1  0  0  0  0  0  0  0  0  0
    7.8439  -13.1825   20.4212 C   0  0  0  0  0  0  0  0  0  0  0  0
    7.8814  -12.0938   18.9860 S   0  0  0  0  0  0  0  0  0  0  0  0
    8.7130  -15.3802   21.2365 C   0  0  0  0  0  0  0  0  0  0  0  0
    7.6891  -15.9108   21.7902 O   0  0  0  0  0  0  0  0  0  0  0  0
   12.4959  -21.8737   23.7323 N   0  0  0  0  0  0  0  0  0  0  0  0
   13.2124  -21.2547   22.6849 C   0  0  0  0  0  0  0  0  0  0  0  0
   14.4239  -21.6306   22.3800 N   0  0  0  0  0  0  0  0  0  0  0  0
   12.6445  -20.2106   21.9227 N   0  0  0  0  0  0  0  0  0  0  0  0
   11.2479  -19.9602   21.8811 C   0  0  0  0  0  0  0  0  0  0  0  0
   10.7685  -19.0166   22.9286 C   0  0  0  0  0  0  0  0  0  0  0  0
   11.2032  -17.6111   22.7264 C   0  0  0  0  0  0  0  0  0  0  0  0
   10.0317  -16.6545   22.9474 C   0  0  2  0  0  0  0  0  0  0  0  0
    9.9536  -15.7249   21.8241 N   0  0  0  0  0  0  0  0  0  0  0  0
   10.1986  -15.9721   24.2428 C   0  0  0  0  0  0  0  0  0  0  0  0
   10.0571  -16.6419   25.4279 O   0  0  0  0  0  0  0  0  0  0  0  0
   10.4804  -14.7329   24.2106 O   0  0  0  0  0  0  0  0  0  0  0  0
  1  2  1  0
  2  3  1  0
  3  5  1  0
  4  3  2  0
  5  6  1  0
  6  9  1  0
  6  7  1  1
  8  7  1  0
  9 10  2  0
  9 19  1  0
 11 12  1  0
 12 13  2  0
 12 14  1  0
 14 15  1  0
 15 16  1  0
 17 16  1  0
 18 17  1  6
 18 20  1  0
 19 18  1  0
 20 22  2  0
 20 21  1  0
M  END
$$$$
