GCR.pdb
     RDKit          3D

 22 21  0  0  1  0  0  0  0  0999 V2000
    7.5769  -13.1029   15.8785 N   0  0  0  0  0  0  0  0  0  0  0  0
    8.6431  -13.4448   16.7996 C   0  0  0  0  0  0  0  0  0  0  0  0
    8.1154  -14.3534   17.8728 C   0  0  0  0  0  0  0  0  0  0  0  0
    6.9553  -14.8297   17.7936 O   0  0  0  0  0  0  0  0  0  0  0  0
    8.9463  -14.6619   18.9702 N   0  0  0  0  0  0  0  0  0  0  0  0
    8.7139  -15.9080   19.7304 C   0  0  1  0  0  0  0  0  0  0  0  0
    8.8742  -17.0493   18.7416 C   0  0  0  0  0  0  0  0  0  0  0  0
    8.8829  -18.6098   19.6423 S   0  0  0  0  0  0  0  0  0  0  0  0
    9.7325  -15.9219   20.8012 C   0  0  0  0  0  0  0  0  0  0  0  0
   10.9610  -15.7051   20.5178 O   0  0  0  0  0  0  0  0  0  0  0  0
    9.9136  -16.2079   28.5454 N   0  0  0  0  0  0  0  0  0  0  0  0
    9.7228  -14.8172   28.3940 C   0  0  0  0  0  0  0  0  0  0  0  0
    9.9971  -13.9876   29.3628 N   0  0  0  0  0  0  0  0  0  0  0  0
    9.2347  -14.2695   27.1876 N   0  0  0  0  0  0  0  0  0  0  0  0
    8.5218  -15.0349   26.2280 C   0  0  0  0  0  0  0  0  0  0  0  0
    9.1368  -15.0336   24.8718 C   0  0  0  0  0  0  0  0  0  0  0  0
    9.9295  -16.2506   24.5620 C   0  0  0  0  0  0  0  0  0  0  0  0
   10.5407  -16.1463   23.1648 C   0  0  2  0  0  0  0  0  0  0  0  0
    9.4706  -16.1608   22.1715 N   0  0  0  0  0  0  0  0  0  0  0  0
   11.5106  -17.2395   22.9754 C   0  0  0  0  0  0  0  0  0  0  0  0
   12.7730  -17.1749   23.4998 O   0  0  0  0  0  0  0  0  0  0  0  0
   11.1221  -18.2461   22.3031 O   0  0  0  0  0  0  0  0  0  0  0  0
  1  2  1  0
  2  3  1  0
  3  5  1  0
  4  3  2  0
  5  6  1  0
  6  9  1  0
  6  7  1  6
  8  7  1  0
  9 10  2  0
  9 19  1  0
 11 12  1  0
 12 13  2  0
 12 14  1  0
 14 15  1  0
 15 16  1  0
 17 16  1  0
 18 17  1  1
 18 20  1  0
 19 18  1  0
 20 22  2  0
 20 21  1  0
M  END
$$$$
