GCR.pdb
     RDKit          3D

 22 21  0  0  1  0  0  0  0  0999 V2000
    6.2098  -16.1793   21.8294 N   0  0  0  0  0  0  0  0  0  0  0  0
    5.7206  -15.6908   23.1038 C   0  0  0  0  0  0  0  0  0  0  0  0
    6.8350  -15.0154   23.8506 C   0  0  0  0  0  0  0  0  0  0  0  0
    8.0139  -15.0612   23.4182 O   0  0  0  0  0  0  0  0  0  0  0  0
    6.5332  -14.3289   25.0454 N   0  0  0  0  0  0  0  0  0  0  0  0
    7.6228  -13.6857   25.8095 C   0  0  1  0  0  0  0  0  0  0  0  0
    6.9585  -12.7067   26.7614 C   0  0  0  0  0  0  0  0  0  0  0  0
    6.2854  -11.3304   25.8130 S   0  0  0  0  0  0  0  0  0  0  0  0
    8.3278  -14.7826   26.5056 C   0  0  0  0  0  0  0  0  0  0  0  0
    7.6646  -15.6361   27.1898 O   0  0  0  0  0  0  0  0  0  0  0  0
   11.5118  -21.8304   25.2475 N   0  0  0  0  0  0  0  0  0  0  0  0
   12.2403  -21.5786   26.4304 C   0  0  0  0  0  0  0  0  0  0  0  0
   12.7917  -22.5499   27.1047 N   0  0  0  0  0  0  0  0  0  0  0  0
   12.4065  -20.2670   26.9260 N   0  0  0  0  0  0  0  0  0  0  0  0
   11.7868  -19.1361   26.3328 C   0  0  0  0  0  0  0  0  0  0  0  0
   12.0988  -17.8473   27.0104 C   0  0  0  0  0  0  0  0  0  0  0  0
   11.5018  -16.6554   26.3559 C   0  0  0  0  0  0  0  0  0  0  0  0
   10.3379  -16.1181   27.1882 C   0  0  2  0  0  0  0  0  0  0  0  0
    9.7275  -14.9918   26.4875 N   0  0  0  0  0  0  0  0  0  0  0  0
   10.8256  -15.7585   28.5315 C   0  0  0  0  0  0  0  0  0  0  0  0
   11.0596  -16.7105   29.4864 O   0  0  0  0  0  0  0  0  0  0  0  0
   11.0200  -14.5239   28.7638 O   0  0  0  0  0  0  0  0  0  0  0  0
  1  2  1  0
  2  3  1  0
  3  5  1  0
  4  3  2  0
  5  6  1  0
  6  9  1  0
  6  7  1  1
  8  7  1  0
  9 10  2  0
  9 19  1  0
 11 12  1  0
 12 13  2  0
 12 14  1  0
 14 15  1  0
 15 16  1  0
 17 16  1  0
 18 17  1  6
 18 20  1  0
 19 18  1  0
 20 22  2  0
 20 21  1  0
M  END
$$$$
