GCR.pdb
     RDKit          3D

 22 21  0  0  1  0  0  0  0  0999 V2000
    6.0706  -19.0758   16.5554 N   0  0  0  0  0  0  0  0  0  0  0  0
    6.9208  -19.3440   17.6987 C   0  0  0  0  0  0  0  0  0  0  0  0
    6.3714  -18.6529   18.9137 C   0  0  0  0  0  0  0  0  0  0  0  0
    6.6697  -17.4570   19.1584 O   0  0  0  0  0  0  0  0  0  0  0  0
    5.5146  -19.3710   19.7740 N   0  0  0  0  0  0  0  0  0  0  0  0
    4.9349  -18.6946   20.9534 C   0  0  1  0  0  0  0  0  0  0  0  0
    3.6049  -19.3747   21.2266 C   0  0  0  0  0  0  0  0  0  0  0  0
    2.4749  -18.1802   21.9634 S   0  0  0  0  0  0  0  0  0  0  0  0
    5.9146  -18.8786   22.0447 C   0  0  0  0  0  0  0  0  0  0  0  0
    6.4451  -20.0260   22.2407 O   0  0  0  0  0  0  0  0  0  0  0  0
   10.5926  -13.4910   27.4391 N   0  0  0  0  0  0  0  0  0  0  0  0
    9.3136  -14.0421   27.6712 C   0  0  0  0  0  0  0  0  0  0  0  0
    8.5011  -13.5195   28.5480 N   0  0  0  0  0  0  0  0  0  0  0  0
    8.8614  -15.1748   26.9599 N   0  0  0  0  0  0  0  0  0  0  0  0
    9.6476  -15.8303   25.9764 C   0  0  0  0  0  0  0  0  0  0  0  0
    9.0249  -17.0655   25.4252 C   0  0  0  0  0  0  0  0  0  0  0  0
    7.9227  -16.8137   24.4623 C   0  0  0  0  0  0  0  0  0  0  0  0
    7.3233  -18.1352   23.9819 C   0  0  2  0  0  0  0  0  0  0  0  0
    6.3440  -17.8642   22.9333 N   0  0  0  0  0  0  0  0  0  0  0  0
    6.7452  -18.8535   25.1314 C   0  0  0  0  0  0  0  0  0  0  0  0
    7.4905  -19.7239   25.8798 O   0  0  0  0  0  0  0  0  0  0  0  0
    5.5227  -18.6282   25.3975 O   0  0  0  0  0  0  0  0  0  0  0  0
  1  2  1  0
  2  3  1  0
  3  5  1  0
  4  3  2  0
  5  6  1  0
  6  9  1  0
  6  7  1  1
  8  7  1  0
  9 10  2  0
  9 19  1  0
 11 12  1  0
 12 13  2  0
 12 14  1  0
 14 15  1  0
 15 16  1  0
 17 16  1  0
 18 17  1  1
 18 20  1  0
 19 18  1  0
 20 22  2  0
 20 21  1  0
M  END
$$$$
