GCR.pdb
     RDKit          3D

 22 21  0  0  1  0  0  0  0  0999 V2000
    7.4561  -13.8232   15.9178 N   0  0  0  0  0  0  0  0  0  0  0  0
    6.9493  -14.2646   17.2025 C   0  0  0  0  0  0  0  0  0  0  0  0
    7.8807  -13.8230   18.2949 C   0  0  0  0  0  0  0  0  0  0  0  0
    8.9506  -13.2244   18.0195 O   0  0  0  0  0  0  0  0  0  0  0  0
    7.5316  -14.0925   19.6349 N   0  0  0  0  0  0  0  0  0  0  0  0
    8.4460  -13.6819   20.7211 C   0  0  1  0  0  0  0  0  0  0  0  0
    7.6300  -13.7096   22.0015 C   0  0  0  0  0  0  0  0  0  0  0  0
    6.8900  -15.3415   22.1910 S   0  0  0  0  0  0  0  0  0  0  0  0
    9.5470  -14.6680   20.7144 C   0  0  0  0  0  0  0  0  0  0  0  0
    9.3111  -15.8876   20.4088 O   0  0  0  0  0  0  0  0  0  0  0  0
   15.3423  -13.8956   16.9215 N   0  0  0  0  0  0  0  0  0  0  0  0
   16.3570  -14.3868   17.7716 C   0  0  0  0  0  0  0  0  0  0  0  0
   17.5862  -13.9605   17.6738 N   0  0  0  0  0  0  0  0  0  0  0  0
   16.0807  -15.3523   18.7640 N   0  0  0  0  0  0  0  0  0  0  0  0
   14.7813  -15.8795   18.9841 C   0  0  0  0  0  0  0  0  0  0  0  0
   14.3165  -15.7800   20.3953 C   0  0  0  0  0  0  0  0  0  0  0  0
   13.2718  -14.7489   20.6207 C   0  0  0  0  0  0  0  0  0  0  0  0
   11.9318  -15.4102   20.9422 C   0  0  2  0  0  0  0  0  0  0  0  0
   10.8979  -14.3825   21.0254 N   0  0  0  0  0  0  0  0  0  0  0  0
   12.0610  -16.1922   22.1846 C   0  0  0  0  0  0  0  0  0  0  0  0
   11.3769  -15.8506   23.3196 O   0  0  0  0  0  0  0  0  0  0  0  0
   12.8362  -17.1993   22.1550 O   0  0  0  0  0  0  0  0  0  0  0  0
  1  2  1  0
  2  3  1  0
  3  5  1  0
  4  3  2  0
  5  6  1  0
  6  9  1  0
  6  7  1  1
  8  7  1  0
  9 10  2  0
  9 19  1  0
 11 12  1  0
 12 13  2  0
 12 14  1  0
 14 15  1  0
 15 16  1  0
 17 16  1  0
 18 17  1  1
 18 20  1  0
 19 18  1  0
 20 22  2  0
 20 21  1  0
M  END
$$$$
