ADA.pdb
     RDKit          3D

 19 18  0  0  1  0  0  0  0  0999 V2000
    2.7870  -18.9927   21.8144 C   0  0  0  0  0  0  0  0  0  0  0  0
    3.9000  -19.2474   20.8126 C   0  0  2  0  0  0  0  0  0  0  0  0
    3.6063  -20.4137   19.9997 N   0  0  0  0  0  0  0  0  0  0  0  0
    5.1583  -19.4219   21.5953 C   0  0  0  0  0  0  0  0  0  0  0  0
    5.0856  -20.1534   22.6079 O   0  0  0  0  0  0  0  0  0  0  0  0
    6.3304  -18.7698   21.1628 N   0  0  0  0  0  0  0  0  0  0  0  0
    7.6379  -18.9425   21.8901 C   0  0  1  0  0  0  0  0  0  0  0  0
    8.6968  -18.6951   20.8934 C   0  0  0  0  0  0  0  0  0  0  0  0
    8.8418  -19.4839   19.7126 C   0  0  0  0  0  0  0  0  0  0  0  0
    8.9186  -20.7038   19.6408 O   0  0  0  0  0  0  0  0  0  0  0  0
    7.5505  -18.0547   23.0616 C   0  0  0  0  0  0  0  0  0  0  0  0
    7.6147  -16.7686   22.9178 O   0  0  0  0  0  0  0  0  0  0  0  0
    8.9060  -18.8003   18.4767 O   0  0  0  0  0  0  0  0  0  0  0  0
    6.5833  -17.0344   26.1672 C   0  0  0  0  0  0  0  0  0  0  0  0
    7.8560  -17.6052   25.5258 C   0  0  2  0  0  0  0  0  0  0  0  0
    7.3895  -18.4251   24.4159 N   0  0  0  0  0  0  0  0  0  0  0  0
    8.5488  -18.3856   26.5502 C   0  0  0  0  0  0  0  0  0  0  0  0
    8.7434  -19.7506   26.3748 O   0  0  0  0  0  0  0  0  0  0  0  0
    8.9704  -17.8365   27.5869 O   0  0  0  0  0  0  0  0  0  0  0  0
  2  3  1  0
  2  1  1  1
  4  5  2  0
  4  2  1  0
  6  4  1  0
  7 11  1  0
  7  6  1  0
  7  8  1  6
  9  8  1  0
 10  9  2  0
 11 12  2  0
 13  9  1  0
 15 14  1  1
 16 15  1  0
 16 11  1  0
 17 18  1  0
 17 15  1  0
 19 17  2  0
M  END
$$$$
