ADA.pdb
     RDKit          3D

 19 18  0  0  1  0  0  0  0  0999 V2000
    8.1222  -12.3663   20.0931 C   0  0  0  0  0  0  0  0  0  0  0  0
    8.2828  -13.6097   19.2355 C   0  0  2  0  0  0  0  0  0  0  0  0
    7.1230  -13.8029   18.3839 N   0  0  0  0  0  0  0  0  0  0  0  0
    8.4819  -14.7581   20.1671 C   0  0  0  0  0  0  0  0  0  0  0  0
    7.4492  -15.3640   20.5304 O   0  0  0  0  0  0  0  0  0  0  0  0
    9.7890  -15.0893   20.5769 N   0  0  0  0  0  0  0  0  0  0  0  0
   10.0706  -16.3430   21.3626 C   0  0  1  0  0  0  0  0  0  0  0  0
   11.3072  -16.9130   20.7952 C   0  0  0  0  0  0  0  0  0  0  0  0
   11.9074  -18.1055   21.3005 C   0  0  0  0  0  0  0  0  0  0  0  0
   13.0623  -18.4793   21.1403 O   0  0  0  0  0  0  0  0  0  0  0  0
   10.0699  -15.9244   22.7744 C   0  0  0  0  0  0  0  0  0  0  0  0
   10.2266  -14.6777   23.0903 O   0  0  0  0  0  0  0  0  0  0  0  0
   11.0955  -18.9653   22.0752 O   0  0  0  0  0  0  0  0  0  0  0  0
    8.5050  -15.4276   25.3193 C   0  0  0  0  0  0  0  0  0  0  0  0
    9.8268  -16.2068   25.2701 C   0  0  2  0  0  0  0  0  0  0  0  0
    9.9058  -16.7399   23.9168 N   0  0  0  0  0  0  0  0  0  0  0  0
    9.7527  -17.2566   26.2855 C   0  0  0  0  0  0  0  0  0  0  0  0
    9.8632  -16.9332   27.6328 O   0  0  0  0  0  0  0  0  0  0  0  0
    9.5900  -18.4473   25.9542 O   0  0  0  0  0  0  0  0  0  0  0  0
  2  3  1  0
  2  1  1  1
  4  5  2  0
  4  2  1  0
  6  4  1  0
  7 11  1  0
  7  6  1  0
  7  8  1  6
  9  8  1  0
 10  9  2  0
 11 12  2  0
 13  9  1  0
 15 14  1  6
 16 15  1  0
 16 11  1  0
 17 18  1  0
 17 15  1  0
 19 17  2  0
M  END
$$$$
