ADA.pdb
     RDKit          3D

 19 18  0  0  1  0  0  0  0  0999 V2000
    8.4749  -12.1761   19.3353 C   0  0  0  0  0  0  0  0  0  0  0  0
    8.3834  -13.3668   18.3965 C   0  0  2  0  0  0  0  0  0  0  0  0
    7.0450  -13.4901   17.8478 N   0  0  0  0  0  0  0  0  0  0  0  0
    8.7709  -14.5730   19.1846 C   0  0  0  0  0  0  0  0  0  0  0  0
    7.8465  -15.1638   19.7865 O   0  0  0  0  0  0  0  0  0  0  0  0
   10.1225  -14.9712   19.2080 N   0  0  0  0  0  0  0  0  0  0  0  0
   10.5477  -16.2663   19.8485 C   0  0  1  0  0  0  0  0  0  0  0  0
   11.6710  -16.7745   19.0387 C   0  0  0  0  0  0  0  0  0  0  0  0
   11.4823  -17.6312   17.9126 C   0  0  0  0  0  0  0  0  0  0  0  0
   10.5432  -18.3896   17.7073 O   0  0  0  0  0  0  0  0  0  0  0  0
   10.7899  -15.9382   21.2634 C   0  0  0  0  0  0  0  0  0  0  0  0
   11.7281  -15.1080   21.5943 O   0  0  0  0  0  0  0  0  0  0  0  0
   12.4793  -17.6183   16.9103 O   0  0  0  0  0  0  0  0  0  0  0  0
    9.0269  -15.8684   24.4427 C   0  0  0  0  0  0  0  0  0  0  0  0
   10.3931  -15.9988   23.7547 C   0  0  2  0  0  0  0  0  0  0  0  0
   10.0963  -16.4258   22.3940 N   0  0  0  0  0  0  0  0  0  0  0  0
   11.1647  -16.9920   24.5010 C   0  0  0  0  0  0  0  0  0  0  0  0
   11.7148  -16.6649   25.7347 O   0  0  0  0  0  0  0  0  0  0  0  0
   11.3357  -18.1375   24.0399 O   0  0  0  0  0  0  0  0  0  0  0  0
  2  3  1  0
  2  1  1  1
  4  5  2  0
  4  2  1  0
  6  4  1  0
  7 11  1  0
  7  6  1  0
  7  8  1  6
  9  8  1  0
 10  9  2  0
 11 12  2  0
 13  9  1  0
 15 14  1  1
 16 15  1  0
 16 11  1  0
 17 18  1  0
 17 15  1  0
 19 17  2  0
M  END
$$$$
