ADA.pdb
     RDKit          3D

 19 18  0  0  1  0  0  0  0  0999 V2000
    8.3615  -12.1642   19.7266 C   0  0  0  0  0  0  0  0  0  0  0  0
    8.3372  -13.4403   18.9030 C   0  0  2  0  0  0  0  0  0  0  0  0
    7.1974  -13.4532   18.0041 N   0  0  0  0  0  0  0  0  0  0  0  0
    8.2943  -14.5791   19.8662 C   0  0  0  0  0  0  0  0  0  0  0  0
    7.1590  -14.9412   20.2479 O   0  0  0  0  0  0  0  0  0  0  0  0
    9.5040  -15.1697   20.2834 N   0  0  0  0  0  0  0  0  0  0  0  0
    9.5181  -16.3644   21.2004 C   0  0  1  0  0  0  0  0  0  0  0  0
   10.6225  -17.2247   20.7354 C   0  0  0  0  0  0  0  0  0  0  0  0
   10.8879  -18.5087   21.2997 C   0  0  0  0  0  0  0  0  0  0  0  0
   10.3588  -19.0096   22.2837 O   0  0  0  0  0  0  0  0  0  0  0  0
    9.5831  -15.8075   22.5620 C   0  0  0  0  0  0  0  0  0  0  0  0
   10.5996  -15.0947   22.9328 O   0  0  0  0  0  0  0  0  0  0  0  0
   11.8677  -19.3080   20.6673 O   0  0  0  0  0  0  0  0  0  0  0  0
    7.4354  -14.8445   25.3352 C   0  0  0  0  0  0  0  0  0  0  0  0
    8.8152  -15.3800   24.9274 C   0  0  2  0  0  0  0  0  0  0  0  0
    8.6290  -15.9407   23.5960 N   0  0  0  0  0  0  0  0  0  0  0  0
    9.2012  -16.3880   25.9140 C   0  0  0  0  0  0  0  0  0  0  0  0
    9.4922  -16.0108   27.2198 O   0  0  0  0  0  0  0  0  0  0  0  0
    9.2726  -17.5910   25.5951 O   0  0  0  0  0  0  0  0  0  0  0  0
  2  3  1  0
  2  1  1  1
  4  5  2  0
  4  2  1  0
  6  4  1  0
  7 11  1  0
  7  6  1  0
  7  8  1  6
  9  8  1  0
 10  9  2  0
 11 12  2  0
 13  9  1  0
 15 14  1  1
 16 15  1  0
 16 11  1  0
 17 18  1  0
 17 15  1  0
 19 17  2  0
M  END
$$$$
