ADA.pdb
     RDKit          3D

 19 18  0  0  1  0  0  0  0  0999 V2000
   -1.3278  -25.1975   30.0678 C   0  0  0  0  0  0  0  0  0  0  0  0
   -2.0476  -26.4226   30.6048 C   0  0  2  0  0  0  0  0  0  0  0  0
   -1.5491  -27.6319   29.9751 N   0  0  0  0  0  0  0  0  0  0  0  0
   -3.5027  -26.2222   30.3421 C   0  0  0  0  0  0  0  0  0  0  0  0
   -3.8524  -26.2010   29.1409 O   0  0  0  0  0  0  0  0  0  0  0  0
   -4.3816  -26.0713   31.4333 N   0  0  0  0  0  0  0  0  0  0  0  0
   -5.8600  -25.8708   31.2276 C   0  0  1  0  0  0  0  0  0  0  0  0
   -6.5261  -26.5446   32.3583 C   0  0  0  0  0  0  0  0  0  0  0  0
   -7.9372  -26.4866   32.5658 C   0  0  0  0  0  0  0  0  0  0  0  0
   -8.7937  -26.1684   31.7508 O   0  0  0  0  0  0  0  0  0  0  0  0
   -6.0362  -24.4174   31.0698 C   0  0  0  0  0  0  0  0  0  0  0  0
   -5.5685  -23.5983   31.9582 O   0  0  0  0  0  0  0  0  0  0  0  0
   -8.4214  -26.8311   33.8486 O   0  0  0  0  0  0  0  0  0  0  0  0
   -7.2931  -21.9606   28.5550 C   0  0  0  0  0  0  0  0  0  0  0  0
   -6.8556  -22.2893   29.9893 C   0  0  2  0  0  0  0  0  0  0  0  0
   -6.6812  -23.7353   30.0135 N   0  0  0  0  0  0  0  0  0  0  0  0
   -7.9188  -21.8352   30.8848 C   0  0  0  0  0  0  0  0  0  0  0  0
   -8.7140  -22.7613   31.5497 O   0  0  0  0  0  0  0  0  0  0  0  0
   -8.1216  -20.6178   31.0604 O   0  0  0  0  0  0  0  0  0  0  0  0
  2  3  1  0
  2  1  1  6
  4  5  2  0
  4  2  1  0
  6  4  1  0
  7 11  1  0
  7  6  1  0
  7  8  1  1
  9  8  1  0
 10  9  2  0
 11 12  2  0
 13  9  1  0
 15 14  1  6
 16 15  1  0
 16 11  1  0
 17 18  1  0
 17 15  1  0
 19 17  2  0
M  END
$$$$
