ADA.pdb
     RDKit          3D

 19 18  0  0  1  0  0  0  0  0999 V2000
    8.2030  -12.2067   19.7690 C   0  0  0  0  0  0  0  0  0  0  0  0
    8.3216  -13.7010   19.5229 C   0  0  2  0  0  0  0  0  0  0  0  0
    7.5153  -14.1024   18.3844 N   0  0  0  0  0  0  0  0  0  0  0  0
    7.8870  -14.3841   20.7763 C   0  0  0  0  0  0  0  0  0  0  0  0
    6.6694  -14.6576   20.8662 O   0  0  0  0  0  0  0  0  0  0  0  0
    8.8472  -14.6765   21.7656 N   0  0  0  0  0  0  0  0  0  0  0  0
    8.4796  -15.4298   23.0169 C   0  0  1  0  0  0  0  0  0  0  0  0
    9.3664  -16.6077   23.0614 C   0  0  0  0  0  0  0  0  0  0  0  0
    9.5235  -17.4091   24.2322 C   0  0  0  0  0  0  0  0  0  0  0  0
    8.6398  -17.9517   24.8830 O   0  0  0  0  0  0  0  0  0  0  0  0
    8.5655  -14.4407   24.1045 C   0  0  0  0  0  0  0  0  0  0  0  0
    9.6718  -13.8045   24.3284 O   0  0  0  0  0  0  0  0  0  0  0  0
   10.8383  -17.6117   24.7109 O   0  0  0  0  0  0  0  0  0  0  0  0
    6.3854  -12.4623   26.3358 C   0  0  0  0  0  0  0  0  0  0  0  0
    7.7572  -13.1048   26.0868 C   0  0  2  0  0  0  0  0  0  0  0  0
    7.5441  -14.0512   25.0002 N   0  0  0  0  0  0  0  0  0  0  0  0
    8.1657  -13.7575   27.3301 C   0  0  0  0  0  0  0  0  0  0  0  0
    8.2709  -15.1421   27.3893 O   0  0  0  0  0  0  0  0  0  0  0  0
    8.4228  -13.0810   28.3451 O   0  0  0  0  0  0  0  0  0  0  0  0
  2  3  1  0
  2  1  1  1
  4  5  2  0
  4  2  1  0
  6  4  1  0
  7 11  1  0
  7  6  1  0
  7  8  1  1
  9  8  1  0
 10  9  2  0
 11 12  2  0
 13  9  1  0
 15 14  1  1
 16 15  1  0
 16 11  1  0
 17 18  1  0
 17 15  1  0
 19 17  2  0
M  END
$$$$
