ADA.pdb
     RDKit          3D

 19 18  0  0  1  0  0  0  0  0999 V2000
    8.3075  -12.2441   19.7856 C   0  0  0  0  0  0  0  0  0  0  0  0
    8.2908  -13.4972   18.9271 C   0  0  2  0  0  0  0  0  0  0  0  0
    7.0816  -13.5584   18.1262 N   0  0  0  0  0  0  0  0  0  0  0  0
    8.3990  -14.6612   19.8543 C   0  0  0  0  0  0  0  0  0  0  0  0
    7.3212  -15.1445   20.2671 O   0  0  0  0  0  0  0  0  0  0  0  0
    9.6767  -15.1407   20.2060 N   0  0  0  0  0  0  0  0  0  0  0  0
    9.8463  -16.3925   21.0261 C   0  0  1  0  0  0  0  0  0  0  0  0
   10.9941  -17.1122   20.4425 C   0  0  0  0  0  0  0  0  0  0  0  0
   11.4451  -18.3725   20.9384 C   0  0  0  0  0  0  0  0  0  0  0  0
   12.5876  -18.8121   20.9155 O   0  0  0  0  0  0  0  0  0  0  0  0
    9.9379  -15.9324   22.4219 C   0  0  0  0  0  0  0  0  0  0  0  0
   10.9099  -15.1623   22.7976 O   0  0  0  0  0  0  0  0  0  0  0  0
   10.4812  -19.2238   21.5256 O   0  0  0  0  0  0  0  0  0  0  0  0
    7.8746  -15.4046   25.3806 C   0  0  0  0  0  0  0  0  0  0  0  0
    9.2716  -15.7556   24.8493 C   0  0  2  0  0  0  0  0  0  0  0  0
    9.0555  -16.2232   23.4868 N   0  0  0  0  0  0  0  0  0  0  0  0
    9.8217  -16.7935   25.7204 C   0  0  0  0  0  0  0  0  0  0  0  0
   10.1856  -16.4875   27.0264 O   0  0  0  0  0  0  0  0  0  0  0  0
    9.9690  -17.9585   25.3019 O   0  0  0  0  0  0  0  0  0  0  0  0
  2  3  1  0
  2  1  1  1
  4  5  2  0
  4  2  1  0
  6  4  1  0
  7 11  1  0
  7  6  1  0
  7  8  1  6
  9  8  1  0
 10  9  2  0
 11 12  2  0
 13  9  1  0
 15 14  1  1
 16 15  1  0
 16 11  1  0
 17 18  1  0
 17 15  1  0
 19 17  2  0
M  END
$$$$
