ADA.pdb
     RDKit          3D

 19 18  0  0  1  0  0  0  0  0999 V2000
   -3.8015  -27.9134   29.0237 C   0  0  0  0  0  0  0  0  0  0  0  0
   -4.9653  -26.9726   28.7633 C   0  0  2  0  0  0  0  0  0  0  0  0
   -4.5862  -25.5965   29.0280 N   0  0  0  0  0  0  0  0  0  0  0  0
   -6.0876  -27.4154   29.6413 C   0  0  0  0  0  0  0  0  0  0  0  0
   -6.5388  -28.5631   29.4297 O   0  0  0  0  0  0  0  0  0  0  0  0
   -6.5664  -26.5391   30.6358 N   0  0  0  0  0  0  0  0  0  0  0  0
   -7.7322  -26.9111   31.5138 C   0  0  1  0  0  0  0  0  0  0  0  0
   -7.1874  -27.0607   32.8764 C   0  0  0  0  0  0  0  0  0  0  0  0
   -7.3273  -28.2627   33.6335 C   0  0  0  0  0  0  0  0  0  0  0  0
   -7.8372  -28.3869   34.7397 O   0  0  0  0  0  0  0  0  0  0  0  0
   -8.7480  -25.8732   31.2702 C   0  0  0  0  0  0  0  0  0  0  0  0
   -8.4560  -24.6198   31.4202 O   0  0  0  0  0  0  0  0  0  0  0  0
   -6.8281  -29.4549   33.0606 O   0  0  0  0  0  0  0  0  0  0  0  0
  -12.3176  -25.6027   30.1710 C   0  0  0  0  0  0  0  0  0  0  0  0
  -11.0149  -24.9507   30.6555 C   0  0  2  0  0  0  0  0  0  0  0  0
  -10.0886  -26.0558   30.8621 N   0  0  0  0  0  0  0  0  0  0  0  0
  -11.3198  -24.2326   31.8924 C   0  0  0  0  0  0  0  0  0  0  0  0
  -11.8033  -22.9305   31.8421 O   0  0  0  0  0  0  0  0  0  0  0  0
  -11.1501  -24.7792   32.9998 O   0  0  0  0  0  0  0  0  0  0  0  0
  2  3  1  0
  2  1  1  1
  4  5  2  0
  4  2  1  0
  6  4  1  0
  7 11  1  0
  7  6  1  0
  7  8  1  1
  9  8  1  0
 10  9  2  0
 11 12  2  0
 13  9  1  0
 15 14  1  1
 16 15  1  0
 16 11  1  0
 17 18  1  0
 17 15  1  0
 19 17  2  0
M  END
$$$$
