ADA.pdb
     RDKit          3D

 19 18  0  0  1  0  0  0  0  0999 V2000
    8.2951  -12.2188   19.3657 C   0  0  0  0  0  0  0  0  0  0  0  0
    8.4700  -13.4548   18.5003 C   0  0  2  0  0  0  0  0  0  0  0  0
    7.3212  -13.6451   17.6334 N   0  0  0  0  0  0  0  0  0  0  0  0
    8.6617  -14.6099   19.4252 C   0  0  0  0  0  0  0  0  0  0  0  0
    7.6290  -15.2351   19.7545 O   0  0  0  0  0  0  0  0  0  0  0  0
    9.9622  -14.9258   19.8667 N   0  0  0  0  0  0  0  0  0  0  0  0
   10.2391  -16.1753   20.6606 C   0  0  1  0  0  0  0  0  0  0  0  0
   11.4852  -16.7421   20.1111 C   0  0  0  0  0  0  0  0  0  0  0  0
   12.1036  -17.9097   20.6515 C   0  0  0  0  0  0  0  0  0  0  0  0
   11.5468  -18.9124   21.0802 O   0  0  0  0  0  0  0  0  0  0  0  0
   10.2187  -15.7516   22.0707 C   0  0  0  0  0  0  0  0  0  0  0  0
   11.0948  -14.9072   22.5160 O   0  0  0  0  0  0  0  0  0  0  0  0
   13.5161  -17.9318   20.7072 O   0  0  0  0  0  0  0  0  0  0  0  0
    8.0175  -15.6662   25.0110 C   0  0  0  0  0  0  0  0  0  0  0  0
    9.4533  -15.7572   24.4753 C   0  0  2  0  0  0  0  0  0  0  0  0
    9.3160  -16.1546   23.0806 N   0  0  0  0  0  0  0  0  0  0  0  0
   10.1566  -16.7561   25.2789 C   0  0  0  0  0  0  0  0  0  0  0  0
   10.5996  -17.9364   24.6937 O   0  0  0  0  0  0  0  0  0  0  0  0
   10.3654  -16.5597   26.4921 O   0  0  0  0  0  0  0  0  0  0  0  0
  2  3  1  0
  2  1  1  1
  4  5  2  0
  4  2  1  0
  6  4  1  0
  7 11  1  0
  7  6  1  0
  7  8  1  6
  9  8  1  0
 10  9  2  0
 11 12  2  0
 13  9  1  0
 15 14  1  1
 16 15  1  0
 16 11  1  0
 17 18  1  0
 17 15  1  0
 19 17  2  0
M  END
$$$$
