ADA.pdb
     RDKit          3D

 19 18  0  0  1  0  0  0  0  0999 V2000
    8.2032  -12.2750   19.3137 C   0  0  0  0  0  0  0  0  0  0  0  0
    8.3470  -13.6599   18.7066 C   0  0  2  0  0  0  0  0  0  0  0  0
    7.2643  -13.9320   17.7787 N   0  0  0  0  0  0  0  0  0  0  0  0
    8.3620  -14.6318   19.8387 C   0  0  0  0  0  0  0  0  0  0  0  0
    7.2467  -15.0232   20.2494 O   0  0  0  0  0  0  0  0  0  0  0  0
    9.5998  -15.0453   20.3705 N   0  0  0  0  0  0  0  0  0  0  0  0
    9.6849  -16.1465   21.3945 C   0  0  1  0  0  0  0  0  0  0  0  0
   10.8642  -16.9543   21.0303 C   0  0  0  0  0  0  0  0  0  0  0  0
   11.3102  -18.0615   21.8132 C   0  0  0  0  0  0  0  0  0  0  0  0
   10.6183  -18.8457   22.4499 O   0  0  0  0  0  0  0  0  0  0  0  0
    9.6728  -15.4645   22.6995 C   0  0  0  0  0  0  0  0  0  0  0  0
   10.6112  -14.6276   23.0125 O   0  0  0  0  0  0  0  0  0  0  0  0
   12.7029  -18.2970   21.8738 O   0  0  0  0  0  0  0  0  0  0  0  0
    7.4915  -14.3069   25.3120 C   0  0  0  0  0  0  0  0  0  0  0  0
    8.8574  -14.9489   25.0313 C   0  0  2  0  0  0  0  0  0  0  0  0
    8.7168  -15.5931   23.7324 N   0  0  0  0  0  0  0  0  0  0  0  0
    9.1207  -15.9032   26.1076 C   0  0  0  0  0  0  0  0  0  0  0  0
    9.1848  -17.2643   25.8332 O   0  0  0  0  0  0  0  0  0  0  0  0
    9.2899  -15.5071   27.2774 O   0  0  0  0  0  0  0  0  0  0  0  0
  2  3  1  0
  2  1  1  1
  4  5  2  0
  4  2  1  0
  6  4  1  0
  7 11  1  0
  7  6  1  0
  7  8  1  6
  9  8  1  0
 10  9  2  0
 11 12  2  0
 13  9  1  0
 15 14  1  1
 16 15  1  0
 16 11  1  0
 17 18  1  0
 17 15  1  0
 19 17  2  0
M  END
$$$$
