KVP.pdb
     RDKit          3D

 24 24  0  0  1  0  0  0  0  0999 V2000
   14.3356  -12.4927  -11.5566 N   0  0  0  0  0  0  0  0  0  0  0  0
   13.8732  -11.1608  -11.4080 C   0  0  1  0  0  0  0  0  0  0  0  0
   12.7029  -10.9392  -10.5116 C   0  0  0  0  0  0  0  0  0  0  0  0
   11.4734  -11.6962  -10.8170 C   0  0  0  0  0  0  0  0  0  0  0  0
   11.0721  -12.7929   -9.9205 C   0  0  0  0  0  0  0  0  0  0  0  0
    9.7967  -13.4853  -10.2352 C   0  0  0  0  0  0  0  0  0  0  0  0
    9.5081  -14.5923   -9.3642 N   0  0  0  0  0  0  0  0  0  0  0  0
   15.0423  -10.3008  -11.0079 C   0  0  0  0  0  0  0  0  0  0  0  0
   16.0928  -10.8339  -10.6090 O   0  0  0  0  0  0  0  0  0  0  0  0
   17.5653   -9.7647  -12.0923 C   0  0  0  0  0  0  0  0  0  0  0  0
   16.9877   -8.3720  -12.2194 C   0  0  2  0  0  0  0  0  0  0  0  0
   18.1875   -7.4449  -12.3572 C   0  0  0  0  0  0  0  0  0  0  0  0
   16.2145   -8.0671  -10.9497 C   0  0  2  0  0  0  0  0  0  0  0  0
   14.9949   -8.8930  -11.0678 N   0  0  0  0  0  0  0  0  0  0  0  0
   15.7747   -6.6471  -11.0050 C   0  0  0  0  0  0  0  0  0  0  0  0
   15.7399   -6.0341  -12.1130 O   0  0  0  0  0  0  0  0  0  0  0  0
   15.3758   -5.9079   -9.8542 N   0  0  0  0  0  0  0  0  0  0  0  0
   15.1053   -6.5965   -8.5676 C   0  0  0  0  0  0  0  0  0  0  0  0
   15.6560   -5.6240   -7.5659 C   0  0  0  0  0  0  0  0  0  0  0  0
   15.6025   -4.2759   -8.2085 C   0  0  0  0  0  0  0  0  0  0  0  0
   15.0487   -4.5523   -9.6006 C   0  0  1  0  0  0  0  0  0  0  0  0
   15.5904   -3.5473  -10.5461 C   0  0  0  0  0  0  0  0  0  0  0  0
   14.9508   -2.3475  -10.7104 O   0  0  0  0  0  0  0  0  0  0  0  0
   16.6485   -3.7831  -11.2196 O   0  0  0  0  0  0  0  0  0  0  0  0
  2  1  1  1
  2  3  1  0
  4  3  1  0
  4  5  1  0
  5  6  1  0
  7  6  1  0
  8  2  1  0
  8  9  2  0
 11 10  1  1
 11 13  1  0
 12 11  1  0
 13 14  1  6
 14  8  1  0
 15 13  1  0
 16 15  2  0
 17 15  1  0
 17 21  1  0
 18 19  1  0
 18 17  1  0
 19 20  1  0
 20 21  1  0
 21 22  1  6
 22 24  2  0
 22 23  1  0
M  END
$$$$
