KVP.pdb
     RDKit          3D

 24 24  0  0  1  0  0  0  0  0999 V2000
   18.8946  -13.1741  -16.1498 N   0  0  0  0  0  0  0  0  0  0  0  0
   18.3918  -11.8495  -16.1966 C   0  0  1  0  0  0  0  0  0  0  0  0
   17.3681  -11.4703  -15.1815 C   0  0  0  0  0  0  0  0  0  0  0  0
   16.0792  -12.1874  -15.2311 C   0  0  0  0  0  0  0  0  0  0  0  0
   15.0374  -11.7148  -16.1577 C   0  0  0  0  0  0  0  0  0  0  0  0
   13.7302  -12.4181  -16.1142 C   0  0  0  0  0  0  0  0  0  0  0  0
   12.8357  -12.0450  -17.1763 N   0  0  0  0  0  0  0  0  0  0  0  0
   19.5624  -10.9029  -16.1764 C   0  0  0  0  0  0  0  0  0  0  0  0
   20.5895  -11.2049  -15.5433 O   0  0  0  0  0  0  0  0  0  0  0  0
   21.4840   -9.8021  -18.9757 C   0  0  0  0  0  0  0  0  0  0  0  0
   20.9537   -8.5244  -18.3627 C   0  0  2  0  0  0  0  0  0  0  0  0
   22.0507   -7.4888  -18.5678 C   0  0  0  0  0  0  0  0  0  0  0  0
   20.7193   -8.7753  -16.8845 C   0  0  2  0  0  0  0  0  0  0  0  0
   19.5423   -9.6682  -16.8565 N   0  0  0  0  0  0  0  0  0  0  0  0
   20.2971   -7.4937  -16.2585 C   0  0  0  0  0  0  0  0  0  0  0  0
   19.4344   -6.7610  -16.8275 O   0  0  0  0  0  0  0  0  0  0  0  0
   20.8167   -7.0219  -15.0186 N   0  0  0  0  0  0  0  0  0  0  0  0
   21.5190   -7.9438  -14.0916 C   0  0  0  0  0  0  0  0  0  0  0  0
   22.6152   -7.0736  -13.5496 C   0  0  0  0  0  0  0  0  0  0  0  0
   22.1322   -5.6638  -13.6591 C   0  0  0  0  0  0  0  0  0  0  0  0
   20.7632   -5.7926  -14.3151 C   0  0  1  0  0  0  0  0  0  0  0  0
   20.4940   -4.5758  -15.1179 C   0  0  0  0  0  0  0  0  0  0  0  0
   20.9870   -4.4731  -16.3915 O   0  0  0  0  0  0  0  0  0  0  0  0
   19.8092   -3.6114  -14.6387 O   0  0  0  0  0  0  0  0  0  0  0  0
  2  1  1  1
  2  3  1  0
  4  3  1  0
  4  5  1  0
  5  6  1  0
  7  6  1  0
  8  2  1  0
  8  9  2  0
 11 10  1  6
 11 13  1  0
 12 11  1  0
 13 14  1  6
 14  8  1  0
 15 13  1  0
 16 15  2  0
 17 15  1  0
 17 21  1  0
 18 19  1  0
 18 17  1  0
 19 20  1  0
 20 21  1  0
 21 22  1  6
 22 24  2  0
 22 23  1  0
M  END
$$$$
