KVP.pdb
     RDKit          3D

 24 24  0  0  1  0  0  0  0  0999 V2000
   15.9523  -11.7511  -14.9820 N   0  0  0  0  0  0  0  0  0  0  0  0
   15.4236  -10.4788  -14.6483 C   0  0  1  0  0  0  0  0  0  0  0  0
   13.9565  -10.2808  -14.8225 C   0  0  0  0  0  0  0  0  0  0  0  0
   13.2736  -11.1580  -15.7932 C   0  0  0  0  0  0  0  0  0  0  0  0
   12.0456  -11.8567  -15.3793 C   0  0  0  0  0  0  0  0  0  0  0  0
   11.3553  -12.6708  -16.4118 C   0  0  0  0  0  0  0  0  0  0  0  0
   10.0983  -13.2155  -15.9755 N   0  0  0  0  0  0  0  0  0  0  0  0
   15.8609  -10.1424  -13.2475 C   0  0  0  0  0  0  0  0  0  0  0  0
   16.2046  -11.0526  -12.4728 O   0  0  0  0  0  0  0  0  0  0  0  0
   18.1581   -7.4613  -12.9960 C   0  0  0  0  0  0  0  0  0  0  0  0
   18.0013   -8.3715  -11.7975 C   0  0  2  0  0  0  0  0  0  0  0  0
   18.5518   -9.7213  -12.2369 C   0  0  0  0  0  0  0  0  0  0  0  0
   16.5217   -8.4722  -11.4754 C   0  0  2  0  0  0  0  0  0  0  0  0
   15.8975   -8.8165  -12.7696 N   0  0  0  0  0  0  0  0  0  0  0  0
   16.0330   -7.1145  -11.1141 C   0  0  0  0  0  0  0  0  0  0  0  0
   16.1619   -6.1536  -11.9295 O   0  0  0  0  0  0  0  0  0  0  0  0
   15.4074   -6.8154   -9.8695 N   0  0  0  0  0  0  0  0  0  0  0  0
   15.0162   -7.9022   -8.9376 C   0  0  0  0  0  0  0  0  0  0  0  0
   15.3271   -7.2989   -7.5990 C   0  0  0  0  0  0  0  0  0  0  0  0
   15.2471   -5.8168   -7.7718 C   0  0  0  0  0  0  0  0  0  0  0  0
   14.9274   -5.6343   -9.2502 C   0  0  1  0  0  0  0  0  0  0  0  0
   15.5083   -4.3529   -9.7171 C   0  0  0  0  0  0  0  0  0  0  0  0
   14.7736   -3.1997   -9.6396 O   0  0  0  0  0  0  0  0  0  0  0  0
   16.6891   -4.3044  -10.1988 O   0  0  0  0  0  0  0  0  0  0  0  0
  2  1  1  1
  2  3  1  0
  4  3  1  0
  4  5  1  0
  5  6  1  0
  7  6  1  0
  8  2  1  0
  8  9  2  0
 11 10  1  6
 11 13  1  0
 12 11  1  0
 13 14  1  6
 14  8  1  0
 15 13  1  0
 16 15  2  0
 17 15  1  0
 17 21  1  0
 18 19  1  0
 18 17  1  0
 19 20  1  0
 20 21  1  0
 21 22  1  6
 22 24  2  0
 22 23  1  0
M  END
$$$$
