KVP.pdb
     RDKit          3D

 24 24  0  0  1  0  0  0  0  0999 V2000
   22.7892  -20.5350  -18.6410 N   0  0  0  0  0  0  0  0  0  0  0  0
   22.5489  -19.8698  -17.4125 C   0  0  1  0  0  0  0  0  0  0  0  0
   21.4342  -20.3806  -16.5648 C   0  0  0  0  0  0  0  0  0  0  0  0
   21.3092  -21.8453  -16.4352 C   0  0  0  0  0  0  0  0  0  0  0  0
   22.2369  -22.5624  -15.5449 C   0  0  0  0  0  0  0  0  0  0  0  0
   22.1400  -24.0441  -15.5263 C   0  0  0  0  0  0  0  0  0  0  0  0
   23.1323  -24.6795  -14.7023 N   0  0  0  0  0  0  0  0  0  0  0  0
   23.8436  -19.8195  -16.6458 C   0  0  0  0  0  0  0  0  0  0  0  0
   24.7886  -20.5552  -16.9813 O   0  0  0  0  0  0  0  0  0  0  0  0
   25.6916  -16.6827  -15.7834 C   0  0  0  0  0  0  0  0  0  0  0  0
   25.4835  -17.4299  -14.4843 C   0  0  2  0  0  0  0  0  0  0  0  0
   26.7518  -17.1992  -13.6744 C   0  0  0  0  0  0  0  0  0  0  0  0
   25.3138  -18.9020  -14.8118 C   0  0  2  0  0  0  0  0  0  0  0  0
   24.0323  -18.9589  -15.5452 N   0  0  0  0  0  0  0  0  0  0  0  0
   25.1083  -19.6395  -13.5364 C   0  0  0  0  0  0  0  0  0  0  0  0
   24.0788  -19.4185  -12.8320 O   0  0  0  0  0  0  0  0  0  0  0  0
   26.0242  -20.6114  -13.0402 N   0  0  0  0  0  0  0  0  0  0  0  0
   27.1367  -21.1067  -13.8884 C   0  0  0  0  0  0  0  0  0  0  0  0
   28.2536  -21.2471  -12.8958 C   0  0  0  0  0  0  0  0  0  0  0  0
   27.6132  -21.4559  -11.5619 C   0  0  0  0  0  0  0  0  0  0  0  0
   26.1198  -21.3811  -11.8538 C   0  0  1  0  0  0  0  0  0  0  0  0
   25.4181  -20.8546  -10.6588 C   0  0  0  0  0  0  0  0  0  0  0  0
   24.8031  -21.7172   -9.7908 O   0  0  0  0  0  0  0  0  0  0  0  0
   25.3718  -19.6011  -10.4240 O   0  0  0  0  0  0  0  0  0  0  0  0
  2  1  1  6
  2  3  1  0
  4  3  1  0
  4  5  1  0
  5  6  1  0
  7  6  1  0
  8  2  1  0
  8  9  2  0
 11 10  1  6
 11 13  1  0
 12 11  1  0
 13 14  1  6
 14  8  1  0
 15 13  1  0
 16 15  2  0
 17 15  1  0
 17 21  1  0
 18 19  1  0
 18 17  1  0
 19 20  1  0
 20 21  1  0
 21 22  1  1
 22 24  2  0
 22 23  1  0
M  END
$$$$
