KVP.pdb
     RDKit          3D

 24 24  0  0  1  0  0  0  0  0999 V2000
   23.2059  -19.5617  -17.6194 N   0  0  0  0  0  0  0  0  0  0  0  0
   23.8258  -18.7831  -16.6099 C   0  0  1  0  0  0  0  0  0  0  0  0
   22.9786  -17.7819  -15.9014 C   0  0  0  0  0  0  0  0  0  0  0  0
   21.5332  -17.7983  -16.1989 C   0  0  0  0  0  0  0  0  0  0  0  0
   20.6508  -18.6584  -15.3933 C   0  0  0  0  0  0  0  0  0  0  0  0
   19.2001  -18.6144  -15.7077 C   0  0  0  0  0  0  0  0  0  0  0  0
   18.5311  -17.4494  -15.1953 N   0  0  0  0  0  0  0  0  0  0  0  0
   24.4958  -19.7202  -15.6406 C   0  0  0  0  0  0  0  0  0  0  0  0
   24.0278  -20.8580  -15.4584 O   0  0  0  0  0  0  0  0  0  0  0  0
   28.0336  -20.6830  -15.7037 C   0  0  0  0  0  0  0  0  0  0  0  0
   27.7946  -20.1344  -14.3140 C   0  0  2  0  0  0  0  0  0  0  0  0
   28.6445  -20.9918  -13.3863 C   0  0  0  0  0  0  0  0  0  0  0  0
   26.3197  -20.2937  -13.9940 C   0  0  2  0  0  0  0  0  0  0  0  0
   25.6507  -19.3555  -14.9189 N   0  0  0  0  0  0  0  0  0  0  0  0
   26.0856  -19.7765  -12.6190 C   0  0  0  0  0  0  0  0  0  0  0  0
   26.5075  -18.6281  -12.2904 O   0  0  0  0  0  0  0  0  0  0  0  0
   25.3937  -20.5134  -11.6150 N   0  0  0  0  0  0  0  0  0  0  0  0
   24.4554  -21.6019  -11.9853 C   0  0  0  0  0  0  0  0  0  0  0  0
   24.7095  -22.6185  -10.9108 C   0  0  0  0  0  0  0  0  0  0  0  0
   25.2240  -21.8659   -9.7268 C   0  0  0  0  0  0  0  0  0  0  0  0
   25.2823  -20.4206  -10.2050 C   0  0  1  0  0  0  0  0  0  0  0  0
   26.3775  -19.7186   -9.4942 C   0  0  0  0  0  0  0  0  0  0  0  0
   26.1004  -18.9625   -8.3864 O   0  0  0  0  0  0  0  0  0  0  0  0
   27.5841  -19.8025   -9.9014 O   0  0  0  0  0  0  0  0  0  0  0  0
  2  1  1  6
  2  3  1  0
  4  3  1  0
  4  5  1  0
  5  6  1  0
  7  6  1  0
  8  2  1  0
  8  9  2  0
 11 10  1  6
 11 13  1  0
 12 11  1  0
 13 14  1  6
 14  8  1  0
 15 13  1  0
 16 15  2  0
 17 15  1  0
 17 21  1  0
 18 19  1  0
 18 17  1  0
 19 20  1  0
 20 21  1  0
 21 22  1  1
 22 24  2  0
 22 23  1  0
M  END
$$$$
