KVP.pdb
     RDKit          3D

 24 24  0  0  1  0  0  0  0  0999 V2000
   16.3928   -9.2946  -15.1189 N   0  0  0  0  0  0  0  0  0  0  0  0
   15.7407  -10.5375  -15.3180 C   0  0  1  0  0  0  0  0  0  0  0  0
   16.5273  -11.7739  -15.0450 C   0  0  0  0  0  0  0  0  0  0  0  0
   17.7231  -12.0038  -15.8788 C   0  0  0  0  0  0  0  0  0  0  0  0
   18.6272  -13.1137  -15.5351 C   0  0  0  0  0  0  0  0  0  0  0  0
   19.7980  -13.3263  -16.4235 C   0  0  0  0  0  0  0  0  0  0  0  0
   20.7286  -14.3058  -15.9315 N   0  0  0  0  0  0  0  0  0  0  0  0
   14.4536  -10.5216  -14.5371 C   0  0  0  0  0  0  0  0  0  0  0  0
   14.3561   -9.8095  -13.5221 O   0  0  0  0  0  0  0  0  0  0  0  0
   11.1863   -9.3595  -15.2777 C   0  0  0  0  0  0  0  0  0  0  0  0
   11.0235  -10.8506  -15.0785 C   0  0  2  0  0  0  0  0  0  0  0  0
    9.6372  -11.0316  -14.4758 C   0  0  0  0  0  0  0  0  0  0  0  0
   12.0964  -11.3145  -14.1107 C   0  0  2  0  0  0  0  0  0  0  0  0
   13.3357  -11.2931  -14.9150 N   0  0  0  0  0  0  0  0  0  0  0  0
   11.8315  -12.7389  -13.7736 C   0  0  0  0  0  0  0  0  0  0  0  0
   11.6667  -13.5914  -14.6960 O   0  0  0  0  0  0  0  0  0  0  0  0
   11.7495  -13.2225  -12.4359 N   0  0  0  0  0  0  0  0  0  0  0  0
   12.2179  -12.3907  -11.2996 C   0  0  0  0  0  0  0  0  0  0  0  0
   11.2023  -12.7021  -10.2393 C   0  0  0  0  0  0  0  0  0  0  0  0
   10.6607  -14.0587  -10.5548 C   0  0  0  0  0  0  0  0  0  0  0  0
   11.3795  -14.4535  -11.8388 C   0  0  1  0  0  0  0  0  0  0  0  0
   10.4987  -15.3423  -12.6337 C   0  0  0  0  0  0  0  0  0  0  0  0
   10.8040  -16.6711  -12.7629 O   0  0  0  0  0  0  0  0  0  0  0  0
    9.4543  -14.8875  -13.2091 O   0  0  0  0  0  0  0  0  0  0  0  0
  2  1  1  1
  2  3  1  0
  4  3  1  0
  4  5  1  0
  5  6  1  0
  7  6  1  0
  8  2  1  0
  8  9  2  0
 11 10  1  1
 11 13  1  0
 12 11  1  0
 13 14  1  6
 14  8  1  0
 15 13  1  0
 16 15  2  0
 17 15  1  0
 17 21  1  0
 18 19  1  0
 18 17  1  0
 19 20  1  0
 20 21  1  0
 21 22  1  6
 22 24  2  0
 22 23  1  0
M  END
$$$$
