KVP.pdb
     RDKit          3D

 24 24  0  0  1  0  0  0  0  0999 V2000
   25.3147  -21.8871  -10.9426 N   0  0  0  0  0  0  0  0  0  0  0  0
   24.6492  -21.1305  -11.9399 C   0  0  1  0  0  0  0  0  0  0  0  0
   23.7983  -19.9951  -11.4829 C   0  0  0  0  0  0  0  0  0  0  0  0
   22.3425  -20.1257  -11.6867 C   0  0  0  0  0  0  0  0  0  0  0  0
   21.8211  -21.3407  -12.3342 C   0  0  0  0  0  0  0  0  0  0  0  0
   20.3584  -21.3932  -12.5854 C   0  0  0  0  0  0  0  0  0  0  0  0
   19.5674  -21.4798  -11.3878 N   0  0  0  0  0  0  0  0  0  0  0  0
   25.6734  -20.6790  -12.9468 C   0  0  0  0  0  0  0  0  0  0  0  0
   26.7052  -20.1014  -12.5612 O   0  0  0  0  0  0  0  0  0  0  0  0
   27.5984  -22.7115  -14.9131 C   0  0  0  0  0  0  0  0  0  0  0  0
   26.9269  -21.8451  -15.9561 C   0  0  2  0  0  0  0  0  0  0  0  0
   27.9696  -21.6384  -17.0461 C   0  0  0  0  0  0  0  0  0  0  0  0
   26.5604  -20.5248  -15.3039 C   0  0  2  0  0  0  0  0  0  0  0  0
   25.5087  -20.8872  -14.3314 N   0  0  0  0  0  0  0  0  0  0  0  0
   25.9134  -19.6648  -16.3309 C   0  0  0  0  0  0  0  0  0  0  0  0
   24.8960  -20.0810  -16.9606 O   0  0  0  0  0  0  0  0  0  0  0  0
   26.3788  -18.3596  -16.6621 N   0  0  0  0  0  0  0  0  0  0  0  0
   27.2333  -17.5976  -15.7178 C   0  0  0  0  0  0  0  0  0  0  0  0
   28.1929  -16.9091  -16.6438 C   0  0  0  0  0  0  0  0  0  0  0  0
   27.4963  -16.7814  -17.9596 C   0  0  0  0  0  0  0  0  0  0  0  0
   26.1507  -17.4585  -17.7321 C   0  0  1  0  0  0  0  0  0  0  0  0
   25.6812  -18.0454  -19.0098 C   0  0  0  0  0  0  0  0  0  0  0  0
   24.8905  -17.3092  -19.8516 O   0  0  0  0  0  0  0  0  0  0  0  0
   25.9988  -19.2362  -19.3411 O   0  0  0  0  0  0  0  0  0  0  0  0
  2  1  1  1
  2  3  1  0
  4  3  1  0
  4  5  1  0
  5  6  1  0
  7  6  1  0
  8  2  1  0
  8  9  2  0
 11 10  1  1
 11 13  1  0
 12 11  1  0
 13 14  1  1
 14  8  1  0
 15 13  1  0
 16 15  2  0
 17 15  1  0
 17 21  1  0
 18 19  1  0
 18 17  1  0
 19 20  1  0
 20 21  1  0
 21 22  1  6
 22 24  2  0
 22 23  1  0
M  END
$$$$
