KVP.pdb
     RDKit          3D

 24 24  0  0  1  0  0  0  0  0999 V2000
   20.4111  -20.1104  -12.5654 N   0  0  0  0  0  0  0  0  0  0  0  0
   21.3661  -20.9627  -13.1746 C   0  0  1  0  0  0  0  0  0  0  0  0
   21.1676  -21.2934  -14.6145 C   0  0  0  0  0  0  0  0  0  0  0  0
   20.0465  -22.1943  -14.9456 C   0  0  0  0  0  0  0  0  0  0  0  0
   19.0673  -22.5262  -13.8976 C   0  0  0  0  0  0  0  0  0  0  0  0
   17.6323  -22.3601  -14.2419 C   0  0  0  0  0  0  0  0  0  0  0  0
   17.0149  -23.5568  -14.7458 N   0  0  0  0  0  0  0  0  0  0  0  0
   22.7345  -20.3856  -12.9272 C   0  0  0  0  0  0  0  0  0  0  0  0
   22.8880  -19.1517  -12.8980 O   0  0  0  0  0  0  0  0  0  0  0  0
   24.9613  -20.9123  -10.0663 C   0  0  0  0  0  0  0  0  0  0  0  0
   25.7274  -21.3842  -11.2828 C   0  0  2  0  0  0  0  0  0  0  0  0
   27.1832  -21.0331  -11.0083 C   0  0  0  0  0  0  0  0  0  0  0  0
   25.2080  -20.6231  -12.4887 C   0  0  2  0  0  0  0  0  0  0  0  0
   23.8677  -21.1992  -12.7237 N   0  0  0  0  0  0  0  0  0  0  0  0
   26.0425  -20.9917  -13.6636 C   0  0  0  0  0  0  0  0  0  0  0  0
   26.2800  -22.2096  -13.9189 O   0  0  0  0  0  0  0  0  0  0  0  0
   26.6097  -20.0317  -14.5504 N   0  0  0  0  0  0  0  0  0  0  0  0
   26.2332  -18.5992  -14.4576 C   0  0  0  0  0  0  0  0  0  0  0  0
   27.5360  -17.9101  -14.7413 C   0  0  0  0  0  0  0  0  0  0  0  0
   28.3485  -18.8584  -15.5620 C   0  0  0  0  0  0  0  0  0  0  0  0
   27.4668  -20.0955  -15.6775 C   0  0  1  0  0  0  0  0  0  0  0  0
   28.3288  -21.2960  -15.7928 C   0  0  0  0  0  0  0  0  0  0  0  0
   29.0049  -21.7611  -14.6964 O   0  0  0  0  0  0  0  0  0  0  0  0
   28.4576  -21.9071  -16.9058 O   0  0  0  0  0  0  0  0  0  0  0  0
  2  1  1  6
  2  3  1  0
  4  3  1  0
  4  5  1  0
  5  6  1  0
  7  6  1  0
  8  2  1  0
  8  9  2  0
 11 10  1  1
 11 13  1  0
 12 11  1  0
 13 14  1  6
 14  8  1  0
 15 13  1  0
 16 15  2  0
 17 15  1  0
 17 21  1  0
 18 19  1  0
 18 17  1  0
 19 20  1  0
 20 21  1  0
 21 22  1  1
 22 24  2  0
 22 23  1  0
M  END
$$$$
