KVP.pdb
     RDKit          3D

 24 24  0  0  1  0  0  0  0  0999 V2000
   28.3763  -23.8366  -17.2375 N   0  0  0  0  0  0  0  0  0  0  0  0
   27.0758  -23.4353  -16.8407 C   0  0  1  0  0  0  0  0  0  0  0  0
   26.1111  -24.5102  -16.4720 C   0  0  0  0  0  0  0  0  0  0  0  0
   25.8487  -25.5502  -17.4857 C   0  0  0  0  0  0  0  0  0  0  0  0
   25.6945  -26.9473  -17.0480 C   0  0  0  0  0  0  0  0  0  0  0  0
   25.5042  -27.9672  -18.1105 C   0  0  0  0  0  0  0  0  0  0  0  0
   25.4645  -29.3172  -17.6175 N   0  0  0  0  0  0  0  0  0  0  0  0
   27.2149  -22.4199  -15.7378 C   0  0  0  0  0  0  0  0  0  0  0  0
   28.2284  -22.4265  -15.0169 O   0  0  0  0  0  0  0  0  0  0  0  0
   27.5839  -19.0113  -15.9867 C   0  0  0  0  0  0  0  0  0  0  0  0
   26.3392  -19.1150  -15.1326 C   0  0  2  0  0  0  0  0  0  0  0  0
   26.4251  -17.9585  -14.1462 C   0  0  0  0  0  0  0  0  0  0  0  0
   26.3784  -20.4467  -14.4061 C   0  0  2  0  0  0  0  0  0  0  0  0
   26.2278  -21.4458  -15.4842 N   0  0  0  0  0  0  0  0  0  0  0  0
   25.1604  -20.5476  -13.5581 C   0  0  0  0  0  0  0  0  0  0  0  0
   24.0110  -20.4377  -14.0792 O   0  0  0  0  0  0  0  0  0  0  0  0
   25.2046  -20.7684  -12.1512 N   0  0  0  0  0  0  0  0  0  0  0  0
   26.4845  -21.0971  -11.4757 C   0  0  0  0  0  0  0  0  0  0  0  0
   26.3601  -20.3497  -10.1802 C   0  0  0  0  0  0  0  0  0  0  0  0
   24.8972  -20.2023   -9.9133 C   0  0  0  0  0  0  0  0  0  0  0  0
   24.2343  -20.8521  -11.1214 C   0  0  1  0  0  0  0  0  0  0  0  0
   22.9332  -20.1888  -11.3755 C   0  0  0  0  0  0  0  0  0  0  0  0
   22.8704  -19.0985  -12.2018 O   0  0  0  0  0  0  0  0  0  0  0  0
   21.8613  -20.6156  -10.8300 O   0  0  0  0  0  0  0  0  0  0  0  0
  2  1  1  1
  2  3  1  0
  4  3  1  0
  4  5  1  0
  5  6  1  0
  7  6  1  0
  8  2  1  0
  8  9  2  0
 11 10  1  6
 11 13  1  0
 12 11  1  0
 13 14  1  6
 14  8  1  0
 15 13  1  0
 16 15  2  0
 17 15  1  0
 17 21  1  0
 18 19  1  0
 18 17  1  0
 19 20  1  0
 20 21  1  0
 21 22  1  6
 22 24  2  0
 22 23  1  0
M  END
$$$$
