KVP.pdb
     RDKit          3D

 24 24  0  0  1  0  0  0  0  0999 V2000
   23.8388  -20.5626  -19.3159 N   0  0  0  0  0  0  0  0  0  0  0  0
   23.3194  -20.0668  -18.0935 C   0  0  1  0  0  0  0  0  0  0  0  0
   22.1519  -20.7834  -17.5058 C   0  0  0  0  0  0  0  0  0  0  0  0
   22.2410  -22.2543  -17.4254 C   0  0  0  0  0  0  0  0  0  0  0  0
   22.9814  -22.8621  -16.3075 C   0  0  0  0  0  0  0  0  0  0  0  0
   23.0579  -24.3449  -16.2795 C   0  0  0  0  0  0  0  0  0  0  0  0
   23.3326  -24.8865  -14.9762 N   0  0  0  0  0  0  0  0  0  0  0  0
   24.4541  -19.9654  -17.1092 C   0  0  0  0  0  0  0  0  0  0  0  0
   25.4944  -20.6208  -17.2967 O   0  0  0  0  0  0  0  0  0  0  0  0
   26.2005  -16.9367  -15.9789 C   0  0  0  0  0  0  0  0  0  0  0  0
   25.6480  -17.5821  -14.7270 C   0  0  2  0  0  0  0  0  0  0  0  0
   26.6899  -17.3307  -13.6457 C   0  0  0  0  0  0  0  0  0  0  0  0
   25.4960  -19.0684  -14.9934 C   0  0  2  0  0  0  0  0  0  0  0  0
   24.3852  -19.1449  -15.9648 N   0  0  0  0  0  0  0  0  0  0  0  0
   25.0148  -19.7161  -13.7437 C   0  0  0  0  0  0  0  0  0  0  0  0
   23.9175  -19.3571  -13.2223 O   0  0  0  0  0  0  0  0  0  0  0  0
   25.7316  -20.7491  -13.0737 N   0  0  0  0  0  0  0  0  0  0  0  0
   26.8345  -21.4710  -13.7556 C   0  0  0  0  0  0  0  0  0  0  0  0
   27.8234  -21.6625  -12.6429 C   0  0  0  0  0  0  0  0  0  0  0  0
   27.0395  -21.6508  -11.3708 C   0  0  0  0  0  0  0  0  0  0  0  0
   25.6057  -21.4043  -11.8231 C   0  0  1  0  0  0  0  0  0  0  0  0
   24.8801  -20.6731  -10.7572 C   0  0  0  0  0  0  0  0  0  0  0  0
   24.1821  -21.3666   -9.8046 O   0  0  0  0  0  0  0  0  0  0  0  0
   24.8897  -19.3977  -10.7126 O   0  0  0  0  0  0  0  0  0  0  0  0
  2  1  1  6
  2  3  1  0
  4  3  1  0
  4  5  1  0
  5  6  1  0
  7  6  1  0
  8  2  1  0
  8  9  2  0
 11 10  1  6
 11 13  1  0
 12 11  1  0
 13 14  1  6
 14  8  1  0
 15 13  1  0
 16 15  2  0
 17 15  1  0
 17 21  1  0
 18 19  1  0
 18 17  1  0
 19 20  1  0
 20 21  1  0
 21 22  1  1
 22 24  2  0
 22 23  1  0
M  END
$$$$
