KVP.pdb
     RDKit          3D

 24 24  0  0  1  0  0  0  0  0999 V2000
   23.2981  -21.3069  -16.2247 N   0  0  0  0  0  0  0  0  0  0  0  0
   22.9748  -20.0758  -15.6004 C   0  0  1  0  0  0  0  0  0  0  0  0
   23.3962  -19.8970  -14.1818 C   0  0  0  0  0  0  0  0  0  0  0  0
   23.2010  -21.0456  -13.2760 C   0  0  0  0  0  0  0  0  0  0  0  0
   23.9223  -22.2991  -13.5511 C   0  0  0  0  0  0  0  0  0  0  0  0
   23.7854  -23.3869  -12.5494 C   0  0  0  0  0  0  0  0  0  0  0  0
   24.6139  -24.5307  -12.8191 N   0  0  0  0  0  0  0  0  0  0  0  0
   23.4884  -18.9600  -16.4709 C   0  0  0  0  0  0  0  0  0  0  0  0
   24.5300  -19.1216  -17.1311 O   0  0  0  0  0  0  0  0  0  0  0  0
   22.0198  -17.9835  -19.2623 C   0  0  0  0  0  0  0  0  0  0  0  0
   22.0691  -16.6566  -18.5368 C   0  0  2  0  0  0  0  0  0  0  0  0
   22.3092  -15.6109  -19.6169 C   0  0  0  0  0  0  0  0  0  0  0  0
   23.2300  -16.6987  -17.5602 C   0  0  2  0  0  0  0  0  0  0  0  0
   22.8267  -17.7191  -16.5705 N   0  0  0  0  0  0  0  0  0  0  0  0
   23.2752  -15.3990  -16.8383 C   0  0  0  0  0  0  0  0  0  0  0  0
   22.1999  -14.8182  -16.5047 O   0  0  0  0  0  0  0  0  0  0  0  0
   24.4901  -14.7439  -16.4849 N   0  0  0  0  0  0  0  0  0  0  0  0
   25.7513  -15.5127  -16.3410 C   0  0  0  0  0  0  0  0  0  0  0  0
   26.7664  -14.5658  -16.9113 C   0  0  0  0  0  0  0  0  0  0  0  0
   26.2057  -13.1907  -16.7449 C   0  0  0  0  0  0  0  0  0  0  0  0
   24.8410  -13.4231  -16.1088 C   0  0  1  0  0  0  0  0  0  0  0  0
   23.9189  -12.3421  -16.5311 C   0  0  0  0  0  0  0  0  0  0  0  0
   23.6423  -11.3064  -15.6788 O   0  0  0  0  0  0  0  0  0  0  0  0
   23.3691  -12.3608  -17.6827 O   0  0  0  0  0  0  0  0  0  0  0  0
  2  1  1  6
  2  3  1  0
  4  3  1  0
  4  5  1  0
  5  6  1  0
  7  6  1  0
  8  2  1  0
  8  9  2  0
 11 10  1  6
 11 13  1  0
 12 11  1  0
 13 14  1  1
 14  8  1  0
 15 13  1  0
 16 15  2  0
 17 15  1  0
 17 21  1  0
 18 19  1  0
 18 17  1  0
 19 20  1  0
 20 21  1  0
 21 22  1  6
 22 24  2  0
 22 23  1  0
M  END
$$$$
