KVP.pdb
     RDKit          3D

 24 24  0  0  1  0  0  0  0  0999 V2000
   25.0168  -20.7276  -12.8201 N   0  0  0  0  0  0  0  0  0  0  0  0
   26.1327  -21.0312  -12.0003 C   0  0  1  0  0  0  0  0  0  0  0  0
   27.4866  -20.8866  -12.6071 C   0  0  0  0  0  0  0  0  0  0  0  0
   27.7776  -21.7093  -13.7973 C   0  0  0  0  0  0  0  0  0  0  0  0
   27.6209  -21.1093  -15.1324 C   0  0  0  0  0  0  0  0  0  0  0  0
   28.8526  -20.9511  -15.9468 C   0  0  0  0  0  0  0  0  0  0  0  0
   29.6561  -22.1412  -16.0195 N   0  0  0  0  0  0  0  0  0  0  0  0
   26.0120  -20.2324  -10.7299 C   0  0  0  0  0  0  0  0  0  0  0  0
   25.2821  -19.2258  -10.7007 O   0  0  0  0  0  0  0  0  0  0  0  0
   23.9260  -20.2612   -8.9346 C   0  0  0  0  0  0  0  0  0  0  0  0
   24.9558  -20.8361   -7.9869 C   0  0  2  0  0  0  0  0  0  0  0  0
   24.4249  -20.5526   -6.5884 C   0  0  0  0  0  0  0  0  0  0  0  0
   26.2674  -20.1100   -8.2226 C   0  0  2  0  0  0  0  0  0  0  0  0
   26.7033  -20.5838   -9.5526 N   0  0  0  0  0  0  0  0  0  0  0  0
   27.2620  -20.6202   -7.2412 C   0  0  0  0  0  0  0  0  0  0  0  0
   27.2549  -21.8412   -6.9036 O   0  0  0  0  0  0  0  0  0  0  0  0
   28.2558  -19.7971   -6.6372 N   0  0  0  0  0  0  0  0  0  0  0  0
   28.7050  -18.5451   -7.2952 C   0  0  0  0  0  0  0  0  0  0  0  0
   28.8931  -17.6227   -6.1263 C   0  0  0  0  0  0  0  0  0  0  0  0
   29.1707  -18.4895   -4.9412 C   0  0  0  0  0  0  0  0  0  0  0  0
   29.0845  -19.9071   -5.4925 C   0  0  1  0  0  0  0  0  0  0  0  0
   28.6210  -20.8176   -4.4185 C   0  0  0  0  0  0  0  0  0  0  0  0
   29.5211  -21.3406   -3.5285 O   0  0  0  0  0  0  0  0  0  0  0  0
   27.3884  -21.1300   -4.3093 O   0  0  0  0  0  0  0  0  0  0  0  0
  2  1  1  6
  2  3  1  0
  4  3  1  0
  4  5  1  0
  5  6  1  0
  7  6  1  0
  8  2  1  0
  8  9  2  0
 11 10  1  6
 11 13  1  0
 12 11  1  0
 13 14  1  6
 14  8  1  0
 15 13  1  0
 16 15  2  0
 17 15  1  0
 17 21  1  0
 18 19  1  0
 18 17  1  0
 19 20  1  0
 20 21  1  0
 21 22  1  1
 22 24  2  0
 22 23  1  0
M  END
$$$$
