KIW.pdb
     RDKit          3D

 32 33  0  0  1  0  0  0  0  0999 V2000
   25.1966  -24.2421  -16.6220 N   0  0  0  0  0  0  0  0  0  0  0  0
   24.8888  -23.0515  -15.8524 C   0  0  1  0  0  0  0  0  0  0  0  0
   23.4095  -23.0203  -15.4801 C   0  0  0  0  0  0  0  0  0  0  0  0
   22.5474  -22.7598  -16.6646 C   0  0  0  0  0  0  0  0  0  0  0  0
   22.6684  -21.3854  -17.2420 C   0  0  0  0  0  0  0  0  0  0  0  0
   21.7517  -21.0512  -18.3650 C   0  0  0  0  0  0  0  0  0  0  0  0
   21.8469  -19.7185  -18.8831 N   0  0  0  0  0  0  0  0  0  0  0  0
   25.7606  -22.9331  -14.6563 C   0  0  0  0  0  0  0  0  0  0  0  0
   25.7791  -23.9120  -13.8898 O   0  0  0  0  0  0  0  0  0  0  0  0
   30.1081  -20.7799  -11.8898 C   0  0  0  0  0  0  0  0  0  0  0  0
   28.8954  -19.9129  -12.1047 C   0  0  0  0  0  0  0  0  0  0  0  0
   28.0266  -20.2660  -13.2347 C   0  0  2  0  0  0  0  0  0  0  0  0
   27.2396  -19.0155  -13.6347 C   0  0  0  0  0  0  0  0  0  0  0  0
   27.0676  -21.3764  -13.1047 C   0  0  2  0  0  0  0  0  0  0  0  0
   26.5295  -21.7969  -14.3807 N   0  0  0  0  0  0  0  0  0  0  0  0
   26.0655  -21.2743  -12.0159 C   0  0  0  0  0  0  0  0  0  0  0  0
   24.8620  -20.9885  -12.1488 O   0  0  0  0  0  0  0  0  0  0  0  0
   26.5017  -21.5298  -10.6844 N   0  0  0  0  0  0  0  0  0  0  0  0
   25.4595  -21.5032   -9.6348 C   0  0  1  0  0  0  0  0  0  0  0  0
   26.2548  -21.7272   -8.3505 C   0  0  0  0  0  0  0  0  0  0  0  0
   26.7578  -20.5257   -7.7054 C   0  0  0  0  0  0  0  0  0  0  0  0
   26.3504  -19.2384   -8.0638 C   0  0  0  0  0  0  0  0  0  0  0  0
   27.0258  -18.3313   -7.3099 N   0  0  0  0  0  0  0  0  0  0  0  0
   27.8481  -18.9932   -6.4838 C   0  0  0  0  0  0  0  0  0  0  0  0
   28.7353  -18.5556   -5.5136 C   0  0  0  0  0  0  0  0  0  0  0  0
   29.4896  -19.4353   -4.7477 C   0  0  0  0  0  0  0  0  0  0  0  0
   29.3270  -20.7919   -4.9849 C   0  0  0  0  0  0  0  0  0  0  0  0
   28.4480  -21.2031   -5.9463 C   0  0  0  0  0  0  0  0  0  0  0  0
   27.6873  -20.3388   -6.7223 C   0  0  0  0  0  0  0  0  0  0  0  0
   24.8735  -20.1725   -9.6226 C   0  0  0  0  0  0  0  0  0  0  0  0
   25.5514  -19.1804   -9.9640 O   0  0  0  0  0  0  0  0  0  0  0  0
   23.5454  -19.9128   -9.2445 O   0  0  0  0  0  0  0  0  0  0  0  0
  2  1  1  1
  2  3  1  0
  3  4  1  0
  5  4  1  0
  6  5  1  0
  7  6  1  0
  8  2  1  0
  9  8  2  0
 10 11  1  0
 11 12  1  0
 12 13  1  1
 12 14  1  0
 14 16  1  0
 14 15  1  6
 15  8  1  0
 16 17  2  0
 18 16  1  0
 18 19  1  0
 19 20  1  1
 20 21  1  0
 21 29  1  0
 22 21  2  0
 22 23  1  0
 23 24  1  0
 24 25  1  0
 25 26  2  0
 27 26  1  0
 28 27  2  0
 29 24  2  0
 29 28  1  0
 30 32  1  0
 30 19  1  0
 31 30  2  0
M  END
$$$$
