KIW.pdb
     RDKit          3D

 32 33  0  0  1  0  0  0  0  0999 V2000
   24.3072  -20.2764  -15.7153 N   0  0  0  0  0  0  0  0  0  0  0  0
   24.2541  -19.9636  -14.2998 C   0  0  1  0  0  0  0  0  0  0  0  0
   22.8204  -20.0478  -13.7847 C   0  0  0  0  0  0  0  0  0  0  0  0
   22.1108  -18.7461  -13.9117 C   0  0  0  0  0  0  0  0  0  0  0  0
   22.6826  -17.8135  -14.9315 C   0  0  0  0  0  0  0  0  0  0  0  0
   22.0218  -16.4876  -15.0670 C   0  0  0  0  0  0  0  0  0  0  0  0
   20.6097  -16.5074  -15.3111 N   0  0  0  0  0  0  0  0  0  0  0  0
   25.1733  -20.8258  -13.5145 C   0  0  0  0  0  0  0  0  0  0  0  0
   24.8244  -22.0099  -13.3659 O   0  0  0  0  0  0  0  0  0  0  0  0
   30.8134  -22.0301  -12.4789 C   0  0  0  0  0  0  0  0  0  0  0  0
   29.8005  -21.3066  -11.6310 C   0  0  0  0  0  0  0  0  0  0  0  0
   28.7034  -20.6393  -12.3433 C   0  0  2  0  0  0  0  0  0  0  0  0
   28.7591  -19.1472  -12.0059 C   0  0  0  0  0  0  0  0  0  0  0  0
   27.3158  -21.0920  -12.1443 C   0  0  2  0  0  0  0  0  0  0  0  0
   26.3711  -20.3603  -12.9608 N   0  0  0  0  0  0  0  0  0  0  0  0
   26.8772  -21.3179  -10.7455 C   0  0  0  0  0  0  0  0  0  0  0  0
   27.4040  -22.0913   -9.9256 O   0  0  0  0  0  0  0  0  0  0  0  0
   25.7507  -20.5846  -10.2750 N   0  0  0  0  0  0  0  0  0  0  0  0
   25.3277  -20.8511   -8.8827 C   0  0  1  0  0  0  0  0  0  0  0  0
   25.3684  -19.4677   -8.2369 C   0  0  0  0  0  0  0  0  0  0  0  0
   26.6177  -19.1167   -7.5822 C   0  0  0  0  0  0  0  0  0  0  0  0
   27.4307  -18.0614   -8.0030 C   0  0  0  0  0  0  0  0  0  0  0  0
   28.5398  -18.0134   -7.2188 N   0  0  0  0  0  0  0  0  0  0  0  0
   28.4631  -18.9988   -6.3132 C   0  0  0  0  0  0  0  0  0  0  0  0
   29.3104  -19.3797   -5.2853 C   0  0  0  0  0  0  0  0  0  0  0  0
   29.0193  -20.4429   -4.4400 C   0  0  0  0  0  0  0  0  0  0  0  0
   27.8326  -21.1268   -4.6571 C   0  0  0  0  0  0  0  0  0  0  0  0
   27.0113  -20.7362   -5.6764 C   0  0  0  0  0  0  0  0  0  0  0  0
   27.2864  -19.6778   -6.5318 C   0  0  0  0  0  0  0  0  0  0  0  0
   23.9570  -21.3351   -8.9184 C   0  0  0  0  0  0  0  0  0  0  0  0
   23.3055  -21.3095   -9.9838 O   0  0  0  0  0  0  0  0  0  0  0  0
   23.2882  -21.8551   -7.7975 O   0  0  0  0  0  0  0  0  0  0  0  0
  2  1  1  6
  2  3  1  0
  3  4  1  0
  5  4  1  0
  6  5  1  0
  7  6  1  0
  8  2  1  0
  9  8  2  0
 10 11  1  0
 11 12  1  0
 12 13  1  1
 12 14  1  0
 14 16  1  0
 14 15  1  1
 15  8  1  0
 16 17  2  0
 18 16  1  0
 18 19  1  0
 19 20  1  1
 20 21  1  0
 21 29  1  0
 22 21  2  0
 22 23  1  0
 23 24  1  0
 24 25  1  0
 25 26  2  0
 27 26  1  0
 28 27  2  0
 29 24  2  0
 29 28  1  0
 30 32  1  0
 30 19  1  0
 31 30  2  0
M  END
$$$$
