KIW.pdb
     RDKit          3D

 32 33  0  0  1  0  0  0  0  0999 V2000
   28.0462  -22.4750  -17.1757 N   0  0  0  0  0  0  0  0  0  0  0  0
   27.4255  -21.3263  -16.5435 C   0  0  1  0  0  0  0  0  0  0  0  0
   26.6425  -20.5084  -17.5661 C   0  0  0  0  0  0  0  0  0  0  0  0
   27.5299  -19.6028  -18.3450 C   0  0  0  0  0  0  0  0  0  0  0  0
   28.9616  -19.5980  -17.9122 C   0  0  0  0  0  0  0  0  0  0  0  0
   29.8653  -18.6437  -18.6091 C   0  0  0  0  0  0  0  0  0  0  0  0
   29.4760  -18.2568  -19.9329 N   0  0  0  0  0  0  0  0  0  0  0  0
   26.5772  -21.7276  -15.3928 C   0  0  0  0  0  0  0  0  0  0  0  0
   25.9217  -22.7750  -15.5314 O   0  0  0  0  0  0  0  0  0  0  0  0
   26.3907  -21.2032   -9.2591 C   0  0  0  0  0  0  0  0  0  0  0  0
   25.6007  -21.3427  -10.5338 C   0  0  0  0  0  0  0  0  0  0  0  0
   26.3231  -21.0871  -11.7864 C   0  0  2  0  0  0  0  0  0  0  0  0
   26.9130  -19.6766  -11.7126 C   0  0  0  0  0  0  0  0  0  0  0  0
   25.6236  -21.2132  -13.0766 C   0  0  2  0  0  0  0  0  0  0  0  0
   26.4994  -20.9891  -14.2067 N   0  0  0  0  0  0  0  0  0  0  0  0
   24.2953  -20.5623  -13.1867 C   0  0  0  0  0  0  0  0  0  0  0  0
   24.0795  -19.3390  -13.2566 O   0  0  0  0  0  0  0  0  0  0  0  0
   23.1447  -21.4007  -13.2232 N   0  0  0  0  0  0  0  0  0  0  0  0
   21.8348  -20.7167  -13.2940 C   0  0  1  0  0  0  0  0  0  0  0  0
   20.8871  -21.8275  -13.7414 C   0  0  0  0  0  0  0  0  0  0  0  0
   19.4946  -21.4406  -13.8966 C   0  0  0  0  0  0  0  0  0  0  0  0
   18.9509  -21.0140  -15.1106 C   0  0  0  0  0  0  0  0  0  0  0  0
   17.6448  -20.6874  -14.9236 N   0  0  0  0  0  0  0  0  0  0  0  0
   17.3361  -20.8909  -13.6351 C   0  0  0  0  0  0  0  0  0  0  0  0
   16.1546  -20.7303  -12.9295 C   0  0  0  0  0  0  0  0  0  0  0  0
   16.0540  -21.0236  -11.5755 C   0  0  0  0  0  0  0  0  0  0  0  0
   17.1918  -21.4918  -10.9357 C   0  0  0  0  0  0  0  0  0  0  0  0
   18.3472  -21.6424  -11.6489 C   0  0  0  0  0  0  0  0  0  0  0  0
   18.4668  -21.3529  -13.0015 C   0  0  0  0  0  0  0  0  0  0  0  0
   21.4845  -20.2851  -11.9504 C   0  0  0  0  0  0  0  0  0  0  0  0
   20.8712  -19.2117  -11.7714 O   0  0  0  0  0  0  0  0  0  0  0  0
   21.7939  -21.0203  -10.7938 O   0  0  0  0  0  0  0  0  0  0  0  0
  2  1  1  6
  2  3  1  0
  3  4  1  0
  5  4  1  0
  6  5  1  0
  7  6  1  0
  8  2  1  0
  9  8  2  0
 10 11  1  0
 11 12  1  0
 12 13  1  1
 12 14  1  0
 14 16  1  0
 14 15  1  6
 15  8  1  0
 16 17  2  0
 18 16  1  0
 18 19  1  0
 19 20  1  1
 20 21  1  0
 21 29  1  0
 22 21  2  0
 22 23  1  0
 23 24  1  0
 24 25  1  0
 25 26  2  0
 27 26  1  0
 28 27  2  0
 29 24  2  0
 29 28  1  0
 30 32  1  0
 30 19  1  0
 31 30  2  0
M  END
$$$$
