KIW.pdb
     RDKit          3D

 32 33  0  0  1  0  0  0  0  0999 V2000
   26.1857  -20.0365  -19.8368 N   0  0  0  0  0  0  0  0  0  0  0  0
   25.9384  -21.1296  -18.9157 C   0  0  1  0  0  0  0  0  0  0  0  0
   26.4880  -22.4382  -19.4753 C   0  0  0  0  0  0  0  0  0  0  0  0
   27.4629  -22.2024  -20.5745 C   0  0  0  0  0  0  0  0  0  0  0  0
   28.8096  -22.8185  -20.3652 C   0  0  0  0  0  0  0  0  0  0  0  0
   29.1097  -24.0467  -21.1491 C   0  0  0  0  0  0  0  0  0  0  0  0
   28.3020  -24.2670  -22.3123 N   0  0  0  0  0  0  0  0  0  0  0  0
   26.4790  -20.8382  -17.5637 C   0  0  0  0  0  0  0  0  0  0  0  0
   27.3690  -21.6021  -17.1508 O   0  0  0  0  0  0  0  0  0  0  0  0
   27.5721  -16.3356  -17.2369 C   0  0  0  0  0  0  0  0  0  0  0  0
   27.9503  -17.4439  -16.2898 C   0  0  0  0  0  0  0  0  0  0  0  0
   26.8868  -17.9516  -15.4136 C   0  0  2  0  0  0  0  0  0  0  0  0
   27.2703  -17.6269  -13.9677 C   0  0  0  0  0  0  0  0  0  0  0  0
   26.5070  -19.3737  -15.4678 C   0  0  2  0  0  0  0  0  0  0  0  0
   26.0323  -19.7717  -16.7757 N   0  0  0  0  0  0  0  0  0  0  0  0
   25.7064  -19.8986  -14.3347 C   0  0  0  0  0  0  0  0  0  0  0  0
   24.4648  -19.9160  -14.2575 O   0  0  0  0  0  0  0  0  0  0  0  0
   26.4073  -20.4443  -13.2215 N   0  0  0  0  0  0  0  0  0  0  0  0
   25.5777  -20.9464  -12.1043 C   0  0  1  0  0  0  0  0  0  0  0  0
   26.6138  -21.3613  -11.0620 C   0  0  0  0  0  0  0  0  0  0  0  0
   26.2659  -21.0721   -9.6806 C   0  0  0  0  0  0  0  0  0  0  0  0
   25.0252  -21.3896   -9.1227 C   0  0  0  0  0  0  0  0  0  0  0  0
   24.9929  -20.9588   -7.8340 N   0  0  0  0  0  0  0  0  0  0  0  0
   26.1677  -20.3791   -7.5500 C   0  0  0  0  0  0  0  0  0  0  0  0
   26.6562  -19.7948   -6.3925 C   0  0  0  0  0  0  0  0  0  0  0  0
   27.9360  -19.2606   -6.3148 C   0  0  0  0  0  0  0  0  0  0  0  0
   28.7284  -19.3297   -7.4507 C   0  0  0  0  0  0  0  0  0  0  0  0
   28.2282  -19.9090   -8.5822 C   0  0  0  0  0  0  0  0  0  0  0  0
   26.9516  -20.4463   -8.6788 C   0  0  0  0  0  0  0  0  0  0  0  0
   24.7916  -19.8329  -11.5978 C   0  0  0  0  0  0  0  0  0  0  0  0
   25.2021  -18.6601  -11.7253 O   0  0  0  0  0  0  0  0  0  0  0  0
   23.5520  -19.9873  -10.9546 O   0  0  0  0  0  0  0  0  0  0  0  0
  2  1  1  6
  2  3  1  0
  3  4  1  0
  5  4  1  0
  6  5  1  0
  7  6  1  0
  8  2  1  0
  9  8  2  0
 10 11  1  0
 11 12  1  0
 12 13  1  1
 12 14  1  0
 14 16  1  0
 14 15  1  6
 15  8  1  0
 16 17  2  0
 18 16  1  0
 18 19  1  0
 19 20  1  1
 20 21  1  0
 21 29  1  0
 22 21  2  0
 22 23  1  0
 23 24  1  0
 24 25  1  0
 25 26  2  0
 27 26  1  0
 28 27  2  0
 29 24  2  0
 29 28  1  0
 30 32  1  0
 30 19  1  0
 31 30  2  0
M  END
$$$$
