KIW.pdb
     RDKit          3D

 32 33  0  0  1  0  0  0  0  0999 V2000
   28.0487  -22.0131  -16.2012 N   0  0  0  0  0  0  0  0  0  0  0  0
   27.4114  -20.8546  -15.6043 C   0  0  1  0  0  0  0  0  0  0  0  0
   26.8136  -19.9556  -16.6824 C   0  0  0  0  0  0  0  0  0  0  0  0
   27.8323  -19.5454  -17.6865 C   0  0  0  0  0  0  0  0  0  0  0  0
   28.8798  -18.6084  -17.1748 C   0  0  0  0  0  0  0  0  0  0  0  0
   29.0222  -17.3125  -17.8913 C   0  0  0  0  0  0  0  0  0  0  0  0
   29.6459  -17.3684  -19.1804 N   0  0  0  0  0  0  0  0  0  0  0  0
   26.3992  -21.2485  -14.5918 C   0  0  0  0  0  0  0  0  0  0  0  0
   25.6922  -22.2316  -14.8742 O   0  0  0  0  0  0  0  0  0  0  0  0
   27.3332  -20.8449   -9.1583 C   0  0  0  0  0  0  0  0  0  0  0  0
   26.8945  -21.1627  -10.5636 C   0  0  0  0  0  0  0  0  0  0  0  0
   25.6481  -20.5355  -11.0212 C   0  0  2  0  0  0  0  0  0  0  0  0
   24.5264  -20.9659  -10.0728 C   0  0  0  0  0  0  0  0  0  0  0  0
   25.1783  -20.7553  -12.3998 C   0  0  2  0  0  0  0  0  0  0  0  0
   26.2275  -20.5711  -13.3795 N   0  0  0  0  0  0  0  0  0  0  0  0
   23.8755  -20.1504  -12.7697 C   0  0  0  0  0  0  0  0  0  0  0  0
   23.3631  -19.1385  -12.2584 O   0  0  0  0  0  0  0  0  0  0  0  0
   23.1269  -20.7687  -13.8116 N   0  0  0  0  0  0  0  0  0  0  0  0
   21.8666  -20.0994  -14.2019 C   0  0  1  0  0  0  0  0  0  0  0  0
   22.0694  -19.8183  -15.6892 C   0  0  0  0  0  0  0  0  0  0  0  0
   20.9311  -19.2338  -16.3789 C   0  0  0  0  0  0  0  0  0  0  0  0
   20.0449  -18.3416  -15.7706 C   0  0  0  0  0  0  0  0  0  0  0  0
   19.0704  -18.0075  -16.6572 N   0  0  0  0  0  0  0  0  0  0  0  0
   19.3034  -18.6534  -17.8084 C   0  0  0  0  0  0  0  0  0  0  0  0
   18.6327  -18.6563  -19.0207 C   0  0  0  0  0  0  0  0  0  0  0  0
   19.0695  -19.4025  -20.1079 C   0  0  0  0  0  0  0  0  0  0  0  0
   20.2195  -20.1600  -19.9438 C   0  0  0  0  0  0  0  0  0  0  0  0
   20.8658  -20.1442  -18.7404 C   0  0  0  0  0  0  0  0  0  0  0  0
   20.4433  -19.4063  -17.6428 C   0  0  0  0  0  0  0  0  0  0  0  0
   20.7830  -21.0530  -14.0266 C   0  0  0  0  0  0  0  0  0  0  0  0
   20.9971  -22.2791  -14.1319 O   0  0  0  0  0  0  0  0  0  0  0  0
   19.4612  -20.6798  -13.7304 O   0  0  0  0  0  0  0  0  0  0  0  0
  2  1  1  6
  2  3  1  0
  3  4  1  0
  5  4  1  0
  6  5  1  0
  7  6  1  0
  8  2  1  0
  9  8  2  0
 10 11  1  0
 11 12  1  0
 12 13  1  1
 12 14  1  0
 14 16  1  0
 14 15  1  6
 15  8  1  0
 16 17  2  0
 18 16  1  0
 18 19  1  0
 19 20  1  6
 20 21  1  0
 21 29  1  0
 22 21  2  0
 22 23  1  0
 23 24  1  0
 24 25  1  0
 25 26  2  0
 27 26  1  0
 28 27  2  0
 29 24  2  0
 29 28  1  0
 30 32  1  0
 30 19  1  0
 31 30  2  0
M  END
$$$$
