KIW.pdb
     RDKit          3D

 32 33  0  0  1  0  0  0  0  0999 V2000
   23.5235  -18.7010  -16.2521 N   0  0  0  0  0  0  0  0  0  0  0  0
   23.1671  -18.9811  -14.8741 C   0  0  1  0  0  0  0  0  0  0  0  0
   21.7813  -19.6147  -14.7960 C   0  0  0  0  0  0  0  0  0  0  0  0
   20.7372  -18.7334  -15.3854 C   0  0  0  0  0  0  0  0  0  0  0  0
   19.5664  -18.4612  -14.4954 C   0  0  0  0  0  0  0  0  0  0  0  0
   18.2561  -18.2447  -15.1655 C   0  0  0  0  0  0  0  0  0  0  0  0
   18.1791  -18.6323  -16.5431 N   0  0  0  0  0  0  0  0  0  0  0  0
   24.1941  -19.8175  -14.2029 C   0  0  0  0  0  0  0  0  0  0  0  0
   23.9430  -21.0321  -14.1152 O   0  0  0  0  0  0  0  0  0  0  0  0
   29.3810  -19.2044  -15.4964 C   0  0  0  0  0  0  0  0  0  0  0  0
   28.0051  -19.6039  -15.0318 C   0  0  0  0  0  0  0  0  0  0  0  0
   27.7876  -19.6456  -13.5802 C   0  0  2  0  0  0  0  0  0  0  0  0
   28.8187  -20.6014  -12.9749 C   0  0  0  0  0  0  0  0  0  0  0  0
   26.4658  -20.0158  -13.0459 C   0  0  2  0  0  0  0  0  0  0  0  0
   25.3866  -19.2967  -13.6883 N   0  0  0  0  0  0  0  0  0  0  0  0
   26.3437  -20.1240  -11.5716 C   0  0  0  0  0  0  0  0  0  0  0  0
   26.5380  -19.2112  -10.7488 O   0  0  0  0  0  0  0  0  0  0  0  0
   25.9629  -21.3833  -11.0263 N   0  0  0  0  0  0  0  0  0  0  0  0
   25.5162  -21.3810   -9.6160 C   0  0  1  0  0  0  0  0  0  0  0  0
   26.5509  -20.4948   -8.9258 C   0  0  0  0  0  0  0  0  0  0  0  0
   26.7076  -20.7082   -7.4966 C   0  0  0  0  0  0  0  0  0  0  0  0
   25.8753  -21.5492   -6.7539 C   0  0  0  0  0  0  0  0  0  0  0  0
   26.2497  -21.5064   -5.4480 N   0  0  0  0  0  0  0  0  0  0  0  0
   27.2903  -20.6696   -5.3313 C   0  0  0  0  0  0  0  0  0  0  0  0
   28.0492  -20.2824   -4.2387 C   0  0  0  0  0  0  0  0  0  0  0  0
   29.1146  -19.3984   -4.3518 C   0  0  0  0  0  0  0  0  0  0  0  0
   29.4046  -18.9038   -5.6145 C   0  0  0  0  0  0  0  0  0  0  0  0
   28.6440  -19.2971   -6.6789 C   0  0  0  0  0  0  0  0  0  0  0  0
   27.5750  -20.1780   -6.5846 C   0  0  0  0  0  0  0  0  0  0  0  0
   24.2109  -20.7426   -9.5633 C   0  0  0  0  0  0  0  0  0  0  0  0
   23.5304  -20.7816   -8.5165 O   0  0  0  0  0  0  0  0  0  0  0  0
   23.6398  -20.0534  -10.6463 O   0  0  0  0  0  0  0  0  0  0  0  0
  2  1  1  6
  2  3  1  0
  3  4  1  0
  5  4  1  0
  6  5  1  0
  7  6  1  0
  8  2  1  0
  9  8  2  0
 10 11  1  0
 11 12  1  0
 12 13  1  1
 12 14  1  0
 14 16  1  0
 14 15  1  1
 15  8  1  0
 16 17  2  0
 18 16  1  0
 18 19  1  0
 19 20  1  1
 20 21  1  0
 21 29  1  0
 22 21  2  0
 22 23  1  0
 23 24  1  0
 24 25  1  0
 25 26  2  0
 27 26  1  0
 28 27  2  0
 29 24  2  0
 29 28  1  0
 30 32  1  0
 30 19  1  0
 31 30  2  0
M  END
$$$$
