KIW.pdb
     RDKit          3D

 32 33  0  0  1  0  0  0  0  0999 V2000
   27.0887  -22.4018  -15.2214 N   0  0  0  0  0  0  0  0  0  0  0  0
   25.6672  -22.1150  -15.1815 C   0  0  1  0  0  0  0  0  0  0  0  0
   24.9580  -22.7478  -16.3750 C   0  0  0  0  0  0  0  0  0  0  0  0
   25.9198  -23.1666  -17.4303 C   0  0  0  0  0  0  0  0  0  0  0  0
   25.2946  -23.7530  -18.6560 C   0  0  0  0  0  0  0  0  0  0  0  0
   26.2231  -24.2010  -19.7285 C   0  0  0  0  0  0  0  0  0  0  0  0
   27.1934  -23.2413  -20.1658 N   0  0  0  0  0  0  0  0  0  0  0  0
   25.0605  -22.5362  -13.8933 C   0  0  0  0  0  0  0  0  0  0  0  0
   24.1410  -23.3701  -13.9648 O   0  0  0  0  0  0  0  0  0  0  0  0
   25.6385  -20.4275   -7.9742 C   0  0  0  0  0  0  0  0  0  0  0  0
   24.7606  -20.7872   -9.1439 C   0  0  0  0  0  0  0  0  0  0  0  0
   25.4441  -21.1751  -10.3843 C   0  0  2  0  0  0  0  0  0  0  0  0
   26.3920  -20.0392  -10.7769 C   0  0  0  0  0  0  0  0  0  0  0  0
   24.6561  -21.5331  -11.5762 C   0  0  2  0  0  0  0  0  0  0  0  0
   25.4787  -22.0402  -12.6535 N   0  0  0  0  0  0  0  0  0  0  0  0
   23.6064  -20.5746  -11.9999 C   0  0  0  0  0  0  0  0  0  0  0  0
   23.7668  -19.3620  -12.2278 O   0  0  0  0  0  0  0  0  0  0  0  0
   22.2830  -21.0713  -12.1737 N   0  0  0  0  0  0  0  0  0  0  0  0
   21.1831  -20.1605  -11.7875 C   0  0  1  0  0  0  0  0  0  0  0  0
   21.0868  -19.2086  -12.9778 C   0  0  0  0  0  0  0  0  0  0  0  0
   21.1135  -19.8369  -14.2884 C   0  0  0  0  0  0  0  0  0  0  0  0
   20.2720  -20.8928  -14.6467 C   0  0  0  0  0  0  0  0  0  0  0  0
   20.5647  -21.2850  -15.9147 N   0  0  0  0  0  0  0  0  0  0  0  0
   21.5612  -20.5174  -16.3779 C   0  0  0  0  0  0  0  0  0  0  0  0
   22.2186  -20.4894  -17.5972 C   0  0  0  0  0  0  0  0  0  0  0  0
   23.2312  -19.5793  -17.8728 C   0  0  0  0  0  0  0  0  0  0  0  0
   23.5732  -18.6804  -16.8738 C   0  0  0  0  0  0  0  0  0  0  0  0
   22.9137  -18.7247  -15.6783 C   0  0  0  0  0  0  0  0  0  0  0  0
   21.9009  -19.6278  -15.3845 C   0  0  0  0  0  0  0  0  0  0  0  0
   19.9652  -20.9489  -11.6906 C   0  0  0  0  0  0  0  0  0  0  0  0
   18.8806  -20.4027  -11.3982 O   0  0  0  0  0  0  0  0  0  0  0  0
   19.9180  -22.3349  -11.9163 O   0  0  0  0  0  0  0  0  0  0  0  0
  2  1  1  1
  2  3  1  0
  3  4  1  0
  5  4  1  0
  6  5  1  0
  7  6  1  0
  8  2  1  0
  9  8  2  0
 10 11  1  0
 11 12  1  0
 12 13  1  6
 12 14  1  0
 14 16  1  0
 14 15  1  6
 15  8  1  0
 16 17  2  0
 18 16  1  0
 18 19  1  0
 19 20  1  6
 20 21  1  0
 21 29  1  0
 22 21  2  0
 22 23  1  0
 23 24  1  0
 24 25  1  0
 25 26  2  0
 27 26  1  0
 28 27  2  0
 29 24  2  0
 29 28  1  0
 30 32  1  0
 30 19  1  0
 31 30  2  0
M  END
$$$$
