KIW.pdb
     RDKit          3D

 32 33  0  0  1  0  0  0  0  0999 V2000
   27.6443  -21.3465  -17.5211 N   0  0  0  0  0  0  0  0  0  0  0  0
   26.8980  -20.3568  -16.7675 C   0  0  1  0  0  0  0  0  0  0  0  0
   26.1127  -19.4466  -17.7071 C   0  0  0  0  0  0  0  0  0  0  0  0
   26.9979  -18.7875  -18.7051 C   0  0  0  0  0  0  0  0  0  0  0  0
   27.8160  -17.6550  -18.1711 C   0  0  0  0  0  0  0  0  0  0  0  0
   28.5778  -16.8552  -19.1676 C   0  0  0  0  0  0  0  0  0  0  0  0
   29.4097  -15.8145  -18.6397 N   0  0  0  0  0  0  0  0  0  0  0  0
   26.0192  -20.9909  -15.7525 C   0  0  0  0  0  0  0  0  0  0  0  0
   25.2765  -21.9013  -16.1595 O   0  0  0  0  0  0  0  0  0  0  0  0
   25.5863  -21.2004   -9.5071 C   0  0  0  0  0  0  0  0  0  0  0  0
   24.9389  -21.4091  -10.8508 C   0  0  0  0  0  0  0  0  0  0  0  0
   25.7077  -20.9778  -12.0252 C   0  0  2  0  0  0  0  0  0  0  0  0
   26.1547  -19.5324  -11.7928 C   0  0  0  0  0  0  0  0  0  0  0  0
   25.1023  -21.0493  -13.3661 C   0  0  2  0  0  0  0  0  0  0  0  0
   26.0055  -20.6072  -14.4069 N   0  0  0  0  0  0  0  0  0  0  0  0
   23.7121  -20.5506  -13.5027 C   0  0  0  0  0  0  0  0  0  0  0  0
   23.3222  -19.3900  -13.2813 O   0  0  0  0  0  0  0  0  0  0  0  0
   22.7144  -21.4713  -13.9330 N   0  0  0  0  0  0  0  0  0  0  0  0
   21.3394  -20.9399  -14.0578 C   0  0  1  0  0  0  0  0  0  0  0  0
   20.8045  -21.6499  -15.2996 C   0  0  0  0  0  0  0  0  0  0  0  0
   19.4272  -21.3470  -15.6520 C   0  0  0  0  0  0  0  0  0  0  0  0
   18.9669  -20.0497  -15.8900 C   0  0  0  0  0  0  0  0  0  0  0  0
   17.6346  -20.0913  -16.1553 N   0  0  0  0  0  0  0  0  0  0  0  0
   17.2290  -21.3675  -16.0957 C   0  0  0  0  0  0  0  0  0  0  0  0
   15.9904  -21.9558  -16.2947 C   0  0  0  0  0  0  0  0  0  0  0  0
   15.7970  -23.3279  -16.1973 C   0  0  0  0  0  0  0  0  0  0  0  0
   16.9004  -24.1095  -15.8895 C   0  0  0  0  0  0  0  0  0  0  0  0
   18.1127  -23.5104  -15.6962 C   0  0  0  0  0  0  0  0  0  0  0  0
   18.3244  -22.1412  -15.7878 C   0  0  0  0  0  0  0  0  0  0  0  0
   20.5889  -21.3666  -12.8878 C   0  0  0  0  0  0  0  0  0  0  0  0
   20.9151  -22.4028  -12.2714 O   0  0  0  0  0  0  0  0  0  0  0  0
   19.4827  -20.6664  -12.3776 O   0  0  0  0  0  0  0  0  0  0  0  0
  2  1  1  6
  2  3  1  0
  3  4  1  0
  5  4  1  0
  6  5  1  0
  7  6  1  0
  8  2  1  0
  9  8  2  0
 10 11  1  0
 11 12  1  0
 12 13  1  1
 12 14  1  0
 14 16  1  0
 14 15  1  6
 15  8  1  0
 16 17  2  0
 18 16  1  0
 18 19  1  0
 19 20  1  6
 20 21  1  0
 21 29  1  0
 22 21  2  0
 22 23  1  0
 23 24  1  0
 24 25  1  0
 25 26  2  0
 27 26  1  0
 28 27  2  0
 29 24  2  0
 29 28  1  0
 30 32  1  0
 30 19  1  0
 31 30  2  0
M  END
$$$$
