KIW.pdb
     RDKit          3D

 32 33  0  0  1  0  0  0  0  0999 V2000
   21.5812  -21.4786  -15.2203 N   0  0  0  0  0  0  0  0  0  0  0  0
   22.4332  -20.4548  -14.6455 C   0  0  1  0  0  0  0  0  0  0  0  0
   21.6030  -19.4447  -13.8591 C   0  0  0  0  0  0  0  0  0  0  0  0
   20.1455  -19.7235  -13.9683 C   0  0  0  0  0  0  0  0  0  0  0  0
   19.3502  -18.6599  -14.6562 C   0  0  0  0  0  0  0  0  0  0  0  0
   17.9111  -18.5633  -14.2921 C   0  0  0  0  0  0  0  0  0  0  0  0
   17.5922  -17.6880  -13.2031 N   0  0  0  0  0  0  0  0  0  0  0  0
   23.5137  -21.0452  -13.8155 C   0  0  0  0  0  0  0  0  0  0  0  0
   23.1568  -21.8576  -12.9445 O   0  0  0  0  0  0  0  0  0  0  0  0
   28.8306  -21.4899  -15.6772 C   0  0  0  0  0  0  0  0  0  0  0  0
   27.4975  -21.6888  -15.0049 C   0  0  0  0  0  0  0  0  0  0  0  0
   27.2737  -20.9483  -13.7567 C   0  0  2  0  0  0  0  0  0  0  0  0
   28.3377  -21.3890  -12.7484 C   0  0  0  0  0  0  0  0  0  0  0  0
   25.9643  -21.0187  -13.0858 C   0  0  2  0  0  0  0  0  0  0  0  0
   24.8657  -20.7250  -13.9810 N   0  0  0  0  0  0  0  0  0  0  0  0
   25.8590  -20.3820  -11.7502 C   0  0  0  0  0  0  0  0  0  0  0  0
   25.6439  -19.1775  -11.5248 O   0  0  0  0  0  0  0  0  0  0  0  0
   26.0099  -21.2130  -10.6035 N   0  0  0  0  0  0  0  0  0  0  0  0
   25.9624  -20.5349   -9.2895 C   0  0  1  0  0  0  0  0  0  0  0  0
   26.1167  -21.6869   -8.2989 C   0  0  0  0  0  0  0  0  0  0  0  0
   26.2289  -21.3029   -6.9015 C   0  0  0  0  0  0  0  0  0  0  0  0
   25.1879  -21.4525   -5.9820 C   0  0  0  0  0  0  0  0  0  0  0  0
   25.5857  -20.9682   -4.7760 N   0  0  0  0  0  0  0  0  0  0  0  0
   26.8421  -20.5160   -4.8929 C   0  0  0  0  0  0  0  0  0  0  0  0
   27.7097  -19.9445   -3.9762 C   0  0  0  0  0  0  0  0  0  0  0  0
   28.9996  -19.5580   -4.3173 C   0  0  0  0  0  0  0  0  0  0  0  0
   29.4042  -19.7644   -5.6275 C   0  0  0  0  0  0  0  0  0  0  0  0
   28.5337  -20.3285   -6.5164 C   0  0  0  0  0  0  0  0  0  0  0  0
   27.2410  -20.7193   -6.1941 C   0  0  0  0  0  0  0  0  0  0  0  0
   27.1161  -19.6543   -9.2007 C   0  0  0  0  0  0  0  0  0  0  0  0
   28.2137  -20.0000   -9.6866 O   0  0  0  0  0  0  0  0  0  0  0  0
   27.0822  -18.3903   -8.5880 O   0  0  0  0  0  0  0  0  0  0  0  0
  2  1  1  1
  2  3  1  0
  3  4  1  0
  5  4  1  0
  6  5  1  0
  7  6  1  0
  8  2  1  0
  9  8  2  0
 10 11  1  0
 11 12  1  0
 12 13  1  1
 12 14  1  0
 14 16  1  0
 14 15  1  6
 15  8  1  0
 16 17  2  0
 18 16  1  0
 18 19  1  0
 19 20  1  1
 20 21  1  0
 21 29  1  0
 22 21  2  0
 22 23  1  0
 23 24  1  0
 24 25  1  0
 25 26  2  0
 27 26  1  0
 28 27  2  0
 29 24  2  0
 29 28  1  0
 30 32  1  0
 30 19  1  0
 31 30  2  0
M  END
$$$$
