KIW.pdb
     RDKit          3D

 32 33  0  0  1  0  0  0  0  0999 V2000
   29.3944  -21.9143  -16.8568 N   0  0  0  0  0  0  0  0  0  0  0  0
   28.9897  -20.8140  -16.0024 C   0  0  1  0  0  0  0  0  0  0  0  0
   27.8922  -19.9910  -16.6704 C   0  0  0  0  0  0  0  0  0  0  0  0
   28.4036  -19.2438  -17.8512 C   0  0  0  0  0  0  0  0  0  0  0  0
   28.6756  -20.0833  -19.0588 C   0  0  0  0  0  0  0  0  0  0  0  0
   29.1101  -19.3640  -20.2863 C   0  0  0  0  0  0  0  0  0  0  0  0
   28.6686  -18.0065  -20.4129 N   0  0  0  0  0  0  0  0  0  0  0  0
   28.5805  -21.2887  -14.6563 C   0  0  0  0  0  0  0  0  0  0  0  0
   27.8195  -22.2717  -14.6275 O   0  0  0  0  0  0  0  0  0  0  0  0
   30.9759  -22.5343  -10.5285 C   0  0  0  0  0  0  0  0  0  0  0  0
   30.8006  -21.1826  -11.1692 C   0  0  0  0  0  0  0  0  0  0  0  0
   29.4623  -20.5840  -11.0856 C   0  0  2  0  0  0  0  0  0  0  0  0
   28.8445  -20.9927   -9.7460 C   0  0  0  0  0  0  0  0  0  0  0  0
   28.4690  -20.8559  -12.1386 C   0  0  2  0  0  0  0  0  0  0  0  0
   29.0105  -20.6846  -13.4697 N   0  0  0  0  0  0  0  0  0  0  0  0
   27.1131  -20.2862  -11.9460 C   0  0  0  0  0  0  0  0  0  0  0  0
   26.8356  -19.0823  -11.7986 O   0  0  0  0  0  0  0  0  0  0  0  0
   26.0094  -21.1861  -11.9312 N   0  0  0  0  0  0  0  0  0  0  0  0
   24.6644  -20.5755  -11.8486 C   0  0  1  0  0  0  0  0  0  0  0  0
   23.9562  -21.1281  -13.0837 C   0  0  0  0  0  0  0  0  0  0  0  0
   22.5544  -20.7677  -13.2178 C   0  0  0  0  0  0  0  0  0  0  0  0
   22.1132  -19.4479  -13.3407 C   0  0  0  0  0  0  0  0  0  0  0  0
   20.7557  -19.4363  -13.4071 N   0  0  0  0  0  0  0  0  0  0  0  0
   20.3157  -20.7002  -13.3318 C   0  0  0  0  0  0  0  0  0  0  0  0
   19.0401  -21.2402  -13.3652 C   0  0  0  0  0  0  0  0  0  0  0  0
   18.8118  -22.6082  -13.2871 C   0  0  0  0  0  0  0  0  0  0  0  0
   19.9183  -23.4362  -13.1728 C   0  0  0  0  0  0  0  0  0  0  0  0
   21.1675  -22.8843  -13.1407 C   0  0  0  0  0  0  0  0  0  0  0  0
   21.4146  -21.5202  -13.2159 C   0  0  0  0  0  0  0  0  0  0  0  0
   24.0193  -21.0797  -10.6470 C   0  0  0  0  0  0  0  0  0  0  0  0
   24.4782  -22.0796  -10.0557 O   0  0  0  0  0  0  0  0  0  0  0  0
   22.8746  -20.4966  -10.0779 O   0  0  0  0  0  0  0  0  0  0  0  0
  2  1  1  6
  2  3  1  0
  3  4  1  0
  5  4  1  0
  6  5  1  0
  7  6  1  0
  8  2  1  0
  9  8  2  0
 10 11  1  0
 11 12  1  0
 12 13  1  1
 12 14  1  0
 14 16  1  0
 14 15  1  6
 15  8  1  0
 16 17  2  0
 18 16  1  0
 18 19  1  0
 19 20  1  6
 20 21  1  0
 21 29  1  0
 22 21  2  0
 22 23  1  0
 23 24  1  0
 24 25  1  0
 25 26  2  0
 27 26  1  0
 28 27  2  0
 29 24  2  0
 29 28  1  0
 30 32  1  0
 30 19  1  0
 31 30  2  0
M  END
$$$$
