KIW.pdb
     RDKit          3D

 32 33  0  0  1  0  0  0  0  0999 V2000
   12.2146  -22.5616   -0.9858 N   0  0  0  0  0  0  0  0  0  0  0  0
   13.4752  -22.6829   -0.2781 C   0  0  1  0  0  0  0  0  0  0  0  0
   14.6471  -22.6097   -1.2522 C   0  0  0  0  0  0  0  0  0  0  0  0
   14.6933  -23.7951   -2.1505 C   0  0  0  0  0  0  0  0  0  0  0  0
   15.8426  -23.8162   -3.1074 C   0  0  0  0  0  0  0  0  0  0  0  0
   15.8721  -24.9337   -4.0889 C   0  0  0  0  0  0  0  0  0  0  0  0
   16.9425  -24.9099   -5.0416 N   0  0  0  0  0  0  0  0  0  0  0  0
   13.5941  -21.6730    0.8040 C   0  0  0  0  0  0  0  0  0  0  0  0
   12.7950  -20.7215    0.7587 O   0  0  0  0  0  0  0  0  0  0  0  0
   14.7836  -23.3927    6.0271 C   0  0  0  0  0  0  0  0  0  0  0  0
   15.1849  -22.7280    4.7366 C   0  0  0  0  0  0  0  0  0  0  0  0
   14.3039  -21.6611    4.2448 C   0  0  2  0  0  0  0  0  0  0  0  0
   12.9041  -22.2519    4.0590 C   0  0  0  0  0  0  0  0  0  0  0  0
   14.6499  -20.9327    3.0121 C   0  0  2  0  0  0  0  0  0  0  0  0
   14.5418  -21.7603    1.8298 N   0  0  0  0  0  0  0  0  0  0  0  0
   15.8589  -20.0745    3.0561 C   0  0  0  0  0  0  0  0  0  0  0  0
   17.0089  -20.4064    2.7164 O   0  0  0  0  0  0  0  0  0  0  0  0
   15.7090  -18.7376    3.5235 N   0  0  0  0  0  0  0  0  0  0  0  0
   16.9501  -17.9426    3.6505 C   0  0  1  0  0  0  0  0  0  0  0  0
   16.6415  -16.6858    2.8395 C   0  0  0  0  0  0  0  0  0  0  0  0
   17.7041  -15.6954    2.7871 C   0  0  0  0  0  0  0  0  0  0  0  0
   18.8396  -15.8348    1.9853 C   0  0  0  0  0  0  0  0  0  0  0  0
   19.6601  -14.7700    2.1860 N   0  0  0  0  0  0  0  0  0  0  0  0
   19.0890  -13.9569    3.0857 C   0  0  0  0  0  0  0  0  0  0  0  0
   19.4912  -12.7464    3.6267 C   0  0  0  0  0  0  0  0  0  0  0  0
   18.7187  -12.0539    4.5504 C   0  0  0  0  0  0  0  0  0  0  0  0
   17.5084  -12.6184    4.9239 C   0  0  0  0  0  0  0  0  0  0  0  0
   17.1301  -13.8129    4.3797 C   0  0  0  0  0  0  0  0  0  0  0  0
   17.8895  -14.5198    3.4570 C   0  0  0  0  0  0  0  0  0  0  0  0
   17.1138  -17.5933    5.0525 C   0  0  0  0  0  0  0  0  0  0  0  0
   16.1153  -17.4564    5.7903 O   0  0  0  0  0  0  0  0  0  0  0  0
   18.3643  -17.3960    5.6621 O   0  0  0  0  0  0  0  0  0  0  0  0
  2  1  1  6
  2  3  1  0
  3  4  1  0
  5  4  1  0
  6  5  1  0
  7  6  1  0
  8  2  1  0
  9  8  2  0
 10 11  1  0
 11 12  1  0
 12 13  1  6
 12 14  1  0
 14 16  1  0
 14 15  1  6
 15  8  1  0
 16 17  2  0
 18 16  1  0
 18 19  1  0
 19 20  1  6
 20 21  1  0
 21 29  1  0
 22 21  2  0
 22 23  1  0
 23 24  1  0
 24 25  1  0
 25 26  2  0
 27 26  1  0
 28 27  2  0
 29 24  2  0
 29 28  1  0
 30 32  1  0
 30 19  1  0
 31 30  2  0
M  END
$$$$
