KIW.pdb
     RDKit          3D

 32 33  0  0  1  0  0  0  0  0999 V2000
   28.4355  -21.9272  -15.8599 N   0  0  0  0  0  0  0  0  0  0  0  0
   27.9724  -20.8576  -14.9961 C   0  0  1  0  0  0  0  0  0  0  0  0
   27.3681  -19.7250  -15.8206 C   0  0  0  0  0  0  0  0  0  0  0  0
   28.4005  -19.0144  -16.6228 C   0  0  0  0  0  0  0  0  0  0  0  0
   29.2877  -19.9021  -17.4363 C   0  0  0  0  0  0  0  0  0  0  0  0
   30.2856  -19.2276  -18.3093 C   0  0  0  0  0  0  0  0  0  0  0  0
   31.2332  -20.0814  -18.9626 N   0  0  0  0  0  0  0  0  0  0  0  0
   27.0247  -21.3569  -13.9678 C   0  0  0  0  0  0  0  0  0  0  0  0
   26.1794  -22.1832  -14.3535 O   0  0  0  0  0  0  0  0  0  0  0  0
   26.1060  -20.5321   -7.7876 C   0  0  0  0  0  0  0  0  0  0  0  0
   25.5577  -20.8911   -9.1436 C   0  0  0  0  0  0  0  0  0  0  0  0
   26.4803  -20.7683  -10.2794 C   0  0  2  0  0  0  0  0  0  0  0  0
   27.0698  -19.3558  -10.2590 C   0  0  0  0  0  0  0  0  0  0  0  0
   26.0012  -21.0340  -11.6468 C   0  0  2  0  0  0  0  0  0  0  0  0
   27.0566  -20.9396  -12.6325 N   0  0  0  0  0  0  0  0  0  0  0  0
   24.7241  -20.3945  -12.0470 C   0  0  0  0  0  0  0  0  0  0  0  0
   24.5605  -19.1947  -12.3330 O   0  0  0  0  0  0  0  0  0  0  0  0
   23.5637  -21.2166  -12.1228 N   0  0  0  0  0  0  0  0  0  0  0  0
   22.3160  -20.5538  -12.5615 C   0  0  1  0  0  0  0  0  0  0  0  0
   22.3485  -20.7225  -14.0789 C   0  0  0  0  0  0  0  0  0  0  0  0
   21.1804  -20.2311  -14.7908 C   0  0  0  0  0  0  0  0  0  0  0  0
   20.9014  -18.8722  -14.9550 C   0  0  0  0  0  0  0  0  0  0  0  0
   19.7266  -18.7363  -15.6249 N   0  0  0  0  0  0  0  0  0  0  0  0
   19.2470  -19.9587  -15.8942 C   0  0  0  0  0  0  0  0  0  0  0  0
   18.1063  -20.3804  -16.5580 C   0  0  0  0  0  0  0  0  0  0  0  0
   17.8091  -21.7249  -16.7407 C   0  0  0  0  0  0  0  0  0  0  0  0
   18.7040  -22.6533  -16.2306 C   0  0  0  0  0  0  0  0  0  0  0  0
   19.8225  -22.2174  -15.5786 C   0  0  0  0  0  0  0  0  0  0  0  0
   20.1349  -20.8785  -15.3851 C   0  0  0  0  0  0  0  0  0  0  0  0
   21.1970  -21.3003  -12.0092 C   0  0  0  0  0  0  0  0  0  0  0  0
   21.3326  -22.5015  -11.6947 O   0  0  0  0  0  0  0  0  0  0  0  0
   19.9255  -20.7440  -11.7904 O   0  0  0  0  0  0  0  0  0  0  0  0
  2  1  1  6
  2  3  1  0
  3  4  1  0
  5  4  1  0
  6  5  1  0
  7  6  1  0
  8  2  1  0
  9  8  2  0
 10 11  1  0
 11 12  1  0
 12 13  1  6
 12 14  1  0
 14 16  1  0
 14 15  1  6
 15  8  1  0
 16 17  2  0
 18 16  1  0
 18 19  1  0
 19 20  1  6
 20 21  1  0
 21 29  1  0
 22 21  2  0
 22 23  1  0
 23 24  1  0
 24 25  1  0
 25 26  2  0
 27 26  1  0
 28 27  2  0
 29 24  2  0
 29 28  1  0
 30 32  1  0
 30 19  1  0
 31 30  2  0
M  END
$$$$
