KIW.pdb
     RDKit          3D

 32 33  0  0  1  0  0  0  0  0999 V2000
   29.9521  -22.6581  -17.9649 N   0  0  0  0  0  0  0  0  0  0  0  0
   28.5442  -22.5369  -17.6367 C   0  0  1  0  0  0  0  0  0  0  0  0
   27.8667  -23.9037  -17.6649 C   0  0  0  0  0  0  0  0  0  0  0  0
   27.5312  -24.3252  -19.0519 C   0  0  0  0  0  0  0  0  0  0  0  0
   28.6067  -25.0901  -19.7556 C   0  0  0  0  0  0  0  0  0  0  0  0
   28.2840  -25.5942  -21.1175 C   0  0  0  0  0  0  0  0  0  0  0  0
   26.9233  -25.9846  -21.3407 N   0  0  0  0  0  0  0  0  0  0  0  0
   28.3432  -21.8489  -16.3363 C   0  0  0  0  0  0  0  0  0  0  0  0
   29.1188  -22.1691  -15.4188 O   0  0  0  0  0  0  0  0  0  0  0  0
   27.9483  -16.5534  -16.2391 C   0  0  0  0  0  0  0  0  0  0  0  0
   28.1763  -17.9712  -15.7849 C   0  0  0  0  0  0  0  0  0  0  0  0
   27.0234  -18.6678  -15.2002 C   0  0  2  0  0  0  0  0  0  0  0  0
   26.6628  -17.9665  -13.8883 C   0  0  0  0  0  0  0  0  0  0  0  0
   27.0990  -20.1137  -14.9292 C   0  0  2  0  0  0  0  0  0  0  0  0
   27.3460  -20.8901  -16.1253 N   0  0  0  0  0  0  0  0  0  0  0  0
   26.0689  -20.6824  -14.0261 C   0  0  0  0  0  0  0  0  0  0  0  0
   24.9020  -20.9811  -14.3376 O   0  0  0  0  0  0  0  0  0  0  0  0
   26.4324  -20.9222  -12.6701 N   0  0  0  0  0  0  0  0  0  0  0  0
   25.4172  -21.5890  -11.8255 C   0  0  1  0  0  0  0  0  0  0  0  0
   26.2215  -22.0425  -10.6092 C   0  0  0  0  0  0  0  0  0  0  0  0
   26.4986  -21.0140   -9.6202 C   0  0  0  0  0  0  0  0  0  0  0  0
   25.6527  -19.9260   -9.3917 C   0  0  0  0  0  0  0  0  0  0  0  0
   26.2031  -19.1258   -8.4409 N   0  0  0  0  0  0  0  0  0  0  0  0
   27.3683  -19.6641   -8.0546 C   0  0  0  0  0  0  0  0  0  0  0  0
   28.3075  -19.2646   -7.1176 C   0  0  0  0  0  0  0  0  0  0  0  0
   29.4585  -19.9990   -6.8619 C   0  0  0  0  0  0  0  0  0  0  0  0
   29.6459  -21.1675   -7.5846 C   0  0  0  0  0  0  0  0  0  0  0  0
   28.7087  -21.5438   -8.5045 C   0  0  0  0  0  0  0  0  0  0  0  0
   27.5537  -20.8220   -8.7745 C   0  0  0  0  0  0  0  0  0  0  0  0
   24.4440  -20.5862  -11.4235 C   0  0  0  0  0  0  0  0  0  0  0  0
   23.2775  -20.9208  -11.1276 O   0  0  0  0  0  0  0  0  0  0  0  0
   24.7345  -19.2144  -11.3353 O   0  0  0  0  0  0  0  0  0  0  0  0
  2  1  1  1
  2  3  1  0
  3  4  1  0
  5  4  1  0
  6  5  1  0
  7  6  1  0
  8  2  1  0
  9  8  2  0
 10 11  1  0
 11 12  1  0
 12 13  1  1
 12 14  1  0
 14 16  1  0
 14 15  1  6
 15  8  1  0
 16 17  2  0
 18 16  1  0
 18 19  1  0
 19 20  1  1
 20 21  1  0
 21 29  1  0
 22 21  2  0
 22 23  1  0
 23 24  1  0
 24 25  1  0
 25 26  2  0
 27 26  1  0
 28 27  2  0
 29 24  2  0
 29 28  1  0
 30 32  1  0
 30 19  1  0
 31 30  2  0
M  END
$$$$
