NDL.pdb
     RDKit          3D

 25 24  0  0  1  0  0  0  0  0999 V2000
    8.6686  -13.1325   17.3654 N   0  0  0  0  0  0  0  0  0  0  0  0
    7.4324  -13.5238   17.9278 C   0  0  0  0  0  0  0  0  0  0  0  0
    6.4097  -13.4058   17.2270 O   0  0  0  0  0  0  0  0  0  0  0  0
    7.3490  -14.0558   19.2998 C   0  0  0  0  0  0  0  0  0  0  0  0
    8.6441  -13.9688   20.0627 C   0  0  2  0  0  0  0  0  0  0  0  0
    9.8033  -14.3287   19.2855 N   0  0  0  0  0  0  0  0  0  0  0  0
    8.5635  -14.7803   21.3002 C   0  0  0  0  0  0  0  0  0  0  0  0
    7.5574  -14.5564   22.0562 O   0  0  0  0  0  0  0  0  0  0  0  0
    9.5322  -15.7587   21.6549 N   0  0  0  0  0  0  0  0  0  0  0  0
    9.3264  -16.5259   22.8391 C   0  0  1  0  0  0  0  0  0  0  0  0
   10.1363  -17.7945   22.8155 C   0  0  0  0  0  0  0  0  0  0  0  0
   10.0541  -18.5191   21.5258 C   0  0  0  0  0  0  0  0  0  0  0  0
   11.1031  -18.6547   20.8290 O   0  0  0  0  0  0  0  0  0  0  0  0
    9.5702  -15.7394   24.0846 C   0  0  0  0  0  0  0  0  0  0  0  0
   10.6979  -15.2261   24.2853 O   0  0  0  0  0  0  0  0  0  0  0  0
    8.8808  -19.0620   21.0347 O   0  0  0  0  0  0  0  0  0  0  0  0
    8.2407  -11.9765   26.0931 C   0  0  0  0  0  0  0  0  0  0  0  0
    7.2175  -13.0520   25.7019 C   0  0  2  0  0  0  0  0  0  0  0  0
    5.8589  -12.4699   26.0268 C   0  0  0  0  0  0  0  0  0  0  0  0
    7.4494  -14.2203   26.6117 C   0  0  0  0  0  0  0  0  0  0  0  0
    8.7364  -14.9682   26.3395 C   0  0  2  0  0  0  0  0  0  0  0  0
    8.5390  -15.5826   25.0158 N   0  0  0  0  0  0  0  0  0  0  0  0
    9.0440  -15.9902   27.3503 C   0  0  0  0  0  0  0  0  0  0  0  0
    9.5376  -15.7044   28.4601 O   0  0  0  0  0  0  0  0  0  0  0  0
    8.7764  -17.3177   27.0604 O   0  0  0  0  0  0  0  0  0  0  0  0
  1  2  1  0
  2  3  2  0
  4  2  1  0
  5  4  1  0
  5  6  1  6
  7  5  1  0
  7  8  2  0
  9  7  1  0
 10 14  1  0
 10  9  1  0
 10 11  1  6
 12 11  1  0
 12 16  1  0
 13 12  2  0
 14 22  1  0
 15 14  2  0
 18 19  1  1
 18 17  1  0
 20 18  1  0
 21 20  1  1
 22 21  1  0
 23 25  1  0
 23 21  1  0
 24 23  2  0
M  END
$$$$
