NDL.pdb
     RDKit          3D

 25 24  0  0  1  0  0  0  0  0999 V2000
    8.3618  -11.8025   18.8167 N   0  0  0  0  0  0  0  0  0  0  0  0
    7.7704  -13.0711   18.6197 C   0  0  0  0  0  0  0  0  0  0  0  0
    7.4120  -13.3744   17.4663 O   0  0  0  0  0  0  0  0  0  0  0  0
    7.5809  -14.0103   19.7397 C   0  0  0  0  0  0  0  0  0  0  0  0
    8.5459  -15.1660   19.7306 C   0  0  2  0  0  0  0  0  0  0  0  0
    8.2745  -16.1435   18.7068 N   0  0  0  0  0  0  0  0  0  0  0  0
    8.5954  -15.8007   21.0689 C   0  0  0  0  0  0  0  0  0  0  0  0
    7.5117  -16.3429   21.4758 O   0  0  0  0  0  0  0  0  0  0  0  0
    9.7641  -15.8226   21.8781 N   0  0  0  0  0  0  0  0  0  0  0  0
    9.7492  -16.5910   23.0793 C   0  0  1  0  0  0  0  0  0  0  0  0
   10.7131  -17.7446   23.0017 C   0  0  0  0  0  0  0  0  0  0  0  0
   10.7526  -18.5603   24.2379 C   0  0  0  0  0  0  0  0  0  0  0  0
    9.6621  -18.9208   24.7715 O   0  0  0  0  0  0  0  0  0  0  0  0
    9.9813  -15.7598   24.2977 C   0  0  0  0  0  0  0  0  0  0  0  0
   11.0894  -15.1939   24.4627 O   0  0  0  0  0  0  0  0  0  0  0  0
   11.9292  -18.9541   24.8489 O   0  0  0  0  0  0  0  0  0  0  0  0
    8.6421  -12.0807   25.9676 C   0  0  0  0  0  0  0  0  0  0  0  0
    7.5857  -13.1824   25.8033 C   0  0  2  0  0  0  0  0  0  0  0  0
    6.2619  -12.5454   26.1669 C   0  0  0  0  0  0  0  0  0  0  0  0
    7.8915  -14.2309   26.8298 C   0  0  0  0  0  0  0  0  0  0  0  0
    9.1667  -15.0011   26.5639 C   0  0  2  0  0  0  0  0  0  0  0  0
    8.9611  -15.6203   25.2436 N   0  0  0  0  0  0  0  0  0  0  0  0
    9.4566  -16.0217   27.5813 C   0  0  0  0  0  0  0  0  0  0  0  0
    9.8731  -15.7294   28.7206 O   0  0  0  0  0  0  0  0  0  0  0  0
    9.2603  -17.3554   27.2639 O   0  0  0  0  0  0  0  0  0  0  0  0
  1  2  1  0
  2  3  2  0
  4  2  1  0
  5  4  1  0
  5  6  1  6
  7  5  1  0
  7  8  2  0
  9  7  1  0
 10 14  1  0
 10  9  1  0
 10 11  1  6
 12 11  1  0
 12 16  1  0
 13 12  2  0
 14 22  1  0
 15 14  2  0
 18 19  1  1
 18 17  1  0
 20 18  1  0
 21 20  1  1
 22 21  1  0
 23 25  1  0
 23 21  1  0
 24 23  2  0
M  END
$$$$
