NDL.pdb
     RDKit          3D

 25 24  0  0  1  0  0  0  0  0999 V2000
    8.2135  -12.4361   17.6082 N   0  0  0  0  0  0  0  0  0  0  0  0
    7.5852  -13.6745   17.8715 C   0  0  0  0  0  0  0  0  0  0  0  0
    7.2691  -14.3862   16.8997 O   0  0  0  0  0  0  0  0  0  0  0  0
    7.3098  -14.1159   19.2506 C   0  0  0  0  0  0  0  0  0  0  0  0
    8.4678  -13.9181   20.1923 C   0  0  2  0  0  0  0  0  0  0  0  0
    9.7581  -14.0151   19.5575 N   0  0  0  0  0  0  0  0  0  0  0  0
    8.3662  -14.8602   21.3318 C   0  0  0  0  0  0  0  0  0  0  0  0
    7.2575  -14.8574   21.9681 O   0  0  0  0  0  0  0  0  0  0  0  0
    9.4218  -15.7296   21.7206 N   0  0  0  0  0  0  0  0  0  0  0  0
    9.2888  -16.4655   22.9347 C   0  0  1  0  0  0  0  0  0  0  0  0
   10.1486  -17.7009   22.9214 C   0  0  0  0  0  0  0  0  0  0  0  0
    9.9495  -18.5415   21.7176 C   0  0  0  0  0  0  0  0  0  0  0  0
    8.8101  -19.0527   21.5066 O   0  0  0  0  0  0  0  0  0  0  0  0
    9.5432  -15.6299   24.1456 C   0  0  0  0  0  0  0  0  0  0  0  0
   10.6544  -15.0641   24.2885 O   0  0  0  0  0  0  0  0  0  0  0  0
   10.9516  -18.8021   20.8008 O   0  0  0  0  0  0  0  0  0  0  0  0
    8.0316  -11.9102   25.7915 C   0  0  0  0  0  0  0  0  0  0  0  0
    7.0443  -13.0767   25.6451 C   0  0  2  0  0  0  0  0  0  0  0  0
    5.6883  -12.5228   26.0256 C   0  0  0  0  0  0  0  0  0  0  0  0
    7.4297  -14.1002   26.6700 C   0  0  0  0  0  0  0  0  0  0  0  0
    8.7478  -14.7883   26.3892 C   0  0  2  0  0  0  0  0  0  0  0  0
    8.5402  -15.4861   25.1091 N   0  0  0  0  0  0  0  0  0  0  0  0
    9.1502  -15.7331   27.4411 C   0  0  0  0  0  0  0  0  0  0  0  0
    8.9745  -16.9639   27.3361 O   0  0  0  0  0  0  0  0  0  0  0  0
    9.7457  -15.2391   28.5898 O   0  0  0  0  0  0  0  0  0  0  0  0
  1  2  1  0
  2  3  2  0
  4  2  1  0
  5  4  1  0
  5  6  1  6
  7  5  1  0
  7  8  2  0
  9  7  1  0
 10 14  1  0
 10  9  1  0
 10 11  1  6
 12 11  1  0
 12 16  1  0
 13 12  2  0
 14 22  1  0
 15 14  2  0
 18 19  1  1
 18 17  1  0
 20 18  1  0
 21 20  1  1
 22 21  1  0
 23 25  1  0
 23 21  1  0
 24 23  2  0
M  END
$$$$
