NDL.pdb
     RDKit          3D

 25 24  0  0  1  0  0  0  0  0999 V2000
    9.0721  -13.0884   17.4072 N   0  0  0  0  0  0  0  0  0  0  0  0
    7.8157  -13.5334   17.8774 C   0  0  0  0  0  0  0  0  0  0  0  0
    6.8371  -13.4282   17.1144 O   0  0  0  0  0  0  0  0  0  0  0  0
    7.6613  -14.1051   19.2271 C   0  0  0  0  0  0  0  0  0  0  0  0
    8.8685  -13.9155   20.1066 C   0  0  2  0  0  0  0  0  0  0  0  0
   10.1227  -14.1198   19.4265 N   0  0  0  0  0  0  0  0  0  0  0  0
    8.7688  -14.7818   21.3049 C   0  0  0  0  0  0  0  0  0  0  0  0
    7.6850  -14.6916   21.9767 O   0  0  0  0  0  0  0  0  0  0  0  0
    9.8001  -15.6722   21.7108 N   0  0  0  0  0  0  0  0  0  0  0  0
    9.5887  -16.4817   22.8655 C   0  0  1  0  0  0  0  0  0  0  0  0
   10.5013  -17.6788   22.8677 C   0  0  0  0  0  0  0  0  0  0  0  0
   10.5961  -18.3468   21.5486 C   0  0  0  0  0  0  0  0  0  0  0  0
   11.7014  -18.3322   20.9304 O   0  0  0  0  0  0  0  0  0  0  0  0
    9.6916  -15.7078   24.1382 C   0  0  0  0  0  0  0  0  0  0  0  0
   10.7640  -15.1220   24.4250 O   0  0  0  0  0  0  0  0  0  0  0  0
    9.5311  -18.9928   20.9477 O   0  0  0  0  0  0  0  0  0  0  0  0
    7.8892  -12.0888   26.0465 C   0  0  0  0  0  0  0  0  0  0  0  0
    6.9913  -13.2504   25.5981 C   0  0  2  0  0  0  0  0  0  0  0  0
    5.5694  -12.7955   25.8466 C   0  0  0  0  0  0  0  0  0  0  0  0
    7.2771  -14.3979   26.5189 C   0  0  0  0  0  0  0  0  0  0  0  0
    8.6457  -15.0149   26.3292 C   0  0  2  0  0  0  0  0  0  0  0  0
    8.5913  -15.6436   24.9987 N   0  0  0  0  0  0  0  0  0  0  0  0
    8.9900  -16.0032   27.3615 C   0  0  0  0  0  0  0  0  0  0  0  0
    9.3198  -15.6729   28.5187 O   0  0  0  0  0  0  0  0  0  0  0  0
    8.9466  -17.3491   27.0380 O   0  0  0  0  0  0  0  0  0  0  0  0
  1  2  1  0
  2  3  2  0
  4  2  1  0
  5  4  1  0
  5  6  1  6
  7  5  1  0
  7  8  2  0
  9  7  1  0
 10 14  1  0
 10  9  1  0
 10 11  1  1
 12 11  1  0
 12 16  1  0
 13 12  2  0
 14 22  1  0
 15 14  2  0
 18 19  1  1
 18 17  1  0
 20 18  1  0
 21 20  1  1
 22 21  1  0
 23 25  1  0
 23 21  1  0
 24 23  2  0
M  END
$$$$
