NDL.pdb
     RDKit          3D

 25 24  0  0  1  0  0  0  0  0999 V2000
    7.6909  -12.5396   16.8205 N   0  0  0  0  0  0  0  0  0  0  0  0
    7.5784  -13.9300   17.0482 C   0  0  0  0  0  0  0  0  0  0  0  0
    7.5434  -14.6822   16.0563 O   0  0  0  0  0  0  0  0  0  0  0  0
    7.5044  -14.4792   18.4140 C   0  0  0  0  0  0  0  0  0  0  0  0
    8.7964  -14.3738   19.1798 C   0  0  2  0  0  0  0  0  0  0  0  0
    9.9428  -14.8672   18.4589 N   0  0  0  0  0  0  0  0  0  0  0  0
    8.6676  -15.0466   20.4940 C   0  0  0  0  0  0  0  0  0  0  0  0
    7.6553  -14.7141   21.2003 O   0  0  0  0  0  0  0  0  0  0  0  0
    9.5982  -16.0098   20.9708 N   0  0  0  0  0  0  0  0  0  0  0  0
    9.3569  -16.6262   22.2338 C   0  0  1  0  0  0  0  0  0  0  0  0
   10.1759  -17.8787   22.3956 C   0  0  0  0  0  0  0  0  0  0  0  0
    9.5006  -19.0922   21.8794 C   0  0  0  0  0  0  0  0  0  0  0  0
    9.2653  -19.1836   20.6383 O   0  0  0  0  0  0  0  0  0  0  0  0
    9.5519  -15.6883   23.3791 C   0  0  0  0  0  0  0  0  0  0  0  0
   10.6046  -15.0087   23.4541 O   0  0  0  0  0  0  0  0  0  0  0  0
    9.1077  -20.1431   22.6880 O   0  0  0  0  0  0  0  0  0  0  0  0
    5.9035  -12.3666   26.7009 C   0  0  0  0  0  0  0  0  0  0  0  0
    7.3110  -12.9776   26.7495 C   0  0  2  0  0  0  0  0  0  0  0  0
    8.2710  -11.8242   26.5533 C   0  0  0  0  0  0  0  0  0  0  0  0
    7.4295  -13.8847   25.5623 C   0  0  0  0  0  0  0  0  0  0  0  0
    8.6934  -14.7168   25.5456 C   0  0  2  0  0  0  0  0  0  0  0  0
    8.5593  -15.5765   24.3575 N   0  0  0  0  0  0  0  0  0  0  0  0
    8.8772  -15.5258   26.7591 C   0  0  0  0  0  0  0  0  0  0  0  0
    9.5147  -15.1108   27.7481 O   0  0  0  0  0  0  0  0  0  0  0  0
    8.3228  -16.7941   26.8061 O   0  0  0  0  0  0  0  0  0  0  0  0
  1  2  1  0
  2  3  2  0
  4  2  1  0
  5  4  1  0
  5  6  1  6
  7  5  1  0
  7  8  2  0
  9  7  1  0
 10 14  1  0
 10  9  1  0
 10 11  1  1
 12 11  1  0
 12 16  1  0
 13 12  2  0
 14 22  1  0
 15 14  2  0
 18 19  1  6
 18 17  1  0
 20 18  1  0
 21 20  1  1
 22 21  1  0
 23 25  1  0
 23 21  1  0
 24 23  2  0
M  END
$$$$
