NDL.pdb
     RDKit          3D

 25 24  0  0  1  0  0  0  0  0999 V2000
    8.9683  -12.7914   17.3307 N   0  0  0  0  0  0  0  0  0  0  0  0
    7.7945  -13.5582   17.5101 C   0  0  0  0  0  0  0  0  0  0  0  0
    7.0225  -13.6778   16.5403 O   0  0  0  0  0  0  0  0  0  0  0  0
    7.4879  -14.1987   18.8016 C   0  0  0  0  0  0  0  0  0  0  0  0
    8.4369  -13.8181   19.9067 C   0  0  2  0  0  0  0  0  0  0  0  0
    9.7974  -13.6333   19.4685 N   0  0  0  0  0  0  0  0  0  0  0  0
    8.3648  -14.8094   21.0061 C   0  0  0  0  0  0  0  0  0  0  0  0
    7.2129  -14.9850   21.5317 O   0  0  0  0  0  0  0  0  0  0  0  0
    9.4923  -15.5392   21.4724 N   0  0  0  0  0  0  0  0  0  0  0  0
    9.3385  -16.3770   22.6160 C   0  0  1  0  0  0  0  0  0  0  0  0
   10.1937  -17.6109   22.5079 C   0  0  0  0  0  0  0  0  0  0  0  0
    9.4090  -18.8549   22.3288 C   0  0  0  0  0  0  0  0  0  0  0  0
    9.0942  -19.2197   21.1575 O   0  0  0  0  0  0  0  0  0  0  0  0
    9.5781  -15.6509   23.8984 C   0  0  0  0  0  0  0  0  0  0  0  0
   10.6781  -15.0784   24.0929 O   0  0  0  0  0  0  0  0  0  0  0  0
    8.9960  -19.6490   23.3830 O   0  0  0  0  0  0  0  0  0  0  0  0
    8.0834  -12.0147   25.9018 C   0  0  0  0  0  0  0  0  0  0  0  0
    7.0965  -13.1314   25.5333 C   0  0  2  0  0  0  0  0  0  0  0  0
    5.7231  -12.6062   25.8912 C   0  0  0  0  0  0  0  0  0  0  0  0
    7.3980  -14.2897   26.4354 C   0  0  0  0  0  0  0  0  0  0  0  0
    8.7362  -14.9450   26.1717 C   0  0  2  0  0  0  0  0  0  0  0  0
    8.5740  -15.6161   24.8708 N   0  0  0  0  0  0  0  0  0  0  0  0
    9.1316  -15.9065   27.2109 C   0  0  0  0  0  0  0  0  0  0  0  0
    9.6132  -15.5474   28.3045 O   0  0  0  0  0  0  0  0  0  0  0  0
    8.9635  -17.2595   26.9674 O   0  0  0  0  0  0  0  0  0  0  0  0
  1  2  1  0
  2  3  2  0
  4  2  1  0
  5  4  1  0
  5  6  1  6
  7  5  1  0
  7  8  2  0
  9  7  1  0
 10 14  1  0
 10  9  1  0
 10 11  1  6
 12 11  1  0
 12 16  1  0
 13 12  2  0
 14 22  1  0
 15 14  2  0
 18 19  1  1
 18 17  1  0
 20 18  1  0
 21 20  1  1
 22 21  1  0
 23 25  1  0
 23 21  1  0
 24 23  2  0
M  END
$$$$
