NDL.pdb
     RDKit          3D

 25 24  0  0  1  0  0  0  0  0999 V2000
    8.5310  -12.7870   17.4420 N   0  0  0  0  0  0  0  0  0  0  0  0
    7.4874  -13.7249   17.6123 C   0  0  0  0  0  0  0  0  0  0  0  0
    6.7990  -14.0181   16.6169 O   0  0  0  0  0  0  0  0  0  0  0  0
    7.2170  -14.3404   18.9240 C   0  0  0  0  0  0  0  0  0  0  0  0
    8.0532  -13.7759   20.0416 C   0  0  2  0  0  0  0  0  0  0  0  0
    9.3206  -13.2432   19.6091 N   0  0  0  0  0  0  0  0  0  0  0  0
    8.2408  -14.7930   21.1032 C   0  0  0  0  0  0  0  0  0  0  0  0
    7.1742  -15.2604   21.6304 O   0  0  0  0  0  0  0  0  0  0  0  0
    9.5187  -15.2440   21.5330 N   0  0  0  0  0  0  0  0  0  0  0  0
    9.5856  -16.2144   22.5757 C   0  0  1  0  0  0  0  0  0  0  0  0
   10.6567  -17.2362   22.3029 C   0  0  0  0  0  0  0  0  0  0  0  0
   10.6979  -18.3253   23.3065 C   0  0  0  0  0  0  0  0  0  0  0  0
    9.6081  -18.8122   23.7303 O   0  0  0  0  0  0  0  0  0  0  0  0
    9.7428  -15.5984   23.9267 C   0  0  0  0  0  0  0  0  0  0  0  0
   10.7915  -14.9671   24.2042 O   0  0  0  0  0  0  0  0  0  0  0  0
   11.8750  -18.8457   23.8126 O   0  0  0  0  0  0  0  0  0  0  0  0
    7.9340  -12.2741   26.3742 C   0  0  0  0  0  0  0  0  0  0  0  0
    7.1194  -13.4259   25.7689 C   0  0  2  0  0  0  0  0  0  0  0  0
    5.6673  -13.0896   26.0308 C   0  0  0  0  0  0  0  0  0  0  0  0
    7.4584  -14.6554   26.5562 C   0  0  0  0  0  0  0  0  0  0  0  0
    8.8256  -15.2268   26.2495 C   0  0  2  0  0  0  0  0  0  0  0  0
    8.7193  -15.7313   24.8700 N   0  0  0  0  0  0  0  0  0  0  0  0
    9.2311  -16.2994   27.1693 C   0  0  0  0  0  0  0  0  0  0  0  0
    9.6222  -16.0699   28.3318 O   0  0  0  0  0  0  0  0  0  0  0  0
    9.1769  -17.6116   26.7298 O   0  0  0  0  0  0  0  0  0  0  0  0
  1  2  1  0
  2  3  2  0
  4  2  1  0
  5  4  1  0
  5  6  1  6
  7  5  1  0
  7  8  2  0
  9  7  1  0
 10 14  1  0
 10  9  1  0
 10 11  1  6
 12 11  1  0
 12 16  1  0
 13 12  2  0
 14 22  1  0
 15 14  2  0
 18 19  1  1
 18 17  1  0
 20 18  1  0
 21 20  1  1
 22 21  1  0
 23 25  1  0
 23 21  1  0
 24 23  2  0
M  END
$$$$
