NDL.pdb
     RDKit          3D

 25 24  0  0  1  0  0  0  0  0999 V2000
    7.5070  -12.3661   17.1052 N   0  0  0  0  0  0  0  0  0  0  0  0
    7.7710  -13.6954   17.5065 C   0  0  0  0  0  0  0  0  0  0  0  0
    8.3070  -14.4581   16.6807 O   0  0  0  0  0  0  0  0  0  0  0  0
    7.4253  -14.1706   18.8582 C   0  0  0  0  0  0  0  0  0  0  0  0
    8.5165  -13.9556   19.8730 C   0  0  2  0  0  0  0  0  0  0  0  0
    9.8441  -13.9651   19.3119 N   0  0  0  0  0  0  0  0  0  0  0  0
    8.3978  -14.9466   20.9687 C   0  0  0  0  0  0  0  0  0  0  0  0
    7.2646  -15.0020   21.5577 O   0  0  0  0  0  0  0  0  0  0  0  0
    9.4628  -15.8004   21.3659 N   0  0  0  0  0  0  0  0  0  0  0  0
    9.2950  -16.6053   22.5309 C   0  0  1  0  0  0  0  0  0  0  0  0
   10.0676  -17.8925   22.4212 C   0  0  0  0  0  0  0  0  0  0  0  0
    9.8495  -18.8071   23.5663 C   0  0  0  0  0  0  0  0  0  0  0  0
   10.8515  -19.3502   24.1187 O   0  0  0  0  0  0  0  0  0  0  0  0
    9.6219  -15.8718   23.7897 C   0  0  0  0  0  0  0  0  0  0  0  0
   10.7824  -15.4279   23.9674 O   0  0  0  0  0  0  0  0  0  0  0  0
    8.5967  -19.1044   24.0711 O   0  0  0  0  0  0  0  0  0  0  0  0
    8.6367  -12.0611   25.7427 C   0  0  0  0  0  0  0  0  0  0  0  0
    7.4881  -13.0234   25.4088 C   0  0  2  0  0  0  0  0  0  0  0  0
    6.2157  -12.3005   25.7948 C   0  0  0  0  0  0  0  0  0  0  0  0
    7.6396  -14.2080   26.3144 C   0  0  0  0  0  0  0  0  0  0  0  0
    8.8830  -15.0297   26.0523 C   0  0  2  0  0  0  0  0  0  0  0  0
    8.6311  -15.6870   24.7588 N   0  0  0  0  0  0  0  0  0  0  0  0
    9.1589  -16.0236   27.0997 C   0  0  0  0  0  0  0  0  0  0  0  0
    8.7841  -17.2103   27.0095 O   0  0  0  0  0  0  0  0  0  0  0  0
    9.8599  -15.6285   28.2269 O   0  0  0  0  0  0  0  0  0  0  0  0
  1  2  1  0
  2  3  2  0
  4  2  1  0
  5  4  1  0
  5  6  1  6
  7  5  1  0
  7  8  2  0
  9  7  1  0
 10 14  1  0
 10  9  1  0
 10 11  1  6
 12 11  1  0
 12 16  1  0
 13 12  2  0
 14 22  1  0
 15 14  2  0
 18 19  1  1
 18 17  1  0
 20 18  1  0
 21 20  1  1
 22 21  1  0
 23 25  1  0
 23 21  1  0
 24 23  2  0
M  END
$$$$
