NDL.pdb
     RDKit          3D

 25 24  0  0  1  0  0  0  0  0999 V2000
    7.4221  -12.3521   17.3007 N   0  0  0  0  0  0  0  0  0  0  0  0
    7.9455  -13.4763   17.9790 C   0  0  0  0  0  0  0  0  0  0  0  0
    8.5317  -14.3435   17.3043 O   0  0  0  0  0  0  0  0  0  0  0  0
    7.8054  -13.6239   19.4388 C   0  0  0  0  0  0  0  0  0  0  0  0
    9.0750  -14.0459   20.1293 C   0  0  2  0  0  0  0  0  0  0  0  0
    9.9843  -14.7755   19.2818 N   0  0  0  0  0  0  0  0  0  0  0  0
    8.7582  -14.8177   21.3542 C   0  0  0  0  0  0  0  0  0  0  0  0
    7.7845  -14.3820   22.0585 O   0  0  0  0  0  0  0  0  0  0  0  0
    9.4759  -15.9791   21.7509 N   0  0  0  0  0  0  0  0  0  0  0  0
    9.1533  -16.5885   22.9991 C   0  0  1  0  0  0  0  0  0  0  0  0
    9.7770  -17.9533   23.1178 C   0  0  0  0  0  0  0  0  0  0  0  0
    9.2273  -18.9354   22.1543 C   0  0  0  0  0  0  0  0  0  0  0  0
    8.0769  -18.7369   21.6632 O   0  0  0  0  0  0  0  0  0  0  0  0
    9.4937  -15.7234   24.1674 C   0  0  0  0  0  0  0  0  0  0  0  0
   10.6087  -15.1488   24.2120 O   0  0  0  0  0  0  0  0  0  0  0  0
    9.9093  -20.0712   21.7572 O   0  0  0  0  0  0  0  0  0  0  0  0
    7.8168  -12.0652   25.8067 C   0  0  0  0  0  0  0  0  0  0  0  0
    6.9251  -13.3137   25.8589 C   0  0  2  0  0  0  0  0  0  0  0  0
    5.5906  -12.8481   26.4000 C   0  0  0  0  0  0  0  0  0  0  0  0
    7.5355  -14.2389   26.8678 C   0  0  0  0  0  0  0  0  0  0  0  0
    8.8634  -14.8264   26.4419 C   0  0  2  0  0  0  0  0  0  0  0  0
    8.5661  -15.5620   25.2012 N   0  0  0  0  0  0  0  0  0  0  0  0
    9.4589  -15.7169   27.4485 C   0  0  0  0  0  0  0  0  0  0  0  0
    9.4366  -16.9595   27.3376 O   0  0  0  0  0  0  0  0  0  0  0  0
   10.0664  -15.1565   28.5597 O   0  0  0  0  0  0  0  0  0  0  0  0
  1  2  1  0
  2  3  2  0
  4  2  1  0
  5  4  1  0
  5  6  1  6
  7  5  1  0
  7  8  2  0
  9  7  1  0
 10 14  1  0
 10  9  1  0
 10 11  1  1
 12 11  1  0
 12 16  1  0
 13 12  2  0
 14 22  1  0
 15 14  2  0
 18 19  1  1
 18 17  1  0
 20 18  1  0
 21 20  1  1
 22 21  1  0
 23 25  1  0
 23 21  1  0
 24 23  2  0
M  END
$$$$
