NDL.pdb
     RDKit          3D

 25 24  0  0  1  0  0  0  0  0999 V2000
    3.5093  -19.3843   22.7452 N   0  0  0  0  0  0  0  0  0  0  0  0
    4.5370  -20.1956   22.2128 C   0  0  0  0  0  0  0  0  0  0  0  0
    4.2107  -21.1223   21.4475 O   0  0  0  0  0  0  0  0  0  0  0  0
    5.9523  -19.9579   22.5486 C   0  0  0  0  0  0  0  0  0  0  0  0
    6.1652  -18.8044   23.4924 C   0  0  2  0  0  0  0  0  0  0  0  0
    5.3846  -17.6363   23.1704 N   0  0  0  0  0  0  0  0  0  0  0  0
    7.6069  -18.4713   23.5752 C   0  0  0  0  0  0  0  0  0  0  0  0
    8.3770  -19.4019   23.9937 O   0  0  0  0  0  0  0  0  0  0  0  0
    8.1349  -17.2007   23.2176 N   0  0  0  0  0  0  0  0  0  0  0  0
    9.5430  -16.9953   23.3100 C   0  0  1  0  0  0  0  0  0  0  0  0
   10.0919  -16.3973   22.0424 C   0  0  0  0  0  0  0  0  0  0  0  0
   11.5686  -16.2770   22.0419 C   0  0  0  0  0  0  0  0  0  0  0  0
   12.1060  -15.3062   21.4313 O   0  0  0  0  0  0  0  0  0  0  0  0
    9.9310  -16.1957   24.5097 C   0  0  0  0  0  0  0  0  0  0  0  0
   11.1301  -15.8633   24.6744 O   0  0  0  0  0  0  0  0  0  0  0  0
   12.4028  -17.1777   22.6788 O   0  0  0  0  0  0  0  0  0  0  0  0
    8.1586  -12.4221   25.5618 C   0  0  0  0  0  0  0  0  0  0  0  0
    7.3358  -13.6856   25.8509 C   0  0  2  0  0  0  0  0  0  0  0  0
    5.9701  -13.2007   26.2867 C   0  0  0  0  0  0  0  0  0  0  0  0
    7.9811  -14.3630   27.0218 C   0  0  0  0  0  0  0  0  0  0  0  0
    9.2599  -15.0973   26.6818 C   0  0  2  0  0  0  0  0  0  0  0  0
    8.9539  -15.8253   25.4387 N   0  0  0  0  0  0  0  0  0  0  0  0
    9.7008  -16.0228   27.7354 C   0  0  0  0  0  0  0  0  0  0  0  0
    9.6514  -17.2621   27.5992 O   0  0  0  0  0  0  0  0  0  0  0  0
   10.1885  -15.5003   28.9216 O   0  0  0  0  0  0  0  0  0  0  0  0
  1  2  1  0
  2  3  2  0
  4  2  1  0
  5  4  1  0
  5  6  1  6
  7  5  1  0
  7  8  2  0
  9  7  1  0
 10 14  1  0
 10  9  1  0
 10 11  1  6
 12 11  1  0
 12 16  1  0
 13 12  2  0
 14 22  1  0
 15 14  2  0
 18 19  1  1
 18 17  1  0
 20 18  1  0
 21 20  1  1
 22 21  1  0
 23 25  1  0
 23 21  1  0
 24 23  2  0
M  END
$$$$
