NDL.pdb
     RDKit          3D

 25 24  0  0  1  0  0  0  0  0999 V2000
    8.9129  -13.7670   17.4576 N   0  0  0  0  0  0  0  0  0  0  0  0
    8.2331  -13.1462   18.5300 C   0  0  0  0  0  0  0  0  0  0  0  0
    7.6744  -12.0547   18.3123 O   0  0  0  0  0  0  0  0  0  0  0  0
    8.1829  -13.7656   19.8665 C   0  0  0  0  0  0  0  0  0  0  0  0
    8.9247  -15.0727   19.9563 C   0  0  2  0  0  0  0  0  0  0  0  0
    8.4208  -16.0907   19.0691 N   0  0  0  0  0  0  0  0  0  0  0  0
    8.9440  -15.5540   21.3578 C   0  0  0  0  0  0  0  0  0  0  0  0
    7.8333  -15.4976   21.9882 O   0  0  0  0  0  0  0  0  0  0  0  0
   10.1126  -16.0552   21.9936 N   0  0  0  0  0  0  0  0  0  0  0  0
    9.9832  -16.6733   23.2721 C   0  0  1  0  0  0  0  0  0  0  0  0
   11.0154  -17.7519   23.4642 C   0  0  0  0  0  0  0  0  0  0  0  0
   10.9851  -18.7882   22.4058 C   0  0  0  0  0  0  0  0  0  0  0  0
    9.9910  -19.5702   22.3395 O   0  0  0  0  0  0  0  0  0  0  0  0
   10.0010  -15.6873   24.3931 C   0  0  0  0  0  0  0  0  0  0  0  0
   10.9908  -14.9293   24.5390 O   0  0  0  0  0  0  0  0  0  0  0  0
   11.9951  -18.9510   21.4751 O   0  0  0  0  0  0  0  0  0  0  0  0
    7.8663  -12.1749   26.0453 C   0  0  0  0  0  0  0  0  0  0  0  0
    7.0505  -13.4566   25.8250 C   0  0  2  0  0  0  0  0  0  0  0  0
    5.6239  -13.1084   26.1911 C   0  0  0  0  0  0  0  0  0  0  0  0
    7.5499  -14.4627   26.8173 C   0  0  0  0  0  0  0  0  0  0  0  0
    8.9695  -14.9234   26.5673 C   0  0  2  0  0  0  0  0  0  0  0  0
    8.9142  -15.6183   25.2701 N   0  0  0  0  0  0  0  0  0  0  0  0
    9.4889  -15.8131   27.6159 C   0  0  0  0  0  0  0  0  0  0  0  0
    9.4918  -17.0551   27.4969 O   0  0  0  0  0  0  0  0  0  0  0  0
    9.9933  -15.2524   28.7775 O   0  0  0  0  0  0  0  0  0  0  0  0
  1  2  1  0
  2  3  2  0
  4  2  1  0
  5  4  1  0
  5  6  1  6
  7  5  1  0
  7  8  2  0
  9  7  1  0
 10 14  1  0
 10  9  1  0
 10 11  1  1
 12 11  1  0
 12 16  1  0
 13 12  2  0
 14 22  1  0
 15 14  2  0
 18 19  1  1
 18 17  1  0
 20 18  1  0
 21 20  1  1
 22 21  1  0
 23 25  1  0
 23 21  1  0
 24 23  2  0
M  END
$$$$
