NDL.pdb
     RDKit          3D

 25 24  0  0  1  0  0  0  0  0999 V2000
    8.2618  -12.5239   17.4913 N   0  0  0  0  0  0  0  0  0  0  0  0
    7.5166  -13.7220   17.5747 C   0  0  0  0  0  0  0  0  0  0  0  0
    6.7737  -14.0141   16.6189 O   0  0  0  0  0  0  0  0  0  0  0  0
    7.6110  -14.6026   18.7528 C   0  0  0  0  0  0  0  0  0  0  0  0
    8.3981  -14.0091   19.8908 C   0  0  2  0  0  0  0  0  0  0  0  0
    9.6984  -13.5200   19.5072 N   0  0  0  0  0  0  0  0  0  0  0  0
    8.5058  -14.9848   21.0011 C   0  0  0  0  0  0  0  0  0  0  0  0
    7.4023  -15.4117   21.4851 O   0  0  0  0  0  0  0  0  0  0  0  0
    9.7485  -15.4398   21.5208 N   0  0  0  0  0  0  0  0  0  0  0  0
    9.7376  -16.3832   22.5900 C   0  0  1  0  0  0  0  0  0  0  0  0
   10.8122  -17.4222   22.4126 C   0  0  0  0  0  0  0  0  0  0  0  0
   10.3227  -18.6710   21.7831 C   0  0  0  0  0  0  0  0  0  0  0  0
    9.2299  -19.1724   22.1812 O   0  0  0  0  0  0  0  0  0  0  0  0
    9.8153  -15.7335   23.9321 C   0  0  0  0  0  0  0  0  0  0  0  0
   10.8164  -15.0371   24.2290 O   0  0  0  0  0  0  0  0  0  0  0  0
   11.0018  -19.3274   20.7729 O   0  0  0  0  0  0  0  0  0  0  0  0
    8.2093  -12.5368   26.4725 C   0  0  0  0  0  0  0  0  0  0  0  0
    7.2721  -13.5771   25.8431 C   0  0  2  0  0  0  0  0  0  0  0  0
    5.8666  -13.1212   26.1704 C   0  0  0  0  0  0  0  0  0  0  0  0
    7.5174  -14.8699   26.5606 C   0  0  0  0  0  0  0  0  0  0  0  0
    8.8602  -15.4984   26.2575 C   0  0  2  0  0  0  0  0  0  0  0  0
    8.7712  -15.9079   24.8457 N   0  0  0  0  0  0  0  0  0  0  0  0
    9.1752  -16.6484   27.1172 C   0  0  0  0  0  0  0  0  0  0  0  0
    8.8983  -17.8208   26.7923 O   0  0  0  0  0  0  0  0  0  0  0  0
    9.8020  -16.4223   28.3313 O   0  0  0  0  0  0  0  0  0  0  0  0
  1  2  1  0
  2  3  2  0
  4  2  1  0
  5  4  1  0
  5  6  1  6
  7  5  1  0
  7  8  2  0
  9  7  1  0
 10 14  1  0
 10  9  1  0
 10 11  1  6
 12 11  1  0
 12 16  1  0
 13 12  2  0
 14 22  1  0
 15 14  2  0
 18 19  1  1
 18 17  1  0
 20 18  1  0
 21 20  1  1
 22 21  1  0
 23 25  1  0
 23 21  1  0
 24 23  2  0
M  END
$$$$
