NDL.pdb
     RDKit          3D

 25 24  0  0  1  0  0  0  0  0999 V2000
    8.7986  -12.8441   17.4127 N   0  0  0  0  0  0  0  0  0  0  0  0
    7.6267  -13.5700   17.7247 C   0  0  0  0  0  0  0  0  0  0  0  0
    6.7805  -13.7259   16.8245 O   0  0  0  0  0  0  0  0  0  0  0  0
    7.4066  -14.1277   19.0712 C   0  0  0  0  0  0  0  0  0  0  0  0
    8.5028  -13.7987   20.0494 C   0  0  2  0  0  0  0  0  0  0  0  0
    9.8223  -13.8048   19.4696 N   0  0  0  0  0  0  0  0  0  0  0  0
    8.4340  -14.7071   21.2184 C   0  0  0  0  0  0  0  0  0  0  0  0
    7.3149  -14.7482   21.8349 O   0  0  0  0  0  0  0  0  0  0  0  0
    9.5304  -15.5000   21.6547 N   0  0  0  0  0  0  0  0  0  0  0  0
    9.3680  -16.3101   22.8169 C   0  0  1  0  0  0  0  0  0  0  0  0
   10.2252  -17.5454   22.7456 C   0  0  0  0  0  0  0  0  0  0  0  0
   10.0448  -18.4523   23.9033 C   0  0  0  0  0  0  0  0  0  0  0  0
   11.0662  -18.9752   24.4394 O   0  0  0  0  0  0  0  0  0  0  0  0
    9.5965  -15.5530   24.0833 C   0  0  0  0  0  0  0  0  0  0  0  0
   10.6983  -14.9839   24.2776 O   0  0  0  0  0  0  0  0  0  0  0  0
    8.8075  -18.7635   24.4369 O   0  0  0  0  0  0  0  0  0  0  0  0
    8.5550  -11.9356   26.2009 C   0  0  0  0  0  0  0  0  0  0  0  0
    7.4171  -12.8791   25.7866 C   0  0  2  0  0  0  0  0  0  0  0  0
    6.1332  -12.1685   26.1570 C   0  0  0  0  0  0  0  0  0  0  0  0
    7.5339  -14.1009   26.6468 C   0  0  0  0  0  0  0  0  0  0  0  0
    8.7784  -14.9216   26.3869 C   0  0  2  0  0  0  0  0  0  0  0  0
    8.5801  -15.4856   25.0411 N   0  0  0  0  0  0  0  0  0  0  0  0
    8.9925  -15.9884   27.3752 C   0  0  0  0  0  0  0  0  0  0  0  0
    9.3973  -15.7555   28.5323 O   0  0  0  0  0  0  0  0  0  0  0  0
    8.7356  -17.2991   27.0089 O   0  0  0  0  0  0  0  0  0  0  0  0
  1  2  1  0
  2  3  2  0
  4  2  1  0
  5  4  1  0
  5  6  1  6
  7  5  1  0
  7  8  2  0
  9  7  1  0
 10 14  1  0
 10  9  1  0
 10 11  1  6
 12 11  1  0
 12 16  1  0
 13 12  2  0
 14 22  1  0
 15 14  2  0
 18 19  1  1
 18 17  1  0
 20 18  1  0
 21 20  1  1
 22 21  1  0
 23 25  1  0
 23 21  1  0
 24 23  2  0
M  END
$$$$
