NDL.pdb
     RDKit          3D

 25 24  0  0  1  0  0  0  0  0999 V2000
    4.3163  -19.8265   22.2933 N   0  0  0  0  0  0  0  0  0  0  0  0
    5.4736  -20.6214   22.1301 C   0  0  0  0  0  0  0  0  0  0  0  0
    5.3501  -21.7202   21.5572 O   0  0  0  0  0  0  0  0  0  0  0  0
    6.7884  -20.1701   22.6201 C   0  0  0  0  0  0  0  0  0  0  0  0
    6.7438  -18.8525   23.3474 C   0  0  2  0  0  0  0  0  0  0  0  0
    5.8850  -17.8743   22.7287 N   0  0  0  0  0  0  0  0  0  0  0  0
    8.1153  -18.3184   23.5215 C   0  0  0  0  0  0  0  0  0  0  0  0
    8.9556  -19.0975   24.0880 O   0  0  0  0  0  0  0  0  0  0  0  0
    8.5057  -17.0198   23.0945 N   0  0  0  0  0  0  0  0  0  0  0  0
    9.8420  -16.5907   23.3468 C   0  0  1  0  0  0  0  0  0  0  0  0
   10.3929  -15.8083   22.1848 C   0  0  0  0  0  0  0  0  0  0  0  0
   10.6342  -16.6375   20.9809 C   0  0  0  0  0  0  0  0  0  0  0  0
   11.0893  -17.8108   21.1238 O   0  0  0  0  0  0  0  0  0  0  0  0
    9.9727  -15.8380   24.6296 C   0  0  0  0  0  0  0  0  0  0  0  0
   11.0896  -15.3765   24.9690 O   0  0  0  0  0  0  0  0  0  0  0  0
   10.3874  -16.1953   19.6940 O   0  0  0  0  0  0  0  0  0  0  0  0
    8.2929  -12.1330   26.0777 C   0  0  0  0  0  0  0  0  0  0  0  0
    7.3250  -13.3015   25.8437 C   0  0  2  0  0  0  0  0  0  0  0  0
    5.9366  -12.7404   26.0625 C   0  0  0  0  0  0  0  0  0  0  0  0
    7.5925  -14.3069   26.9226 C   0  0  0  0  0  0  0  0  0  0  0  0
    8.9113  -15.0341   26.7748 C   0  0  2  0  0  0  0  0  0  0  0  0
    8.8487  -15.6548   25.4408 N   0  0  0  0  0  0  0  0  0  0  0  0
    9.1396  -16.0484   27.8140 C   0  0  0  0  0  0  0  0  0  0  0  0
    8.9929  -17.2688   27.5996 O   0  0  0  0  0  0  0  0  0  0  0  0
    9.5317  -15.6346   29.0761 O   0  0  0  0  0  0  0  0  0  0  0  0
  1  2  1  0
  2  3  2  0
  4  2  1  0
  5  4  1  0
  5  6  1  6
  7  5  1  0
  7  8  2  0
  9  7  1  0
 10 14  1  0
 10  9  1  0
 10 11  1  6
 12 11  1  0
 12 16  1  0
 13 12  2  0
 14 22  1  0
 15 14  2  0
 18 19  1  1
 18 17  1  0
 20 18  1  0
 21 20  1  1
 22 21  1  0
 23 25  1  0
 23 21  1  0
 24 23  2  0
M  END
$$$$
