NDL.pdb
     RDKit          3D

 25 24  0  0  1  0  0  0  0  0999 V2000
    9.3756  -13.5410   16.3343 N   0  0  0  0  0  0  0  0  0  0  0  0
    8.0000  -13.6107   16.6514 C   0  0  0  0  0  0  0  0  0  0  0  0
    7.1867  -13.6646   15.7099 O   0  0  0  0  0  0  0  0  0  0  0  0
    7.5358  -13.6199   18.0503 C   0  0  0  0  0  0  0  0  0  0  0  0
    8.6533  -13.6105   19.0592 C   0  0  2  0  0  0  0  0  0  0  0  0
    9.9413  -13.9441   18.5050 N   0  0  0  0  0  0  0  0  0  0  0  0
    8.3208  -14.4987   20.1981 C   0  0  0  0  0  0  0  0  0  0  0  0
    7.2308  -14.2408   20.8141 O   0  0  0  0  0  0  0  0  0  0  0  0
    9.1446  -15.5828   20.6071 N   0  0  0  0  0  0  0  0  0  0  0  0
    8.8182  -16.2723   21.8119 C   0  0  1  0  0  0  0  0  0  0  0  0
    9.5409  -17.5897   21.9001 C   0  0  0  0  0  0  0  0  0  0  0  0
    9.1973  -18.5221   20.8010 C   0  0  0  0  0  0  0  0  0  0  0  0
   10.1186  -18.9402   20.0392 O   0  0  0  0  0  0  0  0  0  0  0  0
    9.0406  -15.4390   23.0307 C   0  0  0  0  0  0  0  0  0  0  0  0
    9.7039  -14.3768   22.9454 O   0  0  0  0  0  0  0  0  0  0  0  0
    7.9103  -18.9660   20.5581 O   0  0  0  0  0  0  0  0  0  0  0  0
    6.1827  -13.0778   26.9026 C   0  0  0  0  0  0  0  0  0  0  0  0
    7.5132  -12.7988   26.1895 C   0  0  2  0  0  0  0  0  0  0  0  0
    7.3599  -11.4395   25.5420 C   0  0  0  0  0  0  0  0  0  0  0  0
    7.6410  -13.8186   25.0986 C   0  0  0  0  0  0  0  0  0  0  0  0
    8.5101  -15.0034   25.4604 C   0  0  2  0  0  0  0  0  0  0  0  0
    8.5075  -15.8507   24.2560 N   0  0  0  0  0  0  0  0  0  0  0  0
    8.0223  -15.7517   26.6279 C   0  0  0  0  0  0  0  0  0  0  0  0
    8.3590  -15.4632   27.7942 O   0  0  0  0  0  0  0  0  0  0  0  0
    7.1581  -16.8149   26.4260 O   0  0  0  0  0  0  0  0  0  0  0  0
  1  2  1  0
  2  3  2  0
  4  2  1  0
  5  4  1  0
  5  6  1  6
  7  5  1  0
  7  8  2  0
  9  7  1  0
 10 14  1  0
 10  9  1  0
 10 11  1  1
 12 11  1  0
 12 16  1  0
 13 12  2  0
 14 22  1  0
 15 14  2  0
 18 19  1  6
 18 17  1  0
 20 18  1  0
 21 20  1  6
 22 21  1  0
 23 25  1  0
 23 21  1  0
 24 23  2  0
M  END
$$$$
