NDL.pdb
     RDKit          3D

 25 24  0  0  1  0  0  0  0  0999 V2000
    5.2457  -19.6276   19.7955 N   0  0  0  0  0  0  0  0  0  0  0  0
    6.4114  -18.8288   19.8228 C   0  0  0  0  0  0  0  0  0  0  0  0
    6.6180  -18.0660   18.8603 O   0  0  0  0  0  0  0  0  0  0  0  0
    7.3570  -18.8915   20.9517 C   0  0  0  0  0  0  0  0  0  0  0  0
    7.4254  -17.6204   21.7556 C   0  0  2  0  0  0  0  0  0  0  0  0
    7.2005  -16.4272   20.9792 N   0  0  0  0  0  0  0  0  0  0  0  0
    8.7149  -17.5441   22.4821 C   0  0  0  0  0  0  0  0  0  0  0  0
    9.0234  -18.5624   23.1907 O   0  0  0  0  0  0  0  0  0  0  0  0
    9.5811  -16.4188   22.4160 N   0  0  0  0  0  0  0  0  0  0  0  0
   10.7865  -16.4387   23.1775 C   0  0  1  0  0  0  0  0  0  0  0  0
   11.8769  -15.6575   22.4946 C   0  0  0  0  0  0  0  0  0  0  0  0
   12.2226  -16.1824   21.1528 C   0  0  0  0  0  0  0  0  0  0  0  0
   12.0073  -15.4591   20.1357 O   0  0  0  0  0  0  0  0  0  0  0  0
   10.5851  -15.9878   24.5866 C   0  0  0  0  0  0  0  0  0  0  0  0
   11.5814  -15.7411   25.3091 O   0  0  0  0  0  0  0  0  0  0  0  0
   12.7736  -17.4341   20.9474 O   0  0  0  0  0  0  0  0  0  0  0  0
    8.4504  -12.5245   26.6545 C   0  0  0  0  0  0  0  0  0  0  0  0
    7.6705  -13.4927   25.7539 C   0  0  2  0  0  0  0  0  0  0  0  0
    6.2509  -12.9695   25.7136 C   0  0  0  0  0  0  0  0  0  0  0  0
    7.6551  -14.8174   26.4547 C   0  0  0  0  0  0  0  0  0  0  0  0
    8.9995  -15.5109   26.4926 C   0  0  2  0  0  0  0  0  0  0  0  0
    9.2876  -15.8452   25.0876 N   0  0  0  0  0  0  0  0  0  0  0  0
    9.0115  -16.7183   27.3310 C   0  0  0  0  0  0  0  0  0  0  0  0
    9.0561  -16.6658   28.5768 O   0  0  0  0  0  0  0  0  0  0  0  0
    8.9717  -17.9585   26.7159 O   0  0  0  0  0  0  0  0  0  0  0  0
  1  2  1  0
  2  3  2  0
  4  2  1  0
  5  4  1  0
  5  6  1  6
  7  5  1  0
  7  8  2  0
  9  7  1  0
 10 14  1  0
 10  9  1  0
 10 11  1  6
 12 11  1  0
 12 16  1  0
 13 12  2  0
 14 22  1  0
 15 14  2  0
 18 19  1  1
 18 17  1  0
 20 18  1  0
 21 20  1  6
 22 21  1  0
 23 25  1  0
 23 21  1  0
 24 23  2  0
M  END
$$$$
