VAA.pdb
     RDKit          3D

 18 17  0  0  1  0  0  0  0  0999 V2000
   17.4727   -8.4745  -17.4239 C   0  0  0  0  0  0  0  0  0  0  0  0
   16.7650   -9.4472  -16.5424 C   0  0  1  0  0  0  0  0  0  0  0  0
   15.8379  -10.3628  -17.3118 C   0  0  0  0  0  0  0  0  0  0  0  0
   17.7699  -10.3011  -15.7986 C   0  0  2  0  0  0  0  0  0  0  0  0
   16.9590  -11.0919  -14.8429 N   0  0  0  0  0  0  0  0  0  0  0  0
   18.6657   -9.4273  -15.0244 C   0  0  0  0  0  0  0  0  0  0  0  0
   18.1310   -8.6764  -14.1327 O   0  0  0  0  0  0  0  0  0  0  0  0
   22.2627   -9.0338  -14.3170 C   0  0  0  0  0  0  0  0  0  0  0  0
   20.8266   -8.4891  -14.3250 C   0  0  2  0  0  0  0  0  0  0  0  0
   20.0712   -9.3535  -15.1872 N   0  0  0  0  0  0  0  0  0  0  0  0
   20.8650   -7.0918  -14.8092 C   0  0  0  0  0  0  0  0  0  0  0  0
   20.9314   -6.7756  -16.0292 O   0  0  0  0  0  0  0  0  0  0  0  0
   20.0738   -3.7599  -13.3423 C   0  0  0  0  0  0  0  0  0  0  0  0
   20.8907   -4.6322  -14.2665 C   0  0  2  0  0  0  0  0  0  0  0  0
   20.8261   -6.0353  -13.8648 N   0  0  0  0  0  0  0  0  0  0  0  0
   22.3207   -4.2390  -14.2789 C   0  0  0  0  0  0  0  0  0  0  0  0
   22.8222   -3.2722  -15.1413 O   0  0  0  0  0  0  0  0  0  0  0  0
   23.1296   -4.7733  -13.5027 O   0  0  0  0  0  0  0  0  0  0  0  0
  2  1  1  6
  2  4  1  0
  3  2  1  0
  4  5  1  1
  4  6  1  0
  6 10  1  0
  6  7  2  0
  9  8  1  6
 10  9  1  0
 11  9  1  0
 11 12  2  0
 14 13  1  1
 14 15  1  0
 15 11  1  0
 16 14  1  0
 17 16  1  0
 18 16  2  0
M  END
$$$$
