VAA.pdb
     RDKit          3D

 18 17  0  0  1  0  0  0  0  0999 V2000
   27.5101  -13.2950  -20.7214 C   0  0  0  0  0  0  0  0  0  0  0  0
   28.6436  -12.3271  -20.6725 C   0  0  1  0  0  0  0  0  0  0  0  0
   28.3814  -11.0814  -21.4907 C   0  0  0  0  0  0  0  0  0  0  0  0
   28.9104  -11.9108  -19.2416 C   0  0  2  0  0  0  0  0  0  0  0  0
   27.6775  -11.2059  -18.8176 N   0  0  0  0  0  0  0  0  0  0  0  0
   30.0200  -10.9445  -19.2195 C   0  0  0  0  0  0  0  0  0  0  0  0
   31.1850  -11.3774  -19.5367 O   0  0  0  0  0  0  0  0  0  0  0  0
   30.7128   -7.5011  -19.7138 C   0  0  0  0  0  0  0  0  0  0  0  0
   31.0738   -8.7486  -18.8937 C   0  0  2  0  0  0  0  0  0  0  0  0
   29.8999   -9.5750  -18.8771 N   0  0  0  0  0  0  0  0  0  0  0  0
   31.4824   -8.3103  -17.5412 C   0  0  0  0  0  0  0  0  0  0  0  0
   30.6745   -8.1431  -16.5860 O   0  0  0  0  0  0  0  0  0  0  0  0
   34.8407   -7.7398  -15.8824 C   0  0  0  0  0  0  0  0  0  0  0  0
   33.3349   -7.6515  -15.9668 C   0  0  2  0  0  0  0  0  0  0  0  0
   32.8537   -8.0590  -17.2845 N   0  0  0  0  0  0  0  0  0  0  0  0
   32.8465   -6.2726  -15.7223 C   0  0  0  0  0  0  0  0  0  0  0  0
   32.6503   -5.7652  -14.4441 O   0  0  0  0  0  0  0  0  0  0  0  0
   32.5930   -5.5143  -16.6726 O   0  0  0  0  0  0  0  0  0  0  0  0
  2  1  1  1
  2  4  1  0
  3  2  1  0
  4  5  1  6
  4  6  1  0
  6 10  1  0
  6  7  2  0
  9  8  1  6
 10  9  1  0
 11  9  1  0
 11 12  2  0
 14 13  1  6
 14 15  1  0
 15 11  1  0
 16 14  1  0
 17 16  1  0
 18 16  2  0
M  END
$$$$
