VAA.pdb
     RDKit          3D

 18 17  0  0  1  0  0  0  0  0999 V2000
   16.3635  -11.7306  -15.9453 C   0  0  0  0  0  0  0  0  0  0  0  0
   17.2957  -10.5679  -15.8915 C   0  0  1  0  0  0  0  0  0  0  0  0
   17.7334  -10.2371  -14.4813 C   0  0  0  0  0  0  0  0  0  0  0  0
   18.5305  -10.8530  -16.7199 C   0  0  2  0  0  0  0  0  0  0  0  0
   19.1127  -12.0770  -16.1206 N   0  0  0  0  0  0  0  0  0  0  0  0
   19.4938   -9.7547  -16.5431 C   0  0  0  0  0  0  0  0  0  0  0  0
   20.3036   -9.8347  -15.5516 O   0  0  0  0  0  0  0  0  0  0  0  0
   20.6879   -6.7489  -18.3703 C   0  0  0  0  0  0  0  0  0  0  0  0
   20.6386   -7.6629  -17.1369 C   0  0  2  0  0  0  0  0  0  0  0  0
   19.5961   -8.6187  -17.3836 N   0  0  0  0  0  0  0  0  0  0  0  0
   20.3726   -6.8222  -15.9491 C   0  0  0  0  0  0  0  0  0  0  0  0
   19.2139   -6.5537  -15.5271 O   0  0  0  0  0  0  0  0  0  0  0  0
   22.5302   -5.3702  -13.2163 C   0  0  0  0  0  0  0  0  0  0  0  0
   21.2823   -5.4175  -14.0666 C   0  0  2  0  0  0  0  0  0  0  0  0
   21.4680   -6.2788  -15.2318 N   0  0  0  0  0  0  0  0  0  0  0  0
   20.8999   -4.0735  -14.5639 C   0  0  0  0  0  0  0  0  0  0  0  0
   21.0904   -3.6832  -15.8834 O   0  0  0  0  0  0  0  0  0  0  0  0
   20.3872   -3.2395  -13.7999 O   0  0  0  0  0  0  0  0  0  0  0  0
  2  1  1  1
  2  4  1  0
  3  2  1  0
  4  5  1  1
  4  6  1  0
  6 10  1  0
  6  7  2  0
  9  8  1  6
 10  9  1  0
 11  9  1  0
 11 12  2  0
 14 13  1  6
 14 15  1  0
 15 11  1  0
 16 14  1  0
 17 16  1  0
 18 16  2  0
M  END
$$$$
