VAA.pdb
     RDKit          3D

 18 17  0  0  1  0  0  0  0  0999 V2000
   11.2291  -11.7645   -9.7609 C   0  0  0  0  0  0  0  0  0  0  0  0
   11.7530  -10.3718   -9.8603 C   0  0  1  0  0  0  0  0  0  0  0  0
   11.9970   -9.7433   -8.5056 C   0  0  0  0  0  0  0  0  0  0  0  0
   13.0548  -10.3601  -10.6331 C   0  0  2  0  0  0  0  0  0  0  0  0
   13.9627  -11.2372   -9.8566 N   0  0  0  0  0  0  0  0  0  0  0  0
   13.6118   -8.9981  -10.6186 C   0  0  0  0  0  0  0  0  0  0  0  0
   12.9552   -8.0860  -11.2367 O   0  0  0  0  0  0  0  0  0  0  0  0
   16.2127   -7.0657   -8.8341 C   0  0  0  0  0  0  0  0  0  0  0  0
   15.1948   -7.2332   -9.9720 C   0  0  2  0  0  0  0  0  0  0  0  0
   14.8147   -8.6176   -9.9738 N   0  0  0  0  0  0  0  0  0  0  0  0
   15.8417   -6.8173  -11.2357 C   0  0  0  0  0  0  0  0  0  0  0  0
   16.7243   -7.4986  -11.8272 O   0  0  0  0  0  0  0  0  0  0  0  0
   14.9248   -4.4154  -13.9169 C   0  0  0  0  0  0  0  0  0  0  0  0
   15.9759   -5.1632  -13.1305 C   0  0  2  0  0  0  0  0  0  0  0  0
   15.4622   -5.5879  -11.8306 N   0  0  0  0  0  0  0  0  0  0  0  0
   17.1784   -4.3312  -12.8828 C   0  0  0  0  0  0  0  0  0  0  0  0
   18.1260   -4.0764  -13.8662 O   0  0  0  0  0  0  0  0  0  0  0  0
   17.3786   -3.8269  -11.7658 O   0  0  0  0  0  0  0  0  0  0  0  0
  2  1  1  1
  2  4  1  0
  3  2  1  0
  4  5  1  1
  4  6  1  0
  6 10  1  0
  6  7  2  0
  9  8  1  1
 10  9  1  0
 11  9  1  0
 11 12  2  0
 14 13  1  1
 14 15  1  0
 15 11  1  0
 16 14  1  0
 17 16  1  0
 18 16  2  0
M  END
$$$$
