VAA.pdb
     RDKit          3D

 18 17  0  0  1  0  0  0  0  0999 V2000
   15.2407  -10.3369  -16.3683 C   0  0  0  0  0  0  0  0  0  0  0  0
   16.1342  -11.4024  -15.8296 C   0  0  1  0  0  0  0  0  0  0  0  0
   17.0888  -11.9438  -16.8714 C   0  0  0  0  0  0  0  0  0  0  0  0
   16.9472  -10.8629  -14.6720 C   0  0  2  0  0  0  0  0  0  0  0  0
   15.9471  -10.5375  -13.6277 N   0  0  0  0  0  0  0  0  0  0  0  0
   17.6014   -9.6109  -15.0844 C   0  0  0  0  0  0  0  0  0  0  0  0
   18.6128   -9.7045  -15.8676 O   0  0  0  0  0  0  0  0  0  0  0  0
   17.0653   -5.9606  -15.0199 C   0  0  0  0  0  0  0  0  0  0  0  0
   17.9907   -7.1846  -15.0877 C   0  0  2  0  0  0  0  0  0  0  0  0
   17.1992   -8.3126  -14.6847 N   0  0  0  0  0  0  0  0  0  0  0  0
   19.1412   -6.9445  -14.1893 C   0  0  0  0  0  0  0  0  0  0  0  0
   19.0873   -7.0703  -12.9346 O   0  0  0  0  0  0  0  0  0  0  0  0
   22.8103   -6.8687  -14.6204 C   0  0  0  0  0  0  0  0  0  0  0  0
   21.5732   -6.3420  -13.9315 C   0  0  2  0  0  0  0  0  0  0  0  0
   20.3818   -6.5503  -14.7506 N   0  0  0  0  0  0  0  0  0  0  0  0
   21.6716   -4.8888  -13.6518 C   0  0  0  0  0  0  0  0  0  0  0  0
   20.9044   -3.9452  -14.3233 O   0  0  0  0  0  0  0  0  0  0  0  0
   22.4589   -4.4629  -12.7910 O   0  0  0  0  0  0  0  0  0  0  0  0
  2  1  1  6
  2  4  1  0
  3  2  1  0
  4  5  1  1
  4  6  1  0
  6 10  1  0
  6  7  2  0
  9  8  1  1
 10  9  1  0
 11  9  1  0
 11 12  2  0
 14 13  1  6
 14 15  1  0
 15 11  1  0
 16 14  1  0
 17 16  1  0
 18 16  2  0
M  END
$$$$
