VAA.pdb
     RDKit          3D

 18 17  0  0  1  0  0  0  0  0999 V2000
   28.6308  -26.8200  -16.3089 C   0  0  0  0  0  0  0  0  0  0  0  0
   27.1559  -26.6656  -16.4660 C   0  0  1  0  0  0  0  0  0  0  0  0
   26.7371  -25.2224  -16.6441 C   0  0  0  0  0  0  0  0  0  0  0  0
   26.6758  -27.4533  -17.6664 C   0  0  2  0  0  0  0  0  0  0  0  0
   27.4846  -26.9451  -18.7995 N   0  0  0  0  0  0  0  0  0  0  0  0
   25.2656  -27.1231  -17.9270 C   0  0  0  0  0  0  0  0  0  0  0  0
   25.0228  -26.2466  -18.8314 O   0  0  0  0  0  0  0  0  0  0  0  0
   21.8820  -28.3546  -17.0251 C   0  0  0  0  0  0  0  0  0  0  0  0
   22.8311  -27.3294  -17.6633 C   0  0  2  0  0  0  0  0  0  0  0  0
   24.1577  -27.6996  -17.2580 N   0  0  0  0  0  0  0  0  0  0  0  0
   22.4440  -25.9829  -17.1882 C   0  0  0  0  0  0  0  0  0  0  0  0
   22.9093  -25.4490  -16.1435 O   0  0  0  0  0  0  0  0  0  0  0  0
   20.9800  -22.9881  -18.7693 C   0  0  0  0  0  0  0  0  0  0  0  0
   21.1078  -23.8798  -17.5565 C   0  0  2  0  0  0  0  0  0  0  0  0
   21.4989  -25.2354  -17.9349 N   0  0  0  0  0  0  0  0  0  0  0  0
   19.8329  -23.9786  -16.8050 C   0  0  0  0  0  0  0  0  0  0  0  0
   19.3710  -22.9605  -15.9805 O   0  0  0  0  0  0  0  0  0  0  0  0
   19.1254  -24.9955  -16.8921 O   0  0  0  0  0  0  0  0  0  0  0  0
  2  1  1  6
  2  4  1  0
  3  2  1  0
  4  5  1  6
  4  6  1  0
  6 10  1  0
  6  7  2  0
  9  8  1  1
 10  9  1  0
 11  9  1  0
 11 12  2  0
 14 13  1  6
 14 15  1  0
 15 11  1  0
 16 14  1  0
 17 16  1  0
 18 16  2  0
M  END
$$$$
