VAA.pdb
     RDKit          3D

 18 17  0  0  1  0  0  0  0  0999 V2000
   18.2692  -14.0681  -16.5446 C   0  0  0  0  0  0  0  0  0  0  0  0
   19.2409  -12.9386  -16.4815 C   0  0  1  0  0  0  0  0  0  0  0  0
   19.7288  -12.5131  -17.8492 C   0  0  0  0  0  0  0  0  0  0  0  0
   18.6036  -11.7416  -15.8085 C   0  0  2  0  0  0  0  0  0  0  0  0
   17.2871  -11.5918  -16.4726 N   0  0  0  0  0  0  0  0  0  0  0  0
   19.4028  -10.5413  -16.1021 C   0  0  0  0  0  0  0  0  0  0  0  0
   20.5581  -10.4534  -15.5519 O   0  0  0  0  0  0  0  0  0  0  0  0
   19.3738   -7.6437  -18.4127 C   0  0  0  0  0  0  0  0  0  0  0  0
   19.9002   -8.3880  -17.1766 C   0  0  2  0  0  0  0  0  0  0  0  0
   18.9953   -9.4784  -16.9455 N   0  0  0  0  0  0  0  0  0  0  0  0
   19.9446   -7.4341  -16.0468 C   0  0  0  0  0  0  0  0  0  0  0  0
   18.9571   -7.1862  -15.3010 O   0  0  0  0  0  0  0  0  0  0  0  0
   22.5835   -5.9876  -13.9284 C   0  0  0  0  0  0  0  0  0  0  0  0
   21.2778   -5.8032  -14.6657 C   0  0  2  0  0  0  0  0  0  0  0  0
   21.1555   -6.7504  -15.7710 N   0  0  0  0  0  0  0  0  0  0  0  0
   21.1504   -4.4390  -15.2335 C   0  0  0  0  0  0  0  0  0  0  0  0
   20.8807   -3.3252  -14.4484 O   0  0  0  0  0  0  0  0  0  0  0  0
   21.2837   -4.2474  -16.4533 O   0  0  0  0  0  0  0  0  0  0  0  0
  2  1  1  6
  2  4  1  0
  3  2  1  0
  4  5  1  6
  4  6  1  0
  6 10  1  0
  6  7  2  0
  9  8  1  6
 10  9  1  0
 11  9  1  0
 11 12  2  0
 14 13  1  6
 14 15  1  0
 15 11  1  0
 16 14  1  0
 17 16  1  0
 18 16  2  0
M  END
$$$$
