VAA.pdb
     RDKit          3D

 18 17  0  0  1  0  0  0  0  0999 V2000
   18.0237  -13.3644  -17.2075 C   0  0  0  0  0  0  0  0  0  0  0  0
   18.4260  -11.9342  -17.3356 C   0  0  1  0  0  0  0  0  0  0  0  0
   17.2541  -11.0238  -17.6316 C   0  0  0  0  0  0  0  0  0  0  0  0
   19.0851  -11.4631  -16.0566 C   0  0  2  0  0  0  0  0  0  0  0  0
   18.0765  -11.7102  -14.9992 N   0  0  0  0  0  0  0  0  0  0  0  0
   19.3149  -10.0119  -16.1389 C   0  0  0  0  0  0  0  0  0  0  0  0
   20.2026   -9.6018  -16.9689 O   0  0  0  0  0  0  0  0  0  0  0  0
   17.7200   -6.8554  -15.0870 C   0  0  0  0  0  0  0  0  0  0  0  0
   18.9389   -7.6482  -15.5821 C   0  0  2  0  0  0  0  0  0  0  0  0
   18.6308   -9.0349  -15.3742 N   0  0  0  0  0  0  0  0  0  0  0  0
   20.1221   -7.2048  -14.8128 C   0  0  0  0  0  0  0  0  0  0  0  0
   20.4174   -7.6454  -13.6676 O   0  0  0  0  0  0  0  0  0  0  0  0
   23.1791   -5.2007  -15.7468 C   0  0  0  0  0  0  0  0  0  0  0  0
   22.2530   -5.8631  -14.7538 C   0  0  2  0  0  0  0  0  0  0  0  0
   20.9841   -6.2311  -15.3771 N   0  0  0  0  0  0  0  0  0  0  0  0
   21.9436   -4.9745  -13.6073 C   0  0  0  0  0  0  0  0  0  0  0  0
   22.8001   -4.8279  -12.5234 O   0  0  0  0  0  0  0  0  0  0  0  0
   20.8876   -4.3215  -13.5811 O   0  0  0  0  0  0  0  0  0  0  0  0
  2  1  1  1
  2  4  1  0
  3  2  1  0
  4  5  1  1
  4  6  1  0
  6 10  1  0
  6  7  2  0
  9  8  1  1
 10  9  1  0
 11  9  1  0
 11 12  2  0
 14 13  1  6
 14 15  1  0
 15 11  1  0
 16 14  1  0
 17 16  1  0
 18 16  2  0
M  END
$$$$
