VAA.pdb
     RDKit          3D

 18 17  0  0  1  0  0  0  0  0999 V2000
   26.2267  -19.0209  -16.1255 C   0  0  0  0  0  0  0  0  0  0  0  0
   27.3377  -18.6153  -15.2172 C   0  0  1  0  0  0  0  0  0  0  0  0
   26.8966  -17.6205  -14.1657 C   0  0  0  0  0  0  0  0  0  0  0  0
   27.9055  -19.8308  -14.5156 C   0  0  2  0  0  0  0  0  0  0  0  0
   28.4107  -20.6955  -15.6081 N   0  0  0  0  0  0  0  0  0  0  0  0
   26.8157  -20.5464  -13.8330 C   0  0  0  0  0  0  0  0  0  0  0  0
   26.0790  -21.3169  -14.5461 O   0  0  0  0  0  0  0  0  0  0  0  0
   25.3866  -20.9349  -10.4152 C   0  0  0  0  0  0  0  0  0  0  0  0
   25.3649  -21.1324  -11.9382 C   0  0  2  0  0  0  0  0  0  0  0  0
   26.5198  -20.4508  -12.4508 N   0  0  0  0  0  0  0  0  0  0  0  0
   24.0964  -20.5765  -12.4582 C   0  0  0  0  0  0  0  0  0  0  0  0
   23.8361  -19.3421  -12.4939 O   0  0  0  0  0  0  0  0  0  0  0  0
   21.3020  -21.9129  -14.5483 C   0  0  0  0  0  0  0  0  0  0  0  0
   21.8296  -20.9887  -13.4760 C   0  0  2  0  0  0  0  0  0  0  0  0
   23.1059  -21.4644  -12.9481 N   0  0  0  0  0  0  0  0  0  0  0  0
   20.8912  -20.8738  -12.3332 C   0  0  0  0  0  0  0  0  0  0  0  0
   19.7519  -20.0803  -12.3790 O   0  0  0  0  0  0  0  0  0  0  0  0
   21.1001  -21.4964  -11.2792 O   0  0  0  0  0  0  0  0  0  0  0  0
  2  1  1  1
  2  4  1  0
  3  2  1  0
  4  5  1  6
  4  6  1  0
  6 10  1  0
  6  7  2  0
  9  8  1  1
 10  9  1  0
 11  9  1  0
 11 12  2  0
 14 13  1  6
 14 15  1  0
 15 11  1  0
 16 14  1  0
 17 16  1  0
 18 16  2  0
M  END
$$$$
