VAA.pdb
     RDKit          3D

 18 17  0  0  1  0  0  0  0  0999 V2000
   31.8157   -7.8708  -17.1569 C   0  0  0  0  0  0  0  0  0  0  0  0
   32.1973   -8.3572  -18.5140 C   0  0  1  0  0  0  0  0  0  0  0  0
   33.4810   -7.7332  -19.0166 C   0  0  0  0  0  0  0  0  0  0  0  0
   32.3723   -9.8609  -18.4971 C   0  0  2  0  0  0  0  0  0  0  0  0
   31.0754  -10.3863  -18.0087 N   0  0  0  0  0  0  0  0  0  0  0  0
   33.4084  -10.2146  -17.5138 C   0  0  0  0  0  0  0  0  0  0  0  0
   33.0659  -10.2346  -16.2779 O   0  0  0  0  0  0  0  0  0  0  0  0
   36.8609  -11.5568  -17.4114 C   0  0  0  0  0  0  0  0  0  0  0  0
   35.6566  -10.8601  -16.7606 C   0  0  2  0  0  0  0  0  0  0  0  0
   34.7521  -10.5360  -17.8274 N   0  0  0  0  0  0  0  0  0  0  0  0
   36.1472   -9.6622  -16.0445 C   0  0  0  0  0  0  0  0  0  0  0  0
   36.2587   -8.5243  -16.5789 O   0  0  0  0  0  0  0  0  0  0  0  0
   37.0264   -8.9612  -12.4256 C   0  0  0  0  0  0  0  0  0  0  0  0
   36.9738   -8.6329  -13.8993 C   0  0  2  0  0  0  0  0  0  0  0  0
   36.5177   -9.7795  -14.6812 N   0  0  0  0  0  0  0  0  0  0  0  0
   38.3023   -8.2361  -14.4260 C   0  0  0  0  0  0  0  0  0  0  0  0
   38.7557   -6.9234  -14.3970 O   0  0  0  0  0  0  0  0  0  0  0  0
   39.0650   -9.0831  -14.9190 O   0  0  0  0  0  0  0  0  0  0  0  0
  2  1  1  1
  2  4  1  0
  3  2  1  0
  4  5  1  1
  4  6  1  0
  6 10  1  0
  6  7  2  0
  9  8  1  6
 10  9  1  0
 11  9  1  0
 11 12  2  0
 14 13  1  1
 14 15  1  0
 15 11  1  0
 16 14  1  0
 17 16  1  0
 18 16  2  0
M  END
$$$$
