VAA.pdb
     RDKit          3D

 18 17  0  0  1  0  0  0  0  0999 V2000
  -46.9035  -29.3692  -29.3575 C   0  0  0  0  0  0  0  0  0  0  0  0
  -48.2945  -28.9369  -29.0379 C   0  0  1  0  0  0  0  0  0  0  0  0
  -48.9011  -29.7238  -27.8966 C   0  0  0  0  0  0  0  0  0  0  0  0
  -48.3104  -27.4692  -28.6670 C   0  0  2  0  0  0  0  0  0  0  0  0
  -49.5004  -26.9183  -29.3574 N   0  0  0  0  0  0  0  0  0  0  0  0
  -47.1151  -26.8177  -29.2259 C   0  0  0  0  0  0  0  0  0  0  0  0
  -45.9727  -27.2974  -28.8941 O   0  0  0  0  0  0  0  0  0  0  0  0
  -45.1700  -26.7385  -30.9693 C   0  0  0  0  0  0  0  0  0  0  0  0
  -45.9635  -25.4258  -30.8918 C   0  0  2  0  0  0  0  0  0  0  0  0
  -47.1297  -25.7044  -30.1021 N   0  0  0  0  0  0  0  0  0  0  0  0
  -46.2952  -25.0041  -32.2704 C   0  0  0  0  0  0  0  0  0  0  0  0
  -46.5261  -23.8079  -32.5998 O   0  0  0  0  0  0  0  0  0  0  0  0
  -44.9809  -25.9787  -35.3191 C   0  0  0  0  0  0  0  0  0  0  0  0
  -45.1633  -26.5298  -33.9244 C   0  0  2  0  0  0  0  0  0  0  0  0
  -46.3620  -25.9844  -33.2922 N   0  0  0  0  0  0  0  0  0  0  0  0
  -44.0122  -26.2074  -33.0466 C   0  0  0  0  0  0  0  0  0  0  0  0
  -43.0339  -25.2885  -33.4049 O   0  0  0  0  0  0  0  0  0  0  0  0
  -43.8855  -26.7607  -31.9421 O   0  0  0  0  0  0  0  0  0  0  0  0
  2  1  1  1
  2  4  1  0
  3  2  1  0
  4  5  1  6
  4  6  1  0
  6 10  1  0
  6  7  2  0
  9  8  1  6
 10  9  1  0
 11  9  1  0
 11 12  2  0
 14 13  1  6
 14 15  1  0
 15 11  1  0
 16 14  1  0
 17 16  1  0
 18 16  2  0
M  END
$$$$
