VAA.pdb
     RDKit          3D

 18 17  0  0  1  0  0  0  0  0999 V2000
   17.8657  -13.4742  -16.7364 C   0  0  0  0  0  0  0  0  0  0  0  0
   18.3451  -12.0868  -16.9992 C   0  0  1  0  0  0  0  0  0  0  0  0
   17.2840  -11.2144  -17.6339 C   0  0  0  0  0  0  0  0  0  0  0  0
   18.7871  -11.4358  -15.7058 C   0  0  2  0  0  0  0  0  0  0  0  0
   17.5835  -11.4581  -14.8415 N   0  0  0  0  0  0  0  0  0  0  0  0
   19.1357  -10.0303  -15.9680 C   0  0  0  0  0  0  0  0  0  0  0  0
   20.1669   -9.8048  -16.6966 O   0  0  0  0  0  0  0  0  0  0  0  0
   17.7842   -6.6170  -15.4294 C   0  0  0  0  0  0  0  0  0  0  0  0
   18.9301   -7.5925  -15.7369 C   0  0  2  0  0  0  0  0  0  0  0  0
   18.4197   -8.9095  -15.4796 N   0  0  0  0  0  0  0  0  0  0  0  0
   20.0774   -7.2456  -14.8699 C   0  0  0  0  0  0  0  0  0  0  0  0
   20.2249   -7.6842  -13.6957 O   0  0  0  0  0  0  0  0  0  0  0  0
   23.3691   -5.5002  -15.4073 C   0  0  0  0  0  0  0  0  0  0  0  0
   22.2044   -5.9351  -14.5490 C   0  0  2  0  0  0  0  0  0  0  0  0
   21.0773   -6.3731  -15.3685 N   0  0  0  0  0  0  0  0  0  0  0  0
   21.7196   -4.8382  -13.6763 C   0  0  0  0  0  0  0  0  0  0  0  0
   22.3171   -4.5314  -12.4604 O   0  0  0  0  0  0  0  0  0  0  0  0
   20.7447   -4.1468  -14.0135 O   0  0  0  0  0  0  0  0  0  0  0  0
  2  1  1  1
  2  4  1  0
  3  2  1  0
  4  5  1  1
  4  6  1  0
  6 10  1  0
  6  7  2  0
  9  8  1  1
 10  9  1  0
 11  9  1  0
 11 12  2  0
 14 13  1  6
 14 15  1  0
 15 11  1  0
 16 14  1  0
 17 16  1  0
 18 16  2  0
M  END
$$$$
