VAA.pdb
     RDKit          3D

 18 17  0  0  1  0  0  0  0  0999 V2000
   23.2419  -14.0040  -14.6939 C   0  0  0  0  0  0  0  0  0  0  0  0
   22.9663  -12.5513  -14.8870 C   0  0  1  0  0  0  0  0  0  0  0  0
   24.0953  -11.8331  -15.5936 C   0  0  0  0  0  0  0  0  0  0  0  0
   21.7012  -12.3655  -15.6976 C   0  0  2  0  0  0  0  0  0  0  0  0
   22.0044  -12.9733  -17.0148 N   0  0  0  0  0  0  0  0  0  0  0  0
   21.4660  -10.9271  -15.9011 C   0  0  0  0  0  0  0  0  0  0  0  0
   22.1514  -10.3409  -16.8131 O   0  0  0  0  0  0  0  0  0  0  0  0
   18.9365   -8.3872  -15.0813 C   0  0  0  0  0  0  0  0  0  0  0  0
   20.3541   -8.7665  -15.5348 C   0  0  2  0  0  0  0  0  0  0  0  0
   20.5408  -10.1423  -15.1694 N   0  0  0  0  0  0  0  0  0  0  0  0
   21.3120   -7.8622  -14.8617 C   0  0  0  0  0  0  0  0  0  0  0  0
   21.9157   -8.1530  -13.7922 O   0  0  0  0  0  0  0  0  0  0  0  0
   22.9201   -4.5800  -15.8408 C   0  0  0  0  0  0  0  0  0  0  0  0
   22.5610   -5.6749  -14.8637 C   0  0  2  0  0  0  0  0  0  0  0  0
   21.5798   -6.5938  -15.4353 N   0  0  0  0  0  0  0  0  0  0  0  0
   21.9833   -5.1311  -13.6105 C   0  0  0  0  0  0  0  0  0  0  0  0
   22.7707   -4.6996  -12.5506 O   0  0  0  0  0  0  0  0  0  0  0  0
   20.7527   -5.0434  -13.4682 O   0  0  0  0  0  0  0  0  0  0  0  0
  2  1  1  6
  2  4  1  0
  3  2  1  0
  4  5  1  6
  4  6  1  0
  6 10  1  0
  6  7  2  0
  9  8  1  1
 10  9  1  0
 11  9  1  0
 11 12  2  0
 14 13  1  6
 14 15  1  0
 15 11  1  0
 16 14  1  0
 17 16  1  0
 18 16  2  0
M  END
$$$$
