PWK.pdb
     RDKit          3D

 31 33  0  0  1  0  0  0  0  0999 V2000
   27.5126  -20.8358  -15.4887 N   0  0  0  0  0  0  0  0  0  0  0  0
   28.0965  -20.5873  -16.8149 C   0  0  0  0  0  0  0  0  0  0  0  0
   27.9515  -19.0914  -17.0317 C   0  0  0  0  0  0  0  0  0  0  0  0
   27.3845  -18.5587  -15.7100 C   0  0  0  0  0  0  0  0  0  0  0  0
   27.8027  -19.6424  -14.7457 C   0  0  1  0  0  0  0  0  0  0  0  0
   27.0747  -19.5997  -13.4748 C   0  0  0  0  0  0  0  0  0  0  0  0
   27.1004  -18.5708  -12.7784 O   0  0  0  0  0  0  0  0  0  0  0  0
   26.3463  -20.7319  -13.0493 N   0  0  0  0  0  0  0  0  0  0  0  0
   25.5316  -20.6779  -11.8734 C   0  0  1  0  0  0  0  0  0  0  0  0
   24.2612  -21.4334  -12.0695 C   0  0  0  0  0  0  0  0  0  0  0  0
   23.2517  -20.6493  -12.8222 C   0  0  0  0  0  0  0  0  0  0  0  0
   23.1453  -20.5462  -14.2009 C   0  0  0  0  0  0  0  0  0  0  0  0
   22.1011  -19.7458  -14.5162 N   0  0  0  0  0  0  0  0  0  0  0  0
   21.5273  -19.3269  -13.3769 C   0  0  0  0  0  0  0  0  0  0  0  0
   20.4377  -18.5000  -13.1922 C   0  0  0  0  0  0  0  0  0  0  0  0
   20.0289  -18.2090  -11.9042 C   0  0  0  0  0  0  0  0  0  0  0  0
   20.7209  -18.7529  -10.8352 C   0  0  0  0  0  0  0  0  0  0  0  0
   21.8057  -19.5759  -11.0443 C   0  0  0  0  0  0  0  0  0  0  0  0
   22.2173  -19.8692  -12.3217 C   0  0  0  0  0  0  0  0  0  0  0  0
   26.2392  -21.1052  -10.6370 C   0  0  0  0  0  0  0  0  0  0  0  0
   26.7895  -22.2255  -10.6139 O   0  0  0  0  0  0  0  0  0  0  0  0
   26.2698  -20.2403   -9.5306 N   0  0  0  0  0  0  0  0  0  0  0  0
   26.8424  -20.8421   -8.2633 C   0  0  1  0  0  0  0  0  0  0  0  0
   27.5377  -19.7146   -7.5783 C   0  0  0  0  0  0  0  0  0  0  0  0
   28.2503  -19.8800   -6.3291 C   0  0  0  0  0  0  0  0  0  0  0  0
   28.9437  -18.7490   -5.6572 C   0  0  0  0  0  0  0  0  0  0  0  0
   29.6518  -19.2908   -4.3806 C   0  0  0  0  0  0  0  0  0  0  0  0
   30.3255  -18.2162   -3.6886 N   0  0  0  0  0  0  0  0  0  0  0  0
   25.6150  -21.3123   -7.5862 C   0  0  0  0  0  0  0  0  0  0  0  0
   25.5507  -22.1975   -6.5757 O   0  0  0  0  0  0  0  0  0  0  0  0
   24.4859  -20.8473   -7.9883 O   0  0  0  0  0  0  0  0  0  0  0  0
  1  2  1  0
  2  3  1  0
  4  3  1  0
  5  1  1  0
  5  4  1  0
  5  6  1  1
  7  6  2  0
  8  6  1  0
  9  8  1  0
  9 10  1  6
 10 11  1  0
 11 19  1  0
 12 11  2  0
 12 13  1  0
 13 14  1  0
 14 15  1  0
 15 16  2  0
 17 16  1  0
 18 17  2  0
 19 14  2  0
 19 18  1  0
 20  9  1  0
 21 20  2  0
 22 20  1  0
 23 22  1  0
 24 25  1  0
 23 24  1  1
 26 27  1  0
 26 25  1  0
 28 27  1  0
 29 23  1  0
 29 30  1  0
 31 29  2  0
M  END
$$$$
