PWK.pdb
     RDKit          3D

 31 33  0  0  1  0  0  0  0  0999 V2000
   27.1316  -21.8879  -17.2697 N   0  0  0  0  0  0  0  0  0  0  0  0
   28.1544  -22.3596  -18.2146 C   0  0  0  0  0  0  0  0  0  0  0  0
   28.8981  -23.4548  -17.4709 C   0  0  0  0  0  0  0  0  0  0  0  0
   28.1354  -23.6169  -16.1502 C   0  0  0  0  0  0  0  0  0  0  0  0
   26.7814  -23.0576  -16.5151 C   0  0  1  0  0  0  0  0  0  0  0  0
   25.9569  -22.7290  -15.3492 C   0  0  0  0  0  0  0  0  0  0  0  0
   25.6998  -23.6028  -14.5040 O   0  0  0  0  0  0  0  0  0  0  0  0
   25.4591  -21.4169  -15.1939 N   0  0  0  0  0  0  0  0  0  0  0  0
   24.7319  -21.0449  -14.0182 C   0  0  1  0  0  0  0  0  0  0  0  0
   25.2232  -19.7458  -13.4761 C   0  0  0  0  0  0  0  0  0  0  0  0
   26.6818  -19.7649  -13.2066 C   0  0  0  0  0  0  0  0  0  0  0  0
   27.6729  -19.1812  -13.9810 C   0  0  0  0  0  0  0  0  0  0  0  0
   28.8813  -19.4071  -13.4160 N   0  0  0  0  0  0  0  0  0  0  0  0
   28.6993  -20.1225  -12.2945 C   0  0  0  0  0  0  0  0  0  0  0  0
   29.6289  -20.5895  -11.3875 C   0  0  0  0  0  0  0  0  0  0  0  0
   29.1922  -21.3139  -10.2942 C   0  0  0  0  0  0  0  0  0  0  0  0
   27.8372  -21.5520  -10.1373 C   0  0  0  0  0  0  0  0  0  0  0  0
   26.9277  -21.0756  -11.0560 C   0  0  0  0  0  0  0  0  0  0  0  0
   27.3549  -20.3549  -12.1447 C   0  0  0  0  0  0  0  0  0  0  0  0
   23.2566  -21.0388  -14.2060 C   0  0  0  0  0  0  0  0  0  0  0  0
   22.7948  -20.8244  -15.3458 O   0  0  0  0  0  0  0  0  0  0  0  0
   22.4234  -21.2732  -13.0997 N   0  0  0  0  0  0  0  0  0  0  0  0
   20.9468  -21.3814  -13.4219 C   0  0  1  0  0  0  0  0  0  0  0  0
   20.3704  -22.2120  -12.3256 C   0  0  0  0  0  0  0  0  0  0  0  0
   18.9775  -22.6050  -12.2932 C   0  0  0  0  0  0  0  0  0  0  0  0
   18.3931  -23.3566  -11.1509 C   0  0  0  0  0  0  0  0  0  0  0  0
   16.9152  -23.7075  -11.4937 C   0  0  0  0  0  0  0  0  0  0  0  0
   16.2744  -24.3332  -10.3600 N   0  0  0  0  0  0  0  0  0  0  0  0
   20.5405  -19.9600  -13.3975 C   0  0  0  0  0  0  0  0  0  0  0  0
   19.4646  -19.4274  -14.0036 O   0  0  0  0  0  0  0  0  0  0  0  0
   21.2745  -19.1318  -12.7431 O   0  0  0  0  0  0  0  0  0  0  0  0
  1  2  1  0
  2  3  1  0
  4  3  1  0
  5  1  1  0
  5  4  1  0
  5  6  1  1
  7  6  2  0
  8  6  1  0
  9  8  1  0
  9 10  1  6
 10 11  1  0
 11 19  1  0
 12 11  2  0
 12 13  1  0
 13 14  1  0
 14 15  1  0
 15 16  2  0
 17 16  1  0
 18 17  2  0
 19 14  2  0
 19 18  1  0
 20  9  1  0
 21 20  2  0
 22 20  1  0
 23 22  1  0
 24 25  1  0
 23 24  1  1
 26 27  1  0
 26 25  1  0
 28 27  1  0
 29 23  1  0
 29 30  1  0
 31 29  2  0
M  END
$$$$
