PWK.pdb
     RDKit          3D

 31 33  0  0  1  0  0  0  0  0999 V2000
   27.6800  -20.0647  -14.9856 N   0  0  0  0  0  0  0  0  0  0  0  0
   28.5605  -20.1020  -16.1623 C   0  0  0  0  0  0  0  0  0  0  0  0
   29.5524  -21.2148  -15.8731 C   0  0  0  0  0  0  0  0  0  0  0  0
   29.0696  -21.8353  -14.5563 C   0  0  0  0  0  0  0  0  0  0  0  0
   27.6151  -21.4306  -14.5494 C   0  0  1  0  0  0  0  0  0  0  0  0
   26.9855  -21.5541  -13.2321 C   0  0  0  0  0  0  0  0  0  0  0  0
   25.9004  -22.1481  -13.1153 O   0  0  0  0  0  0  0  0  0  0  0  0
   27.6192  -20.9956  -12.1006 N   0  0  0  0  0  0  0  0  0  0  0  0
   26.9661  -20.9865  -10.8267 C   0  0  1  0  0  0  0  0  0  0  0  0
   27.9075  -20.5711   -9.7478 C   0  0  0  0  0  0  0  0  0  0  0  0
   27.2500  -20.5146   -8.4193 C   0  0  0  0  0  0  0  0  0  0  0  0
   25.9104  -20.7504   -8.1495 C   0  0  0  0  0  0  0  0  0  0  0  0
   25.6835  -20.6085   -6.8233 N   0  0  0  0  0  0  0  0  0  0  0  0
   26.8420  -20.2866   -6.2257 C   0  0  0  0  0  0  0  0  0  0  0  0
   27.1074  -20.0432   -4.8933 C   0  0  0  0  0  0  0  0  0  0  0  0
   28.3985  -19.7252   -4.5151 C   0  0  0  0  0  0  0  0  0  0  0  0
   29.3896  -19.6592   -5.4799 C   0  0  0  0  0  0  0  0  0  0  0  0
   29.1006  -19.9062   -6.8041 C   0  0  0  0  0  0  0  0  0  0  0  0
   27.8198  -20.2228   -7.1867 C   0  0  0  0  0  0  0  0  0  0  0  0
   25.7150  -20.1827  -10.8032 C   0  0  0  0  0  0  0  0  0  0  0  0
   25.7946  -18.9405  -10.8978 O   0  0  0  0  0  0  0  0  0  0  0  0
   24.4800  -20.8397  -10.6752 N   0  0  0  0  0  0  0  0  0  0  0  0
   23.2767  -20.0327  -11.1187 C   0  0  1  0  0  0  0  0  0  0  0  0
   23.0984  -20.3634  -12.5619 C   0  0  0  0  0  0  0  0  0  0  0  0
   22.0202  -19.8198  -13.3604 C   0  0  0  0  0  0  0  0  0  0  0  0
   21.8252  -20.1926  -14.7867 C   0  0  0  0  0  0  0  0  0  0  0  0
   20.6073  -19.3982  -15.3438 C   0  0  0  0  0  0  0  0  0  0  0  0
   20.4394  -19.6648  -16.7539 N   0  0  0  0  0  0  0  0  0  0  0  0
   22.2249  -20.5689  -10.2287 C   0  0  0  0  0  0  0  0  0  0  0  0
   21.0325  -20.0024   -9.9713 O   0  0  0  0  0  0  0  0  0  0  0  0
   22.4508  -21.6822   -9.6268 O   0  0  0  0  0  0  0  0  0  0  0  0
  1  2  1  0
  2  3  1  0
  4  3  1  0
  5  1  1  0
  5  4  1  0
  5  6  1  1
  7  6  2  0
  8  6  1  0
  9  8  1  0
  9 10  1  1
 10 11  1  0
 11 19  1  0
 12 11  2  0
 12 13  1  0
 13 14  1  0
 14 15  1  0
 15 16  2  0
 17 16  1  0
 18 17  2  0
 19 14  2  0
 19 18  1  0
 20  9  1  0
 21 20  2  0
 22 20  1  0
 23 22  1  0
 24 25  1  0
 23 24  1  6
 26 27  1  0
 26 25  1  0
 28 27  1  0
 29 23  1  0
 29 30  1  0
 31 29  2  0
M  END
$$$$
