PWK.pdb
     RDKit          3D

 31 33  0  0  1  0  0  0  0  0999 V2000
   27.7577  -19.3257  -13.2060 N   0  0  0  0  0  0  0  0  0  0  0  0
   28.7153  -19.1072  -14.2999 C   0  0  0  0  0  0  0  0  0  0  0  0
   29.7285  -20.2299  -14.1623 C   0  0  0  0  0  0  0  0  0  0  0  0
   29.1839  -21.1105  -13.0310 C   0  0  0  0  0  0  0  0  0  0  0  0
   27.7175  -20.7521  -13.0512 C   0  0  1  0  0  0  0  0  0  0  0  0
   27.0070  -21.1496  -11.8329 C   0  0  0  0  0  0  0  0  0  0  0  0
   26.6400  -22.3274  -11.6840 O   0  0  0  0  0  0  0  0  0  0  0  0
   26.7440  -20.1879  -10.8331 N   0  0  0  0  0  0  0  0  0  0  0  0
   25.7435  -20.4236   -9.8367 C   0  0  1  0  0  0  0  0  0  0  0  0
   26.1308  -19.8067   -8.5357 C   0  0  0  0  0  0  0  0  0  0  0  0
   27.4334  -20.3135   -8.0392 C   0  0  0  0  0  0  0  0  0  0  0  0
   28.3269  -21.1155   -8.7329 C   0  0  0  0  0  0  0  0  0  0  0  0
   29.4045  -21.3707   -7.9557 N   0  0  0  0  0  0  0  0  0  0  0  0
   29.2329  -20.7545   -6.7752 C   0  0  0  0  0  0  0  0  0  0  0  0
   30.0584  -20.7246   -5.6694 C   0  0  0  0  0  0  0  0  0  0  0  0
   29.6589  -20.0112   -4.5548 C   0  0  0  0  0  0  0  0  0  0  0  0
   28.4443  -19.3466   -4.5761 C   0  0  0  0  0  0  0  0  0  0  0  0
   27.6370  -19.3909   -5.6916 C   0  0  0  0  0  0  0  0  0  0  0  0
   28.0279  -20.0979   -6.8025 C   0  0  0  0  0  0  0  0  0  0  0  0
   24.3767  -20.0120  -10.2543 C   0  0  0  0  0  0  0  0  0  0  0  0
   24.0997  -18.7955  -10.2958 O   0  0  0  0  0  0  0  0  0  0  0  0
   23.4356  -20.9994  -10.5897 N   0  0  0  0  0  0  0  0  0  0  0  0
   22.2253  -20.4978  -11.3511 C   0  0  1  0  0  0  0  0  0  0  0  0
   22.2102  -21.2851  -12.6176 C   0  0  0  0  0  0  0  0  0  0  0  0
   21.1704  -21.1411  -13.6144 C   0  0  0  0  0  0  0  0  0  0  0  0
   21.1130  -21.9979  -14.8285 C   0  0  0  0  0  0  0  0  0  0  0  0
   19.8686  -21.5838  -15.6680 C   0  0  0  0  0  0  0  0  0  0  0  0
   19.7532  -22.4238  -16.8379 N   0  0  0  0  0  0  0  0  0  0  0  0
   21.1344  -20.8252  -10.4084 C   0  0  0  0  0  0  0  0  0  0  0  0
   21.1562  -21.7834   -9.4650 O   0  0  0  0  0  0  0  0  0  0  0  0
   20.0466  -20.1440  -10.4814 O   0  0  0  0  0  0  0  0  0  0  0  0
  1  2  1  0
  2  3  1  0
  4  3  1  0
  5  1  1  0
  5  4  1  0
  5  6  1  1
  7  6  2  0
  8  6  1  0
  9  8  1  0
  9 10  1  1
 10 11  1  0
 11 19  1  0
 12 11  2  0
 12 13  1  0
 13 14  1  0
 14 15  1  0
 15 16  2  0
 17 16  1  0
 18 17  2  0
 19 14  2  0
 19 18  1  0
 20  9  1  0
 21 20  2  0
 22 20  1  0
 23 22  1  0
 24 25  1  0
 23 24  1  6
 26 27  1  0
 26 25  1  0
 28 27  1  0
 29 23  1  0
 29 30  1  0
 31 29  2  0
M  END
$$$$
