PWK.pdb
     RDKit          3D

 31 33  0  0  1  0  0  0  0  0999 V2000
   27.8694  -19.0580  -14.5242 N   0  0  0  0  0  0  0  0  0  0  0  0
   28.9777  -18.7214  -15.4296 C   0  0  0  0  0  0  0  0  0  0  0  0
   29.8165  -19.9848  -15.5071 C   0  0  0  0  0  0  0  0  0  0  0  0
   29.0269  -21.0272  -14.7058 C   0  0  0  0  0  0  0  0  0  0  0  0
   27.6314  -20.4536  -14.7606 C   0  0  1  0  0  0  0  0  0  0  0  0
   26.7282  -21.0308  -13.7616 C   0  0  0  0  0  0  0  0  0  0  0  0
   26.3790  -22.2198  -13.8529 O   0  0  0  0  0  0  0  0  0  0  0  0
   26.2596  -20.2287  -12.6982 N   0  0  0  0  0  0  0  0  0  0  0  0
   25.2925  -20.7344  -11.7718 C   0  0  1  0  0  0  0  0  0  0  0  0
   25.5303  -20.1922  -10.4034 C   0  0  0  0  0  0  0  0  0  0  0  0
   26.8328  -20.6294   -9.8442 C   0  0  0  0  0  0  0  0  0  0  0  0
   27.7874  -21.4064  -10.4829 C   0  0  0  0  0  0  0  0  0  0  0  0
   28.8430  -21.5961   -9.6583 N   0  0  0  0  0  0  0  0  0  0  0  0
   28.5976  -20.9618   -8.5006 C   0  0  0  0  0  0  0  0  0  0  0  0
   29.3760  -20.8706   -7.3645 C   0  0  0  0  0  0  0  0  0  0  0  0
   28.9015  -20.1508   -6.2839 C   0  0  0  0  0  0  0  0  0  0  0  0
   27.6610  -19.5414   -6.3686 C   0  0  0  0  0  0  0  0  0  0  0  0
   26.9018  -19.6464   -7.5134 C   0  0  0  0  0  0  0  0  0  0  0  0
   27.3673  -20.3601   -8.5909 C   0  0  0  0  0  0  0  0  0  0  0  0
   23.8852  -20.5292  -12.2067 C   0  0  0  0  0  0  0  0  0  0  0  0
   23.5489  -19.4132  -12.6538 O   0  0  0  0  0  0  0  0  0  0  0  0
   22.9734  -21.5927  -12.1034 N   0  0  0  0  0  0  0  0  0  0  0  0
   21.6132  -21.3318  -12.7181 C   0  0  1  0  0  0  0  0  0  0  0  0
   21.0695  -22.6817  -13.0441 C   0  0  0  0  0  0  0  0  0  0  0  0
   19.7841  -22.8728  -13.6819 C   0  0  0  0  0  0  0  0  0  0  0  0
   19.2459  -24.2245  -13.9897 C   0  0  0  0  0  0  0  0  0  0  0  0
   17.8236  -24.0630  -14.6027 C   0  0  0  0  0  0  0  0  0  0  0  0
   17.2716  -25.3569  -14.9321 N   0  0  0  0  0  0  0  0  0  0  0  0
   20.9224  -20.6401  -11.6089 C   0  0  0  0  0  0  0  0  0  0  0  0
   19.8945  -19.7801  -11.7221 O   0  0  0  0  0  0  0  0  0  0  0  0
   21.3291  -20.8628  -10.4099 O   0  0  0  0  0  0  0  0  0  0  0  0
  1  2  1  0
  2  3  1  0
  4  3  1  0
  5  1  1  0
  5  4  1  0
  5  6  1  1
  7  6  2  0
  8  6  1  0
  9  8  1  0
  9 10  1  1
 10 11  1  0
 11 19  1  0
 12 11  2  0
 12 13  1  0
 13 14  1  0
 14 15  1  0
 15 16  2  0
 17 16  1  0
 18 17  2  0
 19 14  2  0
 19 18  1  0
 20  9  1  0
 21 20  2  0
 22 20  1  0
 23 22  1  0
 24 25  1  0
 23 24  1  1
 26 27  1  0
 26 25  1  0
 28 27  1  0
 29 23  1  0
 29 30  1  0
 31 29  2  0
M  END
$$$$
