PWK.pdb
     RDKit          3D

 31 33  0  0  1  0  0  0  0  0999 V2000
   14.9021  -18.8307    4.3945 N   0  0  0  0  0  0  0  0  0  0  0  0
   14.1493  -19.3981    3.2662 C   0  0  0  0  0  0  0  0  0  0  0  0
   14.9851  -19.0796    2.0391 C   0  0  0  0  0  0  0  0  0  0  0  0
   16.2625  -18.4366    2.5933 C   0  0  0  0  0  0  0  0  0  0  0  0
   16.2771  -18.9679    4.0064 C   0  0  1  0  0  0  0  0  0  0  0  0
   17.1727  -18.2237    4.8958 C   0  0  0  0  0  0  0  0  0  0  0  0
   18.3793  -18.5158    4.9488 O   0  0  0  0  0  0  0  0  0  0  0  0
   16.6562  -17.1760    5.6890 N   0  0  0  0  0  0  0  0  0  0  0  0
   17.5095  -16.4349    6.5677 C   0  0  1  0  0  0  0  0  0  0  0  0
   17.0573  -15.0186    6.6810 C   0  0  0  0  0  0  0  0  0  0  0  0
   18.1682  -14.1005    7.0322 C   0  0  0  0  0  0  0  0  0  0  0  0
   18.6877  -13.8782    8.2985 C   0  0  0  0  0  0  0  0  0  0  0  0
   19.6936  -12.9765    8.2237 N   0  0  0  0  0  0  0  0  0  0  0  0
   19.8399  -12.6081    6.9410 C   0  0  0  0  0  0  0  0  0  0  0  0
   20.7305  -11.7171    6.3770 C   0  0  0  0  0  0  0  0  0  0  0  0
   20.6873  -11.5007    5.0123 C   0  0  0  0  0  0  0  0  0  0  0  0
   19.7543  -12.1812    4.2483 C   0  0  0  0  0  0  0  0  0  0  0  0
   18.8754  -13.0660    4.8337 C   0  0  0  0  0  0  0  0  0  0  0  0
   18.9130  -13.2858    6.1892 C   0  0  0  0  0  0  0  0  0  0  0  0
   17.6819  -17.0648    7.9038 C   0  0  0  0  0  0  0  0  0  0  0  0
   16.6950  -17.5992    8.4504 O   0  0  0  0  0  0  0  0  0  0  0  0
   18.9466  -17.0420    8.5147 N   0  0  0  0  0  0  0  0  0  0  0  0
   19.0467  -17.8242    9.8086 C   0  0  1  0  0  0  0  0  0  0  0  0
   19.9545  -18.9668    9.5018 C   0  0  0  0  0  0  0  0  0  0  0  0
   20.3998  -19.9035   10.5118 C   0  0  0  0  0  0  0  0  0  0  0  0
   21.3262  -21.0240   10.1992 C   0  0  0  0  0  0  0  0  0  0  0  0
   21.5914  -21.8264   11.5072 C   0  0  0  0  0  0  0  0  0  0  0  0
   22.5669  -22.8648   11.2673 N   0  0  0  0  0  0  0  0  0  0  0  0
   19.6196  -16.8081   10.7172 C   0  0  0  0  0  0  0  0  0  0  0  0
   20.3573  -15.7423   10.3584 O   0  0  0  0  0  0  0  0  0  0  0  0
   19.4096  -16.9372   11.9790 O   0  0  0  0  0  0  0  0  0  0  0  0
  1  2  1  0
  2  3  1  0
  4  3  1  0
  5  1  1  0
  5  4  1  0
  5  6  1  1
  7  6  2  0
  8  6  1  0
  9  8  1  0
  9 10  1  1
 10 11  1  0
 11 19  1  0
 12 11  2  0
 12 13  1  0
 13 14  1  0
 14 15  1  0
 15 16  2  0
 17 16  1  0
 18 17  2  0
 19 14  2  0
 19 18  1  0
 20  9  1  0
 21 20  2  0
 22 20  1  0
 23 22  1  0
 24 25  1  0
 23 24  1  6
 26 27  1  0
 26 25  1  0
 28 27  1  0
 29 23  1  0
 29 30  1  0
 31 29  2  0
M  END
$$$$
