PWK.pdb
     RDKit          3D

 31 33  0  0  1  0  0  0  0  0999 V2000
   27.8488  -19.7507  -14.6401 N   0  0  0  0  0  0  0  0  0  0  0  0
   28.6357  -19.7364  -15.8818 C   0  0  0  0  0  0  0  0  0  0  0  0
   29.3451  -21.0787  -15.9104 C   0  0  0  0  0  0  0  0  0  0  0  0
   28.7932  -21.8376  -14.6973 C   0  0  0  0  0  0  0  0  0  0  0  0
   27.4802  -21.1276  -14.4713 C   0  0  1  0  0  0  0  0  0  0  0  0
   26.9050  -21.3808  -13.1476 C   0  0  0  0  0  0  0  0  0  0  0  0
   26.1152  -22.3261  -12.9839 O   0  0  0  0  0  0  0  0  0  0  0  0
   27.2539  -20.5460  -12.0637 N   0  0  0  0  0  0  0  0  0  0  0  0
   26.6735  -20.7457  -10.7703 C   0  0  1  0  0  0  0  0  0  0  0  0
   27.6296  -20.3635   -9.6920 C   0  0  0  0  0  0  0  0  0  0  0  0
   27.0339  -20.4958   -8.3399 C   0  0  0  0  0  0  0  0  0  0  0  0
   25.7988  -21.0454   -8.0312 C   0  0  0  0  0  0  0  0  0  0  0  0
   25.6014  -20.9938   -6.6938 N   0  0  0  0  0  0  0  0  0  0  0  0
   26.6772  -20.4245   -6.1268 C   0  0  0  0  0  0  0  0  0  0  0  0
   26.9347  -20.1591   -4.7971 C   0  0  0  0  0  0  0  0  0  0  0  0
   28.1309  -19.5571   -4.4541 C   0  0  0  0  0  0  0  0  0  0  0  0
   29.0376  -19.2367   -5.4504 C   0  0  0  0  0  0  0  0  0  0  0  0
   28.7584  -19.5114   -6.7713 C   0  0  0  0  0  0  0  0  0  0  0  0
   27.5717  -20.1096   -7.1190 C   0  0  0  0  0  0  0  0  0  0  0  0
   25.3559  -20.0777  -10.5980 C   0  0  0  0  0  0  0  0  0  0  0  0
   25.2929  -18.8347  -10.6946 O   0  0  0  0  0  0  0  0  0  0  0  0
   24.2201  -20.8599  -10.3314 N   0  0  0  0  0  0  0  0  0  0  0  0
   22.9251  -20.3259  -10.9091 C   0  0  1  0  0  0  0  0  0  0  0  0
   22.5924  -21.2480  -12.0330 C   0  0  0  0  0  0  0  0  0  0  0  0
   21.3843  -21.1165  -12.8196 C   0  0  0  0  0  0  0  0  0  0  0  0
   21.0268  -22.0851  -13.8899 C   0  0  0  0  0  0  0  0  0  0  0  0
   19.6362  -21.6912  -14.4694 C   0  0  0  0  0  0  0  0  0  0  0  0
   19.2974  -22.5487  -15.5818 N   0  0  0  0  0  0  0  0  0  0  0  0
   22.0240  -20.4269   -9.7412 C   0  0  0  0  0  0  0  0  0  0  0  0
   22.0613  -21.3712   -8.7843 O   0  0  0  0  0  0  0  0  0  0  0  0
   21.1035  -19.5393   -9.6083 O   0  0  0  0  0  0  0  0  0  0  0  0
  1  2  1  0
  2  3  1  0
  4  3  1  0
  5  1  1  0
  5  4  1  0
  5  6  1  1
  7  6  2  0
  8  6  1  0
  9  8  1  0
  9 10  1  1
 10 11  1  0
 11 19  1  0
 12 11  2  0
 12 13  1  0
 13 14  1  0
 14 15  1  0
 15 16  2  0
 17 16  1  0
 18 17  2  0
 19 14  2  0
 19 18  1  0
 20  9  1  0
 21 20  2  0
 22 20  1  0
 23 22  1  0
 24 25  1  0
 23 24  1  6
 26 27  1  0
 26 25  1  0
 28 27  1  0
 29 23  1  0
 29 30  1  0
 31 29  2  0
M  END
$$$$
