PWK.pdb
     RDKit          3D

 31 33  0  0  1  0  0  0  0  0999 V2000
   26.4612  -14.0602  -15.9455 N   0  0  0  0  0  0  0  0  0  0  0  0
   27.7859  -14.5990  -15.6045 C   0  0  0  0  0  0  0  0  0  0  0  0
   27.8384  -15.9605  -16.2748 C   0  0  0  0  0  0  0  0  0  0  0  0
   26.5369  -16.0488  -17.0813 C   0  0  0  0  0  0  0  0  0  0  0  0
   26.1901  -14.5894  -17.2519 C   0  0  1  0  0  0  0  0  0  0  0  0
   24.7984  -14.3676  -17.6531 C   0  0  0  0  0  0  0  0  0  0  0  0
   24.3587  -14.8955  -18.6885 O   0  0  0  0  0  0  0  0  0  0  0  0
   23.9639  -13.5530  -16.8571 N   0  0  0  0  0  0  0  0  0  0  0  0
   22.5794  -13.3870  -17.1812 C   0  0  1  0  0  0  0  0  0  0  0  0
   21.7172  -13.6687  -15.9978 C   0  0  0  0  0  0  0  0  0  0  0  0
   21.6332  -15.1186  -15.6962 C   0  0  0  0  0  0  0  0  0  0  0  0
   22.4379  -15.8280  -14.8176 C   0  0  0  0  0  0  0  0  0  0  0  0
   22.0602  -17.1270  -14.8053 N   0  0  0  0  0  0  0  0  0  0  0  0
   21.0307  -17.2786  -15.6538 C   0  0  0  0  0  0  0  0  0  0  0  0
   20.3149  -18.4139  -15.9756 C   0  0  0  0  0  0  0  0  0  0  0  0
   19.2831  -18.3178  -16.8905 C   0  0  0  0  0  0  0  0  0  0  0  0
   18.9949  -17.0886  -17.4592 C   0  0  0  0  0  0  0  0  0  0  0  0
   19.7235  -15.9689  -17.1223 C   0  0  0  0  0  0  0  0  0  0  0  0
   20.7500  -16.0574  -16.2138 C   0  0  0  0  0  0  0  0  0  0  0  0
   22.2629  -12.0672  -17.7893 C   0  0  0  0  0  0  0  0  0  0  0  0
   22.8607  -11.0530  -17.3740 O   0  0  0  0  0  0  0  0  0  0  0  0
   21.3025  -11.9958  -18.8118 N   0  0  0  0  0  0  0  0  0  0  0  0
   21.0922  -10.6141  -19.3973 C   0  0  1  0  0  0  0  0  0  0  0  0
   20.4255  -10.8468  -20.7108 C   0  0  0  0  0  0  0  0  0  0  0  0
   19.9581   -9.7653  -21.5519 C   0  0  0  0  0  0  0  0  0  0  0  0
   20.8552   -9.0579  -22.5039 C   0  0  0  0  0  0  0  0  0  0  0  0
   20.0230   -7.9816  -23.2614 C   0  0  0  0  0  0  0  0  0  0  0  0
   20.8764   -7.2203  -24.1443 N   0  0  0  0  0  0  0  0  0  0  0  0
   20.2299   -9.9927  -18.3695 C   0  0  0  0  0  0  0  0  0  0  0  0
   20.1425   -8.6803  -18.0889 O   0  0  0  0  0  0  0  0  0  0  0  0
   19.4851  -10.7622  -17.6583 O   0  0  0  0  0  0  0  0  0  0  0  0
  1  2  1  0
  2  3  1  0
  4  3  1  0
  5  1  1  0
  5  4  1  0
  5  6  1  1
  7  6  2  0
  8  6  1  0
  9  8  1  0
  9 10  1  1
 10 11  1  0
 11 19  1  0
 12 11  2  0
 12 13  1  0
 13 14  1  0
 14 15  1  0
 15 16  2  0
 17 16  1  0
 18 17  2  0
 19 14  2  0
 19 18  1  0
 20  9  1  0
 21 20  2  0
 22 20  1  0
 23 22  1  0
 24 25  1  0
 23 24  1  6
 26 27  1  0
 26 25  1  0
 28 27  1  0
 29 23  1  0
 29 30  1  0
 31 29  2  0
M  END
$$$$
