PWK.pdb
     RDKit          3D

 31 33  0  0  1  0  0  0  0  0999 V2000
   28.6446  -18.5772  -18.4990 N   0  0  0  0  0  0  0  0  0  0  0  0
   29.5785  -17.9637  -19.4543 C   0  0  0  0  0  0  0  0  0  0  0  0
   29.3402  -16.4693  -19.3290 C   0  0  0  0  0  0  0  0  0  0  0  0
   28.3356  -16.3295  -18.1786 C   0  0  0  0  0  0  0  0  0  0  0  0
   28.5540  -17.6227  -17.4308 C   0  0  1  0  0  0  0  0  0  0  0  0
   27.4684  -17.9447  -16.5010 C   0  0  0  0  0  0  0  0  0  0  0  0
   27.1851  -17.1594  -15.5807 O   0  0  0  0  0  0  0  0  0  0  0  0
   26.7490  -19.1495  -16.6583 N   0  0  0  0  0  0  0  0  0  0  0  0
   25.6157  -19.4378  -15.8326 C   0  0  1  0  0  0  0  0  0  0  0  0
   24.4788  -19.9528  -16.6483 C   0  0  0  0  0  0  0  0  0  0  0  0
   23.7317  -18.8627  -17.3222 C   0  0  0  0  0  0  0  0  0  0  0  0
   23.9557  -18.3751  -18.6008 C   0  0  0  0  0  0  0  0  0  0  0  0
   23.0749  -17.3837  -18.8684 N   0  0  0  0  0  0  0  0  0  0  0  0
   22.2851  -17.2156  -17.7957 C   0  0  0  0  0  0  0  0  0  0  0  0
   21.2464  -16.3286  -17.5976 C   0  0  0  0  0  0  0  0  0  0  0  0
   20.5727  -16.3454  -16.3906 C   0  0  0  0  0  0  0  0  0  0  0  0
   20.9560  -17.2491  -15.4140 C   0  0  0  0  0  0  0  0  0  0  0  0
   21.9962  -18.1251  -15.6347 C   0  0  0  0  0  0  0  0  0  0  0  0
   22.6698  -18.1137  -16.8319 C   0  0  0  0  0  0  0  0  0  0  0  0
   25.9236  -20.3383  -14.6897 C   0  0  0  0  0  0  0  0  0  0  0  0
   26.5497  -21.3962  -14.9073 O   0  0  0  0  0  0  0  0  0  0  0  0
   25.5033  -19.9768  -13.3991 N   0  0  0  0  0  0  0  0  0  0  0  0
   25.9645  -20.9035  -12.2926 C   0  0  1  0  0  0  0  0  0  0  0  0
   26.1218  -20.0293  -11.0947 C   0  0  0  0  0  0  0  0  0  0  0  0
   26.5234  -20.5411   -9.8015 C   0  0  0  0  0  0  0  0  0  0  0  0
   26.6471  -19.6646   -8.6065 C   0  0  0  0  0  0  0  0  0  0  0  0
   27.1998  -20.5144   -7.4246 C   0  0  0  0  0  0  0  0  0  0  0  0
   27.5564  -19.6578   -6.3171 N   0  0  0  0  0  0  0  0  0  0  0  0
   24.8328  -21.8521  -12.2193 C   0  0  0  0  0  0  0  0  0  0  0  0
   24.9084  -23.1633  -11.9296 O   0  0  0  0  0  0  0  0  0  0  0  0
   23.6513  -21.4043  -12.4566 O   0  0  0  0  0  0  0  0  0  0  0  0
  1  2  1  0
  2  3  1  0
  4  3  1  0
  5  1  1  0
  5  4  1  0
  5  6  1  1
  7  6  2  0
  8  6  1  0
  9  8  1  0
  9 10  1  6
 10 11  1  0
 11 19  1  0
 12 11  2  0
 12 13  1  0
 13 14  1  0
 14 15  1  0
 15 16  2  0
 17 16  1  0
 18 17  2  0
 19 14  2  0
 19 18  1  0
 20  9  1  0
 21 20  2  0
 22 20  1  0
 23 22  1  0
 24 25  1  0
 23 24  1  1
 26 27  1  0
 26 25  1  0
 28 27  1  0
 29 23  1  0
 29 30  1  0
 31 29  2  0
M  END
$$$$
