PWK.pdb
     RDKit          3D

 31 33  0  0  1  0  0  0  0  0999 V2000
   27.8225  -20.5476  -16.8345 N   0  0  0  0  0  0  0  0  0  0  0  0
   28.9415  -20.4852  -17.7860 C   0  0  0  0  0  0  0  0  0  0  0  0
   29.9808  -21.4428  -17.2305 C   0  0  0  0  0  0  0  0  0  0  0  0
   29.3011  -22.0981  -16.0219 C   0  0  0  0  0  0  0  0  0  0  0  0
   27.8418  -21.9003  -16.3547 C   0  0  1  0  0  0  0  0  0  0  0  0
   26.9549  -22.0842  -15.2030 C   0  0  0  0  0  0  0  0  0  0  0  0
   26.9591  -23.1599  -14.5810 O   0  0  0  0  0  0  0  0  0  0  0  0
   26.0989  -21.0335  -14.8065 N   0  0  0  0  0  0  0  0  0  0  0  0
   25.6525  -20.9260  -13.4506 C   0  0  1  0  0  0  0  0  0  0  0  0
   26.4304  -19.8892  -12.7137 C   0  0  0  0  0  0  0  0  0  0  0  0
   27.3165  -20.4799  -11.6811 C   0  0  0  0  0  0  0  0  0  0  0  0
   28.5512  -21.0743  -11.8934 C   0  0  0  0  0  0  0  0  0  0  0  0
   29.0616  -21.4929  -10.7125 N   0  0  0  0  0  0  0  0  0  0  0  0
   28.1894  -21.1853   -9.7392 C   0  0  0  0  0  0  0  0  0  0  0  0
   28.2709  -21.4115   -8.3801 C   0  0  0  0  0  0  0  0  0  0  0  0
   27.2310  -20.9972   -7.5690 C   0  0  0  0  0  0  0  0  0  0  0  0
   26.1374  -20.3677   -8.1390 C   0  0  0  0  0  0  0  0  0  0  0  0
   26.0784  -20.1527   -9.4985 C   0  0  0  0  0  0  0  0  0  0  0  0
   27.1083  -20.5618  -10.3103 C   0  0  0  0  0  0  0  0  0  0  0  0
   24.1870  -20.7086  -13.3202 C   0  0  0  0  0  0  0  0  0  0  0  0
   23.6950  -19.6440  -13.7479 O   0  0  0  0  0  0  0  0  0  0  0  0
   23.3968  -21.7032  -12.7208 N   0  0  0  0  0  0  0  0  0  0  0  0
   21.9027  -21.5322  -12.9065 C   0  0  1  0  0  0  0  0  0  0  0  0
   21.3425  -22.9125  -12.8358 C   0  0  0  0  0  0  0  0  0  0  0  0
   20.1483  -23.3084  -13.5518 C   0  0  0  0  0  0  0  0  0  0  0  0
   19.8566  -22.8318  -14.9299 C   0  0  0  0  0  0  0  0  0  0  0  0
   18.5322  -23.4936  -15.4125 C   0  0  0  0  0  0  0  0  0  0  0  0
   17.3964  -22.8395  -14.8047 N   0  0  0  0  0  0  0  0  0  0  0  0
   21.5648  -20.6697  -11.7541 C   0  0  0  0  0  0  0  0  0  0  0  0
   20.4095  -20.0078  -11.5648 O   0  0  0  0  0  0  0  0  0  0  0  0
   22.4477  -20.5184  -10.8319 O   0  0  0  0  0  0  0  0  0  0  0  0
  1  2  1  0
  2  3  1  0
  4  3  1  0
  5  1  1  0
  5  4  1  0
  5  6  1  1
  7  6  2  0
  8  6  1  0
  9  8  1  0
  9 10  1  6
 10 11  1  0
 11 19  1  0
 12 11  2  0
 12 13  1  0
 13 14  1  0
 14 15  1  0
 15 16  2  0
 17 16  1  0
 18 17  2  0
 19 14  2  0
 19 18  1  0
 20  9  1  0
 21 20  2  0
 22 20  1  0
 23 22  1  0
 24 25  1  0
 23 24  1  1
 26 27  1  0
 26 25  1  0
 28 27  1  0
 29 23  1  0
 29 30  1  0
 31 29  2  0
M  END
$$$$
