PWK.pdb
     RDKit          3D

 31 33  0  0  1  0  0  0  0  0999 V2000
   28.2598  -20.6148  -16.1672 N   0  0  0  0  0  0  0  0  0  0  0  0
   29.3033  -20.8546  -17.1747 C   0  0  0  0  0  0  0  0  0  0  0  0
   29.9393  -22.1735  -16.7723 C   0  0  0  0  0  0  0  0  0  0  0  0
   29.0972  -22.6680  -15.5898 C   0  0  0  0  0  0  0  0  0  0  0  0
   27.8005  -21.9282  -15.8147 C   0  0  1  0  0  0  0  0  0  0  0  0
   26.9341  -21.9052  -14.6333 C   0  0  0  0  0  0  0  0  0  0  0  0
   26.3281  -22.9333  -14.2871 O   0  0  0  0  0  0  0  0  0  0  0  0
   26.7940  -20.7106  -13.8937 N   0  0  0  0  0  0  0  0  0  0  0  0
   26.0125  -20.6801  -12.6947 C   0  0  1  0  0  0  0  0  0  0  0  0
   26.5647  -19.6930  -11.7232 C   0  0  0  0  0  0  0  0  0  0  0  0
   27.5956  -20.2905  -10.8396 C   0  0  0  0  0  0  0  0  0  0  0  0
   28.7198  -20.9960  -11.2410 C   0  0  0  0  0  0  0  0  0  0  0  0
   29.4247  -21.3825  -10.1527 N   0  0  0  0  0  0  0  0  0  0  0  0
   28.7862  -20.9456   -9.0554 C   0  0  0  0  0  0  0  0  0  0  0  0
   29.1202  -21.0947   -7.7245 C   0  0  0  0  0  0  0  0  0  0  0  0
   28.2929  -20.5479   -6.7614 C   0  0  0  0  0  0  0  0  0  0  0  0
   27.1536  -19.8666   -7.1553 C   0  0  0  0  0  0  0  0  0  0  0  0
   26.8407  -19.7306   -8.4901 C   0  0  0  0  0  0  0  0  0  0  0  0
   27.6585  -20.2714   -9.4523 C   0  0  0  0  0  0  0  0  0  0  0  0
   24.5609  -20.4621  -12.9338 C   0  0  0  0  0  0  0  0  0  0  0  0
   24.2052  -19.5055  -13.6527 O   0  0  0  0  0  0  0  0  0  0  0  0
   23.6303  -21.3350  -12.3462 N   0  0  0  0  0  0  0  0  0  0  0  0
   22.1821  -21.0543  -12.6924 C   0  0  1  0  0  0  0  0  0  0  0  0
   21.5596  -22.3971  -12.8744 C   0  0  0  0  0  0  0  0  0  0  0  0
   20.1789  -22.5703  -13.2737 C   0  0  0  0  0  0  0  0  0  0  0  0
   19.6026  -23.9084  -13.5719 C   0  0  0  0  0  0  0  0  0  0  0  0
   18.0943  -23.7319  -13.9162 C   0  0  0  0  0  0  0  0  0  0  0  0
   17.4616  -25.0222  -14.0657 N   0  0  0  0  0  0  0  0  0  0  0  0
   21.7329  -20.3244  -11.4876 C   0  0  0  0  0  0  0  0  0  0  0  0
   20.6742  -19.4993  -11.4033 O   0  0  0  0  0  0  0  0  0  0  0  0
   22.4071  -20.4734  -10.4032 O   0  0  0  0  0  0  0  0  0  0  0  0
  1  2  1  0
  2  3  1  0
  4  3  1  0
  5  1  1  0
  5  4  1  0
  5  6  1  1
  7  6  2  0
  8  6  1  0
  9  8  1  0
  9 10  1  1
 10 11  1  0
 11 19  1  0
 12 11  2  0
 12 13  1  0
 13 14  1  0
 14 15  1  0
 15 16  2  0
 17 16  1  0
 18 17  2  0
 19 14  2  0
 19 18  1  0
 20  9  1  0
 21 20  2  0
 22 20  1  0
 23 22  1  0
 24 25  1  0
 23 24  1  1
 26 27  1  0
 26 25  1  0
 28 27  1  0
 29 23  1  0
 29 30  1  0
 31 29  2  0
M  END
$$$$
