QNQ.pdb
     RDKit          3D

 27 26  0  0  1  0  0  0  0  0999 V2000
    8.1363  -12.6470   17.6218 N   0  0  0  0  0  0  0  0  0  0  0  0
    7.7679  -13.5688   18.6166 C   0  0  0  0  0  0  0  0  0  0  0  0
    7.4704  -13.1746   19.7636 O   0  0  0  0  0  0  0  0  0  0  0  0
    7.7122  -15.0349   18.3665 C   0  0  0  0  0  0  0  0  0  0  0  0
    9.0020  -15.7113   18.7495 C   0  0  0  0  0  0  0  0  0  0  0  0
    9.9361  -15.6463   17.5932 C   0  0  2  0  0  0  0  0  0  0  0  0
    9.5156  -16.5264   16.5555 N   0  0  0  0  0  0  0  0  0  0  0  0
   11.3606  -15.7756   17.9889 C   0  0  0  0  0  0  0  0  0  0  0  0
   11.8064  -16.9433   18.1069 O   0  0  0  0  0  0  0  0  0  0  0  0
   16.8048  -14.5737   17.5451 N   0  0  0  0  0  0  0  0  0  0  0  0
   15.8942  -13.9552   18.4237 C   0  0  0  0  0  0  0  0  0  0  0  0
   16.2472  -13.5484   19.5467 O   0  0  0  0  0  0  0  0  0  0  0  0
   14.4781  -13.7765   18.0170 C   0  0  0  0  0  0  0  0  0  0  0  0
   13.5524  -14.7149   18.7383 C   0  0  2  0  0  0  0  0  0  0  0  0
   12.2034  -14.6641   18.2283 N   0  0  0  0  0  0  0  0  0  0  0  0
   13.6722  -14.5870   20.1947 C   0  0  0  0  0  0  0  0  0  0  0  0
   13.3567  -13.5605   20.8004 O   0  0  0  0  0  0  0  0  0  0  0  0
   11.0277  -18.2953   23.4312 N   0  0  0  0  0  0  0  0  0  0  0  0
   11.8025  -17.8001   24.5120 C   0  0  0  0  0  0  0  0  0  0  0  0
   11.4929  -18.1022   25.6770 O   0  0  0  0  0  0  0  0  0  0  0  0
   12.9678  -16.9331   24.2629 C   0  0  0  0  0  0  0  0  0  0  0  0
   13.1148  -16.7014   22.8007 C   0  0  0  0  0  0  0  0  0  0  0  0
   14.1724  -15.7071   22.4121 C   0  0  2  0  0  0  0  0  0  0  0  0
   14.1662  -15.6725   20.9510 N   0  0  0  0  0  0  0  0  0  0  0  0
   15.5017  -16.0076   22.9457 C   0  0  0  0  0  0  0  0  0  0  0  0
   15.8716  -15.7066   24.2428 O   0  0  0  0  0  0  0  0  0  0  0  0
   16.3651  -16.5613   22.2199 O   0  0  0  0  0  0  0  0  0  0  0  0
  2  3  2  0
  2  1  1  0
  4  2  1  0
  5  4  1  0
  6  5  1  0
  6  8  1  0
  6  7  1  6
  8 15  1  0
  8  9  2  0
 11 10  1  0
 12 11  2  0
 13 11  1  0
 14 13  1  6
 15 14  1  0
 16 14  1  0
 16 17  2  0
 18 19  1  0
 19 21  1  0
 20 19  2  0
 21 22  1  0
 23 22  1  6
 23 24  1  0
 24 16  1  0
 25 26  1  0
 25 23  1  0
 27 25  2  0
M  END
$$$$
