QNQ.pdb
     RDKit          3D

 27 26  0  0  1  0  0  0  0  0999 V2000
    5.3042  -20.3308   25.0325 N   0  0  0  0  0  0  0  0  0  0  0  0
    5.2011  -21.1691   23.9092 C   0  0  0  0  0  0  0  0  0  0  0  0
    4.7642  -22.3329   24.0280 O   0  0  0  0  0  0  0  0  0  0  0  0
    5.5977  -20.7285   22.5440 C   0  0  0  0  0  0  0  0  0  0  0  0
    6.0012  -19.2777   22.5259 C   0  0  0  0  0  0  0  0  0  0  0  0
    6.3142  -18.8873   21.1247 C   0  0  2  0  0  0  0  0  0  0  0  0
    6.7026  -20.0240   20.3596 N   0  0  0  0  0  0  0  0  0  0  0  0
    7.2337  -17.7257   21.0366 C   0  0  0  0  0  0  0  0  0  0  0  0
    8.4625  -17.9776   21.0896 O   0  0  0  0  0  0  0  0  0  0  0  0
    7.5985  -11.5430   20.4197 N   0  0  0  0  0  0  0  0  0  0  0  0
    8.0052  -12.8841   20.5599 C   0  0  0  0  0  0  0  0  0  0  0  0
    9.2091  -13.1952   20.6320 O   0  0  0  0  0  0  0  0  0  0  0  0
    6.9883  -13.9632   20.6249 C   0  0  0  0  0  0  0  0  0  0  0  0
    7.5133  -15.2058   21.2867 C   0  0  2  0  0  0  0  0  0  0  0  0
    6.7859  -16.3903   20.8989 N   0  0  0  0  0  0  0  0  0  0  0  0
    7.6814  -15.0244   22.7325 C   0  0  0  0  0  0  0  0  0  0  0  0
    6.7667  -15.2136   23.5373 O   0  0  0  0  0  0  0  0  0  0  0  0
    5.6823  -12.6905   26.1784 N   0  0  0  0  0  0  0  0  0  0  0  0
    6.7289  -12.9018   27.1131 C   0  0  0  0  0  0  0  0  0  0  0  0
    6.5854  -12.5263   28.2890 O   0  0  0  0  0  0  0  0  0  0  0  0
    7.9803  -13.5615   26.7001 C   0  0  0  0  0  0  0  0  0  0  0  0
    7.9829  -13.7487   25.2242 C   0  0  0  0  0  0  0  0  0  0  0  0
    9.2052  -14.4206   24.6651 C   0  0  2  0  0  0  0  0  0  0  0  0
    8.9338  -14.6174   23.2426 N   0  0  0  0  0  0  0  0  0  0  0  0
    9.5572  -15.6747   25.3327 C   0  0  0  0  0  0  0  0  0  0  0  0
    9.0789  -16.9026   24.9161 O   0  0  0  0  0  0  0  0  0  0  0  0
   10.3230  -15.6686   26.3288 O   0  0  0  0  0  0  0  0  0  0  0  0
  2  3  2  0
  2  1  1  0
  4  2  1  0
  5  4  1  0
  6  5  1  0
  6  8  1  0
  6  7  1  1
  8 15  1  0
  8  9  2  0
 11 10  1  0
 12 11  2  0
 13 11  1  0
 14 13  1  1
 15 14  1  0
 16 14  1  0
 16 17  2  0
 18 19  1  0
 19 21  1  0
 20 19  2  0
 21 22  1  0
 23 22  1  1
 23 24  1  0
 24 16  1  0
 25 26  1  0
 25 23  1  0
 27 25  2  0
M  END
$$$$
