QNQ.pdb
     RDKit          3D

 27 26  0  0  1  0  0  0  0  0999 V2000
   12.6462  -21.9369   20.2054 N   0  0  0  0  0  0  0  0  0  0  0  0
   13.6244  -21.3452   19.3879 C   0  0  0  0  0  0  0  0  0  0  0  0
   14.8321  -21.6190   19.5495 O   0  0  0  0  0  0  0  0  0  0  0  0
   13.2855  -20.3801   18.3068 C   0  0  0  0  0  0  0  0  0  0  0  0
   11.8725  -19.8759   18.4378 C   0  0  0  0  0  0  0  0  0  0  0  0
   11.8653  -18.4084   18.1922 C   0  0  2  0  0  0  0  0  0  0  0  0
   12.7736  -18.0674   17.1496 N   0  0  0  0  0  0  0  0  0  0  0  0
   12.0063  -17.6104   19.4355 C   0  0  0  0  0  0  0  0  0  0  0  0
   13.0791  -16.9733   19.5745 O   0  0  0  0  0  0  0  0  0  0  0  0
   11.0005  -15.2033   23.9301 N   0  0  0  0  0  0  0  0  0  0  0  0
    9.7548  -15.5931   23.4011 C   0  0  0  0  0  0  0  0  0  0  0  0
    8.6836  -15.2052   23.9046 O   0  0  0  0  0  0  0  0  0  0  0  0
    9.7000  -16.4862   22.2171 C   0  0  0  0  0  0  0  0  0  0  0  0
   11.0614  -16.7616   21.6440 C   0  0  2  0  0  0  0  0  0  0  0  0
   11.0055  -17.5461   20.4340 N   0  0  0  0  0  0  0  0  0  0  0  0
   11.9926  -17.2563   22.6637 C   0  0  0  0  0  0  0  0  0  0  0  0
   11.6697  -18.0933   23.5094 O   0  0  0  0  0  0  0  0  0  0  0  0
   17.9124  -15.4876   22.2926 N   0  0  0  0  0  0  0  0  0  0  0  0
   17.9861  -16.1983   23.5186 C   0  0  0  0  0  0  0  0  0  0  0  0
   19.0666  -16.2555   24.1298 O   0  0  0  0  0  0  0  0  0  0  0  0
   16.7939  -16.8665   24.0699 C   0  0  0  0  0  0  0  0  0  0  0  0
   15.6153  -16.5754   23.2099 C   0  0  0  0  0  0  0  0  0  0  0  0
   14.3327  -17.2321   23.6360 C   0  0  2  0  0  0  0  0  0  0  0  0
   13.3169  -16.7665   22.6940 N   0  0  0  0  0  0  0  0  0  0  0  0
   13.9546  -16.9630   25.0241 C   0  0  0  0  0  0  0  0  0  0  0  0
   14.2482  -17.8297   26.0598 O   0  0  0  0  0  0  0  0  0  0  0  0
   13.3363  -15.9097   25.3192 O   0  0  0  0  0  0  0  0  0  0  0  0
  2  3  2  0
  2  1  1  0
  4  2  1  0
  5  4  1  0
  6  5  1  0
  6  8  1  0
  6  7  1  6
  8 15  1  0
  8  9  2  0
 11 10  1  0
 12 11  2  0
 13 11  1  0
 14 13  1  1
 15 14  1  0
 16 14  1  0
 16 17  2  0
 18 19  1  0
 19 21  1  0
 20 19  2  0
 21 22  1  0
 23 22  1  6
 23 24  1  0
 24 16  1  0
 25 26  1  0
 25 23  1  0
 27 25  2  0
M  END
$$$$
