QNQ.pdb
     RDKit          3D

 27 26  0  0  1  0  0  0  0  0999 V2000
    7.0539  -12.3019   17.9470 N   0  0  0  0  0  0  0  0  0  0  0  0
    7.4429  -13.5200   17.3638 C   0  0  0  0  0  0  0  0  0  0  0  0
    7.6685  -13.5891   16.1375 O   0  0  0  0  0  0  0  0  0  0  0  0
    7.6047  -14.7696   18.1558 C   0  0  0  0  0  0  0  0  0  0  0  0
    7.2202  -14.5651   19.5974 C   0  0  0  0  0  0  0  0  0  0  0  0
    8.4350  -14.7230   20.4419 C   0  0  2  0  0  0  0  0  0  0  0  0
    9.2482  -15.7886   19.9609 N   0  0  0  0  0  0  0  0  0  0  0  0
    8.1314  -14.7694   21.8939 C   0  0  0  0  0  0  0  0  0  0  0  0
    7.2090  -14.0199   22.2984 O   0  0  0  0  0  0  0  0  0  0  0  0
    6.9364  -17.6528   25.9565 N   0  0  0  0  0  0  0  0  0  0  0  0
    6.3009  -17.6619   24.6996 C   0  0  0  0  0  0  0  0  0  0  0  0
    5.2306  -18.2718   24.5157 O   0  0  0  0  0  0  0  0  0  0  0  0
    6.9075  -16.9330   23.5580 C   0  0  0  0  0  0  0  0  0  0  0  0
    8.2375  -16.3271   23.9071 C   0  0  2  0  0  0  0  0  0  0  0  0
    8.8232  -15.6025   22.8051 N   0  0  0  0  0  0  0  0  0  0  0  0
    9.1256  -17.2977   24.5557 C   0  0  0  0  0  0  0  0  0  0  0  0
    9.4052  -18.3861   24.0485 O   0  0  0  0  0  0  0  0  0  0  0  0
   14.6261  -17.1063   25.4064 N   0  0  0  0  0  0  0  0  0  0  0  0
   13.7595  -16.7341   24.3461 C   0  0  0  0  0  0  0  0  0  0  0  0
   14.2197  -16.5881   23.2010 O   0  0  0  0  0  0  0  0  0  0  0  0
   12.3224  -16.5203   24.5931 C   0  0  0  0  0  0  0  0  0  0  0  0
   12.0296  -16.7144   26.0388 C   0  0  0  0  0  0  0  0  0  0  0  0
   10.8887  -17.6438   26.3428 C   0  0  2  0  0  0  0  0  0  0  0  0
    9.6935  -16.9913   25.8120 N   0  0  0  0  0  0  0  0  0  0  0  0
   10.7465  -17.9731   27.7618 C   0  0  0  0  0  0  0  0  0  0  0  0
   11.6481  -18.7740   28.4368 O   0  0  0  0  0  0  0  0  0  0  0  0
    9.7754  -17.5254   28.4216 O   0  0  0  0  0  0  0  0  0  0  0  0
  2  3  2  0
  2  1  1  0
  4  2  1  0
  5  4  1  0
  6  5  1  0
  6  8  1  0
  6  7  1  6
  8 15  1  0
  8  9  2  0
 11 10  1  0
 12 11  2  0
 13 11  1  0
 14 13  1  6
 15 14  1  0
 16 14  1  0
 16 17  2  0
 18 19  1  0
 19 21  1  0
 20 19  2  0
 21 22  1  0
 23 22  1  1
 23 24  1  0
 24 16  1  0
 25 26  1  0
 25 23  1  0
 27 25  2  0
M  END
$$$$
