QNQ.pdb
     RDKit          3D

 27 26  0  0  1  0  0  0  0  0999 V2000
    9.6443  -11.8386   19.5945 N   0  0  0  0  0  0  0  0  0  0  0  0
    9.2979  -12.7422   18.5754 C   0  0  0  0  0  0  0  0  0  0  0  0
    9.9942  -12.8258   17.5422 O   0  0  0  0  0  0  0  0  0  0  0  0
    8.1081  -13.6318   18.6665 C   0  0  0  0  0  0  0  0  0  0  0  0
    7.9950  -14.2676   20.0270 C   0  0  0  0  0  0  0  0  0  0  0  0
    9.1060  -15.2436   20.1910 C   0  0  2  0  0  0  0  0  0  0  0  0
    9.2334  -16.0617   19.0322 N   0  0  0  0  0  0  0  0  0  0  0  0
    9.0470  -15.9805   21.4779 C   0  0  0  0  0  0  0  0  0  0  0  0
    8.6107  -15.3449   22.4687 O   0  0  0  0  0  0  0  0  0  0  0  0
    7.2865  -19.1181   21.2655 N   0  0  0  0  0  0  0  0  0  0  0  0
    8.2468  -20.0511   21.7026 C   0  0  0  0  0  0  0  0  0  0  0  0
    8.1634  -21.2582   21.4070 O   0  0  0  0  0  0  0  0  0  0  0  0
    9.3903  -19.6017   22.5350 C   0  0  0  0  0  0  0  0  0  0  0  0
    9.3483  -18.1265   22.8175 C   0  0  2  0  0  0  0  0  0  0  0  0
    9.4517  -17.3293   21.6190 N   0  0  0  0  0  0  0  0  0  0  0  0
   10.2690  -17.7511   23.8959 C   0  0  0  0  0  0  0  0  0  0  0  0
   11.4816  -17.6164   23.7184 O   0  0  0  0  0  0  0  0  0  0  0  0
    8.5293  -13.8125   27.9489 N   0  0  0  0  0  0  0  0  0  0  0  0
    9.6528  -14.2711   28.6846 C   0  0  0  0  0  0  0  0  0  0  0  0
    9.9584  -13.7092   29.7501 O   0  0  0  0  0  0  0  0  0  0  0  0
   10.4566  -15.4051   28.1951 C   0  0  0  0  0  0  0  0  0  0  0  0
    9.8436  -15.9541   26.9557 C   0  0  0  0  0  0  0  0  0  0  0  0
   10.5890  -17.0948   26.3225 C   0  0  2  0  0  0  0  0  0  0  0  0
    9.7652  -17.5304   25.1967 N   0  0  0  0  0  0  0  0  0  0  0  0
   10.8884  -18.1964   27.2386 C   0  0  0  0  0  0  0  0  0  0  0  0
   12.0865  -18.2966   27.9201 O   0  0  0  0  0  0  0  0  0  0  0  0
   10.0424  -19.1045   27.4349 O   0  0  0  0  0  0  0  0  0  0  0  0
  2  3  2  0
  2  1  1  0
  4  2  1  0
  5  4  1  0
  6  5  1  0
  6  8  1  0
  6  7  1  6
  8 15  1  0
  8  9  2  0
 11 10  1  0
 12 11  2  0
 13 11  1  0
 14 13  1  6
 15 14  1  0
 16 14  1  0
 16 17  2  0
 18 19  1  0
 19 21  1  0
 20 19  2  0
 21 22  1  0
 23 22  1  1
 23 24  1  0
 24 16  1  0
 25 26  1  0
 25 23  1  0
 27 25  2  0
M  END
$$$$
