QNQ.pdb
     RDKit          3D

 27 26  0  0  1  0  0  0  0  0999 V2000
    9.5566  -12.6644   18.2153 N   0  0  0  0  0  0  0  0  0  0  0  0
    8.5653  -13.2788   17.4312 C   0  0  0  0  0  0  0  0  0  0  0  0
    8.6328  -13.2410   16.1848 O   0  0  0  0  0  0  0  0  0  0  0  0
    7.4040  -13.9940   18.0271 C   0  0  0  0  0  0  0  0  0  0  0  0
    7.4362  -13.9444   19.5319 C   0  0  0  0  0  0  0  0  0  0  0  0
    8.3753  -14.9887   20.0233 C   0  0  2  0  0  0  0  0  0  0  0  0
    8.3858  -16.1104   19.1459 N   0  0  0  0  0  0  0  0  0  0  0  0
    8.1829  -15.3144   21.4584 C   0  0  0  0  0  0  0  0  0  0  0  0
    7.9979  -14.3446   22.2339 O   0  0  0  0  0  0  0  0  0  0  0  0
    5.4689  -18.8453   22.2851 N   0  0  0  0  0  0  0  0  0  0  0  0
    6.0477  -18.1559   23.3683 C   0  0  0  0  0  0  0  0  0  0  0  0
    5.3662  -17.4311   24.1176 O   0  0  0  0  0  0  0  0  0  0  0  0
    7.5017  -18.2855   23.6365 C   0  0  0  0  0  0  0  0  0  0  0  0
    8.2515  -17.0141   23.3550 C   0  0  2  0  0  0  0  0  0  0  0  0
    8.1999  -16.6365   21.9631 N   0  0  0  0  0  0  0  0  0  0  0  0
    9.5939  -17.0303   23.9460 C   0  0  0  0  0  0  0  0  0  0  0  0
   10.3590  -17.9904   23.8326 O   0  0  0  0  0  0  0  0  0  0  0  0
    8.5038  -13.8210   28.6918 N   0  0  0  0  0  0  0  0  0  0  0  0
    9.6348  -14.4985   29.2167 C   0  0  0  0  0  0  0  0  0  0  0  0
    9.8804  -14.4297   30.4330 O   0  0  0  0  0  0  0  0  0  0  0  0
   10.5167  -15.2806   28.3322 C   0  0  0  0  0  0  0  0  0  0  0  0
   10.0136  -15.2082   26.9340 C   0  0  0  0  0  0  0  0  0  0  0  0
   10.7947  -16.0073   25.9293 C   0  0  2  0  0  0  0  0  0  0  0  0
   10.0465  -15.9103   24.6776 N   0  0  0  0  0  0  0  0  0  0  0  0
   11.0266  -17.3984   26.3205 C   0  0  0  0  0  0  0  0  0  0  0  0
   10.0149  -18.3385   26.3723 O   0  0  0  0  0  0  0  0  0  0  0  0
   12.1817  -17.7855   26.6285 O   0  0  0  0  0  0  0  0  0  0  0  0
  2  3  2  0
  2  1  1  0
  4  2  1  0
  5  4  1  0
  6  5  1  0
  6  8  1  0
  6  7  1  6
  8 15  1  0
  8  9  2  0
 11 10  1  0
 12 11  2  0
 13 11  1  0
 14 13  1  6
 15 14  1  0
 16 14  1  0
 16 17  2  0
 18 19  1  0
 19 21  1  0
 20 19  2  0
 21 22  1  0
 23 22  1  1
 23 24  1  0
 24 16  1  0
 25 26  1  0
 25 23  1  0
 27 25  2  0
M  END
$$$$
