QNQ.pdb
     RDKit          3D

 27 26  0  0  1  0  0  0  0  0999 V2000
    6.6869  -14.5140   15.7791 N   0  0  0  0  0  0  0  0  0  0  0  0
    8.0690  -14.6238   16.0089 C   0  0  0  0  0  0  0  0  0  0  0  0
    8.8135  -15.1359   15.1470 O   0  0  0  0  0  0  0  0  0  0  0  0
    8.7110  -14.1469   17.2641 C   0  0  0  0  0  0  0  0  0  0  0  0
    7.7007  -13.5595   18.2140 C   0  0  0  0  0  0  0  0  0  0  0  0
    8.3916  -13.1984   19.4814 C   0  0  2  0  0  0  0  0  0  0  0  0
    9.5113  -12.3572   19.2231 N   0  0  0  0  0  0  0  0  0  0  0  0
    8.6726  -14.3723   20.3449 C   0  0  0  0  0  0  0  0  0  0  0  0
    7.6788  -15.0345   20.7322 O   0  0  0  0  0  0  0  0  0  0  0  0
   11.4630  -19.1473   21.4399 N   0  0  0  0  0  0  0  0  0  0  0  0
   11.8039  -17.8496   21.8683 C   0  0  0  0  0  0  0  0  0  0  0  0
   12.3837  -17.6535   22.9530 O   0  0  0  0  0  0  0  0  0  0  0  0
   11.4717  -16.6786   21.0192 C   0  0  0  0  0  0  0  0  0  0  0  0
   10.3212  -15.8822   21.5668 C   0  0  2  0  0  0  0  0  0  0  0  0
    9.9787  -14.7563   20.7315 N   0  0  0  0  0  0  0  0  0  0  0  0
   10.5017  -15.5699   22.9886 C   0  0  0  0  0  0  0  0  0  0  0  0
   11.1812  -14.6184   23.3796 O   0  0  0  0  0  0  0  0  0  0  0  0
    6.6233  -12.8924   24.6230 N   0  0  0  0  0  0  0  0  0  0  0  0
    7.0545  -13.0877   25.9608 C   0  0  0  0  0  0  0  0  0  0  0  0
    6.7005  -12.2862   26.8420 O   0  0  0  0  0  0  0  0  0  0  0  0
    7.9165  -14.2307   26.3106 C   0  0  0  0  0  0  0  0  0  0  0  0
    8.5286  -14.7913   25.0760 C   0  0  0  0  0  0  0  0  0  0  0  0
    9.5113  -15.9064   25.2968 C   0  0  2  0  0  0  0  0  0  0  0  0
    9.8797  -16.3799   23.9641 N   0  0  0  0  0  0  0  0  0  0  0  0
    9.0071  -16.9902   26.1415 C   0  0  0  0  0  0  0  0  0  0  0  0
    8.9685  -16.9065   27.5204 O   0  0  0  0  0  0  0  0  0  0  0  0
    8.5854  -18.0539   25.6222 O   0  0  0  0  0  0  0  0  0  0  0  0
  2  3  2  0
  2  1  1  0
  4  2  1  0
  5  4  1  0
  6  5  1  0
  6  8  1  0
  6  7  1  6
  8 15  1  0
  8  9  2  0
 11 10  1  0
 12 11  2  0
 13 11  1  0
 14 13  1  6
 15 14  1  0
 16 14  1  0
 16 17  2  0
 18 19  1  0
 19 21  1  0
 20 19  2  0
 21 22  1  0
 23 22  1  6
 23 24  1  0
 24 16  1  0
 25 26  1  0
 25 23  1  0
 27 25  2  0
M  END
$$$$
