QNQ.pdb
     RDKit          3D

 27 26  0  0  1  0  0  0  0  0999 V2000
   16.8350  -15.8223   17.2618 N   0  0  0  0  0  0  0  0  0  0  0  0
   16.3574  -14.5365   17.5681 C   0  0  0  0  0  0  0  0  0  0  0  0
   16.5480  -13.5877   16.7788 O   0  0  0  0  0  0  0  0  0  0  0  0
   15.6136  -14.2379   18.8222 C   0  0  0  0  0  0  0  0  0  0  0  0
   14.2035  -13.7926   18.5369 C   0  0  0  0  0  0  0  0  0  0  0  0
   13.3005  -14.9701   18.6456 C   0  0  2  0  0  0  0  0  0  0  0  0
   12.8542  -15.3836   17.3579 N   0  0  0  0  0  0  0  0  0  0  0  0
   12.2277  -14.7885   19.6549 C   0  0  0  0  0  0  0  0  0  0  0  0
   12.5908  -14.4243   20.8002 O   0  0  0  0  0  0  0  0  0  0  0  0
    9.5358  -12.6216   18.8147 N   0  0  0  0  0  0  0  0  0  0  0  0
    8.4155  -13.4748   18.8413 C   0  0  0  0  0  0  0  0  0  0  0  0
    7.3899  -13.2233   18.1809 O   0  0  0  0  0  0  0  0  0  0  0  0
    8.4418  -14.7056   19.6702 C   0  0  0  0  0  0  0  0  0  0  0  0
    9.7745  -14.9241   20.3289 C   0  0  2  0  0  0  0  0  0  0  0  0
   10.8568  -15.0044   19.3776 N   0  0  0  0  0  0  0  0  0  0  0  0
    9.7261  -16.0137   21.3097 C   0  0  0  0  0  0  0  0  0  0  0  0
    9.9673  -17.1860   21.0139 O   0  0  0  0  0  0  0  0  0  0  0  0
   13.9283  -17.4735   22.9390 N   0  0  0  0  0  0  0  0  0  0  0  0
   13.2420  -17.9188   24.0985 C   0  0  0  0  0  0  0  0  0  0  0  0
   13.5245  -19.0242   24.5912 O   0  0  0  0  0  0  0  0  0  0  0  0
   12.2003  -17.0820   24.7201 C   0  0  0  0  0  0  0  0  0  0  0  0
   11.4281  -16.3771   23.6617 C   0  0  0  0  0  0  0  0  0  0  0  0
    9.9337  -16.4596   23.7956 C   0  0  2  0  0  0  0  0  0  0  0  0
    9.3922  -15.7284   22.6519 N   0  0  0  0  0  0  0  0  0  0  0  0
    9.4172  -15.9474   25.0657 C   0  0  0  0  0  0  0  0  0  0  0  0
    8.6743  -14.7855   25.1559 O   0  0  0  0  0  0  0  0  0  0  0  0
    9.6415  -16.5660   26.1361 O   0  0  0  0  0  0  0  0  0  0  0  0
  2  3  2  0
  2  1  1  0
  4  2  1  0
  5  4  1  0
  6  5  1  0
  6  8  1  0
  6  7  1  6
  8 15  1  0
  8  9  2  0
 11 10  1  0
 12 11  2  0
 13 11  1  0
 14 13  1  6
 15 14  1  0
 16 14  1  0
 16 17  2  0
 18 19  1  0
 19 21  1  0
 20 19  2  0
 21 22  1  0
 23 22  1  1
 23 24  1  0
 24 16  1  0
 25 26  1  0
 25 23  1  0
 27 25  2  0
M  END
$$$$
