QNQ.pdb
     RDKit          3D

 27 26  0  0  1  0  0  0  0  0999 V2000
    7.9852  -11.9358   18.5295 N   0  0  0  0  0  0  0  0  0  0  0  0
    8.3906  -13.1983   18.0639 C   0  0  0  0  0  0  0  0  0  0  0  0
    8.4736  -13.4223   16.8381 O   0  0  0  0  0  0  0  0  0  0  0  0
    8.7366  -14.3161   18.9836 C   0  0  0  0  0  0  0  0  0  0  0  0
    8.4568  -13.9584   20.4195 C   0  0  0  0  0  0  0  0  0  0  0  0
    8.8646  -15.0993   21.2832 C   0  0  2  0  0  0  0  0  0  0  0  0
    9.0606  -16.2757   20.5049 N   0  0  0  0  0  0  0  0  0  0  0  0
    7.9921  -15.2693   22.4716 C   0  0  0  0  0  0  0  0  0  0  0  0
    7.8695  -14.2725   23.2248 O   0  0  0  0  0  0  0  0  0  0  0  0
    5.3808  -19.9740   23.3333 N   0  0  0  0  0  0  0  0  0  0  0  0
    5.5454  -18.7163   22.7212 C   0  0  0  0  0  0  0  0  0  0  0  0
    5.9863  -18.6096   21.5612 O   0  0  0  0  0  0  0  0  0  0  0  0
    5.1900  -17.4803   23.4617 C   0  0  0  0  0  0  0  0  0  0  0  0
    6.4004  -16.6873   23.8668 C   0  0  2  0  0  0  0  0  0  0  0  0
    7.3169  -16.4762   22.7722 N   0  0  0  0  0  0  0  0  0  0  0  0
    7.0083  -17.2093   25.0955 C   0  0  0  0  0  0  0  0  0  0  0  0
    6.3404  -17.6631   26.0272 O   0  0  0  0  0  0  0  0  0  0  0  0
    6.8333  -20.1878   28.2357 N   0  0  0  0  0  0  0  0  0  0  0  0
    8.1991  -20.4674   28.5004 C   0  0  0  0  0  0  0  0  0  0  0  0
    8.5055  -21.1264   29.5085 O   0  0  0  0  0  0  0  0  0  0  0  0
    9.2528  -19.9829   27.5911 C   0  0  0  0  0  0  0  0  0  0  0  0
    8.6389  -19.1890   26.4929 C   0  0  0  0  0  0  0  0  0  0  0  0
    9.1180  -17.7690   26.3830 C   0  0  2  0  0  0  0  0  0  0  0  0
    8.4136  -17.2006   25.2355 N   0  0  0  0  0  0  0  0  0  0  0  0
   10.5697  -17.6352   26.2537 C   0  0  0  0  0  0  0  0  0  0  0  0
   11.2810  -18.1911   25.2072 O   0  0  0  0  0  0  0  0  0  0  0  0
   11.2257  -16.9952   27.1133 O   0  0  0  0  0  0  0  0  0  0  0  0
  2  3  2  0
  2  1  1  0
  4  2  1  0
  5  4  1  0
  6  5  1  0
  6  8  1  0
  6  7  1  6
  8 15  1  0
  8  9  2  0
 11 10  1  0
 12 11  2  0
 13 11  1  0
 14 13  1  6
 15 14  1  0
 16 14  1  0
 16 17  2  0
 18 19  1  0
 19 21  1  0
 20 19  2  0
 21 22  1  0
 23 22  1  6
 23 24  1  0
 24 16  1  0
 25 26  1  0
 25 23  1  0
 27 25  2  0
M  END
$$$$
