QNQ.pdb
     RDKit          3D

 27 26  0  0  1  0  0  0  0  0999 V2000
    6.6912  -12.5991   17.3165 N   0  0  0  0  0  0  0  0  0  0  0  0
    7.3081  -13.7704   16.8446 C   0  0  0  0  0  0  0  0  0  0  0  0
    7.1469  -14.1361   15.6615 O   0  0  0  0  0  0  0  0  0  0  0  0
    8.1698  -14.6233   17.7078 C   0  0  0  0  0  0  0  0  0  0  0  0
    7.8438  -14.4421   19.1668 C   0  0  0  0  0  0  0  0  0  0  0  0
    9.1159  -14.3899   19.9368 C   0  0  2  0  0  0  0  0  0  0  0  0
   10.2086  -14.8272   19.1350 N   0  0  0  0  0  0  0  0  0  0  0  0
    9.0155  -15.0352   21.2694 C   0  0  0  0  0  0  0  0  0  0  0  0
    7.9620  -14.8222   21.9180 O   0  0  0  0  0  0  0  0  0  0  0  0
   10.3599  -19.8562   24.3916 N   0  0  0  0  0  0  0  0  0  0  0  0
    9.5595  -18.7093   24.2254 C   0  0  0  0  0  0  0  0  0  0  0  0
    8.8393  -18.2790   25.1460 O   0  0  0  0  0  0  0  0  0  0  0  0
    9.5630  -17.9855   22.9297 C   0  0  0  0  0  0  0  0  0  0  0  0
    9.9800  -16.5494   23.0771 C   0  0  2  0  0  0  0  0  0  0  0  0
   10.0331  -15.8548   21.8133 N   0  0  0  0  0  0  0  0  0  0  0  0
   11.1773  -16.4122   23.9133 C   0  0  0  0  0  0  0  0  0  0  0  0
   12.0648  -17.2673   23.9496 O   0  0  0  0  0  0  0  0  0  0  0  0
    9.7812  -15.8030   30.1807 N   0  0  0  0  0  0  0  0  0  0  0  0
   10.3214  -14.7835   29.3547 C   0  0  0  0  0  0  0  0  0  0  0  0
    9.8393  -13.6390   29.3992 O   0  0  0  0  0  0  0  0  0  0  0  0
   11.4464  -15.0720   28.4475 C   0  0  0  0  0  0  0  0  0  0  0  0
   10.9857  -14.9819   27.0358 C   0  0  0  0  0  0  0  0  0  0  0  0
   12.0377  -15.2584   25.9990 C   0  0  2  0  0  0  0  0  0  0  0  0
   11.3385  -15.2612   24.7157 N   0  0  0  0  0  0  0  0  0  0  0  0
   12.7825  -16.4992   26.2179 C   0  0  0  0  0  0  0  0  0  0  0  0
   13.8205  -16.5973   27.1251 O   0  0  0  0  0  0  0  0  0  0  0  0
   12.4912  -17.5354   25.5697 O   0  0  0  0  0  0  0  0  0  0  0  0
  2  3  2  0
  2  1  1  0
  4  2  1  0
  5  4  1  0
  6  5  1  0
  6  8  1  0
  6  7  1  6
  8 15  1  0
  8  9  2  0
 11 10  1  0
 12 11  2  0
 13 11  1  0
 14 13  1  6
 15 14  1  0
 16 14  1  0
 16 17  2  0
 18 19  1  0
 19 21  1  0
 20 19  2  0
 21 22  1  0
 23 22  1  1
 23 24  1  0
 24 16  1  0
 25 26  1  0
 25 23  1  0
 27 25  2  0
M  END
$$$$
