QNQ.pdb
     RDKit          3D

 27 26  0  0  1  0  0  0  0  0999 V2000
    9.3312  -12.5116   18.3876 N   0  0  0  0  0  0  0  0  0  0  0  0
    8.2781  -13.0939   17.6617 C   0  0  0  0  0  0  0  0  0  0  0  0
    8.3335  -13.1648   16.4161 O   0  0  0  0  0  0  0  0  0  0  0  0
    7.0635  -13.6472   18.3202 C   0  0  0  0  0  0  0  0  0  0  0  0
    7.2778  -13.8490   19.7971 C   0  0  0  0  0  0  0  0  0  0  0  0
    8.0293  -15.1168   20.0010 C   0  0  2  0  0  0  0  0  0  0  0  0
    7.8931  -15.9710   18.8696 N   0  0  0  0  0  0  0  0  0  0  0  0
    7.7459  -15.7564   21.3099 C   0  0  0  0  0  0  0  0  0  0  0  0
    6.8071  -15.2647   21.9829 O   0  0  0  0  0  0  0  0  0  0  0  0
    6.4384  -19.9188   24.7161 N   0  0  0  0  0  0  0  0  0  0  0  0
    7.7299  -19.6615   24.2169 C   0  0  0  0  0  0  0  0  0  0  0  0
    8.7503  -19.9987   24.8464 O   0  0  0  0  0  0  0  0  0  0  0  0
    7.8959  -18.9735   22.9123 C   0  0  0  0  0  0  0  0  0  0  0  0
    8.2588  -17.5241   23.0714 C   0  0  2  0  0  0  0  0  0  0  0  0
    8.4736  -16.8641   21.8061 N   0  0  0  0  0  0  0  0  0  0  0  0
    9.3247  -17.3341   24.0610 C   0  0  0  0  0  0  0  0  0  0  0  0
   10.5050  -17.6026   23.8272 O   0  0  0  0  0  0  0  0  0  0  0  0
   10.0619  -13.2853   30.2148 N   0  0  0  0  0  0  0  0  0  0  0  0
    9.5584  -13.7968   28.9907 C   0  0  0  0  0  0  0  0  0  0  0  0
    8.5360  -13.2966   28.4918 O   0  0  0  0  0  0  0  0  0  0  0  0
   10.2376  -14.9132   28.3094 C   0  0  0  0  0  0  0  0  0  0  0  0
    9.4099  -15.3771   27.1635 C   0  0  0  0  0  0  0  0  0  0  0  0
   10.0053  -16.4933   26.3527 C   0  0  2  0  0  0  0  0  0  0  0  0
    9.0060  -16.8236   25.3387 N   0  0  0  0  0  0  0  0  0  0  0  0
   10.3923  -17.6648   27.1400 C   0  0  0  0  0  0  0  0  0  0  0  0
    9.6529  -18.8323   27.1552 O   0  0  0  0  0  0  0  0  0  0  0  0
   11.4341  -17.6399   27.8422 O   0  0  0  0  0  0  0  0  0  0  0  0
  2  3  2  0
  2  1  1  0
  4  2  1  0
  5  4  1  0
  6  5  1  0
  6  8  1  0
  6  7  1  6
  8 15  1  0
  8  9  2  0
 11 10  1  0
 12 11  2  0
 13 11  1  0
 14 13  1  6
 15 14  1  0
 16 14  1  0
 16 17  2  0
 18 19  1  0
 19 21  1  0
 20 19  2  0
 21 22  1  0
 23 22  1  1
 23 24  1  0
 24 16  1  0
 25 26  1  0
 25 23  1  0
 27 25  2  0
M  END
$$$$
