RNE.pdb
     RDKit          3D

 29 28  0  0  1  0  0  0  0  0999 V2000
    7.2568  -12.1457   20.1070 N   0  0  0  0  0  0  0  0  0  0  0  0
    8.3890  -12.5732   19.3759 C   0  0  0  0  0  0  0  0  0  0  0  0
    9.3485  -11.7121   19.1573 N   0  0  0  0  0  0  0  0  0  0  0  0
    8.5395  -13.8800   18.8687 N   0  0  0  0  0  0  0  0  0  0  0  0
    7.6187  -14.9466   19.2845 C   0  0  0  0  0  0  0  0  0  0  0  0
    7.5657  -15.0231   20.7991 C   0  0  0  0  0  0  0  0  0  0  0  0
    8.5088  -16.0252   21.3537 C   0  0  0  0  0  0  0  0  0  0  0  0
    8.3777  -17.4248   20.7996 C   0  0  2  0  0  0  0  0  0  0  0  0
    7.0146  -17.8381   21.1229 N   0  0  0  0  0  0  0  0  0  0  0  0
    9.3577  -18.3813   21.3671 C   0  0  0  0  0  0  0  0  0  0  0  0
    9.0273  -19.1476   22.3412 O   0  0  0  0  0  0  0  0  0  0  0  0
   10.1209  -11.9256   18.5195 N   0  0  0  0  0  0  0  0  0  0  0  0
   15.2374  -19.9385   20.6729 C   0  0  0  0  0  0  0  0  0  0  0  0
   13.9237  -20.4433   21.0278 O   0  0  0  0  0  0  0  0  0  0  0  0
   13.9455  -21.5184   21.6428 C   0  0  0  0  0  0  0  0  0  0  0  0
   12.7693  -19.6659   20.6398 C   0  0  2  0  0  0  0  0  0  0  0  0
   11.6171  -19.5015   21.5790 N   0  0  0  0  0  0  0  0  0  0  0  0
   10.6708  -18.5276   20.9098 C   0  0  0  0  0  0  0  0  0  0  0  0
   11.9224  -18.9670   22.9066 O   0  0  0  0  0  0  0  0  0  0  0  0
   11.6643  -17.7085   23.1048 N   0  0  0  0  0  0  0  0  0  0  0  0
   12.4611  -19.6399   24.0228 C   0  0  1  0  0  0  0  0  0  0  0  0
   12.2343  -19.1255   25.3827 C   0  0  0  0  0  0  0  0  0  0  0  0
   10.7624  -19.0972   25.6158 C   0  0  0  0  0  0  0  0  0  0  0  0
   10.0879  -17.7848   25.4544 C   0  0  0  0  0  0  0  0  0  0  0  0
    8.6381  -17.8257   25.7020 O   0  0  0  0  0  0  0  0  0  0  0  0
    8.0851  -18.8973   26.0030 C   0  0  0  0  0  0  0  0  0  0  0  0
   12.8964  -19.9811   26.3783 O   0  0  0  0  0  0  0  0  0  0  0  0
   13.3608  -21.1152   26.1055 O   0  0  0  0  0  0  0  0  0  0  0  0
    7.8661  -16.6806   25.6055 O   0  0  0  0  0  0  0  0  0  0  0  0
  1  2  1  0
  2  3  2  0
  4  5  1  0
  4  2  1  0
  6  5  1  0
  7  6  1  0
  8 10  1  0
  8  7  1  0
  8  9  1  1
 10 11  2  0
 12 13  1  0
 13 14  2  0
 15 13  1  0
 16 15  1  6
 17 16  1  0
 17 10  1  0
 18 16  1  0
 18 19  2  0
 20 18  1  0
 21 20  1  0
 21 22  1  1
 22 23  1  0
 23 24  1  0
 24 28  1  0
 25 24  2  0
 26 21  1  0
 27 26  2  0
 29 26  1  0
M  END
$$$$
