RNE.pdb
     RDKit          3D

 29 28  0  0  1  0  0  0  0  0999 V2000
    7.0945  -12.8963   18.4844 N   0  0  0  0  0  0  0  0  0  0  0  0
    8.2026  -12.8498   19.3613 C   0  0  0  0  0  0  0  0  0  0  0  0
    8.2143  -11.9392   20.2996 N   0  0  0  0  0  0  0  0  0  0  0  0
    9.2979  -13.7336   19.2782 N   0  0  0  0  0  0  0  0  0  0  0  0
    9.4838  -14.5730   18.0868 C   0  0  0  0  0  0  0  0  0  0  0  0
    8.9313  -15.9631   18.3419 C   0  0  0  0  0  0  0  0  0  0  0  0
    9.9826  -17.0096   18.3129 C   0  0  0  0  0  0  0  0  0  0  0  0
    9.9638  -17.9886   19.4638 C   0  0  2  0  0  0  0  0  0  0  0  0
    8.6808  -18.6786   19.3584 N   0  0  0  0  0  0  0  0  0  0  0  0
   10.0983  -17.3445   20.7922 C   0  0  0  0  0  0  0  0  0  0  0  0
   11.1845  -16.7435   21.1151 O   0  0  0  0  0  0  0  0  0  0  0  0
    9.0359  -11.7976   20.8945 N   0  0  0  0  0  0  0  0  0  0  0  0
    8.5255  -14.2481   21.8716 C   0  0  0  0  0  0  0  0  0  0  0  0
    7.6584  -14.8142   22.8886 O   0  0  0  0  0  0  0  0  0  0  0  0
    6.6363  -14.1494   23.1073 C   0  0  0  0  0  0  0  0  0  0  0  0
    8.0647  -16.0504   23.5167 C   0  0  2  0  0  0  0  0  0  0  0  0
    9.3471  -16.7126   23.1249 N   0  0  0  0  0  0  0  0  0  0  0  0
    9.0963  -17.3338   21.7673 C   0  0  0  0  0  0  0  0  0  0  0  0
    9.8337  -17.7755   24.0051 O   0  0  0  0  0  0  0  0  0  0  0  0
    8.9912  -18.7186   24.3058 N   0  0  0  0  0  0  0  0  0  0  0  0
   11.1138  -17.9256   24.5778 C   0  0  1  0  0  0  0  0  0  0  0  0
   11.4147  -19.0837   25.4344 C   0  0  0  0  0  0  0  0  0  0  0  0
   12.4857  -19.8752   24.7648 C   0  0  0  0  0  0  0  0  0  0  0  0
   13.7495  -19.1596   24.4583 C   0  0  0  0  0  0  0  0  0  0  0  0
   14.7557  -19.9916   23.7799 O   0  0  0  0  0  0  0  0  0  0  0  0
   14.9936  -21.1417   24.1869 C   0  0  0  0  0  0  0  0  0  0  0  0
   11.8566  -18.6434   26.7658 O   0  0  0  0  0  0  0  0  0  0  0  0
   12.0143  -17.4355   27.0698 O   0  0  0  0  0  0  0  0  0  0  0  0
   15.4527  -19.5145   22.6830 O   0  0  0  0  0  0  0  0  0  0  0  0
  1  2  1  0
  2  3  2  0
  4  5  1  0
  4  2  1  0
  6  5  1  0
  7  6  1  0
  8 10  1  0
  8  7  1  0
  8  9  1  1
 10 11  2  0
 12 13  1  0
 13 14  2  0
 15 13  1  0
 16 15  1  6
 17 16  1  0
 17 10  1  0
 18 16  1  0
 18 19  2  0
 20 18  1  0
 21 20  1  0
 21 22  1  1
 22 23  1  0
 23 24  1  0
 24 28  1  0
 25 24  2  0
 26 21  1  0
 27 26  2  0
 29 26  1  0
M  END
$$$$
