RNE.pdb
     RDKit          3D

 29 28  0  0  1  0  0  0  0  0999 V2000
    8.0316  -13.0096   16.8961 N   0  0  0  0  0  0  0  0  0  0  0  0
    7.4864  -14.1947   17.4414 C   0  0  0  0  0  0  0  0  0  0  0  0
    7.7833  -15.3340   16.8724 N   0  0  0  0  0  0  0  0  0  0  0  0
    6.6381  -14.2144   18.5673 N   0  0  0  0  0  0  0  0  0  0  0  0
    7.2015  -14.3540   19.9170 C   0  0  0  0  0  0  0  0  0  0  0  0
    8.1829  -15.5109   19.9508 C   0  0  0  0  0  0  0  0  0  0  0  0
    8.7049  -15.7773   21.3139 C   0  0  0  0  0  0  0  0  0  0  0  0
    9.4678  -14.6422   21.9564 C   0  0  2  0  0  0  0  0  0  0  0  0
   10.8776  -14.9647   21.7520 N   0  0  0  0  0  0  0  0  0  0  0  0
    9.1782  -14.4760   23.4007 C   0  0  0  0  0  0  0  0  0  0  0  0
    9.9765  -14.9567   24.2821 O   0  0  0  0  0  0  0  0  0  0  0  0
    7.3598  -16.2124   17.1856 N   0  0  0  0  0  0  0  0  0  0  0  0
    7.0557  -12.7220   28.0154 C   0  0  0  0  0  0  0  0  0  0  0  0
    6.2917  -12.2640   26.8695 O   0  0  0  0  0  0  0  0  0  0  0  0
    5.3397  -11.5265   27.1600 C   0  0  0  0  0  0  0  0  0  0  0  0
    6.7074  -12.7012   25.5567 C   0  0  2  0  0  0  0  0  0  0  0  0
    7.9024  -13.5862   25.3971 N   0  0  0  0  0  0  0  0  0  0  0  0
    8.0594  -13.8083   23.9078 C   0  0  0  0  0  0  0  0  0  0  0  0
    7.8324  -14.9051   26.0273 O   0  0  0  0  0  0  0  0  0  0  0  0
    7.7849  -14.9319   27.3260 N   0  0  0  0  0  0  0  0  0  0  0  0
    7.8022  -16.1734   25.4112 C   0  0  1  0  0  0  0  0  0  0  0  0
    7.7698  -17.3970   26.2281 C   0  0  0  0  0  0  0  0  0  0  0  0
    7.4454  -18.5362   25.3233 C   0  0  0  0  0  0  0  0  0  0  0  0
    7.3948  -19.8844   25.9423 C   0  0  0  0  0  0  0  0  0  0  0  0
    7.0527  -20.9605   24.9990 O   0  0  0  0  0  0  0  0  0  0  0  0
    6.0071  -20.8968   24.3300 C   0  0  0  0  0  0  0  0  0  0  0  0
    9.0662  -17.6159   26.8863 O   0  0  0  0  0  0  0  0  0  0  0  0
   10.1332  -17.0861   26.4899 O   0  0  0  0  0  0  0  0  0  0  0  0
    7.8817  -22.0575   24.8384 O   0  0  0  0  0  0  0  0  0  0  0  0
  1  2  1  0
  2  3  2  0
  4  5  1  0
  4  2  1  0
  6  5  1  0
  7  6  1  0
  8 10  1  0
  8  7  1  0
  8  9  1  1
 10 11  2  0
 12 13  1  0
 13 14  2  0
 15 13  1  0
 16 15  1  6
 17 16  1  0
 17 10  1  0
 18 16  1  0
 18 19  2  0
 20 18  1  0
 21 20  1  0
 21 22  1  1
 22 23  1  0
 23 24  1  0
 24 28  1  0
 25 24  2  0
 26 21  1  0
 27 26  2  0
 29 26  1  0
M  END
$$$$
