RNE.pdb
     RDKit          3D

 29 28  0  0  1  0  0  0  0  0999 V2000
    7.9305  -12.1953   18.0028 N   0  0  0  0  0  0  0  0  0  0  0  0
    8.1615  -13.5890   18.0605 C   0  0  0  0  0  0  0  0  0  0  0  0
    8.1266  -14.2709   16.9454 N   0  0  0  0  0  0  0  0  0  0  0  0
    8.4274  -14.2845   19.2577 N   0  0  0  0  0  0  0  0  0  0  0  0
    8.2494  -13.6197   20.5558 C   0  0  0  0  0  0  0  0  0  0  0  0
    6.8270  -13.8159   21.0468 C   0  0  0  0  0  0  0  0  0  0  0  0
    6.7665  -14.4871   22.3685 C   0  0  0  0  0  0  0  0  0  0  0  0
    7.8444  -15.5128   22.6320 C   0  0  2  0  0  0  0  0  0  0  0  0
    7.6956  -16.5054   21.5708 N   0  0  0  0  0  0  0  0  0  0  0  0
    7.7372  -16.1569   23.9628 C   0  0  0  0  0  0  0  0  0  0  0  0
    7.7844  -15.4496   25.0318 O   0  0  0  0  0  0  0  0  0  0  0  0
    8.2873  -15.2824   16.9342 N   0  0  0  0  0  0  0  0  0  0  0  0
    7.0036  -19.7517   27.8745 C   0  0  0  0  0  0  0  0  0  0  0  0
    6.1778  -19.9561   26.6985 O   0  0  0  0  0  0  0  0  0  0  0  0
    5.3040  -20.8227   26.8398 C   0  0  0  0  0  0  0  0  0  0  0  0
    6.4525  -19.1551   25.5277 C   0  0  1  0  0  0  0  0  0  0  0  0
    7.5190  -18.1072   25.5609 N   0  0  0  0  0  0  0  0  0  0  0  0
    7.5803  -17.5319   24.1619 C   0  0  0  0  0  0  0  0  0  0  0  0
    8.8691  -18.5541   25.9057 O   0  0  0  0  0  0  0  0  0  0  0  0
    9.0082  -19.1787   27.0371 N   0  0  0  0  0  0  0  0  0  0  0  0
   10.0604  -18.4048   25.1657 C   0  0  2  0  0  0  0  0  0  0  0  0
   11.3373  -18.9012   25.7029 C   0  0  0  0  0  0  0  0  0  0  0  0
   12.4179  -18.4709   24.7707 C   0  0  0  0  0  0  0  0  0  0  0  0
   12.5276  -17.0145   24.5057 C   0  0  0  0  0  0  0  0  0  0  0  0
   12.8849  -16.6871   23.1165 O   0  0  0  0  0  0  0  0  0  0  0  0
   12.2056  -17.1306   22.1749 C   0  0  0  0  0  0  0  0  0  0  0  0
   11.5769  -18.3648   27.0507 O   0  0  0  0  0  0  0  0  0  0  0  0
   10.8265  -17.5169   27.5932 O   0  0  0  0  0  0  0  0  0  0  0  0
   13.9765  -15.8847   22.8318 O   0  0  0  0  0  0  0  0  0  0  0  0
  1  2  1  0
  2  3  2  0
  4  5  1  0
  4  2  1  0
  6  5  1  0
  7  6  1  0
  8 10  1  0
  8  7  1  0
  8  9  1  6
 10 11  2  0
 12 13  1  0
 13 14  2  0
 15 13  1  0
 16 15  1  1
 17 16  1  0
 17 10  1  0
 18 16  1  0
 18 19  2  0
 20 18  1  0
 21 20  1  0
 21 22  1  1
 22 23  1  0
 23 24  1  0
 24 28  1  0
 25 24  2  0
 26 21  1  0
 27 26  2  0
 29 26  1  0
M  END
$$$$
