RNE.pdb
     RDKit          3D

 29 28  0  0  1  0  0  0  0  0999 V2000
    8.1691  -13.8359   16.6449 N   0  0  0  0  0  0  0  0  0  0  0  0
    8.1189  -12.9557   17.7503 C   0  0  0  0  0  0  0  0  0  0  0  0
    8.7429  -11.8101   17.6608 N   0  0  0  0  0  0  0  0  0  0  0  0
    7.4314  -13.2472   18.9461 N   0  0  0  0  0  0  0  0  0  0  0  0
    6.6805  -14.5028   19.0818 C   0  0  0  0  0  0  0  0  0  0  0  0
    7.5664  -15.5719   19.6941 C   0  0  0  0  0  0  0  0  0  0  0  0
    8.3691  -15.0646   20.8340 C   0  0  0  0  0  0  0  0  0  0  0  0
    9.2264  -16.0899   21.5389 C   0  0  2  0  0  0  0  0  0  0  0  0
    8.6054  -17.3779   21.2410 N   0  0  0  0  0  0  0  0  0  0  0  0
    9.3138  -15.8832   23.0042 C   0  0  0  0  0  0  0  0  0  0  0  0
    9.8339  -14.8109   23.4784 O   0  0  0  0  0  0  0  0  0  0  0  0
    8.7380  -11.1388   18.4343 N   0  0  0  0  0  0  0  0  0  0  0  0
    7.3630  -14.0299   24.9794 C   0  0  0  0  0  0  0  0  0  0  0  0
    6.6834  -15.1432   25.6162 O   0  0  0  0  0  0  0  0  0  0  0  0
    5.4996  -14.9154   25.9010 C   0  0  0  0  0  0  0  0  0  0  0  0
    7.4332  -16.3573   25.8428 C   0  0  2  0  0  0  0  0  0  0  0  0
    8.8678  -16.4489   25.4303 N   0  0  0  0  0  0  0  0  0  0  0  0
    8.8554  -16.7978   23.9572 C   0  0  0  0  0  0  0  0  0  0  0  0
    9.6835  -17.4573   26.1080 O   0  0  0  0  0  0  0  0  0  0  0  0
    9.7988  -17.3470   27.3981 N   0  0  0  0  0  0  0  0  0  0  0  0
   10.3688  -18.5553   25.5479 C   0  0  2  0  0  0  0  0  0  0  0  0
   11.7567  -18.8458   25.9415 C   0  0  0  0  0  0  0  0  0  0  0  0
   12.6289  -17.8077   25.3224 C   0  0  0  0  0  0  0  0  0  0  0  0
   13.9441  -18.2642   24.8072 C   0  0  0  0  0  0  0  0  0  0  0  0
   14.4997  -17.4060   23.7491 O   0  0  0  0  0  0  0  0  0  0  0  0
   14.9530  -16.2828   24.0284 C   0  0  0  0  0  0  0  0  0  0  0  0
   11.8955  -18.8281   27.4051 O   0  0  0  0  0  0  0  0  0  0  0  0
   11.3035  -17.9988   28.1387 O   0  0  0  0  0  0  0  0  0  0  0  0
   14.5289  -17.8283   22.4310 O   0  0  0  0  0  0  0  0  0  0  0  0
  1  2  1  0
  2  3  2  0
  4  5  1  0
  4  2  1  0
  6  5  1  0
  7  6  1  0
  8 10  1  0
  8  7  1  0
  8  9  1  1
 10 11  2  0
 12 13  1  0
 13 14  2  0
 15 13  1  0
 16 15  1  6
 17 16  1  0
 17 10  1  0
 18 16  1  0
 18 19  2  0
 20 18  1  0
 21 20  1  0
 21 22  1  6
 22 23  1  0
 23 24  1  0
 24 28  1  0
 25 24  2  0
 26 21  1  0
 27 26  2  0
 29 26  1  0
M  END
$$$$
