RNE.pdb
     RDKit          3D

 29 28  0  0  1  0  0  0  0  0999 V2000
    7.7676  -13.2877   16.5988 N   0  0  0  0  0  0  0  0  0  0  0  0
    8.3270  -13.2903   17.8974 C   0  0  0  0  0  0  0  0  0  0  0  0
    9.1942  -12.3602   18.2018 N   0  0  0  0  0  0  0  0  0  0  0  0
    7.9999  -14.2435   18.8833 N   0  0  0  0  0  0  0  0  0  0  0  0
    9.0240  -15.1677   19.3888 C   0  0  0  0  0  0  0  0  0  0  0  0
    8.9753  -16.4696   18.6108 C   0  0  0  0  0  0  0  0  0  0  0  0
   10.0831  -17.3898   18.9673 C   0  0  0  0  0  0  0  0  0  0  0  0
   10.9887  -17.7968   17.8281 C   0  0  2  0  0  0  0  0  0  0  0  0
   10.2701  -18.8589   17.1289 N   0  0  0  0  0  0  0  0  0  0  0  0
   12.3196  -18.2762   18.2711 C   0  0  0  0  0  0  0  0  0  0  0  0
   12.4609  -19.4648   18.7321 O   0  0  0  0  0  0  0  0  0  0  0  0
    9.7355  -12.4001   19.0704 N   0  0  0  0  0  0  0  0  0  0  0  0
   15.4546  -19.0277   16.2008 C   0  0  0  0  0  0  0  0  0  0  0  0
   16.1892  -17.8809   16.7027 O   0  0  0  0  0  0  0  0  0  0  0  0
   17.0241  -17.4289   15.9069 C   0  0  0  0  0  0  0  0  0  0  0  0
   15.8802  -17.4042   18.0311 C   0  0  2  0  0  0  0  0  0  0  0  0
   14.7774  -18.0317   18.8228 N   0  0  0  0  0  0  0  0  0  0  0  0
   13.4879  -17.5094   18.2259 C   0  0  0  0  0  0  0  0  0  0  0  0
   14.7445  -17.7333   20.2551 O   0  0  0  0  0  0  0  0  0  0  0  0
   15.8529  -17.8992   20.9135 N   0  0  0  0  0  0  0  0  0  0  0  0
   13.6606  -17.2766   21.0333 C   0  0  1  0  0  0  0  0  0  0  0  0
   13.8863  -16.3438   22.1489 C   0  0  0  0  0  0  0  0  0  0  0  0
   14.1995  -15.0084   21.5654 C   0  0  0  0  0  0  0  0  0  0  0  0
   15.5361  -14.4428   21.8767 C   0  0  0  0  0  0  0  0  0  0  0  0
   16.3519  -14.1526   20.6871 O   0  0  0  0  0  0  0  0  0  0  0  0
   17.2647  -14.9263   20.3509 C   0  0  0  0  0  0  0  0  0  0  0  0
   12.6952  -16.2635   23.0072 O   0  0  0  0  0  0  0  0  0  0  0  0
   12.6828  -15.6552   24.1054 O   0  0  0  0  0  0  0  0  0  0  0  0
   16.1215  -13.0209   19.9238 O   0  0  0  0  0  0  0  0  0  0  0  0
  1  2  1  0
  2  3  2  0
  4  5  1  0
  4  2  1  0
  6  5  1  0
  7  6  1  0
  8 10  1  0
  8  7  1  0
  8  9  1  1
 10 11  2  0
 12 13  1  0
 13 14  2  0
 15 13  1  0
 16 15  1  6
 17 16  1  0
 17 10  1  0
 18 16  1  0
 18 19  2  0
 20 18  1  0
 21 20  1  0
 21 22  1  1
 22 23  1  0
 23 24  1  0
 24 28  1  0
 25 24  2  0
 26 21  1  0
 27 26  2  0
 29 26  1  0
M  END
$$$$
