RNE.pdb
     RDKit          3D

 29 28  0  0  1  0  0  0  0  0999 V2000
    6.4600  -13.2458   21.1722 N   0  0  0  0  0  0  0  0  0  0  0  0
    6.5834  -12.7732   19.8454 C   0  0  0  0  0  0  0  0  0  0  0  0
    6.9519  -11.5324   19.6599 N   0  0  0  0  0  0  0  0  0  0  0  0
    6.3297  -13.5689   18.7095 N   0  0  0  0  0  0  0  0  0  0  0  0
    7.4445  -14.1198   17.9270 C   0  0  0  0  0  0  0  0  0  0  0  0
    8.6416  -14.3580   18.8286 C   0  0  0  0  0  0  0  0  0  0  0  0
    9.4064  -15.5727   18.4534 C   0  0  0  0  0  0  0  0  0  0  0  0
   10.7676  -15.3275   17.8449 C   0  0  2  0  0  0  0  0  0  0  0  0
   10.5773  -15.4850   16.4054 N   0  0  0  0  0  0  0  0  0  0  0  0
   11.8122  -16.2583   18.3346 C   0  0  0  0  0  0  0  0  0  0  0  0
   11.9788  -16.4430   19.5929 O   0  0  0  0  0  0  0  0  0  0  0  0
    7.0604  -11.1439   18.7184 N   0  0  0  0  0  0  0  0  0  0  0  0
   14.3750  -21.0357   18.2272 C   0  0  0  0  0  0  0  0  0  0  0  0
   14.8982  -20.0256   17.3257 O   0  0  0  0  0  0  0  0  0  0  0  0
   16.0370  -20.2678   16.9028 C   0  0  0  0  0  0  0  0  0  0  0  0
   14.0646  -18.8838   17.0272 C   0  0  1  0  0  0  0  0  0  0  0  0
   13.7317  -17.8902   18.0943 N   0  0  0  0  0  0  0  0  0  0  0  0
   12.6697  -16.9868   17.5045 C   0  0  0  0  0  0  0  0  0  0  0  0
   14.8230  -17.0322   18.5571 O   0  0  0  0  0  0  0  0  0  0  0  0
   15.8802  -17.6286   19.0219 N   0  0  0  0  0  0  0  0  0  0  0  0
   14.8917  -15.6235   18.5633 C   0  0  2  0  0  0  0  0  0  0  0  0
   16.0768  -14.9385   19.1035 C   0  0  0  0  0  0  0  0  0  0  0  0
   16.2210  -15.3425   20.5310 C   0  0  0  0  0  0  0  0  0  0  0  0
   17.4076  -14.8202   21.2540 C   0  0  0  0  0  0  0  0  0  0  0  0
   17.4419  -15.1799   22.6802 O   0  0  0  0  0  0  0  0  0  0  0  0
   18.3538  -14.7555   23.4105 C   0  0  0  0  0  0  0  0  0  0  0  0
   17.2798  -15.3042   18.3414 O   0  0  0  0  0  0  0  0  0  0  0  0
   18.1653  -14.4740   18.0203 O   0  0  0  0  0  0  0  0  0  0  0  0
   16.4671  -15.9921   23.2340 O   0  0  0  0  0  0  0  0  0  0  0  0
  1  2  1  0
  2  3  2  0
  4  5  1  0
  4  2  1  0
  6  5  1  0
  7  6  1  0
  8 10  1  0
  8  7  1  0
  8  9  1  6
 10 11  2  0
 12 13  1  0
 13 14  2  0
 15 13  1  0
 16 15  1  1
 17 16  1  0
 17 10  1  0
 18 16  1  0
 18 19  2  0
 20 18  1  0
 21 20  1  0
 21 22  1  1
 22 23  1  0
 23 24  1  0
 24 28  1  0
 25 24  2  0
 26 21  1  0
 27 26  2  0
 29 26  1  0
M  END
$$$$
