RNE.pdb
     RDKit          3D

 29 28  0  0  1  0  0  0  0  0999 V2000
    7.6571  -13.9521   15.3849 N   0  0  0  0  0  0  0  0  0  0  0  0
    8.0744  -13.4931   16.6554 C   0  0  0  0  0  0  0  0  0  0  0  0
    9.3501  -13.2837   16.8519 N   0  0  0  0  0  0  0  0  0  0  0  0
    7.1878  -13.2491   17.7241 N   0  0  0  0  0  0  0  0  0  0  0  0
    7.7073  -12.8867   19.0497 C   0  0  0  0  0  0  0  0  0  0  0  0
    8.5911  -13.9999   19.5811 C   0  0  0  0  0  0  0  0  0  0  0  0
    7.9845  -14.7096   20.7341 C   0  0  0  0  0  0  0  0  0  0  0  0
    8.7795  -15.8736   21.2784 C   0  0  2  0  0  0  0  0  0  0  0  0
    8.6140  -16.9424   20.2968 N   0  0  0  0  0  0  0  0  0  0  0  0
    8.3293  -16.3248   22.6168 C   0  0  0  0  0  0  0  0  0  0  0  0
    8.4664  -15.5620   23.6388 O   0  0  0  0  0  0  0  0  0  0  0  0
    9.7128  -13.0334   17.7765 N   0  0  0  0  0  0  0  0  0  0  0  0
    5.2401  -17.4073   22.6078 C   0  0  0  0  0  0  0  0  0  0  0  0
    5.2248  -18.6651   23.3319 O   0  0  0  0  0  0  0  0  0  0  0  0
    4.2431  -19.3785   23.0834 C   0  0  0  0  0  0  0  0  0  0  0  0
    6.3181  -18.9428   24.2349 C   0  0  2  0  0  0  0  0  0  0  0  0
    7.5016  -18.0304   24.2933 N   0  0  0  0  0  0  0  0  0  0  0  0
    7.7397  -17.5666   22.8720 C   0  0  0  0  0  0  0  0  0  0  0  0
    8.7554  -18.6104   24.7761 O   0  0  0  0  0  0  0  0  0  0  0  0
    8.7099  -19.2416   25.9115 N   0  0  0  0  0  0  0  0  0  0  0  0
   10.0275  -18.5853   24.1675 C   0  0  2  0  0  0  0  0  0  0  0  0
   11.1765  -19.2351   24.8179 C   0  0  0  0  0  0  0  0  0  0  0  0
   12.2573  -19.3669   23.7999 C   0  0  0  0  0  0  0  0  0  0  0  0
   13.5636  -19.8841   24.2789 C   0  0  0  0  0  0  0  0  0  0  0  0
   14.5865  -19.9848   23.2262 O   0  0  0  0  0  0  0  0  0  0  0  0
   15.5497  -19.1993   23.2129 C   0  0  0  0  0  0  0  0  0  0  0  0
   11.6428  -18.4395   25.9630 O   0  0  0  0  0  0  0  0  0  0  0  0
   12.4292  -18.8878   26.8330 O   0  0  0  0  0  0  0  0  0  0  0  0
   14.4982  -20.9489   22.2366 O   0  0  0  0  0  0  0  0  0  0  0  0
  1  2  1  0
  2  3  2  0
  4  5  1  0
  4  2  1  0
  6  5  1  0
  7  6  1  0
  8 10  1  0
  8  7  1  0
  8  9  1  6
 10 11  2  0
 12 13  1  0
 13 14  2  0
 15 13  1  0
 16 15  1  1
 17 16  1  0
 17 10  1  0
 18 16  1  0
 18 19  2  0
 20 18  1  0
 21 20  1  0
 21 22  1  1
 22 23  1  0
 23 24  1  0
 24 28  1  0
 25 24  2  0
 26 21  1  0
 27 26  2  0
 29 26  1  0
M  END
$$$$
