RNE.pdb
     RDKit          3D

 29 28  0  0  1  0  0  0  0  0999 V2000
    7.3250  -13.6461   20.1154 N   0  0  0  0  0  0  0  0  0  0  0  0
    8.0181  -13.0498   19.0369 C   0  0  0  0  0  0  0  0  0  0  0  0
    7.3232  -12.6020   18.0237 N   0  0  0  0  0  0  0  0  0  0  0  0
    9.4205  -12.9121   18.9946 N   0  0  0  0  0  0  0  0  0  0  0  0
   10.2325  -13.8418   18.1978 C   0  0  0  0  0  0  0  0  0  0  0  0
   10.1457  -15.2384   18.7850 C   0  0  0  0  0  0  0  0  0  0  0  0
   10.8239  -15.3483   20.1000 C   0  0  0  0  0  0  0  0  0  0  0  0
   10.7814  -16.7133   20.7467 C   0  0  2  0  0  0  0  0  0  0  0  0
    9.4591  -17.2462   20.4290 N   0  0  0  0  0  0  0  0  0  0  0  0
   10.9881  -16.6806   22.2142 C   0  0  0  0  0  0  0  0  0  0  0  0
   12.1185  -16.3213   22.7025 O   0  0  0  0  0  0  0  0  0  0  0  0
    7.7787  -12.2962   17.1588 N   0  0  0  0  0  0  0  0  0  0  0  0
    8.3933  -14.5475   24.3953 C   0  0  0  0  0  0  0  0  0  0  0  0
    8.0151  -15.9078   24.7318 O   0  0  0  0  0  0  0  0  0  0  0  0
    6.8387  -16.1860   24.4614 C   0  0  0  0  0  0  0  0  0  0  0  0
    9.0158  -16.7641   25.3260 C   0  0  2  0  0  0  0  0  0  0  0  0
   10.3229  -16.9923   24.6361 N   0  0  0  0  0  0  0  0  0  0  0  0
   10.0116  -17.0220   23.1548 C   0  0  0  0  0  0  0  0  0  0  0  0
   11.0271  -18.2344   24.9563 O   0  0  0  0  0  0  0  0  0  0  0  0
   10.7600  -19.2673   24.2138 N   0  0  0  0  0  0  0  0  0  0  0  0
   11.9769  -18.4699   25.9720 C   0  0  1  0  0  0  0  0  0  0  0  0
   12.9799  -19.5360   25.8203 C   0  0  0  0  0  0  0  0  0  0  0  0
   13.7499  -19.2585   24.5746 C   0  0  0  0  0  0  0  0  0  0  0  0
   14.8822  -20.1703   24.2748 C   0  0  0  0  0  0  0  0  0  0  0  0
   15.9885  -19.5273   23.5485 O   0  0  0  0  0  0  0  0  0  0  0  0
   16.2477  -18.3268   23.7392 C   0  0  0  0  0  0  0  0  0  0  0  0
   13.8787  -19.5720   26.9833 O   0  0  0  0  0  0  0  0  0  0  0  0
   13.9867  -18.6199   27.7946 O   0  0  0  0  0  0  0  0  0  0  0  0
   16.7575  -20.2406   22.6450 O   0  0  0  0  0  0  0  0  0  0  0  0
  1  2  1  0
  2  3  2  0
  4  5  1  0
  4  2  1  0
  6  5  1  0
  7  6  1  0
  8 10  1  0
  8  7  1  0
  8  9  1  1
 10 11  2  0
 12 13  1  0
 13 14  2  0
 15 13  1  0
 16 15  1  6
 17 16  1  0
 17 10  1  0
 18 16  1  0
 18 19  2  0
 20 18  1  0
 21 20  1  0
 21 22  1  1
 22 23  1  0
 23 24  1  0
 24 28  1  0
 25 24  2  0
 26 21  1  0
 27 26  2  0
 29 26  1  0
M  END
$$$$
