RNE.pdb
     RDKit          3D

 29 28  0  0  1  0  0  0  0  0999 V2000
    7.8002  -15.0169   17.5193 N   0  0  0  0  0  0  0  0  0  0  0  0
    7.7463  -13.9106   18.3982 C   0  0  0  0  0  0  0  0  0  0  0  0
    8.1135  -12.7399   17.9461 N   0  0  0  0  0  0  0  0  0  0  0  0
    7.3177  -14.0019   19.7382 N   0  0  0  0  0  0  0  0  0  0  0  0
    7.5286  -12.8787   20.6615 C   0  0  0  0  0  0  0  0  0  0  0  0
    7.0826  -13.2671   22.0591 C   0  0  0  0  0  0  0  0  0  0  0  0
    6.7185  -14.7016   22.1644 C   0  0  0  0  0  0  0  0  0  0  0  0
    7.8721  -15.6570   22.3634 C   0  0  2  0  0  0  0  0  0  0  0  0
    7.2538  -16.9521   22.6348 N   0  0  0  0  0  0  0  0  0  0  0  0
    8.7763  -15.2717   23.4730 C   0  0  0  0  0  0  0  0  0  0  0  0
    9.4901  -14.2092   23.3894 O   0  0  0  0  0  0  0  0  0  0  0  0
    8.1155  -11.9123   18.5496 N   0  0  0  0  0  0  0  0  0  0  0  0
   10.0569  -13.6890   28.5242 C   0  0  0  0  0  0  0  0  0  0  0  0
    9.7759  -15.0803   28.2207 O   0  0  0  0  0  0  0  0  0  0  0  0
   10.1480  -15.8730   29.0969 C   0  0  0  0  0  0  0  0  0  0  0  0
    9.1148  -15.3834   26.9722 C   0  0  1  0  0  0  0  0  0  0  0  0
    9.9101  -15.5573   25.7176 N   0  0  0  0  0  0  0  0  0  0  0  0
    8.9234  -15.9993   24.6578 C   0  0  0  0  0  0  0  0  0  0  0  0
   10.9837  -16.5511   25.7523 O   0  0  0  0  0  0  0  0  0  0  0  0
   10.6286  -17.7915   25.9098 N   0  0  0  0  0  0  0  0  0  0  0  0
   12.3740  -16.3481   25.6302 C   0  0  1  0  0  0  0  0  0  0  0  0
   13.2881  -17.4971   25.5318 C   0  0  0  0  0  0  0  0  0  0  0  0
   14.3232  -17.1654   24.5119 C   0  0  0  0  0  0  0  0  0  0  0  0
   15.0702  -15.8980   24.7094 C   0  0  0  0  0  0  0  0  0  0  0  0
   16.0855  -15.6379   23.6768 O   0  0  0  0  0  0  0  0  0  0  0  0
   15.8404  -14.8569   22.7414 C   0  0  0  0  0  0  0  0  0  0  0  0
   13.9168  -17.7728   26.8320 O   0  0  0  0  0  0  0  0  0  0  0  0
   14.7190  -18.7207   27.0170 O   0  0  0  0  0  0  0  0  0  0  0  0
   17.3249  -16.2527   23.7252 O   0  0  0  0  0  0  0  0  0  0  0  0
  1  2  1  0
  2  3  2  0
  4  5  1  0
  4  2  1  0
  6  5  1  0
  7  6  1  0
  8 10  1  0
  8  7  1  0
  8  9  1  1
 10 11  2  0
 12 13  1  0
 13 14  2  0
 15 13  1  0
 16 15  1  6
 17 16  1  0
 17 10  1  0
 18 16  1  0
 18 19  2  0
 20 18  1  0
 21 20  1  0
 21 22  1  1
 22 23  1  0
 23 24  1  0
 24 28  1  0
 25 24  2  0
 26 21  1  0
 27 26  2  0
 29 26  1  0
M  END
$$$$
