RNE.pdb
     RDKit          3D

 29 28  0  0  1  0  0  0  0  0999 V2000
   12.2552  -17.1874   16.4530 N   0  0  0  0  0  0  0  0  0  0  0  0
   11.4217  -16.9430   15.3373 C   0  0  0  0  0  0  0  0  0  0  0  0
   11.5687  -17.6929   14.2763 N   0  0  0  0  0  0  0  0  0  0  0  0
   10.4393  -15.9322   15.3069 N   0  0  0  0  0  0  0  0  0  0  0  0
   10.2061  -15.0901   16.4879 C   0  0  0  0  0  0  0  0  0  0  0  0
    9.4905  -15.8900   17.5607 C   0  0  0  0  0  0  0  0  0  0  0  0
    8.0314  -15.6236   17.5940 C   0  0  0  0  0  0  0  0  0  0  0  0
    7.5969  -14.4652   18.4617 C   0  0  2  0  0  0  0  0  0  0  0  0
    8.1932  -13.2820   17.8470 N   0  0  0  0  0  0  0  0  0  0  0  0
    8.0283  -14.5884   19.8745 C   0  0  0  0  0  0  0  0  0  0  0  0
    8.9430  -13.8210   20.3430 O   0  0  0  0  0  0  0  0  0  0  0  0
   11.0291  -17.5204   13.4230 N   0  0  0  0  0  0  0  0  0  0  0  0
    4.8818  -17.0854   21.8616 C   0  0  0  0  0  0  0  0  0  0  0  0
    5.7168  -16.7162   22.9900 O   0  0  0  0  0  0  0  0  0  0  0  0
    5.7277  -17.5519   23.9044 C   0  0  0  0  0  0  0  0  0  0  0  0
    6.4227  -15.4570   22.9298 C   0  0  1  0  0  0  0  0  0  0  0  0
    7.7604  -15.3702   22.2666 N   0  0  0  0  0  0  0  0  0  0  0  0
    7.4983  -15.5105   20.7822 C   0  0  0  0  0  0  0  0  0  0  0  0
    8.7427  -16.3913   22.6321 O   0  0  0  0  0  0  0  0  0  0  0  0
    9.2024  -17.1332   21.6688 N   0  0  0  0  0  0  0  0  0  0  0  0
    9.2746  -16.6840   23.9051 C   0  0  1  0  0  0  0  0  0  0  0  0
   10.3885  -17.6352   24.0455 C   0  0  0  0  0  0  0  0  0  0  0  0
   11.5470  -17.0909   23.2816 C   0  0  0  0  0  0  0  0  0  0  0  0
   12.8199  -17.8491   23.3727 C   0  0  0  0  0  0  0  0  0  0  0  0
   13.9510  -17.1979   22.6935 O   0  0  0  0  0  0  0  0  0  0  0  0
   14.6889  -16.4161   23.3173 C   0  0  0  0  0  0  0  0  0  0  0  0
   10.7437  -17.8130   25.4611 O   0  0  0  0  0  0  0  0  0  0  0  0
   10.2450  -17.1230   26.3837 O   0  0  0  0  0  0  0  0  0  0  0  0
   14.2146  -17.4404   21.3563 O   0  0  0  0  0  0  0  0  0  0  0  0
  1  2  1  0
  2  3  2  0
  4  5  1  0
  4  2  1  0
  6  5  1  0
  7  6  1  0
  8 10  1  0
  8  7  1  0
  8  9  1  6
 10 11  2  0
 12 13  1  0
 13 14  2  0
 15 13  1  0
 16 15  1  6
 17 16  1  0
 17 10  1  0
 18 16  1  0
 18 19  2  0
 20 18  1  0
 21 20  1  0
 21 22  1  1
 22 23  1  0
 23 24  1  0
 24 28  1  0
 25 24  2  0
 26 21  1  0
 27 26  2  0
 29 26  1  0
M  END
$$$$
