RNE.pdb
     RDKit          3D

 29 28  0  0  1  0  0  0  0  0999 V2000
    9.8153  -18.4709   16.3310 N   0  0  0  0  0  0  0  0  0  0  0  0
    8.7945  -18.3698   15.3579 C   0  0  0  0  0  0  0  0  0  0  0  0
    8.9922  -18.9247   14.1905 N   0  0  0  0  0  0  0  0  0  0  0  0
    7.5729  -17.7015   15.5786 N   0  0  0  0  0  0  0  0  0  0  0  0
    7.4619  -16.6926   16.6409 C   0  0  0  0  0  0  0  0  0  0  0  0
    8.4604  -15.5756   16.4001 C   0  0  0  0  0  0  0  0  0  0  0  0
    9.0138  -15.0227   17.6607 C   0  0  0  0  0  0  0  0  0  0  0  0
    8.0725  -14.1559   18.4644 C   0  0  2  0  0  0  0  0  0  0  0  0
    8.1044  -12.8494   17.8122 N   0  0  0  0  0  0  0  0  0  0  0  0
    8.4534  -14.0322   19.8916 C   0  0  0  0  0  0  0  0  0  0  0  0
    9.4243  -13.2701   20.2405 O   0  0  0  0  0  0  0  0  0  0  0  0
    8.2949  -18.8568   13.4433 N   0  0  0  0  0  0  0  0  0  0  0  0
    8.4902  -14.0694   25.2040 C   0  0  0  0  0  0  0  0  0  0  0  0
    7.2324  -13.7579   24.5501 O   0  0  0  0  0  0  0  0  0  0  0  0
    6.3647  -13.3101   25.3124 C   0  0  0  0  0  0  0  0  0  0  0  0
    7.1286  -13.9946   23.1285 C   0  0  1  0  0  0  0  0  0  0  0  0
    8.2928  -14.5415   22.3654 N   0  0  0  0  0  0  0  0  0  0  0  0
    7.8148  -14.7044   20.9382 C   0  0  0  0  0  0  0  0  0  0  0  0
    8.8123  -15.8388   22.7996 O   0  0  0  0  0  0  0  0  0  0  0  0
    8.6112  -16.8465   22.0035 N   0  0  0  0  0  0  0  0  0  0  0  0
    9.5189  -16.1529   23.9791 C   0  0  1  0  0  0  0  0  0  0  0  0
   10.4214  -17.3145   24.0191 C   0  0  0  0  0  0  0  0  0  0  0  0
   11.4744  -17.1047   22.9852 C   0  0  0  0  0  0  0  0  0  0  0  0
   12.5572  -18.1181   22.9227 C   0  0  0  0  0  0  0  0  0  0  0  0
   13.5166  -17.8979   21.8292 O   0  0  0  0  0  0  0  0  0  0  0  0
   14.6695  -18.3558   21.9070 C   0  0  0  0  0  0  0  0  0  0  0  0
   11.0286  -17.4542   25.3508 O   0  0  0  0  0  0  0  0  0  0  0  0
   11.0831  -16.5133   26.1803 O   0  0  0  0  0  0  0  0  0  0  0  0
   13.1580  -17.1818   20.6999 O   0  0  0  0  0  0  0  0  0  0  0  0
  1  2  1  0
  2  3  2  0
  4  5  1  0
  4  2  1  0
  6  5  1  0
  7  6  1  0
  8 10  1  0
  8  7  1  0
  8  9  1  6
 10 11  2  0
 12 13  1  0
 13 14  2  0
 15 13  1  0
 16 15  1  6
 17 16  1  0
 17 10  1  0
 18 16  1  0
 18 19  2  0
 20 18  1  0
 21 20  1  0
 21 22  1  1
 22 23  1  0
 23 24  1  0
 24 28  1  0
 25 24  2  0
 26 21  1  0
 27 26  2  0
 29 26  1  0
M  END
$$$$
