RNE.pdb
     RDKit          3D

 29 28  0  0  1  0  0  0  0  0999 V2000
    7.2523  -13.2351   17.5513 N   0  0  0  0  0  0  0  0  0  0  0  0
    8.5789  -12.9730   17.9645 C   0  0  0  0  0  0  0  0  0  0  0  0
    8.8566  -11.7901   18.4475 N   0  0  0  0  0  0  0  0  0  0  0  0
    9.6203  -13.9198   17.8832 N   0  0  0  0  0  0  0  0  0  0  0  0
    9.3403  -15.3480   18.0842 C   0  0  0  0  0  0  0  0  0  0  0  0
    8.4638  -15.5362   19.3085 C   0  0  0  0  0  0  0  0  0  0  0  0
    8.2684  -16.9651   19.6569 C   0  0  0  0  0  0  0  0  0  0  0  0
    9.5261  -17.7386   19.9783 C   0  0  2  0  0  0  0  0  0  0  0  0
    9.0705  -19.0816   20.3277 N   0  0  0  0  0  0  0  0  0  0  0  0
   10.3145  -17.1534   21.0888 C   0  0  0  0  0  0  0  0  0  0  0  0
   10.9021  -16.0228   20.9421 O   0  0  0  0  0  0  0  0  0  0  0  0
    9.8163  -11.5243   18.6872 N   0  0  0  0  0  0  0  0  0  0  0  0
   12.0844  -18.7060   26.7605 C   0  0  0  0  0  0  0  0  0  0  0  0
   11.8455  -17.5975   25.8546 O   0  0  0  0  0  0  0  0  0  0  0  0
   12.3647  -16.5316   26.2135 C   0  0  0  0  0  0  0  0  0  0  0  0
   11.0547  -17.8454   24.6710 C   0  0  2  0  0  0  0  0  0  0  0  0
   11.3351  -17.1017   23.4041 N   0  0  0  0  0  0  0  0  0  0  0  0
   10.4786  -17.7549   22.3403 C   0  0  0  0  0  0  0  0  0  0  0  0
   12.7166  -17.1223   22.9219 O   0  0  0  0  0  0  0  0  0  0  0  0
   13.1851  -18.2717   22.5357 N   0  0  0  0  0  0  0  0  0  0  0  0
   13.6247  -16.0491   22.8095 C   0  0  1  0  0  0  0  0  0  0  0  0
   14.9743  -16.2700   22.2661 C   0  0  0  0  0  0  0  0  0  0  0  0
   15.1879  -15.2821   21.1705 C   0  0  0  0  0  0  0  0  0  0  0  0
   16.5623  -15.1878   20.6178 C   0  0  0  0  0  0  0  0  0  0  0  0
   16.7120  -14.1720   19.5639 O   0  0  0  0  0  0  0  0  0  0  0  0
   16.1531  -13.0675   19.6758 C   0  0  0  0  0  0  0  0  0  0  0  0
   15.9902  -16.1018   23.3155 O   0  0  0  0  0  0  0  0  0  0  0  0
   15.7319  -15.6252   24.4480 O   0  0  0  0  0  0  0  0  0  0  0  0
   17.4725  -14.4235   18.4347 O   0  0  0  0  0  0  0  0  0  0  0  0
  1  2  1  0
  2  3  2  0
  4  5  1  0
  4  2  1  0
  6  5  1  0
  7  6  1  0
  8 10  1  0
  8  7  1  0
  8  9  1  1
 10 11  2  0
 12 13  1  0
 13 14  2  0
 15 13  1  0
 16 15  1  1
 17 16  1  0
 17 10  1  0
 18 16  1  0
 18 19  2  0
 20 18  1  0
 21 20  1  0
 21 22  1  1
 22 23  1  0
 23 24  1  0
 24 28  1  0
 25 24  2  0
 26 21  1  0
 27 26  2  0
 29 26  1  0
M  END
$$$$
