RNE.pdb
     RDKit          3D

 29 28  0  0  1  0  0  0  0  0999 V2000
    7.5043  -13.3943   15.6851 N   0  0  0  0  0  0  0  0  0  0  0  0
    7.5609  -13.0982   17.0665 C   0  0  0  0  0  0  0  0  0  0  0  0
    6.4899  -12.6182   17.6431 N   0  0  0  0  0  0  0  0  0  0  0  0
    8.7118  -13.2926   17.8572 N   0  0  0  0  0  0  0  0  0  0  0  0
    8.6165  -13.9946   19.1443 C   0  0  0  0  0  0  0  0  0  0  0  0
    7.6139  -15.1291   19.0418 C   0  0  0  0  0  0  0  0  0  0  0  0
    7.4929  -15.9000   20.3037 C   0  0  0  0  0  0  0  0  0  0  0  0
    8.5567  -16.9479   20.5353 C   0  0  2  0  0  0  0  0  0  0  0  0
    9.0134  -17.3308   19.2018 N   0  0  0  0  0  0  0  0  0  0  0  0
    8.0680  -18.1350   21.2765 C   0  0  0  0  0  0  0  0  0  0  0  0
    7.5667  -18.0062   22.4501 O   0  0  0  0  0  0  0  0  0  0  0  0
    6.4839  -12.3754   18.6382 N   0  0  0  0  0  0  0  0  0  0  0  0
    6.8217  -21.4922   18.2311 C   0  0  0  0  0  0  0  0  0  0  0  0
    6.3101  -21.2370   19.5652 O   0  0  0  0  0  0  0  0  0  0  0  0
    5.1983  -20.6911   19.5833 C   0  0  0  0  0  0  0  0  0  0  0  0
    7.1233  -21.6327   20.6921 C   0  0  2  0  0  0  0  0  0  0  0  0
    7.6537  -20.6050   21.6404 N   0  0  0  0  0  0  0  0  0  0  0  0
    8.1069  -19.4426   20.7829 C   0  0  0  0  0  0  0  0  0  0  0  0
    8.7920  -21.0017   22.4700 O   0  0  0  0  0  0  0  0  0  0  0  0
    8.5786  -21.9340   23.3502 N   0  0  0  0  0  0  0  0  0  0  0  0
   10.1134  -20.5094   22.4431 C   0  0  2  0  0  0  0  0  0  0  0  0
   11.1261  -21.0450   23.3668 C   0  0  0  0  0  0  0  0  0  0  0  0
   12.4669  -20.6695   22.8350 C   0  0  0  0  0  0  0  0  0  0  0  0
   13.6397  -21.0335   23.6689 C   0  0  0  0  0  0  0  0  0  0  0  0
   14.9294  -20.6136   23.0987 O   0  0  0  0  0  0  0  0  0  0  0  0
   15.4623  -19.5540   23.4705 C   0  0  0  0  0  0  0  0  0  0  0  0
   10.9370  -20.4975   24.7182 O   0  0  0  0  0  0  0  0  0  0  0  0
   10.3686  -19.3999   24.9386 O   0  0  0  0  0  0  0  0  0  0  0  0
   15.5709  -21.3838   22.1439 O   0  0  0  0  0  0  0  0  0  0  0  0
  1  2  1  0
  2  3  2  0
  4  5  1  0
  4  2  1  0
  6  5  1  0
  7  6  1  0
  8 10  1  0
  8  7  1  0
  8  9  1  6
 10 11  2  0
 12 13  1  0
 13 14  2  0
 15 13  1  0
 16 15  1  1
 17 16  1  0
 17 10  1  0
 18 16  1  0
 18 19  2  0
 20 18  1  0
 21 20  1  0
 21 22  1  1
 22 23  1  0
 23 24  1  0
 24 28  1  0
 25 24  2  0
 26 21  1  0
 27 26  2  0
 29 26  1  0
M  END
$$$$
