MFD.pdb
     RDKit          3D

 28 28  0  0  1  0  0  0  0  0999 V2000
    8.2669  -11.2281   19.4945 C   0  0  0  0  0  0  0  0  0  0  0  0
    7.3344  -12.5662   18.7916 S   0  0  0  0  0  0  0  0  0  0  0  0
    7.7570  -14.1690   19.3982 C   0  0  0  0  0  0  0  0  0  0  0  0
    8.2424  -14.1703   20.8056 C   0  0  0  0  0  0  0  0  0  0  0  0
    8.6027  -15.5358   21.2835 C   0  0  2  0  0  0  0  0  0  0  0  0
    7.4582  -16.4139   21.1281 N   0  0  0  0  0  0  0  0  0  0  0  0
    9.0416  -15.5111   22.7224 C   0  0  0  0  0  0  0  0  0  0  0  0
   10.1066  -14.9546   23.0941 O   0  0  0  0  0  0  0  0  0  0  0  0
    8.2631  -16.1238   23.7416 N   0  0  0  0  0  0  0  0  0  0  0  0
    8.6285  -16.0817   25.1496 C   0  0  1  0  0  0  0  0  0  0  0  0
    7.4769  -15.7834   26.0352 C   0  0  0  0  0  0  0  0  0  0  0  0
    7.2732  -14.3269   26.2042 C   0  0  0  0  0  0  0  0  0  0  0  0
    6.0961  -13.6859   25.9544 C   0  0  0  0  0  0  0  0  0  0  0  0
    6.0192  -12.3260   26.1539 C   0  0  0  0  0  0  0  0  0  0  0  0
    7.1281  -11.6122   26.6049 C   0  0  0  0  0  0  0  0  0  0  0  0
    8.3184  -12.2610   26.8573 C   0  0  0  0  0  0  0  0  0  0  0  0
    8.3799  -13.6074   26.6554 C   0  0  0  0  0  0  0  0  0  0  0  0
    9.3486  -17.3125   25.5541 C   0  0  0  0  0  0  0  0  0  0  0  0
    8.8466  -18.4594   25.5285 O   0  0  0  0  0  0  0  0  0  0  0  0
   10.7122  -17.2638   26.0154 N   0  0  0  0  0  0  0  0  0  0  0  0
   11.4443  -18.4919   26.3793 C   0  0  1  0  0  0  0  0  0  0  0  0
   12.8669  -18.2707   25.9936 C   0  0  0  0  0  0  0  0  0  0  0  0
   13.1123  -17.8169   24.6277 C   0  0  0  0  0  0  0  0  0  0  0  0
   12.6270  -18.2628   23.5728 O   0  0  0  0  0  0  0  0  0  0  0  0
   11.2607  -18.7006   27.8261 C   0  0  0  0  0  0  0  0  0  0  0  0
   11.7532  -19.7138   28.3698 O   0  0  0  0  0  0  0  0  0  0  0  0
   14.0109  -16.7401   24.4923 O   0  0  0  0  0  0  0  0  0  0  0  0
   10.5629  -17.8216   28.6228 O   0  0  0  0  0  0  0  0  0  0  0  0
  2  1  1  0
  3  4  1  0
  3  2  1  0
  5  4  1  0
  5  6  1  1
  7  8  2  0
  7  5  1  0
  9  7  1  0
 10  9  1  0
 11 12  1  0
 10 11  1  1
 12 13  2  0
 13 14  1  0
 15 14  2  0
 16 15  1  0
 17 12  1  0
 17 16  2  0
 18 20  1  0
 18 10  1  0
 19 18  2  0
 21 20  1  0
 21 25  1  0
 21 22  1  1
 23 22  1  0
 24 23  2  0
 25 28  1  0
 26 25  2  0
 27 23  1  0
M  END
$$$$
