MFD.pdb
     RDKit          3D

 28 28  0  0  1  0  0  0  0  0999 V2000
    5.9104  -20.1636   17.2357 C   0  0  0  0  0  0  0  0  0  0  0  0
    6.9864  -19.7437   18.5848 S   0  0  0  0  0  0  0  0  0  0  0  0
    7.7138  -18.1385   18.4869 C   0  0  0  0  0  0  0  0  0  0  0  0
    8.2278  -17.6311   19.7888 C   0  0  0  0  0  0  0  0  0  0  0  0
    8.7014  -16.2200   19.7041 C   0  0  2  0  0  0  0  0  0  0  0  0
    9.9304  -16.1737   18.9343 N   0  0  0  0  0  0  0  0  0  0  0  0
    8.9287  -15.6386   21.0731 C   0  0  0  0  0  0  0  0  0  0  0  0
   10.0296  -15.7360   21.6738 O   0  0  0  0  0  0  0  0  0  0  0  0
    7.8966  -14.9437   21.7600 N   0  0  0  0  0  0  0  0  0  0  0  0
    8.0267  -14.4941   23.1379 C   0  0  1  0  0  0  0  0  0  0  0  0
    6.8853  -13.6573   23.5812 C   0  0  0  0  0  0  0  0  0  0  0  0
    6.9929  -13.2898   25.0113 C   0  0  0  0  0  0  0  0  0  0  0  0
    6.1921  -13.7947   25.9923 C   0  0  0  0  0  0  0  0  0  0  0  0
    6.3877  -13.3860   27.2922 C   0  0  0  0  0  0  0  0  0  0  0  0
    7.3898  -12.4689   27.6035 C   0  0  0  0  0  0  0  0  0  0  0  0
    8.1994  -11.9584   26.6108 C   0  0  0  0  0  0  0  0  0  0  0  0
    7.9943  -12.3719   25.3285 C   0  0  0  0  0  0  0  0  0  0  0  0
    8.2812  -15.6329   24.0521 C   0  0  0  0  0  0  0  0  0  0  0  0
    7.4991  -16.5989   24.2040 O   0  0  0  0  0  0  0  0  0  0  0  0
    9.4809  -15.7007   24.8461 N   0  0  0  0  0  0  0  0  0  0  0  0
    9.8550  -16.9312   25.5691 C   0  0  1  0  0  0  0  0  0  0  0  0
   11.2047  -17.3238   25.0733 C   0  0  0  0  0  0  0  0  0  0  0  0
   11.8314  -18.4729   25.7203 C   0  0  0  0  0  0  0  0  0  0  0  0
   11.7162  -18.8448   26.9017 O   0  0  0  0  0  0  0  0  0  0  0  0
    9.8336  -16.6188   27.0087 C   0  0  0  0  0  0  0  0  0  0  0  0
    9.3018  -17.4230   27.8057 O   0  0  0  0  0  0  0  0  0  0  0  0
   12.6699  -19.2548   24.9013 O   0  0  0  0  0  0  0  0  0  0  0  0
   10.3790  -15.4673   27.5292 O   0  0  0  0  0  0  0  0  0  0  0  0
  2  1  1  0
  3  4  1  0
  3  2  1  0
  5  4  1  0
  5  6  1  6
  7  8  2  0
  7  5  1  0
  9  7  1  0
 10  9  1  0
 11 12  1  0
 10 11  1  1
 12 13  2  0
 13 14  1  0
 15 14  2  0
 16 15  1  0
 17 12  1  0
 17 16  2  0
 18 20  1  0
 18 10  1  0
 19 18  2  0
 21 20  1  0
 21 25  1  0
 21 22  1  6
 23 22  1  0
 24 23  2  0
 25 28  1  0
 26 25  2  0
 27 23  1  0
M  END
$$$$
