MFD.pdb
     RDKit          3D

 28 28  0  0  1  0  0  0  0  0999 V2000
    7.4792  -21.6335   21.0816 C   0  0  0  0  0  0  0  0  0  0  0  0
    8.0025  -21.1191   19.4642 S   0  0  0  0  0  0  0  0  0  0  0  0
    8.1435  -19.3732   19.2462 C   0  0  0  0  0  0  0  0  0  0  0  0
    8.1609  -18.6076   20.5228 C   0  0  0  0  0  0  0  0  0  0  0  0
    8.1577  -17.1329   20.3036 C   0  0  2  0  0  0  0  0  0  0  0  0
    9.0814  -16.8069   19.2332 N   0  0  0  0  0  0  0  0  0  0  0  0
    8.5411  -16.3949   21.5575 C   0  0  0  0  0  0  0  0  0  0  0  0
    9.7341  -16.1071   21.8336 O   0  0  0  0  0  0  0  0  0  0  0  0
    7.5604  -15.9837   22.5004 N   0  0  0  0  0  0  0  0  0  0  0  0
    7.8967  -15.3518   23.7674 C   0  0  1  0  0  0  0  0  0  0  0  0
    6.7539  -14.6228   24.3690 C   0  0  0  0  0  0  0  0  0  0  0  0
    7.1801  -13.7601   25.4941 C   0  0  0  0  0  0  0  0  0  0  0  0
    8.3937  -13.8501   26.1087 C   0  0  0  0  0  0  0  0  0  0  0  0
    8.6857  -12.9891   27.1424 C   0  0  0  0  0  0  0  0  0  0  0  0
    7.7552  -12.0379   27.5566 C   0  0  0  0  0  0  0  0  0  0  0  0
    6.5278  -11.9474   26.9347 C   0  0  0  0  0  0  0  0  0  0  0  0
    6.2525  -12.8062   25.9129 C   0  0  0  0  0  0  0  0  0  0  0  0
    8.5048  -16.3237   24.7069 C   0  0  0  0  0  0  0  0  0  0  0  0
    7.8661  -17.2288   25.2908 O   0  0  0  0  0  0  0  0  0  0  0  0
    9.9112  -16.2860   25.0156 N   0  0  0  0  0  0  0  0  0  0  0  0
   10.5492  -17.3437   25.8223 C   0  0  1  0  0  0  0  0  0  0  0  0
   12.0040  -17.3067   25.5006 C   0  0  0  0  0  0  0  0  0  0  0  0
   12.3786  -17.6179   24.1241 C   0  0  0  0  0  0  0  0  0  0  0  0
   11.9412  -18.5278   23.3975 O   0  0  0  0  0  0  0  0  0  0  0  0
   10.2598  -17.0522   27.2372 C   0  0  0  0  0  0  0  0  0  0  0  0
    9.7869  -15.9379   27.5524 O   0  0  0  0  0  0  0  0  0  0  0  0
   13.3573  -16.7814   23.5517 O   0  0  0  0  0  0  0  0  0  0  0  0
   10.4871  -17.9602   28.2463 O   0  0  0  0  0  0  0  0  0  0  0  0
  2  1  1  0
  3  4  1  0
  3  2  1  0
  5  4  1  0
  5  6  1  6
  7  8  2  0
  7  5  1  0
  9  7  1  0
 10  9  1  0
 11 12  1  0
 10 11  1  1
 12 13  2  0
 13 14  1  0
 15 14  2  0
 16 15  1  0
 17 12  1  0
 17 16  2  0
 18 20  1  0
 18 10  1  0
 19 18  2  0
 21 20  1  0
 21 25  1  0
 21 22  1  1
 23 22  1  0
 24 23  2  0
 25 28  1  0
 26 25  2  0
 27 23  1  0
M  END
$$$$
