MFD.pdb
     RDKit          3D

 28 28  0  0  1  0  0  0  0  0999 V2000
    8.2640  -11.7657   18.0577 C   0  0  0  0  0  0  0  0  0  0  0  0
    7.9619  -13.2638   17.1529 S   0  0  0  0  0  0  0  0  0  0  0  0
    8.1050  -14.7476   18.0981 C   0  0  0  0  0  0  0  0  0  0  0  0
    8.9992  -14.6222   19.2819 C   0  0  0  0  0  0  0  0  0  0  0  0
    9.0588  -15.8757   20.0869 C   0  0  2  0  0  0  0  0  0  0  0  0
    7.8401  -16.6352   19.8796 N   0  0  0  0  0  0  0  0  0  0  0  0
    9.2360  -15.5752   21.5505 C   0  0  0  0  0  0  0  0  0  0  0  0
   10.3567  -15.3043   22.0533 O   0  0  0  0  0  0  0  0  0  0  0  0
    8.1310  -15.5839   22.4444 N   0  0  0  0  0  0  0  0  0  0  0  0
    8.2372  -15.1784   23.8378 C   0  0  1  0  0  0  0  0  0  0  0  0
    7.0494  -14.4272   24.3115 C   0  0  0  0  0  0  0  0  0  0  0  0
    7.2990  -13.7615   25.6101 C   0  0  0  0  0  0  0  0  0  0  0  0
    8.2884  -12.8479   25.8226 C   0  0  0  0  0  0  0  0  0  0  0  0
    8.4234  -12.2864   27.0722 C   0  0  0  0  0  0  0  0  0  0  0  0
    7.5618  -12.6453   28.1072 C   0  0  0  0  0  0  0  0  0  0  0  0
    6.5614  -13.5694   27.8917 C   0  0  0  0  0  0  0  0  0  0  0  0
    6.4396  -14.1171   26.6497 C   0  0  0  0  0  0  0  0  0  0  0  0
    8.5604  -16.3329   24.7095 C   0  0  0  0  0  0  0  0  0  0  0  0
    7.7837  -17.2924   24.9196 O   0  0  0  0  0  0  0  0  0  0  0  0
    9.8267  -16.4252   25.3895 N   0  0  0  0  0  0  0  0  0  0  0  0
   10.2055  -17.6331   26.1472 C   0  0  1  0  0  0  0  0  0  0  0  0
   11.5241  -18.0764   25.6124 C   0  0  0  0  0  0  0  0  0  0  0  0
   12.1808  -19.1744   26.3161 C   0  0  0  0  0  0  0  0  0  0  0  0
   11.6508  -20.1162   26.9319 O   0  0  0  0  0  0  0  0  0  0  0  0
   10.2520  -17.2614   27.5721 C   0  0  0  0  0  0  0  0  0  0  0  0
   10.5164  -18.1343   28.4281 O   0  0  0  0  0  0  0  0  0  0  0  0
   13.5895  -19.1616   26.2921 O   0  0  0  0  0  0  0  0  0  0  0  0
   10.0156  -15.9801   28.0157 O   0  0  0  0  0  0  0  0  0  0  0  0
  2  1  1  0
  3  4  1  0
  3  2  1  0
  5  4  1  0
  5  6  1  1
  7  8  2  0
  7  5  1  0
  9  7  1  0
 10  9  1  0
 11 12  1  0
 10 11  1  1
 12 13  2  0
 13 14  1  0
 15 14  2  0
 16 15  1  0
 17 12  1  0
 17 16  2  0
 18 20  1  0
 18 10  1  0
 19 18  2  0
 21 20  1  0
 21 25  1  0
 21 22  1  6
 23 22  1  0
 24 23  2  0
 25 28  1  0
 26 25  2  0
 27 23  1  0
M  END
$$$$
