MFD.pdb
     RDKit          3D

 28 28  0  0  1  0  0  0  0  0999 V2000
    7.5214  -11.5585   19.0625 C   0  0  0  0  0  0  0  0  0  0  0  0
    7.1912  -13.0255   18.1175 S   0  0  0  0  0  0  0  0  0  0  0  0
    7.5386  -14.5428   18.9497 C   0  0  0  0  0  0  0  0  0  0  0  0
    8.5959  -14.4283   19.9916 C   0  0  0  0  0  0  0  0  0  0  0  0
    8.8795  -15.7296   20.6617 C   0  0  2  0  0  0  0  0  0  0  0  0
    7.6642  -16.5212   20.7021 N   0  0  0  0  0  0  0  0  0  0  0  0
    9.4052  -15.5211   22.0560 C   0  0  0  0  0  0  0  0  0  0  0  0
   10.5595  -15.0757   22.2828 O   0  0  0  0  0  0  0  0  0  0  0  0
    8.6117  -15.8220   23.1961 N   0  0  0  0  0  0  0  0  0  0  0  0
    9.0825  -15.6331   24.5600 C   0  0  1  0  0  0  0  0  0  0  0  0
    7.9986  -15.2460   25.4953 C   0  0  0  0  0  0  0  0  0  0  0  0
    8.5313  -14.7891   26.7989 C   0  0  0  0  0  0  0  0  0  0  0  0
    8.6557  -13.4795   27.1568 C   0  0  0  0  0  0  0  0  0  0  0  0
    9.1583  -13.1706   28.4006 C   0  0  0  0  0  0  0  0  0  0  0  0
    9.5353  -14.1810   29.2834 C   0  0  0  0  0  0  0  0  0  0  0  0
    9.4094  -15.5054   28.9208 C   0  0  0  0  0  0  0  0  0  0  0  0
    8.9104  -15.7963   27.6864 C   0  0  0  0  0  0  0  0  0  0  0  0
    9.8427  -16.8142   25.0337 C   0  0  0  0  0  0  0  0  0  0  0  0
    9.3564  -17.9627   25.1459 O   0  0  0  0  0  0  0  0  0  0  0  0
   11.2304  -16.7106   25.4052 N   0  0  0  0  0  0  0  0  0  0  0  0
   12.0149  -17.9010   25.7848 C   0  0  1  0  0  0  0  0  0  0  0  0
   13.4186  -17.6416   25.3560 C   0  0  0  0  0  0  0  0  0  0  0  0
   14.3757  -18.7259   25.5562 C   0  0  0  0  0  0  0  0  0  0  0  0
   14.1755  -19.8398   26.0723 O   0  0  0  0  0  0  0  0  0  0  0  0
   11.8752  -18.0735   27.2412 C   0  0  0  0  0  0  0  0  0  0  0  0
   11.8472  -17.0653   27.9811 O   0  0  0  0  0  0  0  0  0  0  0  0
   15.6876  -18.4753   25.1077 O   0  0  0  0  0  0  0  0  0  0  0  0
   11.7717  -19.3092   27.8384 O   0  0  0  0  0  0  0  0  0  0  0  0
  2  1  1  0
  3  4  1  0
  3  2  1  0
  5  4  1  0
  5  6  1  1
  7  8  2  0
  7  5  1  0
  9  7  1  0
 10  9  1  0
 11 12  1  0
 10 11  1  1
 12 13  2  0
 13 14  1  0
 15 14  2  0
 16 15  1  0
 17 12  1  0
 17 16  2  0
 18 20  1  0
 18 10  1  0
 19 18  2  0
 21 20  1  0
 21 25  1  0
 21 22  1  1
 23 22  1  0
 24 23  2  0
 25 28  1  0
 26 25  2  0
 27 23  1  0
M  END
$$$$
