MFD.pdb
     RDKit          3D

 28 28  0  0  1  0  0  0  0  0999 V2000
    8.7634  -11.2141   20.1752 C   0  0  0  0  0  0  0  0  0  0  0  0
    7.9039  -12.3272   19.0905 S   0  0  0  0  0  0  0  0  0  0  0  0
    7.8880  -14.0133   19.6122 C   0  0  0  0  0  0  0  0  0  0  0  0
    8.7014  -14.2727   20.8319 C   0  0  0  0  0  0  0  0  0  0  0  0
    8.6598  -15.7026   21.2518 C   0  0  2  0  0  0  0  0  0  0  0  0
    7.3232  -16.2248   21.0376 N   0  0  0  0  0  0  0  0  0  0  0  0
    9.0480  -15.8575   22.6972 C   0  0  0  0  0  0  0  0  0  0  0  0
   10.2352  -15.7345   23.0944 O   0  0  0  0  0  0  0  0  0  0  0  0
    8.0788  -16.1540   23.6935 N   0  0  0  0  0  0  0  0  0  0  0  0
    8.3952  -16.2124   25.1127 C   0  0  1  0  0  0  0  0  0  0  0  0
    7.2878  -15.7254   25.9706 C   0  0  0  0  0  0  0  0  0  0  0  0
    7.2851  -14.2493   26.0836 C   0  0  0  0  0  0  0  0  0  0  0  0
    8.3805  -13.5060   26.4099 C   0  0  0  0  0  0  0  0  0  0  0  0
    8.2633  -12.1362   26.4788 C   0  0  0  0  0  0  0  0  0  0  0  0
    7.0427  -11.5155   26.2191 C   0  0  0  0  0  0  0  0  0  0  0  0
    5.9352  -12.2678   25.8892 C   0  0  0  0  0  0  0  0  0  0  0  0
    6.0660  -13.6228   25.8248 C   0  0  0  0  0  0  0  0  0  0  0  0
    8.8602  -17.5645   25.5035 C   0  0  0  0  0  0  0  0  0  0  0  0
    8.5638  -18.6136   24.8875 O   0  0  0  0  0  0  0  0  0  0  0  0
    9.7081  -17.7611   26.6511 N   0  0  0  0  0  0  0  0  0  0  0  0
   10.6308  -18.9091   26.7369 C   0  0  1  0  0  0  0  0  0  0  0  0
   11.5072  -18.8430   25.5332 C   0  0  0  0  0  0  0  0  0  0  0  0
   12.6235  -19.7830   25.4833 C   0  0  0  0  0  0  0  0  0  0  0  0
   12.9869  -20.5889   26.3584 O   0  0  0  0  0  0  0  0  0  0  0  0
   11.3730  -18.7827   28.0032 C   0  0  0  0  0  0  0  0  0  0  0  0
   12.2410  -19.6344   28.2962 O   0  0  0  0  0  0  0  0  0  0  0  0
   13.3802  -19.7725   24.2949 O   0  0  0  0  0  0  0  0  0  0  0  0
   11.1557  -17.7569   28.8947 O   0  0  0  0  0  0  0  0  0  0  0  0
  2  1  1  0
  3  4  1  0
  3  2  1  0
  5  4  1  0
  5  6  1  1
  7  8  2  0
  7  5  1  0
  9  7  1  0
 10  9  1  0
 11 12  1  0
 10 11  1  1
 12 13  2  0
 13 14  1  0
 15 14  2  0
 16 15  1  0
 17 12  1  0
 17 16  2  0
 18 20  1  0
 18 10  1  0
 19 18  2  0
 21 20  1  0
 21 25  1  0
 21 22  1  6
 23 22  1  0
 24 23  2  0
 25 28  1  0
 26 25  2  0
 27 23  1  0
M  END
$$$$
