MFD.pdb
     RDKit          3D

 28 28  0  0  1  0  0  0  0  0999 V2000
    8.2672  -11.3670   19.5426 C   0  0  0  0  0  0  0  0  0  0  0  0
    7.1151  -12.6613   19.1531 S   0  0  0  0  0  0  0  0  0  0  0  0
    7.4903  -14.2326   19.8642 C   0  0  0  0  0  0  0  0  0  0  0  0
    8.4815  -14.1691   20.9732 C   0  0  0  0  0  0  0  0  0  0  0  0
    8.7915  -15.5133   21.5388 C   0  0  2  0  0  0  0  0  0  0  0  0
    7.5629  -16.2754   21.6606 N   0  0  0  0  0  0  0  0  0  0  0  0
    9.4617  -15.3982   22.8809 C   0  0  0  0  0  0  0  0  0  0  0  0
   10.5779  -14.8384   23.0325 O   0  0  0  0  0  0  0  0  0  0  0  0
    8.8570  -15.9239   24.0548 N   0  0  0  0  0  0  0  0  0  0  0  0
    9.4010  -15.7123   25.3878 C   0  0  1  0  0  0  0  0  0  0  0  0
    8.3523  -15.4514   26.4035 C   0  0  0  0  0  0  0  0  0  0  0  0
    7.8701  -14.0527   26.3525 C   0  0  0  0  0  0  0  0  0  0  0  0
    8.6845  -12.9610   26.4153 C   0  0  0  0  0  0  0  0  0  0  0  0
    8.1254  -11.7047   26.3511 C   0  0  0  0  0  0  0  0  0  0  0  0
    6.7464  -11.5484   26.2238 C   0  0  0  0  0  0  0  0  0  0  0  0
    5.9233  -12.6528   26.1605 C   0  0  0  0  0  0  0  0  0  0  0  0
    6.4905  -13.8904   26.2252 C   0  0  0  0  0  0  0  0  0  0  0  0
   10.3050  -16.8195   25.7804 C   0  0  0  0  0  0  0  0  0  0  0  0
   10.7034  -17.0184   26.9507 O   0  0  0  0  0  0  0  0  0  0  0  0
   10.7958  -17.7640   24.8101 N   0  0  0  0  0  0  0  0  0  0  0  0
   11.6930  -18.8687   25.1991 C   0  0  1  0  0  0  0  0  0  0  0  0
   11.0108  -20.1328   24.8013 C   0  0  0  0  0  0  0  0  0  0  0  0
   10.0413  -20.6793   25.7465 C   0  0  0  0  0  0  0  0  0  0  0  0
   10.2363  -21.0452   26.9193 O   0  0  0  0  0  0  0  0  0  0  0  0
   12.9757  -18.6582   24.5056 C   0  0  0  0  0  0  0  0  0  0  0  0
   12.9950  -18.0328   23.4225 O   0  0  0  0  0  0  0  0  0  0  0  0
    8.7227  -20.8063   25.2667 O   0  0  0  0  0  0  0  0  0  0  0  0
   14.1739  -19.1227   24.9984 O   0  0  0  0  0  0  0  0  0  0  0  0
  2  1  1  0
  3  4  1  0
  3  2  1  0
  5  4  1  0
  5  6  1  1
  7  8  2  0
  7  5  1  0
  9  7  1  0
 10  9  1  0
 11 12  1  0
 10 11  1  1
 12 13  2  0
 13 14  1  0
 15 14  2  0
 16 15  1  0
 17 12  1  0
 17 16  2  0
 18 20  1  0
 18 10  1  0
 19 18  2  0
 21 20  1  0
 21 25  1  0
 21 22  1  6
 23 22  1  0
 24 23  2  0
 25 28  1  0
 26 25  2  0
 27 23  1  0
M  END
$$$$
