MFD.pdb
     RDKit          3D

 28 28  0  0  1  0  0  0  0  0999 V2000
    9.1862  -21.1081   20.4068 C   0  0  0  0  0  0  0  0  0  0  0  0
    7.9977  -19.7887   20.3762 S   0  0  0  0  0  0  0  0  0  0  0  0
    8.6834  -18.1650   20.4702 C   0  0  0  0  0  0  0  0  0  0  0  0
    7.6663  -17.0791   20.4162 C   0  0  0  0  0  0  0  0  0  0  0  0
    8.2799  -15.7207   20.4525 C   0  0  2  0  0  0  0  0  0  0  0  0
    9.2817  -15.6208   19.4077 N   0  0  0  0  0  0  0  0  0  0  0  0
    8.9034  -15.4403   21.7927 C   0  0  0  0  0  0  0  0  0  0  0  0
   10.1350  -15.5806   22.0071 O   0  0  0  0  0  0  0  0  0  0  0  0
    8.1197  -14.9985   22.8930 N   0  0  0  0  0  0  0  0  0  0  0  0
    8.6318  -14.9325   24.2535 C   0  0  1  0  0  0  0  0  0  0  0  0
    7.6653  -14.3316   25.2045 C   0  0  0  0  0  0  0  0  0  0  0  0
    8.2688  -14.1088   26.5378 C   0  0  0  0  0  0  0  0  0  0  0  0
    8.8318  -12.9322   26.9347 C   0  0  0  0  0  0  0  0  0  0  0  0
    9.3575  -12.8363   28.2034 C   0  0  0  0  0  0  0  0  0  0  0  0
    9.3159  -13.9256   29.0718 C   0  0  0  0  0  0  0  0  0  0  0  0
    8.7465  -15.1154   28.6698 C   0  0  0  0  0  0  0  0  0  0  0  0
    8.2301  -15.1958   27.4111 C   0  0  0  0  0  0  0  0  0  0  0  0
    9.1225  -16.2557   24.7068 C   0  0  0  0  0  0  0  0  0  0  0  0
    8.6443  -17.3490   24.3272 O   0  0  0  0  0  0  0  0  0  0  0  0
   10.2134  -16.3690   25.6404 N   0  0  0  0  0  0  0  0  0  0  0  0
   10.9582  -17.6323   25.8019 C   0  0  1  0  0  0  0  0  0  0  0  0
   11.6893  -17.8629   24.5237 C   0  0  0  0  0  0  0  0  0  0  0  0
   12.6678  -18.9466   24.5151 C   0  0  0  0  0  0  0  0  0  0  0  0
   12.4988  -20.1348   24.8421 O   0  0  0  0  0  0  0  0  0  0  0  0
   11.8526  -17.4701   26.9613 C   0  0  0  0  0  0  0  0  0  0  0  0
   11.8825  -18.3550   27.8449 O   0  0  0  0  0  0  0  0  0  0  0  0
   13.9628  -18.5991   24.0822 O   0  0  0  0  0  0  0  0  0  0  0  0
   12.6710  -16.3753   27.1232 O   0  0  0  0  0  0  0  0  0  0  0  0
  2  1  1  0
  3  4  1  0
  3  2  1  0
  5  4  1  0
  5  6  1  6
  7  8  2  0
  7  5  1  0
  9  7  1  0
 10  9  1  0
 11 12  1  0
 10 11  1  1
 12 13  2  0
 13 14  1  0
 15 14  2  0
 16 15  1  0
 17 12  1  0
 17 16  2  0
 18 20  1  0
 18 10  1  0
 19 18  2  0
 21 20  1  0
 21 25  1  0
 21 22  1  6
 23 22  1  0
 24 23  2  0
 25 28  1  0
 26 25  2  0
 27 23  1  0
M  END
$$$$
