MFD.pdb
     RDKit          3D

 28 28  0  0  1  0  0  0  0  0999 V2000
    6.2692  -20.3316   20.7921 C   0  0  0  0  0  0  0  0  0  0  0  0
    7.4867  -20.4900   19.5088 S   0  0  0  0  0  0  0  0  0  0  0  0
    8.2504  -18.9774   19.0145 C   0  0  0  0  0  0  0  0  0  0  0  0
    8.7644  -18.1642   20.1508 C   0  0  0  0  0  0  0  0  0  0  0  0
    8.7471  -16.7022   19.8595 C   0  0  2  0  0  0  0  0  0  0  0  0
    9.7772  -16.3970   18.8844 N   0  0  0  0  0  0  0  0  0  0  0  0
    8.9663  -15.8950   21.1102 C   0  0  0  0  0  0  0  0  0  0  0  0
   10.1142  -15.6394   21.5565 O   0  0  0  0  0  0  0  0  0  0  0  0
    7.8721  -15.3775   21.8553 N   0  0  0  0  0  0  0  0  0  0  0  0
    8.0294  -14.7445   23.1561 C   0  0  1  0  0  0  0  0  0  0  0  0
    6.8269  -13.9853   23.5768 C   0  0  0  0  0  0  0  0  0  0  0  0
    6.9861  -13.4040   24.9290 C   0  0  0  0  0  0  0  0  0  0  0  0
    7.8415  -12.3849   25.2266 C   0  0  0  0  0  0  0  0  0  0  0  0
    7.9014  -11.9179   26.5202 C   0  0  0  0  0  0  0  0  0  0  0  0
    7.0997  -12.4774   27.5134 C   0  0  0  0  0  0  0  0  0  0  0  0
    6.2348  -13.5082   27.2118 C   0  0  0  0  0  0  0  0  0  0  0  0
    6.1861  -13.9604   25.9271 C   0  0  0  0  0  0  0  0  0  0  0  0
    8.4665  -15.7234   24.1798 C   0  0  0  0  0  0  0  0  0  0  0  0
    7.8646  -16.7926   24.4302 O   0  0  0  0  0  0  0  0  0  0  0  0
    9.6470  -15.4986   24.9738 N   0  0  0  0  0  0  0  0  0  0  0  0
   10.3066  -16.6011   25.6989 C   0  0  1  0  0  0  0  0  0  0  0  0
   11.6922  -16.6987   25.1586 C   0  0  0  0  0  0  0  0  0  0  0  0
   12.5663  -17.6938   25.7730 C   0  0  0  0  0  0  0  0  0  0  0  0
   12.2412  -18.7317   26.3765 O   0  0  0  0  0  0  0  0  0  0  0  0
   10.2649  -16.2703   27.1340 C   0  0  0  0  0  0  0  0  0  0  0  0
   10.3256  -15.0734   27.4923 O   0  0  0  0  0  0  0  0  0  0  0  0
   13.9488  -17.4434   25.6669 O   0  0  0  0  0  0  0  0  0  0  0  0
   10.1604  -17.2285   28.1165 O   0  0  0  0  0  0  0  0  0  0  0  0
  2  1  1  0
  3  4  1  0
  3  2  1  0
  5  4  1  0
  5  6  1  6
  7  8  2  0
  7  5  1  0
  9  7  1  0
 10  9  1  0
 11 12  1  0
 10 11  1  1
 12 13  2  0
 13 14  1  0
 15 14  2  0
 16 15  1  0
 17 12  1  0
 17 16  2  0
 18 20  1  0
 18 10  1  0
 19 18  2  0
 21 20  1  0
 21 25  1  0
 21 22  1  6
 23 22  1  0
 24 23  2  0
 25 28  1  0
 26 25  2  0
 27 23  1  0
M  END
$$$$
