QGY.pdb
     RDKit          3D

 26 26  0  0  1  0  0  0  0  0999 V2000
   22.1942  -16.3753  -18.8429 N   0  0  0  0  0  0  0  0  0  0  0  0
   21.8565  -17.4875  -19.6667 C   0  0  0  0  0  0  0  0  0  0  0  0
   21.9948  -17.3841  -20.8991 O   0  0  0  0  0  0  0  0  0  0  0  0
   21.3563  -18.7312  -19.0707 C   0  0  0  0  0  0  0  0  0  0  0  0
   21.2040  -18.6129  -17.5967 C   0  0  0  0  0  0  0  0  0  0  0  0
   22.4950  -18.6055  -16.8148 C   0  0  2  0  0  0  0  0  0  0  0  0
   23.3159  -19.7650  -17.1454 N   0  0  0  0  0  0  0  0  0  0  0  0
   22.0904  -18.7199  -15.3749 C   0  0  0  0  0  0  0  0  0  0  0  0
   21.1780  -17.9879  -14.9289 O   0  0  0  0  0  0  0  0  0  0  0  0
   22.7386  -19.6524  -14.5244 N   0  0  0  0  0  0  0  0  0  0  0  0
   22.3921  -19.7682  -13.1216 C   0  0  0  0  0  0  0  0  0  0  0  0
   21.5083  -20.9293  -12.9367 C   0  0  0  0  0  0  0  0  0  0  0  0
   21.5299  -21.9019  -13.7635 O   0  0  0  0  0  0  0  0  0  0  0  0
   16.1105  -26.6353   -8.7046 O   0  0  0  0  0  0  0  0  0  0  0  0
   16.8716  -25.5348   -9.0861 C   0  0  0  0  0  0  0  0  0  0  0  0
   16.3246  -24.4583   -9.7617 C   0  0  0  0  0  0  0  0  0  0  0  0
   17.0774  -23.3688  -10.1395 C   0  0  0  0  0  0  0  0  0  0  0  0
   18.4406  -23.3229   -9.8434 C   0  0  0  0  0  0  0  0  0  0  0  0
   19.2495  -22.1592  -10.2500 C   0  0  0  0  0  0  0  0  0  0  0  0
   19.7968  -22.2728  -11.6559 C   0  0  2  0  0  0  0  0  0  0  0  0
   20.5924  -21.0585  -11.8627 N   0  0  0  0  0  0  0  0  0  0  0  0
   18.7503  -22.3932  -12.6837 C   0  0  0  0  0  0  0  0  0  0  0  0
   18.1868  -21.3492  -13.1024 O   0  0  0  0  0  0  0  0  0  0  0  0
   18.9714  -24.3931   -9.1748 C   0  0  0  0  0  0  0  0  0  0  0  0
   18.2133  -25.4751   -8.8021 C   0  0  0  0  0  0  0  0  0  0  0  0
   18.3439  -23.6010  -13.2245 O   0  0  0  0  0  0  0  0  0  0  0  0
  2  1  1  0
  2  3  2  0
  4  2  1  0
  5  4  1  0
  6  5  1  0
  6  7  1  6
  8 10  1  0
  8  6  1  0
  9  8  2  0
 11 12  1  0
 11 10  1  0
 12 21  1  0
 13 12  2  0
 15 25  2  0
 15 14  1  0
 16 15  1  0
 17 18  1  0
 17 16  2  0
 18 24  2  0
 19 18  1  0
 20 19  1  1
 20 22  1  0
 21 20  1  0
 22 23  2  0
 22 26  1  0
 24 25  1  0
M  END
$$$$
