QGY.pdb
     RDKit          3D

 26 26  0  0  1  0  0  0  0  0999 V2000
   21.5886  -19.0093  -14.3719 N   0  0  0  0  0  0  0  0  0  0  0  0
   21.6051  -20.0241  -13.3720 C   0  0  0  0  0  0  0  0  0  0  0  0
   20.5285  -20.3725  -12.8541 O   0  0  0  0  0  0  0  0  0  0  0  0
   22.8691  -20.6464  -12.9630 C   0  0  0  0  0  0  0  0  0  0  0  0
   24.0288  -20.0662  -13.6900 C   0  0  0  0  0  0  0  0  0  0  0  0
   24.2225  -20.5705  -15.0994 C   0  0  2  0  0  0  0  0  0  0  0  0
   24.1022  -22.0228  -15.1588 N   0  0  0  0  0  0  0  0  0  0  0  0
   25.6317  -20.2073  -15.4632 C   0  0  0  0  0  0  0  0  0  0  0  0
   26.0292  -19.0314  -15.2999 O   0  0  0  0  0  0  0  0  0  0  0  0
   26.5082  -21.1913  -15.9892 N   0  0  0  0  0  0  0  0  0  0  0  0
   27.8661  -20.8672  -16.3794 C   0  0  0  0  0  0  0  0  0  0  0  0
   28.5123  -22.0709  -16.9244 C   0  0  0  0  0  0  0  0  0  0  0  0
   29.7252  -22.0352  -17.3214 O   0  0  0  0  0  0  0  0  0  0  0  0
   30.4314  -30.6555  -17.7136 O   0  0  0  0  0  0  0  0  0  0  0  0
   30.0433  -29.3612  -17.3819 C   0  0  0  0  0  0  0  0  0  0  0  0
   28.8032  -29.0800  -16.8366 C   0  0  0  0  0  0  0  0  0  0  0  0
   28.4186  -27.7992  -16.5080 C   0  0  0  0  0  0  0  0  0  0  0  0
   29.2897  -26.7298  -16.7218 C   0  0  0  0  0  0  0  0  0  0  0  0
   28.8789  -25.3571  -16.3743 C   0  0  0  0  0  0  0  0  0  0  0  0
   28.5462  -24.5084  -17.5817 C   0  0  2  0  0  0  0  0  0  0  0  0
   27.8636  -23.3249  -17.0489 N   0  0  0  0  0  0  0  0  0  0  0  0
   27.7004  -25.1995  -18.5682 C   0  0  0  0  0  0  0  0  0  0  0  0
   28.2500  -25.9169  -19.4434 O   0  0  0  0  0  0  0  0  0  0  0  0
   30.5139  -27.0193  -17.2618 C   0  0  0  0  0  0  0  0  0  0  0  0
   30.8888  -28.2993  -17.5863 C   0  0  0  0  0  0  0  0  0  0  0  0
   26.3193  -25.1069  -18.5911 O   0  0  0  0  0  0  0  0  0  0  0  0
  2  1  1  0
  2  3  2  0
  4  2  1  0
  5  4  1  0
  6  5  1  0
  6  7  1  1
  8 10  1  0
  8  6  1  0
  9  8  2  0
 11 12  1  0
 11 10  1  0
 12 21  1  0
 13 12  2  0
 15 25  2  0
 15 14  1  0
 16 15  1  0
 17 18  1  0
 17 16  2  0
 18 24  2  0
 19 18  1  0
 20 19  1  1
 20 22  1  0
 21 20  1  0
 22 23  2  0
 22 26  1  0
 24 25  1  0
M  END
$$$$
