QGY.pdb
     RDKit          3D

 26 26  0  0  1  0  0  0  0  0999 V2000
   19.7421  -14.3479  -16.3976 N   0  0  0  0  0  0  0  0  0  0  0  0
   18.6145  -14.9276  -17.0475 C   0  0  0  0  0  0  0  0  0  0  0  0
   17.7003  -15.4035  -16.3501 O   0  0  0  0  0  0  0  0  0  0  0  0
   18.5343  -14.9605  -18.5120 C   0  0  0  0  0  0  0  0  0  0  0  0
   19.7144  -14.3128  -19.1426 C   0  0  0  0  0  0  0  0  0  0  0  0
   19.4771  -12.9199  -19.6733 C   0  0  2  0  0  0  0  0  0  0  0  0
   19.4196  -12.9159  -21.1307 N   0  0  0  0  0  0  0  0  0  0  0  0
   20.6774  -12.1234  -19.2551 C   0  0  0  0  0  0  0  0  0  0  0  0
   21.7628  -12.2767  -19.8599 O   0  0  0  0  0  0  0  0  0  0  0  0
   20.5822  -11.2020  -18.1803 N   0  0  0  0  0  0  0  0  0  0  0  0
   21.7307  -10.4414  -17.7290 C   0  0  0  0  0  0  0  0  0  0  0  0
   21.3215   -9.0506  -17.4805 C   0  0  0  0  0  0  0  0  0  0  0  0
   20.1568   -8.6458  -17.8115 O   0  0  0  0  0  0  0  0  0  0  0  0
   17.8144   -9.2527  -12.1335 O   0  0  0  0  0  0  0  0  0  0  0  0
   18.8046   -8.5973  -12.8585 C   0  0  0  0  0  0  0  0  0  0  0  0
   20.0628   -9.1412  -13.0471 C   0  0  0  0  0  0  0  0  0  0  0  0
   21.0433   -8.4929  -13.7646 C   0  0  0  0  0  0  0  0  0  0  0  0
   20.7860   -7.2438  -14.3317 C   0  0  0  0  0  0  0  0  0  0  0  0
   21.8352   -6.5460  -15.0972 C   0  0  0  0  0  0  0  0  0  0  0  0
   21.6973   -6.7166  -16.5941 C   0  0  2  0  0  0  0  0  0  0  0  0
   22.1580   -8.0802  -16.8741 N   0  0  0  0  0  0  0  0  0  0  0  0
   22.4717   -5.7339  -17.3692 C   0  0  0  0  0  0  0  0  0  0  0  0
   22.1211   -4.5260  -17.3420 O   0  0  0  0  0  0  0  0  0  0  0  0
   19.5381   -6.7149  -14.1388 C   0  0  0  0  0  0  0  0  0  0  0  0
   18.5667   -7.3684  -13.4221 C   0  0  0  0  0  0  0  0  0  0  0  0
   23.5767   -6.0627  -18.1357 O   0  0  0  0  0  0  0  0  0  0  0  0
  2  1  1  0
  2  3  2  0
  4  2  1  0
  5  4  1  0
  6  5  1  0
  6  7  1  6
  8 10  1  0
  8  6  1  0
  9  8  2  0
 11 12  1  0
 11 10  1  0
 12 21  1  0
 13 12  2  0
 15 25  2  0
 15 14  1  0
 16 15  1  0
 17 18  1  0
 17 16  2  0
 18 24  2  0
 19 18  1  0
 20 19  1  1
 20 22  1  0
 21 20  1  0
 22 23  2  0
 22 26  1  0
 24 25  1  0
M  END
$$$$
