QGY.pdb
     RDKit          3D

 26 26  0  0  1  0  0  0  0  0999 V2000
   17.5794  -19.0315  -16.0771 N   0  0  0  0  0  0  0  0  0  0  0  0
   17.3754  -20.2709  -15.4045 C   0  0  0  0  0  0  0  0  0  0  0  0
   16.3460  -20.4194  -14.7214 O   0  0  0  0  0  0  0  0  0  0  0  0
   18.3617  -21.3510  -15.5180 C   0  0  0  0  0  0  0  0  0  0  0  0
   19.5067  -20.9624  -16.3827 C   0  0  0  0  0  0  0  0  0  0  0  0
   20.8494  -21.5018  -15.9536 C   0  0  2  0  0  0  0  0  0  0  0  0
   20.8264  -21.9162  -14.5553 N   0  0  0  0  0  0  0  0  0  0  0  0
   21.8014  -20.3495  -16.0794 C   0  0  0  0  0  0  0  0  0  0  0  0
   22.0928  -19.9091  -17.2146 O   0  0  0  0  0  0  0  0  0  0  0  0
   22.3677  -19.7627  -14.9184 N   0  0  0  0  0  0  0  0  0  0  0  0
   23.3017  -18.6576  -15.0052 C   0  0  0  0  0  0  0  0  0  0  0  0
   24.6754  -19.1811  -14.9556 C   0  0  0  0  0  0  0  0  0  0  0  0
   25.6758  -18.3936  -15.0508 O   0  0  0  0  0  0  0  0  0  0  0  0
   24.1915  -20.0102   -8.5433 O   0  0  0  0  0  0  0  0  0  0  0  0
   24.6754  -20.5173   -9.7452 C   0  0  0  0  0  0  0  0  0  0  0  0
   23.8837  -21.2571  -10.6056 C   0  0  0  0  0  0  0  0  0  0  0  0
   24.3621  -21.7592  -11.7953 C   0  0  0  0  0  0  0  0  0  0  0  0
   25.6866  -21.5289  -12.1705 C   0  0  0  0  0  0  0  0  0  0  0  0
   26.2023  -22.0685  -13.4420 C   0  0  0  0  0  0  0  0  0  0  0  0
   26.3515  -21.0184  -14.5209 C   0  0  2  0  0  0  0  0  0  0  0  0
   24.9894  -20.5548  -14.8033 N   0  0  0  0  0  0  0  0  0  0  0  0
   26.9958  -21.5232  -15.7441 C   0  0  0  0  0  0  0  0  0  0  0  0
   26.2935  -21.6981  -16.7731 O   0  0  0  0  0  0  0  0  0  0  0  0
   26.4610  -20.7960  -11.3118 C   0  0  0  0  0  0  0  0  0  0  0  0
   25.9755  -20.2993  -10.1278 C   0  0  0  0  0  0  0  0  0  0  0  0
   28.3451  -21.8204  -15.8318 O   0  0  0  0  0  0  0  0  0  0  0  0
  2  1  1  0
  2  3  2  0
  4  2  1  0
  5  4  1  0
  6  5  1  0
  6  7  1  1
  8 10  1  0
  8  6  1  0
  9  8  2  0
 11 12  1  0
 11 10  1  0
 12 21  1  0
 13 12  2  0
 15 25  2  0
 15 14  1  0
 16 15  1  0
 17 18  1  0
 17 16  2  0
 18 24  2  0
 19 18  1  0
 20 19  1  1
 20 22  1  0
 21 20  1  0
 22 23  2  0
 22 26  1  0
 24 25  1  0
M  END
$$$$
