QGY.pdb
     RDKit          3D

 26 26  0  0  1  0  0  0  0  0999 V2000
   21.9598  -17.2275  -16.3151 N   0  0  0  0  0  0  0  0  0  0  0  0
   23.1227  -18.0481  -16.3789 C   0  0  0  0  0  0  0  0  0  0  0  0
   23.9505  -17.8446  -17.2856 O   0  0  0  0  0  0  0  0  0  0  0  0
   23.3388  -19.1119  -15.3920 C   0  0  0  0  0  0  0  0  0  0  0  0
   22.2254  -19.1860  -14.4099 C   0  0  0  0  0  0  0  0  0  0  0  0
   21.7607  -20.5807  -14.0678 C   0  0  2  0  0  0  0  0  0  0  0  0
   22.3854  -21.5706  -14.9380 N   0  0  0  0  0  0  0  0  0  0  0  0
   20.2859  -20.5886  -14.3413 C   0  0  0  0  0  0  0  0  0  0  0  0
   19.7836  -21.5290  -14.9975 O   0  0  0  0  0  0  0  0  0  0  0  0
   19.4659  -19.5360  -13.8589 N   0  0  0  0  0  0  0  0  0  0  0  0
   18.0308  -19.5377  -14.0630 C   0  0  0  0  0  0  0  0  0  0  0  0
   17.4474  -18.3611  -13.4006 C   0  0  0  0  0  0  0  0  0  0  0  0
   17.3354  -18.3186  -12.1296 O   0  0  0  0  0  0  0  0  0  0  0  0
   21.5123  -13.5544  -16.6179 O   0  0  0  0  0  0  0  0  0  0  0  0
   20.5989  -14.0163  -15.6753 C   0  0  0  0  0  0  0  0  0  0  0  0
   20.7702  -15.2168  -15.0090 C   0  0  0  0  0  0  0  0  0  0  0  0
   19.8665  -15.6743  -14.0760 C   0  0  0  0  0  0  0  0  0  0  0  0
   18.7309  -14.9216  -13.7731 C   0  0  0  0  0  0  0  0  0  0  0  0
   17.7600  -15.4110  -12.7772 C   0  0  0  0  0  0  0  0  0  0  0  0
   16.5186  -16.0134  -13.3977 C   0  0  2  0  0  0  0  0  0  0  0  0
   16.9781  -17.2183  -14.0955 N   0  0  0  0  0  0  0  0  0  0  0  0
   15.8273  -15.1037  -14.3255 C   0  0  0  0  0  0  0  0  0  0  0  0
   15.9571  -15.2847  -15.5637 O   0  0  0  0  0  0  0  0  0  0  0  0
   18.5714  -13.7357  -14.4382 C   0  0  0  0  0  0  0  0  0  0  0  0
   19.4774  -13.2874  -15.3668 C   0  0  0  0  0  0  0  0  0  0  0  0
   15.0327  -14.0479  -13.9126 O   0  0  0  0  0  0  0  0  0  0  0  0
  2  1  1  0
  2  3  2  0
  4  2  1  0
  5  4  1  0
  6  5  1  0
  6  7  1  6
  8 10  1  0
  8  6  1  0
  9  8  2  0
 11 12  1  0
 11 10  1  0
 12 21  1  0
 13 12  2  0
 15 25  2  0
 15 14  1  0
 16 15  1  0
 17 18  1  0
 17 16  2  0
 18 24  2  0
 19 18  1  0
 20 19  1  6
 20 22  1  0
 21 20  1  0
 22 23  2  0
 22 26  1  0
 24 25  1  0
M  END
$$$$
