QGY.pdb
     RDKit          3D

 26 26  0  0  1  0  0  0  0  0999 V2000
   26.7660  -22.2114  -14.8197 N   0  0  0  0  0  0  0  0  0  0  0  0
   27.4303  -21.5366  -15.8842 C   0  0  0  0  0  0  0  0  0  0  0  0
   28.6452  -21.7421  -16.0582 O   0  0  0  0  0  0  0  0  0  0  0  0
   26.6930  -20.6179  -16.7588 C   0  0  0  0  0  0  0  0  0  0  0  0
   27.0887  -19.2034  -16.5299 C   0  0  0  0  0  0  0  0  0  0  0  0
   26.7607  -18.6566  -15.1619 C   0  0  2  0  0  0  0  0  0  0  0  0
   25.3773  -18.9435  -14.7995 N   0  0  0  0  0  0  0  0  0  0  0  0
   26.9094  -17.1687  -15.2804 C   0  0  0  0  0  0  0  0  0  0  0  0
   27.9755  -16.6873  -15.7266 O   0  0  0  0  0  0  0  0  0  0  0  0
   25.8477  -16.3129  -14.8888 N   0  0  0  0  0  0  0  0  0  0  0  0
   25.9488  -14.8723  -15.0140 C   0  0  0  0  0  0  0  0  0  0  0  0
   25.0043  -14.4093  -16.0420 C   0  0  0  0  0  0  0  0  0  0  0  0
   25.1071  -14.8122  -17.2491 O   0  0  0  0  0  0  0  0  0  0  0  0
   22.0065  -19.4216  -17.6270 O   0  0  0  0  0  0  0  0  0  0  0  0
   21.9299  -18.0588  -17.3573 C   0  0  0  0  0  0  0  0  0  0  0  0
   21.6426  -17.1276  -18.3395 C   0  0  0  0  0  0  0  0  0  0  0  0
   21.5666  -15.7787  -18.0731 C   0  0  0  0  0  0  0  0  0  0  0  0
   21.7824  -15.3075  -16.7771 C   0  0  0  0  0  0  0  0  0  0  0  0
   21.7053  -13.8634  -16.4900 C   0  0  0  0  0  0  0  0  0  0  0  0
   22.9795  -13.1185  -16.8221 C   0  0  2  0  0  0  0  0  0  0  0  0
   23.9399  -13.5093  -15.7852 N   0  0  0  0  0  0  0  0  0  0  0  0
   22.8116  -11.6566  -16.8546 C   0  0  0  0  0  0  0  0  0  0  0  0
   23.3115  -10.9668  -15.9288 O   0  0  0  0  0  0  0  0  0  0  0  0
   22.0660  -16.2374  -15.8132 C   0  0  0  0  0  0  0  0  0  0  0  0
   22.1397  -17.5803  -16.0879 C   0  0  0  0  0  0  0  0  0  0  0  0
   22.1286  -10.9866  -17.8551 O   0  0  0  0  0  0  0  0  0  0  0  0
  2  1  1  0
  2  3  2  0
  4  2  1  0
  5  4  1  0
  6  5  1  0
  6  7  1  6
  8 10  1  0
  8  6  1  0
  9  8  2  0
 11 12  1  0
 11 10  1  0
 12 21  1  0
 13 12  2  0
 15 25  2  0
 15 14  1  0
 16 15  1  0
 17 18  1  0
 17 16  2  0
 18 24  2  0
 19 18  1  0
 20 19  1  1
 20 22  1  0
 21 20  1  0
 22 23  2  0
 22 26  1  0
 24 25  1  0
M  END
$$$$
