QGY.pdb
     RDKit          3D

 26 26  0  0  1  0  0  0  0  0999 V2000
   24.3819  -19.7254  -16.8311 N   0  0  0  0  0  0  0  0  0  0  0  0
   24.2626  -21.0936  -17.2102 C   0  0  0  0  0  0  0  0  0  0  0  0
   23.3159  -21.7610  -16.7551 O   0  0  0  0  0  0  0  0  0  0  0  0
   25.2382  -21.7019  -18.1214 C   0  0  0  0  0  0  0  0  0  0  0  0
   26.3078  -20.7425  -18.5028 C   0  0  0  0  0  0  0  0  0  0  0  0
   27.6429  -20.9686  -17.8359 C   0  0  2  0  0  0  0  0  0  0  0  0
   27.8482  -22.3814  -17.5373 N   0  0  0  0  0  0  0  0  0  0  0  0
   27.5700  -20.2261  -16.5346 C   0  0  0  0  0  0  0  0  0  0  0  0
   27.3424  -18.9951  -16.5369 O   0  0  0  0  0  0  0  0  0  0  0  0
   27.7581  -20.9158  -15.3090 N   0  0  0  0  0  0  0  0  0  0  0  0
   27.5858  -20.2531  -14.0313 C   0  0  0  0  0  0  0  0  0  0  0  0
   26.4618  -20.8731  -13.3133 C   0  0  0  0  0  0  0  0  0  0  0  0
   25.9570  -21.9730  -13.7200 O   0  0  0  0  0  0  0  0  0  0  0  0
   29.7728  -20.5590   -7.2995 O   0  0  0  0  0  0  0  0  0  0  0  0
   28.5577  -20.5133   -7.9758 C   0  0  0  0  0  0  0  0  0  0  0  0
   28.3310  -21.2346   -9.1346 C   0  0  0  0  0  0  0  0  0  0  0  0
   27.1286  -21.1898   -9.8042 C   0  0  0  0  0  0  0  0  0  0  0  0
   26.0862  -20.3982   -9.3197 C   0  0  0  0  0  0  0  0  0  0  0  0
   24.7991  -20.3456  -10.0369 C   0  0  0  0  0  0  0  0  0  0  0  0
   24.8378  -21.0284  -11.3864 C   0  0  2  0  0  0  0  0  0  0  0  0
   25.8680  -20.3190  -12.1516 N   0  0  0  0  0  0  0  0  0  0  0  0
   23.5479  -20.9992  -12.0946 C   0  0  0  0  0  0  0  0  0  0  0  0
   23.3370  -20.0880  -12.9360 O   0  0  0  0  0  0  0  0  0  0  0  0
   26.3213  -19.6888   -8.1727 C   0  0  0  0  0  0  0  0  0  0  0  0
   27.5233  -19.7395   -7.5116 C   0  0  0  0  0  0  0  0  0  0  0  0
   22.5402  -21.9259  -11.8884 O   0  0  0  0  0  0  0  0  0  0  0  0
  2  1  1  0
  2  3  2  0
  4  2  1  0
  5  4  1  0
  6  5  1  0
  6  7  1  1
  8 10  1  0
  8  6  1  0
  9  8  2  0
 11 12  1  0
 11 10  1  0
 12 21  1  0
 13 12  2  0
 15 25  2  0
 15 14  1  0
 16 15  1  0
 17 18  1  0
 17 16  2  0
 18 24  2  0
 19 18  1  0
 20 19  1  1
 20 22  1  0
 21 20  1  0
 22 23  2  0
 22 26  1  0
 24 25  1  0
M  END
$$$$
