QGY.pdb
     RDKit          3D

 26 26  0  0  1  0  0  0  0  0999 V2000
   17.0447  -20.2344  -14.2547 N   0  0  0  0  0  0  0  0  0  0  0  0
   17.5957  -21.3794  -14.8991 C   0  0  0  0  0  0  0  0  0  0  0  0
   17.0067  -21.8515  -15.8884 O   0  0  0  0  0  0  0  0  0  0  0  0
   18.8355  -21.9880  -14.4044 C   0  0  0  0  0  0  0  0  0  0  0  0
   19.3856  -21.2471  -13.2390 C   0  0  0  0  0  0  0  0  0  0  0  0
   20.4522  -20.2309  -13.5675 C   0  0  2  0  0  0  0  0  0  0  0  0
   21.4112  -20.7675  -14.5265 N   0  0  0  0  0  0  0  0  0  0  0  0
   21.1768  -19.9816  -12.2780 C   0  0  0  0  0  0  0  0  0  0  0  0
   20.5455  -19.5482  -11.2876 O   0  0  0  0  0  0  0  0  0  0  0  0
   22.5694  -20.2357  -12.1824 N   0  0  0  0  0  0  0  0  0  0  0  0
   23.3080  -19.9662  -10.9646 C   0  0  0  0  0  0  0  0  0  0  0  0
   24.7050  -20.3908  -11.1429 C   0  0  0  0  0  0  0  0  0  0  0  0
   25.0467  -21.0984  -12.1491 O   0  0  0  0  0  0  0  0  0  0  0  0
   27.8140  -20.0795   -4.1692 O   0  0  0  0  0  0  0  0  0  0  0  0
   27.8471  -19.8658   -5.5437 C   0  0  0  0  0  0  0  0  0  0  0  0
   28.6074  -18.8613   -6.1157 C   0  0  0  0  0  0  0  0  0  0  0  0
   28.6406  -18.6494   -7.4760 C   0  0  0  0  0  0  0  0  0  0  0  0
   27.8915  -19.4607   -8.3296 C   0  0  0  0  0  0  0  0  0  0  0  0
   27.9225  -19.2335   -9.7861 C   0  0  0  0  0  0  0  0  0  0  0  0
   27.1616  -20.2793  -10.5711 C   0  0  2  0  0  0  0  0  0  0  0  0
   25.7492  -20.0602  -10.2434 N   0  0  0  0  0  0  0  0  0  0  0  0
   27.5642  -21.6586  -10.2524 C   0  0  0  0  0  0  0  0  0  0  0  0
   28.7161  -22.0460  -10.5776 O   0  0  0  0  0  0  0  0  0  0  0  0
   27.1429  -20.4512   -7.7531 C   0  0  0  0  0  0  0  0  0  0  0  0
   27.1159  -20.6552   -6.3959 C   0  0  0  0  0  0  0  0  0  0  0  0
   26.7417  -22.5665   -9.6077 O   0  0  0  0  0  0  0  0  0  0  0  0
  2  1  1  0
  2  3  2  0
  4  2  1  0
  5  4  1  0
  6  5  1  0
  6  7  1  6
  8 10  1  0
  8  6  1  0
  9  8  2  0
 11 12  1  0
 11 10  1  0
 12 21  1  0
 13 12  2  0
 15 25  2  0
 15 14  1  0
 16 15  1  0
 17 18  1  0
 17 16  2  0
 18 24  2  0
 19 18  1  0
 20 19  1  1
 20 22  1  0
 21 20  1  0
 22 23  2  0
 22 26  1  0
 24 25  1  0
M  END
$$$$
