QGY.pdb
     RDKit          3D

 26 26  0  0  1  0  0  0  0  0999 V2000
   22.5208  -20.9674  -18.8229 N   0  0  0  0  0  0  0  0  0  0  0  0
   23.4041  -22.0741  -18.6644 C   0  0  0  0  0  0  0  0  0  0  0  0
   24.1575  -22.3790  -19.6068 O   0  0  0  0  0  0  0  0  0  0  0  0
   23.4241  -22.8377  -17.4119 C   0  0  0  0  0  0  0  0  0  0  0  0
   23.3444  -21.9481  -16.2236 C   0  0  0  0  0  0  0  0  0  0  0  0
   24.6716  -21.4658  -15.6905 C   0  0  2  0  0  0  0  0  0  0  0  0
   25.5202  -22.5867  -15.3022 N   0  0  0  0  0  0  0  0  0  0  0  0
   24.3443  -20.6825  -14.4539 C   0  0  0  0  0  0  0  0  0  0  0  0
   23.6319  -19.6568  -14.5419 O   0  0  0  0  0  0  0  0  0  0  0  0
   24.8397  -21.1023  -13.1924 N   0  0  0  0  0  0  0  0  0  0  0  0
   24.4947  -20.4026  -11.9707 C   0  0  0  0  0  0  0  0  0  0  0  0
   25.3868  -20.8491  -10.8899 C   0  0  0  0  0  0  0  0  0  0  0  0
   25.7755  -22.0636  -10.8267 O   0  0  0  0  0  0  0  0  0  0  0  0
   29.6984  -20.5786   -3.0688 O   0  0  0  0  0  0  0  0  0  0  0  0
   29.0908  -20.2712   -4.2822 C   0  0  0  0  0  0  0  0  0  0  0  0
   28.1059  -19.3054   -4.3901 C   0  0  0  0  0  0  0  0  0  0  0  0
   27.5043  -19.0008   -5.5907 C   0  0  0  0  0  0  0  0  0  0  0  0
   27.8818  -19.6737   -6.7538 C   0  0  0  0  0  0  0  0  0  0  0  0
   27.2366  -19.3519   -8.0399 C   0  0  0  0  0  0  0  0  0  0  0  0
   26.4823  -20.5184   -8.6394 C   0  0  2  0  0  0  0  0  0  0  0  0
   25.8708  -19.9970   -9.8659 N   0  0  0  0  0  0  0  0  0  0  0  0
   25.4586  -21.0771   -7.7416 C   0  0  0  0  0  0  0  0  0  0  0  0
   25.8171  -21.8561   -6.8212 O   0  0  0  0  0  0  0  0  0  0  0  0
   28.8570  -20.6271   -6.6357 C   0  0  0  0  0  0  0  0  0  0  0  0
   29.4513  -20.9242   -5.4345 C   0  0  0  0  0  0  0  0  0  0  0  0
   24.1080  -20.7931   -7.8502 O   0  0  0  0  0  0  0  0  0  0  0  0
  2  1  1  0
  2  3  2  0
  4  2  1  0
  5  4  1  0
  6  5  1  0
  6  7  1  1
  8 10  1  0
  8  6  1  0
  9  8  2  0
 11 12  1  0
 11 10  1  0
 12 21  1  0
 13 12  2  0
 15 25  2  0
 15 14  1  0
 16 15  1  0
 17 18  1  0
 17 16  2  0
 18 24  2  0
 19 18  1  0
 20 19  1  1
 20 22  1  0
 21 20  1  0
 22 23  2  0
 22 26  1  0
 24 25  1  0
M  END
$$$$
