QGY.pdb
     RDKit          3D

 26 26  0  0  1  0  0  0  0  0999 V2000
   14.8768  -13.5801  -17.4256 N   0  0  0  0  0  0  0  0  0  0  0  0
   15.2994  -12.3963  -18.0965 C   0  0  0  0  0  0  0  0  0  0  0  0
   15.0673  -11.2935  -17.5689 O   0  0  0  0  0  0  0  0  0  0  0  0
   15.9963  -12.4788  -19.3849 C   0  0  0  0  0  0  0  0  0  0  0  0
   16.9014  -11.3187  -19.5963 C   0  0  0  0  0  0  0  0  0  0  0  0
   18.2826  -11.4639  -19.0051 C   0  0  2  0  0  0  0  0  0  0  0  0
   18.2433  -11.3727  -17.5500 N   0  0  0  0  0  0  0  0  0  0  0  0
   19.0632  -10.2918  -19.5217 C   0  0  0  0  0  0  0  0  0  0  0  0
   19.3180  -10.2089  -20.7446 O   0  0  0  0  0  0  0  0  0  0  0  0
   19.5098   -9.2836  -18.6288 N   0  0  0  0  0  0  0  0  0  0  0  0
   20.3246   -8.1742  -19.0833 C   0  0  0  0  0  0  0  0  0  0  0  0
   21.7043   -8.3622  -18.6092 C   0  0  0  0  0  0  0  0  0  0  0  0
   21.9759   -9.2495  -17.7323 O   0  0  0  0  0  0  0  0  0  0  0  0
   30.5716   -7.3959  -18.1125 O   0  0  0  0  0  0  0  0  0  0  0  0
   29.2293   -7.3393  -18.4743 C   0  0  0  0  0  0  0  0  0  0  0  0
   28.7969   -7.6409  -19.7536 C   0  0  0  0  0  0  0  0  0  0  0  0
   27.4685   -7.5851  -20.1122 C   0  0  0  0  0  0  0  0  0  0  0  0
   26.5046   -7.2148  -19.1731 C   0  0  0  0  0  0  0  0  0  0  0  0
   25.0821   -7.1507  -19.5555 C   0  0  0  0  0  0  0  0  0  0  0  0
   24.1588   -7.7760  -18.5330 C   0  0  2  0  0  0  0  0  0  0  0  0
   22.8063   -7.6000  -19.0713 N   0  0  0  0  0  0  0  0  0  0  0  0
   24.2717   -7.1722  -17.1956 C   0  0  0  0  0  0  0  0  0  0  0  0
   23.6253   -6.1221  -16.9464 O   0  0  0  0  0  0  0  0  0  0  0  0
   26.9434   -6.9185  -17.9107 C   0  0  0  0  0  0  0  0  0  0  0  0
   28.2698   -6.9769  -17.5621 C   0  0  0  0  0  0  0  0  0  0  0  0
   25.0557   -7.6970  -16.1824 O   0  0  0  0  0  0  0  0  0  0  0  0
  2  1  1  0
  2  3  2  0
  4  2  1  0
  5  4  1  0
  6  5  1  0
  6  7  1  1
  8 10  1  0
  8  6  1  0
  9  8  2  0
 11 12  1  0
 11 10  1  0
 12 21  1  0
 13 12  2  0
 15 25  2  0
 15 14  1  0
 16 15  1  0
 17 18  1  0
 17 16  2  0
 18 24  2  0
 19 18  1  0
 20 19  1  6
 20 22  1  0
 21 20  1  0
 22 23  2  0
 22 26  1  0
 24 25  1  0
M  END
$$$$
