QGY.pdb
     RDKit          3D

 26 26  0  0  1  0  0  0  0  0999 V2000
   26.0298  -25.3074  -17.7325 N   0  0  0  0  0  0  0  0  0  0  0  0
   25.0924  -24.3024  -18.1083 C   0  0  0  0  0  0  0  0  0  0  0  0
   24.0860  -24.6355  -18.7600 O   0  0  0  0  0  0  0  0  0  0  0  0
   25.3112  -22.9015  -17.7317 C   0  0  0  0  0  0  0  0  0  0  0  0
   26.6496  -22.6993  -17.1171 C   0  0  0  0  0  0  0  0  0  0  0  0
   26.7194  -22.9491  -15.6302 C   0  0  2  0  0  0  0  0  0  0  0  0
   26.1472  -24.2464  -15.2881 N   0  0  0  0  0  0  0  0  0  0  0  0
   25.8639  -21.8867  -15.0062 C   0  0  0  0  0  0  0  0  0  0  0  0
   25.8243  -20.7448  -15.5180 O   0  0  0  0  0  0  0  0  0  0  0  0
   25.1045  -22.1750  -13.8429 N   0  0  0  0  0  0  0  0  0  0  0  0
   24.2492  -21.1788  -13.2289 C   0  0  0  0  0  0  0  0  0  0  0  0
   22.8974  -21.7358  -13.0679 C   0  0  0  0  0  0  0  0  0  0  0  0
   22.6927  -22.9908  -13.1828 O   0  0  0  0  0  0  0  0  0  0  0  0
   18.8756  -16.9509  -16.9460 O   0  0  0  0  0  0  0  0  0  0  0  0
   19.0162  -17.7917  -15.8463 C   0  0  0  0  0  0  0  0  0  0  0  0
   18.0727  -18.7520  -15.5269 C   0  0  0  0  0  0  0  0  0  0  0  0
   18.2113  -19.5844  -14.4387 C   0  0  0  0  0  0  0  0  0  0  0  0
   19.3317  -19.4773  -13.6132 C   0  0  0  0  0  0  0  0  0  0  0  0
   19.4806  -20.3649  -12.4454 C   0  0  0  0  0  0  0  0  0  0  0  0
   20.4084  -21.5334  -12.6964 C   0  0  2  0  0  0  0  0  0  0  0  0
   21.7517  -20.9518  -12.7819 N   0  0  0  0  0  0  0  0  0  0  0  0
   20.0855  -22.2851  -13.9198 C   0  0  0  0  0  0  0  0  0  0  0  0
   20.7521  -22.0630  -14.9633 O   0  0  0  0  0  0  0  0  0  0  0  0
   20.2587  -18.5239  -13.9384 C   0  0  0  0  0  0  0  0  0  0  0  0
   20.1123  -17.6983  -15.0253 C   0  0  0  0  0  0  0  0  0  0  0  0
   19.0801  -23.2340  -13.9923 O   0  0  0  0  0  0  0  0  0  0  0  0
  2  1  1  0
  2  3  2  0
  4  2  1  0
  5  4  1  0
  6  5  1  0
  6  7  1  6
  8 10  1  0
  8  6  1  0
  9  8  2  0
 11 12  1  0
 11 10  1  0
 12 21  1  0
 13 12  2  0
 15 25  2  0
 15 14  1  0
 16 15  1  0
 17 18  1  0
 17 16  2  0
 18 24  2  0
 19 18  1  0
 20 19  1  6
 20 22  1  0
 21 20  1  0
 22 23  2  0
 22 26  1  0
 24 25  1  0
M  END
$$$$
