QGY.pdb
     RDKit          3D

 26 26  0  0  1  0  0  0  0  0999 V2000
   20.2711  -18.5703  -19.6259 N   0  0  0  0  0  0  0  0  0  0  0  0
   20.4510  -17.6879  -18.5218 C   0  0  0  0  0  0  0  0  0  0  0  0
   19.9324  -16.5577  -18.5675 O   0  0  0  0  0  0  0  0  0  0  0  0
   21.2327  -18.1069  -17.3532 C   0  0  0  0  0  0  0  0  0  0  0  0
   22.4223  -17.2397  -17.1469 C   0  0  0  0  0  0  0  0  0  0  0  0
   23.7076  -17.7571  -17.7455 C   0  0  2  0  0  0  0  0  0  0  0  0
   23.4791  -18.9847  -18.4994 N   0  0  0  0  0  0  0  0  0  0  0  0
   24.5875  -18.0884  -16.5767 C   0  0  0  0  0  0  0  0  0  0  0  0
   24.9190  -17.1846  -15.7764 O   0  0  0  0  0  0  0  0  0  0  0  0
   25.0408  -19.4185  -16.3803 N   0  0  0  0  0  0  0  0  0  0  0  0
   25.9238  -19.7650  -15.2842 C   0  0  0  0  0  0  0  0  0  0  0  0
   25.1532  -20.4673  -14.2467 C   0  0  0  0  0  0  0  0  0  0  0  0
   23.9039  -20.6830  -14.3979 O   0  0  0  0  0  0  0  0  0  0  0  0
   27.0079  -18.7078   -6.7882 O   0  0  0  0  0  0  0  0  0  0  0  0
   26.7581  -19.5780   -7.8446 C   0  0  0  0  0  0  0  0  0  0  0  0
   27.6027  -19.6742   -8.9364 C   0  0  0  0  0  0  0  0  0  0  0  0
   27.3559  -20.5354   -9.9823 C   0  0  0  0  0  0  0  0  0  0  0  0
   26.2228  -21.3501   -9.9661 C   0  0  0  0  0  0  0  0  0  0  0  0
   25.9544  -22.2703  -11.0864 C   0  0  0  0  0  0  0  0  0  0  0  0
   24.9405  -21.7329  -12.0724 C   0  0  2  0  0  0  0  0  0  0  0  0
   25.7153  -20.9453  -13.0365 N   0  0  0  0  0  0  0  0  0  0  0  0
   23.8940  -20.9093  -11.4458 C   0  0  0  0  0  0  0  0  0  0  0  0
   22.8569  -21.4726  -11.0100 O   0  0  0  0  0  0  0  0  0  0  0  0
   25.3941  -21.2468   -8.8814 C   0  0  0  0  0  0  0  0  0  0  0  0
   25.6480  -20.3854   -7.8432 C   0  0  0  0  0  0  0  0  0  0  0  0
   23.9834  -19.5350  -11.3050 O   0  0  0  0  0  0  0  0  0  0  0  0
  2  1  1  0
  2  3  2  0
  4  2  1  0
  5  4  1  0
  6  5  1  0
  6  7  1  1
  8 10  1  0
  8  6  1  0
  9  8  2  0
 11 12  1  0
 11 10  1  0
 12 21  1  0
 13 12  2  0
 15 25  2  0
 15 14  1  0
 16 15  1  0
 17 18  1  0
 17 16  2  0
 18 24  2  0
 19 18  1  0
 20 19  1  1
 20 22  1  0
 21 20  1  0
 22 23  2  0
 22 26  1  0
 24 25  1  0
M  END
$$$$
