QGY.pdb
     RDKit          3D

 26 26  0  0  1  0  0  0  0  0999 V2000
   32.8314  -25.5440  -15.1201 N   0  0  0  0  0  0  0  0  0  0  0  0
   33.2162  -26.1362  -16.3575 C   0  0  0  0  0  0  0  0  0  0  0  0
   34.2450  -26.8355  -16.3927 O   0  0  0  0  0  0  0  0  0  0  0  0
   32.4122  -25.9250  -17.5663 C   0  0  0  0  0  0  0  0  0  0  0  0
   31.2229  -25.0755  -17.2948 C   0  0  0  0  0  0  0  0  0  0  0  0
   30.3484  -25.5378  -16.1548 C   0  0  2  0  0  0  0  0  0  0  0  0
   29.7660  -26.8451  -16.4364 N   0  0  0  0  0  0  0  0  0  0  0  0
   29.2311  -24.5399  -16.0784 C   0  0  0  0  0  0  0  0  0  0  0  0
   29.4945  -23.3160  -16.0710 O   0  0  0  0  0  0  0  0  0  0  0  0
   27.8842  -24.9813  -16.0150 N   0  0  0  0  0  0  0  0  0  0  0  0
   26.7776  -24.0452  -16.0271 C   0  0  0  0  0  0  0  0  0  0  0  0
   26.4162  -23.7424  -17.4204 C   0  0  0  0  0  0  0  0  0  0  0  0
   27.2276  -23.9959  -18.3729 O   0  0  0  0  0  0  0  0  0  0  0  0
   21.3202  -22.6441  -24.5879 O   0  0  0  0  0  0  0  0  0  0  0  0
   21.8208  -22.7760  -23.2964 C   0  0  0  0  0  0  0  0  0  0  0  0
   22.5897  -23.8597  -22.9106 C   0  0  0  0  0  0  0  0  0  0  0  0
   23.0854  -23.9907  -21.6326 C   0  0  0  0  0  0  0  0  0  0  0  0
   22.8183  -23.0119  -20.6740 C   0  0  0  0  0  0  0  0  0  0  0  0
   23.3449  -23.1517  -19.3040 C   0  0  0  0  0  0  0  0  0  0  0  0
   24.8368  -22.9189  -19.2096 C   0  0  2  0  0  0  0  0  0  0  0  0
   25.1806  -23.1646  -17.8055 N   0  0  0  0  0  0  0  0  0  0  0  0
   25.2451  -21.5653  -19.6185 C   0  0  0  0  0  0  0  0  0  0  0  0
   25.1983  -21.2587  -20.8378 O   0  0  0  0  0  0  0  0  0  0  0  0
   22.0566  -21.9442  -21.0665 C   0  0  0  0  0  0  0  0  0  0  0  0
   21.5667  -21.8218  -22.3429 C   0  0  0  0  0  0  0  0  0  0  0  0
   25.6828  -20.5970  -18.7312 O   0  0  0  0  0  0  0  0  0  0  0  0
  2  1  1  0
  2  3  2  0
  4  2  1  0
  5  4  1  0
  6  5  1  0
  6  7  1  6
  8 10  1  0
  8  6  1  0
  9  8  2  0
 11 12  1  0
 11 10  1  0
 12 21  1  0
 13 12  2  0
 15 25  2  0
 15 14  1  0
 16 15  1  0
 17 18  1  0
 17 16  2  0
 18 24  2  0
 19 18  1  0
 20 19  1  1
 20 22  1  0
 21 20  1  0
 22 23  2  0
 22 26  1  0
 24 25  1  0
M  END
$$$$
