QGY.pdb
     RDKit          3D

 26 26  0  0  1  0  0  0  0  0999 V2000
   26.1855  -21.5937  -20.8504 N   0  0  0  0  0  0  0  0  0  0  0  0
   27.3628  -21.6025  -20.0480 C   0  0  0  0  0  0  0  0  0  0  0  0
   28.1781  -20.6704  -20.1703 O   0  0  0  0  0  0  0  0  0  0  0  0
   27.6065  -22.6908  -19.0948 C   0  0  0  0  0  0  0  0  0  0  0  0
   27.9716  -22.1733  -17.7500 C   0  0  0  0  0  0  0  0  0  0  0  0
   26.8094  -21.7417  -16.8891 C   0  0  2  0  0  0  0  0  0  0  0  0
   26.1490  -20.5677  -17.4484 N   0  0  0  0  0  0  0  0  0  0  0  0
   27.4116  -21.3509  -15.5720 C   0  0  0  0  0  0  0  0  0  0  0  0
   27.8582  -22.2371  -14.8089 O   0  0  0  0  0  0  0  0  0  0  0  0
   27.4742  -19.9847  -15.1943 N   0  0  0  0  0  0  0  0  0  0  0  0
   28.0401  -19.5736  -13.9247 C   0  0  0  0  0  0  0  0  0  0  0  0
   26.9746  -19.5326  -12.9116 C   0  0  0  0  0  0  0  0  0  0  0  0
   26.1180  -18.5858  -12.9059 O   0  0  0  0  0  0  0  0  0  0  0  0
   21.4231  -20.7943  -15.4586 O   0  0  0  0  0  0  0  0  0  0  0  0
   22.2707  -20.9673  -14.3688 C   0  0  0  0  0  0  0  0  0  0  0  0
   23.4542  -21.6782  -14.4605 C   0  0  0  0  0  0  0  0  0  0  0  0
   24.2934  -21.8497  -13.3823 C   0  0  0  0  0  0  0  0  0  0  0  0
   23.9633  -21.2983  -12.1433 C   0  0  0  0  0  0  0  0  0  0  0  0
   24.8584  -21.4836  -10.9864 C   0  0  0  0  0  0  0  0  0  0  0  0
   25.8462  -20.3518  -10.8068 C   0  0  2  0  0  0  0  0  0  0  0  0
   26.8174  -20.5071  -11.8944 N   0  0  0  0  0  0  0  0  0  0  0  0
   26.5202  -20.3649   -9.4985 C   0  0  0  0  0  0  0  0  0  0  0  0
   25.8423  -20.1377   -8.4633 O   0  0  0  0  0  0  0  0  0  0  0  0
   22.7903  -20.5971  -12.0638 C   0  0  0  0  0  0  0  0  0  0  0  0
   21.9597  -20.4312  -13.1440 C   0  0  0  0  0  0  0  0  0  0  0  0
   27.8720  -20.6159   -9.3363 O   0  0  0  0  0  0  0  0  0  0  0  0
  2  1  1  0
  2  3  2  0
  4  2  1  0
  5  4  1  0
  6  5  1  0
  6  7  1  6
  8 10  1  0
  8  6  1  0
  9  8  2  0
 11 12  1  0
 11 10  1  0
 12 21  1  0
 13 12  2  0
 15 25  2  0
 15 14  1  0
 16 15  1  0
 17 18  1  0
 17 16  2  0
 18 24  2  0
 19 18  1  0
 20 19  1  1
 20 22  1  0
 21 20  1  0
 22 23  2  0
 22 26  1  0
 24 25  1  0
M  END
$$$$
