QGY.pdb
     RDKit          3D

 26 26  0  0  1  0  0  0  0  0999 V2000
   25.1767  -24.8856  -16.0957 N   0  0  0  0  0  0  0  0  0  0  0  0
   25.2141  -24.0134  -17.2217 C   0  0  0  0  0  0  0  0  0  0  0  0
   24.1394  -23.6309  -17.7191 O   0  0  0  0  0  0  0  0  0  0  0  0
   26.4971  -23.5745  -17.7817 C   0  0  0  0  0  0  0  0  0  0  0  0
   26.7975  -22.1621  -17.4286 C   0  0  0  0  0  0  0  0  0  0  0  0
   28.1871  -21.9139  -16.8942 C   0  0  2  0  0  0  0  0  0  0  0  0
   28.5973  -22.9770  -15.9837 N   0  0  0  0  0  0  0  0  0  0  0  0
   28.0905  -20.6411  -16.1064 C   0  0  0  0  0  0  0  0  0  0  0  0
   27.7316  -19.5862  -16.6771 O   0  0  0  0  0  0  0  0  0  0  0  0
   28.4042  -20.6337  -14.7227 N   0  0  0  0  0  0  0  0  0  0  0  0
   28.3199  -19.4218  -13.9320 C   0  0  0  0  0  0  0  0  0  0  0  0
   27.1922  -19.5342  -12.9944 C   0  0  0  0  0  0  0  0  0  0  0  0
   26.9561  -18.6094  -12.1465 O   0  0  0  0  0  0  0  0  0  0  0  0
   21.9868  -17.1339  -16.3120 O   0  0  0  0  0  0  0  0  0  0  0  0
   22.4721  -18.1199  -15.4587 C   0  0  0  0  0  0  0  0  0  0  0  0
   21.8802  -18.3965  -14.2390 C   0  0  0  0  0  0  0  0  0  0  0  0
   22.3602  -19.3722  -13.3941 C   0  0  0  0  0  0  0  0  0  0  0  0
   23.4802  -20.1226  -13.7555 C   0  0  0  0  0  0  0  0  0  0  0  0
   23.9982  -21.1654  -12.8510 C   0  0  0  0  0  0  0  0  0  0  0  0
   25.1784  -20.7068  -12.0228 C   0  0  2  0  0  0  0  0  0  0  0  0
   26.3066  -20.6402  -12.9571 N   0  0  0  0  0  0  0  0  0  0  0  0
   25.4856  -21.6016  -10.8954 C   0  0  0  0  0  0  0  0  0  0  0  0
   26.4187  -22.4363  -11.0188 O   0  0  0  0  0  0  0  0  0  0  0  0
   24.0580  -19.8406  -14.9641 C   0  0  0  0  0  0  0  0  0  0  0  0
   23.5726  -18.8660  -15.8001 C   0  0  0  0  0  0  0  0  0  0  0  0
   24.8013  -21.5796   -9.6921 O   0  0  0  0  0  0  0  0  0  0  0  0
  2  1  1  0
  2  3  2  0
  4  2  1  0
  5  4  1  0
  6  5  1  0
  6  7  1  1
  8 10  1  0
  8  6  1  0
  9  8  2  0
 11 12  1  0
 11 10  1  0
 12 21  1  0
 13 12  2  0
 15 25  2  0
 15 14  1  0
 16 15  1  0
 17 18  1  0
 17 16  2  0
 18 24  2  0
 19 18  1  0
 20 19  1  6
 20 22  1  0
 21 20  1  0
 22 23  2  0
 22 26  1  0
 24 25  1  0
M  END
$$$$
