GLK.pdb
     RDKit          3D

 22 21  0  0  1  0  0  0  0  0999 V2000
   21.9957  -13.5496  -18.3968 N   0  0  0  0  0  0  0  0  0  0  0  0
   22.2755  -12.2529  -18.9611 C   0  0  0  0  0  0  0  0  0  0  0  0
   22.4727  -11.2756  -17.8436 C   0  0  0  0  0  0  0  0  0  0  0  0
   21.5834  -11.1639  -16.9702 O   0  0  0  0  0  0  0  0  0  0  0  0
   25.5304  -10.5658  -14.6168 C   0  0  0  0  0  0  0  0  0  0  0  0
   25.9970  -10.3220  -16.0740 C   0  0  2  0  0  0  0  0  0  0  0  0
   27.4778  -10.0519  -15.9590 C   0  0  0  0  0  0  0  0  0  0  0  0
   25.1931   -9.1760  -16.5588 C   0  0  0  0  0  0  0  0  0  0  0  0
   23.7396   -9.3694  -16.7643 C   0  0  2  0  0  0  0  0  0  0  0  0
   23.6286  -10.4757  -17.7424 N   0  0  0  0  0  0  0  0  0  0  0  0
   22.9554   -8.2183  -17.2121 C   0  0  0  0  0  0  0  0  0  0  0  0
   23.1759   -7.6367  -18.3354 O   0  0  0  0  0  0  0  0  0  0  0  0
   21.9021   -7.6681  -16.4510 N   0  0  0  0  0  0  0  0  0  0  0  0
   21.1364   -6.4729  -16.9906 C   0  0  1  0  0  0  0  0  0  0  0  0
   19.8501   -7.0549  -17.4197 C   0  0  0  0  0  0  0  0  0  0  0  0
   18.7302   -6.3227  -17.9680 C   0  0  0  0  0  0  0  0  0  0  0  0
   17.4662   -7.0131  -18.3139 C   0  0  0  0  0  0  0  0  0  0  0  0
   16.4990   -6.0006  -18.9887 C   0  0  0  0  0  0  0  0  0  0  0  0
   15.3666   -6.7303  -19.5178 N   0  0  0  0  0  0  0  0  0  0  0  0
   21.0358   -5.5319  -15.8691 C   0  0  0  0  0  0  0  0  0  0  0  0
   21.3854   -5.9379  -14.6898 O   0  0  0  0  0  0  0  0  0  0  0  0
   20.6138   -4.2405  -15.9126 O   0  0  0  0  0  0  0  0  0  0  0  0
  2  1  1  0
  2  3  1  0
  3 10  1  0
  3  4  2  0
  6  5  1  1
  7  6  1  0
  8  6  1  0
  9  8  1  6
 10  9  1  0
 11  9  1  0
 11 13  1  0
 12 11  2  0
 14 20  1  0
 14 13  1  0
 14 15  1  1
 16 15  1  0
 17 18  1  0
 17 16  1  0
 18 19  1  0
 20 22  1  0
 21 20  2  0
M  END
$$$$
