GLK.pdb
     RDKit          3D

 22 21  0  0  1  0  0  0  0  0999 V2000
   20.6605  -20.5650  -10.1376 N   0  0  0  0  0  0  0  0  0  0  0  0
   21.7165  -21.4892  -10.4674 C   0  0  0  0  0  0  0  0  0  0  0  0
   22.9620  -20.7106  -10.7592 C   0  0  0  0  0  0  0  0  0  0  0  0
   22.8641  -19.5943  -11.3163 O   0  0  0  0  0  0  0  0  0  0  0  0
   26.2009  -18.8089   -8.4028 C   0  0  0  0  0  0  0  0  0  0  0  0
   26.1727  -20.3574   -8.3561 C   0  0  2  0  0  0  0  0  0  0  0  0
   27.2294  -20.7265   -7.3432 C   0  0  0  0  0  0  0  0  0  0  0  0
   26.4596  -20.7988   -9.7409 C   0  0  0  0  0  0  0  0  0  0  0  0
   25.4809  -20.4729  -10.8031 C   0  0  2  0  0  0  0  0  0  0  0  0
   24.2435  -21.1939  -10.4268 N   0  0  0  0  0  0  0  0  0  0  0  0
   25.8465  -20.7837  -12.1853 C   0  0  0  0  0  0  0  0  0  0  0  0
   25.6407  -21.9406  -12.7028 O   0  0  0  0  0  0  0  0  0  0  0  0
   26.4435  -19.8405  -13.0486 N   0  0  0  0  0  0  0  0  0  0  0  0
   26.7111  -20.2171  -14.4953 C   0  0  1  0  0  0  0  0  0  0  0  0
   26.8316  -18.9119  -15.1728 C   0  0  0  0  0  0  0  0  0  0  0  0
   26.8862  -18.7017  -16.6025 C   0  0  0  0  0  0  0  0  0  0  0  0
   27.1237  -17.3519  -17.1642 C   0  0  0  0  0  0  0  0  0  0  0  0
   27.1514  -17.4417  -18.7157 C   0  0  0  0  0  0  0  0  0  0  0  0
   27.4103  -16.1207  -19.2473 N   0  0  0  0  0  0  0  0  0  0  0  0
   27.9464  -21.0089  -14.4730 C   0  0  0  0  0  0  0  0  0  0  0  0
   28.7354  -20.8927  -13.4523 O   0  0  0  0  0  0  0  0  0  0  0  0
   28.3805  -21.8849  -15.4173 O   0  0  0  0  0  0  0  0  0  0  0  0
  2  1  1  0
  2  3  1  0
  3 10  1  0
  3  4  2  0
  6  5  1  6
  7  6  1  0
  8  6  1  0
  9  8  1  1
 10  9  1  0
 11  9  1  0
 11 13  1  0
 12 11  2  0
 14 20  1  0
 14 13  1  0
 14 15  1  6
 16 15  1  0
 17 18  1  0
 17 16  1  0
 18 19  1  0
 20 22  1  0
 21 20  2  0
M  END
$$$$
