GLK.pdb
     RDKit          3D

 22 21  0  0  1  0  0  0  0  0999 V2000
   21.9425  -21.7287   -7.0269 N   0  0  0  0  0  0  0  0  0  0  0  0
   23.3396  -21.9397   -6.7411 C   0  0  0  0  0  0  0  0  0  0  0  0
   24.1525  -21.0838   -7.6628 C   0  0  0  0  0  0  0  0  0  0  0  0
   23.5636  -20.3163   -8.4567 O   0  0  0  0  0  0  0  0  0  0  0  0
   27.6509  -18.1038   -6.9722 C   0  0  0  0  0  0  0  0  0  0  0  0
   27.8491  -19.6214   -6.7310 C   0  0  2  0  0  0  0  0  0  0  0  0
   29.2222  -19.7323   -6.1137 C   0  0  0  0  0  0  0  0  0  0  0  0
   27.7152  -20.2532   -8.0643 C   0  0  0  0  0  0  0  0  0  0  0  0
   26.3645  -20.3658   -8.6602 C   0  0  2  0  0  0  0  0  0  0  0  0
   25.5615  -21.1139   -7.6660 N   0  0  0  0  0  0  0  0  0  0  0  0
   26.2506  -20.9931   -9.9771 C   0  0  0  0  0  0  0  0  0  0  0  0
   26.3496  -22.2629  -10.1398 O   0  0  0  0  0  0  0  0  0  0  0  0
   26.0199  -20.2555  -11.1578 N   0  0  0  0  0  0  0  0  0  0  0  0
   25.9285  -20.9840  -12.4872 C   0  0  1  0  0  0  0  0  0  0  0  0
   24.8902  -20.2332  -13.2189 C   0  0  0  0  0  0  0  0  0  0  0  0
   24.3372  -20.5888  -14.5069 C   0  0  0  0  0  0  0  0  0  0  0  0
   23.3787  -19.6944  -15.1963 C   0  0  0  0  0  0  0  0  0  0  0  0
   22.9828  -20.3242  -16.5610 C   0  0  0  0  0  0  0  0  0  0  0  0
   22.0551  -19.4340  -17.2254 N   0  0  0  0  0  0  0  0  0  0  0  0
   27.2704  -20.8990  -13.0748 C   0  0  0  0  0  0  0  0  0  0  0  0
   28.0876  -20.0027  -12.6199 O   0  0  0  0  0  0  0  0  0  0  0  0
   27.7860  -21.6727  -14.0663 O   0  0  0  0  0  0  0  0  0  0  0  0
  2  1  1  0
  2  3  1  0
  3 10  1  0
  3  4  2  0
  6  5  1  6
  7  6  1  0
  8  6  1  0
  9  8  1  1
 10  9  1  0
 11  9  1  0
 11 13  1  0
 12 11  2  0
 14 20  1  0
 14 13  1  0
 14 15  1  6
 16 15  1  0
 17 18  1  0
 17 16  1  0
 18 19  1  0
 20 22  1  0
 21 20  2  0
M  END
$$$$
