GLK.pdb
     RDKit          3D

 22 21  0  0  1  0  0  0  0  0999 V2000
   22.5297  -13.7694  -20.6465 N   0  0  0  0  0  0  0  0  0  0  0  0
   22.4175  -12.3326  -20.6801 C   0  0  0  0  0  0  0  0  0  0  0  0
   22.4454  -11.8160  -19.2747 C   0  0  0  0  0  0  0  0  0  0  0  0
   21.4933  -12.0864  -18.5089 O   0  0  0  0  0  0  0  0  0  0  0  0
   26.8531   -9.9722  -15.6145 C   0  0  0  0  0  0  0  0  0  0  0  0
   25.3044   -9.9977  -15.6534 C   0  0  2  0  0  0  0  0  0  0  0  0
   24.9110  -10.9224  -14.5269 C   0  0  0  0  0  0  0  0  0  0  0  0
   24.9520  -10.4845  -17.0075 C   0  0  0  0  0  0  0  0  0  0  0  0
   23.5256  -10.4976  -17.4043 C   0  0  2  0  0  0  0  0  0  0  0  0
   23.5104  -11.0339  -18.7845 N   0  0  0  0  0  0  0  0  0  0  0  0
   22.7899   -9.2343  -17.3447 C   0  0  0  0  0  0  0  0  0  0  0  0
   23.0666   -8.2455  -18.1157 O   0  0  0  0  0  0  0  0  0  0  0  0
   21.7254   -9.0114  -16.4456 N   0  0  0  0  0  0  0  0  0  0  0  0
   21.0325   -7.6601  -16.4295 C   0  0  1  0  0  0  0  0  0  0  0  0
   19.5990   -8.0099  -16.4191 C   0  0  0  0  0  0  0  0  0  0  0  0
   18.5036   -7.0873  -16.2190 C   0  0  0  0  0  0  0  0  0  0  0  0
   17.1036   -7.5683  -16.1689 C   0  0  0  0  0  0  0  0  0  0  0  0
   16.1511   -6.3519  -15.9993 C   0  0  0  0  0  0  0  0  0  0  0  0
   14.7928   -6.8424  -15.9033 N   0  0  0  0  0  0  0  0  0  0  0  0
   21.5055   -6.9905  -15.2125 C   0  0  0  0  0  0  0  0  0  0  0  0
   21.3384   -5.7102  -15.1080 O   0  0  0  0  0  0  0  0  0  0  0  0
   22.1123   -7.5637  -14.1397 O   0  0  0  0  0  0  0  0  0  0  0  0
  2  1  1  0
  2  3  1  0
  3 10  1  0
  3  4  2  0
  6  5  1  6
  7  6  1  0
  8  6  1  0
  9  8  1  6
 10  9  1  0
 11  9  1  0
 11 13  1  0
 12 11  2  0
 14 20  1  0
 14 13  1  0
 14 15  1  1
 16 15  1  0
 17 18  1  0
 17 16  1  0
 18 19  1  0
 20 22  1  0
 21 20  2  0
M  END
$$$$
