GLK.pdb
     RDKit          3D

 22 21  0  0  1  0  0  0  0  0999 V2000
   21.6746  -21.7402   -7.0017 N   0  0  0  0  0  0  0  0  0  0  0  0
   23.0677  -21.9167   -6.6757 C   0  0  0  0  0  0  0  0  0  0  0  0
   23.8922  -21.1433   -7.6579 C   0  0  0  0  0  0  0  0  0  0  0  0
   23.3148  -20.5068   -8.5677 O   0  0  0  0  0  0  0  0  0  0  0  0
   26.9277  -18.1470   -6.5722 C   0  0  0  0  0  0  0  0  0  0  0  0
   27.4015  -19.6197   -6.4856 C   0  0  2  0  0  0  0  0  0  0  0  0
   28.7598  -19.5443   -5.8313 C   0  0  0  0  0  0  0  0  0  0  0  0
   27.4122  -20.1131   -7.8825 C   0  0  0  0  0  0  0  0  0  0  0  0
   26.1160  -20.3418   -8.5608 C   0  0  2  0  0  0  0  0  0  0  0  0
   25.2995  -21.1081   -7.5919 N   0  0  0  0  0  0  0  0  0  0  0  0
   26.1352  -21.0226   -9.8556 C   0  0  0  0  0  0  0  0  0  0  0  0
   26.2766  -22.2948   -9.9566 O   0  0  0  0  0  0  0  0  0  0  0  0
   25.9955  -20.3377  -11.0815 N   0  0  0  0  0  0  0  0  0  0  0  0
   25.9687  -21.1270  -12.3787 C   0  0  1  0  0  0  0  0  0  0  0  0
   24.7946  -20.5822  -13.0874 C   0  0  0  0  0  0  0  0  0  0  0  0
   24.0686  -21.2381  -14.1521 C   0  0  0  0  0  0  0  0  0  0  0  0
   22.9382  -20.5627  -14.8302 C   0  0  0  0  0  0  0  0  0  0  0  0
   22.4067  -21.4759  -15.9701 C   0  0  0  0  0  0  0  0  0  0  0  0
   21.2923  -20.8100  -16.6099 N   0  0  0  0  0  0  0  0  0  0  0  0
   27.2547  -20.8549  -13.0308 C   0  0  0  0  0  0  0  0  0  0  0  0
   27.9928  -19.8980  -12.5644 O   0  0  0  0  0  0  0  0  0  0  0  0
   27.7926  -21.5064  -14.0956 O   0  0  0  0  0  0  0  0  0  0  0  0
  2  1  1  0
  2  3  1  0
  3 10  1  0
  3  4  2  0
  6  5  1  6
  7  6  1  0
  8  6  1  0
  9  8  1  1
 10  9  1  0
 11  9  1  0
 11 13  1  0
 12 11  2  0
 14 20  1  0
 14 13  1  0
 14 15  1  6
 16 15  1  0
 17 18  1  0
 17 16  1  0
 18 19  1  0
 20 22  1  0
 21 20  2  0
M  END
$$$$
