GLK.pdb
     RDKit          3D

 22 21  0  0  1  0  0  0  0  0999 V2000
   22.3227  -14.5464  -17.6941 N   0  0  0  0  0  0  0  0  0  0  0  0
   22.5852  -13.3882  -18.5113 C   0  0  0  0  0  0  0  0  0  0  0  0
   22.6559  -12.1823  -17.6261 C   0  0  0  0  0  0  0  0  0  0  0  0
   21.7576  -12.0006  -16.7740 O   0  0  0  0  0  0  0  0  0  0  0  0
   25.5078  -10.6299  -14.4655 C   0  0  0  0  0  0  0  0  0  0  0  0
   26.0404  -10.7097  -15.9183 C   0  0  2  0  0  0  0  0  0  0  0  0
   27.4989  -10.3358  -15.8097 C   0  0  0  0  0  0  0  0  0  0  0  0
   25.2120   -9.7579  -16.6946 C   0  0  0  0  0  0  0  0  0  0  0  0
   23.7681  -10.0447  -16.8535 C   0  0  2  0  0  0  0  0  0  0  0  0
   23.7025  -11.2431  -17.7208 N   0  0  0  0  0  0  0  0  0  0  0  0
   22.9177   -8.9833  -17.3928 C   0  0  0  0  0  0  0  0  0  0  0  0
   23.0038   -8.5924  -18.6128 O   0  0  0  0  0  0  0  0  0  0  0  0
   21.9426   -8.3180  -16.6196 N   0  0  0  0  0  0  0  0  0  0  0  0
   21.0695   -7.2590  -17.2695 C   0  0  1  0  0  0  0  0  0  0  0  0
   19.6981   -7.7168  -16.9745 C   0  0  0  0  0  0  0  0  0  0  0  0
   18.4820   -6.9901  -17.2641 C   0  0  0  0  0  0  0  0  0  0  0  0
   17.1675   -7.4919  -16.8012 C   0  0  0  0  0  0  0  0  0  0  0  0
   16.0519   -6.5232  -17.2839 C   0  0  0  0  0  0  0  0  0  0  0  0
   14.8105   -6.8952  -16.6394 N   0  0  0  0  0  0  0  0  0  0  0  0
   21.4416   -5.9939  -16.6258 C   0  0  0  0  0  0  0  0  0  0  0  0
   22.1209   -6.0387  -15.5237 O   0  0  0  0  0  0  0  0  0  0  0  0
   21.1600   -4.7360  -17.0572 O   0  0  0  0  0  0  0  0  0  0  0  0
  2  1  1  0
  2  3  1  0
  3 10  1  0
  3  4  2  0
  6  5  1  1
  7  6  1  0
  8  6  1  0
  9  8  1  6
 10  9  1  0
 11  9  1  0
 11 13  1  0
 12 11  2  0
 14 20  1  0
 14 13  1  0
 14 15  1  1
 16 15  1  0
 17 18  1  0
 17 16  1  0
 18 19  1  0
 20 22  1  0
 21 20  2  0
M  END
$$$$
