GLK.pdb
     RDKit          3D

 22 21  0  0  1  0  0  0  0  0999 V2000
   22.5963  -13.8716  -19.7256 N   0  0  0  0  0  0  0  0  0  0  0  0
   23.0258  -12.9134  -18.7381 C   0  0  0  0  0  0  0  0  0  0  0  0
   21.8354  -12.1270  -18.2827 C   0  0  0  0  0  0  0  0  0  0  0  0
   21.1067  -11.5774  -19.1389 O   0  0  0  0  0  0  0  0  0  0  0  0
   17.6144  -12.4351  -16.6854 C   0  0  0  0  0  0  0  0  0  0  0  0
   18.7832  -13.1358  -15.9482 C   0  0  2  0  0  0  0  0  0  0  0  0
   18.1174  -13.9401  -14.8579 C   0  0  0  0  0  0  0  0  0  0  0  0
   19.6577  -12.0415  -15.4660 C   0  0  0  0  0  0  0  0  0  0  0  0
   20.3422  -11.1915  -16.4666 C   0  0  2  0  0  0  0  0  0  0  0  0
   21.5076  -11.9850  -16.9194 N   0  0  0  0  0  0  0  0  0  0  0  0
   20.7714   -9.8569  -16.0478 C   0  0  0  0  0  0  0  0  0  0  0  0
   21.7669   -9.6761  -15.2574 O   0  0  0  0  0  0  0  0  0  0  0  0
   20.1312   -8.6767  -16.4822 N   0  0  0  0  0  0  0  0  0  0  0  0
   20.5825   -7.3360  -15.9298 C   0  0  1  0  0  0  0  0  0  0  0  0
   20.0538   -6.3663  -16.9083 C   0  0  0  0  0  0  0  0  0  0  0  0
   20.0839   -4.9268  -16.7751 C   0  0  0  0  0  0  0  0  0  0  0  0
   19.4306   -4.0562  -17.7796 C   0  0  0  0  0  0  0  0  0  0  0  0
   19.7571   -2.5709  -17.4582 C   0  0  0  0  0  0  0  0  0  0  0  0
   19.0076   -1.7293  -18.3663 N   0  0  0  0  0  0  0  0  0  0  0  0
   19.9847   -7.2407  -14.5930 C   0  0  0  0  0  0  0  0  0  0  0  0
   20.5494   -6.4703  -13.7181 O   0  0  0  0  0  0  0  0  0  0  0  0
   18.8704   -7.8751  -14.1418 O   0  0  0  0  0  0  0  0  0  0  0  0
  2  1  1  0
  2  3  1  0
  3 10  1  0
  3  4  2  0
  6  5  1  6
  7  6  1  0
  8  6  1  0
  9  8  1  1
 10  9  1  0
 11  9  1  0
 11 13  1  0
 12 11  2  0
 14 20  1  0
 14 13  1  0
 14 15  1  6
 16 15  1  0
 17 18  1  0
 17 16  1  0
 18 19  1  0
 20 22  1  0
 21 20  2  0
M  END
$$$$
