GLK.pdb
     RDKit          3D

 22 21  0  0  1  0  0  0  0  0999 V2000
   21.4797  -14.0587  -19.8831 N   0  0  0  0  0  0  0  0  0  0  0  0
   21.9521  -12.7221  -20.1448 C   0  0  0  0  0  0  0  0  0  0  0  0
   22.1671  -12.0244  -18.8372 C   0  0  0  0  0  0  0  0  0  0  0  0
   21.2511  -12.0360  -17.9846 O   0  0  0  0  0  0  0  0  0  0  0  0
   27.0485   -9.7900  -16.0121 C   0  0  0  0  0  0  0  0  0  0  0  0
   25.5042   -9.7571  -15.8907 C   0  0  2  0  0  0  0  0  0  0  0  0
   25.2140  -10.3980  -14.5550 C   0  0  0  0  0  0  0  0  0  0  0  0
   25.0005  -10.5103  -17.0628 C   0  0  0  0  0  0  0  0  0  0  0  0
   23.5391  -10.5601  -17.2955 C   0  0  2  0  0  0  0  0  0  0  0  0
   23.3691  -11.3539  -18.5340 N   0  0  0  0  0  0  0  0  0  0  0  0
   22.8231   -9.2892  -17.4074 C   0  0  0  0  0  0  0  0  0  0  0  0
   22.9793   -8.5030  -18.4105 O   0  0  0  0  0  0  0  0  0  0  0  0
   21.9098   -8.8378  -16.4309 N   0  0  0  0  0  0  0  0  0  0  0  0
   21.2203   -7.4975  -16.6166 C   0  0  1  0  0  0  0  0  0  0  0  0
   19.7870   -7.8314  -16.5098 C   0  0  0  0  0  0  0  0  0  0  0  0
   18.6940   -6.8847  -16.5171 C   0  0  0  0  0  0  0  0  0  0  0  0
   17.6798   -6.9023  -17.5964 C   0  0  0  0  0  0  0  0  0  0  0  0
   16.5947   -5.8308  -17.2956 C   0  0  0  0  0  0  0  0  0  0  0  0
   15.6435   -5.8221  -18.3864 N   0  0  0  0  0  0  0  0  0  0  0  0
   21.7288   -6.6415  -15.5386 C   0  0  0  0  0  0  0  0  0  0  0  0
   22.1066   -7.2006  -14.4328 O   0  0  0  0  0  0  0  0  0  0  0  0
   21.8650   -5.2892  -15.5553 O   0  0  0  0  0  0  0  0  0  0  0  0
  2  1  1  0
  2  3  1  0
  3 10  1  0
  3  4  2  0
  6  5  1  6
  7  6  1  0
  8  6  1  0
  9  8  1  6
 10  9  1  0
 11  9  1  0
 11 13  1  0
 12 11  2  0
 14 20  1  0
 14 13  1  0
 14 15  1  1
 16 15  1  0
 17 18  1  0
 17 16  1  0
 18 19  1  0
 20 22  1  0
 21 20  2  0
M  END
$$$$
