GLK.pdb
     RDKit          3D

 22 21  0  0  1  0  0  0  0  0999 V2000
   20.3800  -11.6760  -19.9139 N   0  0  0  0  0  0  0  0  0  0  0  0
   21.0878  -10.4213  -19.9674 C   0  0  0  0  0  0  0  0  0  0  0  0
   21.6186  -10.1112  -18.6018 C   0  0  0  0  0  0  0  0  0  0  0  0
   20.8398  -10.1537  -17.6231 O   0  0  0  0  0  0  0  0  0  0  0  0
   27.0890   -9.9188  -16.0659 C   0  0  0  0  0  0  0  0  0  0  0  0
   25.6511   -9.4184  -15.7783 C   0  0  2  0  0  0  0  0  0  0  0  0
   25.2256  -10.1737  -14.5425 C   0  0  0  0  0  0  0  0  0  0  0  0
   24.8721   -9.7351  -16.9980 C   0  0  0  0  0  0  0  0  0  0  0  0
   23.4589   -9.2986  -17.0668 C   0  0  2  0  0  0  0  0  0  0  0  0
   22.9687   -9.7723  -18.3814 N   0  0  0  0  0  0  0  0  0  0  0  0
   23.1779   -7.8717  -16.9068 C   0  0  0  0  0  0  0  0  0  0  0  0
   23.5765   -6.9971  -17.7583 O   0  0  0  0  0  0  0  0  0  0  0  0
   22.4485   -7.3540  -15.8154 N   0  0  0  0  0  0  0  0  0  0  0  0
   22.2364   -5.8544  -15.7033 C   0  0  1  0  0  0  0  0  0  0  0  0
   20.8371   -5.6727  -16.1347 C   0  0  0  0  0  0  0  0  0  0  0  0
   20.0876   -4.4372  -16.0800 C   0  0  0  0  0  0  0  0  0  0  0  0
   18.6896   -4.3736  -16.5652 C   0  0  0  0  0  0  0  0  0  0  0  0
   18.1802   -2.9086  -16.4653 C   0  0  0  0  0  0  0  0  0  0  0  0
   16.7760   -2.8860  -16.8155 N   0  0  0  0  0  0  0  0  0  0  0  0
   22.4877   -5.5263  -14.2953 C   0  0  0  0  0  0  0  0  0  0  0  0
   22.4080   -6.4750  -13.4169 O   0  0  0  0  0  0  0  0  0  0  0  0
   22.8117   -4.3119  -13.7775 O   0  0  0  0  0  0  0  0  0  0  0  0
  2  1  1  0
  2  3  1  0
  3 10  1  0
  3  4  2  0
  6  5  1  6
  7  6  1  0
  8  6  1  0
  9  8  1  6
 10  9  1  0
 11  9  1  0
 11 13  1  0
 12 11  2  0
 14 20  1  0
 14 13  1  0
 14 15  1  1
 16 15  1  0
 17 18  1  0
 17 16  1  0
 18 19  1  0
 20 22  1  0
 21 20  2  0
M  END
$$$$
