GLK.pdb
     RDKit          3D

 22 21  0  0  1  0  0  0  0  0999 V2000
   23.7664  -17.6493  -18.4213 N   0  0  0  0  0  0  0  0  0  0  0  0
   24.5446  -16.6918  -19.1666 C   0  0  0  0  0  0  0  0  0  0  0  0
   24.5032  -15.3775  -18.4498 C   0  0  0  0  0  0  0  0  0  0  0  0
   23.4849  -15.0793  -17.7863 O   0  0  0  0  0  0  0  0  0  0  0  0
   27.2745  -13.4454  -15.4170 C   0  0  0  0  0  0  0  0  0  0  0  0
   27.7918  -13.5653  -16.8726 C   0  0  2  0  0  0  0  0  0  0  0  0
   29.2282  -13.1058  -16.8048 C   0  0  0  0  0  0  0  0  0  0  0  0
   26.9009  -12.6997  -17.6800 C   0  0  0  0  0  0  0  0  0  0  0  0
   25.4953  -13.1213  -17.8770 C   0  0  2  0  0  0  0  0  0  0  0  0
   25.5747  -14.4634  -18.4976 N   0  0  0  0  0  0  0  0  0  0  0  0
   24.6267  -12.2492  -18.6679 C   0  0  0  0  0  0  0  0  0  0  0  0
   24.6817  -12.2112  -19.9502 O   0  0  0  0  0  0  0  0  0  0  0  0
   23.6667  -11.3946  -18.0854 N   0  0  0  0  0  0  0  0  0  0  0  0
   22.7577  -10.5721  -18.9818 C   0  0  1  0  0  0  0  0  0  0  0  0
   21.5098  -11.3586  -19.0191 C   0  0  0  0  0  0  0  0  0  0  0  0
   20.2775  -10.9618  -19.6633 C   0  0  0  0  0  0  0  0  0  0  0  0
   19.0826  -11.8361  -19.6235 C   0  0  0  0  0  0  0  0  0  0  0  0
   17.9067  -11.1280  -20.3526 C   0  0  0  0  0  0  0  0  0  0  0  0
   16.8310  -12.0814  -20.5221 N   0  0  0  0  0  0  0  0  0  0  0  0
   22.6355   -9.2657  -18.3247 C   0  0  0  0  0  0  0  0  0  0  0  0
   23.1110   -9.1304  -17.1274 O   0  0  0  0  0  0  0  0  0  0  0  0
   22.0728   -8.1374  -18.8328 O   0  0  0  0  0  0  0  0  0  0  0  0
  2  1  1  0
  2  3  1  0
  3 10  1  0
  3  4  2  0
  6  5  1  1
  7  6  1  0
  8  6  1  0
  9  8  1  6
 10  9  1  0
 11  9  1  0
 11 13  1  0
 12 11  2  0
 14 20  1  0
 14 13  1  0
 14 15  1  1
 16 15  1  0
 17 18  1  0
 17 16  1  0
 18 19  1  0
 20 22  1  0
 21 20  2  0
M  END
$$$$
