GLK.pdb
     RDKit          3D

 22 21  0  0  1  0  0  0  0  0999 V2000
   17.8756  -10.6330  -16.8128 N   0  0  0  0  0  0  0  0  0  0  0  0
   17.2780   -9.4689  -16.2079 C   0  0  0  0  0  0  0  0  0  0  0  0
   17.7320   -9.3816  -14.7835 C   0  0  0  0  0  0  0  0  0  0  0  0
   17.2921  -10.2089  -13.9539 O   0  0  0  0  0  0  0  0  0  0  0  0
   21.5471   -9.8951  -12.5841 C   0  0  0  0  0  0  0  0  0  0  0  0
   21.4449   -8.6759  -13.5349 C   0  0  2  0  0  0  0  0  0  0  0  0
   22.8399   -8.1000  -13.5661 C   0  0  0  0  0  0  0  0  0  0  0  0
   20.4214   -7.7906  -12.9320 C   0  0  0  0  0  0  0  0  0  0  0  0
   19.0125   -8.2457  -12.9198 C   0  0  2  0  0  0  0  0  0  0  0  0
   18.6400   -8.3970  -14.3450 N   0  0  0  0  0  0  0  0  0  0  0  0
   18.0321   -7.4092  -12.2272 C   0  0  0  0  0  0  0  0  0  0  0  0
   17.7569   -6.2163  -12.6141 O   0  0  0  0  0  0  0  0  0  0  0  0
   17.3167   -7.8496  -11.0933 N   0  0  0  0  0  0  0  0  0  0  0  0
   16.3320   -6.9095  -10.4204 C   0  0  1  0  0  0  0  0  0  0  0  0
   15.2942   -7.8180   -9.8959 C   0  0  0  0  0  0  0  0  0  0  0  0
   14.1043   -7.4193   -9.1775 C   0  0  0  0  0  0  0  0  0  0  0  0
   13.1222   -8.4267   -8.7143 C   0  0  0  0  0  0  0  0  0  0  0  0
   11.8966   -7.6986   -8.0950 C   0  0  0  0  0  0  0  0  0  0  0  0
   10.8609   -8.6774   -7.8418 N   0  0  0  0  0  0  0  0  0  0  0  0
   17.1031   -6.2051   -9.3896 C   0  0  0  0  0  0  0  0  0  0  0  0
   16.5599   -5.1873   -8.8004 O   0  0  0  0  0  0  0  0  0  0  0  0
   18.3567   -6.4987   -8.9539 O   0  0  0  0  0  0  0  0  0  0  0  0
  2  1  1  0
  2  3  1  0
  3 10  1  0
  3  4  2  0
  6  5  1  1
  7  6  1  0
  8  6  1  0
  9  8  1  6
 10  9  1  0
 11  9  1  0
 11 13  1  0
 12 11  2  0
 14 20  1  0
 14 13  1  0
 14 15  1  1
 16 15  1  0
 17 18  1  0
 17 16  1  0
 18 19  1  0
 20 22  1  0
 21 20  2  0
M  END
$$$$
