GLK.pdb
     RDKit          3D

 22 21  0  0  1  0  0  0  0  0999 V2000
   14.0668   -3.6816  -17.2481 N   0  0  0  0  0  0  0  0  0  0  0  0
   14.6892   -3.5569  -15.9539 C   0  0  0  0  0  0  0  0  0  0  0  0
   16.1751   -3.6248  -16.1273 C   0  0  0  0  0  0  0  0  0  0  0  0
   16.6683   -4.5747  -16.7758 O   0  0  0  0  0  0  0  0  0  0  0  0
   19.8849   -0.7719  -17.5699 C   0  0  0  0  0  0  0  0  0  0  0  0
   18.8992   -0.3470  -16.4525 C   0  0  2  0  0  0  0  0  0  0  0  0
   19.3685    1.0251  -16.0330 C   0  0  0  0  0  0  0  0  0  0  0  0
   19.0161   -1.3895  -15.4064 C   0  0  0  0  0  0  0  0  0  0  0  0
   18.5113   -2.7491  -15.7046 C   0  0  2  0  0  0  0  0  0  0  0  0
   17.0386   -2.6527  -15.5835 N   0  0  0  0  0  0  0  0  0  0  0  0
   19.0139   -3.8564  -14.8910 C   0  0  0  0  0  0  0  0  0  0  0  0
   18.6833   -4.0041  -13.6591 O   0  0  0  0  0  0  0  0  0  0  0  0
   19.8892   -4.8408  -15.3970 N   0  0  0  0  0  0  0  0  0  0  0  0
   20.2143   -6.0578  -14.5487 C   0  0  1  0  0  0  0  0  0  0  0  0
   19.8028   -7.1899  -15.4012 C   0  0  0  0  0  0  0  0  0  0  0  0
   19.9439   -8.5913  -15.0741 C   0  0  0  0  0  0  0  0  0  0  0  0
   19.4985   -9.6414  -16.0190 C   0  0  0  0  0  0  0  0  0  0  0  0
   19.7421  -11.0383  -15.3825 C   0  0  0  0  0  0  0  0  0  0  0  0
   19.1252  -12.0405  -16.2249 N   0  0  0  0  0  0  0  0  0  0  0  0
   21.6567   -5.9824  -14.2899 C   0  0  0  0  0  0  0  0  0  0  0  0
   22.3707   -5.1736  -15.0069 O   0  0  0  0  0  0  0  0  0  0  0  0
   22.3633   -6.6726  -13.3561 O   0  0  0  0  0  0  0  0  0  0  0  0
  2  1  1  0
  2  3  1  0
  3 10  1  0
  3  4  2  0
  6  5  1  6
  7  6  1  0
  8  6  1  0
  9  8  1  1
 10  9  1  0
 11  9  1  0
 11 13  1  0
 12 11  2  0
 14 20  1  0
 14 13  1  0
 14 15  1  6
 16 15  1  0
 17 18  1  0
 17 16  1  0
 18 19  1  0
 20 22  1  0
 21 20  2  0
M  END
$$$$
