GLK.pdb
     RDKit          3D

 22 21  0  0  1  0  0  0  0  0999 V2000
   28.4412  -28.4225  -16.4304 N   0  0  0  0  0  0  0  0  0  0  0  0
   27.3420  -27.9513  -17.2352 C   0  0  0  0  0  0  0  0  0  0  0  0
   26.5510  -26.9625  -16.4356 C   0  0  0  0  0  0  0  0  0  0  0  0
   26.7375  -26.8923  -15.2001 O   0  0  0  0  0  0  0  0  0  0  0  0
   26.7506  -22.8873  -15.4860 C   0  0  0  0  0  0  0  0  0  0  0  0
   26.4353  -23.2515  -16.9586 C   0  0  2  0  0  0  0  0  0  0  0  0
   26.5716  -21.9493  -17.7099 C   0  0  0  0  0  0  0  0  0  0  0  0
   25.0660  -23.8169  -16.9403 C   0  0  0  0  0  0  0  0  0  0  0  0
   24.8431  -25.1051  -16.2453 C   0  0  2  0  0  0  0  0  0  0  0  0
   25.6015  -26.1066  -17.0291 N   0  0  0  0  0  0  0  0  0  0  0  0
   23.4614  -25.5493  -16.0598 C   0  0  0  0  0  0  0  0  0  0  0  0
   22.7595  -26.0200  -17.0265 O   0  0  0  0  0  0  0  0  0  0  0  0
   22.8031  -25.4988  -14.8126 N   0  0  0  0  0  0  0  0  0  0  0  0
   21.3612  -25.9644  -14.7102 C   0  0  1  0  0  0  0  0  0  0  0  0
   21.2057  -26.2864  -13.2786 C   0  0  0  0  0  0  0  0  0  0  0  0
   20.0145  -26.8184  -12.6549 C   0  0  0  0  0  0  0  0  0  0  0  0
   19.9936  -27.1451  -11.2103 C   0  0  0  0  0  0  0  0  0  0  0  0
   18.5493  -27.5443  -10.7975 C   0  0  0  0  0  0  0  0  0  0  0  0
   18.5482  -27.8688   -9.3871 N   0  0  0  0  0  0  0  0  0  0  0  0
   20.5493  -24.8327  -15.1723 C   0  0  0  0  0  0  0  0  0  0  0  0
   21.0414  -23.6387  -15.0721 O   0  0  0  0  0  0  0  0  0  0  0  0
   19.3050  -24.8799  -15.7175 O   0  0  0  0  0  0  0  0  0  0  0  0
  2  1  1  0
  2  3  1  0
  3 10  1  0
  3  4  2  0
  6  5  1  1
  7  6  1  0
  8  6  1  0
  9  8  1  6
 10  9  1  0
 11  9  1  0
 11 13  1  0
 12 11  2  0
 14 20  1  0
 14 13  1  0
 14 15  1  1
 16 15  1  0
 17 18  1  0
 17 16  1  0
 18 19  1  0
 20 22  1  0
 21 20  2  0
M  END
$$$$
