GLK.pdb
     RDKit          3D

 22 21  0  0  1  0  0  0  0  0999 V2000
   21.0902  -13.2246  -18.8289 N   0  0  0  0  0  0  0  0  0  0  0  0
   20.5837  -13.1890  -17.4798 C   0  0  0  0  0  0  0  0  0  0  0  0
   21.3113  -12.1218  -16.7219 C   0  0  0  0  0  0  0  0  0  0  0  0
   20.8084  -11.6761  -15.6662 O   0  0  0  0  0  0  0  0  0  0  0  0
   27.0830  -10.3449  -16.7240 C   0  0  0  0  0  0  0  0  0  0  0  0
   25.7394   -9.9671  -16.0512 C   0  0  2  0  0  0  0  0  0  0  0  0
   25.9558  -10.2501  -14.5843 C   0  0  0  0  0  0  0  0  0  0  0  0
   24.7185  -10.8197  -16.7036 C   0  0  0  0  0  0  0  0  0  0  0  0
   23.2922  -10.5840  -16.3836 C   0  0  2  0  0  0  0  0  0  0  0  0
   22.5460  -11.6014  -17.1588 N   0  0  0  0  0  0  0  0  0  0  0  0
   22.7469   -9.2512  -16.6425 C   0  0  0  0  0  0  0  0  0  0  0  0
   22.7445   -8.7301  -17.8160 O   0  0  0  0  0  0  0  0  0  0  0  0
   22.1820   -8.4466  -15.6301 N   0  0  0  0  0  0  0  0  0  0  0  0
   21.5656   -7.1081  -15.9974 C   0  0  1  0  0  0  0  0  0  0  0  0
   20.1235   -7.4076  -16.0866 C   0  0  0  0  0  0  0  0  0  0  0  0
   19.2667   -7.1181  -17.2149 C   0  0  0  0  0  0  0  0  0  0  0  0
   17.8291   -7.4740  -17.1892 C   0  0  0  0  0  0  0  0  0  0  0  0
   17.1780   -7.0682  -18.5409 C   0  0  0  0  0  0  0  0  0  0  0  0
   15.7497   -7.2812  -18.4446 N   0  0  0  0  0  0  0  0  0  0  0  0
   21.9324   -6.1948  -14.9089 C   0  0  0  0  0  0  0  0  0  0  0  0
   22.3107   -6.7023  -13.7787 O   0  0  0  0  0  0  0  0  0  0  0  0
   21.9323   -4.8359  -14.9385 O   0  0  0  0  0  0  0  0  0  0  0  0
  2  1  1  0
  2  3  1  0
  3 10  1  0
  3  4  2  0
  6  5  1  6
  7  6  1  0
  8  6  1  0
  9  8  1  6
 10  9  1  0
 11  9  1  0
 11 13  1  0
 12 11  2  0
 14 20  1  0
 14 13  1  0
 14 15  1  1
 16 15  1  0
 17 18  1  0
 17 16  1  0
 18 19  1  0
 20 22  1  0
 21 20  2  0
M  END
$$$$
