GLK.pdb
     RDKit          3D

 22 21  0  0  1  0  0  0  0  0999 V2000
   31.3963  -22.1822   -9.9806 N   0  0  0  0  0  0  0  0  0  0  0  0
   30.9519  -20.9180   -9.4492 C   0  0  0  0  0  0  0  0  0  0  0  0
   29.6030  -21.1067   -8.8265 C   0  0  0  0  0  0  0  0  0  0  0  0
   28.9191  -22.1038   -9.1492 O   0  0  0  0  0  0  0  0  0  0  0  0
   28.3788  -21.2170   -4.5510 C   0  0  0  0  0  0  0  0  0  0  0  0
   28.7176  -19.8102   -5.1048 C   0  0  2  0  0  0  0  0  0  0  0  0
   28.6856  -18.9076   -3.8952 C   0  0  0  0  0  0  0  0  0  0  0  0
   27.6767  -19.5248   -6.1196 C   0  0  0  0  0  0  0  0  0  0  0  0
   27.6891  -20.2996   -7.3813 C   0  0  2  0  0  0  0  0  0  0  0  0
   29.0770  -20.1970   -7.8874 N   0  0  0  0  0  0  0  0  0  0  0  0
   26.7403  -19.9151   -8.4266 C   0  0  0  0  0  0  0  0  0  0  0  0
   26.7104  -18.7301   -8.9200 O   0  0  0  0  0  0  0  0  0  0  0  0
   25.7970  -20.8128   -8.9705 N   0  0  0  0  0  0  0  0  0  0  0  0
   24.9727  -20.3908  -10.1741 C   0  0  1  0  0  0  0  0  0  0  0  0
   25.5274  -21.2054  -11.2723 C   0  0  0  0  0  0  0  0  0  0  0  0
   25.1512  -21.1171  -12.6657 C   0  0  0  0  0  0  0  0  0  0  0  0
   25.7212  -22.0469  -13.6679 C   0  0  0  0  0  0  0  0  0  0  0  0
   25.1668  -21.6853  -15.0741 C   0  0  0  0  0  0  0  0  0  0  0  0
   25.8974  -22.4460  -16.0652 N   0  0  0  0  0  0  0  0  0  0  0  0
   23.5816  -20.7026   -9.8263 C   0  0  0  0  0  0  0  0  0  0  0  0
   23.3547  -21.4125   -8.7668 O   0  0  0  0  0  0  0  0  0  0  0  0
   22.4604  -20.3223  -10.4942 O   0  0  0  0  0  0  0  0  0  0  0  0
  2  1  1  0
  2  3  1  0
  3 10  1  0
  3  4  2  0
  6  5  1  1
  7  6  1  0
  8  6  1  0
  9  8  1  1
 10  9  1  0
 11  9  1  0
 11 13  1  0
 12 11  2  0
 14 20  1  0
 14 13  1  0
 14 15  1  6
 16 15  1  0
 17 18  1  0
 17 16  1  0
 18 19  1  0
 20 22  1  0
 21 20  2  0
M  END
$$$$
