GLK.pdb
     RDKit          3D

 22 21  0  0  1  0  0  0  0  0999 V2000
   30.8212  -22.4568  -10.9800 N   0  0  0  0  0  0  0  0  0  0  0  0
   30.2346  -21.1555  -10.7789 C   0  0  0  0  0  0  0  0  0  0  0  0
   28.9091  -21.3258  -10.1031 C   0  0  0  0  0  0  0  0  0  0  0  0
   28.2519  -22.3706  -10.3092 O   0  0  0  0  0  0  0  0  0  0  0  0
   27.5273  -21.3015   -5.7973 C   0  0  0  0  0  0  0  0  0  0  0  0
   28.0074  -19.9551   -6.3952 C   0  0  2  0  0  0  0  0  0  0  0  0
   28.0214  -19.0025   -5.2242 C   0  0  0  0  0  0  0  0  0  0  0  0
   27.0266  -19.6220   -7.4543 C   0  0  0  0  0  0  0  0  0  0  0  0
   27.0074  -20.4467   -8.6839 C   0  0  2  0  0  0  0  0  0  0  0  0
   28.3758  -20.3467   -9.2410 N   0  0  0  0  0  0  0  0  0  0  0  0
   26.0185  -20.1169   -9.7104 C   0  0  0  0  0  0  0  0  0  0  0  0
   26.0139  -18.9847  -10.3161 O   0  0  0  0  0  0  0  0  0  0  0  0
   25.0059  -21.0137  -10.1126 N   0  0  0  0  0  0  0  0  0  0  0  0
   24.0353  -20.6023  -11.2057 C   0  0  1  0  0  0  0  0  0  0  0  0
   24.1919  -21.6623  -12.2202 C   0  0  0  0  0  0  0  0  0  0  0  0
   23.4212  -21.7906  -13.4369 C   0  0  0  0  0  0  0  0  0  0  0  0
   23.6431  -22.9262  -14.3617 C   0  0  0  0  0  0  0  0  0  0  0  0
   22.7255  -22.7595  -15.6051 C   0  0  0  0  0  0  0  0  0  0  0  0
   22.9822  -23.8552  -16.5151 N   0  0  0  0  0  0  0  0  0  0  0  0
   22.7159  -20.5621  -10.5648 C   0  0  0  0  0  0  0  0  0  0  0  0
   21.7426  -19.9816  -11.1922 O   0  0  0  0  0  0  0  0  0  0  0  0
   22.3708  -21.0805   -9.3565 O   0  0  0  0  0  0  0  0  0  0  0  0
  2  1  1  0
  2  3  1  0
  3 10  1  0
  3  4  2  0
  6  5  1  1
  7  6  1  0
  8  6  1  0
  9  8  1  1
 10  9  1  0
 11  9  1  0
 11 13  1  0
 12 11  2  0
 14 20  1  0
 14 13  1  0
 14 15  1  6
 16 15  1  0
 17 18  1  0
 17 16  1  0
 18 19  1  0
 20 22  1  0
 21 20  2  0
M  END
$$$$
