RFY.pdb
     RDKit          3D

 35 36  0  0  1  0  0  0  0  0999 V2000
    9.8974  -14.8148   14.7060 N   0  0  0  0  0  0  0  0  0  0  0  0
    8.5874  -14.4063   14.3334 C   0  0  0  0  0  0  0  0  0  0  0  0
    8.2503  -14.3442   13.1092 N   0  0  0  0  0  0  0  0  0  0  0  0
    7.6337  -14.0601   15.3416 N   0  0  0  0  0  0  0  0  0  0  0  0
    7.9864  -14.0630   16.7548 C   0  0  0  0  0  0  0  0  0  0  0  0
    8.0333  -15.5020   17.2131 C   0  0  0  0  0  0  0  0  0  0  0  0
    7.5260  -15.6473   18.6297 C   0  0  0  0  0  0  0  0  0  0  0  0
    8.6028  -16.0149   19.6007 C   0  0  2  0  0  0  0  0  0  0  0  0
    8.3393  -17.3407   20.1522 N   0  0  0  0  0  0  0  0  0  0  0  0
    8.7523  -15.0658   20.7304 C   0  0  0  0  0  0  0  0  0  0  0  0
    9.4173  -13.9836   20.5657 O   0  0  0  0  0  0  0  0  0  0  0  0
    7.3030  -14.0678   12.8085 N   0  0  0  0  0  0  0  0  0  0  0  0
    8.1707  -15.3304   22.0014 C   0  0  1  0  0  0  0  0  0  0  0  0
    8.3163  -14.4622   23.1521 C   0  0  0  0  0  0  0  0  0  0  0  0
    7.0120  -14.2822   23.8805 C   0  0  0  0  0  0  0  0  0  0  0  0
    7.0975  -13.4148   25.0571 C   0  0  0  0  0  0  0  0  0  0  0  0
    7.3277  -12.0610   24.9405 C   0  0  0  0  0  0  0  0  0  0  0  0
    7.4116  -11.2266   26.0470 C   0  0  0  0  0  0  0  0  0  0  0  0
    7.2649  -11.7334   27.3214 C   0  0  0  0  0  0  0  0  0  0  0  0
    7.0341  -13.0861   27.4542 C   0  0  0  0  0  0  0  0  0  0  0  0
    6.9521  -13.9089   26.3482 C   0  0  0  0  0  0  0  0  0  0  0  0
    9.4556  -14.8223   23.9976 O   0  0  0  0  0  0  0  0  0  0  0  0
    9.6525  -14.2536   25.1247 O   0  0  0  0  0  0  0  0  0  0  0  0
    9.4087  -14.9573   30.4915 C   0  0  0  0  0  0  0  0  0  0  0  0
    9.7460  -15.5315   29.2517 C   0  0  0  0  0  0  0  0  0  0  0  0
    9.9833  -14.7503   28.1600 C   0  0  0  0  0  0  0  0  0  0  0  0
   10.3126  -15.3312   26.9538 C   0  0  0  0  0  0  0  0  0  0  0  0
   10.4160  -16.7000   26.7950 C   0  0  0  0  0  0  0  0  0  0  0  0
   10.7571  -17.2758   25.4962 C   0  0  2  0  0  0  0  0  0  0  0  0
   11.4439  -16.2849   24.5467 N   0  0  0  0  0  0  0  0  0  0  0  0
   10.4068  -15.8110   23.6368 C   0  0  0  0  0  0  0  0  0  0  0  0
   12.5152  -16.9941   23.8365 O   0  0  0  0  0  0  0  0  0  0  0  0
   13.6405  -17.3939   24.5359 C   0  0  0  0  0  0  0  0  0  0  0  0
   10.1688  -17.4706   27.9231 C   0  0  0  0  0  0  0  0  0  0  0  0
    9.8395  -16.8992   29.1317 O   0  0  0  0  0  0  0  0  0  0  0  0
  2  1  1  0
  3  2  2  0
  4  2  1  0
  5  4  1  0
  6  5  1  0
  7  6  1  0
  8 10  1  0
  8  7  1  0
  8  9  1  1
 10 12  1  0
 11 10  2  0
 12 13  1  0
 13 21  1  0
 14 15  1  0
 13 14  1  1
 15 20  2  0
 16 17  2  0
 16 15  1  0
 17 18  1  0
 18 19  2  0
 19 20  1  0
 21 22  2  0
 21 30  1  0
 23 24  1  0
 24 25  2  0
 25 26  1  0
 27 26  2  0
 27 28  1  0
 29 28  1  1
 29 31  1  0
 30 29  1  0
 31 32  1  0
 33 27  1  0
 34 24  1  0
 34 33  2  0
 35 31  2  0
M  END
$$$$
