RFY.pdb
     RDKit          3D

 35 36  0  0  1  0  0  0  0  0999 V2000
   10.8208  -15.8181   14.0173 N   0  0  0  0  0  0  0  0  0  0  0  0
   10.8013  -17.2129   14.2933 C   0  0  0  0  0  0  0  0  0  0  0  0
   10.8508  -18.0624   13.3487 N   0  0  0  0  0  0  0  0  0  0  0  0
   10.7254  -17.6720   15.6458 N   0  0  0  0  0  0  0  0  0  0  0  0
   10.6335  -16.7398   16.7611 C   0  0  0  0  0  0  0  0  0  0  0  0
   10.7048  -17.5440   18.0383 C   0  0  0  0  0  0  0  0  0  0  0  0
   10.6949  -16.6483   19.2561 C   0  0  0  0  0  0  0  0  0  0  0  0
    9.8021  -17.1531   20.3449 C   0  0  2  0  0  0  0  0  0  0  0  0
    8.4912  -17.4853   19.7949 N   0  0  0  0  0  0  0  0  0  0  0  0
    9.6060  -16.1975   21.4619 C   0  0  0  0  0  0  0  0  0  0  0  0
    9.5755  -14.9396   21.2224 O   0  0  0  0  0  0  0  0  0  0  0  0
   10.8831  -19.0792   13.5189 N   0  0  0  0  0  0  0  0  0  0  0  0
    9.4498  -16.6476   22.8023 C   0  0  1  0  0  0  0  0  0  0  0  0
    8.8911  -15.8376   23.8657 C   0  0  0  0  0  0  0  0  0  0  0  0
    7.5325  -15.3030   23.5014 C   0  0  0  0  0  0  0  0  0  0  0  0
    6.9502  -14.4114   24.5063 C   0  0  0  0  0  0  0  0  0  0  0  0
    7.2718  -13.0721   24.5560 C   0  0  0  0  0  0  0  0  0  0  0  0
    6.7278  -12.2151   25.5032 C   0  0  0  0  0  0  0  0  0  0  0  0
    5.8323  -12.6834   26.4420 C   0  0  0  0  0  0  0  0  0  0  0  0
    5.5008  -14.0211   26.4050 C   0  0  0  0  0  0  0  0  0  0  0  0
    6.0466  -14.8667   25.4594 C   0  0  0  0  0  0  0  0  0  0  0  0
    8.9737  -16.4825   25.1772 O   0  0  0  0  0  0  0  0  0  0  0  0
    8.4984  -15.9239   26.2234 O   0  0  0  0  0  0  0  0  0  0  0  0
   12.4003  -12.7006   28.4252 C   0  0  0  0  0  0  0  0  0  0  0  0
   11.6043  -13.8469   28.2436 C   0  0  0  0  0  0  0  0  0  0  0  0
   10.2540  -13.7439   28.0880 C   0  0  0  0  0  0  0  0  0  0  0  0
    9.4908  -14.8783   27.9111 C   0  0  0  0  0  0  0  0  0  0  0  0
   10.0425  -16.1450   27.8833 C   0  0  0  0  0  0  0  0  0  0  0  0
    9.1965  -17.3226   27.7041 C   0  0  2  0  0  0  0  0  0  0  0  0
    9.7625  -18.3384   26.7027 N   0  0  0  0  0  0  0  0  0  0  0  0
    9.5746  -17.7514   25.3806 C   0  0  0  0  0  0  0  0  0  0  0  0
    9.0224  -19.5970   26.8547 O   0  0  0  0  0  0  0  0  0  0  0  0
    9.1483  -20.3175   28.0297 C   0  0  0  0  0  0  0  0  0  0  0  0
   11.4196  -16.2198   28.0444 C   0  0  0  0  0  0  0  0  0  0  0  0
   12.1896  -15.0923   28.2215 O   0  0  0  0  0  0  0  0  0  0  0  0
  2  1  1  0
  3  2  2  0
  4  2  1  0
  5  4  1  0
  6  5  1  0
  7  6  1  0
  8 10  1  0
  8  7  1  0
  8  9  1  6
 10 12  1  0
 11 10  2  0
 12 13  1  0
 13 21  1  0
 14 15  1  0
 13 14  1  6
 15 20  2  0
 16 17  2  0
 16 15  1  0
 17 18  1  0
 18 19  2  0
 19 20  1  0
 21 22  2  0
 21 30  1  0
 23 24  1  0
 24 25  2  0
 25 26  1  0
 27 26  2  0
 27 28  1  0
 29 28  1  1
 29 31  1  0
 30 29  1  0
 31 32  1  0
 33 27  1  0
 34 24  1  0
 34 33  2  0
 35 31  2  0
M  END
$$$$
