RFY.pdb
     RDKit          3D

 35 36  0  0  1  0  0  0  0  0999 V2000
    8.4118  -14.1369   13.9928 N   0  0  0  0  0  0  0  0  0  0  0  0
    8.7451  -13.8096   15.3358 C   0  0  0  0  0  0  0  0  0  0  0  0
    8.3546  -12.7161   15.8536 N   0  0  0  0  0  0  0  0  0  0  0  0
    9.5278  -14.7157   16.1183 N   0  0  0  0  0  0  0  0  0  0  0  0
    9.5455  -16.1444   15.8358 C   0  0  0  0  0  0  0  0  0  0  0  0
    9.1351  -16.8667   17.0979 C   0  0  0  0  0  0  0  0  0  0  0  0
    9.6909  -16.1874   18.3287 C   0  0  0  0  0  0  0  0  0  0  0  0
    9.4907  -16.9864   19.5773 C   0  0  2  0  0  0  0  0  0  0  0  0
    8.2067  -17.6788   19.5204 N   0  0  0  0  0  0  0  0  0  0  0  0
    9.5285  -16.1847   20.8243 C   0  0  0  0  0  0  0  0  0  0  0  0
   10.6565  -15.8246   21.3128 O   0  0  0  0  0  0  0  0  0  0  0  0
    8.5104  -12.4866   16.8472 N   0  0  0  0  0  0  0  0  0  0  0  0
    8.3338  -15.8033   21.4957 C   0  0  1  0  0  0  0  0  0  0  0  0
    8.3026  -14.9472   22.6642 C   0  0  0  0  0  0  0  0  0  0  0  0
    6.9660  -14.2750   22.8246 C   0  0  0  0  0  0  0  0  0  0  0  0
    6.8693  -13.4066   23.9996 C   0  0  0  0  0  0  0  0  0  0  0  0
    7.4013  -12.1352   24.0031 C   0  0  0  0  0  0  0  0  0  0  0  0
    7.3174  -11.3010   25.1097 C   0  0  0  0  0  0  0  0  0  0  0  0
    6.6882  -11.7240   26.2620 C   0  0  0  0  0  0  0  0  0  0  0  0
    6.1510  -12.9936   26.2737 C   0  0  0  0  0  0  0  0  0  0  0  0
    6.2389  -13.8169   25.1685 C   0  0  0  0  0  0  0  0  0  0  0  0
    8.8155  -15.6053   23.8669 O   0  0  0  0  0  0  0  0  0  0  0  0
    8.4511  -16.7883   24.1836 O   0  0  0  0  0  0  0  0  0  0  0  0
   12.9484  -16.5109   31.7331 C   0  0  0  0  0  0  0  0  0  0  0  0
   12.4194  -16.0283   30.5216 C   0  0  0  0  0  0  0  0  0  0  0  0
   11.6391  -14.9108   30.4944 C   0  0  0  0  0  0  0  0  0  0  0  0
   11.1299  -14.4532   29.2977 C   0  0  0  0  0  0  0  0  0  0  0  0
   11.3787  -15.0883   28.0960 C   0  0  0  0  0  0  0  0  0  0  0  0
   10.8108  -14.5765   26.8509 C   0  0  1  0  0  0  0  0  0  0  0  0
   10.3058  -15.6772   25.9084 N   0  0  0  0  0  0  0  0  0  0  0  0
    9.7381  -14.9916   24.7527 C   0  0  0  0  0  0  0  0  0  0  0  0
    9.2999  -16.4713   26.6243 O   0  0  0  0  0  0  0  0  0  0  0  0
    7.9778  -16.0624   26.6064 C   0  0  0  0  0  0  0  0  0  0  0  0
   12.1759  -16.2237   28.1537 C   0  0  0  0  0  0  0  0  0  0  0  0
   12.6888  -16.6878   29.3441 O   0  0  0  0  0  0  0  0  0  0  0  0
  2  1  1  0
  3  2  2  0
  4  2  1  0
  5  4  1  0
  6  5  1  0
  7  6  1  0
  8 10  1  0
  8  7  1  0
  8  9  1  6
 10 12  1  0
 11 10  2  0
 12 13  1  0
 13 21  1  0
 14 15  1  0
 13 14  1  1
 15 20  2  0
 16 17  2  0
 16 15  1  0
 17 18  1  0
 18 19  2  0
 19 20  1  0
 21 22  2  0
 21 30  1  0
 23 24  1  0
 24 25  2  0
 25 26  1  0
 27 26  2  0
 27 28  1  0
 29 28  1  6
 29 31  1  0
 30 29  1  0
 31 32  1  0
 33 27  1  0
 34 24  1  0
 34 33  2  0
 35 31  2  0
M  END
$$$$
