RFY.pdb
     RDKit          3D

 35 36  0  0  1  0  0  0  0  0999 V2000
   10.4712  -13.3333   18.7258 N   0  0  0  0  0  0  0  0  0  0  0  0
    9.0745  -13.2437   18.4747 C   0  0  0  0  0  0  0  0  0  0  0  0
    8.4471  -12.1563   18.6757 N   0  0  0  0  0  0  0  0  0  0  0  0
    8.3614  -14.3853   17.9907 N   0  0  0  0  0  0  0  0  0  0  0  0
    8.1922  -15.5787   18.8083 C   0  0  0  0  0  0  0  0  0  0  0  0
    6.7327  -15.6715   19.1881 C   0  0  0  0  0  0  0  0  0  0  0  0
    6.4387  -16.9474   19.9436 C   0  0  0  0  0  0  0  0  0  0  0  0
    7.5512  -17.3549   20.8568 C   0  0  2  0  0  0  0  0  0  0  0  0
    7.2448  -18.6471   21.4631 N   0  0  0  0  0  0  0  0  0  0  0  0
    7.8284  -16.3874   21.9461 C   0  0  0  0  0  0  0  0  0  0  0  0
    8.3599  -15.2555   21.6689 O   0  0  0  0  0  0  0  0  0  0  0  0
    7.4523  -12.0370   18.4306 N   0  0  0  0  0  0  0  0  0  0  0  0
    7.5159  -16.6885   23.3008 C   0  0  1  0  0  0  0  0  0  0  0  0
    7.8477  -15.8259   24.4166 C   0  0  0  0  0  0  0  0  0  0  0  0
    6.6150  -15.2491   25.0584 C   0  0  0  0  0  0  0  0  0  0  0  0
    6.8836  -14.1627   26.0027 C   0  0  0  0  0  0  0  0  0  0  0  0
    7.1520  -14.4113   27.3314 C   0  0  0  0  0  0  0  0  0  0  0  0
    7.4082  -13.3916   28.2381 C   0  0  0  0  0  0  0  0  0  0  0  0
    7.4024  -12.0732   27.8323 C   0  0  0  0  0  0  0  0  0  0  0  0
    7.1354  -11.8087   26.5059 C   0  0  0  0  0  0  0  0  0  0  0  0
    6.8817  -12.8291   25.6106 C   0  0  0  0  0  0  0  0  0  0  0  0
    8.8037  -16.4344   25.3431 O   0  0  0  0  0  0  0  0  0  0  0  0
    8.5806  -17.5751   25.8738 O   0  0  0  0  0  0  0  0  0  0  0  0
   12.8816  -15.8834   20.3067 C   0  0  0  0  0  0  0  0  0  0  0  0
   12.7600  -15.8964   21.7087 C   0  0  0  0  0  0  0  0  0  0  0  0
   12.1151  -14.8903   22.3646 C   0  0  0  0  0  0  0  0  0  0  0  0
   12.0059  -14.9205   23.7386 C   0  0  0  0  0  0  0  0  0  0  0  0
   12.5316  -15.9463   24.5008 C   0  0  0  0  0  0  0  0  0  0  0  0
   12.4033  -15.9347   25.9561 C   0  0  2  0  0  0  0  0  0  0  0  0
   11.0714  -16.5071   26.4594 N   0  0  0  0  0  0  0  0  0  0  0  0
   10.0259  -15.8162   25.7128 C   0  0  0  0  0  0  0  0  0  0  0  0
   10.9758  -16.2519   27.9019 O   0  0  0  0  0  0  0  0  0  0  0  0
   11.7982  -16.9513   28.7680 C   0  0  0  0  0  0  0  0  0  0  0  0
   13.1831  -16.9569   23.8064 C   0  0  0  0  0  0  0  0  0  0  0  0
   13.2968  -16.9351   22.4345 O   0  0  0  0  0  0  0  0  0  0  0  0
  2  1  1  0
  3  2  2  0
  4  2  1  0
  5  4  1  0
  6  5  1  0
  7  6  1  0
  8 10  1  0
  8  7  1  0
  8  9  1  1
 10 12  1  0
 11 10  2  0
 12 13  1  0
 13 21  1  0
 14 15  1  0
 13 14  1  1
 15 20  2  0
 16 17  2  0
 16 15  1  0
 17 18  1  0
 18 19  2  0
 19 20  1  0
 21 22  2  0
 21 30  1  0
 23 24  1  0
 24 25  2  0
 25 26  1  0
 27 26  2  0
 27 28  1  0
 29 28  1  6
 29 31  1  0
 30 29  1  0
 31 32  1  0
 33 27  1  0
 34 24  1  0
 34 33  2  0
 35 31  2  0
M  END
$$$$
