RFY.pdb
     RDKit          3D

 35 36  0  0  1  0  0  0  0  0999 V2000
    9.2473  -16.0135   14.6433 N   0  0  0  0  0  0  0  0  0  0  0  0
    8.8659  -14.9529   13.7764 C   0  0  0  0  0  0  0  0  0  0  0  0
    9.4014  -14.8267   12.6303 N   0  0  0  0  0  0  0  0  0  0  0  0
    7.8696  -14.0145   14.1920 N   0  0  0  0  0  0  0  0  0  0  0  0
    7.0857  -14.2235   15.4015 C   0  0  0  0  0  0  0  0  0  0  0  0
    7.8446  -13.6054   16.5527 C   0  0  0  0  0  0  0  0  0  0  0  0
    7.4109  -14.1903   17.8775 C   0  0  0  0  0  0  0  0  0  0  0  0
    8.5022  -14.9455   18.5676 C   0  0  2  0  0  0  0  0  0  0  0  0
    8.1095  -16.3420   18.7316 N   0  0  0  0  0  0  0  0  0  0  0  0
    8.8640  -14.4074   19.9014 C   0  0  0  0  0  0  0  0  0  0  0  0
    9.4541  -13.2741   19.9892 O   0  0  0  0  0  0  0  0  0  0  0  0
    9.1348  -14.0772   11.9735 N   0  0  0  0  0  0  0  0  0  0  0  0
    8.5692  -15.1249   21.0938 C   0  0  1  0  0  0  0  0  0  0  0  0
    8.5765  -14.5315   22.4155 C   0  0  0  0  0  0  0  0  0  0  0  0
    7.2190  -14.0048   22.7953 C   0  0  0  0  0  0  0  0  0  0  0  0
    7.1466  -13.4577   24.1515 C   0  0  0  0  0  0  0  0  0  0  0  0
    7.4704  -12.1449   24.4184 C   0  0  0  0  0  0  0  0  0  0  0  0
    7.4067  -11.6126   25.6991 C   0  0  0  0  0  0  0  0  0  0  0  0
    7.0104  -12.3932   26.7651 C   0  0  0  0  0  0  0  0  0  0  0  0
    6.6832  -13.7086   26.5138 C   0  0  0  0  0  0  0  0  0  0  0  0
    6.7493  -14.2301   25.2368 C   0  0  0  0  0  0  0  0  0  0  0  0
    9.2154  -15.3837   23.4196 O   0  0  0  0  0  0  0  0  0  0  0  0
    8.6888  -16.4888   23.7854 O   0  0  0  0  0  0  0  0  0  0  0  0
   11.4090  -16.3523   31.7181 C   0  0  0  0  0  0  0  0  0  0  0  0
   11.1607  -15.9277   30.3996 C   0  0  0  0  0  0  0  0  0  0  0  0
   11.0205  -14.6040   30.1052 C   0  0  0  0  0  0  0  0  0  0  0  0
   10.7778  -14.2072   28.8074 C   0  0  0  0  0  0  0  0  0  0  0  0
   10.6671  -15.1087   27.7660 C   0  0  0  0  0  0  0  0  0  0  0  0
   10.3986  -14.6471   26.4061 C   0  0  1  0  0  0  0  0  0  0  0  0
   10.8635  -15.6283   25.3216 N   0  0  0  0  0  0  0  0  0  0  0  0
   10.4435  -15.0535   24.0485 C   0  0  0  0  0  0  0  0  0  0  0  0
   10.2290  -16.9280   25.5732 O   0  0  0  0  0  0  0  0  0  0  0  0
   11.0105  -17.9934   25.9851 C   0  0  0  0  0  0  0  0  0  0  0  0
   10.8140  -16.4496   28.0949 C   0  0  0  0  0  0  0  0  0  0  0  0
   11.0567  -16.8550   29.3881 O   0  0  0  0  0  0  0  0  0  0  0  0
  2  1  1  0
  3  2  2  0
  4  2  1  0
  5  4  1  0
  6  5  1  0
  7  6  1  0
  8 10  1  0
  8  7  1  0
  8  9  1  1
 10 12  1  0
 11 10  2  0
 12 13  1  0
 13 21  1  0
 14 15  1  0
 13 14  1  1
 15 20  2  0
 16 17  2  0
 16 15  1  0
 17 18  1  0
 18 19  2  0
 19 20  1  0
 21 22  2  0
 21 30  1  0
 23 24  1  0
 24 25  2  0
 25 26  1  0
 27 26  2  0
 27 28  1  0
 29 28  1  6
 29 31  1  0
 30 29  1  0
 31 32  1  0
 33 27  1  0
 34 24  1  0
 34 33  2  0
 35 31  2  0
M  END
$$$$
