RFY.pdb
     RDKit          3D

 35 36  0  0  1  0  0  0  0  0999 V2000
    8.9886  -15.3376   16.6288 N   0  0  0  0  0  0  0  0  0  0  0  0
    8.2101  -14.2932   16.0588 C   0  0  0  0  0  0  0  0  0  0  0  0
    7.8530  -14.3409   14.8395 N   0  0  0  0  0  0  0  0  0  0  0  0
    7.8209  -13.1740   16.8600 N   0  0  0  0  0  0  0  0  0  0  0  0
    8.2625  -13.0376   18.2411 C   0  0  0  0  0  0  0  0  0  0  0  0
    7.2867  -13.7943   19.1118 C   0  0  0  0  0  0  0  0  0  0  0  0
    7.6754  -13.7196   20.5708 C   0  0  0  0  0  0  0  0  0  0  0  0
    8.2761  -14.9910   21.0808 C   0  0  2  0  0  0  0  0  0  0  0  0
    7.3096  -16.0783   20.9584 N   0  0  0  0  0  0  0  0  0  0  0  0
    8.7240  -14.9277   22.4932 C   0  0  0  0  0  0  0  0  0  0  0  0
    9.6038  -14.0645   22.8414 O   0  0  0  0  0  0  0  0  0  0  0  0
    7.3336  -13.5750   14.3838 N   0  0  0  0  0  0  0  0  0  0  0  0
    8.1961  -15.8088   23.4774 C   0  0  1  0  0  0  0  0  0  0  0  0
    8.6340  -15.8319   24.8583 C   0  0  0  0  0  0  0  0  0  0  0  0
    7.4850  -15.6297   25.8086 C   0  0  0  0  0  0  0  0  0  0  0  0
    7.1980  -14.2263   26.1119 C   0  0  0  0  0  0  0  0  0  0  0  0
    5.9824  -13.6551   25.8029 C   0  0  0  0  0  0  0  0  0  0  0  0
    5.6964  -12.3260   26.0841 C   0  0  0  0  0  0  0  0  0  0  0  0
    6.6353  -11.5191   26.6924 C   0  0  0  0  0  0  0  0  0  0  0  0
    7.8563  -12.0763   27.0076 C   0  0  0  0  0  0  0  0  0  0  0  0
    8.1325  -13.3994   26.7244 C   0  0  0  0  0  0  0  0  0  0  0  0
    9.4992  -16.9725   25.1631 O   0  0  0  0  0  0  0  0  0  0  0  0
    9.2419  -18.1405   24.7133 O   0  0  0  0  0  0  0  0  0  0  0  0
   12.9940  -16.2495   20.2640 C   0  0  0  0  0  0  0  0  0  0  0  0
   12.9698  -16.6035   21.6258 C   0  0  0  0  0  0  0  0  0  0  0  0
   13.3399  -15.7111   22.5876 C   0  0  0  0  0  0  0  0  0  0  0  0
   13.3095  -16.0763   23.9167 C   0  0  0  0  0  0  0  0  0  0  0  0
   12.9124  -17.3336   24.3302 C   0  0  0  0  0  0  0  0  0  0  0  0
   12.9049  -17.6838   25.7486 C   0  0  2  0  0  0  0  0  0  0  0  0
   11.5081  -18.0133   26.2922 N   0  0  0  0  0  0  0  0  0  0  0  0
   10.6655  -16.8686   25.9639 C   0  0  0  0  0  0  0  0  0  0  0  0
   11.6143  -18.2190   27.7418 O   0  0  0  0  0  0  0  0  0  0  0  0
   10.9558  -17.3531   28.5975 C   0  0  0  0  0  0  0  0  0  0  0  0
   12.5414  -18.2216   23.3295 C   0  0  0  0  0  0  0  0  0  0  0  0
   12.5685  -17.8657   21.9997 O   0  0  0  0  0  0  0  0  0  0  0  0
  2  1  1  0
  3  2  2  0
  4  2  1  0
  5  4  1  0
  6  5  1  0
  7  6  1  0
  8 10  1  0
  8  7  1  0
  8  9  1  1
 10 12  1  0
 11 10  2  0
 12 13  1  0
 13 21  1  0
 14 15  1  0
 13 14  1  6
 15 20  2  0
 16 17  2  0
 16 15  1  0
 17 18  1  0
 18 19  2  0
 19 20  1  0
 21 22  2  0
 21 30  1  0
 23 24  1  0
 24 25  2  0
 25 26  1  0
 27 26  2  0
 27 28  1  0
 29 28  1  6
 29 31  1  0
 30 29  1  0
 31 32  1  0
 33 27  1  0
 34 24  1  0
 34 33  2  0
 35 31  2  0
M  END
$$$$
