RFY.pdb
     RDKit          3D

 35 36  0  0  1  0  0  0  0  0999 V2000
    7.3224  -14.5947   15.9425 N   0  0  0  0  0  0  0  0  0  0  0  0
    8.5638  -14.1641   15.3991 C   0  0  0  0  0  0  0  0  0  0  0  0
    8.6506  -13.0614   14.7723 N   0  0  0  0  0  0  0  0  0  0  0  0
    9.7314  -14.9754   15.5556 N   0  0  0  0  0  0  0  0  0  0  0  0
    9.6538  -16.3213   16.1066 C   0  0  0  0  0  0  0  0  0  0  0  0
    9.2456  -16.2007   17.5564 C   0  0  0  0  0  0  0  0  0  0  0  0
   10.4406  -16.3005   18.4768 C   0  0  0  0  0  0  0  0  0  0  0  0
   10.1130  -16.9314   19.7929 C   0  0  2  0  0  0  0  0  0  0  0  0
    8.8650  -17.6812   19.6845 N   0  0  0  0  0  0  0  0  0  0  0  0
    9.9772  -15.9675   20.9117 C   0  0  0  0  0  0  0  0  0  0  0  0
   10.9925  -15.2813   21.2842 O   0  0  0  0  0  0  0  0  0  0  0  0
    9.5239  -12.7469   14.3223 N   0  0  0  0  0  0  0  0  0  0  0  0
    8.7378  -15.7856   21.5858 C   0  0  1  0  0  0  0  0  0  0  0  0
    8.5807  -14.9876   22.7848 C   0  0  0  0  0  0  0  0  0  0  0  0
    7.2301  -14.3264   22.8388 C   0  0  0  0  0  0  0  0  0  0  0  0
    7.0379  -13.4497   23.9957 C   0  0  0  0  0  0  0  0  0  0  0  0
    6.4330  -13.8994   25.1495 C   0  0  0  0  0  0  0  0  0  0  0  0
    6.2438  -13.0796   26.2538 C   0  0  0  0  0  0  0  0  0  0  0  0
    6.6623  -11.7654   26.2328 C   0  0  0  0  0  0  0  0  0  0  0  0
    7.2692  -11.3010   25.0854 C   0  0  0  0  0  0  0  0  0  0  0  0
    7.4534  -12.1232   23.9913 C   0  0  0  0  0  0  0  0  0  0  0  0
    8.9715  -15.7024   24.0009 O   0  0  0  0  0  0  0  0  0  0  0  0
    8.6331  -16.9193   24.1940 O   0  0  0  0  0  0  0  0  0  0  0  0
   12.4196  -16.9379   32.1625 C   0  0  0  0  0  0  0  0  0  0  0  0
   11.9544  -16.4004   30.9479 C   0  0  0  0  0  0  0  0  0  0  0  0
   10.9553  -15.4732   30.9300 C   0  0  0  0  0  0  0  0  0  0  0  0
   10.5129  -14.9579   29.7302 C   0  0  0  0  0  0  0  0  0  0  0  0
   11.0467  -15.3458   28.5160 C   0  0  0  0  0  0  0  0  0  0  0  0
   10.5417  -14.7829   27.2660 C   0  0  2  0  0  0  0  0  0  0  0  0
   10.1820  -15.8432   26.2164 N   0  0  0  0  0  0  0  0  0  0  0  0
    9.7411  -15.1100   25.0349 C   0  0  0  0  0  0  0  0  0  0  0  0
    9.1172  -16.6920   26.7648 O   0  0  0  0  0  0  0  0  0  0  0  0
    9.4526  -17.8908   27.3699 C   0  0  0  0  0  0  0  0  0  0  0  0
   12.0623  -16.2914   28.5645 C   0  0  0  0  0  0  0  0  0  0  0  0
   12.5105  -16.8113   29.7580 O   0  0  0  0  0  0  0  0  0  0  0  0
  2  1  1  0
  3  2  2  0
  4  2  1  0
  5  4  1  0
  6  5  1  0
  7  6  1  0
  8 10  1  0
  8  7  1  0
  8  9  1  6
 10 12  1  0
 11 10  2  0
 12 13  1  0
 13 21  1  0
 14 15  1  0
 13 14  1  1
 15 20  2  0
 16 17  2  0
 16 15  1  0
 17 18  1  0
 18 19  2  0
 19 20  1  0
 21 22  2  0
 21 30  1  0
 23 24  1  0
 24 25  2  0
 25 26  1  0
 27 26  2  0
 27 28  1  0
 29 28  1  6
 29 31  1  0
 30 29  1  0
 31 32  1  0
 33 27  1  0
 34 24  1  0
 34 33  2  0
 35 31  2  0
M  END
$$$$
