RFY.pdb
     RDKit          3D

 35 36  0  0  1  0  0  0  0  0999 V2000
    8.1474  -22.0842   16.4909 N   0  0  0  0  0  0  0  0  0  0  0  0
    8.9408  -20.9755   16.0871 C   0  0  0  0  0  0  0  0  0  0  0  0
    9.4710  -20.9429   14.9321 N   0  0  0  0  0  0  0  0  0  0  0  0
    9.1486  -19.8817   16.9850 N   0  0  0  0  0  0  0  0  0  0  0  0
    8.5218  -19.8472   18.2993 C   0  0  0  0  0  0  0  0  0  0  0  0
    7.5626  -18.6799   18.3197 C   0  0  0  0  0  0  0  0  0  0  0  0
    8.2287  -17.4269   18.8408 C   0  0  0  0  0  0  0  0  0  0  0  0
    8.7835  -17.5909   20.2202 C   0  0  2  0  0  0  0  0  0  0  0  0
    7.9560  -18.5251   20.9778 N   0  0  0  0  0  0  0  0  0  0  0  0
    8.8784  -16.3276   20.9912 C   0  0  0  0  0  0  0  0  0  0  0  0
    9.5506  -15.3452   20.5185 O   0  0  0  0  0  0  0  0  0  0  0  0
   10.0858  -20.1733   14.6260 N   0  0  0  0  0  0  0  0  0  0  0  0
    8.2362  -16.1798   22.2519 C   0  0  1  0  0  0  0  0  0  0  0  0
    8.3090  -14.9787   23.0589 C   0  0  0  0  0  0  0  0  0  0  0  0
    6.9936  -14.6757   23.7237 C   0  0  0  0  0  0  0  0  0  0  0  0
    7.0279  -13.5188   24.6205 C   0  0  0  0  0  0  0  0  0  0  0  0
    7.1243  -12.2323   24.1356 C   0  0  0  0  0  0  0  0  0  0  0  0
    7.1582  -11.1261   24.9738 C   0  0  0  0  0  0  0  0  0  0  0  0
    7.0954  -11.2803   26.3431 C   0  0  0  0  0  0  0  0  0  0  0  0
    6.9987  -12.5613   26.8433 C   0  0  0  0  0  0  0  0  0  0  0  0
    6.9656  -13.6563   26.0024 C   0  0  0  0  0  0  0  0  0  0  0  0
    9.4730  -14.9576   23.9462 O   0  0  0  0  0  0  0  0  0  0  0  0
    9.7276  -13.9462   24.6842 O   0  0  0  0  0  0  0  0  0  0  0  0
   10.0390  -14.6106   30.9955 C   0  0  0  0  0  0  0  0  0  0  0  0
   10.3658  -15.2007   29.7605 C   0  0  0  0  0  0  0  0  0  0  0  0
   10.4993  -16.5524   29.6442 C   0  0  0  0  0  0  0  0  0  0  0  0
   10.8199  -17.1123   28.4258 C   0  0  0  0  0  0  0  0  0  0  0  0
   11.0169  -16.3506   27.2898 C   0  0  0  0  0  0  0  0  0  0  0  0
   11.3660  -16.9830   26.0199 C   0  0  2  0  0  0  0  0  0  0  0  0
   11.5885  -15.9832   24.8770 N   0  0  0  0  0  0  0  0  0  0  0  0
   10.3868  -16.0375   24.0519 C   0  0  0  0  0  0  0  0  0  0  0  0
   12.7851  -16.3936   24.1320 O   0  0  0  0  0  0  0  0  0  0  0  0
   14.0242  -16.3067   24.7424 C   0  0  0  0  0  0  0  0  0  0  0  0
   10.8748  -14.9774   27.4377 C   0  0  0  0  0  0  0  0  0  0  0  0
   10.5548  -14.4095   28.6504 O   0  0  0  0  0  0  0  0  0  0  0  0
  2  1  1  0
  3  2  2  0
  4  2  1  0
  5  4  1  0
  6  5  1  0
  7  6  1  0
  8 10  1  0
  8  7  1  0
  8  9  1  1
 10 12  1  0
 11 10  2  0
 12 13  1  0
 13 21  1  0
 14 15  1  0
 13 14  1  6
 15 20  2  0
 16 17  2  0
 16 15  1  0
 17 18  1  0
 18 19  2  0
 19 20  1  0
 21 22  2  0
 21 30  1  0
 23 24  1  0
 24 25  2  0
 25 26  1  0
 27 26  2  0
 27 28  1  0
 29 28  1  1
 29 31  1  0
 30 29  1  0
 31 32  1  0
 33 27  1  0
 34 24  1  0
 34 33  2  0
 35 31  2  0
M  END
$$$$
