RFY.pdb
     RDKit          3D

 35 36  0  0  1  0  0  0  0  0999 V2000
   10.6678  -22.4025   22.4509 N   0  0  0  0  0  0  0  0  0  0  0  0
   10.8499  -22.2959   21.0447 C   0  0  0  0  0  0  0  0  0  0  0  0
   10.8508  -23.3333   20.3097 N   0  0  0  0  0  0  0  0  0  0  0  0
   11.0344  -21.0110   20.4441 N   0  0  0  0  0  0  0  0  0  0  0  0
   11.3698  -19.8398   21.2423 C   0  0  0  0  0  0  0  0  0  0  0  0
   10.1933  -18.8935   21.1854 C   0  0  0  0  0  0  0  0  0  0  0  0
   10.1007  -18.2074   19.8415 C   0  0  0  0  0  0  0  0  0  0  0  0
    8.9438  -17.2641   19.7459 C   0  0  2  0  0  0  0  0  0  0  0  0
    8.8439  -16.7407   18.3867 N   0  0  0  0  0  0  0  0  0  0  0  0
    9.0187  -16.1143   20.6795 C   0  0  0  0  0  0  0  0  0  0  0  0
    9.9877  -15.2821   20.5844 O   0  0  0  0  0  0  0  0  0  0  0  0
   11.0024  -23.2901   19.2903 N   0  0  0  0  0  0  0  0  0  0  0  0
    8.0331  -15.9119   21.6852 C   0  0  2  0  0  0  0  0  0  0  0  0
    8.1067  -14.8703   22.6895 C   0  0  0  0  0  0  0  0  0  0  0  0
    6.7477  -14.5331   23.2406 C   0  0  0  0  0  0  0  0  0  0  0  0
    6.7698  -13.5644   24.3384 C   0  0  0  0  0  0  0  0  0  0  0  0
    7.2281  -12.2775   24.1562 C   0  0  0  0  0  0  0  0  0  0  0  0
    7.2552  -11.3486   25.1876 C   0  0  0  0  0  0  0  0  0  0  0  0
    6.8169  -11.6885   26.4505 C   0  0  0  0  0  0  0  0  0  0  0  0
    6.3554  -12.9724   26.6484 C   0  0  0  0  0  0  0  0  0  0  0  0
    6.3319  -13.8903   25.6168 C   0  0  0  0  0  0  0  0  0  0  0  0
    9.1406  -15.1200   23.6953 O   0  0  0  0  0  0  0  0  0  0  0  0
    9.3572  -14.2932   24.6450 O   0  0  0  0  0  0  0  0  0  0  0  0
   10.2507  -14.2978   30.7677 C   0  0  0  0  0  0  0  0  0  0  0  0
   10.1680  -15.0145   29.5593 C   0  0  0  0  0  0  0  0  0  0  0  0
   10.0993  -14.3642   28.3632 C   0  0  0  0  0  0  0  0  0  0  0  0
   10.0189  -15.0835   27.1898 C   0  0  0  0  0  0  0  0  0  0  0  0
   10.0044  -16.4652   27.1679 C   0  0  0  0  0  0  0  0  0  0  0  0
    9.9074  -17.1894   25.9027 C   0  0  2  0  0  0  0  0  0  0  0  0
   10.8298  -16.6378   24.8073 N   0  0  0  0  0  0  0  0  0  0  0  0
    9.9623  -16.2764   23.6916 C   0  0  0  0  0  0  0  0  0  0  0  0
   11.7882  -17.6874   24.4400 O   0  0  0  0  0  0  0  0  0  0  0  0
   13.0120  -17.7407   25.0841 C   0  0  0  0  0  0  0  0  0  0  0  0
   10.0753  -17.1007   28.4003 C   0  0  0  0  0  0  0  0  0  0  0  0
   10.1559  -16.3906   29.5771 O   0  0  0  0  0  0  0  0  0  0  0  0
  2  1  1  0
  3  2  2  0
  4  2  1  0
  5  4  1  0
  6  5  1  0
  7  6  1  0
  8 10  1  0
  8  7  1  0
  8  9  1  6
 10 12  1  0
 11 10  2  0
 12 13  1  0
 13 21  1  0
 14 15  1  0
 13 14  1  6
 15 20  2  0
 16 17  2  0
 16 15  1  0
 17 18  1  0
 18 19  2  0
 19 20  1  0
 21 22  2  0
 21 30  1  0
 23 24  1  0
 24 25  2  0
 25 26  1  0
 27 26  2  0
 27 28  1  0
 29 28  1  1
 29 31  1  0
 30 29  1  0
 31 32  1  0
 33 27  1  0
 34 24  1  0
 34 33  2  0
 35 31  2  0
M  END
$$$$
