RFY.pdb
     RDKit          3D

 35 36  0  0  1  0  0  0  0  0999 V2000
   11.3983  -18.8971   15.5575 N   0  0  0  0  0  0  0  0  0  0  0  0
   12.4594  -19.5083   16.2803 C   0  0  0  0  0  0  0  0  0  0  0  0
   13.3872  -20.1284   15.6712 N   0  0  0  0  0  0  0  0  0  0  0  0
   12.4895  -19.4284   17.7081 N   0  0  0  0  0  0  0  0  0  0  0  0
   11.3140  -19.7348   18.5116 C   0  0  0  0  0  0  0  0  0  0  0  0
   10.3975  -18.5346   18.4600 C   0  0  0  0  0  0  0  0  0  0  0  0
   10.0456  -18.0484   19.8475 C   0  0  0  0  0  0  0  0  0  0  0  0
    8.7529  -17.2970   19.8925 C   0  0  2  0  0  0  0  0  0  0  0  0
    8.3718  -16.8879   18.5439 N   0  0  0  0  0  0  0  0  0  0  0  0
    8.7823  -16.0882   20.7511 C   0  0  0  0  0  0  0  0  0  0  0  0
    9.2507  -14.9908   20.2855 O   0  0  0  0  0  0  0  0  0  0  0  0
   14.1471  -20.6169   16.1692 N   0  0  0  0  0  0  0  0  0  0  0  0
    8.2995  -16.1186   22.0889 C   0  0  2  0  0  0  0  0  0  0  0  0
    8.3829  -14.9974   23.0028 C   0  0  0  0  0  0  0  0  0  0  0  0
    7.0190  -14.4862   23.3806 C   0  0  0  0  0  0  0  0  0  0  0  0
    7.0306  -13.4727   24.4372 C   0  0  0  0  0  0  0  0  0  0  0  0
    7.4697  -12.1880   24.2002 C   0  0  0  0  0  0  0  0  0  0  0  0
    7.4866  -11.2168   25.1922 C   0  0  0  0  0  0  0  0  0  0  0  0
    7.0572  -11.5104   26.4697 C   0  0  0  0  0  0  0  0  0  0  0  0
    6.6149  -12.7915   26.7222 C   0  0  0  0  0  0  0  0  0  0  0  0
    6.6015  -13.7515   25.7297 C   0  0  0  0  0  0  0  0  0  0  0  0
    9.2873  -15.2442   24.1269 O   0  0  0  0  0  0  0  0  0  0  0  0
    8.8451  -15.3793   25.3181 O   0  0  0  0  0  0  0  0  0  0  0  0
   10.4080  -14.6382   31.1644 C   0  0  0  0  0  0  0  0  0  0  0  0
   10.4626  -15.1642   29.8603 C   0  0  0  0  0  0  0  0  0  0  0  0
   10.5125  -14.3409   28.7749 C   0  0  0  0  0  0  0  0  0  0  0  0
   10.5657  -14.8749   27.5050 C   0  0  0  0  0  0  0  0  0  0  0  0
   10.5711  -16.2373   27.2744 C   0  0  0  0  0  0  0  0  0  0  0  0
   10.6176  -16.7623   25.9117 C   0  0  2  0  0  0  0  0  0  0  0  0
   11.5516  -15.9756   24.9823 N   0  0  0  0  0  0  0  0  0  0  0  0
   10.6943  -15.3510   23.9809 C   0  0  0  0  0  0  0  0  0  0  0  0
   12.5030  -16.9176   24.3800 O   0  0  0  0  0  0  0  0  0  0  0  0
   12.3989  -17.2143   23.0322 C   0  0  0  0  0  0  0  0  0  0  0  0
   10.5194  -17.0516   28.3978 C   0  0  0  0  0  0  0  0  0  0  0  0
   10.4661  -16.5272   29.6697 O   0  0  0  0  0  0  0  0  0  0  0  0
  2  1  1  0
  3  2  2  0
  4  2  1  0
  5  4  1  0
  6  5  1  0
  7  6  1  0
  8 10  1  0
  8  7  1  0
  8  9  1  6
 10 12  1  0
 11 10  2  0
 12 13  1  0
 13 21  1  0
 14 15  1  0
 13 14  1  1
 15 20  2  0
 16 17  2  0
 16 15  1  0
 17 18  1  0
 18 19  2  0
 19 20  1  0
 21 22  2  0
 21 30  1  0
 23 24  1  0
 24 25  2  0
 25 26  1  0
 27 26  2  0
 27 28  1  0
 29 28  1  1
 29 31  1  0
 30 29  1  0
 31 32  1  0
 33 27  1  0
 34 24  1  0
 34 33  2  0
 35 31  2  0
M  END
$$$$
