RFY.pdb
     RDKit          3D

 35 36  0  0  1  0  0  0  0  0999 V2000
    9.6551  -14.5127   14.3913 N   0  0  0  0  0  0  0  0  0  0  0  0
    8.2410  -14.5191   14.2419 C   0  0  0  0  0  0  0  0  0  0  0  0
    7.6952  -15.1042   13.2539 N   0  0  0  0  0  0  0  0  0  0  0  0
    7.4179  -13.8622   15.2098 N   0  0  0  0  0  0  0  0  0  0  0  0
    7.9712  -13.3488   16.4554 C   0  0  0  0  0  0  0  0  0  0  0  0
    8.6322  -14.5021   17.1737 C   0  0  0  0  0  0  0  0  0  0  0  0
    8.5388  -14.3447   18.6743 C   0  0  0  0  0  0  0  0  0  0  0  0
    9.2603  -15.4218   19.4204 C   0  0  2  0  0  0  0  0  0  0  0  0
    8.4432  -16.6311   19.4556 N   0  0  0  0  0  0  0  0  0  0  0  0
    9.6142  -15.0625   20.8150 C   0  0  0  0  0  0  0  0  0  0  0  0
   10.6995  -14.4240   21.0495 O   0  0  0  0  0  0  0  0  0  0  0  0
    6.6806  -15.0575   13.0736 N   0  0  0  0  0  0  0  0  0  0  0  0
    8.7713  -15.4124   21.9062 C   0  0  1  0  0  0  0  0  0  0  0  0
    8.5478  -14.5627   23.0583 C   0  0  0  0  0  0  0  0  0  0  0  0
    7.0819  -14.3113   23.2869 C   0  0  0  0  0  0  0  0  0  0  0  0
    6.7908  -13.4971   24.4686 C   0  0  0  0  0  0  0  0  0  0  0  0
    6.2687  -14.0523   25.6168 C   0  0  0  0  0  0  0  0  0  0  0  0
    5.9875  -13.2928   26.7445 C   0  0  0  0  0  0  0  0  0  0  0  0
    6.2253  -11.9341   26.7533 C   0  0  0  0  0  0  0  0  0  0  0  0
    6.7476  -11.3642   25.6118 C   0  0  0  0  0  0  0  0  0  0  0  0
    7.0244  -12.1270   24.4945 C   0  0  0  0  0  0  0  0  0  0  0  0
    9.2956  -14.9956   24.2398 O   0  0  0  0  0  0  0  0  0  0  0  0
    9.1386  -14.4241   25.3717 O   0  0  0  0  0  0  0  0  0  0  0  0
   11.1752  -16.8837   31.8511 C   0  0  0  0  0  0  0  0  0  0  0  0
   11.1194  -16.5047   30.4969 C   0  0  0  0  0  0  0  0  0  0  0  0
   10.4342  -15.3918   30.1092 C   0  0  0  0  0  0  0  0  0  0  0  0
   10.3910  -15.0364   28.7778 C   0  0  0  0  0  0  0  0  0  0  0  0
   11.0243  -15.7720   27.7943 C   0  0  0  0  0  0  0  0  0  0  0  0
   10.9448  -15.3666   26.3929 C   0  0  1  0  0  0  0  0  0  0  0  0
   10.9109  -16.5473   25.4132 N   0  0  0  0  0  0  0  0  0  0  0  0
   10.2312  -16.0618   24.2173 C   0  0  0  0  0  0  0  0  0  0  0  0
   10.1824  -17.6524   26.0483 O   0  0  0  0  0  0  0  0  0  0  0  0
    8.8100  -17.5582   26.2004 C   0  0  0  0  0  0  0  0  0  0  0  0
   11.7141  -16.9001   28.2178 C   0  0  0  0  0  0  0  0  0  0  0  0
   11.7627  -17.2625   29.5452 O   0  0  0  0  0  0  0  0  0  0  0  0
  2  1  1  0
  3  2  2  0
  4  2  1  0
  5  4  1  0
  6  5  1  0
  7  6  1  0
  8 10  1  0
  8  7  1  0
  8  9  1  1
 10 12  1  0
 11 10  2  0
 12 13  1  0
 13 21  1  0
 14 15  1  0
 13 14  1  6
 15 20  2  0
 16 17  2  0
 16 15  1  0
 17 18  1  0
 18 19  2  0
 19 20  1  0
 21 22  2  0
 21 30  1  0
 23 24  1  0
 24 25  2  0
 25 26  1  0
 27 26  2  0
 27 28  1  0
 29 28  1  6
 29 31  1  0
 30 29  1  0
 31 32  1  0
 33 27  1  0
 34 24  1  0
 34 33  2  0
 35 31  2  0
M  END
$$$$
