RFY.pdb
     RDKit          3D

 35 36  0  0  1  0  0  0  0  0999 V2000
    8.2494  -11.9233   17.6790 N   0  0  0  0  0  0  0  0  0  0  0  0
    7.8913  -13.2462   17.2999 C   0  0  0  0  0  0  0  0  0  0  0  0
    6.6901  -13.6491   17.4050 N   0  0  0  0  0  0  0  0  0  0  0  0
    8.8883  -14.1384   16.7940 N   0  0  0  0  0  0  0  0  0  0  0  0
    8.5986  -15.5457   16.5555 C   0  0  0  0  0  0  0  0  0  0  0  0
    8.4537  -16.2186   17.9005 C   0  0  0  0  0  0  0  0  0  0  0  0
    9.7053  -16.9791   18.2754 C   0  0  0  0  0  0  0  0  0  0  0  0
    9.5855  -17.6914   19.5852 C   0  0  2  0  0  0  0  0  0  0  0  0
    8.2953  -18.3700   19.6626 N   0  0  0  0  0  0  0  0  0  0  0  0
    9.7158  -16.8097   20.7705 C   0  0  0  0  0  0  0  0  0  0  0  0
   10.8244  -16.2088   20.9951 O   0  0  0  0  0  0  0  0  0  0  0  0
    6.4116  -14.6210   17.2005 N   0  0  0  0  0  0  0  0  0  0  0  0
    8.6314  -16.6139   21.6702 C   0  0  2  0  0  0  0  0  0  0  0  0
    8.7474  -15.9154   22.9342 C   0  0  0  0  0  0  0  0  0  0  0  0
    7.3983  -15.5628   23.4998 C   0  0  0  0  0  0  0  0  0  0  0  0
    7.4290  -14.4961   24.5023 C   0  0  0  0  0  0  0  0  0  0  0  0
    6.6047  -14.5194   25.6065 C   0  0  0  0  0  0  0  0  0  0  0  0
    6.6227  -13.5150   26.5648 C   0  0  0  0  0  0  0  0  0  0  0  0
    7.4807  -12.4420   26.4415 C   0  0  0  0  0  0  0  0  0  0  0  0
    8.3116  -12.4047   25.3421 C   0  0  0  0  0  0  0  0  0  0  0  0
    8.2873  -13.4080   24.3935 C   0  0  0  0  0  0  0  0  0  0  0  0
    9.6597  -16.5760   23.8691 O   0  0  0  0  0  0  0  0  0  0  0  0
    9.6131  -17.8381   24.0630 O   0  0  0  0  0  0  0  0  0  0  0  0
    8.8583  -15.0687   30.9806 C   0  0  0  0  0  0  0  0  0  0  0  0
    9.6856  -15.1807   29.8476 C   0  0  0  0  0  0  0  0  0  0  0  0
    9.7842  -14.1601   28.9493 C   0  0  0  0  0  0  0  0  0  0  0  0
   10.6000  -14.2884   27.8454 C   0  0  0  0  0  0  0  0  0  0  0  0
   11.3402  -15.4293   27.6003 C   0  0  0  0  0  0  0  0  0  0  0  0
   12.1846  -15.5288   26.4122 C   0  0  1  0  0  0  0  0  0  0  0  0
   11.6824  -16.5536   25.3862 N   0  0  0  0  0  0  0  0  0  0  0  0
   10.6450  -15.8786   24.6143 C   0  0  0  0  0  0  0  0  0  0  0  0
   11.1571  -17.7151   26.1141 O   0  0  0  0  0  0  0  0  0  0  0  0
   12.0413  -18.6498   26.6241 C   0  0  0  0  0  0  0  0  0  0  0  0
   11.2201  -16.4522   28.5313 C   0  0  0  0  0  0  0  0  0  0  0  0
   10.4079  -16.3329   29.6367 O   0  0  0  0  0  0  0  0  0  0  0  0
  2  1  1  0
  3  2  2  0
  4  2  1  0
  5  4  1  0
  6  5  1  0
  7  6  1  0
  8 10  1  0
  8  7  1  0
  8  9  1  6
 10 12  1  0
 11 10  2  0
 12 13  1  0
 13 21  1  0
 14 15  1  0
 13 14  1  6
 15 20  2  0
 16 17  2  0
 16 15  1  0
 17 18  1  0
 18 19  2  0
 19 20  1  0
 21 22  2  0
 21 30  1  0
 23 24  1  0
 24 25  2  0
 25 26  1  0
 27 26  2  0
 27 28  1  0
 29 28  1  6
 29 31  1  0
 30 29  1  0
 31 32  1  0
 33 27  1  0
 34 24  1  0
 34 33  2  0
 35 31  2  0
M  END
$$$$
