RFY.pdb
     RDKit          3D

 35 36  0  0  1  0  0  0  0  0999 V2000
    7.3772  -15.1124   15.0588 N   0  0  0  0  0  0  0  0  0  0  0  0
    8.4338  -14.2863   15.5313 C   0  0  0  0  0  0  0  0  0  0  0  0
    8.6291  -13.1333   15.0324 N   0  0  0  0  0  0  0  0  0  0  0  0
    9.2897  -14.7511   16.5787 N   0  0  0  0  0  0  0  0  0  0  0  0
    9.3554  -16.1612   16.9374 C   0  0  0  0  0  0  0  0  0  0  0  0
    8.7424  -16.3146   18.3099 C   0  0  0  0  0  0  0  0  0  0  0  0
    9.6297  -15.7213   19.3804 C   0  0  0  0  0  0  0  0  0  0  0  0
    9.7324  -16.5841   20.5980 C   0  0  2  0  0  0  0  0  0  0  0  0
    8.6290  -17.5398   20.6211 N   0  0  0  0  0  0  0  0  0  0  0  0
    9.7207  -15.8338   21.8772 C   0  0  0  0  0  0  0  0  0  0  0  0
   10.7206  -15.0967   22.1893 O   0  0  0  0  0  0  0  0  0  0  0  0
    9.3875  -12.5120   15.3530 N   0  0  0  0  0  0  0  0  0  0  0  0
    8.6178  -15.9136   22.7721 C   0  0  1  0  0  0  0  0  0  0  0  0
    8.5264  -15.1651   24.0092 C   0  0  0  0  0  0  0  0  0  0  0  0
    7.1820  -14.5067   24.1619 C   0  0  0  0  0  0  0  0  0  0  0  0
    7.0437  -13.7014   25.3769 C   0  0  0  0  0  0  0  0  0  0  0  0
    7.5022  -12.4031   25.4384 C   0  0  0  0  0  0  0  0  0  0  0  0
    7.3783  -11.6279   26.5835 C   0  0  0  0  0  0  0  0  0  0  0  0
    6.7820  -12.1400   27.7170 C   0  0  0  0  0  0  0  0  0  0  0  0
    6.3182  -13.4374   27.6709 C   0  0  0  0  0  0  0  0  0  0  0  0
    6.4456  -14.2016   26.5277 C   0  0  0  0  0  0  0  0  0  0  0  0
    8.9798  -15.9289   25.1727 O   0  0  0  0  0  0  0  0  0  0  0  0
    8.4396  -17.0431   25.4876 O   0  0  0  0  0  0  0  0  0  0  0  0
   14.2410  -17.5461   21.8716 C   0  0  0  0  0  0  0  0  0  0  0  0
   13.7222  -17.1988   23.1328 C   0  0  0  0  0  0  0  0  0  0  0  0
   13.0846  -18.1228   23.9060 C   0  0  0  0  0  0  0  0  0  0  0  0
   12.5831  -17.7637   25.1390 C   0  0  0  0  0  0  0  0  0  0  0  0
   12.6987  -16.4812   25.6403 C   0  0  0  0  0  0  0  0  0  0  0  0
   12.1434  -16.1392   26.9478 C   0  0  2  0  0  0  0  0  0  0  0  0
   10.6265  -16.3503   27.0447 N   0  0  0  0  0  0  0  0  0  0  0  0
   10.0329  -15.4984   26.0202 C   0  0  0  0  0  0  0  0  0  0  0  0
   10.1934  -15.9688   28.3945 O   0  0  0  0  0  0  0  0  0  0  0  0
    9.3279  -14.9001   28.5499 C   0  0  0  0  0  0  0  0  0  0  0  0
   13.3522  -15.5611   24.8315 C   0  0  0  0  0  0  0  0  0  0  0  0
   13.8564  -15.9109   23.5990 O   0  0  0  0  0  0  0  0  0  0  0  0
  2  1  1  0
  3  2  2  0
  4  2  1  0
  5  4  1  0
  6  5  1  0
  7  6  1  0
  8 10  1  0
  8  7  1  0
  8  9  1  1
 10 12  1  0
 11 10  2  0
 12 13  1  0
 13 21  1  0
 14 15  1  0
 13 14  1  1
 15 20  2  0
 16 17  2  0
 16 15  1  0
 17 18  1  0
 18 19  2  0
 19 20  1  0
 21 22  2  0
 21 30  1  0
 23 24  1  0
 24 25  2  0
 25 26  1  0
 27 26  2  0
 27 28  1  0
 29 28  1  6
 29 31  1  0
 30 29  1  0
 31 32  1  0
 33 27  1  0
 34 24  1  0
 34 33  2  0
 35 31  2  0
M  END
$$$$
