HDI.pdb
     RDKit          3D

 27 27  0  0  1  0  0  0  0  0999 V2000
   26.3626  -19.0181  -17.7896 N   0  0  0  0  0  0  0  0  0  0  0  0
   26.1147  -17.6622  -17.2248 C   0  0  1  0  0  0  0  0  0  0  0  0
   25.8858  -16.7919  -18.3939 C   0  0  0  0  0  0  0  0  0  0  0  0
   26.9223  -16.6988  -19.4091 C   0  0  0  0  0  0  0  0  0  0  0  0
   28.1272  -16.0715  -19.4308 C   0  0  0  0  0  0  0  0  0  0  0  0
   28.7181  -16.3666  -20.6120 N   0  0  0  0  0  0  0  0  0  0  0  0
   27.9079  -17.1552  -21.3066 C   0  0  0  0  0  0  0  0  0  0  0  0
   26.8002  -17.3770  -20.5967 N   0  0  0  0  0  0  0  0  0  0  0  0
   24.9407  -17.8017  -16.3082 C   0  0  0  0  0  0  0  0  0  0  0  0
   24.4388  -16.8246  -15.7513 O   0  0  0  0  0  0  0  0  0  0  0  0
   24.3523  -19.0719  -16.0399 N   0  0  0  0  0  0  0  0  0  0  0  0
   23.2548  -19.2261  -15.1434 C   0  0  1  0  0  0  0  0  0  0  0  0
   21.9414  -19.4913  -15.8353 C   0  0  0  0  0  0  0  0  0  0  0  0
   20.8099  -19.5709  -14.8916 C   0  0  0  0  0  0  0  0  0  0  0  0
   20.9472  -20.2415  -13.8358 O   0  0  0  0  0  0  0  0  0  0  0  0
   23.5293  -20.2210  -14.0693 C   0  0  0  0  0  0  0  0  0  0  0  0
   23.7047  -21.4132  -14.4168 O   0  0  0  0  0  0  0  0  0  0  0  0
   19.5842  -18.9548  -15.0780 O   0  0  0  0  0  0  0  0  0  0  0  0
   26.7950  -21.0588   -9.2256 C   0  0  0  0  0  0  0  0  0  0  0  0
   25.4726  -21.4262   -9.8908 C   0  0  0  0  0  0  0  0  0  0  0  0
   25.1311  -20.4569  -10.9748 C   0  0  2  0  0  0  0  0  0  0  0  0
   25.2182  -19.0237  -10.5451 C   0  0  0  0  0  0  0  0  0  0  0  0
   23.8503  -20.8475  -11.6389 C   0  0  2  0  0  0  0  0  0  0  0  0
   23.5989  -19.8833  -12.7022 N   0  0  0  0  0  0  0  0  0  0  0  0
   22.6873  -20.9543  -10.7293 C   0  0  0  0  0  0  0  0  0  0  0  0
   21.7199  -20.1630  -10.7201 O   0  0  0  0  0  0  0  0  0  0  0  0
   22.6628  -22.0032   -9.8212 O   0  0  0  0  0  0  0  0  0  0  0  0
  2  9  1  0
  2  1  1  6
  3  2  1  0
  4  3  1  0
  4  8  1  0
  5  6  1  0
  5  4  2  0
  6  7  1  0
  7  8  2  0
  9 11  1  0
 10  9  2  0
 11 12  1  0
 12 16  1  0
 12 13  1  6
 14 13  1  0
 14 15  2  0
 16 17  2  0
 16 24  1  0
 18 14  1  0
 20 19  1  0
 21 20  1  0
 21 22  1  1
 23 21  1  0
 23 24  1  6
 25 23  1  0
 25 27  1  0
 26 25  2  0
M  END
$$$$
