HDI.pdb
     RDKit          3D

 27 27  0  0  1  0  0  0  0  0999 V2000
   25.8038  -35.7526   -5.6422 N   0  0  0  0  0  0  0  0  0  0  0  0
   25.4885  -34.3669   -5.1956 C   0  0  1  0  0  0  0  0  0  0  0  0
   24.7285  -33.7654   -6.3079 C   0  0  0  0  0  0  0  0  0  0  0  0
   25.4525  -33.3136   -7.4849 C   0  0  0  0  0  0  0  0  0  0  0  0
   26.7545  -33.4258   -7.8564 C   0  0  0  0  0  0  0  0  0  0  0  0
   26.8749  -32.8764   -9.0873 N   0  0  0  0  0  0  0  0  0  0  0  0
   25.6845  -32.4356   -9.4737 C   0  0  0  0  0  0  0  0  0  0  0  0
   24.7926  -32.6889   -8.5142 N   0  0  0  0  0  0  0  0  0  0  0  0
   24.7239  -34.5057   -3.9173 C   0  0  0  0  0  0  0  0  0  0  0  0
   24.1961  -35.5708   -3.5951 O   0  0  0  0  0  0  0  0  0  0  0  0
   24.5733  -33.4110   -3.0171 N   0  0  0  0  0  0  0  0  0  0  0  0
   23.9639  -33.5590   -1.7370 C   0  0  1  0  0  0  0  0  0  0  0  0
   24.6291  -34.5956   -0.8668 C   0  0  0  0  0  0  0  0  0  0  0  0
   23.9374  -34.7807    0.4233 C   0  0  0  0  0  0  0  0  0  0  0  0
   24.5900  -35.2259    1.4026 O   0  0  0  0  0  0  0  0  0  0  0  0
   23.7996  -32.2593   -1.0282 C   0  0  0  0  0  0  0  0  0  0  0  0
   24.5918  -31.3339   -1.3265 O   0  0  0  0  0  0  0  0  0  0  0  0
   22.6008  -34.4984    0.6478 O   0  0  0  0  0  0  0  0  0  0  0  0
   21.2334  -27.7595   -1.7707 C   0  0  0  0  0  0  0  0  0  0  0  0
   21.5301  -28.5738   -0.5157 C   0  0  0  0  0  0  0  0  0  0  0  0
   21.9767  -29.9552   -0.8669 C   0  0  2  0  0  0  0  0  0  0  0  0
   21.0320  -30.6751   -1.7811 C   0  0  0  0  0  0  0  0  0  0  0  0
   22.3689  -30.7053    0.3650 C   0  0  2  0  0  0  0  0  0  0  0  0
   22.8074  -32.0307   -0.0528 N   0  0  0  0  0  0  0  0  0  0  0  0
   21.3139  -30.7938    1.3997 C   0  0  0  0  0  0  0  0  0  0  0  0
   20.7719  -29.8085    1.9451 O   0  0  0  0  0  0  0  0  0  0  0  0
   20.8928  -32.0549    1.7964 O   0  0  0  0  0  0  0  0  0  0  0  0
  2  9  1  0
  2  1  1  6
  3  2  1  0
  4  3  1  0
  4  8  1  0
  5  6  1  0
  5  4  2  0
  6  7  1  0
  7  8  2  0
  9 11  1  0
 10  9  2  0
 11 12  1  0
 12 16  1  0
 12 13  1  1
 14 13  1  0
 14 15  2  0
 16 17  2  0
 16 24  1  0
 18 14  1  0
 20 19  1  0
 21 20  1  0
 21 22  1  1
 23 21  1  0
 23 24  1  6
 25 23  1  0
 25 27  1  0
 26 25  2  0
M  END
$$$$
