HDI.pdb
     RDKit          3D

 27 27  0  0  1  0  0  0  0  0999 V2000
   26.8369  -20.4604  -18.8858 N   0  0  0  0  0  0  0  0  0  0  0  0
   27.4368  -20.3393  -17.5277 C   0  0  1  0  0  0  0  0  0  0  0  0
   28.6195  -19.4750  -17.7028 C   0  0  0  0  0  0  0  0  0  0  0  0
   29.7956  -20.0245  -18.3572 C   0  0  0  0  0  0  0  0  0  0  0  0
   30.5627  -21.1146  -18.0944 C   0  0  0  0  0  0  0  0  0  0  0  0
   31.5023  -21.1942  -19.0652 N   0  0  0  0  0  0  0  0  0  0  0  0
   31.3270  -20.1856  -19.9093 C   0  0  0  0  0  0  0  0  0  0  0  0
   30.2894  -19.4516  -19.5031 N   0  0  0  0  0  0  0  0  0  0  0  0
   26.3680  -19.7685  -16.6503 C   0  0  0  0  0  0  0  0  0  0  0  0
   25.9293  -18.6313  -16.8266 O   0  0  0  0  0  0  0  0  0  0  0  0
   25.8113  -20.5164  -15.5722 N   0  0  0  0  0  0  0  0  0  0  0  0
   24.7455  -20.0138  -14.7701 C   0  0  1  0  0  0  0  0  0  0  0  0
   23.5118  -19.6549  -15.5596 C   0  0  0  0  0  0  0  0  0  0  0  0
   22.3880  -19.2411  -14.6976 C   0  0  0  0  0  0  0  0  0  0  0  0
   22.6028  -18.4071  -13.7803 O   0  0  0  0  0  0  0  0  0  0  0  0
   24.4298  -20.9020  -13.6168 C   0  0  0  0  0  0  0  0  0  0  0  0
   24.0164  -22.0579  -13.8736 O   0  0  0  0  0  0  0  0  0  0  0  0
   21.0897  -19.7062  -14.8191 O   0  0  0  0  0  0  0  0  0  0  0  0
   26.2769  -19.6698   -8.3435 C   0  0  0  0  0  0  0  0  0  0  0  0
   25.1997  -19.8770   -9.4032 C   0  0  0  0  0  0  0  0  0  0  0  0
   25.4169  -21.1553  -10.1447 C   0  0  2  0  0  0  0  0  0  0  0  0
   26.8063  -21.3039  -10.6868 C   0  0  0  0  0  0  0  0  0  0  0  0
   24.3186  -21.3771  -11.1339 C   0  0  2  0  0  0  0  0  0  0  0  0
   24.5740  -20.5036  -12.2720 N   0  0  0  0  0  0  0  0  0  0  0  0
   22.9528  -21.1732  -10.6007 C   0  0  0  0  0  0  0  0  0  0  0  0
   22.4330  -21.8662   -9.6999 O   0  0  0  0  0  0  0  0  0  0  0  0
   22.1912  -20.1428  -11.1332 O   0  0  0  0  0  0  0  0  0  0  0  0
  2  9  1  0
  2  1  1  6
  3  2  1  0
  4  3  1  0
  4  8  1  0
  5  6  1  0
  5  4  2  0
  6  7  1  0
  7  8  2  0
  9 11  1  0
 10  9  2  0
 11 12  1  0
 12 16  1  0
 12 13  1  6
 14 13  1  0
 14 15  2  0
 16 17  2  0
 16 24  1  0
 18 14  1  0
 20 19  1  0
 21 20  1  0
 21 22  1  6
 23 21  1  0
 23 24  1  6
 25 23  1  0
 25 27  1  0
 26 25  2  0
M  END
$$$$
