HDI.pdb
     RDKit          3D

 27 27  0  0  1  0  0  0  0  0999 V2000
   27.1040  -20.8527  -17.4101 N   0  0  0  0  0  0  0  0  0  0  0  0
   27.3745  -21.5347  -16.1137 C   0  0  1  0  0  0  0  0  0  0  0  0
   28.8315  -21.4198  -15.9127 C   0  0  0  0  0  0  0  0  0  0  0  0
   29.7178  -22.1909  -16.7690 C   0  0  0  0  0  0  0  0  0  0  0  0
   30.4502  -21.8573  -17.8636 C   0  0  0  0  0  0  0  0  0  0  0  0
   31.1494  -22.9549  -18.2351 N   0  0  0  0  0  0  0  0  0  0  0  0
   30.8638  -23.9436  -17.3975 C   0  0  0  0  0  0  0  0  0  0  0  0
   29.9902  -23.5070  -16.4883 N   0  0  0  0  0  0  0  0  0  0  0  0
   26.5432  -20.8277  -15.0904 C   0  0  0  0  0  0  0  0  0  0  0  0
   26.4380  -19.6007  -15.0822 O   0  0  0  0  0  0  0  0  0  0  0  0
   25.8369  -21.5441  -14.0806 N   0  0  0  0  0  0  0  0  0  0  0  0
   25.0359  -20.8859  -13.1024 C   0  0  1  0  0  0  0  0  0  0  0  0
   23.5712  -20.8317  -13.4570 C   0  0  0  0  0  0  0  0  0  0  0  0
   22.7575  -20.1893  -12.4072 C   0  0  0  0  0  0  0  0  0  0  0  0
   23.1787  -19.1283  -11.8779 O   0  0  0  0  0  0  0  0  0  0  0  0
   25.2570  -21.4193  -11.7293 C   0  0  0  0  0  0  0  0  0  0  0  0
   25.2491  -22.6651  -11.5849 O   0  0  0  0  0  0  0  0  0  0  0  0
   21.5429  -20.6695  -11.9479 O   0  0  0  0  0  0  0  0  0  0  0  0
   27.9106  -19.7015   -6.4965 C   0  0  0  0  0  0  0  0  0  0  0  0
   26.9891  -20.6762   -7.2225 C   0  0  0  0  0  0  0  0  0  0  0  0
   26.5601  -20.1250   -8.5429 C   0  0  2  0  0  0  0  0  0  0  0  0
   26.0284  -18.7259   -8.4629 C   0  0  0  0  0  0  0  0  0  0  0  0
   25.6815  -21.1021   -9.2550 C   0  0  2  0  0  0  0  0  0  0  0  0
   25.4711  -20.5956  -10.6051 N   0  0  0  0  0  0  0  0  0  0  0  0
   24.3924  -21.3817   -8.5830 C   0  0  0  0  0  0  0  0  0  0  0  0
   24.2761  -21.9941   -7.4999 O   0  0  0  0  0  0  0  0  0  0  0  0
   23.2284  -20.9357   -9.1925 O   0  0  0  0  0  0  0  0  0  0  0  0
  2  9  1  0
  2  1  1  6
  3  2  1  0
  4  3  1  0
  4  8  1  0
  5  6  1  0
  5  4  2  0
  6  7  1  0
  7  8  2  0
  9 11  1  0
 10  9  2  0
 11 12  1  0
 12 16  1  0
 12 13  1  6
 14 13  1  0
 14 15  2  0
 16 17  2  0
 16 24  1  0
 18 14  1  0
 20 19  1  0
 21 20  1  0
 21 22  1  1
 23 21  1  0
 23 24  1  6
 25 23  1  0
 25 27  1  0
 26 25  2  0
M  END
$$$$
