HDI.pdb
     RDKit          3D

 27 27  0  0  1  0  0  0  0  0999 V2000
   15.9749  -13.9446  -18.8486 N   0  0  0  0  0  0  0  0  0  0  0  0
   16.1463  -13.1055  -17.6298 C   0  0  1  0  0  0  0  0  0  0  0  0
   16.7109  -14.0122  -16.6121 C   0  0  0  0  0  0  0  0  0  0  0  0
   15.8647  -15.0589  -16.0625 C   0  0  0  0  0  0  0  0  0  0  0  0
   15.7657  -16.3878  -16.3270 C   0  0  0  0  0  0  0  0  0  0  0  0
   14.8513  -16.9052  -15.4740 N   0  0  0  0  0  0  0  0  0  0  0  0
   14.3939  -15.9299  -14.6993 C   0  0  0  0  0  0  0  0  0  0  0  0
   14.9954  -14.7872  -15.0350 N   0  0  0  0  0  0  0  0  0  0  0  0
   17.0411  -11.9740  -18.0262 C   0  0  0  0  0  0  0  0  0  0  0  0
   17.2038  -11.6651  -19.2073 O   0  0  0  0  0  0  0  0  0  0  0  0
   17.7440  -11.2046  -17.0538 N   0  0  0  0  0  0  0  0  0  0  0  0
   18.5203  -10.0622  -17.4061 C   0  0  1  0  0  0  0  0  0  0  0  0
   17.7899   -9.0845  -18.2919 C   0  0  0  0  0  0  0  0  0  0  0  0
   18.6186   -7.9181  -18.6523 C   0  0  0  0  0  0  0  0  0  0  0  0
   18.5175   -6.8677  -17.9670 O   0  0  0  0  0  0  0  0  0  0  0  0
   19.1256   -9.3944  -16.2201 C   0  0  0  0  0  0  0  0  0  0  0  0
   18.3543   -9.0563  -15.2908 O   0  0  0  0  0  0  0  0  0  0  0  0
   19.5168   -7.8855  -19.7053 O   0  0  0  0  0  0  0  0  0  0  0  0
   23.2661  -11.9854  -14.9980 C   0  0  0  0  0  0  0  0  0  0  0  0
   22.0227  -11.1021  -15.0019 C   0  0  0  0  0  0  0  0  0  0  0  0
   22.3787   -9.6754  -14.7390 C   0  0  2  0  0  0  0  0  0  0  0  0
   23.1991   -9.4821  -13.4996 C   0  0  0  0  0  0  0  0  0  0  0  0
   21.1662   -8.8078  -14.8436 C   0  0  2  0  0  0  0  0  0  0  0  0
   20.5058   -9.1316  -16.1017 N   0  0  0  0  0  0  0  0  0  0  0  0
   21.4317   -7.3553  -14.7388 C   0  0  0  0  0  0  0  0  0  0  0  0
   21.7012   -6.6124  -15.7070 O   0  0  0  0  0  0  0  0  0  0  0  0
   21.3794   -6.7712  -13.4812 O   0  0  0  0  0  0  0  0  0  0  0  0
  2  9  1  0
  2  1  1  6
  3  2  1  0
  4  3  1  0
  4  8  1  0
  5  6  1  0
  5  4  2  0
  6  7  1  0
  7  8  2  0
  9 11  1  0
 10  9  2  0
 11 12  1  0
 12 16  1  0
 12 13  1  1
 14 13  1  0
 14 15  2  0
 16 17  2  0
 16 24  1  0
 18 14  1  0
 20 19  1  0
 21 20  1  0
 21 22  1  1
 23 21  1  0
 23 24  1  6
 25 23  1  0
 25 27  1  0
 26 25  2  0
M  END
$$$$
