HDI.pdb
     RDKit          3D

 27 27  0  0  1  0  0  0  0  0999 V2000
   27.0493  -18.0989  -19.3825 N   0  0  0  0  0  0  0  0  0  0  0  0
   27.4056  -18.1601  -17.9374 C   0  0  1  0  0  0  0  0  0  0  0  0
   28.3708  -17.0637  -17.7302 C   0  0  0  0  0  0  0  0  0  0  0  0
   29.7144  -17.2051  -18.2673 C   0  0  0  0  0  0  0  0  0  0  0  0
   30.3097  -18.1859  -18.9948 C   0  0  0  0  0  0  0  0  0  0  0  0
   31.5660  -17.7731  -19.2826 N   0  0  0  0  0  0  0  0  0  0  0  0
   31.7497  -16.5708  -18.7523 C   0  0  0  0  0  0  0  0  0  0  0  0
   30.6339  -16.1955  -18.1242 N   0  0  0  0  0  0  0  0  0  0  0  0
   26.1205  -18.0137  -17.1857 C   0  0  0  0  0  0  0  0  0  0  0  0
   25.6750  -16.9067  -16.8812 O   0  0  0  0  0  0  0  0  0  0  0  0
   25.3561  -19.1497  -16.7893 N   0  0  0  0  0  0  0  0  0  0  0  0
   24.1523  -19.0292  -16.0356 C   0  0  1  0  0  0  0  0  0  0  0  0
   22.9163  -18.8902  -16.8884 C   0  0  0  0  0  0  0  0  0  0  0  0
   21.6928  -18.6999  -16.0859 C   0  0  0  0  0  0  0  0  0  0  0  0
   21.7851  -18.1384  -14.9637 O   0  0  0  0  0  0  0  0  0  0  0  0
   24.0066  -20.1044  -15.0151 C   0  0  0  0  0  0  0  0  0  0  0  0
   23.9055  -21.2841  -15.4286 O   0  0  0  0  0  0  0  0  0  0  0  0
   20.4254  -19.0976  -16.4760 O   0  0  0  0  0  0  0  0  0  0  0  0
   27.2868  -20.7978  -11.2159 C   0  0  0  0  0  0  0  0  0  0  0  0
   26.1666  -20.9495  -12.2398 C   0  0  0  0  0  0  0  0  0  0  0  0
   24.8289  -20.7655  -11.6011 C   0  0  2  0  0  0  0  0  0  0  0  0
   24.6373  -21.5916  -10.3652 C   0  0  0  0  0  0  0  0  0  0  0  0
   23.7434  -20.8825  -12.6218 C   0  0  2  0  0  0  0  0  0  0  0  0
   23.9783  -19.8547  -13.6277 N   0  0  0  0  0  0  0  0  0  0  0  0
   22.3691  -20.7936  -12.0788 C   0  0  0  0  0  0  0  0  0  0  0  0
   21.7603  -19.7237  -11.8629 O   0  0  0  0  0  0  0  0  0  0  0  0
   21.7047  -21.9763  -11.7870 O   0  0  0  0  0  0  0  0  0  0  0  0
  2  9  1  0
  2  1  1  6
  3  2  1  0
  4  3  1  0
  4  8  1  0
  5  6  1  0
  5  4  2  0
  6  7  1  0
  7  8  2  0
  9 11  1  0
 10  9  2  0
 11 12  1  0
 12 16  1  0
 12 13  1  6
 14 13  1  0
 14 15  2  0
 16 17  2  0
 16 24  1  0
 18 14  1  0
 20 19  1  0
 21 20  1  0
 21 22  1  1
 23 21  1  0
 23 24  1  6
 25 23  1  0
 25 27  1  0
 26 25  2  0
M  END
$$$$
