HDI.pdb
     RDKit          3D

 27 27  0  0  1  0  0  0  0  0999 V2000
   15.5319  -10.6169  -12.8851 N   0  0  0  0  0  0  0  0  0  0  0  0
   15.6325   -9.6854  -14.0432 C   0  0  1  0  0  0  0  0  0  0  0  0
   14.2676   -9.6091  -14.5981 C   0  0  0  0  0  0  0  0  0  0  0  0
   13.6489  -10.8249  -15.1006 C   0  0  0  0  0  0  0  0  0  0  0  0
   12.7628  -11.6950  -14.5497 C   0  0  0  0  0  0  0  0  0  0  0  0
   12.4722  -12.6273  -15.4867 N   0  0  0  0  0  0  0  0  0  0  0  0
   13.1548  -12.3477  -16.5897 C   0  0  0  0  0  0  0  0  0  0  0  0
   13.8844  -11.2495  -16.3850 N   0  0  0  0  0  0  0  0  0  0  0  0
   16.1591   -8.3966  -13.4958 C   0  0  0  0  0  0  0  0  0  0  0  0
   16.1957   -7.3733  -14.1802 O   0  0  0  0  0  0  0  0  0  0  0  0
   16.6413   -8.2974  -12.1581 N   0  0  0  0  0  0  0  0  0  0  0  0
   17.1626   -7.0816  -11.6272 C   0  0  1  0  0  0  0  0  0  0  0  0
   16.6673   -6.7668  -10.2381 C   0  0  0  0  0  0  0  0  0  0  0  0
   17.2107   -5.4979   -9.7168 C   0  0  0  0  0  0  0  0  0  0  0  0
   17.6314   -4.6378  -10.5332 O   0  0  0  0  0  0  0  0  0  0  0  0
   18.6476   -7.0079  -11.7190 C   0  0  0  0  0  0  0  0  0  0  0  0
   19.3100   -7.4870  -10.7679 O   0  0  0  0  0  0  0  0  0  0  0  0
   17.2970   -5.1707   -8.3744 O   0  0  0  0  0  0  0  0  0  0  0  0
   21.4119   -9.6807  -14.5541 C   0  0  0  0  0  0  0  0  0  0  0  0
   20.9178   -8.6765  -13.5180 C   0  0  0  0  0  0  0  0  0  0  0  0
   21.2510   -7.2787  -13.9257 C   0  0  2  0  0  0  0  0  0  0  0  0
   22.6748   -7.1057  -14.3609 C   0  0  0  0  0  0  0  0  0  0  0  0
   20.7765   -6.3074  -12.8935 C   0  0  2  0  0  0  0  0  0  0  0  0
   19.3269   -6.4316  -12.8119 N   0  0  0  0  0  0  0  0  0  0  0  0
   21.1792   -4.9029  -13.1316 C   0  0  0  0  0  0  0  0  0  0  0  0
   20.5031   -4.0712  -13.7743 O   0  0  0  0  0  0  0  0  0  0  0  0
   22.3901   -4.4733  -12.6079 O   0  0  0  0  0  0  0  0  0  0  0  0
  2  9  1  0
  2  1  1  1
  3  2  1  0
  4  3  1  0
  4  8  1  0
  5  6  1  0
  5  4  2  0
  6  7  1  0
  7  8  2  0
  9 11  1  0
 10  9  2  0
 11 12  1  0
 12 16  1  0
 12 13  1  1
 14 13  1  0
 14 15  2  0
 16 17  2  0
 16 24  1  0
 18 14  1  0
 20 19  1  0
 21 20  1  0
 21 22  1  1
 23 21  1  0
 23 24  1  6
 25 23  1  0
 25 27  1  0
 26 25  2  0
M  END
$$$$
