HDI.pdb
     RDKit          3D

 27 27  0  0  1  0  0  0  0  0999 V2000
   19.2573  -23.6953  -13.6283 N   0  0  0  0  0  0  0  0  0  0  0  0
   19.4065  -22.8983  -12.3787 C   0  0  1  0  0  0  0  0  0  0  0  0
   19.3947  -21.4890  -12.8148 C   0  0  0  0  0  0  0  0  0  0  0  0
   20.5124  -20.9914  -13.6001 C   0  0  0  0  0  0  0  0  0  0  0  0
   20.7243  -20.9099  -14.9396 C   0  0  0  0  0  0  0  0  0  0  0  0
   21.9183  -20.3008  -15.1261 N   0  0  0  0  0  0  0  0  0  0  0  0
   22.4361  -20.0093  -13.9397 C   0  0  0  0  0  0  0  0  0  0  0  0
   21.5987  -20.4194  -12.9853 N   0  0  0  0  0  0  0  0  0  0  0  0
   18.2639  -23.2906  -11.4963 C   0  0  0  0  0  0  0  0  0  0  0  0
   17.0969  -23.2160  -11.8825 O   0  0  0  0  0  0  0  0  0  0  0  0
   18.4769  -23.7678  -10.1702 N   0  0  0  0  0  0  0  0  0  0  0  0
   17.4007  -24.1663   -9.3247 C   0  0  1  0  0  0  0  0  0  0  0  0
   16.5448  -25.2609   -9.9107 C   0  0  0  0  0  0  0  0  0  0  0  0
   17.3380  -26.4210  -10.3603 C   0  0  0  0  0  0  0  0  0  0  0  0
   18.5738  -26.4384  -10.1244 O   0  0  0  0  0  0  0  0  0  0  0  0
   17.8497  -24.4904   -7.9419 C   0  0  0  0  0  0  0  0  0  0  0  0
   19.0845  -24.5033   -7.7232 O   0  0  0  0  0  0  0  0  0  0  0  0
   16.8217  -27.5142  -11.0348 O   0  0  0  0  0  0  0  0  0  0  0  0
   15.3689  -24.5657   -2.2953 C   0  0  0  0  0  0  0  0  0  0  0  0
   16.5775  -24.8100   -3.1929 C   0  0  0  0  0  0  0  0  0  0  0  0
   16.2273  -24.6039   -4.6303 C   0  0  2  0  0  0  0  0  0  0  0  0
   14.9036  -25.1930   -5.0140 C   0  0  0  0  0  0  0  0  0  0  0  0
   17.3753  -24.9884   -5.5068 C   0  0  2  0  0  0  0  0  0  0  0  0
   16.9590  -24.7783   -6.8875 N   0  0  0  0  0  0  0  0  0  0  0  0
   17.8760  -26.3667   -5.3043 C   0  0  0  0  0  0  0  0  0  0  0  0
   17.5062  -27.3595   -5.9672 O   0  0  0  0  0  0  0  0  0  0  0  0
   18.8218  -26.5783   -4.3113 O   0  0  0  0  0  0  0  0  0  0  0  0
  2  9  1  0
  2  1  1  6
  3  2  1  0
  4  3  1  0
  4  8  1  0
  5  6  1  0
  5  4  2  0
  6  7  1  0
  7  8  2  0
  9 11  1  0
 10  9  2  0
 11 12  1  0
 12 16  1  0
 12 13  1  6
 14 13  1  0
 14 15  2  0
 16 17  2  0
 16 24  1  0
 18 14  1  0
 20 19  1  0
 21 20  1  0
 21 22  1  6
 23 21  1  0
 23 24  1  6
 25 23  1  0
 25 27  1  0
 26 25  2  0
M  END
$$$$
