HDI.pdb
     RDKit          3D

 27 27  0  0  1  0  0  0  0  0999 V2000
   21.1119  -11.3052  -20.0796 N   0  0  0  0  0  0  0  0  0  0  0  0
   21.8429  -11.0934  -18.7991 C   0  0  1  0  0  0  0  0  0  0  0  0
   23.2301  -10.7809  -19.1926 C   0  0  0  0  0  0  0  0  0  0  0  0
   24.0598  -11.8457  -19.7323 C   0  0  0  0  0  0  0  0  0  0  0  0
   24.7762  -12.8362  -19.1396 C   0  0  0  0  0  0  0  0  0  0  0  0
   25.3156  -13.5928  -20.1236 N   0  0  0  0  0  0  0  0  0  0  0  0
   24.9464  -13.0912  -21.2953 C   0  0  0  0  0  0  0  0  0  0  0  0
   24.1766  -12.0211  -21.0891 N   0  0  0  0  0  0  0  0  0  0  0  0
   21.1283   -9.9866  -18.0904 C   0  0  0  0  0  0  0  0  0  0  0  0
   20.6190   -9.0501  -18.7072 O   0  0  0  0  0  0  0  0  0  0  0  0
   21.0062   -9.9682  -16.6704 N   0  0  0  0  0  0  0  0  0  0  0  0
   20.2452   -8.9756  -15.9867 C   0  0  1  0  0  0  0  0  0  0  0  0
   19.1620   -9.5447  -15.1052 C   0  0  0  0  0  0  0  0  0  0  0  0
   18.3561   -8.4969  -14.4498 C   0  0  0  0  0  0  0  0  0  0  0  0
   18.2704   -7.3670  -14.9969 O   0  0  0  0  0  0  0  0  0  0  0  0
   21.1024   -8.0004  -15.2565 C   0  0  0  0  0  0  0  0  0  0  0  0
   22.0624   -8.4586  -14.5922 O   0  0  0  0  0  0  0  0  0  0  0  0
   17.6725   -8.6599  -13.2570 O   0  0  0  0  0  0  0  0  0  0  0  0
   22.8997   -2.2237  -15.8897 C   0  0  0  0  0  0  0  0  0  0  0  0
   22.7310   -3.4047  -14.9394 C   0  0  0  0  0  0  0  0  0  0  0  0
   21.8155   -4.4323  -15.5198 C   0  0  2  0  0  0  0  0  0  0  0  0
   20.4870   -3.8806  -15.9408 C   0  0  0  0  0  0  0  0  0  0  0  0
   21.7557   -5.6360  -14.6357 C   0  0  2  0  0  0  0  0  0  0  0  0
   20.8825   -6.6079  -15.2811 N   0  0  0  0  0  0  0  0  0  0  0  0
   21.3186   -5.3650  -13.2475 C   0  0  0  0  0  0  0  0  0  0  0  0
   20.2056   -5.6874  -12.7794 O   0  0  0  0  0  0  0  0  0  0  0  0
   22.2008   -4.7079  -12.4019 O   0  0  0  0  0  0  0  0  0  0  0  0
  2  9  1  0
  2  1  1  6
  3  2  1  0
  4  3  1  0
  4  8  1  0
  5  6  1  0
  5  4  2  0
  6  7  1  0
  7  8  2  0
  9 11  1  0
 10  9  2  0
 11 12  1  0
 12 16  1  0
 12 13  1  1
 14 13  1  0
 14 15  2  0
 16 17  2  0
 16 24  1  0
 18 14  1  0
 20 19  1  0
 21 20  1  0
 21 22  1  1
 23 21  1  0
 23 24  1  6
 25 23  1  0
 25 27  1  0
 26 25  2  0
M  END
$$$$
