HDI.pdb
     RDKit          3D

 27 27  0  0  1  0  0  0  0  0999 V2000
   22.0559  -13.0324  -17.3465 N   0  0  0  0  0  0  0  0  0  0  0  0
   20.6995  -12.4235  -17.2551 C   0  0  1  0  0  0  0  0  0  0  0  0
   19.9135  -13.3532  -16.4216 C   0  0  0  0  0  0  0  0  0  0  0  0
   19.5245  -14.6364  -16.9833 C   0  0  0  0  0  0  0  0  0  0  0  0
   19.8297  -15.2518  -18.1554 C   0  0  0  0  0  0  0  0  0  0  0  0
   19.2421  -16.4708  -18.1398 N   0  0  0  0  0  0  0  0  0  0  0  0
   18.5907  -16.6133  -16.9926 C   0  0  0  0  0  0  0  0  0  0  0  0
   18.7448  -15.5072  -16.2626 N   0  0  0  0  0  0  0  0  0  0  0  0
   20.8932  -11.0631  -16.6638 C   0  0  0  0  0  0  0  0  0  0  0  0
   21.5734  -10.8918  -15.6515 O   0  0  0  0  0  0  0  0  0  0  0  0
   20.2987   -9.9062  -17.2469 N   0  0  0  0  0  0  0  0  0  0  0  0
   20.3959   -8.6177  -16.6451 C   0  0  1  0  0  0  0  0  0  0  0  0
   21.5680   -7.8069  -17.1379 C   0  0  0  0  0  0  0  0  0  0  0  0
   22.6844   -7.7811  -16.1735 C   0  0  0  0  0  0  0  0  0  0  0  0
   22.4760   -8.1678  -14.9944 O   0  0  0  0  0  0  0  0  0  0  0  0
   19.1193   -7.8537  -16.7206 C   0  0  0  0  0  0  0  0  0  0  0  0
   18.6079   -7.6931  -17.8544 O   0  0  0  0  0  0  0  0  0  0  0  0
   23.9691   -7.3569  -16.4672 O   0  0  0  0  0  0  0  0  0  0  0  0
   15.0803   -9.4556  -15.0587 C   0  0  0  0  0  0  0  0  0  0  0  0
   15.6948   -8.3276  -15.8809 C   0  0  0  0  0  0  0  0  0  0  0  0
   16.1710   -7.2202  -14.9989 C   0  0  2  0  0  0  0  0  0  0  0  0
   15.0630   -6.3698  -14.4551 C   0  0  0  0  0  0  0  0  0  0  0  0
   17.2856   -6.4724  -15.6566 C   0  0  2  0  0  0  0  0  0  0  0  0
   18.4738   -7.3133  -15.5895 N   0  0  0  0  0  0  0  0  0  0  0  0
   17.5496   -5.1295  -15.0923 C   0  0  0  0  0  0  0  0  0  0  0  0
   17.1057   -4.0619  -15.5666 O   0  0  0  0  0  0  0  0  0  0  0  0
   18.3442   -5.0427  -13.9582 O   0  0  0  0  0  0  0  0  0  0  0  0
  2  9  1  0
  2  1  1  1
  3  2  1  0
  4  3  1  0
  4  8  1  0
  5  6  1  0
  5  4  2  0
  6  7  1  0
  7  8  2  0
  9 11  1  0
 10  9  2  0
 11 12  1  0
 12 16  1  0
 12 13  1  6
 14 13  1  0
 14 15  2  0
 16 17  2  0
 16 24  1  0
 18 14  1  0
 20 19  1  0
 21 20  1  0
 21 22  1  6
 23 21  1  0
 23 24  1  1
 25 23  1  0
 25 27  1  0
 26 25  2  0
M  END
$$$$
