CEK.pdb
     RDKit          3D

 25 24  0  0  1  0  0  0  0  0999 V2000
   16.1815  -13.3534  -13.6002 N   0  0  0  0  0  0  0  0  0  0  0  0
   15.7305  -12.0043  -13.8178 C   0  0  1  0  0  0  0  0  0  0  0  0
   14.2367  -11.9803  -13.4736 C   0  0  0  0  0  0  0  0  0  0  0  0
   13.3608  -13.0565  -14.6266 S   0  0  0  0  0  0  0  0  0  0  0  0
   16.4874  -11.1151  -12.8931 C   0  0  0  0  0  0  0  0  0  0  0  0
   16.4615  -11.2910  -11.6277 O   0  0  0  0  0  0  0  0  0  0  0  0
   17.2723  -10.0342  -13.3505 N   0  0  0  0  0  0  0  0  0  0  0  0
   17.9774   -9.1324  -12.4250 C   0  0  1  0  0  0  0  0  0  0  0  0
   19.1409   -8.5134  -13.1411 C   0  0  0  0  0  0  0  0  0  0  0  0
   19.8453   -7.5109  -12.2865 C   0  0  0  0  0  0  0  0  0  0  0  0
   21.0391   -6.9394  -13.0412 C   0  0  0  0  0  0  0  0  0  0  0  0
   21.2341   -5.6962  -13.0063 O   0  0  0  0  0  0  0  0  0  0  0  0
   16.9637   -8.1889  -11.9183 C   0  0  0  0  0  0  0  0  0  0  0  0
   16.1228   -7.6878  -12.7340 O   0  0  0  0  0  0  0  0  0  0  0  0
   21.8635   -7.7857  -13.7331 O   0  0  0  0  0  0  0  0  0  0  0  0
   16.8193   -7.7707  -10.5684 N   0  0  0  0  0  0  0  0  0  0  0  0
   15.8058   -6.7774  -10.1669 C   0  0  1  0  0  0  0  0  0  0  0  0
   15.0250   -7.2597   -9.0074 C   0  0  0  0  0  0  0  0  0  0  0  0
   13.9882   -6.2654   -8.5778 C   0  0  0  0  0  0  0  0  0  0  0  0
   13.2016   -6.8675   -7.4063 C   0  0  0  0  0  0  0  0  0  0  0  0
   12.1571   -5.8841   -6.9216 C   0  0  0  0  0  0  0  0  0  0  0  0
   11.2952   -6.4510   -5.9196 N   0  0  0  0  0  0  0  0  0  0  0  0
   16.4171   -5.4734   -9.9368 C   0  0  0  0  0  0  0  0  0  0  0  0
   17.6544   -5.3367   -9.6447 O   0  0  0  0  0  0  0  0  0  0  0  0
   15.7195   -4.2848  -10.0183 O   0  0  0  0  0  0  0  0  0  0  0  0
  2  1  1  1
  3  2  1  0
  4  3  1  0
  5  2  1  0
  5  6  2  0
  7  5  1  0
  8  7  1  0
  9 10  1  0
  8  9  1  6
 10 11  1  0
 11 12  2  0
 11 15  1  0
 13  8  1  0
 14 13  2  0
 16 13  1  0
 17 16  1  0
 17 23  1  0
 17 18  1  1
 19 18  1  0
 20 19  1  0
 20 21  1  0
 22 21  1  0
 23 25  1  0
 24 23  2  0
M  END
$$$$
