CEK.pdb
     RDKit          3D

 25 24  0  0  1  0  0  0  0  0999 V2000
   26.2027  -12.6052  -16.7446 N   0  0  0  0  0  0  0  0  0  0  0  0
   26.5398  -11.3317  -16.1652 C   0  0  1  0  0  0  0  0  0  0  0  0
   27.8854  -10.9165  -16.7713 C   0  0  0  0  0  0  0  0  0  0  0  0
   29.1531  -12.0701  -16.2085 S   0  0  0  0  0  0  0  0  0  0  0  0
   25.4786  -10.3598  -16.5500 C   0  0  0  0  0  0  0  0  0  0  0  0
   24.7635  -10.5315  -17.5950 O   0  0  0  0  0  0  0  0  0  0  0  0
   25.1988   -9.2009  -15.7935 N   0  0  0  0  0  0  0  0  0  0  0  0
   24.1632   -8.2351  -16.1957 C   0  0  1  0  0  0  0  0  0  0  0  0
   23.6435   -7.5414  -14.9716 C   0  0  0  0  0  0  0  0  0  0  0  0
   22.6026   -6.5257  -15.3127 C   0  0  0  0  0  0  0  0  0  0  0  0
   22.1464   -5.8111  -14.0466 C   0  0  0  0  0  0  0  0  0  0  0  0
   22.5361   -4.6307  -13.8482 O   0  0  0  0  0  0  0  0  0  0  0  0
   24.7858   -7.3628  -17.2086 C   0  0  0  0  0  0  0  0  0  0  0  0
   26.0399   -7.4524  -17.4151 O   0  0  0  0  0  0  0  0  0  0  0  0
   21.3304   -6.4658  -13.1634 O   0  0  0  0  0  0  0  0  0  0  0  0
   24.1084   -6.4043  -18.0088 N   0  0  0  0  0  0  0  0  0  0  0  0
   24.7150   -5.8445  -19.2309 C   0  0  1  0  0  0  0  0  0  0  0  0
   25.1786   -6.9222  -20.1310 C   0  0  0  0  0  0  0  0  0  0  0  0
   25.7984   -6.3783  -21.3832 C   0  0  0  0  0  0  0  0  0  0  0  0
   26.3708   -7.5539  -22.1858 C   0  0  0  0  0  0  0  0  0  0  0  0
   27.0625   -7.0441  -23.4327 C   0  0  0  0  0  0  0  0  0  0  0  0
   27.6417   -8.1064  -24.2100 N   0  0  0  0  0  0  0  0  0  0  0  0
   23.8037   -4.9120  -19.8845 C   0  0  0  0  0  0  0  0  0  0  0  0
   24.2162   -3.9356  -20.5996 O   0  0  0  0  0  0  0  0  0  0  0  0
   22.4294   -5.0054  -19.7919 O   0  0  0  0  0  0  0  0  0  0  0  0
  2  1  1  6
  3  2  1  0
  4  3  1  0
  5  2  1  0
  5  6  2  0
  7  5  1  0
  8  7  1  0
  9 10  1  0
  8  9  1  1
 10 11  1  0
 11 12  2  0
 11 15  1  0
 13  8  1  0
 14 13  2  0
 16 13  1  0
 17 16  1  0
 17 23  1  0
 17 18  1  6
 19 18  1  0
 20 19  1  0
 20 21  1  0
 22 21  1  0
 23 25  1  0
 24 23  2  0
M  END
$$$$
