CEK.pdb
     RDKit          3D

 25 24  0  0  1  0  0  0  0  0999 V2000
   18.1564  -14.3191  -15.3469 N   0  0  0  0  0  0  0  0  0  0  0  0
   17.7881  -13.1863  -16.1544 C   0  0  1  0  0  0  0  0  0  0  0  0
   16.2612  -13.2211  -16.2884 C   0  0  0  0  0  0  0  0  0  0  0  0
   15.7994  -14.6704  -17.2584 S   0  0  0  0  0  0  0  0  0  0  0  0
   18.2149  -11.9542  -15.4343 C   0  0  0  0  0  0  0  0  0  0  0  0
   18.0847  -11.8423  -14.1681 O   0  0  0  0  0  0  0  0  0  0  0  0
   18.7837  -10.8449  -16.0972 N   0  0  0  0  0  0  0  0  0  0  0  0
   19.1919   -9.6277  -15.3768 C   0  0  1  0  0  0  0  0  0  0  0  0
   20.5611   -9.2254  -15.8386 C   0  0  0  0  0  0  0  0  0  0  0  0
   21.0231   -7.9721  -15.1698 C   0  0  0  0  0  0  0  0  0  0  0  0
   22.3899   -7.5731  -15.7123 C   0  0  0  0  0  0  0  0  0  0  0  0
   22.6094   -6.3577  -15.9556 O   0  0  0  0  0  0  0  0  0  0  0  0
   18.1238   -8.6371  -15.6054 C   0  0  0  0  0  0  0  0  0  0  0  0
   17.2770   -8.8440  -16.5347 O   0  0  0  0  0  0  0  0  0  0  0  0
   23.3377   -8.5390  -15.9200 O   0  0  0  0  0  0  0  0  0  0  0  0
   17.9314   -7.4380  -14.8684 N   0  0  0  0  0  0  0  0  0  0  0  0
   16.6544   -6.7011  -14.9032 C   0  0  1  0  0  0  0  0  0  0  0  0
   15.5333   -7.5684  -14.4817 C   0  0  0  0  0  0  0  0  0  0  0  0
   14.2388   -6.8152  -14.4102 C   0  0  0  0  0  0  0  0  0  0  0  0
   13.1222   -7.8105  -14.0690 C   0  0  0  0  0  0  0  0  0  0  0  0
   11.7795   -7.1107  -14.0851 C   0  0  0  0  0  0  0  0  0  0  0  0
   10.7067   -7.9758  -13.6739 N   0  0  0  0  0  0  0  0  0  0  0  0
   16.7424   -5.4697  -14.1266 C   0  0  0  0  0  0  0  0  0  0  0  0
   16.7353   -4.3125  -14.6705 O   0  0  0  0  0  0  0  0  0  0  0  0
   16.8354   -5.4478  -12.7493 O   0  0  0  0  0  0  0  0  0  0  0  0
  2  1  1  1
  3  2  1  0
  4  3  1  0
  5  2  1  0
  5  6  2  0
  7  5  1  0
  8  7  1  0
  9 10  1  0
  8  9  1  6
 10 11  1  0
 11 12  2  0
 11 15  1  0
 13  8  1  0
 14 13  2  0
 16 13  1  0
 17 16  1  0
 17 23  1  0
 17 18  1  1
 19 18  1  0
 20 19  1  0
 20 21  1  0
 22 21  1  0
 23 25  1  0
 24 23  2  0
M  END
$$$$
