CEK.pdb
     RDKit          3D

 25 24  0  0  1  0  0  0  0  0999 V2000
   25.5133  -22.6616  -11.8607 N   0  0  0  0  0  0  0  0  0  0  0  0
   24.4880  -21.7375  -11.4536 C   0  0  1  0  0  0  0  0  0  0  0  0
   25.1912  -20.4111  -11.1430 C   0  0  0  0  0  0  0  0  0  0  0  0
   25.4404  -20.2929   -9.3600 S   0  0  0  0  0  0  0  0  0  0  0  0
   23.5469  -21.5675  -12.5956 C   0  0  0  0  0  0  0  0  0  0  0  0
   23.9665  -21.4871  -13.7999 O   0  0  0  0  0  0  0  0  0  0  0  0
   22.1481  -21.4853  -12.4221 N   0  0  0  0  0  0  0  0  0  0  0  0
   21.2183  -21.4596  -13.5631 C   0  0  1  0  0  0  0  0  0  0  0  0
   19.9056  -22.0448  -13.1339 C   0  0  0  0  0  0  0  0  0  0  0  0
   19.7107  -23.4221  -13.6788 C   0  0  0  0  0  0  0  0  0  0  0  0
   18.3904  -23.9924  -13.1757 C   0  0  0  0  0  0  0  0  0  0  0  0
   18.0251  -25.1225  -13.5931 O   0  0  0  0  0  0  0  0  0  0  0  0
   21.1732  -20.0600  -14.0252 C   0  0  0  0  0  0  0  0  0  0  0  0
   21.3119  -19.1227  -13.1732 O   0  0  0  0  0  0  0  0  0  0  0  0
   17.6402  -23.2672  -12.2893 O   0  0  0  0  0  0  0  0  0  0  0  0
   20.9904  -19.6340  -15.3680 N   0  0  0  0  0  0  0  0  0  0  0  0
   20.8892  -18.2062  -15.7232 C   0  0  1  0  0  0  0  0  0  0  0  0
   21.7094  -17.8997  -16.9148 C   0  0  0  0  0  0  0  0  0  0  0  0
   21.5321  -16.4813  -17.3670 C   0  0  0  0  0  0  0  0  0  0  0  0
   22.3421  -16.2828  -18.6548 C   0  0  0  0  0  0  0  0  0  0  0  0
   22.1052  -14.8937  -19.2089 C   0  0  0  0  0  0  0  0  0  0  0  0
   22.9297  -14.6133  -20.3534 N   0  0  0  0  0  0  0  0  0  0  0  0
   19.4952  -17.8049  -15.8752 C   0  0  0  0  0  0  0  0  0  0  0  0
   18.5852  -18.6157  -16.2617 O   0  0  0  0  0  0  0  0  0  0  0  0
   19.0418  -16.5276  -15.6127 O   0  0  0  0  0  0  0  0  0  0  0  0
  2  1  1  6
  3  2  1  0
  4  3  1  0
  5  2  1  0
  5  6  2  0
  7  5  1  0
  8  7  1  0
  9 10  1  0
  8  9  1  1
 10 11  1  0
 11 12  2  0
 11 15  1  0
 13  8  1  0
 14 13  2  0
 16 13  1  0
 17 16  1  0
 17 23  1  0
 17 18  1  6
 19 18  1  0
 20 19  1  0
 20 21  1  0
 22 21  1  0
 23 25  1  0
 24 23  2  0
M  END
$$$$
