CEK.pdb
     RDKit          3D

 25 24  0  0  1  0  0  0  0  0999 V2000
   25.3508  -13.3242  -17.3154 N   0  0  0  0  0  0  0  0  0  0  0  0
   25.3112  -12.2262  -16.3859 C   0  0  1  0  0  0  0  0  0  0  0  0
   26.6292  -11.4613  -16.5542 C   0  0  0  0  0  0  0  0  0  0  0  0
   27.9578  -12.4293  -15.8108 S   0  0  0  0  0  0  0  0  0  0  0  0
   24.1593  -11.3569  -16.7551 C   0  0  0  0  0  0  0  0  0  0  0  0
   23.8368  -11.1590  -17.9756 O   0  0  0  0  0  0  0  0  0  0  0  0
   23.3603  -10.7040  -15.7914 N   0  0  0  0  0  0  0  0  0  0  0  0
   22.1876   -9.8962  -16.1647 C   0  0  1  0  0  0  0  0  0  0  0  0
   20.9508  -10.5627  -15.6393 C   0  0  0  0  0  0  0  0  0  0  0  0
   19.7211   -9.7791  -15.9641 C   0  0  0  0  0  0  0  0  0  0  0  0
   18.4951  -10.4906  -15.4052 C   0  0  0  0  0  0  0  0  0  0  0  0
   17.7289   -9.8542  -14.6354 O   0  0  0  0  0  0  0  0  0  0  0  0
   22.4461   -8.5366  -15.6555 C   0  0  0  0  0  0  0  0  0  0  0  0
   23.0147   -8.3979  -14.5237 O   0  0  0  0  0  0  0  0  0  0  0  0
   18.2593  -11.7940  -15.7517 O   0  0  0  0  0  0  0  0  0  0  0  0
   22.1206   -7.3245  -16.3210 N   0  0  0  0  0  0  0  0  0  0  0  0
   22.3551   -6.0087  -15.6976 C   0  0  1  0  0  0  0  0  0  0  0  0
   21.9987   -4.9142  -16.6259 C   0  0  0  0  0  0  0  0  0  0  0  0
   22.3277   -3.5670  -16.0559 C   0  0  0  0  0  0  0  0  0  0  0  0
   21.8552   -2.4970  -17.0487 C   0  0  0  0  0  0  0  0  0  0  0  0
   22.2487   -1.1205  -16.5555 C   0  0  0  0  0  0  0  0  0  0  0  0
   21.7150   -0.0704  -17.3807 N   0  0  0  0  0  0  0  0  0  0  0  0
   21.6688   -5.9107  -14.4144 C   0  0  0  0  0  0  0  0  0  0  0  0
   22.1950   -5.3452  -13.3954 O   0  0  0  0  0  0  0  0  0  0  0  0
   20.4014   -6.4115  -14.1930 O   0  0  0  0  0  0  0  0  0  0  0  0
  2  1  1  6
  3  2  1  0
  4  3  1  0
  5  2  1  0
  5  6  2  0
  7  5  1  0
  8  7  1  0
  9 10  1  0
  8  9  1  1
 10 11  1  0
 11 12  2  0
 11 15  1  0
 13  8  1  0
 14 13  2  0
 16 13  1  0
 17 16  1  0
 17 23  1  0
 17 18  1  6
 19 18  1  0
 20 19  1  0
 20 21  1  0
 22 21  1  0
 23 25  1  0
 24 23  2  0
M  END
$$$$
