CEK.pdb
     RDKit          3D

 25 24  0  0  1  0  0  0  0  0999 V2000
   19.9336  -13.5467  -16.0660 N   0  0  0  0  0  0  0  0  0  0  0  0
   19.1632  -12.4918  -16.6697 C   0  0  1  0  0  0  0  0  0  0  0  0
   17.8097  -13.1014  -17.0531 C   0  0  0  0  0  0  0  0  0  0  0  0
   18.0557  -14.2275  -18.4410 S   0  0  0  0  0  0  0  0  0  0  0  0
   18.9769  -11.4216  -15.6504 C   0  0  0  0  0  0  0  0  0  0  0  0
   18.5035  -11.6788  -14.4917 O   0  0  0  0  0  0  0  0  0  0  0  0
   19.3076  -10.0713  -15.8969 N   0  0  0  0  0  0  0  0  0  0  0  0
   19.0784   -9.0147  -14.8979 C   0  0  1  0  0  0  0  0  0  0  0  0
   20.0670   -7.9095  -15.1235 C   0  0  0  0  0  0  0  0  0  0  0  0
   21.1397   -7.9075  -14.0838 C   0  0  0  0  0  0  0  0  0  0  0  0
   22.0994   -6.7513  -14.3367 C   0  0  0  0  0  0  0  0  0  0  0  0
   23.1071   -6.9537  -15.0635 O   0  0  0  0  0  0  0  0  0  0  0  0
   17.6583   -8.6362  -15.0183 C   0  0  0  0  0  0  0  0  0  0  0  0
   17.1378   -8.5490  -16.1781 O   0  0  0  0  0  0  0  0  0  0  0  0
   21.8436   -5.5308  -13.7715 O   0  0  0  0  0  0  0  0  0  0  0  0
   16.7793   -8.3542  -13.9386 N   0  0  0  0  0  0  0  0  0  0  0  0
   15.3902   -7.9126  -14.1626 C   0  0  1  0  0  0  0  0  0  0  0  0
   14.4353   -8.8017  -13.4668 C   0  0  0  0  0  0  0  0  0  0  0  0
   13.0259   -8.3010  -13.5708 C   0  0  0  0  0  0  0  0  0  0  0  0
   12.0986   -9.3385  -12.9246 C   0  0  0  0  0  0  0  0  0  0  0  0
   10.6516   -8.9449  -13.1351 C   0  0  0  0  0  0  0  0  0  0  0  0
    9.7370   -9.9423  -12.6484 N   0  0  0  0  0  0  0  0  0  0  0  0
   15.2252   -6.5091  -13.8017 C   0  0  0  0  0  0  0  0  0  0  0  0
   14.1437   -5.8648  -14.0255 O   0  0  0  0  0  0  0  0  0  0  0  0
   16.2123   -5.7636  -13.1885 O   0  0  0  0  0  0  0  0  0  0  0  0
  2  1  1  1
  3  2  1  0
  4  3  1  0
  5  2  1  0
  5  6  2  0
  7  5  1  0
  8  7  1  0
  9 10  1  0
  8  9  1  6
 10 11  1  0
 11 12  2  0
 11 15  1  0
 13  8  1  0
 14 13  2  0
 16 13  1  0
 17 16  1  0
 17 23  1  0
 17 18  1  1
 19 18  1  0
 20 19  1  0
 20 21  1  0
 22 21  1  0
 23 25  1  0
 24 23  2  0
M  END
$$$$
