CEK.pdb
     RDKit          3D

 25 24  0  0  1  0  0  0  0  0999 V2000
   25.8710  -20.4984  -14.5318 N   0  0  0  0  0  0  0  0  0  0  0  0
   24.8263  -21.4836  -14.6267 C   0  0  1  0  0  0  0  0  0  0  0  0
   25.4155  -22.7994  -14.1053 C   0  0  0  0  0  0  0  0  0  0  0  0
   26.5967  -23.4239  -15.3176 S   0  0  0  0  0  0  0  0  0  0  0  0
   23.7012  -21.0413  -13.7564 C   0  0  0  0  0  0  0  0  0  0  0  0
   23.9112  -20.4906  -12.6226 O   0  0  0  0  0  0  0  0  0  0  0  0
   22.3475  -21.2006  -14.1245 N   0  0  0  0  0  0  0  0  0  0  0  0
   21.2487  -20.6184  -13.3366 C   0  0  1  0  0  0  0  0  0  0  0  0
   20.4858  -19.6589  -14.2011 C   0  0  0  0  0  0  0  0  0  0  0  0
   19.3762  -19.0001  -13.4485 C   0  0  0  0  0  0  0  0  0  0  0  0
   18.5959  -18.0820  -14.3812 C   0  0  0  0  0  0  0  0  0  0  0  0
   19.2063  -17.1348  -14.9425 O   0  0  0  0  0  0  0  0  0  0  0  0
   20.4743  -21.7563  -12.8077 C   0  0  0  0  0  0  0  0  0  0  0  0
   20.3639  -22.8109  -13.5142 O   0  0  0  0  0  0  0  0  0  0  0  0
   17.2609  -18.3083  -14.5838 O   0  0  0  0  0  0  0  0  0  0  0  0
   19.8209  -21.8022  -11.5472 N   0  0  0  0  0  0  0  0  0  0  0  0
   19.0864  -22.9988  -11.0958 C   0  0  1  0  0  0  0  0  0  0  0  0
   18.9667  -23.0195   -9.6221 C   0  0  0  0  0  0  0  0  0  0  0  0
   18.2797  -24.2593   -9.1334 C   0  0  0  0  0  0  0  0  0  0  0  0
   18.0983  -24.1411   -7.6145 C   0  0  0  0  0  0  0  0  0  0  0  0
   17.4205  -25.3825   -7.0738 C   0  0  0  0  0  0  0  0  0  0  0  0
   17.0694  -25.2533   -5.6852 N   0  0  0  0  0  0  0  0  0  0  0  0
   17.7982  -23.1048  -11.7715 C   0  0  0  0  0  0  0  0  0  0  0  0
   17.0848  -22.0822  -12.0547 O   0  0  0  0  0  0  0  0  0  0  0  0
   17.2455  -24.3075  -12.1640 O   0  0  0  0  0  0  0  0  0  0  0  0
  2  1  1  1
  3  2  1  0
  4  3  1  0
  5  2  1  0
  5  6  2  0
  7  5  1  0
  8  7  1  0
  9 10  1  0
  8  9  1  6
 10 11  1  0
 11 12  2  0
 11 15  1  0
 13  8  1  0
 14 13  2  0
 16 13  1  0
 17 16  1  0
 17 23  1  0
 17 18  1  1
 19 18  1  0
 20 19  1  0
 20 21  1  0
 22 21  1  0
 23 25  1  0
 24 23  2  0
M  END
$$$$
