CEK.pdb
     RDKit          3D

 25 24  0  0  1  0  0  0  0  0999 V2000
   16.6787  -12.1280  -16.7925 N   0  0  0  0  0  0  0  0  0  0  0  0
   16.8924  -11.3541  -15.5982 C   0  0  1  0  0  0  0  0  0  0  0  0
   17.8898  -12.1399  -14.7390 C   0  0  0  0  0  0  0  0  0  0  0  0
   17.0294  -13.5350  -13.9852 S   0  0  0  0  0  0  0  0  0  0  0  0
   17.4778  -10.0449  -16.0010 C   0  0  0  0  0  0  0  0  0  0  0  0
   18.2752   -9.9479  -16.9948 O   0  0  0  0  0  0  0  0  0  0  0  0
   17.1921   -8.8424  -15.3186 N   0  0  0  0  0  0  0  0  0  0  0  0
   17.8406   -7.5690  -15.6721 C   0  0  1  0  0  0  0  0  0  0  0  0
   16.9214   -6.4393  -15.3138 C   0  0  0  0  0  0  0  0  0  0  0  0
   15.7960   -6.3131  -16.2882 C   0  0  0  0  0  0  0  0  0  0  0  0
   14.8770   -5.1727  -15.8680 C   0  0  0  0  0  0  0  0  0  0  0  0
   14.8289   -4.1418  -16.5889 O   0  0  0  0  0  0  0  0  0  0  0  0
   19.1478   -7.5701  -14.9897 C   0  0  0  0  0  0  0  0  0  0  0  0
   19.2174   -7.9862  -13.7874 O   0  0  0  0  0  0  0  0  0  0  0  0
   14.1323   -5.2967  -14.7258 O   0  0  0  0  0  0  0  0  0  0  0  0
   20.3802   -7.1458  -15.5547 N   0  0  0  0  0  0  0  0  0  0  0  0
   21.6232   -7.0998  -14.7624 C   0  0  1  0  0  0  0  0  0  0  0  0
   22.6811   -7.9183  -15.3927 C   0  0  0  0  0  0  0  0  0  0  0  0
   23.9781   -7.8289  -14.6459 C   0  0  0  0  0  0  0  0  0  0  0  0
   25.0316   -8.6376  -15.4141 C   0  0  0  0  0  0  0  0  0  0  0  0
   24.7739  -10.1201  -15.2446 C   0  0  0  0  0  0  0  0  0  0  0  0
   25.6700  -10.9245  -16.0309 N   0  0  0  0  0  0  0  0  0  0  0  0
   22.0380   -5.7220  -14.5237 C   0  0  0  0  0  0  0  0  0  0  0  0
   21.6864   -4.7570  -15.2854 O   0  0  0  0  0  0  0  0  0  0  0  0
   22.8351   -5.3441  -13.4617 O   0  0  0  0  0  0  0  0  0  0  0  0
  2  1  1  6
  3  2  1  0
  4  3  1  0
  5  2  1  0
  5  6  2  0
  7  5  1  0
  8  7  1  0
  9 10  1  0
  8  9  1  1
 10 11  1  0
 11 12  2  0
 11 15  1  0
 13  8  1  0
 14 13  2  0
 16 13  1  0
 17 16  1  0
 17 23  1  0
 17 18  1  6
 19 18  1  0
 20 19  1  0
 20 21  1  0
 22 21  1  0
 23 25  1  0
 24 23  2  0
M  END
$$$$
