LEF.pdb
     RDKit          3D

 29 29  0  0  1  0  0  0  0  0999 V2000
   16.4991  -15.5391  -16.8404 C   0  0  0  0  0  0  0  0  0  0  0  0
   17.9972  -15.7775  -16.5893 C   0  0  2  0  0  0  0  0  0  0  0  0
   18.0803  -16.5375  -15.3007 C   0  0  0  0  0  0  0  0  0  0  0  0
   18.6260  -14.4353  -16.5649 C   0  0  0  0  0  0  0  0  0  0  0  0
   18.4911  -13.6048  -17.7952 C   0  0  2  0  0  0  0  0  0  0  0  0
   19.3424  -14.1212  -18.8408 N   0  0  0  0  0  0  0  0  0  0  0  0
   18.9962  -12.2369  -17.4337 C   0  0  0  0  0  0  0  0  0  0  0  0
   20.2158  -11.9562  -17.3293 O   0  0  0  0  0  0  0  0  0  0  0  0
   18.0613  -11.1984  -17.1942 N   0  0  0  0  0  0  0  0  0  0  0  0
   18.4958   -9.8061  -16.8910 C   0  0  1  0  0  0  0  0  0  0  0  0
   17.3953   -8.9431  -17.4012 C   0  0  0  0  0  0  0  0  0  0  0  0
   17.4733   -7.4892  -17.1295 C   0  0  0  0  0  0  0  0  0  0  0  0
   16.3057   -6.7666  -17.6897 C   0  0  0  0  0  0  0  0  0  0  0  0
   15.1602   -6.7849  -17.1836 O   0  0  0  0  0  0  0  0  0  0  0  0
   18.7339   -9.7423  -15.4368 C   0  0  0  0  0  0  0  0  0  0  0  0
   18.0497  -10.4277  -14.6184 O   0  0  0  0  0  0  0  0  0  0  0  0
   16.4264   -5.9955  -18.8599 O   0  0  0  0  0  0  0  0  0  0  0  0
   19.7467   -8.9067  -14.9212 N   0  0  0  0  0  0  0  0  0  0  0  0
   19.9678   -8.8472  -13.4687 C   0  0  1  0  0  0  0  0  0  0  0  0
   21.4006   -8.4848  -13.2032 C   0  0  0  0  0  0  0  0  0  0  0  0
   21.7156   -7.1775  -13.7966 C   0  0  0  0  0  0  0  0  0  0  0  0
   21.5478   -5.9988  -13.0701 C   0  0  0  0  0  0  0  0  0  0  0  0
   21.8631   -4.7692  -13.6004 C   0  0  0  0  0  0  0  0  0  0  0  0
   22.3584   -4.6716  -14.8782 C   0  0  0  0  0  0  0  0  0  0  0  0
   22.5378   -5.8175  -15.6268 C   0  0  0  0  0  0  0  0  0  0  0  0
   22.2126   -7.0521  -15.0713 C   0  0  0  0  0  0  0  0  0  0  0  0
   19.0322   -7.8945  -12.8481 C   0  0  0  0  0  0  0  0  0  0  0  0
   18.3597   -7.0641  -13.5520 O   0  0  0  0  0  0  0  0  0  0  0  0
   18.8492   -7.8706  -11.4813 O   0  0  0  0  0  0  0  0  0  0  0  0
  2  3  1  1
  2  1  1  0
  4  2  1  0
  5  4  1  0
  5  6  1  6
  7  8  2  0
  7  5  1  0
  9  7  1  0
 10  9  1  0
 10 11  1  1
 12 13  1  0
 12 11  1  0
 13 14  2  0
 15 16  2  0
 15 10  1  0
 17 13  1  0
 18 15  1  0
 19 20  1  6
 19 18  1  0
 21 20  1  0
 21 22  2  0
 23 22  1  0
 24 23  2  0
 25 26  2  0
 25 24  1  0
 26 21  1  0
 27 19  1  0
 28 27  2  0
 29 27  1  0
M  END
$$$$
