LEF.pdb
     RDKit          3D

 29 29  0  0  1  0  0  0  0  0999 V2000
   12.8173   -6.3602   -9.7011 C   0  0  0  0  0  0  0  0  0  0  0  0
   13.8360   -6.9698   -8.7239 C   0  0  2  0  0  0  0  0  0  0  0  0
   14.0207   -5.9535   -7.6385 C   0  0  0  0  0  0  0  0  0  0  0  0
   15.0499   -7.2559   -9.5251 C   0  0  0  0  0  0  0  0  0  0  0  0
   14.9046   -8.2271  -10.6465 C   0  0  2  0  0  0  0  0  0  0  0  0
   14.7954   -9.5711  -10.1305 N   0  0  0  0  0  0  0  0  0  0  0  0
   16.1797   -8.1471  -11.4367 C   0  0  0  0  0  0  0  0  0  0  0  0
   17.2734   -8.6138  -11.0325 O   0  0  0  0  0  0  0  0  0  0  0  0
   16.1653   -7.5150  -12.7057 N   0  0  0  0  0  0  0  0  0  0  0  0
   17.3233   -7.6019  -13.6387 C   0  0  1  0  0  0  0  0  0  0  0  0
   16.7180   -7.6125  -14.9987 C   0  0  0  0  0  0  0  0  0  0  0  0
   16.1237   -8.8801  -15.4819 C   0  0  0  0  0  0  0  0  0  0  0  0
   15.4991   -8.7154  -16.8168 C   0  0  0  0  0  0  0  0  0  0  0  0
   15.5275   -7.6524  -17.4786 O   0  0  0  0  0  0  0  0  0  0  0  0
   18.1977   -6.4525  -13.3391 C   0  0  0  0  0  0  0  0  0  0  0  0
   17.8185   -5.5043  -12.5875 O   0  0  0  0  0  0  0  0  0  0  0  0
   14.8175   -9.7809  -17.4323 O   0  0  0  0  0  0  0  0  0  0  0  0
   19.4951   -6.3875  -13.8891 N   0  0  0  0  0  0  0  0  0  0  0  0
   20.3778   -5.2667  -13.5336 C   0  0  1  0  0  0  0  0  0  0  0  0
   21.2941   -5.6946  -12.4235 C   0  0  0  0  0  0  0  0  0  0  0  0
   21.9451   -6.9686  -12.7604 C   0  0  0  0  0  0  0  0  0  0  0  0
   21.7142   -8.1167  -12.0028 C   0  0  0  0  0  0  0  0  0  0  0  0
   22.2939   -9.3232  -12.3199 C   0  0  0  0  0  0  0  0  0  0  0  0
   23.1272   -9.4277  -13.4072 C   0  0  0  0  0  0  0  0  0  0  0  0
   23.3786   -8.3118  -14.1802 C   0  0  0  0  0  0  0  0  0  0  0  0
   22.7817   -7.1002  -13.8422 C   0  0  0  0  0  0  0  0  0  0  0  0
   21.1215   -4.8063  -14.7181 C   0  0  0  0  0  0  0  0  0  0  0  0
   21.0538   -5.4300  -15.8333 O   0  0  0  0  0  0  0  0  0  0  0  0
   21.9159   -3.6802  -14.6616 O   0  0  0  0  0  0  0  0  0  0  0  0
  2  3  1  1
  2  1  1  0
  4  2  1  0
  5  4  1  0
  5  6  1  1
  7  8  2  0
  7  5  1  0
  9  7  1  0
 10  9  1  0
 10 11  1  6
 12 13  1  0
 12 11  1  0
 13 14  2  0
 15 16  2  0
 15 10  1  0
 17 13  1  0
 18 15  1  0
 19 20  1  1
 19 18  1  0
 21 20  1  0
 21 22  2  0
 23 22  1  0
 24 23  2  0
 25 26  2  0
 25 24  1  0
 26 21  1  0
 27 19  1  0
 28 27  2  0
 29 27  1  0
M  END
$$$$
