LEF.pdb
     RDKit          3D

 29 29  0  0  1  0  0  0  0  0999 V2000
   26.9051  -33.8003   -8.8418 C   0  0  0  0  0  0  0  0  0  0  0  0
   25.3920  -33.5430   -8.7473 C   0  0  2  0  0  0  0  0  0  0  0  0
   25.2148  -32.0680   -8.9424 C   0  0  0  0  0  0  0  0  0  0  0  0
   24.9733  -34.0525   -7.4197 C   0  0  0  0  0  0  0  0  0  0  0  0
   25.3012  -35.4727   -7.1081 C   0  0  2  0  0  0  0  0  0  0  0  0
   24.5801  -36.3563   -7.9936 N   0  0  0  0  0  0  0  0  0  0  0  0
   24.8007  -35.7211   -5.7136 C   0  0  0  0  0  0  0  0  0  0  0  0
   23.7252  -36.3187   -5.4618 O   0  0  0  0  0  0  0  0  0  0  0  0
   25.5696  -35.2633   -4.6139 N   0  0  0  0  0  0  0  0  0  0  0  0
   25.2246  -35.6249   -3.2106 C   0  0  1  0  0  0  0  0  0  0  0  0
   25.3828  -37.1038   -3.1475 C   0  0  0  0  0  0  0  0  0  0  0  0
   25.1716  -37.7673   -1.8403 C   0  0  0  0  0  0  0  0  0  0  0  0
   25.3819  -39.2324   -1.9322 C   0  0  0  0  0  0  0  0  0  0  0  0
   26.4166  -39.7652   -2.3949 O   0  0  0  0  0  0  0  0  0  0  0  0
   26.1261  -34.8495   -2.3379 C   0  0  0  0  0  0  0  0  0  0  0  0
   27.3821  -34.8463   -2.5115 O   0  0  0  0  0  0  0  0  0  0  0  0
   24.3963  -40.1332   -1.4897 O   0  0  0  0  0  0  0  0  0  0  0  0
   25.5987  -34.0813   -1.2789 N   0  0  0  0  0  0  0  0  0  0  0  0
   26.5051  -33.2800   -0.4433 C   0  0  1  0  0  0  0  0  0  0  0  0
   26.4393  -31.8453   -0.8816 C   0  0  0  0  0  0  0  0  0  0  0  0
   25.0663  -31.3354   -0.7578 C   0  0  0  0  0  0  0  0  0  0  0  0
   24.5893  -30.8416    0.4563 C   0  0  0  0  0  0  0  0  0  0  0  0
   23.3163  -30.3359    0.5832 C   0  0  0  0  0  0  0  0  0  0  0  0
   22.4713  -30.3048   -0.4997 C   0  0  0  0  0  0  0  0  0  0  0  0
   22.9097  -30.7851   -1.7175 C   0  0  0  0  0  0  0  0  0  0  0  0
   24.2017  -31.2925   -1.8247 C   0  0  0  0  0  0  0  0  0  0  0  0
   26.1632  -33.4397    0.9799 C   0  0  0  0  0  0  0  0  0  0  0  0
   25.1132  -34.0720    1.3477 O   0  0  0  0  0  0  0  0  0  0  0  0
   26.9710  -32.9122    1.9656 O   0  0  0  0  0  0  0  0  0  0  0  0
  2  3  1  1
  2  1  1  0
  4  2  1  0
  5  4  1  0
  5  6  1  6
  7  8  2  0
  7  5  1  0
  9  7  1  0
 10  9  1  0
 10 11  1  6
 12 13  1  0
 12 11  1  0
 13 14  2  0
 15 16  2  0
 15 10  1  0
 17 13  1  0
 18 15  1  0
 19 20  1  6
 19 18  1  0
 21 20  1  0
 21 22  2  0
 23 22  1  0
 24 23  2  0
 25 26  2  0
 25 24  1  0
 26 21  1  0
 27 19  1  0
 28 27  2  0
 29 27  1  0
M  END
$$$$
