LEF.pdb
     RDKit          3D

 29 29  0  0  1  0  0  0  0  0999 V2000
   17.3488  -14.5126  -16.5641 C   0  0  0  0  0  0  0  0  0  0  0  0
   16.3220  -13.4088  -16.8669 C   0  0  2  0  0  0  0  0  0  0  0  0
   15.6993  -13.7780  -18.1788 C   0  0  0  0  0  0  0  0  0  0  0  0
   17.0808  -12.1353  -16.8718 C   0  0  0  0  0  0  0  0  0  0  0  0
   17.7465  -11.7419  -15.5976 C   0  0  2  0  0  0  0  0  0  0  0  0
   16.8154  -11.8392  -14.4984 N   0  0  0  0  0  0  0  0  0  0  0  0
   18.1184  -10.2944  -15.7498 C   0  0  0  0  0  0  0  0  0  0  0  0
   18.7705   -9.8476  -16.7258 O   0  0  0  0  0  0  0  0  0  0  0  0
   17.7213   -9.3721  -14.7490 N   0  0  0  0  0  0  0  0  0  0  0  0
   17.9401   -7.9065  -14.9013 C   0  0  1  0  0  0  0  0  0  0  0  0
   16.7491   -7.2749  -14.2699 C   0  0  0  0  0  0  0  0  0  0  0  0
   16.7520   -5.8031  -14.1047 C   0  0  0  0  0  0  0  0  0  0  0  0
   15.7562   -5.1530  -14.9907 C   0  0  0  0  0  0  0  0  0  0  0  0
   15.0478   -5.7681  -15.8204 O   0  0  0  0  0  0  0  0  0  0  0  0
   19.2356   -7.6018  -14.2654 C   0  0  0  0  0  0  0  0  0  0  0  0
   19.5280   -8.0315  -13.1089 O   0  0  0  0  0  0  0  0  0  0  0  0
   15.5469   -3.7628  -14.9452 O   0  0  0  0  0  0  0  0  0  0  0  0
   20.1907   -6.8169  -14.9448 N   0  0  0  0  0  0  0  0  0  0  0  0
   21.4249   -6.4171  -14.2529 C   0  0  1  0  0  0  0  0  0  0  0  0
   22.6088   -6.9180  -15.0291 C   0  0  0  0  0  0  0  0  0  0  0  0
   22.6843   -8.3841  -14.9568 C   0  0  0  0  0  0  0  0  0  0  0  0
   23.3401   -9.0193  -13.9023 C   0  0  0  0  0  0  0  0  0  0  0  0
   23.3971  -10.3903  -13.8048 C   0  0  0  0  0  0  0  0  0  0  0  0
   22.8004  -11.1787  -14.7586 C   0  0  0  0  0  0  0  0  0  0  0  0
   22.1421  -10.5845  -15.8167 C   0  0  0  0  0  0  0  0  0  0  0  0
   22.0959   -9.1953  -15.8966 C   0  0  0  0  0  0  0  0  0  0  0  0
   21.4595   -4.9561  -14.0729 C   0  0  0  0  0  0  0  0  0  0  0  0
   20.6292   -4.1894  -14.6731 O   0  0  0  0  0  0  0  0  0  0  0  0
   22.3916   -4.3668  -13.2446 O   0  0  0  0  0  0  0  0  0  0  0  0
  2  3  1  6
  2  1  1  0
  4  2  1  0
  5  4  1  0
  5  6  1  1
  7  8  2  0
  7  5  1  0
  9  7  1  0
 10  9  1  0
 10 11  1  1
 12 13  1  0
 12 11  1  0
 13 14  2  0
 15 16  2  0
 15 10  1  0
 17 13  1  0
 18 15  1  0
 19 20  1  6
 19 18  1  0
 21 20  1  0
 21 22  2  0
 23 22  1  0
 24 23  2  0
 25 26  2  0
 25 24  1  0
 26 21  1  0
 27 19  1  0
 28 27  2  0
 29 27  1  0
M  END
$$$$
