LEF.pdb
     RDKit          3D

 29 29  0  0  1  0  0  0  0  0999 V2000
   33.0794  -23.8003   -9.5896 C   0  0  0  0  0  0  0  0  0  0  0  0
   33.2723  -22.5750  -10.4984 C   0  0  2  0  0  0  0  0  0  0  0  0
   34.4699  -21.8519   -9.9615 C   0  0  0  0  0  0  0  0  0  0  0  0
   32.0019  -21.8140  -10.4332 C   0  0  0  0  0  0  0  0  0  0  0  0
   30.7858  -22.4839  -10.9755 C   0  0  2  0  0  0  0  0  0  0  0  0
   31.0158  -22.9083  -12.3363 N   0  0  0  0  0  0  0  0  0  0  0  0
   29.7089  -21.4368  -11.0031 C   0  0  0  0  0  0  0  0  0  0  0  0
   29.8086  -20.3278  -10.4223 O   0  0  0  0  0  0  0  0  0  0  0  0
   28.5119  -21.6983  -11.7165 N   0  0  0  0  0  0  0  0  0  0  0  0
   27.3864  -20.7228  -11.7448 C   0  0  1  0  0  0  0  0  0  0  0  0
   26.7842  -20.8739  -13.0978 C   0  0  0  0  0  0  0  0  0  0  0  0
   25.5871  -20.0624  -13.4171 C   0  0  0  0  0  0  0  0  0  0  0  0
   25.7000  -19.4259  -14.7518 C   0  0  0  0  0  0  0  0  0  0  0  0
   25.5128  -20.0273  -15.8343 O   0  0  0  0  0  0  0  0  0  0  0  0
   26.5032  -21.0600  -10.6127 C   0  0  0  0  0  0  0  0  0  0  0  0
   26.2052  -22.2605  -10.3340 O   0  0  0  0  0  0  0  0  0  0  0  0
   26.0353  -18.0656  -14.8777 O   0  0  0  0  0  0  0  0  0  0  0  0
   25.9677  -20.0363   -9.8032 N   0  0  0  0  0  0  0  0  0  0  0  0
   25.1059  -20.3884   -8.6651 C   0  0  1  0  0  0  0  0  0  0  0  0
   25.3231  -19.3974   -7.5580 C   0  0  0  0  0  0  0  0  0  0  0  0
   26.5899  -19.6738   -6.8657 C   0  0  0  0  0  0  0  0  0  0  0  0
   27.6914  -18.8319   -7.0183 C   0  0  0  0  0  0  0  0  0  0  0  0
   28.8757  -19.0607   -6.3570 C   0  0  0  0  0  0  0  0  0  0  0  0
   29.0037  -20.1407   -5.5175 C   0  0  0  0  0  0  0  0  0  0  0  0
   27.9340  -20.9955   -5.3421 C   0  0  0  0  0  0  0  0  0  0  0  0
   26.7441  -20.7460   -6.0206 C   0  0  0  0  0  0  0  0  0  0  0  0
   23.6969  -20.4440   -9.0891 C   0  0  0  0  0  0  0  0  0  0  0  0
   23.3291  -20.0260  -10.2412 O   0  0  0  0  0  0  0  0  0  0  0  0
   22.7257  -20.9542   -8.2532 O   0  0  0  0  0  0  0  0  0  0  0  0
  2  3  1  1
  2  1  1  0
  4  2  1  0
  5  4  1  0
  5  6  1  6
  7  8  2  0
  7  5  1  0
  9  7  1  0
 10  9  1  0
 10 11  1  6
 12 13  1  0
 12 11  1  0
 13 14  2  0
 15 16  2  0
 15 10  1  0
 17 13  1  0
 18 15  1  0
 19 20  1  1
 19 18  1  0
 21 20  1  0
 21 22  2  0
 23 22  1  0
 24 23  2  0
 25 26  2  0
 25 24  1  0
 26 21  1  0
 27 19  1  0
 28 27  2  0
 29 27  1  0
M  END
$$$$
