LEF.pdb
     RDKit          3D

 29 29  0  0  1  0  0  0  0  0999 V2000
   25.5587  -18.8833  -19.8713 C   0  0  0  0  0  0  0  0  0  0  0  0
   24.2028  -18.6648  -19.1796 C   0  0  2  0  0  0  0  0  0  0  0  0
   23.3008  -18.0797  -20.2232 C   0  0  0  0  0  0  0  0  0  0  0  0
   24.4733  -17.7810  -18.0207 C   0  0  0  0  0  0  0  0  0  0  0  0
   25.4217  -18.2911  -16.9901 C   0  0  2  0  0  0  0  0  0  0  0  0
   26.0223  -19.5268  -17.4340 N   0  0  0  0  0  0  0  0  0  0  0  0
   24.5929  -18.6005  -15.7759 C   0  0  0  0  0  0  0  0  0  0  0  0
   23.8832  -17.7472  -15.1882 O   0  0  0  0  0  0  0  0  0  0  0  0
   24.6016  -19.9184  -15.2535 N   0  0  0  0  0  0  0  0  0  0  0  0
   23.7381  -20.3131  -14.1056 C   0  0  1  0  0  0  0  0  0  0  0  0
   22.8437  -21.3727  -14.6472 C   0  0  0  0  0  0  0  0  0  0  0  0
   21.4015  -21.0613  -14.7773 C   0  0  0  0  0  0  0  0  0  0  0  0
   20.5861  -21.8440  -13.8173 C   0  0  0  0  0  0  0  0  0  0  0  0
   20.7975  -23.0453  -13.5330 O   0  0  0  0  0  0  0  0  0  0  0  0
   24.6419  -20.7357  -13.0193 C   0  0  0  0  0  0  0  0  0  0  0  0
   25.8029  -21.1873  -13.2557 O   0  0  0  0  0  0  0  0  0  0  0  0
   19.4936  -21.2589  -13.1519 O   0  0  0  0  0  0  0  0  0  0  0  0
   24.2261  -20.6403  -11.6747 N   0  0  0  0  0  0  0  0  0  0  0  0
   25.2038  -20.8508  -10.5969 C   0  0  1  0  0  0  0  0  0  0  0  0
   26.2305  -19.7560  -10.6429 C   0  0  0  0  0  0  0  0  0  0  0  0
   27.1322  -19.8518   -9.4860 C   0  0  0  0  0  0  0  0  0  0  0  0
   26.8473  -19.1843   -8.2950 C   0  0  0  0  0  0  0  0  0  0  0  0
   27.6660  -19.2846   -7.1940 C   0  0  0  0  0  0  0  0  0  0  0  0
   28.8015  -20.0566   -7.2423 C   0  0  0  0  0  0  0  0  0  0  0  0
   29.1150  -20.7319   -8.4049 C   0  0  0  0  0  0  0  0  0  0  0  0
   28.2730  -20.6171   -9.5077 C   0  0  0  0  0  0  0  0  0  0  0  0
   24.5217  -20.9151   -9.2936 C   0  0  0  0  0  0  0  0  0  0  0  0
   23.3947  -20.3407   -9.1006 O   0  0  0  0  0  0  0  0  0  0  0  0
   25.0790  -21.6032   -8.2362 O   0  0  0  0  0  0  0  0  0  0  0  0
  2  3  1  6
  2  1  1  0
  4  2  1  0
  5  4  1  0
  5  6  1  6
  7  8  2  0
  7  5  1  0
  9  7  1  0
 10  9  1  0
 10 11  1  6
 12 13  1  0
 12 11  1  0
 13 14  2  0
 15 16  2  0
 15 10  1  0
 17 13  1  0
 18 15  1  0
 19 20  1  1
 19 18  1  0
 21 20  1  0
 21 22  2  0
 23 22  1  0
 24 23  2  0
 25 26  2  0
 25 24  1  0
 26 21  1  0
 27 19  1  0
 28 27  2  0
 29 27  1  0
M  END
$$$$
