LEF.pdb
     RDKit          3D

 29 29  0  0  1  0  0  0  0  0999 V2000
   26.5293  -13.4483  -14.9455 C   0  0  0  0  0  0  0  0  0  0  0  0
   25.6019  -13.6943  -16.1470 C   0  0  2  0  0  0  0  0  0  0  0  0
   24.3835  -12.8574  -15.9015 C   0  0  0  0  0  0  0  0  0  0  0  0
   25.3589  -15.1562  -16.1830 C   0  0  0  0  0  0  0  0  0  0  0  0
   26.5562  -16.0363  -16.2995 C   0  0  2  0  0  0  0  0  0  0  0  0
   27.1781  -15.8629  -17.5910 N   0  0  0  0  0  0  0  0  0  0  0  0
   26.0463  -17.4475  -16.2277 C   0  0  0  0  0  0  0  0  0  0  0  0
   25.5551  -18.0555  -17.2107 O   0  0  0  0  0  0  0  0  0  0  0  0
   26.1152  -18.1430  -14.9941 N   0  0  0  0  0  0  0  0  0  0  0  0
   25.6536  -19.5531  -14.8616 C   0  0  1  0  0  0  0  0  0  0  0  0
   26.6925  -20.2182  -14.0282 C   0  0  0  0  0  0  0  0  0  0  0  0
   27.9957  -20.5252  -14.6614 C   0  0  0  0  0  0  0  0  0  0  0  0
   27.8980  -21.6918  -15.5718 C   0  0  0  0  0  0  0  0  0  0  0  0
   26.8834  -22.4190  -15.6745 O   0  0  0  0  0  0  0  0  0  0  0  0
   24.3011  -19.5043  -14.2753 C   0  0  0  0  0  0  0  0  0  0  0  0
   24.0316  -18.7649  -13.2811 O   0  0  0  0  0  0  0  0  0  0  0  0
   28.9770  -22.0568  -16.3972 O   0  0  0  0  0  0  0  0  0  0  0  0
   23.2640  -20.2894  -14.8212 N   0  0  0  0  0  0  0  0  0  0  0  0
   21.8694  -19.8434  -14.6862 C   0  0  1  0  0  0  0  0  0  0  0  0
   21.7642  -18.4138  -15.1334 C   0  0  0  0  0  0  0  0  0  0  0  0
   20.9879  -17.6301  -14.1621 C   0  0  0  0  0  0  0  0  0  0  0  0
   20.5773  -16.3290  -14.4518 C   0  0  0  0  0  0  0  0  0  0  0  0
   19.8275  -15.5912  -13.5654 C   0  0  0  0  0  0  0  0  0  0  0  0
   19.4597  -16.1265  -12.3547 C   0  0  0  0  0  0  0  0  0  0  0  0
   19.8482  -17.4119  -12.0341 C   0  0  0  0  0  0  0  0  0  0  0  0
   20.6067  -18.1417  -12.9453 C   0  0  0  0  0  0  0  0  0  0  0  0
   20.9737  -20.7289  -15.4489 C   0  0  0  0  0  0  0  0  0  0  0  0
   19.7910  -20.9956  -15.0396 O   0  0  0  0  0  0  0  0  0  0  0  0
   21.3840  -21.2984  -16.6362 O   0  0  0  0  0  0  0  0  0  0  0  0
  2  3  1  1
  2  1  1  0
  4  2  1  0
  5  4  1  0
  5  6  1  6
  7  8  2  0
  7  5  1  0
  9  7  1  0
 10  9  1  0
 10 11  1  1
 12 13  1  0
 12 11  1  0
 13 14  2  0
 15 16  2  0
 15 10  1  0
 17 13  1  0
 18 15  1  0
 19 20  1  6
 19 18  1  0
 21 20  1  0
 21 22  2  0
 23 22  1  0
 24 23  2  0
 25 26  2  0
 25 24  1  0
 26 21  1  0
 27 19  1  0
 28 27  2  0
 29 27  1  0
M  END
$$$$
