LEF.pdb
     RDKit          3D

 29 29  0  0  1  0  0  0  0  0999 V2000
   22.7048  -13.8757  -16.1951 C   0  0  0  0  0  0  0  0  0  0  0  0
   23.2176  -13.4808  -17.5899 C   0  0  2  0  0  0  0  0  0  0  0  0
   24.7029  -13.6744  -17.5498 C   0  0  0  0  0  0  0  0  0  0  0  0
   22.7754  -12.0827  -17.8070 C   0  0  0  0  0  0  0  0  0  0  0  0
   21.3063  -11.8454  -17.8918 C   0  0  2  0  0  0  0  0  0  0  0  0
   20.7500  -12.5613  -19.0155 N   0  0  0  0  0  0  0  0  0  0  0  0
   21.1347  -10.3772  -18.1598 C   0  0  0  0  0  0  0  0  0  0  0  0
   21.7077   -9.7753  -19.1014 O   0  0  0  0  0  0  0  0  0  0  0  0
   20.2864   -9.6173  -17.3155 N   0  0  0  0  0  0  0  0  0  0  0  0
   20.0297   -8.1702  -17.5584 C   0  0  1  0  0  0  0  0  0  0  0  0
   18.6535   -8.1160  -18.1234 C   0  0  0  0  0  0  0  0  0  0  0  0
   18.1038   -6.7880  -18.4810 C   0  0  0  0  0  0  0  0  0  0  0  0
   16.7261   -6.8952  -19.0191 C   0  0  0  0  0  0  0  0  0  0  0  0
   15.7471   -7.3181  -18.3625 O   0  0  0  0  0  0  0  0  0  0  0  0
   20.2161   -7.4827  -16.2669 C   0  0  0  0  0  0  0  0  0  0  0  0
   19.7118   -7.9318  -15.1937 O   0  0  0  0  0  0  0  0  0  0  0  0
   16.4352   -6.5146  -20.3417 O   0  0  0  0  0  0  0  0  0  0  0  0
   20.9747   -6.2953  -16.1998 N   0  0  0  0  0  0  0  0  0  0  0  0
   21.1712   -5.6331  -14.9018 C   0  0  1  0  0  0  0  0  0  0  0  0
   22.6266   -5.6880  -14.5363 C   0  0  0  0  0  0  0  0  0  0  0  0
   23.0954   -7.0809  -14.5120 C   0  0  0  0  0  0  0  0  0  0  0  0
   22.7046   -7.9536  -13.4966 C   0  0  0  0  0  0  0  0  0  0  0  0
   23.1120   -9.2673  -13.4731 C   0  0  0  0  0  0  0  0  0  0  0  0
   23.9265   -9.7585  -14.4646 C   0  0  0  0  0  0  0  0  0  0  0  0
   24.3331   -8.9233  -15.4858 C   0  0  0  0  0  0  0  0  0  0  0  0
   23.9093   -7.5971  -15.4910 C   0  0  0  0  0  0  0  0  0  0  0  0
   20.6652   -4.2512  -14.9514 C   0  0  0  0  0  0  0  0  0  0  0  0
   20.6909   -3.4931  -13.9209 O   0  0  0  0  0  0  0  0  0  0  0  0
   20.1480   -3.7283  -16.1182 O   0  0  0  0  0  0  0  0  0  0  0  0
  2  3  1  1
  2  1  1  0
  4  2  1  0
  5  4  1  0
  5  6  1  6
  7  8  2  0
  7  5  1  0
  9  7  1  0
 10  9  1  0
 10 11  1  1
 12 13  1  0
 12 11  1  0
 13 14  2  0
 15 16  2  0
 15 10  1  0
 17 13  1  0
 18 15  1  0
 19 20  1  6
 19 18  1  0
 21 20  1  0
 21 22  2  0
 23 22  1  0
 24 23  2  0
 25 26  2  0
 25 24  1  0
 26 21  1  0
 27 19  1  0
 28 27  2  0
 29 27  1  0
M  END
$$$$
