LEF.pdb
     RDKit          3D

 29 29  0  0  1  0  0  0  0  0999 V2000
   29.0157  -18.0481  -16.5578 C   0  0  0  0  0  0  0  0  0  0  0  0
   27.5259  -17.8187  -16.2540 C   0  0  2  0  0  0  0  0  0  0  0  0
   27.1327  -16.5999  -17.0318 C   0  0  0  0  0  0  0  0  0  0  0  0
   27.4260  -17.6794  -14.7816 C   0  0  0  0  0  0  0  0  0  0  0  0
   27.9929  -18.7860  -13.9594 C   0  0  2  0  0  0  0  0  0  0  0  0
   27.9701  -20.0224  -14.7046 N   0  0  0  0  0  0  0  0  0  0  0  0
   27.0713  -18.9480  -12.7841 C   0  0  0  0  0  0  0  0  0  0  0  0
   26.5988  -17.9802  -12.1381 O   0  0  0  0  0  0  0  0  0  0  0  0
   26.7066  -20.2538  -12.3695 N   0  0  0  0  0  0  0  0  0  0  0  0
   25.7407  -20.4833  -11.2590 C   0  0  1  0  0  0  0  0  0  0  0  0
   24.7808  -21.4898  -11.7897 C   0  0  0  0  0  0  0  0  0  0  0  0
   23.5850  -20.9937  -12.5091 C   0  0  0  0  0  0  0  0  0  0  0  0
   23.5572  -21.4695  -13.9134 C   0  0  0  0  0  0  0  0  0  0  0  0
   23.9377  -22.6060  -14.2770 O   0  0  0  0  0  0  0  0  0  0  0  0
   26.5312  -20.9110  -10.0895 C   0  0  0  0  0  0  0  0  0  0  0  0
   27.7467  -21.2558  -10.1964 O   0  0  0  0  0  0  0  0  0  0  0  0
   23.0860  -20.6411  -14.9480 O   0  0  0  0  0  0  0  0  0  0  0  0
   25.9411  -20.9413   -8.8086 N   0  0  0  0  0  0  0  0  0  0  0  0
   26.7977  -21.0466   -7.6182 C   0  0  1  0  0  0  0  0  0  0  0  0
   27.6980  -19.8466   -7.5519 C   0  0  0  0  0  0  0  0  0  0  0  0
   28.3798  -19.7903   -6.2510 C   0  0  0  0  0  0  0  0  0  0  0  0
   28.0842  -18.7882   -5.3270 C   0  0  0  0  0  0  0  0  0  0  0  0
   28.6930  -18.7361   -4.0945 C   0  0  0  0  0  0  0  0  0  0  0  0
   29.6212  -19.6845   -3.7390 C   0  0  0  0  0  0  0  0  0  0  0  0
   29.9387  -20.6915   -4.6284 C   0  0  0  0  0  0  0  0  0  0  0  0
   29.3110  -20.7262   -5.8707 C   0  0  0  0  0  0  0  0  0  0  0  0
   25.9734  -21.1871   -6.4063 C   0  0  0  0  0  0  0  0  0  0  0  0
   26.3341  -21.9403   -5.4368 O   0  0  0  0  0  0  0  0  0  0  0  0
   24.7818  -20.5045   -6.2776 O   0  0  0  0  0  0  0  0  0  0  0  0
  2  3  1  6
  2  1  1  0
  4  2  1  0
  5  4  1  0
  5  6  1  6
  7  8  2  0
  7  5  1  0
  9  7  1  0
 10  9  1  0
 10 11  1  6
 12 13  1  0
 12 11  1  0
 13 14  2  0
 15 16  2  0
 15 10  1  0
 17 13  1  0
 18 15  1  0
 19 20  1  1
 19 18  1  0
 21 20  1  0
 21 22  2  0
 23 22  1  0
 24 23  2  0
 25 26  2  0
 25 24  1  0
 26 21  1  0
 27 19  1  0
 28 27  2  0
 29 27  1  0
M  END
$$$$
