LEF.pdb
     RDKit          3D

 29 29  0  0  1  0  0  0  0  0999 V2000
   17.4577  -15.2881  -17.6383 C   0  0  0  0  0  0  0  0  0  0  0  0
   16.6781  -14.1603  -18.3345 C   0  0  2  0  0  0  0  0  0  0  0  0
   16.5461  -14.5783  -19.7673 C   0  0  0  0  0  0  0  0  0  0  0  0
   17.4651  -12.9235  -18.1144 C   0  0  0  0  0  0  0  0  0  0  0  0
   17.6566  -12.4883  -16.7017 C   0  0  2  0  0  0  0  0  0  0  0  0
   16.3776  -12.3407  -16.0482 N   0  0  0  0  0  0  0  0  0  0  0  0
   18.2925  -11.1288  -16.7656 C   0  0  0  0  0  0  0  0  0  0  0  0
   19.2377  -10.8441  -17.5420 O   0  0  0  0  0  0  0  0  0  0  0  0
   17.8133  -10.1033  -15.9120 N   0  0  0  0  0  0  0  0  0  0  0  0
   18.4115   -8.7390  -15.9121 C   0  0  1  0  0  0  0  0  0  0  0  0
   17.4000   -7.8785  -15.2393 C   0  0  0  0  0  0  0  0  0  0  0  0
   16.3425   -7.2686  -16.0779 C   0  0  0  0  0  0  0  0  0  0  0  0
   15.2568   -6.6894  -15.2502 C   0  0  0  0  0  0  0  0  0  0  0  0
   15.2248   -6.7400  -13.9992 O   0  0  0  0  0  0  0  0  0  0  0  0
   19.7138   -8.8458  -15.2280 C   0  0  0  0  0  0  0  0  0  0  0  0
   20.0335   -9.8749  -14.5598 O   0  0  0  0  0  0  0  0  0  0  0  0
   14.1670   -6.0296  -15.8466 O   0  0  0  0  0  0  0  0  0  0  0  0
   20.6450   -7.7892  -15.3089 N   0  0  0  0  0  0  0  0  0  0  0  0
   22.0503   -8.0326  -14.9515 C   0  0  1  0  0  0  0  0  0  0  0  0
   22.6227   -9.0648  -15.8799 C   0  0  0  0  0  0  0  0  0  0  0  0
   24.0531   -9.2622  -15.6054 C   0  0  0  0  0  0  0  0  0  0  0  0
   24.4788  -10.1024  -14.5767 C   0  0  0  0  0  0  0  0  0  0  0  0
   25.8133  -10.3195  -14.3233 C   0  0  0  0  0  0  0  0  0  0  0  0
   26.7736   -9.7041  -15.0893 C   0  0  0  0  0  0  0  0  0  0  0  0
   26.3891   -8.8657  -16.1164 C   0  0  0  0  0  0  0  0  0  0  0  0
   25.0332   -8.6596  -16.3563 C   0  0  0  0  0  0  0  0  0  0  0  0
   22.8122   -6.7731  -14.9875 C   0  0  0  0  0  0  0  0  0  0  0  0
   22.6031   -5.8916  -15.8913 O   0  0  0  0  0  0  0  0  0  0  0  0
   23.7778   -6.5026  -14.0406 O   0  0  0  0  0  0  0  0  0  0  0  0
  2  3  1  6
  2  1  1  0
  4  2  1  0
  5  4  1  0
  5  6  1  6
  7  8  2  0
  7  5  1  0
  9  7  1  0
 10  9  1  0
 10 11  1  1
 12 13  1  0
 12 11  1  0
 13 14  2  0
 15 16  2  0
 15 10  1  0
 17 13  1  0
 18 15  1  0
 19 20  1  6
 19 18  1  0
 21 20  1  0
 21 22  2  0
 23 22  1  0
 24 23  2  0
 25 26  2  0
 25 24  1  0
 26 21  1  0
 27 19  1  0
 28 27  2  0
 29 27  1  0
M  END
$$$$
