LEF.pdb
     RDKit          3D

 29 29  0  0  1  0  0  0  0  0999 V2000
   18.1339  -18.5089  -16.6084 C   0  0  0  0  0  0  0  0  0  0  0  0
   19.1701  -19.2086  -17.5035 C   0  0  2  0  0  0  0  0  0  0  0  0
   18.3854  -20.0952  -18.4217 C   0  0  0  0  0  0  0  0  0  0  0  0
   20.0905  -19.9193  -16.5841 C   0  0  0  0  0  0  0  0  0  0  0  0
   20.8214  -19.0881  -15.5858 C   0  0  2  0  0  0  0  0  0  0  0  0
   21.3289  -17.8898  -16.2112 N   0  0  0  0  0  0  0  0  0  0  0  0
   22.0029  -19.9053  -15.1464 C   0  0  0  0  0  0  0  0  0  0  0  0
   21.9010  -21.0485  -14.6365 O   0  0  0  0  0  0  0  0  0  0  0  0
   23.3071  -19.3731  -15.3080 N   0  0  0  0  0  0  0  0  0  0  0  0
   24.5224  -20.1448  -14.9250 C   0  0  1  0  0  0  0  0  0  0  0  0
   25.5670  -19.7184  -15.8961 C   0  0  0  0  0  0  0  0  0  0  0  0
   26.9275  -20.2830  -15.7415 C   0  0  0  0  0  0  0  0  0  0  0  0
   26.9741  -21.7103  -16.1411 C   0  0  0  0  0  0  0  0  0  0  0  0
   26.2371  -22.2183  -17.0171 O   0  0  0  0  0  0  0  0  0  0  0  0
   24.7989  -19.8282  -13.5113 C   0  0  0  0  0  0  0  0  0  0  0  0
   24.8365  -18.6326  -13.0908 O   0  0  0  0  0  0  0  0  0  0  0  0
   27.8795  -22.6010  -15.5364 O   0  0  0  0  0  0  0  0  0  0  0  0
   25.0268  -20.8670  -12.5845 N   0  0  0  0  0  0  0  0  0  0  0  0
   25.8670  -20.6144  -11.4046 C   0  0  1  0  0  0  0  0  0  0  0  0
   24.9873  -20.2578  -10.2411 C   0  0  0  0  0  0  0  0  0  0  0  0
   25.7924  -20.0973   -9.0218 C   0  0  0  0  0  0  0  0  0  0  0  0
   26.5478  -18.9450   -8.8053 C   0  0  0  0  0  0  0  0  0  0  0  0
   27.2855  -18.7667   -7.6580 C   0  0  0  0  0  0  0  0  0  0  0  0
   27.2960  -19.7346   -6.6830 C   0  0  0  0  0  0  0  0  0  0  0  0
   26.5599  -20.8886   -6.8631 C   0  0  0  0  0  0  0  0  0  0  0  0
   25.8200  -21.0492   -8.0315 C   0  0  0  0  0  0  0  0  0  0  0  0
   26.7132  -21.7852  -11.1198 C   0  0  0  0  0  0  0  0  0  0  0  0
   26.4244  -22.9451  -11.5768 O   0  0  0  0  0  0  0  0  0  0  0  0
   27.8513  -21.6656  -10.3499 O   0  0  0  0  0  0  0  0  0  0  0  0
  2  3  1  6
  2  1  1  0
  4  2  1  0
  5  4  1  0
  5  6  1  6
  7  8  2  0
  7  5  1  0
  9  7  1  0
 10  9  1  0
 10 11  1  6
 12 13  1  0
 12 11  1  0
 13 14  2  0
 15 16  2  0
 15 10  1  0
 17 13  1  0
 18 15  1  0
 19 20  1  1
 19 18  1  0
 21 20  1  0
 21 22  2  0
 23 22  1  0
 24 23  2  0
 25 26  2  0
 25 24  1  0
 26 21  1  0
 27 19  1  0
 28 27  2  0
 29 27  1  0
M  END
$$$$
