LEF.pdb
     RDKit          3D

 29 29  0  0  1  0  0  0  0  0999 V2000
   21.6577  -11.8630  -18.9094 C   0  0  0  0  0  0  0  0  0  0  0  0
   20.7623  -11.0723  -17.9412 C   0  0  2  0  0  0  0  0  0  0  0  0
   21.6672  -10.0986  -17.2497 C   0  0  0  0  0  0  0  0  0  0  0  0
   20.1322  -12.0786  -17.0535 C   0  0  0  0  0  0  0  0  0  0  0  0
   19.2164  -13.0645  -17.6947 C   0  0  2  0  0  0  0  0  0  0  0  0
   18.2724  -12.3846  -18.5499 N   0  0  0  0  0  0  0  0  0  0  0  0
   18.4394  -13.7012  -16.5778 C   0  0  0  0  0  0  0  0  0  0  0  0
   18.9797  -14.2604  -15.5915 O   0  0  0  0  0  0  0  0  0  0  0  0
   17.0226  -13.6792  -16.6243 N   0  0  0  0  0  0  0  0  0  0  0  0
   16.1926  -14.3021  -15.5555 C   0  0  1  0  0  0  0  0  0  0  0  0
   14.9906  -13.4304  -15.4487 C   0  0  0  0  0  0  0  0  0  0  0  0
   13.8898  -13.8749  -14.5631 C   0  0  0  0  0  0  0  0  0  0  0  0
   12.7184  -12.9700  -14.6533 C   0  0  0  0  0  0  0  0  0  0  0  0
   11.7388  -13.1633  -15.4094 O   0  0  0  0  0  0  0  0  0  0  0  0
   15.9362  -15.6933  -15.9730 C   0  0  0  0  0  0  0  0  0  0  0  0
   15.6196  -15.9838  -17.1659 O   0  0  0  0  0  0  0  0  0  0  0  0
   12.6423  -11.8057  -13.8676 O   0  0  0  0  0  0  0  0  0  0  0  0
   16.0440  -16.7443  -15.0383 N   0  0  0  0  0  0  0  0  0  0  0  0
   15.8653  -18.1335  -15.4859 C   0  0  1  0  0  0  0  0  0  0  0  0
   17.0233  -18.5222  -16.3592 C   0  0  0  0  0  0  0  0  0  0  0  0
   18.2719  -18.5200  -15.5837 C   0  0  0  0  0  0  0  0  0  0  0  0
   19.1544  -17.4417  -15.6446 C   0  0  0  0  0  0  0  0  0  0  0  0
   20.3139  -17.4114  -14.9050 C   0  0  0  0  0  0  0  0  0  0  0  0
   20.6353  -18.4588  -14.0760 C   0  0  0  0  0  0  0  0  0  0  0  0
   19.7850  -19.5430  -13.9903 C   0  0  0  0  0  0  0  0  0  0  0  0
   18.6164  -19.5539  -14.7471 C   0  0  0  0  0  0  0  0  0  0  0  0
   15.7220  -19.0295  -14.3262 C   0  0  0  0  0  0  0  0  0  0  0  0
   15.7576  -18.5819  -13.1280 O   0  0  0  0  0  0  0  0  0  0  0  0
   15.5408  -20.3859  -14.4979 O   0  0  0  0  0  0  0  0  0  0  0  0
  2  3  1  1
  2  1  1  0
  4  2  1  0
  5  4  1  0
  5  6  1  6
  7  8  2  0
  7  5  1  0
  9  7  1  0
 10  9  1  0
 10 11  1  6
 12 13  1  0
 12 11  1  0
 13 14  2  0
 15 16  2  0
 15 10  1  0
 17 13  1  0
 18 15  1  0
 19 20  1  1
 19 18  1  0
 21 20  1  0
 21 22  2  0
 23 22  1  0
 24 23  2  0
 25 26  2  0
 25 24  1  0
 26 21  1  0
 27 19  1  0
 28 27  2  0
 29 27  1  0
M  END
$$$$
