LEF.pdb
     RDKit          3D

 29 29  0  0  1  0  0  0  0  0999 V2000
   28.9904  -18.3249  -16.9474 C   0  0  0  0  0  0  0  0  0  0  0  0
   27.8736  -17.4798  -16.3125 C   0  0  2  0  0  0  0  0  0  0  0  0
   28.1472  -16.0651  -16.7234 C   0  0  0  0  0  0  0  0  0  0  0  0
   27.9492  -17.7326  -14.8538 C   0  0  0  0  0  0  0  0  0  0  0  0
   27.7903  -19.1449  -14.4048 C   0  0  2  0  0  0  0  0  0  0  0  0
   27.0979  -19.9131  -15.4124 N   0  0  0  0  0  0  0  0  0  0  0  0
   26.9127  -19.1001  -13.1864 C   0  0  0  0  0  0  0  0  0  0  0  0
   26.7694  -18.0746  -12.4756 O   0  0  0  0  0  0  0  0  0  0  0  0
   26.2032  -20.2668  -12.8050 N   0  0  0  0  0  0  0  0  0  0  0  0
   25.2910  -20.2806  -11.6274 C   0  0  1  0  0  0  0  0  0  0  0  0
   24.2086  -21.2346  -11.9941 C   0  0  0  0  0  0  0  0  0  0  0  0
   23.1087  -21.4398  -11.0236 C   0  0  0  0  0  0  0  0  0  0  0  0
   21.8747  -20.7307  -11.4403 C   0  0  0  0  0  0  0  0  0  0  0  0
   21.3004  -19.8571  -10.7507 O   0  0  0  0  0  0  0  0  0  0  0  0
   26.1088  -20.6621  -10.4607 C   0  0  0  0  0  0  0  0  0  0  0  0
   26.8934  -21.6575  -10.4933 O   0  0  0  0  0  0  0  0  0  0  0  0
   21.2618  -21.0114  -12.6748 O   0  0  0  0  0  0  0  0  0  0  0  0
   26.0348  -19.9118   -9.2684 N   0  0  0  0  0  0  0  0  0  0  0  0
   26.7776  -20.3614   -8.0818 C   0  0  1  0  0  0  0  0  0  0  0  0
   27.4522  -19.1799   -7.4463 C   0  0  0  0  0  0  0  0  0  0  0  0
   28.0851  -19.5730   -6.1793 C   0  0  0  0  0  0  0  0  0  0  0  0
   27.5526  -19.1711   -4.9544 C   0  0  0  0  0  0  0  0  0  0  0  0
   28.1164  -19.5521   -3.7589 C   0  0  0  0  0  0  0  0  0  0  0  0
   29.2350  -20.3498   -3.7427 C   0  0  0  0  0  0  0  0  0  0  0  0
   29.7893  -20.7669   -4.9363 C   0  0  0  0  0  0  0  0  0  0  0  0
   29.2031  -20.3702   -6.1352 C   0  0  0  0  0  0  0  0  0  0  0  0
   25.8754  -21.0527   -7.1458 C   0  0  0  0  0  0  0  0  0  0  0  0
   26.3233  -21.6638   -6.1147 O   0  0  0  0  0  0  0  0  0  0  0  0
   24.5116  -21.0595   -7.3519 O   0  0  0  0  0  0  0  0  0  0  0  0
  2  3  1  1
  2  1  1  0
  4  2  1  0
  5  4  1  0
  5  6  1  6
  7  8  2  0
  7  5  1  0
  9  7  1  0
 10  9  1  0
 10 11  1  6
 12 13  1  0
 12 11  1  0
 13 14  2  0
 15 16  2  0
 15 10  1  0
 17 13  1  0
 18 15  1  0
 19 20  1  1
 19 18  1  0
 21 20  1  0
 21 22  2  0
 23 22  1  0
 24 23  2  0
 25 26  2  0
 25 24  1  0
 26 21  1  0
 27 19  1  0
 28 27  2  0
 29 27  1  0
M  END
$$$$
