LEF.pdb
     RDKit          3D

 29 29  0  0  1  0  0  0  0  0999 V2000
   21.9226  -14.3688  -17.6293 C   0  0  0  0  0  0  0  0  0  0  0  0
   21.2571  -13.5170  -18.7229 C   0  0  2  0  0  0  0  0  0  0  0  0
   21.8271  -14.0004  -20.0215 C   0  0  0  0  0  0  0  0  0  0  0  0
   21.5703  -12.1069  -18.3894 C   0  0  0  0  0  0  0  0  0  0  0  0
   21.0124  -11.5757  -17.1134 C   0  0  2  0  0  0  0  0  0  0  0  0
   19.6678  -12.0635  -16.9162 N   0  0  0  0  0  0  0  0  0  0  0  0
   20.9338  -10.0848  -17.2800 C   0  0  0  0  0  0  0  0  0  0  0  0
   21.9208   -9.3708  -17.5855 O   0  0  0  0  0  0  0  0  0  0  0  0
   19.6890   -9.4345  -17.0857 N   0  0  0  0  0  0  0  0  0  0  0  0
   19.5431   -7.9593  -17.2328 C   0  0  1  0  0  0  0  0  0  0  0  0
   18.0984   -7.7455  -17.5214 C   0  0  0  0  0  0  0  0  0  0  0  0
   17.6324   -6.3550  -17.7286 C   0  0  0  0  0  0  0  0  0  0  0  0
   16.2359   -6.1730  -17.2638 C   0  0  0  0  0  0  0  0  0  0  0  0
   15.5337   -7.0882  -16.7761 O   0  0  0  0  0  0  0  0  0  0  0  0
   20.0392   -7.3562  -15.9816 C   0  0  0  0  0  0  0  0  0  0  0  0
   19.7466   -7.8396  -14.8465 O   0  0  0  0  0  0  0  0  0  0  0  0
   15.6034   -4.9196  -17.3492 O   0  0  0  0  0  0  0  0  0  0  0  0
   20.8655   -6.2137  -16.0253 N   0  0  0  0  0  0  0  0  0  0  0  0
   21.2350   -5.5380  -14.7727 C   0  0  1  0  0  0  0  0  0  0  0  0
   22.7070   -5.7140  -14.5341 C   0  0  0  0  0  0  0  0  0  0  0  0
   23.0430   -7.1419  -14.4426 C   0  0  0  0  0  0  0  0  0  0  0  0
   23.8585   -7.7515  -15.3959 C   0  0  0  0  0  0  0  0  0  0  0  0
   24.2048   -9.0800  -15.3109 C   0  0  0  0  0  0  0  0  0  0  0  0
   23.7485   -9.8502  -14.2686 C   0  0  0  0  0  0  0  0  0  0  0  0
   22.9392   -9.2804  -13.3062 C   0  0  0  0  0  0  0  0  0  0  0  0
   22.6006   -7.9340  -13.4108 C   0  0  0  0  0  0  0  0  0  0  0  0
   20.8490   -4.1181  -14.8251 C   0  0  0  0  0  0  0  0  0  0  0  0
   20.3520   -3.5996  -15.8841 O   0  0  0  0  0  0  0  0  0  0  0  0
   21.0096   -3.2999  -13.7264 O   0  0  0  0  0  0  0  0  0  0  0  0
  2  3  1  6
  2  1  1  0
  4  2  1  0
  5  4  1  0
  5  6  1  6
  7  8  2  0
  7  5  1  0
  9  7  1  0
 10  9  1  0
 10 11  1  1
 12 13  1  0
 12 11  1  0
 13 14  2  0
 15 16  2  0
 15 10  1  0
 17 13  1  0
 18 15  1  0
 19 20  1  6
 19 18  1  0
 21 20  1  0
 21 22  2  0
 23 22  1  0
 24 23  2  0
 25 26  2  0
 25 24  1  0
 26 21  1  0
 27 19  1  0
 28 27  2  0
 29 27  1  0
M  END
$$$$
