NGR.pdb
     RDKit          3D

 24 23  0  0  1  0  0  0  0  0999 V2000
    6.6696  -17.6597   13.4453 N   0  0  0  0  0  0  0  0  0  0  0  0
    6.7719  -17.7079   14.8669 C   0  0  0  0  0  0  0  0  0  0  0  0
    6.8960  -18.8531   15.3702 O   0  0  0  0  0  0  0  0  0  0  0  0
    6.7322  -16.4698   15.6916 C   0  0  0  0  0  0  0  0  0  0  0  0
    8.1549  -16.1304   16.0669 C   0  0  2  0  0  0  0  0  0  0  0  0
    8.6677  -17.2338   16.8540 N   0  0  0  0  0  0  0  0  0  0  0  0
    8.3090  -14.8701   16.7911 C   0  0  0  0  0  0  0  0  0  0  0  0
    8.1644  -13.7890   16.1390 O   0  0  0  0  0  0  0  0  0  0  0  0
    8.6098  -14.7769   18.1766 N   0  0  0  0  0  0  0  0  0  0  0  0
    8.7346  -13.5041   18.7902 C   0  0  0  0  0  0  0  0  0  0  0  0
    8.9274  -13.4787   20.2367 C   0  0  0  0  0  0  0  0  0  0  0  0
    9.0974  -12.3162   20.7469 O   0  0  0  0  0  0  0  0  0  0  0  0
    4.9712  -12.6758   26.7545 N   0  0  0  0  0  0  0  0  0  0  0  0
    6.3948  -12.5924   26.5945 C   0  0  0  0  0  0  0  0  0  0  0  0
    7.0245  -11.5450   27.0685 N   0  0  0  0  0  0  0  0  0  0  0  0
    7.1477  -13.6028   25.9420 N   0  0  0  0  0  0  0  0  0  0  0  0
    6.6225  -14.2557   24.7604 C   0  0  0  0  0  0  0  0  0  0  0  0
    7.5354  -13.9759   23.5953 C   0  0  0  0  0  0  0  0  0  0  0  0
    8.7280  -14.8911   23.5632 C   0  0  0  0  0  0  0  0  0  0  0  0
    9.6230  -14.5786   22.4079 C   0  0  2  0  0  0  0  0  0  0  0  0
    8.9508  -14.5573   21.1343 N   0  0  0  0  0  0  0  0  0  0  0  0
   10.6970  -15.6295   22.3113 C   0  0  0  0  0  0  0  0  0  0  0  0
   10.7112  -16.4624   21.3731 O   0  0  0  0  0  0  0  0  0  0  0  0
   11.6995  -15.6975   23.2653 O   0  0  0  0  0  0  0  0  0  0  0  0
  1  2  1  0
  2  4  1  0
  3  2  2  0
  5  4  1  0
  5  7  1  0
  5  6  1  1
  7  8  2  0
  9 10  1  0
  9  7  1  0
 10 11  1  0
 11 12  2  0
 11 21  1  0
 13 14  1  0
 14 15  2  0
 16 17  1  0
 16 14  1  0
 17 18  1  0
 19 18  1  0
 20 19  1  1
 21 20  1  0
 22 20  1  0
 22 24  1  0
 23 22  2  0
M  END
$$$$
