NGR.pdb
     RDKit          3D

 24 23  0  0  1  0  0  0  0  0999 V2000
    8.3930  -20.9812   16.7720 N   0  0  0  0  0  0  0  0  0  0  0  0
    7.7597  -20.1549   17.7465 C   0  0  0  0  0  0  0  0  0  0  0  0
    6.6035  -20.5039   18.0951 O   0  0  0  0  0  0  0  0  0  0  0  0
    8.4382  -18.9551   18.3077 C   0  0  0  0  0  0  0  0  0  0  0  0
    9.2686  -19.4131   19.4828 C   0  0  2  0  0  0  0  0  0  0  0  0
    8.3563  -19.9561   20.4693 N   0  0  0  0  0  0  0  0  0  0  0  0
   10.1063  -18.3735   20.0779 C   0  0  0  0  0  0  0  0  0  0  0  0
   10.9195  -17.7594   19.3187 O   0  0  0  0  0  0  0  0  0  0  0  0
   10.0692  -18.0064   21.4500 N   0  0  0  0  0  0  0  0  0  0  0  0
   10.9534  -17.0118   21.9411 C   0  0  0  0  0  0  0  0  0  0  0  0
   10.7457  -16.5548   23.3115 C   0  0  0  0  0  0  0  0  0  0  0  0
   11.6556  -15.7821   23.7758 O   0  0  0  0  0  0  0  0  0  0  0  0
    5.0161  -11.5746   25.8062 N   0  0  0  0  0  0  0  0  0  0  0  0
    6.2164  -12.2636   26.1848 C   0  0  0  0  0  0  0  0  0  0  0  0
    7.2005  -11.5768   26.7126 N   0  0  0  0  0  0  0  0  0  0  0  0
    6.3785  -13.6623   26.0096 N   0  0  0  0  0  0  0  0  0  0  0  0
    7.4725  -14.1756   25.2109 C   0  0  0  0  0  0  0  0  0  0  0  0
    7.3651  -15.6762   25.1334 C   0  0  0  0  0  0  0  0  0  0  0  0
    8.2550  -16.3710   26.1264 C   0  0  0  0  0  0  0  0  0  0  0  0
    9.6377  -16.5482   25.5875 C   0  0  2  0  0  0  0  0  0  0  0  0
    9.6842  -16.8516   24.1804 N   0  0  0  0  0  0  0  0  0  0  0  0
   10.3063  -17.6947   26.2984 C   0  0  0  0  0  0  0  0  0  0  0  0
   10.7030  -18.7072   25.6726 O   0  0  0  0  0  0  0  0  0  0  0  0
   10.4983  -17.6533   27.6700 O   0  0  0  0  0  0  0  0  0  0  0  0
  1  2  1  0
  2  4  1  0
  3  2  2  0
  5  4  1  0
  5  7  1  0
  5  6  1  1
  7  8  2  0
  9 10  1  0
  9  7  1  0
 10 11  1  0
 11 12  2  0
 11 21  1  0
 13 14  1  0
 14 15  2  0
 16 17  1  0
 16 14  1  0
 17 18  1  0
 19 18  1  0
 20 19  1  1
 21 20  1  0
 22 20  1  0
 22 24  1  0
 23 22  2  0
M  END
$$$$
