NGR.pdb
     RDKit          3D

 24 23  0  0  1  0  0  0  0  0999 V2000
    7.3835  -12.9478   16.1765 N   0  0  0  0  0  0  0  0  0  0  0  0
    8.3157  -13.8690   15.6143 C   0  0  0  0  0  0  0  0  0  0  0  0
    8.5540  -13.7298   14.3879 O   0  0  0  0  0  0  0  0  0  0  0  0
    8.9592  -14.9258   16.4411 C   0  0  0  0  0  0  0  0  0  0  0  0
    8.1464  -15.0684   17.7057 C   0  0  2  0  0  0  0  0  0  0  0  0
    8.1328  -13.7740   18.3573 N   0  0  0  0  0  0  0  0  0  0  0  0
    8.6265  -16.0989   18.6246 C   0  0  0  0  0  0  0  0  0  0  0  0
    8.6579  -17.2987   18.2071 O   0  0  0  0  0  0  0  0  0  0  0  0
    9.0600  -15.8445   19.9535 N   0  0  0  0  0  0  0  0  0  0  0  0
    9.5222  -16.9128   20.7643 C   0  0  0  0  0  0  0  0  0  0  0  0
    9.7973  -16.6134   22.1661 C   0  0  0  0  0  0  0  0  0  0  0  0
   10.9514  -16.1111   22.4033 O   0  0  0  0  0  0  0  0  0  0  0  0
    7.7900  -11.9090   25.9155 N   0  0  0  0  0  0  0  0  0  0  0  0
    6.3597  -12.0142   25.9627 C   0  0  0  0  0  0  0  0  0  0  0  0
    5.6690  -11.0238   26.4730 N   0  0  0  0  0  0  0  0  0  0  0  0
    5.6638  -13.1512   25.4766 N   0  0  0  0  0  0  0  0  0  0  0  0
    6.1260  -14.4845   25.8039 C   0  0  0  0  0  0  0  0  0  0  0  0
    7.4143  -14.7537   25.0712 C   0  0  0  0  0  0  0  0  0  0  0  0
    8.0189  -16.0816   25.4347 C   0  0  0  0  0  0  0  0  0  0  0  0
    9.2417  -16.3635   24.6230 C   0  0  2  0  0  0  0  0  0  0  0  0
    8.9653  -16.8044   23.2801 N   0  0  0  0  0  0  0  0  0  0  0  0
   10.0353  -17.4600   25.2824 C   0  0  0  0  0  0  0  0  0  0  0  0
   10.0402  -18.6275   24.8230 O   0  0  0  0  0  0  0  0  0  0  0  0
   10.7826  -17.1984   26.4195 O   0  0  0  0  0  0  0  0  0  0  0  0
  1  2  1  0
  2  4  1  0
  3  2  2  0
  5  4  1  0
  5  7  1  0
  5  6  1  1
  7  8  2  0
  9 10  1  0
  9  7  1  0
 10 11  1  0
 11 12  2  0
 11 21  1  0
 13 14  1  0
 14 15  2  0
 16 17  1  0
 16 14  1  0
 17 18  1  0
 19 18  1  0
 20 19  1  1
 21 20  1  0
 22 20  1  0
 22 24  1  0
 23 22  2  0
M  END
$$$$
