NGR.pdb
     RDKit          3D

 24 23  0  0  1  0  0  0  0  0999 V2000
    6.4621  -12.5389   19.0108 N   0  0  0  0  0  0  0  0  0  0  0  0
    7.5123  -12.9355   18.1313 C   0  0  0  0  0  0  0  0  0  0  0  0
    7.2575  -12.8612   16.9027 O   0  0  0  0  0  0  0  0  0  0  0  0
    8.8248  -13.4069   18.6508 C   0  0  0  0  0  0  0  0  0  0  0  0
    9.4045  -14.3515   17.6251 C   0  0  2  0  0  0  0  0  0  0  0  0
    8.3808  -15.3282   17.3118 N   0  0  0  0  0  0  0  0  0  0  0  0
   10.6377  -15.0177   18.0400 C   0  0  0  0  0  0  0  0  0  0  0  0
   11.6278  -14.9833   17.2441 O   0  0  0  0  0  0  0  0  0  0  0  0
   10.7995  -15.7008   19.2753 N   0  0  0  0  0  0  0  0  0  0  0  0
   12.0497  -16.2858   19.6025 C   0  0  0  0  0  0  0  0  0  0  0  0
   12.5603  -16.0543   20.9501 C   0  0  0  0  0  0  0  0  0  0  0  0
   12.1245  -14.9973   21.5276 O   0  0  0  0  0  0  0  0  0  0  0  0
   12.0542  -23.0315   23.3273 N   0  0  0  0  0  0  0  0  0  0  0  0
   11.8452  -21.6578   23.6852 C   0  0  0  0  0  0  0  0  0  0  0  0
   11.0319  -20.9312   22.9578 N   0  0  0  0  0  0  0  0  0  0  0  0
   12.4860  -21.0555   24.7988 N   0  0  0  0  0  0  0  0  0  0  0  0
   13.6224  -20.1793   24.6005 C   0  0  0  0  0  0  0  0  0  0  0  0
   13.1615  -18.9221   23.9106 C   0  0  0  0  0  0  0  0  0  0  0  0
   14.2645  -17.9126   23.7523 C   0  0  0  0  0  0  0  0  0  0  0  0
   13.7726  -16.6687   23.0856 C   0  0  2  0  0  0  0  0  0  0  0  0
   13.4619  -16.8356   21.6892 N   0  0  0  0  0  0  0  0  0  0  0  0
   14.8361  -15.6060   23.1669 C   0  0  0  0  0  0  0  0  0  0  0  0
   15.1958  -15.1271   24.2694 O   0  0  0  0  0  0  0  0  0  0  0  0
   15.4437  -15.1323   22.0153 O   0  0  0  0  0  0  0  0  0  0  0  0
  1  2  1  0
  2  4  1  0
  3  2  2  0
  5  4  1  0
  5  7  1  0
  5  6  1  1
  7  8  2  0
  9 10  1  0
  9  7  1  0
 10 11  1  0
 11 12  2  0
 11 21  1  0
 13 14  1  0
 14 15  2  0
 16 17  1  0
 16 14  1  0
 17 18  1  0
 19 18  1  0
 20 19  1  6
 21 20  1  0
 22 20  1  0
 22 24  1  0
 23 22  2  0
M  END
$$$$
