NGR.pdb
     RDKit          3D

 24 23  0  0  1  0  0  0  0  0999 V2000
   12.5483  -16.3862   16.0174 N   0  0  0  0  0  0  0  0  0  0  0  0
   11.7092  -17.5280   16.1780 C   0  0  0  0  0  0  0  0  0  0  0  0
   11.3763  -18.1183   15.1193 O   0  0  0  0  0  0  0  0  0  0  0  0
   11.2625  -17.9815   17.5231 C   0  0  0  0  0  0  0  0  0  0  0  0
   11.9278  -17.0906   18.5449 C   0  0  2  0  0  0  0  0  0  0  0  0
   13.3524  -17.1218   18.2811 N   0  0  0  0  0  0  0  0  0  0  0  0
   11.6567  -17.4516   19.9352 C   0  0  0  0  0  0  0  0  0  0  0  0
   10.4516  -17.4075   20.3359 O   0  0  0  0  0  0  0  0  0  0  0  0
   12.6541  -17.8481   20.8662 N   0  0  0  0  0  0  0  0  0  0  0  0
   12.2796  -18.2766   22.1656 C   0  0  0  0  0  0  0  0  0  0  0  0
   11.7523  -17.2634   23.0742 C   0  0  0  0  0  0  0  0  0  0  0  0
   12.6240  -16.4712   23.5774 O   0  0  0  0  0  0  0  0  0  0  0  0
    6.4563  -13.2424   19.4473 N   0  0  0  0  0  0  0  0  0  0  0  0
    7.8620  -12.9544   19.4529 C   0  0  0  0  0  0  0  0  0  0  0  0
    8.3483  -12.1577   18.5324 N   0  0  0  0  0  0  0  0  0  0  0  0
    8.7468  -13.4997   20.4190 N   0  0  0  0  0  0  0  0  0  0  0  0
    8.2297  -14.0364   21.6611 C   0  0  0  0  0  0  0  0  0  0  0  0
    9.3793  -14.5201   22.5060 C   0  0  0  0  0  0  0  0  0  0  0  0
    8.9265  -15.1221   23.8073 C   0  0  0  0  0  0  0  0  0  0  0  0
    9.9668  -16.0307   24.3780 C   0  0  2  0  0  0  0  0  0  0  0  0
   10.4218  -17.0475   23.4651 N   0  0  0  0  0  0  0  0  0  0  0  0
    9.3999  -16.7475   25.5745 C   0  0  0  0  0  0  0  0  0  0  0  0
    8.9603  -16.1153   26.5651 O   0  0  0  0  0  0  0  0  0  0  0  0
    9.3521  -18.1320   25.6050 O   0  0  0  0  0  0  0  0  0  0  0  0
  1  2  1  0
  2  4  1  0
  3  2  2  0
  5  4  1  0
  5  7  1  0
  5  6  1  1
  7  8  2  0
  9 10  1  0
  9  7  1  0
 10 11  1  0
 11 12  2  0
 11 21  1  0
 13 14  1  0
 14 15  2  0
 16 17  1  0
 16 14  1  0
 17 18  1  0
 19 18  1  0
 20 19  1  6
 21 20  1  0
 22 20  1  0
 22 24  1  0
 23 22  2  0
M  END
$$$$
