NGR.pdb
     RDKit          3D

 24 23  0  0  1  0  0  0  0  0999 V2000
    7.5449  -12.9246   16.4358 N   0  0  0  0  0  0  0  0  0  0  0  0
    8.3644  -13.8882   17.0942 C   0  0  0  0  0  0  0  0  0  0  0  0
    8.5549  -14.9639   16.4725 O   0  0  0  0  0  0  0  0  0  0  0  0
    8.9513  -13.6227   18.4357 C   0  0  0  0  0  0  0  0  0  0  0  0
    8.3845  -14.6479   19.3885 C   0  0  2  0  0  0  0  0  0  0  0  0
    7.1367  -15.1192   18.8217 N   0  0  0  0  0  0  0  0  0  0  0  0
    8.1763  -14.1622   20.7514 C   0  0  0  0  0  0  0  0  0  0  0  0
    9.1705  -13.6557   21.3596 O   0  0  0  0  0  0  0  0  0  0  0  0
    6.9342  -14.2204   21.4388 N   0  0  0  0  0  0  0  0  0  0  0  0
    6.5982  -15.3704   22.1982 C   0  0  0  0  0  0  0  0  0  0  0  0
    7.3495  -15.5981   23.4287 C   0  0  0  0  0  0  0  0  0  0  0  0
    6.7899  -15.1728   24.4994 O   0  0  0  0  0  0  0  0  0  0  0  0
    4.5620  -20.4884   23.7932 N   0  0  0  0  0  0  0  0  0  0  0  0
    5.8874  -20.9414   24.1046 C   0  0  0  0  0  0  0  0  0  0  0  0
    6.0882  -22.2216   24.3027 N   0  0  0  0  0  0  0  0  0  0  0  0
    6.9906  -20.0547   24.2058 N   0  0  0  0  0  0  0  0  0  0  0  0
    7.7519  -19.9748   25.4355 C   0  0  0  0  0  0  0  0  0  0  0  0
    8.0257  -18.5280   25.7532 C   0  0  0  0  0  0  0  0  0  0  0  0
    9.2891  -18.0249   25.1115 C   0  0  0  0  0  0  0  0  0  0  0  0
    9.2164  -16.5562   24.8443 C   0  0  2  0  0  0  0  0  0  0  0  0
    8.5981  -16.2187   23.5881 N   0  0  0  0  0  0  0  0  0  0  0  0
   10.6100  -15.9874   24.8059 C   0  0  0  0  0  0  0  0  0  0  0  0
   11.3690  -16.0548   25.8026 O   0  0  0  0  0  0  0  0  0  0  0  0
   11.0853  -15.3731   23.6585 O   0  0  0  0  0  0  0  0  0  0  0  0
  1  2  1  0
  2  4  1  0
  3  2  2  0
  5  4  1  0
  5  7  1  0
  5  6  1  6
  7  8  2  0
  9 10  1  0
  9  7  1  0
 10 11  1  0
 11 12  2  0
 11 21  1  0
 13 14  1  0
 14 15  2  0
 16 17  1  0
 16 14  1  0
 17 18  1  0
 19 18  1  0
 20 19  1  6
 21 20  1  0
 22 20  1  0
 22 24  1  0
 23 22  2  0
M  END
$$$$
