NGR.pdb
     RDKit          3D

 24 23  0  0  1  0  0  0  0  0999 V2000
    8.0667  -12.5223   17.6289 N   0  0  0  0  0  0  0  0  0  0  0  0
    7.7423  -13.7513   18.2753 C   0  0  0  0  0  0  0  0  0  0  0  0
    6.9327  -14.4954   17.6661 O   0  0  0  0  0  0  0  0  0  0  0  0
    8.3335  -14.1174   19.5910 C   0  0  0  0  0  0  0  0  0  0  0  0
    9.5916  -14.9066   19.3179 C   0  0  2  0  0  0  0  0  0  0  0  0
    9.1897  -16.1661   18.7243 N   0  0  0  0  0  0  0  0  0  0  0  0
   10.4311  -15.1388   20.4917 C   0  0  0  0  0  0  0  0  0  0  0  0
   10.8969  -14.1241   21.0986 O   0  0  0  0  0  0  0  0  0  0  0  0
   10.7591  -16.4256   20.9969 N   0  0  0  0  0  0  0  0  0  0  0  0
   11.6167  -16.5480   22.1201 C   0  0  0  0  0  0  0  0  0  0  0  0
   10.9864  -16.6090   23.4351 C   0  0  0  0  0  0  0  0  0  0  0  0
   11.7925  -16.7091   24.4254 O   0  0  0  0  0  0  0  0  0  0  0  0
    5.4206  -12.3384   27.4885 N   0  0  0  0  0  0  0  0  0  0  0  0
    6.2223  -11.7440   26.4575 C   0  0  0  0  0  0  0  0  0  0  0  0
    6.5334  -10.4740   26.5511 N   0  0  0  0  0  0  0  0  0  0  0  0
    6.6921  -12.4802   25.3392 N   0  0  0  0  0  0  0  0  0  0  0  0
    6.4927  -13.9135   25.2733 C   0  0  0  0  0  0  0  0  0  0  0  0
    7.8330  -14.6001   25.3083 C   0  0  0  0  0  0  0  0  0  0  0  0
    7.7167  -16.0977   25.2395 C   0  0  0  0  0  0  0  0  0  0  0  0
    9.0548  -16.7402   25.0659 C   0  0  2  0  0  0  0  0  0  0  0  0
    9.6196  -16.5729   23.7516 N   0  0  0  0  0  0  0  0  0  0  0  0
    8.9290  -18.2229   25.2958 C   0  0  0  0  0  0  0  0  0  0  0  0
    8.8651  -19.0281   24.3357 O   0  0  0  0  0  0  0  0  0  0  0  0
    8.8812  -18.7313   26.5839 O   0  0  0  0  0  0  0  0  0  0  0  0
  1  2  1  0
  2  4  1  0
  3  2  2  0
  5  4  1  0
  5  7  1  0
  5  6  1  1
  7  8  2  0
  9 10  1  0
  9  7  1  0
 10 11  1  0
 11 12  2  0
 11 21  1  0
 13 14  1  0
 14 15  2  0
 16 17  1  0
 16 14  1  0
 17 18  1  0
 19 18  1  0
 20 19  1  6
 21 20  1  0
 22 20  1  0
 22 24  1  0
 23 22  2  0
M  END
$$$$
