NGR.pdb
     RDKit          3D

 24 23  0  0  1  0  0  0  0  0999 V2000
    2.7190  -19.4797   19.4610 N   0  0  0  0  0  0  0  0  0  0  0  0
    1.8668  -19.0784   20.5317 C   0  0  0  0  0  0  0  0  0  0  0  0
    0.6469  -18.9652   20.2500 O   0  0  0  0  0  0  0  0  0  0  0  0
    2.4029  -18.8129   21.8943 C   0  0  0  0  0  0  0  0  0  0  0  0
    3.8865  -19.0922   21.8592 C   0  0  2  0  0  0  0  0  0  0  0  0
    4.0628  -20.5128   22.0848 N   0  0  0  0  0  0  0  0  0  0  0  0
    4.6738  -18.3201   22.8186 C   0  0  0  0  0  0  0  0  0  0  0  0
    5.0341  -17.1482   22.4844 O   0  0  0  0  0  0  0  0  0  0  0  0
    5.0615  -18.7960   24.1000 N   0  0  0  0  0  0  0  0  0  0  0  0
    5.7245  -17.9295   25.0064 C   0  0  0  0  0  0  0  0  0  0  0  0
    7.1655  -17.7684   24.8398 C   0  0  0  0  0  0  0  0  0  0  0  0
    7.7867  -18.8024   24.4092 O   0  0  0  0  0  0  0  0  0  0  0  0
    7.7433  -11.7236   20.3180 N   0  0  0  0  0  0  0  0  0  0  0  0
    7.7344  -13.1577   20.2697 C   0  0  0  0  0  0  0  0  0  0  0  0
    6.7321  -13.7647   19.6822 N   0  0  0  0  0  0  0  0  0  0  0  0
    8.7714  -13.9446   20.8344 N   0  0  0  0  0  0  0  0  0  0  0  0
    9.0573  -13.8660   22.2522 C   0  0  0  0  0  0  0  0  0  0  0  0
    9.4719  -15.2268   22.7480 C   0  0  0  0  0  0  0  0  0  0  0  0
    9.7824  -15.2355   24.2192 C   0  0  0  0  0  0  0  0  0  0  0  0
    9.3694  -16.5234   24.8551 C   0  0  2  0  0  0  0  0  0  0  0  0
    7.9527  -16.6337   25.0896 N   0  0  0  0  0  0  0  0  0  0  0  0
   10.0403  -16.6541   26.1967 C   0  0  0  0  0  0  0  0  0  0  0  0
   11.2887  -16.7301   26.2964 O   0  0  0  0  0  0  0  0  0  0  0  0
    9.2850  -16.6932   27.3577 O   0  0  0  0  0  0  0  0  0  0  0  0
  1  2  1  0
  2  4  1  0
  3  2  2  0
  5  4  1  0
  5  7  1  0
  5  6  1  1
  7  8  2  0
  9 10  1  0
  9  7  1  0
 10 11  1  0
 11 12  2  0
 11 21  1  0
 13 14  1  0
 14 15  2  0
 16 17  1  0
 16 14  1  0
 17 18  1  0
 19 18  1  0
 20 19  1  1
 21 20  1  0
 22 20  1  0
 22 24  1  0
 23 22  2  0
M  END
$$$$
