NGR.pdb
     RDKit          3D

 24 23  0  0  1  0  0  0  0  0999 V2000
    8.8816  -11.8737   18.4498 N   0  0  0  0  0  0  0  0  0  0  0  0
    8.2180  -13.1166   18.6698 C   0  0  0  0  0  0  0  0  0  0  0  0
    8.3834  -13.9922   17.7831 O   0  0  0  0  0  0  0  0  0  0  0  0
    7.3836  -13.3488   19.8800 C   0  0  0  0  0  0  0  0  0  0  0  0
    8.3012  -13.8360   20.9757 C   0  0  2  0  0  0  0  0  0  0  0  0
    8.7212  -15.1770   20.6213 N   0  0  0  0  0  0  0  0  0  0  0  0
    7.7128  -13.8208   22.3137 C   0  0  0  0  0  0  0  0  0  0  0  0
    6.9974  -12.8214   22.6363 O   0  0  0  0  0  0  0  0  0  0  0  0
    7.8898  -14.8515   23.2755 N   0  0  0  0  0  0  0  0  0  0  0  0
    6.8303  -15.1869   24.1571 C   0  0  0  0  0  0  0  0  0  0  0  0
    7.0772  -16.2584   25.1169 C   0  0  0  0  0  0  0  0  0  0  0  0
    6.0985  -16.5330   25.8961 O   0  0  0  0  0  0  0  0  0  0  0  0
    5.5782  -22.9479   25.9045 N   0  0  0  0  0  0  0  0  0  0  0  0
    5.2649  -22.5405   24.5648 C   0  0  0  0  0  0  0  0  0  0  0  0
    4.2791  -23.1343   23.9372 N   0  0  0  0  0  0  0  0  0  0  0  0
    5.9825  -21.5172   23.8931 N   0  0  0  0  0  0  0  0  0  0  0  0
    7.3032  -21.1333   24.3477 C   0  0  0  0  0  0  0  0  0  0  0  0
    7.1903  -19.9022   25.2083 C   0  0  0  0  0  0  0  0  0  0  0  0
    8.5235  -19.4298   25.7185 C   0  0  0  0  0  0  0  0  0  0  0  0
    8.4318  -18.0498   26.2848 C   0  0  2  0  0  0  0  0  0  0  0  0
    8.2419  -17.0212   25.2947 N   0  0  0  0  0  0  0  0  0  0  0  0
    9.7113  -17.7219   27.0075 C   0  0  0  0  0  0  0  0  0  0  0  0
   10.0804  -18.3799   28.0100 O   0  0  0  0  0  0  0  0  0  0  0  0
   10.5132  -16.6778   26.5753 O   0  0  0  0  0  0  0  0  0  0  0  0
  1  2  1  0
  2  4  1  0
  3  2  2  0
  5  4  1  0
  5  7  1  0
  5  6  1  6
  7  8  2  0
  9 10  1  0
  9  7  1  0
 10 11  1  0
 11 12  2  0
 11 21  1  0
 13 14  1  0
 14 15  2  0
 16 17  1  0
 16 14  1  0
 17 18  1  0
 19 18  1  0
 20 19  1  6
 21 20  1  0
 22 20  1  0
 22 24  1  0
 23 22  2  0
M  END
$$$$
