NGR.pdb
     RDKit          3D

 24 23  0  0  1  0  0  0  0  0999 V2000
    7.8851  -14.5455   15.6241 N   0  0  0  0  0  0  0  0  0  0  0  0
    8.6556  -14.7727   16.8024 C   0  0  0  0  0  0  0  0  0  0  0  0
    9.3869  -15.7951   16.7918 O   0  0  0  0  0  0  0  0  0  0  0  0
    8.5878  -13.8475   17.9660 C   0  0  0  0  0  0  0  0  0  0  0  0
    8.1646  -14.6603   19.1663 C   0  0  2  0  0  0  0  0  0  0  0  0
    6.7620  -14.9823   18.9956 N   0  0  0  0  0  0  0  0  0  0  0  0
    8.3862  -14.0047   20.4538 C   0  0  0  0  0  0  0  0  0  0  0  0
    9.5499  -14.0693   20.9604 O   0  0  0  0  0  0  0  0  0  0  0  0
    7.3843  -13.3006   21.1742 N   0  0  0  0  0  0  0  0  0  0  0  0
    7.7028  -12.6845   22.4116 C   0  0  0  0  0  0  0  0  0  0  0  0
    7.2255  -13.3414   23.6244 C   0  0  0  0  0  0  0  0  0  0  0  0
    6.1205  -13.9780   23.5046 O   0  0  0  0  0  0  0  0  0  0  0  0
    6.7761  -18.9460   25.4156 N   0  0  0  0  0  0  0  0  0  0  0  0
    7.9759  -18.7983   26.1887 C   0  0  0  0  0  0  0  0  0  0  0  0
    8.5187  -19.8645   26.7243 N   0  0  0  0  0  0  0  0  0  0  0  0
    8.5981  -17.5398   26.3951 N   0  0  0  0  0  0  0  0  0  0  0  0
    7.8119  -16.3968   26.8118 C   0  0  0  0  0  0  0  0  0  0  0  0
    8.7100  -15.1920   26.9165 C   0  0  0  0  0  0  0  0  0  0  0  0
    7.9594  -13.9424   27.2854 C   0  0  0  0  0  0  0  0  0  0  0  0
    7.1155  -13.4592   26.1506 C   0  0  2  0  0  0  0  0  0  0  0  0
    7.8175  -13.3645   24.8966 N   0  0  0  0  0  0  0  0  0  0  0  0
    6.6031  -12.0785   26.4635 C   0  0  0  0  0  0  0  0  0  0  0  0
    7.1268  -11.0582   25.9546 O   0  0  0  0  0  0  0  0  0  0  0  0
    5.5335  -11.9064   27.3274 O   0  0  0  0  0  0  0  0  0  0  0  0
  1  2  1  0
  2  4  1  0
  3  2  2  0
  5  4  1  0
  5  7  1  0
  5  6  1  6
  7  8  2  0
  9 10  1  0
  9  7  1  0
 10 11  1  0
 11 12  2  0
 11 21  1  0
 13 14  1  0
 14 15  2  0
 16 17  1  0
 16 14  1  0
 17 18  1  0
 19 18  1  0
 20 19  1  1
 21 20  1  0
 22 20  1  0
 22 24  1  0
 23 22  2  0
M  END
$$$$
