NGR.pdb
     RDKit          3D

 24 23  0  0  1  0  0  0  0  0999 V2000
   10.7750  -16.4104   14.1067 N   0  0  0  0  0  0  0  0  0  0  0  0
   10.3448  -17.7609   14.2636 C   0  0  0  0  0  0  0  0  0  0  0  0
    9.8440  -18.2999   13.2444 O   0  0  0  0  0  0  0  0  0  0  0  0
   10.4863  -18.4760   15.5611 C   0  0  0  0  0  0  0  0  0  0  0  0
   11.1980  -17.5464   16.5148 C   0  0  2  0  0  0  0  0  0  0  0  0
   12.4226  -17.1202   15.8676 N   0  0  0  0  0  0  0  0  0  0  0  0
   11.4866  -18.1244   17.8261 C   0  0  0  0  0  0  0  0  0  0  0  0
   10.5024  -18.4567   18.5580 O   0  0  0  0  0  0  0  0  0  0  0  0
   12.7963  -18.3379   18.3338 N   0  0  0  0  0  0  0  0  0  0  0  0
   12.9773  -18.7202   19.6878 C   0  0  0  0  0  0  0  0  0  0  0  0
   12.2616  -17.9479   20.6986 C   0  0  0  0  0  0  0  0  0  0  0  0
   11.0183  -17.7527   20.4609 O   0  0  0  0  0  0  0  0  0  0  0  0
    6.9523  -13.8144   19.4374 N   0  0  0  0  0  0  0  0  0  0  0  0
    8.2672  -13.2921   19.1980 C   0  0  0  0  0  0  0  0  0  0  0  0
    8.4282  -12.3881   18.2624 N   0  0  0  0  0  0  0  0  0  0  0  0
    9.4012  -13.7176   19.9371 N   0  0  0  0  0  0  0  0  0  0  0  0
    9.2743  -14.7650   20.9295 C   0  0  0  0  0  0  0  0  0  0  0  0
   10.6423  -15.1176   21.4525 C   0  0  0  0  0  0  0  0  0  0  0  0
   10.6165  -16.2900   22.3935 C   0  0  0  0  0  0  0  0  0  0  0  0
   11.9922  -16.6487   22.8543 C   0  0  2  0  0  0  0  0  0  0  0  0
   12.7578  -17.3950   21.8893 N   0  0  0  0  0  0  0  0  0  0  0  0
   11.8964  -17.5081   24.0869 C   0  0  0  0  0  0  0  0  0  0  0  0
   11.3502  -17.0862   25.1347 O   0  0  0  0  0  0  0  0  0  0  0  0
   12.4142  -18.7933   24.0878 O   0  0  0  0  0  0  0  0  0  0  0  0
  1  2  1  0
  2  4  1  0
  3  2  2  0
  5  4  1  0
  5  7  1  0
  5  6  1  6
  7  8  2  0
  9 10  1  0
  9  7  1  0
 10 11  1  0
 11 12  2  0
 11 21  1  0
 13 14  1  0
 14 15  2  0
 16 17  1  0
 16 14  1  0
 17 18  1  0
 19 18  1  0
 20 19  1  6
 21 20  1  0
 22 20  1  0
 22 24  1  0
 23 22  2  0
M  END
$$$$
