NGR.pdb
     RDKit          3D

 24 23  0  0  1  0  0  0  0  0999 V2000
    7.2148  -13.1926   15.9620 N   0  0  0  0  0  0  0  0  0  0  0  0
    8.2762  -14.0170   15.4853 C   0  0  0  0  0  0  0  0  0  0  0  0
    8.7458  -13.7118   14.3599 O   0  0  0  0  0  0  0  0  0  0  0  0
    8.7865  -15.1655   16.2822 C   0  0  0  0  0  0  0  0  0  0  0  0
    8.0333  -15.1785   17.5909 C   0  0  2  0  0  0  0  0  0  0  0  0
    8.2043  -13.8743   18.1992 N   0  0  0  0  0  0  0  0  0  0  0  0
    8.4415  -16.2328   18.5174 C   0  0  0  0  0  0  0  0  0  0  0  0
    8.3935  -17.4347   18.1076 O   0  0  0  0  0  0  0  0  0  0  0  0
    8.8881  -15.9994   19.8459 N   0  0  0  0  0  0  0  0  0  0  0  0
    9.3231  -17.0856   20.6478 C   0  0  0  0  0  0  0  0  0  0  0  0
    9.6496  -16.7957   22.0405 C   0  0  0  0  0  0  0  0  0  0  0  0
   10.7982  -16.2634   22.2351 O   0  0  0  0  0  0  0  0  0  0  0  0
    7.2789  -11.9351   27.8724 N   0  0  0  0  0  0  0  0  0  0  0  0
    6.6410  -12.0075   26.5891 C   0  0  0  0  0  0  0  0  0  0  0  0
    6.0433  -10.9400   26.1185 N   0  0  0  0  0  0  0  0  0  0  0  0
    6.6333  -13.1927   25.8089 N   0  0  0  0  0  0  0  0  0  0  0  0
    7.4657  -14.3177   26.1828 C   0  0  0  0  0  0  0  0  0  0  0  0
    7.2361  -15.4457   25.2111 C   0  0  0  0  0  0  0  0  0  0  0  0
    8.1072  -16.6382   25.4942 C   0  0  0  0  0  0  0  0  0  0  0  0
    9.2545  -16.7132   24.5394 C   0  0  2  0  0  0  0  0  0  0  0  0
    8.8719  -17.0242   23.1862 N   0  0  0  0  0  0  0  0  0  0  0  0
   10.1996  -17.7990   24.9809 C   0  0  0  0  0  0  0  0  0  0  0  0
   10.2938  -18.8781   24.3477 O   0  0  0  0  0  0  0  0  0  0  0  0
   10.9910  -17.6257   26.1050 O   0  0  0  0  0  0  0  0  0  0  0  0
  1  2  1  0
  2  4  1  0
  3  2  2  0
  5  4  1  0
  5  7  1  0
  5  6  1  1
  7  8  2  0
  9 10  1  0
  9  7  1  0
 10 11  1  0
 11 12  2  0
 11 21  1  0
 13 14  1  0
 14 15  2  0
 16 17  1  0
 16 14  1  0
 17 18  1  0
 19 18  1  0
 20 19  1  1
 21 20  1  0
 22 20  1  0
 22 24  1  0
 23 22  2  0
M  END
$$$$
