NGR.pdb
     RDKit          3D

 24 23  0  0  1  0  0  0  0  0999 V2000
    9.4673  -18.2013   14.3673 N   0  0  0  0  0  0  0  0  0  0  0  0
    8.0674  -17.9903   14.5385 C   0  0  0  0  0  0  0  0  0  0  0  0
    7.7078  -16.7971   14.7035 O   0  0  0  0  0  0  0  0  0  0  0  0
    7.1025  -19.1231   14.5208 C   0  0  0  0  0  0  0  0  0  0  0  0
    6.8002  -19.4824   15.9560 C   0  0  2  0  0  0  0  0  0  0  0  0
    6.1656  -18.3300   16.5640 N   0  0  0  0  0  0  0  0  0  0  0  0
    7.9637  -19.8975   16.7374 C   0  0  0  0  0  0  0  0  0  0  0  0
    8.6455  -20.8812   16.3102 O   0  0  0  0  0  0  0  0  0  0  0  0
    8.3804  -19.2718   17.9430 N   0  0  0  0  0  0  0  0  0  0  0  0
    9.4856  -19.7909   18.6649 C   0  0  0  0  0  0  0  0  0  0  0  0
    9.2957  -20.0286   20.0924 C   0  0  0  0  0  0  0  0  0  0  0  0
    8.2646  -19.4709   20.6087 O   0  0  0  0  0  0  0  0  0  0  0  0
    6.8457  -26.1155   23.6364 N   0  0  0  0  0  0  0  0  0  0  0  0
    8.2457  -26.2736   23.3648 C   0  0  0  0  0  0  0  0  0  0  0  0
    8.6647  -27.3973   22.8355 N   0  0  0  0  0  0  0  0  0  0  0  0
    9.1952  -25.2576   23.6475 N   0  0  0  0  0  0  0  0  0  0  0  0
   10.0793  -24.7752   22.6064 C   0  0  0  0  0  0  0  0  0  0  0  0
    9.6128  -23.4164   22.1535 C   0  0  0  0  0  0  0  0  0  0  0  0
   10.2850  -22.2969   22.8989 C   0  0  0  0  0  0  0  0  0  0  0  0
    9.8603  -20.9627   22.3764 C   0  0  2  0  0  0  0  0  0  0  0  0
   10.0926  -20.7842   20.9662 N   0  0  0  0  0  0  0  0  0  0  0  0
   10.6356  -19.8817   23.0816 C   0  0  0  0  0  0  0  0  0  0  0  0
   11.4863  -19.1879   22.4740 O   0  0  0  0  0  0  0  0  0  0  0  0
   10.4224  -19.6298   24.4273 O   0  0  0  0  0  0  0  0  0  0  0  0
  1  2  1  0
  2  4  1  0
  3  2  2  0
  5  4  1  0
  5  7  1  0
  5  6  1  1
  7  8  2  0
  9 10  1  0
  9  7  1  0
 10 11  1  0
 11 12  2  0
 11 21  1  0
 13 14  1  0
 14 15  2  0
 16 17  1  0
 16 14  1  0
 17 18  1  0
 19 18  1  0
 20 19  1  1
 21 20  1  0
 22 20  1  0
 22 24  1  0
 23 22  2  0
M  END
$$$$
