YRW.pdb
     RDKit          3D

 38 40  0  0  1  0  0  0  0  0999 V2000
   18.6334  -14.8876  -15.5917 O   0  0  0  0  0  0  0  0  0  0  0  0
   19.4725  -15.8100  -14.9796 C   0  0  0  0  0  0  0  0  0  0  0  0
   18.9510  -16.5766  -13.9513 C   0  0  0  0  0  0  0  0  0  0  0  0
   19.7136  -17.5142  -13.2908 C   0  0  0  0  0  0  0  0  0  0  0  0
   21.0370  -17.7213  -13.6374 C   0  0  0  0  0  0  0  0  0  0  0  0
   21.7858  -18.7401  -12.8882 C   0  0  0  0  0  0  0  0  0  0  0  0
   22.2811  -19.8056  -13.8440 C   0  0  2  0  0  0  0  0  0  0  0  0
   21.1700  -20.6517  -14.1719 N   0  0  0  0  0  0  0  0  0  0  0  0
   23.3560  -20.6202  -13.1981 C   0  0  0  0  0  0  0  0  0  0  0  0
   23.0396  -21.3563  -12.2351 O   0  0  0  0  0  0  0  0  0  0  0  0
   21.5512  -16.9590  -14.6580 C   0  0  0  0  0  0  0  0  0  0  0  0
   20.7837  -16.0167  -15.3214 C   0  0  0  0  0  0  0  0  0  0  0  0
   27.4973  -24.7372  -16.8384 N   0  0  0  0  0  0  0  0  0  0  0  0
   28.7526  -24.3363  -16.3256 C   0  0  0  0  0  0  0  0  0  0  0  0
   29.6547  -25.2389  -16.1442 N   0  0  0  0  0  0  0  0  0  0  0  0
   28.9749  -22.9704  -16.0279 N   0  0  0  0  0  0  0  0  0  0  0  0
   27.9111  -22.0246  -16.2447 C   0  0  0  0  0  0  0  0  0  0  0  0
   26.9255  -22.1659  -15.0905 C   0  0  0  0  0  0  0  0  0  0  0  0
   26.9974  -21.0041  -14.1585 C   0  0  0  0  0  0  0  0  0  0  0  0
   25.8657  -21.0787  -13.1306 C   0  0  2  0  0  0  0  0  0  0  0  0
   24.6697  -20.5350  -13.6875 N   0  0  0  0  0  0  0  0  0  0  0  0
   26.2510  -20.4276  -11.8774 C   0  0  0  0  0  0  0  0  0  0  0  0
   25.8452  -19.2705  -11.6152 O   0  0  0  0  0  0  0  0  0  0  0  0
   30.5711  -25.0572  -15.6940 N   0  0  0  0  0  0  0  0  0  0  0  0
   27.0823  -21.0848  -10.9437 C   0  0  2  0  0  0  0  0  0  0  0  0
   27.5615  -20.4819   -9.7120 C   0  0  0  0  0  0  0  0  0  0  0  0
   26.4413  -20.2923   -8.7617 C   0  0  0  0  0  0  0  0  0  0  0  0
   26.8735  -19.5010   -7.5955 C   0  0  0  0  0  0  0  0  0  0  0  0
   26.7453  -18.1521   -7.3562 N   0  0  0  0  0  0  0  0  0  0  0  0
   27.2826  -17.8650   -6.1667 C   0  0  0  0  0  0  0  0  0  0  0  0
   27.7585  -18.9945   -5.6240 C   0  0  0  0  0  0  0  0  0  0  0  0
   28.4039  -19.2254   -4.4078 C   0  0  0  0  0  0  0  0  0  0  0  0
   28.7837  -20.4994   -4.1114 C   0  0  0  0  0  0  0  0  0  0  0  0
   28.5487  -21.5495   -4.9727 C   0  0  0  0  0  0  0  0  0  0  0  0
   27.9050  -21.3129   -6.1838 C   0  0  0  0  0  0  0  0  0  0  0  0
   27.5147  -20.0217   -6.4949 C   0  0  0  0  0  0  0  0  0  0  0  0
   28.6682  -21.2777   -9.1024 O   0  0  0  0  0  0  0  0  0  0  0  0
   29.9098  -20.7543   -8.8149 O   0  0  0  0  0  0  0  0  0  0  0  0
  2  1  1  0
  3  2  2  0
  4  3  1  0
  5 11  1  0
  5  4  2  0
  6  7  1  0
  6  5  1  0
  7  8  1  1
  9  7  1  0
 10  9  2  0
 11 12  2  0
 12  2  1  0
 13 14  1  0
 14 15  2  0
 14 16  1  0
 16 17  1  0
 17 18  1  0
 18 19  1  0
 20 19  1  6
 20 22  1  0
 20 21  1  0
 21  9  1  0
 22 23  2  0
 24 25  1  0
 24 22  1  0
 25 26  1  1
 27 26  1  0
 27 28  2  0
 29 28  1  0
 30 29  1  0
 31 30  2  0
 32 31  1  0
 33 32  2  0
 33 34  1  0
 34 35  2  0
 35 30  1  0
 35 27  1  0
 36 25  1  0
 36 37  1  0
 38 36  2  0
M  END
$$$$
