YRW.pdb
     RDKit          3D

 38 40  0  0  1  0  0  0  0  0999 V2000
   16.9790  -15.5554  -14.0381 O   0  0  0  0  0  0  0  0  0  0  0  0
   17.8087  -16.4881  -13.4289 C   0  0  0  0  0  0  0  0  0  0  0  0
   19.1709  -16.3885  -13.6561 C   0  0  0  0  0  0  0  0  0  0  0  0
   20.0640  -17.2716  -13.0910 C   0  0  0  0  0  0  0  0  0  0  0  0
   19.6239  -18.2955  -12.2711 C   0  0  0  0  0  0  0  0  0  0  0  0
   20.6366  -19.1967  -11.7037 C   0  0  0  0  0  0  0  0  0  0  0  0
   20.8729  -20.3516  -12.6547 C   0  0  2  0  0  0  0  0  0  0  0  0
   19.7267  -21.2120  -12.5936 N   0  0  0  0  0  0  0  0  0  0  0  0
   22.0929  -21.1148  -12.2481 C   0  0  0  0  0  0  0  0  0  0  0  0
   22.1049  -21.6463  -11.1138 O   0  0  0  0  0  0  0  0  0  0  0  0
   18.2718  -18.3914  -12.0478 C   0  0  0  0  0  0  0  0  0  0  0  0
   17.3747  -17.5031  -12.6163 C   0  0  0  0  0  0  0  0  0  0  0  0
   27.6599  -25.0328  -16.9679 N   0  0  0  0  0  0  0  0  0  0  0  0
   26.4773  -25.0875  -16.1947 C   0  0  0  0  0  0  0  0  0  0  0  0
   25.6606  -26.0642  -16.3960 N   0  0  0  0  0  0  0  0  0  0  0  0
   26.2292  -24.0760  -15.2359 N   0  0  0  0  0  0  0  0  0  0  0  0
   27.2619  -23.1144  -14.9498 C   0  0  0  0  0  0  0  0  0  0  0  0
   26.6970  -22.1150  -13.9469 C   0  0  0  0  0  0  0  0  0  0  0  0
   25.2570  -21.8275  -14.2062 C   0  0  0  0  0  0  0  0  0  0  0  0
   24.5067  -21.6459  -12.8845 C   0  0  2  0  0  0  0  0  0  0  0  0
   23.1723  -21.2105  -13.1416 N   0  0  0  0  0  0  0  0  0  0  0  0
   25.2318  -20.7430  -11.9889 C   0  0  0  0  0  0  0  0  0  0  0  0
   25.3996  -19.5408  -12.3031 O   0  0  0  0  0  0  0  0  0  0  0  0
   24.7919  -26.2127  -15.8494 N   0  0  0  0  0  0  0  0  0  0  0  0
   25.7541  -21.2043  -10.7604 C   0  0  2  0  0  0  0  0  0  0  0  0
   26.6306  -20.4257   -9.9028 C   0  0  0  0  0  0  0  0  0  0  0  0
   26.3737  -20.7438   -8.4791 C   0  0  0  0  0  0  0  0  0  0  0  0
   27.1360  -19.8424   -7.5964 C   0  0  0  0  0  0  0  0  0  0  0  0
   27.3696  -18.4916   -7.7150 N   0  0  0  0  0  0  0  0  0  0  0  0
   28.1146  -18.0834   -6.6833 C   0  0  0  0  0  0  0  0  0  0  0  0
   28.3729  -19.1357   -5.8942 C   0  0  0  0  0  0  0  0  0  0  0  0
   29.1006  -19.2337   -4.7069 C   0  0  0  0  0  0  0  0  0  0  0  0
   29.1987  -20.4540   -4.1098 C   0  0  0  0  0  0  0  0  0  0  0  0
   28.6045  -21.5771   -4.6440 C   0  0  0  0  0  0  0  0  0  0  0  0
   27.8804  -21.4730   -5.8281 C   0  0  0  0  0  0  0  0  0  0  0  0
   27.7744  -20.2374   -6.4431 C   0  0  0  0  0  0  0  0  0  0  0  0
   28.0676  -20.6234  -10.2575 O   0  0  0  0  0  0  0  0  0  0  0  0
   29.1089  -20.0906   -9.5295 O   0  0  0  0  0  0  0  0  0  0  0  0
  2  1  1  0
  3  2  2  0
  4  3  1  0
  5 11  1  0
  5  4  2  0
  6  7  1  0
  6  5  1  0
  7  8  1  1
  9  7  1  0
 10  9  2  0
 11 12  2  0
 12  2  1  0
 13 14  1  0
 14 15  2  0
 14 16  1  0
 16 17  1  0
 17 18  1  0
 18 19  1  0
 20 19  1  6
 20 22  1  0
 20 21  1  0
 21  9  1  0
 22 23  2  0
 24 25  1  0
 24 22  1  0
 25 26  1  1
 27 26  1  0
 27 28  2  0
 29 28  1  0
 30 29  1  0
 31 30  2  0
 32 31  1  0
 33 32  2  0
 33 34  1  0
 34 35  2  0
 35 30  1  0
 35 27  1  0
 36 25  1  0
 36 37  1  0
 38 36  2  0
M  END
$$$$
