YRW.pdb
     RDKit          3D

 38 40  0  0  1  0  0  0  0  0999 V2000
   17.3474  -16.7908  -16.5660 O   0  0  0  0  0  0  0  0  0  0  0  0
   18.3361  -17.6766  -16.1565 C   0  0  0  0  0  0  0  0  0  0  0  0
   19.2895  -17.2151  -15.2649 C   0  0  0  0  0  0  0  0  0  0  0  0
   20.3039  -18.0268  -14.8077 C   0  0  0  0  0  0  0  0  0  0  0  0
   20.4029  -19.3409  -15.2293 C   0  0  0  0  0  0  0  0  0  0  0  0
   21.5114  -20.1453  -14.6965 C   0  0  0  0  0  0  0  0  0  0  0  0
   22.7811  -19.8189  -15.4552 C   0  0  2  0  0  0  0  0  0  0  0  0
   22.6214  -20.2897  -16.8009 N   0  0  0  0  0  0  0  0  0  0  0  0
   23.9514  -20.5015  -14.8225 C   0  0  0  0  0  0  0  0  0  0  0  0
   23.9501  -21.7535  -14.7777 O   0  0  0  0  0  0  0  0  0  0  0  0
   19.4553  -19.7955  -16.1140 C   0  0  0  0  0  0  0  0  0  0  0  0
   18.4359  -18.9786  -16.5729 C   0  0  0  0  0  0  0  0  0  0  0  0
   29.5738  -22.0923  -14.6910 N   0  0  0  0  0  0  0  0  0  0  0  0
   29.7276  -21.6648  -16.0300 C   0  0  0  0  0  0  0  0  0  0  0  0
   30.3340  -22.4476  -16.8552 N   0  0  0  0  0  0  0  0  0  0  0  0
   29.2185  -20.4018  -16.4167 N   0  0  0  0  0  0  0  0  0  0  0  0
   28.0335  -19.8978  -15.7725 C   0  0  0  0  0  0  0  0  0  0  0  0
   28.3875  -19.6043  -14.3192 C   0  0  0  0  0  0  0  0  0  0  0  0
   27.2140  -19.0847  -13.5599 C   0  0  0  0  0  0  0  0  0  0  0  0
   26.1079  -20.1414  -13.5059 C   0  0  2  0  0  0  0  0  0  0  0  0
   25.0021  -19.7255  -14.3063 N   0  0  0  0  0  0  0  0  0  0  0  0
   25.7256  -20.4311  -12.1228 C   0  0  0  0  0  0  0  0  0  0  0  0
   24.6543  -19.9779  -11.6548 O   0  0  0  0  0  0  0  0  0  0  0  0
   30.6196  -22.1684  -17.8123 N   0  0  0  0  0  0  0  0  0  0  0  0
   26.5501  -21.2218  -11.2924 C   0  0  1  0  0  0  0  0  0  0  0  0
   26.2964  -21.4627   -9.8825 C   0  0  0  0  0  0  0  0  0  0  0  0
   27.5735  -21.6240   -9.1497 C   0  0  0  0  0  0  0  0  0  0  0  0
   27.6789  -20.6371   -8.0599 C   0  0  0  0  0  0  0  0  0  0  0  0
   26.7295  -19.7713   -7.5675 N   0  0  0  0  0  0  0  0  0  0  0  0
   27.2634  -19.0543   -6.5740 C   0  0  0  0  0  0  0  0  0  0  0  0
   28.5387  -19.4315   -6.4063 C   0  0  0  0  0  0  0  0  0  0  0  0
   29.5137  -18.9915   -5.5093 C   0  0  0  0  0  0  0  0  0  0  0  0
   30.7479  -19.5650   -5.5664 C   0  0  0  0  0  0  0  0  0  0  0  0
   31.0506  -20.5548   -6.4766 C   0  0  0  0  0  0  0  0  0  0  0  0
   30.0743  -20.9891   -7.3684 C   0  0  0  0  0  0  0  0  0  0  0  0
   28.8165  -20.4130   -7.3187 C   0  0  0  0  0  0  0  0  0  0  0  0
   25.4524  -20.3872   -9.2821 O   0  0  0  0  0  0  0  0  0  0  0  0
   25.6470  -19.0452   -9.5260 O   0  0  0  0  0  0  0  0  0  0  0  0
  2  1  1  0
  3  2  2  0
  4  3  1  0
  5 11  1  0
  5  4  2  0
  6  7  1  0
  6  5  1  0
  7  8  1  6
  9  7  1  0
 10  9  2  0
 11 12  2  0
 12  2  1  0
 13 14  1  0
 14 15  2  0
 14 16  1  0
 16 17  1  0
 17 18  1  0
 18 19  1  0
 20 19  1  1
 20 22  1  0
 20 21  1  0
 21  9  1  0
 22 23  2  0
 24 25  1  0
 24 22  1  0
 25 26  1  1
 27 26  1  0
 27 28  2  0
 29 28  1  0
 30 29  1  0
 31 30  2  0
 32 31  1  0
 33 32  2  0
 33 34  1  0
 34 35  2  0
 35 30  1  0
 35 27  1  0
 36 25  1  0
 36 37  1  0
 38 36  2  0
M  END
$$$$
