YRW.pdb
     RDKit          3D

 38 40  0  0  1  0  0  0  0  0999 V2000
   18.3667  -15.7031  -15.8540 O   0  0  0  0  0  0  0  0  0  0  0  0
   19.0848  -16.6585  -15.1461 C   0  0  0  0  0  0  0  0  0  0  0  0
   18.3725  -17.5799  -14.3973 C   0  0  0  0  0  0  0  0  0  0  0  0
   19.0054  -18.5605  -13.6661 C   0  0  0  0  0  0  0  0  0  0  0  0
   20.3857  -18.6563  -13.6567 C   0  0  0  0  0  0  0  0  0  0  0  0
   20.9884  -19.7298  -12.8541 C   0  0  0  0  0  0  0  0  0  0  0  0
   22.0119  -20.4700  -13.6901 C   0  0  2  0  0  0  0  0  0  0  0  0
   21.3034  -21.3582  -14.5659 N   0  0  0  0  0  0  0  0  0  0  0  0
   22.9253  -21.2604  -12.8087 C   0  0  0  0  0  0  0  0  0  0  0  0
   22.4445  -22.2334  -12.1831 O   0  0  0  0  0  0  0  0  0  0  0  0
   21.0893  -17.7405  -14.4007 C   0  0  0  0  0  0  0  0  0  0  0  0
   20.4520  -16.7551  -15.1355 C   0  0  0  0  0  0  0  0  0  0  0  0
   28.4781  -18.4654  -15.6557 N   0  0  0  0  0  0  0  0  0  0  0  0
   27.4519  -19.3311  -16.0992 C   0  0  0  0  0  0  0  0  0  0  0  0
   27.3704  -19.5861  -17.3601 N   0  0  0  0  0  0  0  0  0  0  0  0
   26.5539  -19.8821  -15.1538 N   0  0  0  0  0  0  0  0  0  0  0  0
   26.5209  -19.3393  -13.8206 C   0  0  0  0  0  0  0  0  0  0  0  0
   27.2687  -20.3061  -12.9099 C   0  0  0  0  0  0  0  0  0  0  0  0
   26.5807  -21.6262  -12.8234 C   0  0  0  0  0  0  0  0  0  0  0  0
   25.3201  -21.5112  -11.9628 C   0  0  2  0  0  0  0  0  0  0  0  0
   24.2769  -20.8909  -12.7133 N   0  0  0  0  0  0  0  0  0  0  0  0
   25.6032  -20.8134  -10.7074 C   0  0  0  0  0  0  0  0  0  0  0  0
   25.2418  -19.6231  -10.5502 O   0  0  0  0  0  0  0  0  0  0  0  0
   26.6236  -20.1671  -17.7847 N   0  0  0  0  0  0  0  0  0  0  0  0
   26.2850  -21.4621   -9.6543 C   0  0  2  0  0  0  0  0  0  0  0  0
   26.8383  -20.7792   -8.4978 C   0  0  0  0  0  0  0  0  0  0  0  0
   28.0286  -21.5024   -7.9934 C   0  0  0  0  0  0  0  0  0  0  0  0
   28.6697  -20.7533   -6.8977 C   0  0  0  0  0  0  0  0  0  0  0  0
   29.7979  -19.9659   -6.9180 N   0  0  0  0  0  0  0  0  0  0  0  0
   30.0157  -19.4804   -5.6920 C   0  0  0  0  0  0  0  0  0  0  0  0
   29.0565  -19.9325   -4.8720 C   0  0  0  0  0  0  0  0  0  0  0  0
   28.8387  -19.7163   -3.5101 C   0  0  0  0  0  0  0  0  0  0  0  0
   27.7628  -20.3139   -2.9266 C   0  0  0  0  0  0  0  0  0  0  0  0
   26.8977  -21.1153   -3.6402 C   0  0  0  0  0  0  0  0  0  0  0  0
   27.1203  -21.3271   -4.9977 C   0  0  0  0  0  0  0  0  0  0  0  0
   28.2109  -20.7243   -5.6007 C   0  0  0  0  0  0  0  0  0  0  0  0
   27.1522  -19.3507   -8.7985 O   0  0  0  0  0  0  0  0  0  0  0  0
   27.9567  -18.9547   -9.8446 O   0  0  0  0  0  0  0  0  0  0  0  0
  2  1  1  0
  3  2  2  0
  4  3  1  0
  5 11  1  0
  5  4  2  0
  6  7  1  0
  6  5  1  0
  7  8  1  6
  9  7  1  0
 10  9  2  0
 11 12  2  0
 12  2  1  0
 13 14  1  0
 14 15  2  0
 14 16  1  0
 16 17  1  0
 17 18  1  0
 18 19  1  0
 20 19  1  6
 20 22  1  0
 20 21  1  0
 21  9  1  0
 22 23  2  0
 24 25  1  0
 24 22  1  0
 25 26  1  6
 27 26  1  0
 27 28  2  0
 29 28  1  0
 30 29  1  0
 31 30  2  0
 32 31  1  0
 33 32  2  0
 33 34  1  0
 34 35  2  0
 35 30  1  0
 35 27  1  0
 36 25  1  0
 36 37  1  0
 38 36  2  0
M  END
$$$$
