YRW.pdb
     RDKit          3D

 38 40  0  0  1  0  0  0  0  0999 V2000
   15.5319  -19.5761  -15.2466 O   0  0  0  0  0  0  0  0  0  0  0  0
   16.7846  -19.9717  -14.7949 C   0  0  0  0  0  0  0  0  0  0  0  0
   16.8937  -21.2154  -14.1965 C   0  0  0  0  0  0  0  0  0  0  0  0
   18.0979  -21.6853  -13.7211 C   0  0  0  0  0  0  0  0  0  0  0  0
   19.2469  -20.9219  -13.8277 C   0  0  0  0  0  0  0  0  0  0  0  0
   20.4943  -21.4914  -13.2989 C   0  0  0  0  0  0  0  0  0  0  0  0
   21.3166  -22.0511  -14.4412 C   0  0  2  0  0  0  0  0  0  0  0  0
   20.6820  -23.2571  -14.8889 N   0  0  0  0  0  0  0  0  0  0  0  0
   22.7043  -22.3592  -13.9767 C   0  0  0  0  0  0  0  0  0  0  0  0
   22.8769  -23.3805  -13.2722 O   0  0  0  0  0  0  0  0  0  0  0  0
   19.1351  -19.6884  -14.4220 C   0  0  0  0  0  0  0  0  0  0  0  0
   17.9240  -19.2170  -14.8996 C   0  0  0  0  0  0  0  0  0  0  0  0
   27.1968  -24.8182  -15.9125 N   0  0  0  0  0  0  0  0  0  0  0  0
   28.3890  -24.2180  -16.3793 C   0  0  0  0  0  0  0  0  0  0  0  0
   29.0593  -24.8252  -17.2977 N   0  0  0  0  0  0  0  0  0  0  0  0
   28.8054  -22.9833  -15.8263 N   0  0  0  0  0  0  0  0  0  0  0  0
   27.9608  -22.3279  -14.8618 C   0  0  0  0  0  0  0  0  0  0  0  0
   26.7347  -21.8053  -15.6014 C   0  0  0  0  0  0  0  0  0  0  0  0
   26.0144  -20.7668  -14.8101 C   0  0  0  0  0  0  0  0  0  0  0  0
   25.0740  -21.4282  -13.7997 C   0  0  2  0  0  0  0  0  0  0  0  0
   23.7565  -21.5038  -14.3426 N   0  0  0  0  0  0  0  0  0  0  0  0
   25.1142  -20.7332  -12.5119 C   0  0  0  0  0  0  0  0  0  0  0  0
   24.6990  -19.5540  -12.4165 O   0  0  0  0  0  0  0  0  0  0  0  0
   29.9293  -24.4511  -17.7205 N   0  0  0  0  0  0  0  0  0  0  0  0
   25.6183  -21.3724  -11.3577 C   0  0  2  0  0  0  0  0  0  0  0  0
   25.8654  -20.6990  -10.0946 C   0  0  0  0  0  0  0  0  0  0  0  0
   26.7791  -21.5046   -9.2517 C   0  0  0  0  0  0  0  0  0  0  0  0
   27.0748  -20.8071   -7.9872 C   0  0  0  0  0  0  0  0  0  0  0  0
   26.2627  -20.0052   -7.2187 N   0  0  0  0  0  0  0  0  0  0  0  0
   26.9478  -19.5815   -6.1522 C   0  0  0  0  0  0  0  0  0  0  0  0
   28.1877  -20.0878   -6.2065 C   0  0  0  0  0  0  0  0  0  0  0  0
   29.2740  -19.9458   -5.3412 C   0  0  0  0  0  0  0  0  0  0  0  0
   30.4344  -20.5874   -5.6527 C   0  0  0  0  0  0  0  0  0  0  0  0
   30.5580  -21.3617   -6.7862 C   0  0  0  0  0  0  0  0  0  0  0  0
   29.4715  -21.4993   -7.6451 C   0  0  0  0  0  0  0  0  0  0  0  0
   28.2873  -20.8516   -7.3379 C   0  0  0  0  0  0  0  0  0  0  0  0
   26.3871  -19.3151  -10.2999 O   0  0  0  0  0  0  0  0  0  0  0  0
   25.9293  -18.2202   -9.6000 O   0  0  0  0  0  0  0  0  0  0  0  0
  2  1  1  0
  3  2  2  0
  4  3  1  0
  5 11  1  0
  5  4  2  0
  6  7  1  0
  6  5  1  0
  7  8  1  1
  9  7  1  0
 10  9  2  0
 11 12  2  0
 12  2  1  0
 13 14  1  0
 14 15  2  0
 14 16  1  0
 16 17  1  0
 17 18  1  0
 18 19  1  0
 20 19  1  6
 20 22  1  0
 20 21  1  0
 21  9  1  0
 22 23  2  0
 24 25  1  0
 24 22  1  0
 25 26  1  1
 27 26  1  0
 27 28  2  0
 29 28  1  0
 30 29  1  0
 31 30  2  0
 32 31  1  0
 33 32  2  0
 33 34  1  0
 34 35  2  0
 35 30  1  0
 35 27  1  0
 36 25  1  0
 36 37  1  0
 38 36  2  0
M  END
$$$$
