YRW.pdb
     RDKit          3D

 38 40  0  0  1  0  0  0  0  0999 V2000
   25.1255  -10.9440  -18.0360 O   0  0  0  0  0  0  0  0  0  0  0  0
   24.9058  -12.1396  -17.3638 C   0  0  0  0  0  0  0  0  0  0  0  0
   24.7120  -13.2820  -18.1217 C   0  0  0  0  0  0  0  0  0  0  0  0
   24.4880  -14.5082  -17.5360 C   0  0  0  0  0  0  0  0  0  0  0  0
   24.4492  -14.6380  -16.1590 C   0  0  0  0  0  0  0  0  0  0  0  0
   24.2071  -15.9787  -15.6079 C   0  0  0  0  0  0  0  0  0  0  0  0
   22.9278  -16.5404  -16.1929 C   0  0  2  0  0  0  0  0  0  0  0  0
   21.8272  -15.8495  -15.5853 N   0  0  0  0  0  0  0  0  0  0  0  0
   22.8235  -18.0029  -15.8989 C   0  0  0  0  0  0  0  0  0  0  0  0
   22.7531  -18.3596  -14.7001 O   0  0  0  0  0  0  0  0  0  0  0  0
   24.6420  -13.5026  -15.4100 C   0  0  0  0  0  0  0  0  0  0  0  0
   24.8671  -12.2703  -15.9999 C   0  0  0  0  0  0  0  0  0  0  0  0
   23.6788  -24.4893  -18.8382 N   0  0  0  0  0  0  0  0  0  0  0  0
   22.6561  -25.1481  -18.1174 C   0  0  0  0  0  0  0  0  0  0  0  0
   22.6126  -26.4358  -18.1580 N   0  0  0  0  0  0  0  0  0  0  0  0
   21.7203  -24.3798  -17.3841 N   0  0  0  0  0  0  0  0  0  0  0  0
   21.4212  -23.0400  -17.8184 C   0  0  0  0  0  0  0  0  0  0  0  0
   22.7250  -22.4048  -18.2875 C   0  0  0  0  0  0  0  0  0  0  0  0
   22.6337  -20.9168  -18.3186 C   0  0  0  0  0  0  0  0  0  0  0  0
   22.8512  -20.3433  -16.9163 C   0  0  2  0  0  0  0  0  0  0  0  0
   22.8068  -18.9178  -16.9643 N   0  0  0  0  0  0  0  0  0  0  0  0
   24.0930  -20.8493  -16.3289 C   0  0  0  0  0  0  0  0  0  0  0  0
   25.2011  -20.4073  -16.7147 O   0  0  0  0  0  0  0  0  0  0  0  0
   21.8336  -26.9998  -17.7700 N   0  0  0  0  0  0  0  0  0  0  0  0
   24.0688  -21.8394  -15.3220 C   0  0  2  0  0  0  0  0  0  0  0  0
   25.2551  -22.3827  -14.6835 C   0  0  0  0  0  0  0  0  0  0  0  0
   24.9221  -22.9058  -13.3383 C   0  0  0  0  0  0  0  0  0  0  0  0
   23.9129  -23.9763  -13.4290 C   0  0  0  0  0  0  0  0  0  0  0  0
   24.0810  -25.3202  -13.6720 N   0  0  0  0  0  0  0  0  0  0  0  0
   22.8863  -25.9192  -13.6672 C   0  0  0  0  0  0  0  0  0  0  0  0
   21.9425  -24.9983  -13.4270 C   0  0  0  0  0  0  0  0  0  0  0  0
   20.5551  -25.1138  -13.3230 C   0  0  0  0  0  0  0  0  0  0  0  0
   19.8319  -23.9883  -13.0674 C   0  0  0  0  0  0  0  0  0  0  0  0
   20.4305  -22.7566  -12.9116 C   0  0  0  0  0  0  0  0  0  0  0  0
   21.8141  -22.6477  -13.0165 C   0  0  0  0  0  0  0  0  0  0  0  0
   22.5586  -23.7856  -13.2761 C   0  0  0  0  0  0  0  0  0  0  0  0
   25.9091  -23.4246  -15.5298 O   0  0  0  0  0  0  0  0  0  0  0  0
   27.2246  -23.8064  -15.3817 O   0  0  0  0  0  0  0  0  0  0  0  0
  2  1  1  0
  3  2  2  0
  4  3  1  0
  5 11  1  0
  5  4  2  0
  6  7  1  0
  6  5  1  0
  7  8  1  1
  9  7  1  0
 10  9  2  0
 11 12  2  0
 12  2  1  0
 13 14  1  0
 14 15  2  0
 14 16  1  0
 16 17  1  0
 17 18  1  0
 18 19  1  0
 20 19  1  6
 20 22  1  0
 20 21  1  0
 21  9  1  0
 22 23  2  0
 24 25  1  0
 24 22  1  0
 25 26  1  6
 27 26  1  0
 27 28  2  0
 29 28  1  0
 30 29  1  0
 31 30  2  0
 32 31  1  0
 33 32  2  0
 33 34  1  0
 34 35  2  0
 35 30  1  0
 35 27  1  0
 36 25  1  0
 36 37  1  0
 38 36  2  0
M  END
$$$$
