YRW.pdb
     RDKit          3D

 38 40  0  0  1  0  0  0  0  0999 V2000
   31.3995  -16.8550  -20.4058 O   0  0  0  0  0  0  0  0  0  0  0  0
   30.7168  -16.9250  -19.1981 C   0  0  0  0  0  0  0  0  0  0  0  0
   29.3362  -16.8251  -19.2284 C   0  0  0  0  0  0  0  0  0  0  0  0
   28.5821  -16.8847  -18.0774 C   0  0  0  0  0  0  0  0  0  0  0  0
   29.1863  -17.0477  -16.8435 C   0  0  0  0  0  0  0  0  0  0  0  0
   28.3155  -17.1039  -15.6609 C   0  0  0  0  0  0  0  0  0  0  0  0
   28.4036  -18.4805  -15.0353 C   0  0  2  0  0  0  0  0  0  0  0  0
   27.9459  -19.4333  -16.0051 N   0  0  0  0  0  0  0  0  0  0  0  0
   27.5383  -18.5514  -13.8178 C   0  0  0  0  0  0  0  0  0  0  0  0
   27.6050  -17.6121  -12.9917 O   0  0  0  0  0  0  0  0  0  0  0  0
   30.5563  -17.1464  -16.8170 C   0  0  0  0  0  0  0  0  0  0  0  0
   31.3134  -17.0864  -17.9746 C   0  0  0  0  0  0  0  0  0  0  0  0
   22.5428  -17.9253  -17.4300 N   0  0  0  0  0  0  0  0  0  0  0  0
   21.6470  -18.7781  -16.7446 C   0  0  0  0  0  0  0  0  0  0  0  0
   20.4083  -18.7762  -17.1013 N   0  0  0  0  0  0  0  0  0  0  0  0
   22.1340  -19.5962  -15.6971 N   0  0  0  0  0  0  0  0  0  0  0  0
   23.5419  -19.5835  -15.3958 C   0  0  0  0  0  0  0  0  0  0  0  0
   23.6919  -19.3207  -13.9018 C   0  0  0  0  0  0  0  0  0  0  0  0
   24.4310  -20.4216  -13.2197 C   0  0  0  0  0  0  0  0  0  0  0  0
   25.7308  -19.8895  -12.6112 C   0  0  2  0  0  0  0  0  0  0  0  0
   26.6879  -19.6555  -13.6433 N   0  0  0  0  0  0  0  0  0  0  0  0
   26.2313  -20.7906  -11.5716 C   0  0  0  0  0  0  0  0  0  0  0  0
   26.9382  -21.7796  -11.8788 O   0  0  0  0  0  0  0  0  0  0  0  0
   19.6917  -19.4114  -16.7031 N   0  0  0  0  0  0  0  0  0  0  0  0
   25.9302  -20.5662  -10.2101 C   0  0  2  0  0  0  0  0  0  0  0  0
   26.0490  -21.5747   -9.1714 C   0  0  0  0  0  0  0  0  0  0  0  0
   27.3820  -21.4988   -8.5300 C   0  0  0  0  0  0  0  0  0  0  0  0
   27.4664  -20.3292   -7.6369 C   0  0  0  0  0  0  0  0  0  0  0  0
   26.9656  -19.0590   -7.8076 N   0  0  0  0  0  0  0  0  0  0  0  0
   27.2800  -18.3169   -6.7415 C   0  0  0  0  0  0  0  0  0  0  0  0
   27.9742  -19.0726   -5.8790 C   0  0  0  0  0  0  0  0  0  0  0  0
   28.5247  -18.7693   -4.6325 C   0  0  0  0  0  0  0  0  0  0  0  0
   29.1905  -19.7526   -3.9654 C   0  0  0  0  0  0  0  0  0  0  0  0
   29.3307  -21.0211   -4.4860 C   0  0  0  0  0  0  0  0  0  0  0  0
   28.7797  -21.3174   -5.7294 C   0  0  0  0  0  0  0  0  0  0  0  0
   28.1009  -20.3252   -6.4158 C   0  0  0  0  0  0  0  0  0  0  0  0
   24.9504  -21.4636   -8.1663 O   0  0  0  0  0  0  0  0  0  0  0  0
   23.8674  -20.6251   -8.3157 O   0  0  0  0  0  0  0  0  0  0  0  0
  2  1  1  0
  3  2  2  0
  4  3  1  0
  5 11  1  0
  5  4  2  0
  6  7  1  0
  6  5  1  0
  7  8  1  6
  9  7  1  0
 10  9  2  0
 11 12  2  0
 12  2  1  0
 13 14  1  0
 14 15  2  0
 14 16  1  0
 16 17  1  0
 17 18  1  0
 18 19  1  0
 20 19  1  6
 20 22  1  0
 20 21  1  0
 21  9  1  0
 22 23  2  0
 24 25  1  0
 24 22  1  0
 25 26  1  6
 27 26  1  0
 27 28  2  0
 29 28  1  0
 30 29  1  0
 31 30  2  0
 32 31  1  0
 33 32  2  0
 33 34  1  0
 34 35  2  0
 35 30  1  0
 35 27  1  0
 36 25  1  0
 36 37  1  0
 38 36  2  0
M  END
$$$$
