YRW.pdb
     RDKit          3D

 38 40  0  0  1  0  0  0  0  0999 V2000
   27.5551  -15.6614  -22.9801 O   0  0  0  0  0  0  0  0  0  0  0  0
   26.5582  -16.4224  -22.3829 C   0  0  0  0  0  0  0  0  0  0  0  0
   25.3614  -15.7966  -22.0779 C   0  0  0  0  0  0  0  0  0  0  0  0
   24.3209  -16.4770  -21.4852 C   0  0  0  0  0  0  0  0  0  0  0  0
   24.4401  -17.8197  -21.1732 C   0  0  0  0  0  0  0  0  0  0  0  0
   23.2865  -18.4776  -20.5438 C   0  0  0  0  0  0  0  0  0  0  0  0
   22.6841  -19.4738  -21.5128 C   0  0  2  0  0  0  0  0  0  0  0  0
   22.0825  -18.7342  -22.5848 N   0  0  0  0  0  0  0  0  0  0  0  0
   21.6412  -20.2968  -20.8265 C   0  0  0  0  0  0  0  0  0  0  0  0
   20.5149  -19.7822  -20.6367 O   0  0  0  0  0  0  0  0  0  0  0  0
   25.6289  -18.4375  -21.4772 C   0  0  0  0  0  0  0  0  0  0  0  0
   26.6743  -17.7526  -22.0730 C   0  0  0  0  0  0  0  0  0  0  0  0
   21.9174  -27.7757  -17.1632 N   0  0  0  0  0  0  0  0  0  0  0  0
   20.6352  -27.9378  -17.7368 C   0  0  0  0  0  0  0  0  0  0  0  0
   19.7809  -28.6820  -17.1221 N   0  0  0  0  0  0  0  0  0  0  0  0
   20.3350  -27.2865  -18.9572 N   0  0  0  0  0  0  0  0  0  0  0  0
   21.3056  -26.3902  -19.5296 C   0  0  0  0  0  0  0  0  0  0  0  0
   20.8421  -24.9659  -19.2466 C   0  0  0  0  0  0  0  0  0  0  0  0
   21.7213  -23.9585  -19.9067 C   0  0  0  0  0  0  0  0  0  0  0  0
   21.1239  -22.5569  -19.7599 C   0  0  2  0  0  0  0  0  0  0  0  0
   21.9548  -21.6050  -20.4230 N   0  0  0  0  0  0  0  0  0  0  0  0
   20.9006  -22.2262  -18.3514 C   0  0  0  0  0  0  0  0  0  0  0  0
   21.8726  -21.9864  -17.5964 O   0  0  0  0  0  0  0  0  0  0  0  0
   18.8551  -28.9409  -17.5112 N   0  0  0  0  0  0  0  0  0  0  0  0
   19.5944  -22.1708  -17.8171 C   0  0  2  0  0  0  0  0  0  0  0  0
   19.2727  -21.6460  -16.5014 C   0  0  0  0  0  0  0  0  0  0  0  0
   19.2840  -20.1649  -16.5210 C   0  0  0  0  0  0  0  0  0  0  0  0
   18.1456  -19.6438  -17.2990 C   0  0  0  0  0  0  0  0  0  0  0  0
   16.8109  -19.9695  -17.2234 N   0  0  0  0  0  0  0  0  0  0  0  0
   16.1324  -19.2488  -18.1214 C   0  0  0  0  0  0  0  0  0  0  0  0
   16.9926  -18.4605  -18.7813 C   0  0  0  0  0  0  0  0  0  0  0  0
   16.7855  -17.5324  -19.8034 C   0  0  0  0  0  0  0  0  0  0  0  0
   17.8651  -16.8622  -20.2938 C   0  0  0  0  0  0  0  0  0  0  0  0
   19.1380  -17.0770  -19.8107 C   0  0  0  0  0  0  0  0  0  0  0  0
   19.3380  -18.0037  -18.7917 C   0  0  0  0  0  0  0  0  0  0  0  0
   18.2475  -18.6903  -18.2859 C   0  0  0  0  0  0  0  0  0  0  0  0
   17.9710  -22.1772  -15.9986 O   0  0  0  0  0  0  0  0  0  0  0  0
   17.1049  -22.9190  -16.7717 O   0  0  0  0  0  0  0  0  0  0  0  0
  2  1  1  0
  3  2  2  0
  4  3  1  0
  5 11  1  0
  5  4  2  0
  6  7  1  0
  6  5  1  0
  7  8  1  6
  9  7  1  0
 10  9  2  0
 11 12  2  0
 12  2  1  0
 13 14  1  0
 14 15  2  0
 14 16  1  0
 16 17  1  0
 17 18  1  0
 18 19  1  0
 20 19  1  1
 20 22  1  0
 20 21  1  0
 21  9  1  0
 22 23  2  0
 24 25  1  0
 24 22  1  0
 25 26  1  6
 27 26  1  0
 27 28  2  0
 29 28  1  0
 30 29  1  0
 31 30  2  0
 32 31  1  0
 33 32  2  0
 33 34  1  0
 34 35  2  0
 35 30  1  0
 35 27  1  0
 36 25  1  0
 36 37  1  0
 38 36  2  0
M  END
$$$$
