YRW.pdb
     RDKit          3D

 38 40  0  0  1  0  0  0  0  0999 V2000
   22.4179  -11.7237  -18.5021 O   0  0  0  0  0  0  0  0  0  0  0  0
   22.3643  -12.9464  -17.8451 C   0  0  0  0  0  0  0  0  0  0  0  0
   23.5317  -13.4275  -17.2769 C   0  0  0  0  0  0  0  0  0  0  0  0
   23.5669  -14.6305  -16.6073 C   0  0  0  0  0  0  0  0  0  0  0  0
   22.4263  -15.4032  -16.4805 C   0  0  0  0  0  0  0  0  0  0  0  0
   22.5420  -16.6738  -15.7510 C   0  0  0  0  0  0  0  0  0  0  0  0
   22.9646  -17.7682  -16.7090 C   0  0  2  0  0  0  0  0  0  0  0  0
   21.8767  -18.0032  -17.6141 N   0  0  0  0  0  0  0  0  0  0  0  0
   23.2693  -19.0243  -15.9570 C   0  0  0  0  0  0  0  0  0  0  0  0
   22.3101  -19.6708  -15.4760 O   0  0  0  0  0  0  0  0  0  0  0  0
   21.2697  -14.9230  -17.0455 C   0  0  0  0  0  0  0  0  0  0  0  0
   21.2354  -13.7134  -17.7183 C   0  0  0  0  0  0  0  0  0  0  0  0
   30.2301  -22.9803  -18.0220 N   0  0  0  0  0  0  0  0  0  0  0  0
   29.3455  -23.4602  -17.0288 C   0  0  0  0  0  0  0  0  0  0  0  0
   29.3837  -24.7138  -16.7310 N   0  0  0  0  0  0  0  0  0  0  0  0
   28.4529  -22.5580  -16.4017 N   0  0  0  0  0  0  0  0  0  0  0  0
   28.5089  -21.1621  -16.7502 C   0  0  0  0  0  0  0  0  0  0  0  0
   27.4366  -20.4411  -15.9417 C   0  0  0  0  0  0  0  0  0  0  0  0
   26.1958  -21.2589  -15.8182 C   0  0  0  0  0  0  0  0  0  0  0  0
   25.1346  -20.4946  -15.0230 C   0  0  2  0  0  0  0  0  0  0  0  0
   24.6055  -19.4338  -15.8174 N   0  0  0  0  0  0  0  0  0  0  0  0
   25.6722  -20.0272  -13.7441 C   0  0  0  0  0  0  0  0  0  0  0  0
   26.3868  -18.9980  -13.6968 O   0  0  0  0  0  0  0  0  0  0  0  0
   28.7979  -25.1507  -15.9952 N   0  0  0  0  0  0  0  0  0  0  0  0
   25.3990  -20.7213  -12.5448 C   0  0  2  0  0  0  0  0  0  0  0  0
   26.0109  -20.4101  -11.2646 C   0  0  0  0  0  0  0  0  0  0  0  0
   25.1589  -19.4683  -10.5021 C   0  0  0  0  0  0  0  0  0  0  0  0
   23.8912  -20.1104  -10.1103 C   0  0  0  0  0  0  0  0  0  0  0  0
   23.5911  -20.8409   -8.9835 N   0  0  0  0  0  0  0  0  0  0  0  0
   22.3153  -21.2344   -9.0432 C   0  0  0  0  0  0  0  0  0  0  0  0
   21.7757  -20.7783  -10.1823 C   0  0  0  0  0  0  0  0  0  0  0  0
   20.4889  -20.9161  -10.7060 C   0  0  0  0  0  0  0  0  0  0  0  0
   20.2164  -20.3353  -11.9075 C   0  0  0  0  0  0  0  0  0  0  0  0
   21.1685  -19.6254  -12.6070 C   0  0  0  0  0  0  0  0  0  0  0  0
   22.4496  -19.4916  -12.0797 C   0  0  0  0  0  0  0  0  0  0  0  0
   22.7372  -20.0780  -10.8592 C   0  0  0  0  0  0  0  0  0  0  0  0
   26.3023  -21.6451  -10.4776 O   0  0  0  0  0  0  0  0  0  0  0  0
   25.8973  -22.9040  -10.8639 O   0  0  0  0  0  0  0  0  0  0  0  0
  2  1  1  0
  3  2  2  0
  4  3  1  0
  5 11  1  0
  5  4  2  0
  6  7  1  0
  6  5  1  0
  7  8  1  6
  9  7  1  0
 10  9  2  0
 11 12  2  0
 12  2  1  0
 13 14  1  0
 14 15  2  0
 14 16  1  0
 16 17  1  0
 17 18  1  0
 18 19  1  0
 20 19  1  6
 20 22  1  0
 20 21  1  0
 21  9  1  0
 22 23  2  0
 24 25  1  0
 24 22  1  0
 25 26  1  6
 27 26  1  0
 27 28  2  0
 29 28  1  0
 30 29  1  0
 31 30  2  0
 32 31  1  0
 33 32  2  0
 33 34  1  0
 34 35  2  0
 35 30  1  0
 35 27  1  0
 36 25  1  0
 36 37  1  0
 38 36  2  0
M  END
$$$$
