YRW.pdb
     RDKit          3D

 38 40  0  0  1  0  0  0  0  0999 V2000
   24.4716  -13.2692  -21.7926 O   0  0  0  0  0  0  0  0  0  0  0  0
   24.3709  -14.2001  -20.7664 C   0  0  0  0  0  0  0  0  0  0  0  0
   23.3332  -14.0557  -19.8613 C   0  0  0  0  0  0  0  0  0  0  0  0
   23.1600  -14.9339  -18.8146 C   0  0  0  0  0  0  0  0  0  0  0  0
   24.0258  -15.9978  -18.6332 C   0  0  0  0  0  0  0  0  0  0  0  0
   23.7756  -16.8930  -17.4948 C   0  0  0  0  0  0  0  0  0  0  0  0
   23.3548  -18.2547  -18.0076 C   0  0  2  0  0  0  0  0  0  0  0  0
   21.9831  -18.1644  -18.4177 N   0  0  0  0  0  0  0  0  0  0  0  0
   23.4865  -19.2780  -16.9252 C   0  0  0  0  0  0  0  0  0  0  0  0
   22.7016  -19.2102  -15.9512 O   0  0  0  0  0  0  0  0  0  0  0  0
   25.0543  -16.1382  -19.5331 C   0  0  0  0  0  0  0  0  0  0  0  0
   25.2274  -15.2547  -20.5850 C   0  0  0  0  0  0  0  0  0  0  0  0
   25.9399  -26.3791  -18.3292 N   0  0  0  0  0  0  0  0  0  0  0  0
   26.7320  -25.2355  -18.5822 C   0  0  0  0  0  0  0  0  0  0  0  0
   27.1607  -25.0428  -19.7825 N   0  0  0  0  0  0  0  0  0  0  0  0
   27.0284  -24.3491  -17.5190 N   0  0  0  0  0  0  0  0  0  0  0  0
   26.5361  -24.6493  -16.1996 C   0  0  0  0  0  0  0  0  0  0  0  0
   26.0069  -23.3524  -15.5982 C   0  0  0  0  0  0  0  0  0  0  0  0
   25.3906  -22.4751  -16.6346 C   0  0  0  0  0  0  0  0  0  0  0  0
   24.9906  -21.1311  -16.0211 C   0  0  2  0  0  0  0  0  0  0  0  0
   24.4737  -20.2709  -17.0356 N   0  0  0  0  0  0  0  0  0  0  0  0
   26.1099  -20.5331  -15.2912 C   0  0  0  0  0  0  0  0  0  0  0  0
   27.1014  -20.0826  -15.9125 O   0  0  0  0  0  0  0  0  0  0  0  0
   27.8026  -24.2735  -20.0499 N   0  0  0  0  0  0  0  0  0  0  0  0
   26.0963  -20.4519  -13.8812 C   0  0  2  0  0  0  0  0  0  0  0  0
   27.2027  -19.9547  -13.0821 C   0  0  0  0  0  0  0  0  0  0  0  0
   26.7051  -19.0496  -12.0203 C   0  0  0  0  0  0  0  0  0  0  0  0
   25.8589  -19.7836  -11.0621 C   0  0  0  0  0  0  0  0  0  0  0  0
   26.1522  -20.2213   -9.7911 N   0  0  0  0  0  0  0  0  0  0  0  0
   25.0842  -20.8454   -9.2851 C   0  0  0  0  0  0  0  0  0  0  0  0
   24.1008  -20.8255  -10.1958 C   0  0  0  0  0  0  0  0  0  0  0  0
   22.8025  -21.3367  -10.1534 C   0  0  0  0  0  0  0  0  0  0  0  0
   22.0068  -21.1666  -11.2457 C   0  0  0  0  0  0  0  0  0  0  0  0
   22.4486  -20.5110  -12.3748 C   0  0  0  0  0  0  0  0  0  0  0  0
   23.7442  -20.0036  -12.4110 C   0  0  0  0  0  0  0  0  0  0  0  0
   24.5612  -20.1710  -11.3061 C   0  0  0  0  0  0  0  0  0  0  0  0
   28.0177  -21.0694  -12.5139 O   0  0  0  0  0  0  0  0  0  0  0  0
   27.5555  -22.3617  -12.3926 O   0  0  0  0  0  0  0  0  0  0  0  0
  2  1  1  0
  3  2  2  0
  4  3  1  0
  5 11  1  0
  5  4  2  0
  6  7  1  0
  6  5  1  0
  7  8  1  1
  9  7  1  0
 10  9  2  0
 11 12  2  0
 12  2  1  0
 13 14  1  0
 14 15  2  0
 14 16  1  0
 16 17  1  0
 17 18  1  0
 18 19  1  0
 20 19  1  6
 20 22  1  0
 20 21  1  0
 21  9  1  0
 22 23  2  0
 24 25  1  0
 24 22  1  0
 25 26  1  6
 27 26  1  0
 27 28  2  0
 29 28  1  0
 30 29  1  0
 31 30  2  0
 32 31  1  0
 33 32  2  0
 33 34  1  0
 34 35  2  0
 35 30  1  0
 35 27  1  0
 36 25  1  0
 36 37  1  0
 38 36  2  0
M  END
$$$$
