YRW.pdb
     RDKit          3D

 38 40  0  0  1  0  0  0  0  0999 V2000
   28.4597  -11.2370  -22.5391 O   0  0  0  0  0  0  0  0  0  0  0  0
   27.6906  -12.2790  -22.0367 C   0  0  0  0  0  0  0  0  0  0  0  0
   26.6020  -12.6979  -22.7826 C   0  0  0  0  0  0  0  0  0  0  0  0
   25.7872  -13.7240  -22.3583 C   0  0  0  0  0  0  0  0  0  0  0  0
   26.0333  -14.3742  -21.1620 C   0  0  0  0  0  0  0  0  0  0  0  0
   25.1210  -15.4602  -20.7770 C   0  0  0  0  0  0  0  0  0  0  0  0
   25.8071  -16.7937  -20.9895 C   0  0  2  0  0  0  0  0  0  0  0  0
   25.9310  -17.0029  -22.4033 N   0  0  0  0  0  0  0  0  0  0  0  0
   24.9924  -17.8955  -20.3908 C   0  0  0  0  0  0  0  0  0  0  0  0
   23.8953  -18.1755  -20.9267 O   0  0  0  0  0  0  0  0  0  0  0  0
   27.1142  -13.9561  -20.4244 C   0  0  0  0  0  0  0  0  0  0  0  0
   27.9327  -12.9244  -20.8520 C   0  0  0  0  0  0  0  0  0  0  0  0
   25.8730  -24.6500  -16.7990 N   0  0  0  0  0  0  0  0  0  0  0  0
   24.5717  -24.4226  -16.2945 C   0  0  0  0  0  0  0  0  0  0  0  0
   24.0955  -25.2569  -15.4351 N   0  0  0  0  0  0  0  0  0  0  0  0
   23.8399  -23.2987  -16.7474 N   0  0  0  0  0  0  0  0  0  0  0  0
   24.4799  -22.3544  -17.6259 C   0  0  0  0  0  0  0  0  0  0  0  0
   25.1908  -21.3235  -16.7567 C   0  0  0  0  0  0  0  0  0  0  0  0
   25.8567  -20.2734  -17.5797 C   0  0  0  0  0  0  0  0  0  0  0  0
   24.8306  -19.5681  -18.4699 C   0  0  2  0  0  0  0  0  0  0  0  0
   25.4791  -18.5731  -19.2610 N   0  0  0  0  0  0  0  0  0  0  0  0
   23.7291  -19.0252  -17.6729 C   0  0  0  0  0  0  0  0  0  0  0  0
   23.9664  -18.3115  -16.6697 O   0  0  0  0  0  0  0  0  0  0  0  0
   23.1246  -25.2213  -15.0724 N   0  0  0  0  0  0  0  0  0  0  0  0
   22.3852  -19.2924  -18.0153 C   0  0  2  0  0  0  0  0  0  0  0  0
   21.2401  -18.8011  -17.2687 C   0  0  0  0  0  0  0  0  0  0  0  0
   20.1511  -18.4108  -18.1939 C   0  0  0  0  0  0  0  0  0  0  0  0
   19.5354  -19.6011  -18.8079 C   0  0  0  0  0  0  0  0  0  0  0  0
   18.7109  -20.5488  -18.2465 N   0  0  0  0  0  0  0  0  0  0  0  0
   18.3897  -21.4555  -19.1744 C   0  0  0  0  0  0  0  0  0  0  0  0
   18.9852  -21.1220  -20.3281 C   0  0  0  0  0  0  0  0  0  0  0  0
   18.9655  -21.7381  -21.5807 C   0  0  0  0  0  0  0  0  0  0  0  0
   19.6772  -21.1662  -22.5915 C   0  0  0  0  0  0  0  0  0  0  0  0
   20.4053  -20.0104  -22.4076 C   0  0  0  0  0  0  0  0  0  0  0  0
   20.4211  -19.4010  -21.1564 C   0  0  0  0  0  0  0  0  0  0  0  0
   19.7011  -19.9739  -20.1221 C   0  0  0  0  0  0  0  0  0  0  0  0
   20.7709  -19.7967  -16.2596 O   0  0  0  0  0  0  0  0  0  0  0  0
   19.9021  -19.4875  -15.2360 O   0  0  0  0  0  0  0  0  0  0  0  0
  2  1  1  0
  3  2  2  0
  4  3  1  0
  5 11  1  0
  5  4  2  0
  6  7  1  0
  6  5  1  0
  7  8  1  6
  9  7  1  0
 10  9  2  0
 11 12  2  0
 12  2  1  0
 13 14  1  0
 14 15  2  0
 14 16  1  0
 16 17  1  0
 17 18  1  0
 18 19  1  0
 20 19  1  1
 20 22  1  0
 20 21  1  0
 21  9  1  0
 22 23  2  0
 24 25  1  0
 24 22  1  0
 25 26  1  6
 27 26  1  0
 27 28  2  0
 29 28  1  0
 30 29  1  0
 31 30  2  0
 32 31  1  0
 33 32  2  0
 33 34  1  0
 34 35  2  0
 35 30  1  0
 35 27  1  0
 36 25  1  0
 36 37  1  0
 38 36  2  0
M  END
$$$$
