YRW.pdb
     RDKit          3D

 38 40  0  0  1  0  0  0  0  0999 V2000
   18.4025  -13.5370  -18.7472 O   0  0  0  0  0  0  0  0  0  0  0  0
   19.1382  -14.2551  -17.8131 C   0  0  0  0  0  0  0  0  0  0  0  0
   19.9792  -15.2514  -18.2790 C   0  0  0  0  0  0  0  0  0  0  0  0
   20.7441  -16.0108  -17.4216 C   0  0  0  0  0  0  0  0  0  0  0  0
   20.6954  -15.7999  -16.0551 C   0  0  0  0  0  0  0  0  0  0  0  0
   21.5415  -16.6486  -15.2044 C   0  0  0  0  0  0  0  0  0  0  0  0
   20.8959  -18.0100  -15.0501 C   0  0  2  0  0  0  0  0  0  0  0  0
   19.7875  -17.8705  -14.1502 N   0  0  0  0  0  0  0  0  0  0  0  0
   21.8777  -18.9868  -14.4861 C   0  0  0  0  0  0  0  0  0  0  0  0
   22.2455  -18.8338  -13.2985 O   0  0  0  0  0  0  0  0  0  0  0  0
   19.8600  -14.8106  -15.5961 C   0  0  0  0  0  0  0  0  0  0  0  0
   19.0915  -14.0477  -16.4590 C   0  0  0  0  0  0  0  0  0  0  0  0
   24.6765  -26.0706  -16.7335 N   0  0  0  0  0  0  0  0  0  0  0  0
   25.7113  -25.8058  -15.8069 C   0  0  0  0  0  0  0  0  0  0  0  0
   26.8271  -26.4370  -15.9407 N   0  0  0  0  0  0  0  0  0  0  0  0
   25.4895  -24.8674  -14.7705 N   0  0  0  0  0  0  0  0  0  0  0  0
   24.3160  -24.0347  -14.8195 C   0  0  0  0  0  0  0  0  0  0  0  0
   24.5393  -22.9854  -15.9024 C   0  0  0  0  0  0  0  0  0  0  0  0
   23.3519  -22.0979  -16.0636 C   0  0  0  0  0  0  0  0  0  0  0  0
   23.3850  -20.9748  -15.0242 C   0  0  2  0  0  0  0  0  0  0  0  0
   22.3487  -20.0325  -15.2969 N   0  0  0  0  0  0  0  0  0  0  0  0
   24.7096  -20.3544  -14.9635 C   0  0  0  0  0  0  0  0  0  0  0  0
   25.0710  -19.5469  -15.8520 O   0  0  0  0  0  0  0  0  0  0  0  0
   27.6159  -26.3637  -15.2714 N   0  0  0  0  0  0  0  0  0  0  0  0
   25.6022  -20.6507  -13.9097 C   0  0  2  0  0  0  0  0  0  0  0  0
   26.9571  -20.1349  -13.8190 C   0  0  0  0  0  0  0  0  0  0  0  0
   27.1170  -19.3204  -12.5922 C   0  0  0  0  0  0  0  0  0  0  0  0
   26.4448  -19.9618  -11.4478 C   0  0  0  0  0  0  0  0  0  0  0  0
   25.3924  -20.8480  -11.4346 N   0  0  0  0  0  0  0  0  0  0  0  0
   25.1069  -21.1706  -10.1694 C   0  0  0  0  0  0  0  0  0  0  0  0
   25.9479  -20.5157   -9.3566 C   0  0  0  0  0  0  0  0  0  0  0  0
   26.0601  -20.5119   -7.9651 C   0  0  0  0  0  0  0  0  0  0  0  0
   27.0260  -19.7365   -7.3985 C   0  0  0  0  0  0  0  0  0  0  0  0
   27.8819  -18.9672   -8.1572 C   0  0  0  0  0  0  0  0  0  0  0  0
   27.7649  -18.9752   -9.5441 C   0  0  0  0  0  0  0  0  0  0  0  0
   26.7866  -19.7599  -10.1302 C   0  0  0  0  0  0  0  0  0  0  0  0
   27.9699  -21.2301  -13.8852 O   0  0  0  0  0  0  0  0  0  0  0  0
   27.6411  -22.5681  -13.8920 O   0  0  0  0  0  0  0  0  0  0  0  0
  2  1  1  0
  3  2  2  0
  4  3  1  0
  5 11  1  0
  5  4  2  0
  6  7  1  0
  6  5  1  0
  7  8  1  1
  9  7  1  0
 10  9  2  0
 11 12  2  0
 12  2  1  0
 13 14  1  0
 14 15  2  0
 14 16  1  0
 16 17  1  0
 17 18  1  0
 18 19  1  0
 20 19  1  6
 20 22  1  0
 20 21  1  0
 21  9  1  0
 22 23  2  0
 24 25  1  0
 24 22  1  0
 25 26  1  1
 27 26  1  0
 27 28  2  0
 29 28  1  0
 30 29  1  0
 31 30  2  0
 32 31  1  0
 33 32  2  0
 33 34  1  0
 34 35  2  0
 35 30  1  0
 35 27  1  0
 36 25  1  0
 36 37  1  0
 38 36  2  0
M  END
$$$$
