YRT.pdb
     RDKit          3D

 31 31  0  0  1  0  0  0  0  0999 V2000
   30.2742  -17.2356  -18.4421 O   0  0  0  0  0  0  0  0  0  0  0  0
   29.0817  -17.7555  -17.9474 C   0  0  0  0  0  0  0  0  0  0  0  0
   28.5832  -18.9196  -18.5092 C   0  0  0  0  0  0  0  0  0  0  0  0
   27.4125  -19.4906  -18.0728 C   0  0  0  0  0  0  0  0  0  0  0  0
   26.7051  -18.8958  -17.0460 C   0  0  0  0  0  0  0  0  0  0  0  0
   25.4460  -19.4588  -16.5352 C   0  0  0  0  0  0  0  0  0  0  0  0
   25.7062  -20.2441  -15.2495 C   0  0  2  0  0  0  0  0  0  0  0  0
   26.4760  -21.4188  -15.5171 N   0  0  0  0  0  0  0  0  0  0  0  0
   24.4071  -20.5795  -14.5838 C   0  0  0  0  0  0  0  0  0  0  0  0
   23.8770  -21.7115  -14.7042 O   0  0  0  0  0  0  0  0  0  0  0  0
   27.2147  -17.7324  -16.4933 C   0  0  0  0  0  0  0  0  0  0  0  0
   28.3856  -17.1611  -16.9297 C   0  0  0  0  0  0  0  0  0  0  0  0
   20.5597  -22.6607   -7.9898 N   0  0  0  0  0  0  0  0  0  0  0  0
   21.5669  -21.7420   -7.6203 C   0  0  0  0  0  0  0  0  0  0  0  0
   22.1894  -21.9273   -6.5040 N   0  0  0  0  0  0  0  0  0  0  0  0
   21.9363  -20.6225   -8.4075 N   0  0  0  0  0  0  0  0  0  0  0  0
   21.2505  -20.3436   -9.6673 C   0  0  0  0  0  0  0  0  0  0  0  0
   21.9921  -20.9374  -10.8341 C   0  0  0  0  0  0  0  0  0  0  0  0
   22.6984  -19.8295  -11.5840 C   0  0  0  0  0  0  0  0  0  0  0  0
   22.5129  -19.9983  -13.0865 C   0  0  2  0  0  0  0  0  0  0  0  0
   23.7185  -19.6271  -13.7856 N   0  0  0  0  0  0  0  0  0  0  0  0
   21.3300  -19.2526  -13.5681 C   0  0  0  0  0  0  0  0  0  0  0  0
   21.2911  -17.9946  -13.5561 O   0  0  0  0  0  0  0  0  0  0  0  0
   22.8927  -21.2689   -6.1208 C   0  0  0  0  0  0  0  0  0  0  0  0
   19.4418  -19.5578  -16.9496 C   0  0  2  0  0  0  0  0  0  0  0  0
   18.4902  -19.8374  -15.8050 O   0  0  0  0  0  0  0  0  0  0  0  0
   18.4958  -21.2405  -15.6353 C   0  0  2  0  0  0  0  0  0  0  0  0
   19.0409  -19.2614  -14.5219 N   0  0  0  0  0  0  0  0  0  0  0  0
   20.2067  -19.9401  -14.0569 C   0  0  0  0  0  0  0  0  0  0  0  0
   17.9814  -19.3494  -13.5036 O   0  0  0  0  0  0  0  0  0  0  0  0
   16.9359  -18.6826  -13.6317 O   0  0  0  0  0  0  0  0  0  0  0  0
  2 12  2  0
  2  1  1  0
  3  2  1  0
  4  5  1  0
  4  3  2  0
  5 11  2  0
  6  5  1  0
  7  6  1  0
  7  8  1  6
  9 21  1  0
  9  7  1  0
 10  9  2  0
 11 12  1  0
 13 14  1  0
 14 15  2  0
 16 14  1  0
 16 17  1  0
 18 17  1  0
 19 18  1  0
 20 19  1  1
 20 21  1  0
 22 20  1  0
 22 28  1  0
 23 22  2  0
 25 24  1  6
 25 27  1  0
 26 25  1  0
 27 28  1  1
 27 29  1  0
 29 30  2  0
 29 31  1  0
M  END
$$$$
