YRT.pdb
     RDKit          3D

 31 31  0  0  1  0  0  0  0  0999 V2000
   27.2373  -18.9561  -14.9517 O   0  0  0  0  0  0  0  0  0  0  0  0
   26.5592  -17.8205  -15.3853 C   0  0  0  0  0  0  0  0  0  0  0  0
   26.6362  -16.6698  -14.6177 C   0  0  0  0  0  0  0  0  0  0  0  0
   25.9937  -15.5117  -14.9826 C   0  0  0  0  0  0  0  0  0  0  0  0
   25.2476  -15.4831  -16.1450 C   0  0  0  0  0  0  0  0  0  0  0  0
   24.5371  -14.2741  -16.5886 C   0  0  0  0  0  0  0  0  0  0  0  0
   23.2505  -14.0963  -15.7820 C   0  0  2  0  0  0  0  0  0  0  0  0
   22.4271  -15.2616  -15.8730 N   0  0  0  0  0  0  0  0  0  0  0  0
   22.5220  -12.8724  -16.2452 C   0  0  0  0  0  0  0  0  0  0  0  0
   23.1135  -11.7780  -16.4168 O   0  0  0  0  0  0  0  0  0  0  0  0
   25.1791  -16.6405  -16.9029 C   0  0  0  0  0  0  0  0  0  0  0  0
   25.8217  -17.7989  -16.5382 C   0  0  0  0  0  0  0  0  0  0  0  0
   14.3316  -14.1610  -18.2791 N   0  0  0  0  0  0  0  0  0  0  0  0
   14.7798  -14.3439  -16.9521 C   0  0  0  0  0  0  0  0  0  0  0  0
   14.0010  -14.9472  -16.1170 N   0  0  0  0  0  0  0  0  0  0  0  0
   16.0415  -13.9016  -16.4811 N   0  0  0  0  0  0  0  0  0  0  0  0
   16.9635  -13.2042  -17.3750 C   0  0  0  0  0  0  0  0  0  0  0  0
   18.2325  -12.8255  -16.6607 C   0  0  0  0  0  0  0  0  0  0  0  0
   19.1245  -12.0607  -17.6136 C   0  0  0  0  0  0  0  0  0  0  0  0
   20.4439  -11.7040  -16.9411 C   0  0  2  0  0  0  0  0  0  0  0  0
   21.1266  -12.8992  -16.5105 N   0  0  0  0  0  0  0  0  0  0  0  0
   20.2402  -10.7424  -15.8361 C   0  0  0  0  0  0  0  0  0  0  0  0
   19.7589  -11.0990  -14.7292 O   0  0  0  0  0  0  0  0  0  0  0  0
   14.2570  -15.1473  -15.1325 C   0  0  0  0  0  0  0  0  0  0  0  0
   22.3789   -9.1090  -13.6153 C   0  0  2  0  0  0  0  0  0  0  0  0
   21.7132   -7.9657  -14.3524 O   0  0  0  0  0  0  0  0  0  0  0  0
   22.5622   -7.6653  -15.4417 C   0  0  2  0  0  0  0  0  0  0  0  0
   20.4093   -8.4296  -14.9575 N   0  0  0  0  0  0  0  0  0  0  0  0
   20.5838   -9.3900  -15.9982 C   0  0  0  0  0  0  0  0  0  0  0  0
   19.7200   -7.2440  -15.4926 O   0  0  0  0  0  0  0  0  0  0  0  0
   19.5154   -7.1414  -16.7181 O   0  0  0  0  0  0  0  0  0  0  0  0
  2 12  2  0
  2  1  1  0
  3  2  1  0
  4  5  1  0
  4  3  2  0
  5 11  2  0
  6  5  1  0
  7  6  1  0
  7  8  1  6
  9 21  1  0
  9  7  1  0
 10  9  2  0
 11 12  1  0
 13 14  1  0
 14 15  2  0
 16 14  1  0
 16 17  1  0
 18 17  1  0
 19 18  1  0
 20 19  1  1
 20 21  1  0
 22 20  1  0
 22 28  1  0
 23 22  2  0
 25 24  1  1
 25 27  1  0
 26 25  1  0
 27 28  1  1
 27 29  1  0
 29 30  2  0
 29 31  1  0
M  END
$$$$
