YRT.pdb
     RDKit          3D

 31 31  0  0  1  0  0  0  0  0999 V2000
   29.2170  -18.6292   -5.0376 O   0  0  0  0  0  0  0  0  0  0  0  0
   28.4956  -19.3138   -6.0113 C   0  0  0  0  0  0  0  0  0  0  0  0
   29.1917  -19.9502   -7.0261 C   0  0  0  0  0  0  0  0  0  0  0  0
   28.5474  -20.6448   -8.0209 C   0  0  0  0  0  0  0  0  0  0  0  0
   27.1678  -20.7168   -8.0186 C   0  0  0  0  0  0  0  0  0  0  0  0
   26.4210  -21.4448   -9.0557 C   0  0  0  0  0  0  0  0  0  0  0  0
   25.9902  -20.4837  -10.1640 C   0  0  2  0  0  0  0  0  0  0  0  0
   25.3684  -19.3192   -9.6150 N   0  0  0  0  0  0  0  0  0  0  0  0
   25.0840  -21.1872  -11.1268 C   0  0  0  0  0  0  0  0  0  0  0  0
   25.4667  -22.1875  -11.7824 O   0  0  0  0  0  0  0  0  0  0  0  0
   26.4844  -20.0760   -6.9983 C   0  0  0  0  0  0  0  0  0  0  0  0
   27.1285  -19.3813   -6.0032 C   0  0  0  0  0  0  0  0  0  0  0  0
   19.1345  -24.2852  -10.4287 N   0  0  0  0  0  0  0  0  0  0  0  0
   19.3396  -23.2623   -9.4765 C   0  0  0  0  0  0  0  0  0  0  0  0
   19.4164  -23.5888   -8.2293 N   0  0  0  0  0  0  0  0  0  0  0  0
   19.4667  -21.8908   -9.8118 N   0  0  0  0  0  0  0  0  0  0  0  0
   19.3205  -21.4500  -11.1973 C   0  0  0  0  0  0  0  0  0  0  0  0
   20.5951  -20.8370  -11.7110 C   0  0  0  0  0  0  0  0  0  0  0  0
   21.6578  -21.9102  -11.7972 C   0  0  0  0  0  0  0  0  0  0  0  0
   22.9454  -21.3420  -12.3799 C   0  0  2  0  0  0  0  0  0  0  0  0
   23.7489  -20.7502  -11.3387 N   0  0  0  0  0  0  0  0  0  0  0  0
   22.6641  -20.3958  -13.4812 C   0  0  0  0  0  0  0  0  0  0  0  0
   22.2081  -19.2432  -13.2627 O   0  0  0  0  0  0  0  0  0  0  0  0
   19.5909  -22.9092   -7.4660 C   0  0  0  0  0  0  0  0  0  0  0  0
   23.6776  -21.3546  -17.6344 C   0  0  2  0  0  0  0  0  0  0  0  0
   23.7971  -20.0008  -16.9661 O   0  0  0  0  0  0  0  0  0  0  0  0
   23.4792  -19.0511  -17.9635 C   0  0  1  0  0  0  0  0  0  0  0  0
   22.7370  -19.8546  -15.9002 N   0  0  0  0  0  0  0  0  0  0  0  0
   22.9026  -20.7662  -14.8151 C   0  0  0  0  0  0  0  0  0  0  0  0
   21.4298  -20.0814  -16.5382 O   0  0  0  0  0  0  0  0  0  0  0  0
   20.7223  -21.0454  -16.1855 O   0  0  0  0  0  0  0  0  0  0  0  0
  2 12  2  0
  2  1  1  0
  3  2  1  0
  4  5  1  0
  4  3  2  0
  5 11  2  0
  6  5  1  0
  7  6  1  0
  7  8  1  1
  9 21  1  0
  9  7  1  0
 10  9  2  0
 11 12  1  0
 13 14  1  0
 14 15  2  0
 16 14  1  0
 16 17  1  0
 18 17  1  0
 19 18  1  0
 20 19  1  1
 20 21  1  0
 22 20  1  0
 22 28  1  0
 23 22  2  0
 25 24  1  6
 25 27  1  0
 26 25  1  0
 27 28  1  1
 27 29  1  0
 29 30  2  0
 29 31  1  0
M  END
$$$$
