YRT.pdb
     RDKit          3D

 31 31  0  0  1  0  0  0  0  0999 V2000
   31.4471  -15.2477  -19.1928 O   0  0  0  0  0  0  0  0  0  0  0  0
   30.3579  -15.9068  -18.6303 C   0  0  0  0  0  0  0  0  0  0  0  0
   30.5784  -16.7516  -17.5546 C   0  0  0  0  0  0  0  0  0  0  0  0
   29.5525  -17.4351  -16.9486 C   0  0  0  0  0  0  0  0  0  0  0  0
   28.2616  -17.2830  -17.4168 C   0  0  0  0  0  0  0  0  0  0  0  0
   27.1217  -17.9875  -16.8104 C   0  0  0  0  0  0  0  0  0  0  0  0
   27.5283  -19.4106  -16.4273 C   0  0  2  0  0  0  0  0  0  0  0  0
   27.9444  -20.1488  -17.5789 N   0  0  0  0  0  0  0  0  0  0  0  0
   26.3985  -20.0915  -15.7180 C   0  0  0  0  0  0  0  0  0  0  0  0
   25.6679  -20.9332  -16.2966 O   0  0  0  0  0  0  0  0  0  0  0  0
   28.0553  -16.4354  -18.4927 C   0  0  0  0  0  0  0  0  0  0  0  0
   29.0813  -15.7516  -19.0990 C   0  0  0  0  0  0  0  0  0  0  0  0
   25.8406  -19.7599   -8.4228 N   0  0  0  0  0  0  0  0  0  0  0  0
   25.1291  -20.9235   -8.7903 C   0  0  0  0  0  0  0  0  0  0  0  0
   24.0286  -21.1934   -8.1707 N   0  0  0  0  0  0  0  0  0  0  0  0
   25.5550  -21.8170   -9.8049 N   0  0  0  0  0  0  0  0  0  0  0  0
   26.7932  -21.5680  -10.5400 C   0  0  0  0  0  0  0  0  0  0  0  0
   26.5324  -21.4336  -12.0159 C   0  0  0  0  0  0  0  0  0  0  0  0
   25.2676  -20.6294  -12.2213 C   0  0  0  0  0  0  0  0  0  0  0  0
   24.9853  -20.4471  -13.7070 C   0  0  2  0  0  0  0  0  0  0  0  0
   26.1056  -19.8120  -14.3562 N   0  0  0  0  0  0  0  0  0  0  0  0
   23.7184  -19.7164  -13.9267 C   0  0  0  0  0  0  0  0  0  0  0  0
   23.4945  -18.6028  -13.3844 O   0  0  0  0  0  0  0  0  0  0  0  0
   23.4089  -21.9872   -8.4172 C   0  0  0  0  0  0  0  0  0  0  0  0
   22.0024  -18.3546  -16.9963 C   0  0  2  0  0  0  0  0  0  0  0  0
   21.0999  -19.4089  -16.3900 O   0  0  0  0  0  0  0  0  0  0  0  0
   21.4227  -20.6161  -17.0504 C   0  0  2  0  0  0  0  0  0  0  0  0
   21.4560  -19.6217  -14.9377 N   0  0  0  0  0  0  0  0  0  0  0  0
   22.7217  -20.2552  -14.7571 C   0  0  0  0  0  0  0  0  0  0  0  0
   20.3997  -20.4531  -14.3375 O   0  0  0  0  0  0  0  0  0  0  0  0
   20.6640  -21.6030  -13.9349 O   0  0  0  0  0  0  0  0  0  0  0  0
  2 12  2  0
  2  1  1  0
  3  2  1  0
  4  5  1  0
  4  3  2  0
  5 11  2  0
  6  5  1  0
  7  6  1  0
  7  8  1  6
  9 21  1  0
  9  7  1  0
 10  9  2  0
 11 12  1  0
 13 14  1  0
 14 15  2  0
 16 14  1  0
 16 17  1  0
 18 17  1  0
 19 18  1  0
 20 19  1  1
 20 21  1  0
 22 20  1  0
 22 28  1  0
 23 22  2  0
 25 24  1  6
 25 27  1  0
 26 25  1  0
 27 28  1  1
 27 29  1  0
 29 30  2  0
 29 31  1  0
M  END
$$$$
