YRT.pdb
     RDKit          3D

 31 31  0  0  1  0  0  0  0  0999 V2000
   24.6065  -11.5047  -21.4867 O   0  0  0  0  0  0  0  0  0  0  0  0
   24.0617  -12.6685  -20.9519 C   0  0  0  0  0  0  0  0  0  0  0  0
   24.0377  -13.8099  -21.7369 C   0  0  0  0  0  0  0  0  0  0  0  0
   23.5159  -14.9944  -21.2765 C   0  0  0  0  0  0  0  0  0  0  0  0
   22.9984  -15.0600  -19.9973 C   0  0  0  0  0  0  0  0  0  0  0  0
   22.4262  -16.2986  -19.4478 C   0  0  0  0  0  0  0  0  0  0  0  0
   23.5362  -17.1795  -18.8739 C   0  0  2  0  0  0  0  0  0  0  0  0
   24.4219  -17.6199  -19.9062 N   0  0  0  0  0  0  0  0  0  0  0  0
   22.9390  -18.3361  -18.1331 C   0  0  0  0  0  0  0  0  0  0  0  0
   22.4040  -19.2998  -18.7350 O   0  0  0  0  0  0  0  0  0  0  0  0
   23.0287  -13.9116  -19.2234 C   0  0  0  0  0  0  0  0  0  0  0  0
   23.5505  -12.7268  -19.6835 C   0  0  0  0  0  0  0  0  0  0  0  0
   23.8260  -24.4329  -14.2449 N   0  0  0  0  0  0  0  0  0  0  0  0
   24.8996  -23.5408  -14.4604 C   0  0  0  0  0  0  0  0  0  0  0  0
   25.8901  -23.9344  -15.1898 N   0  0  0  0  0  0  0  0  0  0  0  0
   24.9537  -22.2315  -13.9197 N   0  0  0  0  0  0  0  0  0  0  0  0
   23.8086  -21.6792  -13.1993 C   0  0  0  0  0  0  0  0  0  0  0  0
   22.7716  -21.1473  -14.1511 C   0  0  0  0  0  0  0  0  0  0  0  0
   23.3516  -19.9699  -14.9034 C   0  0  0  0  0  0  0  0  0  0  0  0
   22.4144  -19.5369  -16.0234 C   0  0  2  0  0  0  0  0  0  0  0  0
   22.9533  -18.3909  -16.7136 N   0  0  0  0  0  0  0  0  0  0  0  0
   21.0463  -19.2969  -15.5155 C   0  0  0  0  0  0  0  0  0  0  0  0
   20.8340  -18.5929  -14.4940 O   0  0  0  0  0  0  0  0  0  0  0  0
   26.6889  -23.3277  -15.4520 C   0  0  0  0  0  0  0  0  0  0  0  0
   17.7421  -18.5546  -17.7672 C   0  0  2  0  0  0  0  0  0  0  0  0
   17.5768  -19.7282  -16.8243 O   0  0  0  0  0  0  0  0  0  0  0  0
   17.9087  -20.8763  -17.5789 C   0  0  2  0  0  0  0  0  0  0  0  0
   18.5999  -19.6494  -15.7159 N   0  0  0  0  0  0  0  0  0  0  0  0
   19.9365  -19.8566  -16.1701 C   0  0  0  0  0  0  0  0  0  0  0  0
   18.2549  -20.6752  -14.7179 O   0  0  0  0  0  0  0  0  0  0  0  0
   19.0486  -21.6068  -14.4807 O   0  0  0  0  0  0  0  0  0  0  0  0
  2 12  2  0
  2  1  1  0
  3  2  1  0
  4  5  1  0
  4  3  2  0
  5 11  2  0
  6  5  1  0
  7  6  1  0
  7  8  1  6
  9 21  1  0
  9  7  1  0
 10  9  2  0
 11 12  1  0
 13 14  1  0
 14 15  2  0
 16 14  1  0
 16 17  1  0
 18 17  1  0
 19 18  1  0
 20 19  1  1
 20 21  1  0
 22 20  1  0
 22 28  1  0
 23 22  2  0
 25 24  1  6
 25 27  1  0
 26 25  1  0
 27 28  1  1
 27 29  1  0
 29 30  2  0
 29 31  1  0
M  END
$$$$
