YRT.pdb
     RDKit          3D

 31 31  0  0  1  0  0  0  0  0999 V2000
   19.8840  -22.7938   -6.0299 O   0  0  0  0  0  0  0  0  0  0  0  0
   20.5817  -22.1153   -7.0250 C   0  0  0  0  0  0  0  0  0  0  0  0
   21.7368  -21.4340   -6.6769 C   0  0  0  0  0  0  0  0  0  0  0  0
   22.4769  -20.7425   -7.6048 C   0  0  0  0  0  0  0  0  0  0  0  0
   22.0672  -20.7193   -8.9239 C   0  0  0  0  0  0  0  0  0  0  0  0
   22.8166  -19.9970   -9.9630 C   0  0  0  0  0  0  0  0  0  0  0  0
   23.7214  -20.9651  -10.7257 C   0  0  2  0  0  0  0  0  0  0  0  0
   25.0019  -21.0672  -10.0981 N   0  0  0  0  0  0  0  0  0  0  0  0
   23.8436  -20.5323  -12.1544 C   0  0  0  0  0  0  0  0  0  0  0  0
   24.6957  -19.6838  -12.5161 O   0  0  0  0  0  0  0  0  0  0  0  0
   20.9107  -21.4046   -9.2581 C   0  0  0  0  0  0  0  0  0  0  0  0
   20.1702  -22.0964   -8.3303 C   0  0  0  0  0  0  0  0  0  0  0  0
   27.2400  -22.3353  -17.2102 N   0  0  0  0  0  0  0  0  0  0  0  0
   26.5294  -23.4753  -16.7737 C   0  0  0  0  0  0  0  0  0  0  0  0
   27.2003  -24.4906  -16.3414 N   0  0  0  0  0  0  0  0  0  0  0  0
   25.1150  -23.5704  -16.7826 N   0  0  0  0  0  0  0  0  0  0  0  0
   24.3159  -22.6570  -17.5964 C   0  0  0  0  0  0  0  0  0  0  0  0
   23.8902  -21.4515  -16.8028 C   0  0  0  0  0  0  0  0  0  0  0  0
   23.6411  -21.8681  -15.3699 C   0  0  0  0  0  0  0  0  0  0  0  0
   23.1729  -20.6789  -14.5411 C   0  0  2  0  0  0  0  0  0  0  0  0
   22.9973  -21.0660  -13.1630 N   0  0  0  0  0  0  0  0  0  0  0  0
   21.9529  -20.0717  -15.1156 C   0  0  0  0  0  0  0  0  0  0  0  0
   20.8254  -20.6197  -15.0035 O   0  0  0  0  0  0  0  0  0  0  0  0
   26.7631  -25.3666  -16.0001 C   0  0  0  0  0  0  0  0  0  0  0  0
   21.3722  -15.9394  -15.3396 C   0  0  2  0  0  0  0  0  0  0  0  0
   21.1123  -16.7217  -16.6100 O   0  0  0  0  0  0  0  0  0  0  0  0
   22.3255  -16.6914  -17.3344 C   0  0  2  0  0  0  0  0  0  0  0  0
   20.8611  -18.1743  -16.2809 N   0  0  0  0  0  0  0  0  0  0  0  0
   22.0247  -18.8523  -15.8094 C   0  0  0  0  0  0  0  0  0  0  0  0
   20.3717  -18.8300  -17.5047 O   0  0  0  0  0  0  0  0  0  0  0  0
   21.0240  -19.7604  -18.0177 O   0  0  0  0  0  0  0  0  0  0  0  0
  2 12  2  0
  2  1  1  0
  3  2  1  0
  4  5  1  0
  4  3  2  0
  5 11  2  0
  6  5  1  0
  7  6  1  0
  7  8  1  1
  9 21  1  0
  9  7  1  0
 10  9  2  0
 11 12  1  0
 13 14  1  0
 14 15  2  0
 16 14  1  0
 16 17  1  0
 18 17  1  0
 19 18  1  0
 20 19  1  6
 20 21  1  0
 22 20  1  0
 22 28  1  0
 23 22  2  0
 25 24  1  6
 25 27  1  0
 26 25  1  0
 27 28  1  6
 27 29  1  0
 29 30  2  0
 29 31  1  0
M  END
$$$$
