YRT.pdb
     RDKit          3D

 31 31  0  0  1  0  0  0  0  0999 V2000
   13.4721  -20.6882  -14.7403 O   0  0  0  0  0  0  0  0  0  0  0  0
   14.6804  -20.1766  -15.2046 C   0  0  0  0  0  0  0  0  0  0  0  0
   15.8198  -20.9552  -15.0825 C   0  0  0  0  0  0  0  0  0  0  0  0
   17.0466  -20.5165  -15.5181 C   0  0  0  0  0  0  0  0  0  0  0  0
   17.1581  -19.2662  -16.0951 C   0  0  0  0  0  0  0  0  0  0  0  0
   18.4433  -18.7408  -16.5806 C   0  0  0  0  0  0  0  0  0  0  0  0
   19.1932  -18.0528  -15.4397 C   0  0  2  0  0  0  0  0  0  0  0  0
   18.7414  -16.7067  -15.2720 N   0  0  0  0  0  0  0  0  0  0  0  0
   20.6686  -18.1090  -15.6907 C   0  0  0  0  0  0  0  0  0  0  0  0
   21.3049  -17.1111  -16.1106 O   0  0  0  0  0  0  0  0  0  0  0  0
   16.0112  -18.4983  -16.2110 C   0  0  0  0  0  0  0  0  0  0  0  0
   14.7840  -18.9368  -15.7755 C   0  0  0  0  0  0  0  0  0  0  0  0
   27.8919  -18.8561  -16.0862 N   0  0  0  0  0  0  0  0  0  0  0  0
   28.0722  -20.2398  -15.8673 C   0  0  0  0  0  0  0  0  0  0  0  0
   29.1103  -20.8137  -16.3782 N   0  0  0  0  0  0  0  0  0  0  0  0
   27.1753  -21.0396  -15.1155 N   0  0  0  0  0  0  0  0  0  0  0  0
   25.9922  -20.4453  -14.4972 C   0  0  0  0  0  0  0  0  0  0  0  0
   24.7370  -20.8532  -15.2199 C   0  0  0  0  0  0  0  0  0  0  0  0
   23.5668  -20.0845  -14.6468 C   0  0  0  0  0  0  0  0  0  0  0  0
   22.8249  -19.3398  -15.7492 C   0  0  2  0  0  0  0  0  0  0  0  0
   21.4120  -19.2982  -15.4632 N   0  0  0  0  0  0  0  0  0  0  0  0
   23.1140  -19.9213  -17.0779 C   0  0  0  0  0  0  0  0  0  0  0  0
   22.7616  -21.0917  -17.3786 O   0  0  0  0  0  0  0  0  0  0  0  0
   29.3010  -21.8301  -16.3043 C   0  0  0  0  0  0  0  0  0  0  0  0
   22.4081  -18.2925  -20.5675 C   0  0  2  0  0  0  0  0  0  0  0  0
   23.8745  -18.6500  -20.4437 O   0  0  0  0  0  0  0  0  0  0  0  0
   24.5182  -17.4772  -19.9876 C   0  0  2  0  0  0  0  0  0  0  0  0
   24.0660  -19.6792  -19.3549 N   0  0  0  0  0  0  0  0  0  0  0  0
   23.7980  -19.1711  -18.0488 C   0  0  0  0  0  0  0  0  0  0  0  0
   25.4602  -20.1467  -19.4243 O   0  0  0  0  0  0  0  0  0  0  0  0
   26.2359  -19.9398  -18.4705 O   0  0  0  0  0  0  0  0  0  0  0  0
  2 12  2  0
  2  1  1  0
  3  2  1  0
  4  5  1  0
  4  3  2  0
  5 11  2  0
  6  5  1  0
  7  6  1  0
  7  8  1  6
  9 21  1  0
  9  7  1  0
 10  9  2  0
 11 12  1  0
 13 14  1  0
 14 15  2  0
 16 14  1  0
 16 17  1  0
 18 17  1  0
 19 18  1  0
 20 19  1  1
 20 21  1  0
 22 20  1  0
 22 28  1  0
 23 22  2  0
 25 24  1  6
 25 27  1  0
 26 25  1  0
 27 28  1  6
 27 29  1  0
 29 30  2  0
 29 31  1  0
M  END
$$$$
