YRT.pdb
     RDKit          3D

 31 31  0  0  1  0  0  0  0  0999 V2000
   28.4468  -10.7333  -16.7877 O   0  0  0  0  0  0  0  0  0  0  0  0
   27.5694  -11.8102  -16.7005 C   0  0  0  0  0  0  0  0  0  0  0  0
   27.6884  -12.6760  -15.6256 C   0  0  0  0  0  0  0  0  0  0  0  0
   26.8582  -13.7598  -15.4735 C   0  0  0  0  0  0  0  0  0  0  0  0
   25.8742  -14.0021  -16.4124 C   0  0  0  0  0  0  0  0  0  0  0  0
   24.9551  -15.1454  -16.3049 C   0  0  0  0  0  0  0  0  0  0  0  0
   25.6463  -16.4211  -16.7867 C   0  0  2  0  0  0  0  0  0  0  0  0
   25.8927  -16.3665  -18.1940 N   0  0  0  0  0  0  0  0  0  0  0  0
   24.8238  -17.6178  -16.4198 C   0  0  0  0  0  0  0  0  0  0  0  0
   23.9965  -18.1202  -17.2200 O   0  0  0  0  0  0  0  0  0  0  0  0
   25.7663  -13.1287  -17.4821 C   0  0  0  0  0  0  0  0  0  0  0  0
   26.5965  -12.0446  -17.6345 C   0  0  0  0  0  0  0  0  0  0  0  0
   24.5351  -24.2705  -15.2062 N   0  0  0  0  0  0  0  0  0  0  0  0
   24.3078  -24.6854  -13.8753 C   0  0  0  0  0  0  0  0  0  0  0  0
   23.7991  -25.8552  -13.6737 N   0  0  0  0  0  0  0  0  0  0  0  0
   24.6072  -23.8884  -12.7420 N   0  0  0  0  0  0  0  0  0  0  0  0
   25.2050  -22.5648  -12.9037 C   0  0  0  0  0  0  0  0  0  0  0  0
   24.3201  -21.6641  -13.7222 C   0  0  0  0  0  0  0  0  0  0  0  0
   25.0111  -20.3311  -13.9077 C   0  0  0  0  0  0  0  0  0  0  0  0
   24.2100  -19.4398  -14.8478 C   0  0  2  0  0  0  0  0  0  0  0  0
   24.9460  -18.2361  -15.1466 N   0  0  0  0  0  0  0  0  0  0  0  0
   22.8647  -19.1570  -14.3025 C   0  0  0  0  0  0  0  0  0  0  0  0
   22.7028  -18.7275  -13.1305 O   0  0  0  0  0  0  0  0  0  0  0  0
   23.5442  -26.2185  -12.7367 C   0  0  0  0  0  0  0  0  0  0  0  0
   20.0688  -16.8773  -15.6362 C   0  0  2  0  0  0  0  0  0  0  0  0
   19.5617  -18.3026  -15.5676 O   0  0  0  0  0  0  0  0  0  0  0  0
   19.7988  -18.8563  -16.8462 C   0  0  2  0  0  0  0  0  0  0  0  0
   20.4038  -19.1056  -14.6044 N   0  0  0  0  0  0  0  0  0  0  0  0
   21.7202  -19.3638  -15.0904 C   0  0  0  0  0  0  0  0  0  0  0  0
   19.7097  -20.3811  -14.3626 O   0  0  0  0  0  0  0  0  0  0  0  0
   20.2255  -21.4527  -14.7362 O   0  0  0  0  0  0  0  0  0  0  0  0
  2 12  2  0
  2  1  1  0
  3  2  1  0
  4  5  1  0
  4  3  2  0
  5 11  2  0
  6  5  1  0
  7  6  1  0
  7  8  1  6
  9 21  1  0
  9  7  1  0
 10  9  2  0
 11 12  1  0
 13 14  1  0
 14 15  2  0
 16 14  1  0
 16 17  1  0
 18 17  1  0
 19 18  1  0
 20 19  1  1
 20 21  1  0
 22 20  1  0
 22 28  1  0
 23 22  2  0
 25 24  1  6
 25 27  1  0
 26 25  1  0
 27 28  1  1
 27 29  1  0
 29 30  2  0
 29 31  1  0
M  END
$$$$
