YRT.pdb
     RDKit          3D

 31 31  0  0  1  0  0  0  0  0999 V2000
   28.8870  -11.1923  -16.8228 O   0  0  0  0  0  0  0  0  0  0  0  0
   27.9840  -12.2425  -16.6847 C   0  0  0  0  0  0  0  0  0  0  0  0
   27.0068  -12.4073  -17.6529 C   0  0  0  0  0  0  0  0  0  0  0  0
   26.0821  -13.4207  -17.5830 C   0  0  0  0  0  0  0  0  0  0  0  0
   26.1186  -14.3052  -16.5225 C   0  0  0  0  0  0  0  0  0  0  0  0
   25.1564  -15.4099  -16.3920 C   0  0  0  0  0  0  0  0  0  0  0  0
   25.7846  -16.7137  -16.8849 C   0  0  2  0  0  0  0  0  0  0  0  0
   26.0881  -16.6372  -18.2799 N   0  0  0  0  0  0  0  0  0  0  0  0
   24.8754  -17.8650  -16.5836 C   0  0  0  0  0  0  0  0  0  0  0  0
   23.8904  -18.1365  -17.3137 O   0  0  0  0  0  0  0  0  0  0  0  0
   27.1007  -14.1290  -15.5617 C   0  0  0  0  0  0  0  0  0  0  0  0
   28.0258  -13.1155  -15.6313 C   0  0  0  0  0  0  0  0  0  0  0  0
   26.7310  -21.2320  -10.3389 N   0  0  0  0  0  0  0  0  0  0  0  0
   25.4171  -21.0269   -9.8627 C   0  0  0  0  0  0  0  0  0  0  0  0
   25.2602  -20.6021   -8.6532 N   0  0  0  0  0  0  0  0  0  0  0  0
   24.2545  -21.2614  -10.6390 N   0  0  0  0  0  0  0  0  0  0  0  0
   24.3660  -21.6131  -12.0530 C   0  0  0  0  0  0  0  0  0  0  0  0
   24.8569  -20.4467  -12.8670 C   0  0  0  0  0  0  0  0  0  0  0  0
   24.9056  -20.8492  -14.3246 C   0  0  0  0  0  0  0  0  0  0  0  0
   24.2065  -19.8090  -15.1902 C   0  0  2  0  0  0  0  0  0  0  0  0
   25.0905  -18.7007  -15.4550 N   0  0  0  0  0  0  0  0  0  0  0  0
   22.9284  -19.3778  -14.5838 C   0  0  0  0  0  0  0  0  0  0  0  0
   22.8878  -18.8020  -13.4653 O   0  0  0  0  0  0  0  0  0  0  0  0
   24.3369  -20.3848   -8.2345 C   0  0  0  0  0  0  0  0  0  0  0  0
   19.1281  -19.6987  -16.7403 C   0  0  2  0  0  0  0  0  0  0  0  0
   19.5272  -18.6158  -15.7597 O   0  0  0  0  0  0  0  0  0  0  0  0
   18.3426  -18.2638  -15.0737 C   0  0  1  0  0  0  0  0  0  0  0  0
   20.4598  -19.1818  -14.7151 N   0  0  0  0  0  0  0  0  0  0  0  0
   21.7130  -19.6038  -15.2510 C   0  0  0  0  0  0  0  0  0  0  0  0
   19.7820  -20.3281  -14.0874 O   0  0  0  0  0  0  0  0  0  0  0  0
   20.2595  -21.4740  -14.2013 O   0  0  0  0  0  0  0  0  0  0  0  0
  2 12  2  0
  2  1  1  0
  3  2  1  0
  4  5  1  0
  4  3  2  0
  5 11  2  0
  6  5  1  0
  7  6  1  0
  7  8  1  6
  9 21  1  0
  9  7  1  0
 10  9  2  0
 11 12  1  0
 13 14  1  0
 14 15  2  0
 16 14  1  0
 16 17  1  0
 18 17  1  0
 19 18  1  0
 20 19  1  1
 20 21  1  0
 22 20  1  0
 22 28  1  0
 23 22  2  0
 25 24  1  6
 25 27  1  0
 26 25  1  0
 27 28  1  6
 27 29  1  0
 29 30  2  0
 29 31  1  0
M  END
$$$$
