YRT.pdb
     RDKit          3D

 31 31  0  0  1  0  0  0  0  0999 V2000
   18.3954   -7.4099  -19.2730 O   0  0  0  0  0  0  0  0  0  0  0  0
   17.8571   -8.6931  -19.3058 C   0  0  0  0  0  0  0  0  0  0  0  0
   18.5297   -9.7103  -18.6482 C   0  0  0  0  0  0  0  0  0  0  0  0
   18.0588  -11.0007  -18.6374 C   0  0  0  0  0  0  0  0  0  0  0  0
   16.8833  -11.3032  -19.2972 C   0  0  0  0  0  0  0  0  0  0  0  0
   16.3285  -12.6651  -19.3218 C   0  0  0  0  0  0  0  0  0  0  0  0
   17.1845  -13.5641  -20.2143 C   0  0  2  0  0  0  0  0  0  0  0  0
   17.1088  -13.1467  -21.5797 N   0  0  0  0  0  0  0  0  0  0  0  0
   16.7647  -14.9927  -20.0534 C   0  0  0  0  0  0  0  0  0  0  0  0
   15.9467  -15.5325  -20.8386 O   0  0  0  0  0  0  0  0  0  0  0  0
   16.2211  -10.2768  -19.9505 C   0  0  0  0  0  0  0  0  0  0  0  0
   16.6919   -8.9861  -19.9615 C   0  0  0  0  0  0  0  0  0  0  0  0
   21.1163  -22.0615  -18.6755 N   0  0  0  0  0  0  0  0  0  0  0  0
   20.4040  -21.5515  -19.7834 C   0  0  0  0  0  0  0  0  0  0  0  0
   20.7965  -21.8767  -20.9701 N   0  0  0  0  0  0  0  0  0  0  0  0
   19.2774  -20.6989  -19.6682 N   0  0  0  0  0  0  0  0  0  0  0  0
   18.6718  -20.4433  -18.3631 C   0  0  0  0  0  0  0  0  0  0  0  0
   17.4854  -19.5256  -18.4838 C   0  0  0  0  0  0  0  0  0  0  0  0
   17.9770  -18.1050  -18.6541 C   0  0  0  0  0  0  0  0  0  0  0  0
   16.8028  -17.1495  -18.8226 C   0  0  2  0  0  0  0  0  0  0  0  0
   17.2766  -15.7992  -19.0017 N   0  0  0  0  0  0  0  0  0  0  0  0
   15.8494  -17.2676  -17.6982 C   0  0  0  0  0  0  0  0  0  0  0  0
   16.1298  -16.8455  -16.5461 O   0  0  0  0  0  0  0  0  0  0  0  0
   20.3000  -21.5992  -21.8370 C   0  0  0  0  0  0  0  0  0  0  0  0
   11.9904  -16.3824  -17.7737 C   0  0  2  0  0  0  0  0  0  0  0  0
   12.2105  -17.8065  -17.3078 O   0  0  0  0  0  0  0  0  0  0  0  0
   12.0772  -18.6125  -18.4611 C   0  0  2  0  0  0  0  0  0  0  0  0
   13.6357  -17.9833  -16.8397 N   0  0  0  0  0  0  0  0  0  0  0  0
   14.5913  -17.8617  -17.8922 C   0  0  0  0  0  0  0  0  0  0  0  0
   13.7418  -19.3193  -16.2307 O   0  0  0  0  0  0  0  0  0  0  0  0
   14.5450  -20.1535  -16.6925 O   0  0  0  0  0  0  0  0  0  0  0  0
  2 12  2  0
  2  1  1  0
  3  2  1  0
  4  5  1  0
  4  3  2  0
  5 11  2  0
  6  5  1  0
  7  6  1  0
  7  8  1  6
  9 21  1  0
  9  7  1  0
 10  9  2  0
 11 12  1  0
 13 14  1  0
 14 15  2  0
 16 14  1  0
 16 17  1  0
 18 17  1  0
 19 18  1  0
 20 19  1  1
 20 21  1  0
 22 20  1  0
 22 28  1  0
 23 22  2  0
 25 24  1  1
 25 27  1  0
 26 25  1  0
 27 28  1  1
 27 29  1  0
 29 30  2  0
 29 31  1  0
M  END
$$$$
