YRT.pdb
     RDKit          3D

 31 31  0  0  1  0  0  0  0  0999 V2000
   29.8596  -14.6891  -20.3626 O   0  0  0  0  0  0  0  0  0  0  0  0
   28.8625  -15.4099  -19.7118 C   0  0  0  0  0  0  0  0  0  0  0  0
   29.2316  -16.3016  -18.7178 C   0  0  0  0  0  0  0  0  0  0  0  0
   28.3032  -17.0470  -18.0327 C   0  0  0  0  0  0  0  0  0  0  0  0
   26.9621  -16.9113  -18.3352 C   0  0  0  0  0  0  0  0  0  0  0  0
   25.9211  -17.6811  -17.6372 C   0  0  0  0  0  0  0  0  0  0  0  0
   26.4202  -19.0973  -17.3497 C   0  0  2  0  0  0  0  0  0  0  0  0
   26.6556  -19.8111  -18.5660 N   0  0  0  0  0  0  0  0  0  0  0  0
   25.4417  -19.8158  -16.4726 C   0  0  0  0  0  0  0  0  0  0  0  0
   24.5341  -20.5396  -16.9515 O   0  0  0  0  0  0  0  0  0  0  0  0
   26.6070  -16.0163  -19.3309 C   0  0  0  0  0  0  0  0  0  0  0  0
   27.5354  -15.2706  -20.0164 C   0  0  0  0  0  0  0  0  0  0  0  0
   26.1853  -19.6774   -8.8795 N   0  0  0  0  0  0  0  0  0  0  0  0
   25.3785  -20.7769   -9.2472 C   0  0  0  0  0  0  0  0  0  0  0  0
   24.3733  -21.0812   -8.4956 N   0  0  0  0  0  0  0  0  0  0  0  0
   25.6090  -21.5700  -10.3993 N   0  0  0  0  0  0  0  0  0  0  0  0
   26.7185  -21.2643  -11.2997 C   0  0  0  0  0  0  0  0  0  0  0  0
   26.2573  -21.2029  -12.7307 C   0  0  0  0  0  0  0  0  0  0  0  0
   24.9578  -20.4311  -12.7966 C   0  0  0  0  0  0  0  0  0  0  0  0
   24.4790  -20.3123  -14.2377 C   0  0  2  0  0  0  0  0  0  0  0  0
   25.5002  -19.7076  -15.0572 N   0  0  0  0  0  0  0  0  0  0  0  0
   23.1913  -19.5894  -14.3174 C   0  0  0  0  0  0  0  0  0  0  0  0
   23.1037  -18.3626  -14.0499 O   0  0  0  0  0  0  0  0  0  0  0  0
   23.7251  -21.8664   -8.6912 C   0  0  0  0  0  0  0  0  0  0  0  0
   20.9610  -18.5880  -16.9926 C   0  0  2  0  0  0  0  0  0  0  0  0
   20.1668  -19.5555  -16.1400 O   0  0  0  0  0  0  0  0  0  0  0  0
   20.3811  -20.8321  -16.7074 C   0  0  2  0  0  0  0  0  0  0  0  0
   20.7492  -19.6165  -14.7477 N   0  0  0  0  0  0  0  0  0  0  0  0
   22.0196  -20.2641  -14.6986 C   0  0  0  0  0  0  0  0  0  0  0  0
   19.7931  -20.3436  -13.8966 O   0  0  0  0  0  0  0  0  0  0  0  0
   20.1124  -21.4392  -13.3947 O   0  0  0  0  0  0  0  0  0  0  0  0
  2 12  2  0
  2  1  1  0
  3  2  1  0
  4  5  1  0
  4  3  2  0
  5 11  2  0
  6  5  1  0
  7  6  1  0
  7  8  1  6
  9 21  1  0
  9  7  1  0
 10  9  2  0
 11 12  1  0
 13 14  1  0
 14 15  2  0
 16 14  1  0
 16 17  1  0
 18 17  1  0
 19 18  1  0
 20 19  1  1
 20 21  1  0
 22 20  1  0
 22 28  1  0
 23 22  2  0
 25 24  1  6
 25 27  1  0
 26 25  1  0
 27 28  1  1
 27 29  1  0
 29 30  2  0
 29 31  1  0
M  END
$$$$
