YRT.pdb
     RDKit          3D

 31 31  0  0  1  0  0  0  0  0999 V2000
   29.6298  -20.2020   -6.4438 O   0  0  0  0  0  0  0  0  0  0  0  0
   28.8459  -20.2114   -7.5939 C   0  0  0  0  0  0  0  0  0  0  0  0
   29.4581  -20.4652   -8.8105 C   0  0  0  0  0  0  0  0  0  0  0  0
   28.7488  -20.4904   -9.9867 C   0  0  0  0  0  0  0  0  0  0  0  0
   27.3872  -20.2575   -9.9669 C   0  0  0  0  0  0  0  0  0  0  0  0
   26.5736  -20.2711  -11.1921 C   0  0  0  0  0  0  0  0  0  0  0  0
   25.8544  -21.6132  -11.3292 C   0  0  2  0  0  0  0  0  0  0  0  0
   26.7198  -22.5991  -11.8979 N   0  0  0  0  0  0  0  0  0  0  0  0
   24.6073  -21.4441  -12.1412 C   0  0  0  0  0  0  0  0  0  0  0  0
   24.5864  -21.6778  -13.3748 O   0  0  0  0  0  0  0  0  0  0  0  0
   26.7879  -20.0051   -8.7438 C   0  0  0  0  0  0  0  0  0  0  0  0
   27.4971  -19.9799   -7.5673 C   0  0  0  0  0  0  0  0  0  0  0  0
   18.9831  -24.2845   -9.1618 N   0  0  0  0  0  0  0  0  0  0  0  0
   18.1844  -24.3264  -10.3260 C   0  0  0  0  0  0  0  0  0  0  0  0
   17.6653  -25.4560  -10.6761 N   0  0  0  0  0  0  0  0  0  0  0  0
   17.9178  -23.1946  -11.1369 N   0  0  0  0  0  0  0  0  0  0  0  0
   18.6313  -21.9389  -10.9145 C   0  0  0  0  0  0  0  0  0  0  0  0
   19.7162  -21.7405  -11.9381 C   0  0  0  0  0  0  0  0  0  0  0  0
   21.0262  -21.4883  -11.2247 C   0  0  0  0  0  0  0  0  0  0  0  0
   22.1366  -21.2078  -12.2289 C   0  0  2  0  0  0  0  0  0  0  0  0
   23.3919  -21.0106  -11.5468 N   0  0  0  0  0  0  0  0  0  0  0  0
   21.7891  -20.0714  -13.1094 C   0  0  0  0  0  0  0  0  0  0  0  0
   21.4639  -18.9485  -12.6428 O   0  0  0  0  0  0  0  0  0  0  0  0
   17.0327  -25.5715  -11.4893 C   0  0  0  0  0  0  0  0  0  0  0  0
   23.6823  -18.7685  -16.4054 C   0  0  2  0  0  0  0  0  0  0  0  0
   22.2470  -19.1676  -16.6779 O   0  0  0  0  0  0  0  0  0  0  0  0
   22.2969  -20.5166  -17.0969 C   0  0  2  0  0  0  0  0  0  0  0  0
   21.4551  -19.1610  -15.3918 N   0  0  0  0  0  0  0  0  0  0  0  0
   21.8143  -20.2204  -14.5060 C   0  0  0  0  0  0  0  0  0  0  0  0
   20.0307  -19.2771  -15.7453 O   0  0  0  0  0  0  0  0  0  0  0  0
   19.3636  -20.2479  -15.3372 O   0  0  0  0  0  0  0  0  0  0  0  0
  2 12  2  0
  2  1  1  0
  3  2  1  0
  4  5  1  0
  4  3  2  0
  5 11  2  0
  6  5  1  0
  7  6  1  0
  7  8  1  6
  9 21  1  0
  9  7  1  0
 10  9  2  0
 11 12  1  0
 13 14  1  0
 14 15  2  0
 16 14  1  0
 16 17  1  0
 18 17  1  0
 19 18  1  0
 20 19  1  1
 20 21  1  0
 22 20  1  0
 22 28  1  0
 23 22  2  0
 25 24  1  6
 25 27  1  0
 26 25  1  0
 27 28  1  6
 27 29  1  0
 29 30  2  0
 29 31  1  0
M  END
$$$$
