GLT.pdb
     RDKit          3D

 20 19  0  0  1  0  0  0  0  0999 V2000
   17.0540  -11.6975  -12.4995 N   0  0  0  0  0  0  0  0  0  0  0  0
   15.6213  -11.7075  -12.3781 C   0  0  0  0  0  0  0  0  0  0  0  0
   15.1329  -10.4138  -11.8282 C   0  0  0  0  0  0  0  0  0  0  0  0
   14.8323   -9.5215  -12.6582 O   0  0  0  0  0  0  0  0  0  0  0  0
   11.5772  -10.1276   -7.5063 C   0  0  0  0  0  0  0  0  0  0  0  0
   12.3305   -9.9086   -8.7761 C   0  0  1  0  0  0  0  0  0  0  0  0
   11.4463   -8.9865   -9.6357 C   0  0  0  0  0  0  0  0  0  0  0  0
   13.6336   -9.2303   -8.6474 C   0  0  0  0  0  0  0  0  0  0  0  0
   14.3852   -8.9495   -9.9073 C   0  0  2  0  0  0  0  0  0  0  0  0
   14.9952  -10.1487  -10.4619 N   0  0  0  0  0  0  0  0  0  0  0  0
   15.4744   -7.9434   -9.6826 C   0  0  0  0  0  0  0  0  0  0  0  0
   16.4793   -8.2273   -8.9799 O   0  0  0  0  0  0  0  0  0  0  0  0
   18.0937   -6.3811  -11.8850 C   0  0  0  0  0  0  0  0  0  0  0  0
   17.2064   -5.3182  -11.3108 C   0  0  1  0  0  0  0  0  0  0  0  0
   16.2561   -4.8670  -12.2254 O   0  0  0  0  0  0  0  0  0  0  0  0
   16.5398   -5.7364  -10.0241 C   0  0  2  0  0  0  0  0  0  0  0  0
   15.4342   -6.6405  -10.2389 N   0  0  0  0  0  0  0  0  0  0  0  0
   16.0172   -4.5102   -9.3854 C   0  0  0  0  0  0  0  0  0  0  0  0
   16.9051   -3.6325   -8.7931 O   0  0  0  0  0  0  0  0  0  0  0  0
   14.7959   -4.2195   -9.3515 O   0  0  0  0  0  0  0  0  0  0  0  0
  2  1  1  0
  3  2  1  0
  3 10  1  0
  4  3  2  0
  6  5  1  1
  6  7  1  0
  8  6  1  0
  9 10  1  0
  9  8  1  1
 11  9  1  0
 12 11  2  0
 14 13  1  6
 14 16  1  0
 15 14  1  0
 16 17  1  6
 16 18  1  0
 17 11  1  0
 18 19  1  0
 20 18  2  0
M  END
$$$$
