GLT.pdb
     RDKit          3D

 20 19  0  0  1  0  0  0  0  0999 V2000
   18.9817  -10.1929  -20.4662 N   0  0  0  0  0  0  0  0  0  0  0  0
   19.6060   -8.9654  -20.0527 C   0  0  0  0  0  0  0  0  0  0  0  0
   19.9534   -9.0154  -18.6065 C   0  0  0  0  0  0  0  0  0  0  0  0
   19.0008   -8.9544  -17.7915 O   0  0  0  0  0  0  0  0  0  0  0  0
   22.3116  -10.4314  -13.9349 C   0  0  0  0  0  0  0  0  0  0  0  0
   23.2569  -10.0104  -15.0106 C   0  0  1  0  0  0  0  0  0  0  0  0
   24.4141  -11.0255  -14.9741 C   0  0  0  0  0  0  0  0  0  0  0  0
   22.7261  -10.0369  -16.3862 C   0  0  0  0  0  0  0  0  0  0  0  0
   21.6290   -9.0778  -16.7139 C   0  0  2  0  0  0  0  0  0  0  0  0
   21.2605   -9.1248  -18.1210 N   0  0  0  0  0  0  0  0  0  0  0  0
   22.0200   -7.6668  -16.3897 C   0  0  0  0  0  0  0  0  0  0  0  0
   22.9273   -7.0839  -17.0387 O   0  0  0  0  0  0  0  0  0  0  0  0
   19.4524   -4.8697  -14.9383 C   0  0  0  0  0  0  0  0  0  0  0  0
   20.8306   -4.5349  -15.4235 C   0  0  1  0  0  0  0  0  0  0  0  0
   21.2541   -3.2773  -14.9967 O   0  0  0  0  0  0  0  0  0  0  0  0
   21.8541   -5.5833  -15.0652 C   0  0  2  0  0  0  0  0  0  0  0  0
   21.4011   -6.9240  -15.3533 N   0  0  0  0  0  0  0  0  0  0  0  0
   22.0942   -5.4788  -13.6106 C   0  0  0  0  0  0  0  0  0  0  0  0
   22.6969   -4.3401  -13.1109 O   0  0  0  0  0  0  0  0  0  0  0  0
   21.7767   -6.3792  -12.7948 O   0  0  0  0  0  0  0  0  0  0  0  0
  2  1  1  0
  3  2  1  0
  3 10  1  0
  4  3  2  0
  6  5  1  1
  6  7  1  0
  8  6  1  0
  9 10  1  0
  9  8  1  6
 11  9  1  0
 12 11  2  0
 14 13  1  1
 14 16  1  0
 15 14  1  0
 16 17  1  1
 16 18  1  0
 17 11  1  0
 18 19  1  0
 20 18  2  0
M  END
$$$$
