GLT.pdb
     RDKit          3D

 20 19  0  0  1  0  0  0  0  0999 V2000
   27.7889  -26.0435  -17.2081 N   0  0  0  0  0  0  0  0  0  0  0  0
   28.1382  -27.0483  -16.2406 C   0  0  0  0  0  0  0  0  0  0  0  0
   27.5725  -28.3688  -16.6289 C   0  0  0  0  0  0  0  0  0  0  0  0
   26.7638  -28.3798  -17.5888 O   0  0  0  0  0  0  0  0  0  0  0  0
   30.7541  -32.9698  -16.6727 C   0  0  0  0  0  0  0  0  0  0  0  0
   29.7453  -31.9144  -16.9832 C   0  0  1  0  0  0  0  0  0  0  0  0
   29.3017  -32.1713  -18.4350 C   0  0  0  0  0  0  0  0  0  0  0  0
   28.5179  -31.9312  -16.1660 C   0  0  0  0  0  0  0  0  0  0  0  0
   27.4877  -30.8901  -16.4588 C   0  0  2  0  0  0  0  0  0  0  0  0
   27.8903  -29.5722  -15.9911 N   0  0  0  0  0  0  0  0  0  0  0  0
   26.1744  -31.2229  -15.8158 C   0  0  0  0  0  0  0  0  0  0  0  0
   26.0734  -31.3115  -14.5643 O   0  0  0  0  0  0  0  0  0  0  0  0
   22.6962  -29.3722  -15.9113 C   0  0  0  0  0  0  0  0  0  0  0  0
   22.6359  -30.7790  -16.4254 C   0  0  1  0  0  0  0  0  0  0  0  0
   22.6107  -30.8360  -17.8179 O   0  0  0  0  0  0  0  0  0  0  0  0
   23.7387  -31.6538  -15.8838 C   0  0  2  0  0  0  0  0  0  0  0  0
   24.9949  -31.4522  -16.5674 N   0  0  0  0  0  0  0  0  0  0  0  0
   23.3215  -33.0571  -16.0872 C   0  0  0  0  0  0  0  0  0  0  0  0
   22.2077  -33.5286  -15.4190 O   0  0  0  0  0  0  0  0  0  0  0  0
   23.9314  -33.8532  -16.8431 O   0  0  0  0  0  0  0  0  0  0  0  0
  2  1  1  0
  3  2  1  0
  3 10  1  0
  4  3  2  0
  6  5  1  1
  6  7  1  0
  8  6  1  0
  9 10  1  0
  9  8  1  1
 11  9  1  0
 12 11  2  0
 14 13  1  6
 14 16  1  0
 15 14  1  0
 16 17  1  6
 16 18  1  0
 17 11  1  0
 18 19  1  0
 20 18  2  0
M  END
$$$$
