GLT.pdb
     RDKit          3D

 20 19  0  0  1  0  0  0  0  0999 V2000
   19.0867  -12.7303  -18.3184 N   0  0  0  0  0  0  0  0  0  0  0  0
   19.2468  -11.3109  -18.4835 C   0  0  0  0  0  0  0  0  0  0  0  0
   19.9011  -10.7147  -17.2873 C   0  0  0  0  0  0  0  0  0  0  0  0
   19.1852  -10.5560  -16.2686 O   0  0  0  0  0  0  0  0  0  0  0  0
   24.8543  -12.1239  -15.2887 C   0  0  0  0  0  0  0  0  0  0  0  0
   23.4517  -11.6318  -15.4234 C   0  0  1  0  0  0  0  0  0  0  0  0
   22.8571  -11.6633  -14.0034 C   0  0  0  0  0  0  0  0  0  0  0  0
   23.2945  -10.2478  -15.9075 C   0  0  0  0  0  0  0  0  0  0  0  0
   21.9010   -9.7402  -16.0857 C   0  0  2  0  0  0  0  0  0  0  0  0
   21.2452  -10.3306  -17.2428 N   0  0  0  0  0  0  0  0  0  0  0  0
   21.8783   -8.2506  -16.2568 C   0  0  0  0  0  0  0  0  0  0  0  0
   22.4947   -7.7013  -17.2068 O   0  0  0  0  0  0  0  0  0  0  0  0
   19.2446   -5.7929  -17.2281 C   0  0  0  0  0  0  0  0  0  0  0  0
   19.7727   -5.4371  -15.8710 C   0  0  1  0  0  0  0  0  0  0  0  0
   18.9107   -5.8242  -14.8463 O   0  0  0  0  0  0  0  0  0  0  0  0
   21.1610   -5.9699  -15.6188 C   0  0  2  0  0  0  0  0  0  0  0  0
   21.1745   -7.3933  -15.3745 N   0  0  0  0  0  0  0  0  0  0  0  0
   21.6769   -5.2887  -14.4129 C   0  0  0  0  0  0  0  0  0  0  0  0
   21.8728   -3.9213  -14.4478 O   0  0  0  0  0  0  0  0  0  0  0  0
   21.9499   -5.8923  -13.3460 O   0  0  0  0  0  0  0  0  0  0  0  0
  2  1  1  0
  3  2  1  0
  3 10  1  0
  4  3  2  0
  6  5  1  1
  6  7  1  0
  8  6  1  0
  9 10  1  0
  9  8  1  6
 11  9  1  0
 12 11  2  0
 14 13  1  6
 14 16  1  0
 15 14  1  0
 16 17  1  1
 16 18  1  0
 17 11  1  0
 18 19  1  0
 20 18  2  0
M  END
$$$$
