GLT.pdb
     RDKit          3D

 20 19  0  0  1  0  0  0  0  0999 V2000
   21.5279  -21.4311   -7.0299 N   0  0  0  0  0  0  0  0  0  0  0  0
   22.6971  -22.1601   -7.4410 C   0  0  0  0  0  0  0  0  0  0  0  0
   23.6105  -21.2861   -8.2260 C   0  0  0  0  0  0  0  0  0  0  0  0
   23.0798  -20.5200   -9.0667 O   0  0  0  0  0  0  0  0  0  0  0  0
   28.5506  -19.7934   -6.1003 C   0  0  0  0  0  0  0  0  0  0  0  0
   27.2254  -19.8343   -6.7860 C   0  0  1  0  0  0  0  0  0  0  0  0
   26.7159  -18.3814   -6.8028 C   0  0  0  0  0  0  0  0  0  0  0  0
   27.2361  -20.2856   -8.1898 C   0  0  0  0  0  0  0  0  0  0  0  0
   25.9136  -20.4588   -8.8621 C   0  0  2  0  0  0  0  0  0  0  0  0
   25.0011  -21.2763   -8.0768 N   0  0  0  0  0  0  0  0  0  0  0  0
   26.0634  -21.1034  -10.2078 C   0  0  0  0  0  0  0  0  0  0  0  0
   26.3923  -22.3141  -10.3097 O   0  0  0  0  0  0  0  0  0  0  0  0
   23.4724  -21.8113  -12.9661 C   0  0  0  0  0  0  0  0  0  0  0  0
   24.5866  -20.9374  -13.4577 C   0  0  1  0  0  0  0  0  0  0  0  0
   24.2261  -19.5918  -13.5054 O   0  0  0  0  0  0  0  0  0  0  0  0
   25.8637  -21.1114  -12.6742 C   0  0  2  0  0  0  0  0  0  0  0  0
   25.8471  -20.3986  -11.4183 N   0  0  0  0  0  0  0  0  0  0  0  0
   26.9603  -20.5657  -13.5013 C   0  0  0  0  0  0  0  0  0  0  0  0
   27.2789  -21.1934  -14.6905 O   0  0  0  0  0  0  0  0  0  0  0  0
   27.6258  -19.5510  -13.1782 O   0  0  0  0  0  0  0  0  0  0  0  0
  2  1  1  0
  3  2  1  0
  3 10  1  0
  4  3  2  0
  6  5  1  6
  6  7  1  0
  8  6  1  0
  9 10  1  0
  9  8  1  1
 11  9  1  0
 12 11  2  0
 14 13  1  1
 14 16  1  0
 15 14  1  0
 16 17  1  1
 16 18  1  0
 17 11  1  0
 18 19  1  0
 20 18  2  0
M  END
$$$$
