GLT.pdb
     RDKit          3D

 20 19  0  0  1  0  0  0  0  0999 V2000
   18.6767  -11.0932  -18.2438 N   0  0  0  0  0  0  0  0  0  0  0  0
   18.9469   -9.6810  -18.2640 C   0  0  0  0  0  0  0  0  0  0  0  0
   19.7104   -9.2761  -17.0526 C   0  0  0  0  0  0  0  0  0  0  0  0
   19.0434   -9.0194  -16.0208 O   0  0  0  0  0  0  0  0  0  0  0  0
   24.4304  -11.7245  -15.4639 C   0  0  0  0  0  0  0  0  0  0  0  0
   23.1266  -10.9989  -15.4244 C   0  0  1  0  0  0  0  0  0  0  0  0
   22.6422  -11.0845  -13.9654 C   0  0  0  0  0  0  0  0  0  0  0  0
   23.1733   -9.5641  -15.7616 C   0  0  0  0  0  0  0  0  0  0  0  0
   21.8722   -8.8327  -15.8185 C   0  0  2  0  0  0  0  0  0  0  0  0
   21.1042   -9.1698  -17.0077 N   0  0  0  0  0  0  0  0  0  0  0  0
   22.0781   -7.3473  -15.8120 C   0  0  0  0  0  0  0  0  0  0  0  0
   22.7909   -6.7913  -16.6877 O   0  0  0  0  0  0  0  0  0  0  0  0
   19.8007   -4.4903  -16.4813 C   0  0  0  0  0  0  0  0  0  0  0  0
   20.3818   -4.3264  -15.1093 C   0  0  1  0  0  0  0  0  0  0  0  0
   19.4783   -4.6681  -14.1044 O   0  0  0  0  0  0  0  0  0  0  0  0
   21.6797   -5.0722  -14.9243 C   0  0  2  0  0  0  0  0  0  0  0  0
   21.4923   -6.5015  -14.8371 N   0  0  0  0  0  0  0  0  0  0  0  0
   22.2734   -4.6053  -13.6538 C   0  0  0  0  0  0  0  0  0  0  0  0
   22.4224   -5.5030  -12.6139 O   0  0  0  0  0  0  0  0  0  0  0  0
   22.6541   -3.4234  -13.4660 O   0  0  0  0  0  0  0  0  0  0  0  0
  2  1  1  0
  3  2  1  0
  3 10  1  0
  4  3  2  0
  6  5  1  1
  6  7  1  0
  8  6  1  0
  9 10  1  0
  9  8  1  6
 11  9  1  0
 12 11  2  0
 14 13  1  6
 14 16  1  0
 15 14  1  0
 16 17  1  1
 16 18  1  0
 17 11  1  0
 18 19  1  0
 20 18  2  0
M  END
$$$$
