GLT.pdb
     RDKit          3D

 20 19  0  0  1  0  0  0  0  0999 V2000
   21.1634  -20.6174   -8.8557 N   0  0  0  0  0  0  0  0  0  0  0  0
   22.3449  -21.2424   -8.3258 C   0  0  0  0  0  0  0  0  0  0  0  0
   23.5633  -20.7147   -8.9977 C   0  0  0  0  0  0  0  0  0  0  0  0
   23.3867  -20.0056  -10.0182 O   0  0  0  0  0  0  0  0  0  0  0  0
   28.2187  -20.1770   -5.9454 C   0  0  0  0  0  0  0  0  0  0  0  0
   27.0703  -19.9677   -6.8755 C   0  0  1  0  0  0  0  0  0  0  0  0
   26.9044  -18.4422   -7.0018 C   0  0  0  0  0  0  0  0  0  0  0  0
   27.2461  -20.4800   -8.2472 C   0  0  0  0  0  0  0  0  0  0  0  0
   26.0673  -20.4040   -9.1613 C   0  0  2  0  0  0  0  0  0  0  0  0
   24.8673  -20.9642   -8.5580 N   0  0  0  0  0  0  0  0  0  0  0  0
   26.3207  -21.1383  -10.4441 C   0  0  0  0  0  0  0  0  0  0  0  0
   26.5981  -22.3660  -10.4402 O   0  0  0  0  0  0  0  0  0  0  0  0
   23.9763  -21.4639  -13.6672 C   0  0  0  0  0  0  0  0  0  0  0  0
   25.3388  -20.9068  -13.9503 C   0  0  1  0  0  0  0  0  0  0  0  0
   25.3228  -19.5238  -14.1230 O   0  0  0  0  0  0  0  0  0  0  0  0
   26.3630  -21.2947  -12.9132 C   0  0  2  0  0  0  0  0  0  0  0  0
   26.2632  -20.5028  -11.7096 N   0  0  0  0  0  0  0  0  0  0  0  0
   27.6957  -21.0643  -13.5093 C   0  0  0  0  0  0  0  0  0  0  0  0
   28.1046  -21.8584  -14.5637 O   0  0  0  0  0  0  0  0  0  0  0  0
   28.4856  -20.1757  -13.1048 O   0  0  0  0  0  0  0  0  0  0  0  0
  2  1  1  0
  3  2  1  0
  3 10  1  0
  4  3  2  0
  6  5  1  1
  6  7  1  0
  8  6  1  0
  9 10  1  0
  9  8  1  1
 11  9  1  0
 12 11  2  0
 14 13  1  1
 14 16  1  0
 15 14  1  0
 16 17  1  1
 16 18  1  0
 17 11  1  0
 18 19  1  0
 20 18  2  0
M  END
$$$$
