GLT.pdb
     RDKit          3D

 20 19  0  0  1  0  0  0  0  0999 V2000
   17.0012  -10.5511  -18.5129 N   0  0  0  0  0  0  0  0  0  0  0  0
   17.7336   -9.3138  -18.5201 C   0  0  0  0  0  0  0  0  0  0  0  0
   18.5089   -9.1564  -17.2597 C   0  0  0  0  0  0  0  0  0  0  0  0
   17.8496   -8.9901  -16.2047 O   0  0  0  0  0  0  0  0  0  0  0  0
   22.1132   -9.8581  -13.3228 C   0  0  0  0  0  0  0  0  0  0  0  0
   22.7115   -9.6908  -14.6800 C   0  0  1  0  0  0  0  0  0  0  0  0
   23.8028  -10.7709  -14.7942 C   0  0  0  0  0  0  0  0  0  0  0  0
   21.8000   -9.9010  -15.8200 C   0  0  0  0  0  0  0  0  0  0  0  0
   20.6845   -8.9228  -15.9925 C   0  0  2  0  0  0  0  0  0  0  0  0
   19.9057   -9.1840  -17.1938 N   0  0  0  0  0  0  0  0  0  0  0  0
   21.1975   -7.5161  -16.0761 C   0  0  0  0  0  0  0  0  0  0  0  0
   21.9267   -7.1517  -17.0351 O   0  0  0  0  0  0  0  0  0  0  0  0
   19.5044   -4.1641  -16.6122 C   0  0  0  0  0  0  0  0  0  0  0  0
   20.2416   -4.1766  -15.3071 C   0  0  1  0  0  0  0  0  0  0  0  0
   19.3919   -4.3617  -14.2177 O   0  0  0  0  0  0  0  0  0  0  0  0
   21.3658   -5.1817  -15.2730 C   0  0  2  0  0  0  0  0  0  0  0  0
   20.8957   -6.5360  -15.0978 N   0  0  0  0  0  0  0  0  0  0  0  0
   22.2237   -4.8371  -14.1198 C   0  0  0  0  0  0  0  0  0  0  0  0
   22.9674   -3.6732  -14.1620 O   0  0  0  0  0  0  0  0  0  0  0  0
   22.3145   -5.5530  -13.0920 O   0  0  0  0  0  0  0  0  0  0  0  0
  2  1  1  0
  3  2  1  0
  3 10  1  0
  4  3  2  0
  6  5  1  1
  6  7  1  0
  8  6  1  0
  9 10  1  0
  9  8  1  6
 11  9  1  0
 12 11  2  0
 14 13  1  6
 14 16  1  0
 15 14  1  0
 16 17  1  1
 16 18  1  0
 17 11  1  0
 18 19  1  0
 20 18  2  0
M  END
$$$$
