GLT.pdb
     RDKit          3D

 20 19  0  0  1  0  0  0  0  0999 V2000
   28.3069  -22.9300  -16.3100 N   0  0  0  0  0  0  0  0  0  0  0  0
   28.2815  -21.7486  -15.4908 C   0  0  0  0  0  0  0  0  0  0  0  0
   27.1706  -21.8195  -14.5032 C   0  0  0  0  0  0  0  0  0  0  0  0
   26.1998  -22.5604  -14.7931 O   0  0  0  0  0  0  0  0  0  0  0  0
   24.7852  -21.7255   -9.5174 C   0  0  0  0  0  0  0  0  0  0  0  0
   25.3984  -20.4496   -9.9903 C   0  0  1  0  0  0  0  0  0  0  0  0
   26.0673  -19.8212   -8.7540 C   0  0  0  0  0  0  0  0  0  0  0  0
   26.4541  -20.5779  -11.0120 C   0  0  0  0  0  0  0  0  0  0  0  0
   26.0552  -21.1305  -12.3411 C   0  0  2  0  0  0  0  0  0  0  0  0
   27.1549  -21.1167  -13.2941 N   0  0  0  0  0  0  0  0  0  0  0  0
   24.9208  -20.3532  -12.9394 C   0  0  0  0  0  0  0  0  0  0  0  0
   25.0490  -19.1308  -13.2105 O   0  0  0  0  0  0  0  0  0  0  0  0
   23.5779  -19.8885  -16.1144 C   0  0  0  0  0  0  0  0  0  0  0  0
   22.4365  -20.3966  -15.2862 C   0  0  1  0  0  0  0  0  0  0  0  0
   22.1741  -21.7466  -15.5130 O   0  0  0  0  0  0  0  0  0  0  0  0
   22.6152  -20.1369  -13.8112 C   0  0  2  0  0  0  0  0  0  0  0  0
   23.6637  -20.9408  -13.2280 N   0  0  0  0  0  0  0  0  0  0  0  0
   21.3411  -20.4878  -13.1494 C   0  0  0  0  0  0  0  0  0  0  0  0
   20.2043  -19.7653  -13.4581 O   0  0  0  0  0  0  0  0  0  0  0  0
   21.2344  -21.4176  -12.3120 O   0  0  0  0  0  0  0  0  0  0  0  0
  2  1  1  0
  3  2  1  0
  3 10  1  0
  4  3  2  0
  6  5  1  1
  6  7  1  0
  8  6  1  0
  9 10  1  0
  9  8  1  1
 11  9  1  0
 12 11  2  0
 14 13  1  6
 14 16  1  0
 15 14  1  0
 16 17  1  1
 16 18  1  0
 17 11  1  0
 18 19  1  0
 20 18  2  0
M  END
$$$$
