GLT.pdb
     RDKit          3D

 20 19  0  0  1  0  0  0  0  0999 V2000
   21.3079  -12.3824  -18.3927 N   0  0  0  0  0  0  0  0  0  0  0  0
   20.8467  -11.0210  -18.3569 C   0  0  0  0  0  0  0  0  0  0  0  0
   21.4584  -10.2903  -17.2139 C   0  0  0  0  0  0  0  0  0  0  0  0
   20.7960  -10.2461  -16.1487 O   0  0  0  0  0  0  0  0  0  0  0  0
   26.8194  -10.7649  -15.9463 C   0  0  0  0  0  0  0  0  0  0  0  0
   25.3364  -10.5967  -15.9507 C   0  0  1  0  0  0  0  0  0  0  0  0
   24.8603  -11.0281  -14.5514 C   0  0  0  0  0  0  0  0  0  0  0  0
   24.8409   -9.2223  -16.1512 C   0  0  0  0  0  0  0  0  0  0  0  0
   23.3611   -9.0204  -16.1367 C   0  0  2  0  0  0  0  0  0  0  0  0
   22.7078   -9.6640  -17.2666 N   0  0  0  0  0  0  0  0  0  0  0  0
   23.0066   -7.5637  -16.1715 C   0  0  0  0  0  0  0  0  0  0  0  0
   23.3077   -6.8505  -17.1639 O   0  0  0  0  0  0  0  0  0  0  0  0
   19.9801   -5.6942  -16.7264 C   0  0  0  0  0  0  0  0  0  0  0  0
   20.4961   -5.3009  -15.3751 C   0  0  1  0  0  0  0  0  0  0  0  0
   19.8029   -5.9242  -14.3388 O   0  0  0  0  0  0  0  0  0  0  0  0
   21.9802   -5.5223  -15.2219 C   0  0  2  0  0  0  0  0  0  0  0  0
   22.3252   -6.9201  -15.1084 N   0  0  0  0  0  0  0  0  0  0  0  0
   22.3964   -4.8407  -13.9782 C   0  0  0  0  0  0  0  0  0  0  0  0
   22.3730   -3.4599  -13.9307 O   0  0  0  0  0  0  0  0  0  0  0  0
   22.7744   -5.4556  -12.9506 O   0  0  0  0  0  0  0  0  0  0  0  0
  2  1  1  0
  3  2  1  0
  3 10  1  0
  4  3  2  0
  6  5  1  1
  6  7  1  0
  8  6  1  0
  9 10  1  0
  9  8  1  6
 11  9  1  0
 12 11  2  0
 14 13  1  6
 14 16  1  0
 15 14  1  0
 16 17  1  1
 16 18  1  0
 17 11  1  0
 18 19  1  0
 20 18  2  0
M  END
$$$$
