GLT.pdb
     RDKit          3D

 20 19  0  0  1  0  0  0  0  0999 V2000
   20.4337  -22.2062   -6.9040 N   0  0  0  0  0  0  0  0  0  0  0  0
   21.6354  -22.7352   -7.4902 C   0  0  0  0  0  0  0  0  0  0  0  0
   22.5027  -21.6346   -7.9911 C   0  0  0  0  0  0  0  0  0  0  0  0
   21.9277  -20.6666   -8.5459 O   0  0  0  0  0  0  0  0  0  0  0  0
   26.6795  -18.2706   -7.7993 C   0  0  0  0  0  0  0  0  0  0  0  0
   27.0556  -19.6001   -8.3638 C   0  0  1  0  0  0  0  0  0  0  0  0
   28.4340  -19.9360   -7.7656 C   0  0  0  0  0  0  0  0  0  0  0  0
   26.1682  -20.7256   -8.0167 C   0  0  0  0  0  0  0  0  0  0  0  0
   24.7788  -20.6944   -8.5642 C   0  0  2  0  0  0  0  0  0  0  0  0
   23.8966  -21.6255   -7.8769 N   0  0  0  0  0  0  0  0  0  0  0  0
   24.7576  -21.0362  -10.0243 C   0  0  0  0  0  0  0  0  0  0  0  0
   25.2281  -22.1279  -10.4378 O   0  0  0  0  0  0  0  0  0  0  0  0
   21.9217  -21.8091  -12.4206 C   0  0  0  0  0  0  0  0  0  0  0  0
   22.7004  -20.6148  -12.8834 C   0  0  1  0  0  0  0  0  0  0  0  0
   22.0645  -19.4131  -12.5758 O   0  0  0  0  0  0  0  0  0  0  0  0
   24.1206  -20.6024  -12.3756 C   0  0  2  0  0  0  0  0  0  0  0  0
   24.2165  -20.1650  -11.0026 N   0  0  0  0  0  0  0  0  0  0  0  0
   24.8763  -19.6514  -13.2178 C   0  0  0  0  0  0  0  0  0  0  0  0
   25.0202  -19.9181  -14.5660 O   0  0  0  0  0  0  0  0  0  0  0  0
   25.4006  -18.6021  -12.7693 O   0  0  0  0  0  0  0  0  0  0  0  0
  2  1  1  0
  3  2  1  0
  3 10  1  0
  4  3  2  0
  6  5  1  1
  6  7  1  0
  8  6  1  0
  9 10  1  0
  9  8  1  1
 11  9  1  0
 12 11  2  0
 14 13  1  1
 14 16  1  0
 15 14  1  0
 16 17  1  1
 16 18  1  0
 17 11  1  0
 18 19  1  0
 20 18  2  0
M  END
$$$$
