GLT.pdb
     RDKit          3D

 20 19  0  0  1  0  0  0  0  0999 V2000
   21.5415  -20.5866  -14.1194 N   0  0  0  0  0  0  0  0  0  0  0  0
   21.0694  -19.2302  -14.0503 C   0  0  0  0  0  0  0  0  0  0  0  0
   21.6065  -18.4300  -15.1842 C   0  0  0  0  0  0  0  0  0  0  0  0
   22.6147  -18.8882  -15.7750 O   0  0  0  0  0  0  0  0  0  0  0  0
   19.6321  -17.7386  -18.8897 C   0  0  0  0  0  0  0  0  0  0  0  0
   20.1043  -16.3236  -18.8395 C   0  0  1  0  0  0  0  0  0  0  0  0
   18.9396  -15.4725  -19.3778 C   0  0  0  0  0  0  0  0  0  0  0  0
   20.4201  -15.7934  -17.5002 C   0  0  0  0  0  0  0  0  0  0  0  0
   21.5351  -16.4473  -16.7517 C   0  0  2  0  0  0  0  0  0  0  0  0
   21.0553  -17.2189  -15.6150 N   0  0  0  0  0  0  0  0  0  0  0  0
   22.5167  -15.4368  -16.2379 C   0  0  0  0  0  0  0  0  0  0  0  0
   22.2237  -14.6876  -15.2698 O   0  0  0  0  0  0  0  0  0  0  0  0
   26.0447  -15.6869  -14.6399 C   0  0  0  0  0  0  0  0  0  0  0  0
   26.0589  -14.8802  -15.9033 C   0  0  1  0  0  0  0  0  0  0  0  0
   26.5660  -15.5964  -16.9863 O   0  0  0  0  0  0  0  0  0  0  0  0
   24.7117  -14.2945  -16.2455 C   0  0  2  0  0  0  0  0  0  0  0  0
   23.8059  -15.2715  -16.8030 N   0  0  0  0  0  0  0  0  0  0  0  0
   24.9385  -13.2428  -17.2589 C   0  0  0  0  0  0  0  0  0  0  0  0
   25.6589  -12.1173  -16.9071 O   0  0  0  0  0  0  0  0  0  0  0  0
   24.5070  -13.3175  -18.4359 O   0  0  0  0  0  0  0  0  0  0  0  0
  2  1  1  0
  3  2  1  0
  3 10  1  0
  4  3  2  0
  6  5  1  1
  6  7  1  0
  8  6  1  0
  9 10  1  0
  9  8  1  1
 11  9  1  0
 12 11  2  0
 14 13  1  1
 14 16  1  0
 15 14  1  0
 16 17  1  6
 16 18  1  0
 17 11  1  0
 18 19  1  0
 20 18  2  0
M  END
$$$$
