GLT.pdb
     RDKit          3D

 20 19  0  0  1  0  0  0  0  0999 V2000
   28.1974  -19.5257  -15.8304 N   0  0  0  0  0  0  0  0  0  0  0  0
   27.1797  -18.8789  -15.0473 C   0  0  0  0  0  0  0  0  0  0  0  0
   26.2248  -19.8799  -14.4992 C   0  0  0  0  0  0  0  0  0  0  0  0
   26.0780  -20.9415  -15.1526 O   0  0  0  0  0  0  0  0  0  0  0  0
   25.8236  -20.4173   -9.0453 C   0  0  0  0  0  0  0  0  0  0  0  0
   25.8866  -20.5607  -10.5297 C   0  0  1  0  0  0  0  0  0  0  0  0
   26.5657  -21.9173  -10.7924 C   0  0  0  0  0  0  0  0  0  0  0  0
   24.5906  -20.6036  -11.2319 C   0  0  0  0  0  0  0  0  0  0  0  0
   24.6236  -20.6994  -12.7221 C   0  0  2  0  0  0  0  0  0  0  0  0
   25.4984  -19.7005  -13.3175 N   0  0  0  0  0  0  0  0  0  0  0  0
   23.2567  -20.5219  -13.3128 C   0  0  0  0  0  0  0  0  0  0  0  0
   22.7087  -19.3891  -13.3410 O   0  0  0  0  0  0  0  0  0  0  0  0
   19.5745  -22.0128  -16.2134 C   0  0  0  0  0  0  0  0  0  0  0  0
   20.9750  -22.1439  -15.6954 C   0  0  1  0  0  0  0  0  0  0  0  0
   21.9305  -21.8186  -16.6567 O   0  0  0  0  0  0  0  0  0  0  0  0
   21.2133  -21.3571  -14.4308 C   0  0  2  0  0  0  0  0  0  0  0  0
   22.5187  -21.5998  -13.8626 N   0  0  0  0  0  0  0  0  0  0  0  0
   20.1947  -21.7886  -13.4506 C   0  0  0  0  0  0  0  0  0  0  0  0
   18.9230  -21.2532  -13.5260 O   0  0  0  0  0  0  0  0  0  0  0  0
   20.4251  -22.6248  -12.5425 O   0  0  0  0  0  0  0  0  0  0  0  0
  2  1  1  0
  3  2  1  0
  3 10  1  0
  4  3  2  0
  6  5  1  1
  6  7  1  0
  8  6  1  0
  9 10  1  0
  9  8  1  1
 11  9  1  0
 12 11  2  0
 14 13  1  6
 14 16  1  0
 15 14  1  0
 16 17  1  1
 16 18  1  0
 17 11  1  0
 18 19  1  0
 20 18  2  0
M  END
$$$$
