GLT.pdb
     RDKit          3D

 20 19  0  0  1  0  0  0  0  0999 V2000
   19.9595  -10.7256  -20.5248 N   0  0  0  0  0  0  0  0  0  0  0  0
   20.0831   -9.3656  -20.0746 C   0  0  0  0  0  0  0  0  0  0  0  0
   20.5153   -9.3220  -18.6513 C   0  0  0  0  0  0  0  0  0  0  0  0
   19.6102   -9.2427  -17.7854 O   0  0  0  0  0  0  0  0  0  0  0  0
   23.2778  -10.7315  -14.1900 C   0  0  0  0  0  0  0  0  0  0  0  0
   24.1020  -10.1103  -15.2682 C   0  0  1  0  0  0  0  0  0  0  0  0
   25.3962  -10.9414  -15.3395 C   0  0  0  0  0  0  0  0  0  0  0  0
   23.5200  -10.1334  -16.6230 C   0  0  0  0  0  0  0  0  0  0  0  0
   22.2940   -9.3123  -16.8542 C   0  0  2  0  0  0  0  0  0  0  0  0
   21.8512   -9.3642  -18.2395 N   0  0  0  0  0  0  0  0  0  0  0  0
   22.5238   -7.8732  -16.5005 C   0  0  0  0  0  0  0  0  0  0  0  0
   23.4513   -7.2165  -17.0416 O   0  0  0  0  0  0  0  0  0  0  0  0
   20.5770   -4.7714  -17.1627 C   0  0  0  0  0  0  0  0  0  0  0  0
   20.7541   -4.9305  -15.6827 C   0  0  1  0  0  0  0  0  0  0  0  0
   19.6060   -5.4155  -15.0586 O   0  0  0  0  0  0  0  0  0  0  0  0
   21.9477   -5.7773  -15.3181 C   0  0  2  0  0  0  0  0  0  0  0  0
   21.7243   -7.1844  -15.5544 N   0  0  0  0  0  0  0  0  0  0  0  0
   22.1941   -5.5843  -13.8736 C   0  0  0  0  0  0  0  0  0  0  0  0
   22.6175   -4.3477  -13.4253 O   0  0  0  0  0  0  0  0  0  0  0  0
   22.0377   -6.4938  -13.0218 O   0  0  0  0  0  0  0  0  0  0  0  0
  2  1  1  0
  3  2  1  0
  3 10  1  0
  4  3  2  0
  6  5  1  1
  6  7  1  0
  8  6  1  0
  9 10  1  0
  9  8  1  6
 11  9  1  0
 12 11  2  0
 14 13  1  6
 14 16  1  0
 15 14  1  0
 16 17  1  1
 16 18  1  0
 17 11  1  0
 18 19  1  0
 20 18  2  0
M  END
$$$$
