VPY.pdb
     RDKit          3D

 27 28  0  0  1  0  0  0  0  0999 V2000
    7.6943  -19.2738   18.2508 C   0  0  0  0  0  0  0  0  0  0  0  0
    8.2332  -18.4656   19.3861 C   0  0  1  0  0  0  0  0  0  0  0  0
    9.1006  -19.2959   20.2750 C   0  0  0  0  0  0  0  0  0  0  0  0
    8.9968  -17.2488   18.8214 C   0  0  2  0  0  0  0  0  0  0  0  0
    9.9025  -17.7566   17.8666 N   0  0  0  0  0  0  0  0  0  0  0  0
    9.4953  -16.4098   19.9021 C   0  0  0  0  0  0  0  0  0  0  0  0
   10.6307  -16.8110   20.3762 O   0  0  0  0  0  0  0  0  0  0  0  0
    8.9688  -15.2723   20.4984 N   0  0  0  0  0  0  0  0  0  0  0  0
    8.5650  -14.0682   19.7115 C   0  0  0  0  0  0  0  0  0  0  0  0
    7.1806  -13.8218   20.3051 C   0  0  0  0  0  0  0  0  0  0  0  0
    7.1164  -14.6471   21.6039 C   0  0  0  0  0  0  0  0  0  0  0  0
    8.6365  -14.8250   21.8070 C   0  0  1  0  0  0  0  0  0  0  0  0
    9.0102  -15.4388   23.0197 C   0  0  0  0  0  0  0  0  0  0  0  0
    8.5129  -16.6288   23.2287 O   0  0  0  0  0  0  0  0  0  0  0  0
    5.6941  -10.6729   26.7468 O   0  0  0  0  0  0  0  0  0  0  0  0
    6.3877  -11.8704   26.5822 C   0  0  0  0  0  0  0  0  0  0  0  0
    7.7361  -11.9665   26.8505 C   0  0  0  0  0  0  0  0  0  0  0  0
    8.3942  -13.1636   26.6782 C   0  0  0  0  0  0  0  0  0  0  0  0
    7.7270  -14.2809   26.2388 C   0  0  0  0  0  0  0  0  0  0  0  0
    8.4321  -15.5678   26.0675 C   0  0  0  0  0  0  0  0  0  0  0  0
    9.7435  -15.4880   25.4103 C   0  0  2  0  0  0  0  0  0  0  0  0
    9.8223  -14.9943   24.0625 N   0  0  0  0  0  0  0  0  0  0  0  0
   10.3510  -16.8583   25.4443 C   0  0  0  0  0  0  0  0  0  0  0  0
   10.5551  -17.4875   26.5046 O   0  0  0  0  0  0  0  0  0  0  0  0
    6.3722  -14.1835   25.9692 C   0  0  0  0  0  0  0  0  0  0  0  0
    5.6990  -12.9928   26.1363 C   0  0  0  0  0  0  0  0  0  0  0  0
   10.6873  -17.4184   24.2275 O   0  0  0  0  0  0  0  0  0  0  0  0
  2  3  1  6
  2  1  1  0
  4  5  1  1
  4  2  1  0
  6  4  1  0
  7  6  2  0
  8  9  1  0
  8  6  1  0
 10  9  1  0
 11 10  1  0
 11 12  1  0
 12  8  1  0
 12 13  1  1
 13 14  2  0
 16 15  1  0
 17 16  2  0
 18 17  1  0
 19 25  1  0
 19 18  2  0
 21 20  1  6
 20 19  1  0
 21 22  1  0
 22 13  1  0
 23 21  1  0
 24 23  2  0
 25 26  2  0
 26 16  1  0
 27 23  1  0
M  END
$$$$
