VPY.pdb
     RDKit          3D

 27 28  0  0  1  0  0  0  0  0999 V2000
   10.7769  -15.6161   19.4590 C   0  0  0  0  0  0  0  0  0  0  0  0
   10.3119  -14.3810   18.7583 C   0  0  1  0  0  0  0  0  0  0  0  0
   10.8855  -14.2940   17.3815 C   0  0  0  0  0  0  0  0  0  0  0  0
    8.7687  -14.3657   18.7336 C   0  0  2  0  0  0  0  0  0  0  0  0
    8.3946  -13.2288   17.9870 N   0  0  0  0  0  0  0  0  0  0  0  0
    8.2327  -14.5459   20.0755 C   0  0  0  0  0  0  0  0  0  0  0  0
    8.6378  -13.6446   20.9111 O   0  0  0  0  0  0  0  0  0  0  0  0
    7.3754  -15.5031   20.6004 N   0  0  0  0  0  0  0  0  0  0  0  0
    6.0781  -15.8600   19.9510 C   0  0  0  0  0  0  0  0  0  0  0  0
    6.1929  -17.3821   19.9600 C   0  0  0  0  0  0  0  0  0  0  0  0
    7.3274  -17.7220   20.9445 C   0  0  0  0  0  0  0  0  0  0  0  0
    7.3347  -16.3846   21.7159 C   0  0  1  0  0  0  0  0  0  0  0  0
    8.1829  -16.3477   22.8412 C   0  0  0  0  0  0  0  0  0  0  0  0
    9.4125  -16.7388   22.6363 O   0  0  0  0  0  0  0  0  0  0  0  0
    4.9751  -11.1446   27.1435 O   0  0  0  0  0  0  0  0  0  0  0  0
    6.0353  -11.9499   26.7319 C   0  0  0  0  0  0  0  0  0  0  0  0
    6.1598  -12.3669   25.4242 C   0  0  0  0  0  0  0  0  0  0  0  0
    7.2187  -13.1624   25.0474 C   0  0  0  0  0  0  0  0  0  0  0  0
    8.1681  -13.5550   25.9590 C   0  0  0  0  0  0  0  0  0  0  0  0
    9.3108  -14.3973   25.5500 C   0  0  0  0  0  0  0  0  0  0  0  0
    8.9727  -15.7675   25.1423 C   0  0  2  0  0  0  0  0  0  0  0  0
    7.9412  -15.9718   24.1621 N   0  0  0  0  0  0  0  0  0  0  0  0
    8.6019  -16.5293   26.3793 C   0  0  0  0  0  0  0  0  0  0  0  0
    7.4780  -17.0487   26.5489 O   0  0  0  0  0  0  0  0  0  0  0  0
    8.0422  -13.1357   27.2729 C   0  0  0  0  0  0  0  0  0  0  0  0
    6.9884  -12.3397   27.6660 C   0  0  0  0  0  0  0  0  0  0  0  0
    9.5738  -16.6408   27.3541 O   0  0  0  0  0  0  0  0  0  0  0  0
  2  3  1  6
  2  1  1  0
  4  5  1  1
  4  2  1  0
  6  4  1  0
  7  6  2  0
  8  9  1  0
  8  6  1  0
 10  9  1  0
 11 10  1  0
 11 12  1  0
 12  8  1  0
 12 13  1  1
 13 14  2  0
 16 15  1  0
 17 16  2  0
 18 17  1  0
 19 25  1  0
 19 18  2  0
 21 20  1  1
 20 19  1  0
 21 22  1  0
 22 13  1  0
 23 21  1  0
 24 23  2  0
 25 26  2  0
 26 16  1  0
 27 23  1  0
M  END
$$$$
