VPY.pdb
     RDKit          3D

 27 28  0  0  1  0  0  0  0  0999 V2000
    8.0909  -12.5121   25.6620 C   0  0  0  0  0  0  0  0  0  0  0  0
    7.1497  -13.2820   26.5304 C   0  0  1  0  0  0  0  0  0  0  0  0
    6.2488  -12.3663   27.2934 C   0  0  0  0  0  0  0  0  0  0  0  0
    6.3485  -14.2690   25.6550 C   0  0  2  0  0  0  0  0  0  0  0  0
    5.4432  -14.9209   26.5183 N   0  0  0  0  0  0  0  0  0  0  0  0
    7.2448  -15.0648   24.8281 C   0  0  0  0  0  0  0  0  0  0  0  0
    7.9606  -15.8995   25.5104 O   0  0  0  0  0  0  0  0  0  0  0  0
    7.4568  -15.0801   23.4564 N   0  0  0  0  0  0  0  0  0  0  0  0
    6.3685  -14.7937   22.4737 C   0  0  0  0  0  0  0  0  0  0  0  0
    7.0846  -13.7852   21.5793 C   0  0  0  0  0  0  0  0  0  0  0  0
    8.5843  -13.9080   21.9075 C   0  0  0  0  0  0  0  0  0  0  0  0
    8.5360  -15.3072   22.5584 C   0  0  1  0  0  0  0  0  0  0  0  0
    9.7916  -15.8593   22.8838 C   0  0  0  0  0  0  0  0  0  0  0  0
   10.5687  -16.1347   21.8702 O   0  0  0  0  0  0  0  0  0  0  0  0
    9.8611  -15.8455   30.5491 O   0  0  0  0  0  0  0  0  0  0  0  0
   10.4206  -15.6361   29.2901 C   0  0  0  0  0  0  0  0  0  0  0  0
   10.3122  -14.4233   28.6446 C   0  0  0  0  0  0  0  0  0  0  0  0
   10.8757  -14.2465   27.4007 C   0  0  0  0  0  0  0  0  0  0  0  0
   11.5539  -15.2668   26.7798 C   0  0  0  0  0  0  0  0  0  0  0  0
   12.1694  -15.0710   25.4510 C   0  0  0  0  0  0  0  0  0  0  0  0
   11.7603  -16.0306   24.4168 C   0  0  2  0  0  0  0  0  0  0  0  0
   10.3629  -16.1806   24.1145 N   0  0  0  0  0  0  0  0  0  0  0  0
   12.3031  -17.3732   24.8050 C   0  0  0  0  0  0  0  0  0  0  0  0
   11.5850  -18.3879   24.9331 O   0  0  0  0  0  0  0  0  0  0  0  0
   11.6622  -16.4853   27.4289 C   0  0  0  0  0  0  0  0  0  0  0  0
   11.1038  -16.6784   28.6738 C   0  0  0  0  0  0  0  0  0  0  0  0
   13.6646  -17.4528   25.0226 O   0  0  0  0  0  0  0  0  0  0  0  0
  2  3  1  6
  2  1  1  0
  4  5  1  1
  4  2  1  0
  6  4  1  0
  7  6  2  0
  8  9  1  0
  8  6  1  0
 10  9  1  0
 11 10  1  0
 11 12  1  0
 12  8  1  0
 12 13  1  1
 13 14  2  0
 16 15  1  0
 17 16  2  0
 18 17  1  0
 19 25  1  0
 19 18  2  0
 21 20  1  1
 20 19  1  0
 21 22  1  0
 22 13  1  0
 23 21  1  0
 24 23  2  0
 25 26  2  0
 26 16  1  0
 27 23  1  0
M  END
$$$$
