VPY.pdb
     RDKit          3D

 27 28  0  0  1  0  0  0  0  0999 V2000
    7.8622  -19.0852   17.8540 C   0  0  0  0  0  0  0  0  0  0  0  0
    8.3504  -18.3132   19.0366 C   0  0  1  0  0  0  0  0  0  0  0  0
    9.2598  -19.1425   19.8836 C   0  0  0  0  0  0  0  0  0  0  0  0
    9.0464  -17.0258   18.5463 C   0  0  2  0  0  0  0  0  0  0  0  0
    9.9651  -17.4245   17.5530 N   0  0  0  0  0  0  0  0  0  0  0  0
    9.5151  -16.2346   19.6754 C   0  0  0  0  0  0  0  0  0  0  0  0
   10.7080  -16.5551   20.0616 O   0  0  0  0  0  0  0  0  0  0  0  0
    8.9103  -15.2126   20.3940 N   0  0  0  0  0  0  0  0  0  0  0  0
    8.3342  -14.0015   19.7354 C   0  0  0  0  0  0  0  0  0  0  0  0
    6.9712  -13.9563   20.4210 C   0  0  0  0  0  0  0  0  0  0  0  0
    7.0750  -14.8839   21.6461 C   0  0  0  0  0  0  0  0  0  0  0  0
    8.6151  -14.9094   21.7518 C   0  0  1  0  0  0  0  0  0  0  0  0
    9.1259  -15.5726   22.8860 C   0  0  0  0  0  0  0  0  0  0  0  0
    9.1398  -16.8774   22.8204 O   0  0  0  0  0  0  0  0  0  0  0  0
    6.0487  -10.3294   27.4331 O   0  0  0  0  0  0  0  0  0  0  0  0
    6.4956  -11.5824   27.0179 C   0  0  0  0  0  0  0  0  0  0  0  0
    7.8379  -11.8572   26.8690 C   0  0  0  0  0  0  0  0  0  0  0  0
    8.2491  -13.1051   26.4571 C   0  0  0  0  0  0  0  0  0  0  0  0
    7.3380  -14.0971   26.1879 C   0  0  0  0  0  0  0  0  0  0  0  0
    7.7818  -15.4394   25.7591 C   0  0  0  0  0  0  0  0  0  0  0  0
    9.1984  -15.5480   25.3859 C   0  0  2  0  0  0  0  0  0  0  0  0
    9.6198  -15.0803   24.0935 N   0  0  0  0  0  0  0  0  0  0  0  0
    9.5910  -16.9894   25.5140 C   0  0  0  0  0  0  0  0  0  0  0  0
    9.7088  -17.5686   26.6151 O   0  0  0  0  0  0  0  0  0  0  0  0
    5.9894  -13.8201   26.3376 C   0  0  0  0  0  0  0  0  0  0  0  0
    5.5616  -12.5764   26.7486 C   0  0  0  0  0  0  0  0  0  0  0  0
    9.8249  -17.6757   24.3386 O   0  0  0  0  0  0  0  0  0  0  0  0
  2  3  1  6
  2  1  1  0
  4  5  1  6
  4  2  1  0
  6  4  1  0
  7  6  2  0
  8  9  1  0
  8  6  1  0
 10  9  1  0
 11 10  1  0
 11 12  1  0
 12  8  1  0
 12 13  1  1
 13 14  2  0
 16 15  1  0
 17 16  2  0
 18 17  1  0
 19 25  1  0
 19 18  2  0
 21 20  1  6
 20 19  1  0
 21 22  1  0
 22 13  1  0
 23 21  1  0
 24 23  2  0
 25 26  2  0
 26 16  1  0
 27 23  1  0
M  END
$$$$
