VPY.pdb
     RDKit          3D

 27 28  0  0  1  0  0  0  0  0999 V2000
    7.5670  -19.5411   18.4201 C   0  0  0  0  0  0  0  0  0  0  0  0
    8.1263  -18.7221   19.5378 C   0  0  1  0  0  0  0  0  0  0  0  0
    8.9290  -19.5651   20.4745 C   0  0  0  0  0  0  0  0  0  0  0  0
    8.9665  -17.5698   18.9475 C   0  0  2  0  0  0  0  0  0  0  0  0
    9.9579  -18.1719   18.1447 N   0  0  0  0  0  0  0  0  0  0  0  0
    9.3643  -16.6375   19.9930 C   0  0  0  0  0  0  0  0  0  0  0  0
   10.4794  -16.9595   20.5653 O   0  0  0  0  0  0  0  0  0  0  0  0
    8.7611  -15.4821   20.4703 N   0  0  0  0  0  0  0  0  0  0  0  0
    8.1533  -14.4617   19.5640 C   0  0  0  0  0  0  0  0  0  0  0  0
    6.8054  -14.2707   20.2543 C   0  0  0  0  0  0  0  0  0  0  0  0
    6.9497  -14.8882   21.6578 C   0  0  0  0  0  0  0  0  0  0  0  0
    8.4920  -14.8751   21.7281 C   0  0  1  0  0  0  0  0  0  0  0  0
    9.0373  -15.2529   22.9718 C   0  0  0  0  0  0  0  0  0  0  0  0
   10.3178  -15.0382   23.1173 O   0  0  0  0  0  0  0  0  0  0  0  0
    5.4418  -11.0181   26.3817 O   0  0  0  0  0  0  0  0  0  0  0  0
    6.4269  -12.0036   26.3639 C   0  0  0  0  0  0  0  0  0  0  0  0
    7.7221  -11.7368   26.7520 C   0  0  0  0  0  0  0  0  0  0  0  0
    8.6737  -12.7315   26.7236 C   0  0  0  0  0  0  0  0  0  0  0  0
    8.3564  -14.0027   26.3113 C   0  0  0  0  0  0  0  0  0  0  0  0
    9.3758  -15.0720   26.2943 C   0  0  0  0  0  0  0  0  0  0  0  0
    9.1575  -16.1384   25.3078 C   0  0  2  0  0  0  0  0  0  0  0  0
    8.4492  -15.8350   24.0942 N   0  0  0  0  0  0  0  0  0  0  0  0
    8.4409  -17.2574   26.0022 C   0  0  0  0  0  0  0  0  0  0  0  0
    8.8721  -17.8026   27.0407 O   0  0  0  0  0  0  0  0  0  0  0  0
    7.0548  -14.2699   25.9212 C   0  0  0  0  0  0  0  0  0  0  0  0
    6.0908  -13.2856   25.9437 C   0  0  0  0  0  0  0  0  0  0  0  0
    7.2524  -17.6777   25.4381 O   0  0  0  0  0  0  0  0  0  0  0  0
  2  3  1  1
  2  1  1  0
  4  5  1  1
  4  2  1  0
  6  4  1  0
  7  6  2  0
  8  9  1  0
  8  6  1  0
 10  9  1  0
 11 10  1  0
 11 12  1  0
 12  8  1  0
 12 13  1  1
 13 14  2  0
 16 15  1  0
 17 16  2  0
 18 17  1  0
 19 25  1  0
 19 18  2  0
 21 20  1  1
 20 19  1  0
 21 22  1  0
 22 13  1  0
 23 21  1  0
 24 23  2  0
 25 26  2  0
 26 16  1  0
 27 23  1  0
M  END
$$$$
