VPY.pdb
     RDKit          3D

 27 28  0  0  1  0  0  0  0  0999 V2000
   10.1968  -14.6221   19.5049 C   0  0  0  0  0  0  0  0  0  0  0  0
    9.2968  -13.4631   19.2229 C   0  0  1  0  0  0  0  0  0  0  0  0
    9.5531  -12.9000   17.8630 C   0  0  0  0  0  0  0  0  0  0  0  0
    7.8293  -13.9129   19.3850 C   0  0  2  0  0  0  0  0  0  0  0  0
    7.0340  -12.8639   18.8782 N   0  0  0  0  0  0  0  0  0  0  0  0
    7.5891  -14.4019   20.7355 C   0  0  0  0  0  0  0  0  0  0  0  0
    7.9420  -13.5596   21.6524 O   0  0  0  0  0  0  0  0  0  0  0  0
    7.0545  -15.5967   21.1974 N   0  0  0  0  0  0  0  0  0  0  0  0
    5.8465  -16.2252   20.5828 C   0  0  0  0  0  0  0  0  0  0  0  0
    6.3526  -17.6559   20.4192 C   0  0  0  0  0  0  0  0  0  0  0  0
    7.6116  -17.7700   21.2989 C   0  0  0  0  0  0  0  0  0  0  0  0
    7.3335  -16.5552   22.2104 C   0  0  1  0  0  0  0  0  0  0  0  0
    8.2304  -16.3969   23.2863 C   0  0  0  0  0  0  0  0  0  0  0  0
    9.4491  -16.0556   22.9618 O   0  0  0  0  0  0  0  0  0  0  0  0
    5.4709  -11.0303   25.4805 O   0  0  0  0  0  0  0  0  0  0  0  0
    6.3250  -12.0904   25.7783 C   0  0  0  0  0  0  0  0  0  0  0  0
    7.6948  -11.9560   25.7068 C   0  0  0  0  0  0  0  0  0  0  0  0
    8.5131  -13.0218   26.0072 C   0  0  0  0  0  0  0  0  0  0  0  0
    7.9872  -14.2339   26.3824 C   0  0  0  0  0  0  0  0  0  0  0  0
    8.8672  -15.3724   26.7173 C   0  0  0  0  0  0  0  0  0  0  0  0
    9.0891  -16.3401   25.6346 C   0  0  2  0  0  0  0  0  0  0  0  0
    8.0529  -16.5509   24.6608 N   0  0  0  0  0  0  0  0  0  0  0  0
    9.4142  -17.6601   26.2671 C   0  0  0  0  0  0  0  0  0  0  0  0
   10.3827  -17.8261   27.0392 O   0  0  0  0  0  0  0  0  0  0  0  0
    6.6107  -14.3683   26.4537 C   0  0  0  0  0  0  0  0  0  0  0  0
    5.7781  -13.3114   26.1562 C   0  0  0  0  0  0  0  0  0  0  0  0
    8.5819  -18.7180   25.9580 O   0  0  0  0  0  0  0  0  0  0  0  0
  2  3  1  6
  2  1  1  0
  4  5  1  1
  4  2  1  0
  6  4  1  0
  7  6  2  0
  8  9  1  0
  8  6  1  0
 10  9  1  0
 11 10  1  0
 11 12  1  0
 12  8  1  0
 12 13  1  6
 13 14  2  0
 16 15  1  0
 17 16  2  0
 18 17  1  0
 19 25  1  0
 19 18  2  0
 21 20  1  1
 20 19  1  0
 21 22  1  0
 22 13  1  0
 23 21  1  0
 24 23  2  0
 25 26  2  0
 26 16  1  0
 27 23  1  0
M  END
$$$$
