VPY.pdb
     RDKit          3D

 27 28  0  0  1  0  0  0  0  0999 V2000
    9.1950  -19.8341   20.3865 C   0  0  0  0  0  0  0  0  0  0  0  0
    8.1325  -19.0602   19.6759 C   0  0  1  0  0  0  0  0  0  0  0  0
    6.9473  -18.8370   20.5576 C   0  0  0  0  0  0  0  0  0  0  0  0
    8.7285  -17.7271   19.1758 C   0  0  2  0  0  0  0  0  0  0  0  0
    9.6521  -18.0601   18.1630 N   0  0  0  0  0  0  0  0  0  0  0  0
    9.1647  -16.9077   20.2977 C   0  0  0  0  0  0  0  0  0  0  0  0
   10.1001  -17.4617   20.9998 O   0  0  0  0  0  0  0  0  0  0  0  0
    8.7551  -15.6549   20.7332 N   0  0  0  0  0  0  0  0  0  0  0  0
    8.2009  -14.6247   19.8039 C   0  0  0  0  0  0  0  0  0  0  0  0
    6.9541  -14.2151   20.5834 C   0  0  0  0  0  0  0  0  0  0  0  0
    7.1446  -14.7542   22.0135 C   0  0  0  0  0  0  0  0  0  0  0  0
    8.6766  -14.9380   21.9591 C   0  0  1  0  0  0  0  0  0  0  0  0
    9.2791  -15.3026   23.1802 C   0  0  0  0  0  0  0  0  0  0  0  0
   10.4849  -14.8396   23.3771 O   0  0  0  0  0  0  0  0  0  0  0  0
    4.9563  -11.8792   26.6230 O   0  0  0  0  0  0  0  0  0  0  0  0
    6.1083  -12.6616   26.5729 C   0  0  0  0  0  0  0  0  0  0  0  0
    7.3555  -12.1264   26.8127 C   0  0  0  0  0  0  0  0  0  0  0  0
    8.4758  -12.9250   26.7560 C   0  0  0  0  0  0  0  0  0  0  0  0
    8.3767  -14.2630   26.4619 C   0  0  0  0  0  0  0  0  0  0  0  0
    9.5786  -15.1209   26.4148 C   0  0  0  0  0  0  0  0  0  0  0  0
    9.5111  -16.2535   25.4818 C   0  0  2  0  0  0  0  0  0  0  0  0
    8.8173  -16.0915   24.2332 N   0  0  0  0  0  0  0  0  0  0  0  0
    8.8950  -17.4075   26.2145 C   0  0  0  0  0  0  0  0  0  0  0  0
    7.8389  -17.9640   25.8451 O   0  0  0  0  0  0  0  0  0  0  0  0
    7.1232  -14.8000   26.2209 C   0  0  0  0  0  0  0  0  0  0  0  0
    5.9924  -14.0143   26.2736 C   0  0  0  0  0  0  0  0  0  0  0  0
    9.5543  -17.8475   27.3455 O   0  0  0  0  0  0  0  0  0  0  0  0
  2  3  1  1
  2  1  1  0
  4  5  1  6
  4  2  1  0
  6  4  1  0
  7  6  2  0
  8  9  1  0
  8  6  1  0
 10  9  1  0
 11 10  1  0
 11 12  1  0
 12  8  1  0
 12 13  1  1
 13 14  2  0
 16 15  1  0
 17 16  2  0
 18 17  1  0
 19 25  1  0
 19 18  2  0
 21 20  1  1
 20 19  1  0
 21 22  1  0
 22 13  1  0
 23 21  1  0
 24 23  2  0
 25 26  2  0
 26 16  1  0
 27 23  1  0
M  END
$$$$
