VPY.pdb
     RDKit          3D

 27 28  0  0  1  0  0  0  0  0999 V2000
    6.8974  -19.2339   18.8233 C   0  0  0  0  0  0  0  0  0  0  0  0
    7.5323  -18.3337   19.8329 C   0  0  1  0  0  0  0  0  0  0  0  0
    8.2225  -19.1210   20.8987 C   0  0  0  0  0  0  0  0  0  0  0  0
    8.5052  -17.3755   19.1133 C   0  0  2  0  0  0  0  0  0  0  0  0
    9.3157  -18.1803   18.2855 N   0  0  0  0  0  0  0  0  0  0  0  0
    9.1342  -16.4723   20.0667 C   0  0  0  0  0  0  0  0  0  0  0  0
   10.1010  -17.0225   20.7281 O   0  0  0  0  0  0  0  0  0  0  0  0
    8.8775  -15.1446   20.3800 N   0  0  0  0  0  0  0  0  0  0  0  0
    8.8595  -14.0660   19.3464 C   0  0  0  0  0  0  0  0  0  0  0  0
    7.5460  -13.3790   19.7103 C   0  0  0  0  0  0  0  0  0  0  0  0
    7.1733  -13.8814   21.1178 C   0  0  0  0  0  0  0  0  0  0  0  0
    8.5759  -14.3730   21.5360 C   0  0  1  0  0  0  0  0  0  0  0  0
    8.6862  -14.7971   22.8758 C   0  0  0  0  0  0  0  0  0  0  0  0
    7.5710  -14.8193   23.5562 O   0  0  0  0  0  0  0  0  0  0  0  0
    5.7203  -10.9143   26.9955 O   0  0  0  0  0  0  0  0  0  0  0  0
    6.3732  -12.1010   26.6674 C   0  0  0  0  0  0  0  0  0  0  0  0
    5.6939  -13.1753   26.1347 C   0  0  0  0  0  0  0  0  0  0  0  0
    6.3666  -14.3349   25.8206 C   0  0  0  0  0  0  0  0  0  0  0  0
    7.7196  -14.4465   26.0289 C   0  0  0  0  0  0  0  0  0  0  0  0
    8.4419  -15.6868   25.6786 C   0  0  0  0  0  0  0  0  0  0  0  0
    9.7463  -15.4976   25.0301 C   0  0  2  0  0  0  0  0  0  0  0  0
    9.7924  -15.1958   23.6253 N   0  0  0  0  0  0  0  0  0  0  0  0
   10.5554  -16.7368   25.2705 C   0  0  0  0  0  0  0  0  0  0  0  0
   10.7624  -17.2052   26.4105 O   0  0  0  0  0  0  0  0  0  0  0  0
    8.4015  -13.3667   26.5644 C   0  0  0  0  0  0  0  0  0  0  0  0
    7.7429  -12.1993   26.8844 C   0  0  0  0  0  0  0  0  0  0  0  0
   11.0797  -17.3615   24.1561 O   0  0  0  0  0  0  0  0  0  0  0  0
  2  3  1  1
  2  1  1  0
  4  5  1  1
  4  2  1  0
  6  4  1  0
  7  6  2  0
  8  9  1  0
  8  6  1  0
 10  9  1  0
 11 10  1  0
 11 12  1  0
 12  8  1  0
 12 13  1  1
 13 14  2  0
 16 15  1  0
 17 16  2  0
 18 17  1  0
 19 25  1  0
 19 18  2  0
 21 20  1  6
 20 19  1  0
 21 22  1  0
 22 13  1  0
 23 21  1  0
 24 23  2  0
 25 26  2  0
 26 16  1  0
 27 23  1  0
M  END
$$$$
