VPY.pdb
     RDKit          3D

 27 28  0  0  1  0  0  0  0  0999 V2000
    6.9343  -18.4145   20.9295 C   0  0  0  0  0  0  0  0  0  0  0  0
    8.1333  -18.7718   20.1124 C   0  0  1  0  0  0  0  0  0  0  0  0
    7.8863  -20.0026   19.3025 C   0  0  0  0  0  0  0  0  0  0  0  0
    8.5122  -17.5704   19.2205 C   0  0  2  0  0  0  0  0  0  0  0  0
    9.3595  -18.0757   18.2124 N   0  0  0  0  0  0  0  0  0  0  0  0
    8.9612  -16.4493   20.0342 C   0  0  0  0  0  0  0  0  0  0  0  0
    9.9595  -16.7453   20.8027 O   0  0  0  0  0  0  0  0  0  0  0  0
    8.5085  -15.1401   20.1227 N   0  0  0  0  0  0  0  0  0  0  0  0
    8.0187  -14.3790   18.9340 C   0  0  0  0  0  0  0  0  0  0  0  0
    6.7121  -13.8277   19.4987 C   0  0  0  0  0  0  0  0  0  0  0  0
    6.7966  -14.0015   21.0267 C   0  0  0  0  0  0  0  0  0  0  0  0
    8.3298  -14.1517   21.1296 C   0  0  1  0  0  0  0  0  0  0  0  0
    8.8397  -14.1954   22.4431 C   0  0  0  0  0  0  0  0  0  0  0  0
    8.4345  -13.2423   23.2396 O   0  0  0  0  0  0  0  0  0  0  0  0
   10.8347  -15.4403   30.8030 O   0  0  0  0  0  0  0  0  0  0  0  0
   10.3876  -15.3278   29.4879 C   0  0  0  0  0  0  0  0  0  0  0  0
   10.2969  -14.1053   28.8582 C   0  0  0  0  0  0  0  0  0  0  0  0
    9.8514  -14.0259   27.5578 C   0  0  0  0  0  0  0  0  0  0  0  0
    9.4904  -15.1548   26.8635 C   0  0  0  0  0  0  0  0  0  0  0  0
    9.0255  -15.0689   25.4638 C   0  0  0  0  0  0  0  0  0  0  0  0
   10.0847  -15.0260   24.4469 C   0  0  2  0  0  0  0  0  0  0  0  0
    9.7232  -15.0826   23.0567 N   0  0  0  0  0  0  0  0  0  0  0  0
   11.0316  -16.1531   24.7318 C   0  0  0  0  0  0  0  0  0  0  0  0
   11.9186  -16.0927   25.6100 O   0  0  0  0  0  0  0  0  0  0  0  0
    9.5816  -16.3829   27.4970 C   0  0  0  0  0  0  0  0  0  0  0  0
   10.0253  -16.4792   28.7980 C   0  0  0  0  0  0  0  0  0  0  0  0
   10.8856  -17.2943   23.9679 O   0  0  0  0  0  0  0  0  0  0  0  0
  2  3  1  6
  2  1  1  0
  4  5  1  6
  4  2  1  0
  6  4  1  0
  7  6  2  0
  8  9  1  0
  8  6  1  0
 10  9  1  0
 11 10  1  0
 11 12  1  0
 12  8  1  0
 12 13  1  1
 13 14  2  0
 16 15  1  0
 17 16  2  0
 18 17  1  0
 19 25  1  0
 19 18  2  0
 21 20  1  1
 20 19  1  0
 21 22  1  0
 22 13  1  0
 23 21  1  0
 24 23  2  0
 25 26  2  0
 26 16  1  0
 27 23  1  0
M  END
$$$$
