VPY.pdb
     RDKit          3D

 27 28  0  0  1  0  0  0  0  0999 V2000
    7.3220  -13.8527   25.5535 C   0  0  0  0  0  0  0  0  0  0  0  0
    6.5523  -15.0850   25.9026 C   0  0  1  0  0  0  0  0  0  0  0  0
    5.3821  -14.7612   26.7731 C   0  0  0  0  0  0  0  0  0  0  0  0
    6.1155  -15.7923   24.6021 C   0  0  2  0  0  0  0  0  0  0  0  0
    5.0910  -16.6918   24.9640 N   0  0  0  0  0  0  0  0  0  0  0  0
    7.2749  -16.2872   23.8733 C   0  0  0  0  0  0  0  0  0  0  0  0
    7.8014  -17.3411   24.4090 O   0  0  0  0  0  0  0  0  0  0  0  0
    7.8992  -15.8288   22.7214 N   0  0  0  0  0  0  0  0  0  0  0  0
    7.1407  -15.4850   21.4810 C   0  0  0  0  0  0  0  0  0  0  0  0
    7.7525  -14.1212   21.1718 C   0  0  0  0  0  0  0  0  0  0  0  0
    9.0348  -14.0229   22.0192 C   0  0  0  0  0  0  0  0  0  0  0  0
    9.2197  -15.5327   22.2839 C   0  0  1  0  0  0  0  0  0  0  0  0
   10.4161  -15.8824   22.9422 C   0  0  0  0  0  0  0  0  0  0  0  0
   11.4991  -15.3066   22.4921 O   0  0  0  0  0  0  0  0  0  0  0  0
    8.6822  -13.6401   29.4613 O   0  0  0  0  0  0  0  0  0  0  0  0
    9.5434  -14.1042   28.4687 C   0  0  0  0  0  0  0  0  0  0  0  0
    9.0698  -14.5604   27.2575 C   0  0  0  0  0  0  0  0  0  0  0  0
    9.9454  -15.0129   26.2961 C   0  0  0  0  0  0  0  0  0  0  0  0
   11.3005  -15.0196   26.5202 C   0  0  0  0  0  0  0  0  0  0  0  0
   12.2394  -15.4930   25.4823 C   0  0  0  0  0  0  0  0  0  0  0  0
   11.8548  -16.7365   24.8012 C   0  0  2  0  0  0  0  0  0  0  0  0
   10.6606  -16.7560   24.0012 N   0  0  0  0  0  0  0  0  0  0  0  0
   11.7379  -17.8066   25.8449 C   0  0  0  0  0  0  0  0  0  0  0  0
   10.6950  -18.4707   26.0265 O   0  0  0  0  0  0  0  0  0  0  0  0
   11.7756  -14.5613   27.7376 C   0  0  0  0  0  0  0  0  0  0  0  0
   10.9125  -14.1054   28.7102 C   0  0  0  0  0  0  0  0  0  0  0  0
   12.8555  -18.0403   26.6219 O   0  0  0  0  0  0  0  0  0  0  0  0
  2  3  1  6
  2  1  1  0
  4  5  1  1
  4  2  1  0
  6  4  1  0
  7  6  2  0
  8  9  1  0
  8  6  1  0
 10  9  1  0
 11 10  1  0
 11 12  1  0
 12  8  1  0
 12 13  1  1
 13 14  2  0
 16 15  1  0
 17 16  2  0
 18 17  1  0
 19 25  1  0
 19 18  2  0
 21 20  1  1
 20 19  1  0
 21 22  1  0
 22 13  1  0
 23 21  1  0
 24 23  2  0
 25 26  2  0
 26 16  1  0
 27 23  1  0
M  END
$$$$
