VPY.pdb
     RDKit          3D

 27 28  0  0  1  0  0  0  0  0999 V2000
    7.7398  -19.3270   19.8331 C   0  0  0  0  0  0  0  0  0  0  0  0
    8.7045  -18.8663   18.7891 C   0  0  1  0  0  0  0  0  0  0  0  0
    8.6000  -19.6993   17.5533 C   0  0  0  0  0  0  0  0  0  0  0  0
    8.4510  -17.3731   18.4918 C   0  0  2  0  0  0  0  0  0  0  0  0
    8.7424  -17.1853   17.1245 N   0  0  0  0  0  0  0  0  0  0  0  0
    9.1093  -16.5340   19.4833 C   0  0  0  0  0  0  0  0  0  0  0  0
   10.3721  -16.7881   19.6080 O   0  0  0  0  0  0  0  0  0  0  0  0
    8.6205  -15.5252   20.3020 N   0  0  0  0  0  0  0  0  0  0  0  0
    7.7305  -14.4391   19.7916 C   0  0  0  0  0  0  0  0  0  0  0  0
    6.6348  -14.4803   20.8535 C   0  0  0  0  0  0  0  0  0  0  0  0
    7.2086  -15.2883   22.0325 C   0  0  0  0  0  0  0  0  0  0  0  0
    8.7024  -15.1441   21.6697 C   0  0  1  0  0  0  0  0  0  0  0  0
    9.6024  -15.6550   22.6269 C   0  0  0  0  0  0  0  0  0  0  0  0
    9.4713  -16.9246   22.9063 O   0  0  0  0  0  0  0  0  0  0  0  0
   10.3843  -15.5402   31.1692 O   0  0  0  0  0  0  0  0  0  0  0  0
   10.2308  -15.2850   29.8078 C   0  0  0  0  0  0  0  0  0  0  0  0
   10.9480  -14.2936   29.1737 C   0  0  0  0  0  0  0  0  0  0  0  0
   10.7746  -14.0650   27.8270 C   0  0  0  0  0  0  0  0  0  0  0  0
    9.8901  -14.8143   27.0903 C   0  0  0  0  0  0  0  0  0  0  0  0
    9.7154  -14.5765   25.6427 C   0  0  0  0  0  0  0  0  0  0  0  0
   10.7651  -15.1332   24.7789 C   0  0  2  0  0  0  0  0  0  0  0  0
   10.6211  -15.0377   23.3518 N   0  0  0  0  0  0  0  0  0  0  0  0
   10.9268  -16.5798   25.1383 C   0  0  0  0  0  0  0  0  0  0  0  0
   10.0207  -17.4263   24.9831 O   0  0  0  0  0  0  0  0  0  0  0  0
    9.1696  -15.8102   27.7282 C   0  0  0  0  0  0  0  0  0  0  0  0
    9.3314  -16.0514   29.0752 C   0  0  0  0  0  0  0  0  0  0  0  0
   12.1479  -16.9562   25.6625 O   0  0  0  0  0  0  0  0  0  0  0  0
  2  3  1  6
  2  1  1  0
  4  5  1  6
  4  2  1  0
  6  4  1  0
  7  6  2  0
  8  9  1  0
  8  6  1  0
 10  9  1  0
 11 10  1  0
 11 12  1  0
 12  8  1  0
 12 13  1  1
 13 14  2  0
 16 15  1  0
 17 16  2  0
 18 17  1  0
 19 25  1  0
 19 18  2  0
 21 20  1  1
 20 19  1  0
 21 22  1  0
 22 13  1  0
 23 21  1  0
 24 23  2  0
 25 26  2  0
 26 16  1  0
 27 23  1  0
M  END
$$$$
