VPY.pdb
     RDKit          3D

 27 28  0  0  1  0  0  0  0  0999 V2000
    8.5288  -12.4349   19.0727 C   0  0  0  0  0  0  0  0  0  0  0  0
    8.5537  -13.2419   20.3300 C   0  0  1  0  0  0  0  0  0  0  0  0
    7.8581  -12.5278   21.4428 C   0  0  0  0  0  0  0  0  0  0  0  0
    7.9201  -14.6224   20.0560 C   0  0  2  0  0  0  0  0  0  0  0  0
    6.7399  -14.3792   19.3226 N   0  0  0  0  0  0  0  0  0  0  0  0
    7.8499  -15.4065   21.2810 C   0  0  0  0  0  0  0  0  0  0  0  0
    7.2537  -14.7876   22.2486 O   0  0  0  0  0  0  0  0  0  0  0  0
    8.3054  -16.6830   21.5810 N   0  0  0  0  0  0  0  0  0  0  0  0
    8.0736  -17.8500   20.6773 C   0  0  0  0  0  0  0  0  0  0  0  0
    9.4865  -18.4254   20.6281 C   0  0  0  0  0  0  0  0  0  0  0  0
   10.2567  -17.7748   21.7924 C   0  0  0  0  0  0  0  0  0  0  0  0
    9.0329  -17.3263   22.6201 C   0  0  1  0  0  0  0  0  0  0  0  0
    9.3331  -16.7868   23.8873 C   0  0  0  0  0  0  0  0  0  0  0  0
   10.2187  -15.8263   23.8984 O   0  0  0  0  0  0  0  0  0  0  0  0
    5.5032  -11.6303   25.3908 O   0  0  0  0  0  0  0  0  0  0  0  0
    6.2370  -12.7102   25.8781 C   0  0  0  0  0  0  0  0  0  0  0  0
    5.6976  -13.9764   25.9490 C   0  0  0  0  0  0  0  0  0  0  0  0
    6.4475  -15.0238   26.4353 C   0  0  0  0  0  0  0  0  0  0  0  0
    7.7405  -14.8322   26.8573 C   0  0  0  0  0  0  0  0  0  0  0  0
    8.5479  -15.9599   27.3663 C   0  0  0  0  0  0  0  0  0  0  0  0
    9.4243  -16.6062   26.3802 C   0  0  2  0  0  0  0  0  0  0  0  0
    8.8548  -17.1047   25.1580 N   0  0  0  0  0  0  0  0  0  0  0  0
   10.1222  -17.7401   27.0694 C   0  0  0  0  0  0  0  0  0  0  0  0
   10.0234  -18.9289   26.6968 O   0  0  0  0  0  0  0  0  0  0  0  0
    8.2817  -13.5595   26.7861 C   0  0  0  0  0  0  0  0  0  0  0  0
    7.5444  -12.5008   26.3021 C   0  0  0  0  0  0  0  0  0  0  0  0
   10.9014  -17.4165   28.1628 O   0  0  0  0  0  0  0  0  0  0  0  0
  2  3  1  1
  2  1  1  0
  4  5  1  1
  4  2  1  0
  6  4  1  0
  7  6  2  0
  8  9  1  0
  8  6  1  0
 10  9  1  0
 11 10  1  0
 11 12  1  0
 12  8  1  0
 12 13  1  1
 13 14  2  0
 16 15  1  0
 17 16  2  0
 18 17  1  0
 19 25  1  0
 19 18  2  0
 21 20  1  1
 20 19  1  0
 21 22  1  0
 22 13  1  0
 23 21  1  0
 24 23  2  0
 25 26  2  0
 26 16  1  0
 27 23  1  0
M  END
$$$$
