VSN.pdb
     RDKit          3D

 22 21  0  0  1  0  0  0  0  0999 V2000
    8.4121  -11.7805   19.4479 C   0  0  0  0  0  0  0  0  0  0  0  0
    8.5202  -13.1615   20.0245 C   0  0  1  0  0  0  0  0  0  0  0  0
    7.1856  -13.5275   20.6299 C   0  0  0  0  0  0  0  0  0  0  0  0
    8.8848  -14.1929   18.9787 C   0  0  2  0  0  0  0  0  0  0  0  0
    7.8815  -14.2061   17.9329 N   0  0  0  0  0  0  0  0  0  0  0  0
    9.0750  -15.5416   19.5708 C   0  0  0  0  0  0  0  0  0  0  0  0
    8.3011  -16.4728   19.2279 O   0  0  0  0  0  0  0  0  0  0  0  0
   12.1890  -17.9339   19.7457 O   0  0  0  0  0  0  0  0  0  0  0  0
   10.7872  -17.9739   19.7174 C   0  0  0  0  0  0  0  0  0  0  0  0
   10.3048  -17.1784   20.9109 C   0  0  2  0  0  0  0  0  0  0  0  0
   10.0939  -15.8359   20.5119 N   0  0  0  0  0  0  0  0  0  0  0  0
   11.3291  -17.3379   21.9834 C   0  0  0  0  0  0  0  0  0  0  0  0
   12.3229  -16.5724   22.0900 O   0  0  0  0  0  0  0  0  0  0  0  0
   12.9228  -20.4735   26.7090 N   0  0  0  0  0  0  0  0  0  0  0  0
   12.2230  -19.2869   26.4014 C   0  0  0  0  0  0  0  0  0  0  0  0
   12.3574  -18.2938   27.1376 O   0  0  0  0  0  0  0  0  0  0  0  0
   11.3501  -19.2375   25.2241 C   0  0  0  0  0  0  0  0  0  0  0  0
   12.0163  -18.4815   24.1300 C   0  0  2  0  0  0  0  0  0  0  0  0
   11.1969  -18.3883   22.9320 N   0  0  0  0  0  0  0  0  0  0  0  0
   13.3864  -18.9402   23.8264 C   0  0  0  0  0  0  0  0  0  0  0  0
   13.6085  -19.8391   22.9888 O   0  0  0  0  0  0  0  0  0  0  0  0
   14.4812  -18.3804   24.4695 O   0  0  0  0  0  0  0  0  0  0  0  0
  2  1  1  6
  2  3  1  0
  4  6  1  0
  4  2  1  0
  4  5  1  6
  6 11  1  0
  7  6  2  0
 10  9  1  6
  9  8  1  0
 10 12  1  0
 11 10  1  0
 12 13  2  0
 12 19  1  0
 14 15  1  0
 15 16  2  0
 15 17  1  0
 18 17  1  1
 18 20  1  0
 19 18  1  0
 20 22  1  0
 21 20  2  0
M  END
$$$$
