VSN.pdb
     RDKit          3D

 22 21  0  0  1  0  0  0  0  0999 V2000
    9.1900  -12.6872   20.2661 C   0  0  0  0  0  0  0  0  0  0  0  0
    8.3293  -13.6966   19.5648 C   0  0  1  0  0  0  0  0  0  0  0  0
    7.0798  -12.9989   19.0815 C   0  0  0  0  0  0  0  0  0  0  0  0
    9.0310  -14.3243   18.3799 C   0  0  2  0  0  0  0  0  0  0  0  0
    8.1310  -15.2383   17.7053 N   0  0  0  0  0  0  0  0  0  0  0  0
   10.2962  -14.9946   18.7744 C   0  0  0  0  0  0  0  0  0  0  0  0
   10.2449  -16.1477   19.2756 O   0  0  0  0  0  0  0  0  0  0  0  0
   14.1366  -14.6707   17.3256 O   0  0  0  0  0  0  0  0  0  0  0  0
   13.9530  -14.3133   18.6694 C   0  0  0  0  0  0  0  0  0  0  0  0
   12.7141  -15.0391   19.1475 C   0  0  2  0  0  0  0  0  0  0  0  0
   11.5712  -14.3953   18.6135 N   0  0  0  0  0  0  0  0  0  0  0  0
   12.7630  -15.0484   20.6383 C   0  0  0  0  0  0  0  0  0  0  0  0
   12.0338  -14.3038   21.3446 O   0  0  0  0  0  0  0  0  0  0  0  0
   13.3228  -16.5073   25.3907 N   0  0  0  0  0  0  0  0  0  0  0  0
   12.2359  -16.9378   24.5996 C   0  0  0  0  0  0  0  0  0  0  0  0
   11.2684  -17.4947   25.1475 O   0  0  0  0  0  0  0  0  0  0  0  0
   12.2583  -16.7251   23.1489 C   0  0  0  0  0  0  0  0  0  0  0  0
   13.5855  -16.1970   22.7340 C   0  0  2  0  0  0  0  0  0  0  0  0
   13.6605  -15.9245   21.3073 N   0  0  0  0  0  0  0  0  0  0  0  0
   14.7297  -17.0044   23.2019 C   0  0  0  0  0  0  0  0  0  0  0  0
   14.8740  -18.1978   22.8645 O   0  0  0  0  0  0  0  0  0  0  0  0
   15.6901  -16.4557   24.0397 O   0  0  0  0  0  0  0  0  0  0  0  0
  2  1  1  6
  2  3  1  0
  4  6  1  0
  4  2  1  0
  4  5  1  1
  6 11  1  0
  7  6  2  0
 10  9  1  6
  9  8  1  0
 10 12  1  0
 11 10  1  0
 12 13  2  0
 12 19  1  0
 14 15  1  0
 15 16  2  0
 15 17  1  0
 18 17  1  6
 18 20  1  0
 19 18  1  0
 20 22  1  0
 21 20  2  0
M  END
$$$$
