VSN.pdb
     RDKit          3D

 22 21  0  0  1  0  0  0  0  0999 V2000
    6.8676  -19.3785   18.2638 C   0  0  0  0  0  0  0  0  0  0  0  0
    7.6922  -18.6415   19.2779 C   0  0  1  0  0  0  0  0  0  0  0  0
    8.9415  -19.4466   19.5475 C   0  0  0  0  0  0  0  0  0  0  0  0
    8.0903  -17.2618   18.8002 C   0  0  2  0  0  0  0  0  0  0  0  0
    8.8011  -17.3652   17.5415 N   0  0  0  0  0  0  0  0  0  0  0  0
    8.8854  -16.5290   19.8184 C   0  0  0  0  0  0  0  0  0  0  0  0
   10.1400  -16.6223   19.7953 O   0  0  0  0  0  0  0  0  0  0  0  0
    7.1376  -14.7641   23.0109 O   0  0  0  0  0  0  0  0  0  0  0  0
    8.3133  -14.1234   22.5931 C   0  0  0  0  0  0  0  0  0  0  0  0
    9.1189  -15.1492   21.8256 C   0  0  2  0  0  0  0  0  0  0  0  0
    8.2966  -15.7222   20.8249 N   0  0  0  0  0  0  0  0  0  0  0  0
    9.6347  -16.1320   22.8220 C   0  0  0  0  0  0  0  0  0  0  0  0
    9.1008  -17.2580   23.0017 O   0  0  0  0  0  0  0  0  0  0  0  0
   14.0101  -15.6605   22.7181 N   0  0  0  0  0  0  0  0  0  0  0  0
   13.4446  -16.7646   23.3917 C   0  0  0  0  0  0  0  0  0  0  0  0
   13.4834  -17.8871   22.8580 O   0  0  0  0  0  0  0  0  0  0  0  0
   12.8211  -16.5779   24.7057 C   0  0  0  0  0  0  0  0  0  0  0  0
   11.3443  -16.7132   24.5904 C   0  0  2  0  0  0  0  0  0  0  0  0
   10.7720  -15.8047   23.6094 N   0  0  0  0  0  0  0  0  0  0  0  0
   10.6298  -16.6522   25.8810 C   0  0  0  0  0  0  0  0  0  0  0  0
    9.7143  -15.8287   26.0875 O   0  0  0  0  0  0  0  0  0  0  0  0
   10.9574  -17.5174   26.9152 O   0  0  0  0  0  0  0  0  0  0  0  0
  2  1  1  6
  2  3  1  0
  4  6  1  0
  4  2  1  0
  4  5  1  6
  6 11  1  0
  7  6  2  0
 10  9  1  1
  9  8  1  0
 10 12  1  0
 11 10  1  0
 12 13  2  0
 12 19  1  0
 14 15  1  0
 15 16  2  0
 15 17  1  0
 18 17  1  1
 18 20  1  0
 19 18  1  0
 20 22  1  0
 21 20  2  0
M  END
$$$$
