VSN.pdb
     RDKit          3D

 22 21  0  0  1  0  0  0  0  0999 V2000
    8.8457  -12.6316   20.9501 C   0  0  0  0  0  0  0  0  0  0  0  0
    7.7474  -13.3577   20.2305 C   0  0  1  0  0  0  0  0  0  0  0  0
    7.7190  -12.8748   18.7996 C   0  0  0  0  0  0  0  0  0  0  0  0
    7.9497  -14.8575   20.2390 C   0  0  2  0  0  0  0  0  0  0  0  0
    6.9831  -15.4873   19.3619 N   0  0  0  0  0  0  0  0  0  0  0  0
    7.8885  -15.4188   21.6126 C   0  0  0  0  0  0  0  0  0  0  0  0
    6.8248  -15.2980   22.2740 O   0  0  0  0  0  0  0  0  0  0  0  0
    9.9060  -18.4683   22.9377 O   0  0  0  0  0  0  0  0  0  0  0  0
    8.8248  -17.9706   23.6797 C   0  0  0  0  0  0  0  0  0  0  0  0
    8.8906  -16.4616   23.5864 C   0  0  2  0  0  0  0  0  0  0  0  0
    8.9784  -16.0903   22.2225 N   0  0  0  0  0  0  0  0  0  0  0  0
   10.0554  -16.0249   24.4094 C   0  0  0  0  0  0  0  0  0  0  0  0
   11.2226  -15.9472   23.9438 O   0  0  0  0  0  0  0  0  0  0  0  0
    9.6283  -13.8789   29.5896 N   0  0  0  0  0  0  0  0  0  0  0  0
    9.5387  -14.1157   28.2010 C   0  0  0  0  0  0  0  0  0  0  0  0
    8.4330  -14.3870   27.7008 O   0  0  0  0  0  0  0  0  0  0  0  0
   10.7427  -14.0396   27.3674 C   0  0  0  0  0  0  0  0  0  0  0  0
   10.9575  -15.3342   26.6671 C   0  0  2  0  0  0  0  0  0  0  0  0
    9.8621  -15.6783   25.7744 N   0  0  0  0  0  0  0  0  0  0  0  0
   11.3114  -16.4536   27.5624 C   0  0  0  0  0  0  0  0  0  0  0  0
   12.2911  -16.3939   28.3342 O   0  0  0  0  0  0  0  0  0  0  0  0
   10.5580  -17.6187   27.5739 O   0  0  0  0  0  0  0  0  0  0  0  0
  2  1  1  1
  2  3  1  0
  4  6  1  0
  4  2  1  0
  4  5  1  6
  6 11  1  0
  7  6  2  0
 10  9  1  6
  9  8  1  0
 10 12  1  0
 11 10  1  0
 12 13  2  0
 12 19  1  0
 14 15  1  0
 15 16  2  0
 15 17  1  0
 18 17  1  1
 18 20  1  0
 19 18  1  0
 20 22  1  0
 21 20  2  0
M  END
$$$$
