VSN.pdb
     RDKit          3D

 22 21  0  0  1  0  0  0  0  0999 V2000
    7.8794  -13.1366   18.1486 C   0  0  0  0  0  0  0  0  0  0  0  0
    8.2714  -13.2208   19.5945 C   0  0  1  0  0  0  0  0  0  0  0  0
    7.1502  -12.6401   20.4235 C   0  0  0  0  0  0  0  0  0  0  0  0
    8.5236  -14.6455   20.0384 C   0  0  2  0  0  0  0  0  0  0  0  0
    7.4187  -15.4892   19.6288 N   0  0  0  0  0  0  0  0  0  0  0  0
    8.7685  -14.7371   21.5004 C   0  0  0  0  0  0  0  0  0  0  0  0
    9.8063  -14.2105   21.9790 O   0  0  0  0  0  0  0  0  0  0  0  0
    6.3836  -16.9173   23.8994 O   0  0  0  0  0  0  0  0  0  0  0  0
    6.9527  -15.8110   24.5472 C   0  0  0  0  0  0  0  0  0  0  0  0
    8.2004  -15.4471   23.7721 C   0  0  2  0  0  0  0  0  0  0  0  0
    7.8838  -15.3942   22.3926 N   0  0  0  0  0  0  0  0  0  0  0  0
    9.2385  -16.4611   24.1170 C   0  0  0  0  0  0  0  0  0  0  0  0
    9.5150  -17.4308   23.3631 O   0  0  0  0  0  0  0  0  0  0  0  0
   13.6949  -16.6940   23.7339 N   0  0  0  0  0  0  0  0  0  0  0  0
   13.2238  -17.3794   24.8744 C   0  0  0  0  0  0  0  0  0  0  0  0
   13.5747  -18.5572   25.0639 O   0  0  0  0  0  0  0  0  0  0  0  0
   12.3310  -16.6998   25.8185 C   0  0  0  0  0  0  0  0  0  0  0  0
   10.9718  -17.3006   25.7537 C   0  0  2  0  0  0  0  0  0  0  0  0
    9.9552  -16.3467   25.3392 N   0  0  0  0  0  0  0  0  0  0  0  0
   10.5764  -18.0324   26.9735 C   0  0  0  0  0  0  0  0  0  0  0  0
   10.6467  -17.5102   28.1055 O   0  0  0  0  0  0  0  0  0  0  0  0
   10.1094  -19.3369   26.8986 O   0  0  0  0  0  0  0  0  0  0  0  0
  2  1  1  6
  2  3  1  0
  4  6  1  0
  4  2  1  0
  4  5  1  1
  6 11  1  0
  7  6  2  0
 10  9  1  1
  9  8  1  0
 10 12  1  0
 11 10  1  0
 12 13  2  0
 12 19  1  0
 14 15  1  0
 15 16  2  0
 15 17  1  0
 18 17  1  1
 18 20  1  0
 19 18  1  0
 20 22  1  0
 21 20  2  0
M  END
$$$$
