VSN.pdb
     RDKit          3D

 22 21  0  0  1  0  0  0  0  0999 V2000
    8.1364  -17.5760   16.2157 C   0  0  0  0  0  0  0  0  0  0  0  0
    8.4220  -16.8130   14.9557 C   0  0  1  0  0  0  0  0  0  0  0  0
    7.5547  -17.3760   13.8546 C   0  0  0  0  0  0  0  0  0  0  0  0
    8.1322  -15.3348   15.1021 C   0  0  2  0  0  0  0  0  0  0  0  0
    8.3661  -14.6623   13.8398 N   0  0  0  0  0  0  0  0  0  0  0  0
    8.9181  -14.7207   16.2025 C   0  0  0  0  0  0  0  0  0  0  0  0
   10.1603  -14.5793   16.0595 O   0  0  0  0  0  0  0  0  0  0  0  0
    7.4465  -14.0274   19.9405 O   0  0  0  0  0  0  0  0  0  0  0  0
    8.2416  -12.9947   19.4222 C   0  0  0  0  0  0  0  0  0  0  0  0
    9.1394  -13.6196   18.3764 C   0  0  2  0  0  0  0  0  0  0  0  0
    8.3342  -14.2818   17.4178 N   0  0  0  0  0  0  0  0  0  0  0  0
   10.0867  -14.5188   19.0968 C   0  0  0  0  0  0  0  0  0  0  0  0
    9.9325  -15.7675   19.1434 O   0  0  0  0  0  0  0  0  0  0  0  0
   15.4172  -15.6420   20.4187 N   0  0  0  0  0  0  0  0  0  0  0  0
   14.4851  -14.9695   21.2380 C   0  0  0  0  0  0  0  0  0  0  0  0
   14.5126  -15.1537   22.4675 O   0  0  0  0  0  0  0  0  0  0  0  0
   13.5001  -14.0659   20.6350 C   0  0  0  0  0  0  0  0  0  0  0  0
   12.2072  -14.7771   20.4476 C   0  0  2  0  0  0  0  0  0  0  0  0
   11.2136  -13.9650   19.7632 N   0  0  0  0  0  0  0  0  0  0  0  0
   11.6681  -15.3847   21.6806 C   0  0  0  0  0  0  0  0  0  0  0  0
   10.7846  -14.8212   22.3594 O   0  0  0  0  0  0  0  0  0  0  0  0
   12.1319  -16.6137   22.1275 O   0  0  0  0  0  0  0  0  0  0  0  0
  2  1  1  1
  2  3  1  0
  4  6  1  0
  4  2  1  0
  4  5  1  6
  6 11  1  0
  7  6  2  0
 10  9  1  1
  9  8  1  0
 10 12  1  0
 11 10  1  0
 12 13  2  0
 12 19  1  0
 14 15  1  0
 15 16  2  0
 15 17  1  0
 18 17  1  1
 18 20  1  0
 19 18  1  0
 20 22  1  0
 21 20  2  0
M  END
$$$$
