VSN.pdb
     RDKit          3D

 22 21  0  0  1  0  0  0  0  0999 V2000
    8.1802  -18.6734   18.9573 C   0  0  0  0  0  0  0  0  0  0  0  0
    8.8162  -18.0814   20.1807 C   0  0  1  0  0  0  0  0  0  0  0  0
   10.1961  -18.6768   20.3320 C   0  0  0  0  0  0  0  0  0  0  0  0
    8.9378  -16.5755   20.0923 C   0  0  2  0  0  0  0  0  0  0  0  0
    9.7214  -16.2147   18.9278 N   0  0  0  0  0  0  0  0  0  0  0  0
    9.5030  -15.9897   21.3345 C   0  0  0  0  0  0  0  0  0  0  0  0
   10.7259  -15.6950   21.3682 O   0  0  0  0  0  0  0  0  0  0  0  0
    7.3088  -15.7215   24.7139 O   0  0  0  0  0  0  0  0  0  0  0  0
    8.3265  -14.7600   24.6298 C   0  0  0  0  0  0  0  0  0  0  0  0
    9.3692  -15.3114   23.6817 C   0  0  2  0  0  0  0  0  0  0  0  0
    8.7272  -15.7434   22.4956 N   0  0  0  0  0  0  0  0  0  0  0  0
   10.0899  -16.3955   24.4098 C   0  0  0  0  0  0  0  0  0  0  0  0
    9.7493  -17.6052   24.3334 O   0  0  0  0  0  0  0  0  0  0  0  0
   14.3358  -15.6164   24.0659 N   0  0  0  0  0  0  0  0  0  0  0  0
   13.8338  -16.8282   24.5872 C   0  0  0  0  0  0  0  0  0  0  0  0
   13.7774  -17.8293   23.8515 O   0  0  0  0  0  0  0  0  0  0  0  0
   13.3870  -16.8943   25.9823 C   0  0  0  0  0  0  0  0  0  0  0  0
   11.9094  -17.0569   26.0346 C   0  0  2  0  0  0  0  0  0  0  0  0
   11.2070  -16.0721   25.2271 N   0  0  0  0  0  0  0  0  0  0  0  0
   11.3594  -17.1419   27.4021 C   0  0  0  0  0  0  0  0  0  0  0  0
   10.4401  -16.3908   27.7891 O   0  0  0  0  0  0  0  0  0  0  0  0
   11.8525  -18.0691   28.3091 O   0  0  0  0  0  0  0  0  0  0  0  0
  2  1  1  6
  2  3  1  0
  4  6  1  0
  4  2  1  0
  4  5  1  6
  6 11  1  0
  7  6  2  0
 10  9  1  1
  9  8  1  0
 10 12  1  0
 11 10  1  0
 12 13  2  0
 12 19  1  0
 14 15  1  0
 15 16  2  0
 15 17  1  0
 18 17  1  1
 18 20  1  0
 19 18  1  0
 20 22  1  0
 21 20  2  0
M  END
$$$$
