VSN.pdb
     RDKit          3D

 22 21  0  0  1  0  0  0  0  0999 V2000
   14.1833  -19.9477   18.6681 C   0  0  0  0  0  0  0  0  0  0  0  0
   13.3185  -19.1162   17.7669 C   0  0  1  0  0  0  0  0  0  0  0  0
   12.7987  -20.0025   16.6598 C   0  0  0  0  0  0  0  0  0  0  0  0
   12.1437  -18.5071   18.5013 C   0  0  2  0  0  0  0  0  0  0  0  0
   11.2548  -17.8631   17.5550 N   0  0  0  0  0  0  0  0  0  0  0  0
   12.5801  -17.5691   19.5669 C   0  0  0  0  0  0  0  0  0  0  0  0
   13.2112  -16.5297   19.2434 O   0  0  0  0  0  0  0  0  0  0  0  0
   11.1418  -17.8201   23.2558 O   0  0  0  0  0  0  0  0  0  0  0  0
   11.6709  -16.5737   22.8899 C   0  0  0  0  0  0  0  0  0  0  0  0
   12.7792  -16.8460   21.8960 C   0  0  2  0  0  0  0  0  0  0  0  0
   12.3192  -17.7877   20.9434 N   0  0  0  0  0  0  0  0  0  0  0  0
   13.9630  -17.3050   22.6788 C   0  0  0  0  0  0  0  0  0  0  0  0
   14.3177  -18.5121   22.7251 O   0  0  0  0  0  0  0  0  0  0  0  0
   18.5306  -15.6906   22.7008 N   0  0  0  0  0  0  0  0  0  0  0  0
   17.3550  -15.1067   23.2201 C   0  0  0  0  0  0  0  0  0  0  0  0
   16.8069  -14.1833   22.5930 O   0  0  0  0  0  0  0  0  0  0  0  0
   16.7954  -15.5921   24.4856 C   0  0  0  0  0  0  0  0  0  0  0  0
   15.8750  -16.7322   24.2293 C   0  0  2  0  0  0  0  0  0  0  0  0
   14.7342  -16.3593   23.4078 N   0  0  0  0  0  0  0  0  0  0  0  0
   15.4638  -17.4613   25.4454 C   0  0  0  0  0  0  0  0  0  0  0  0
   14.5392  -17.0507   26.1773 O   0  0  0  0  0  0  0  0  0  0  0  0
   16.0988  -18.6379   25.8164 O   0  0  0  0  0  0  0  0  0  0  0  0
  2  1  1  1
  2  3  1  0
  4  6  1  0
  4  2  1  0
  4  5  1  6
  6 11  1  0
  7  6  2  0
 10  9  1  1
  9  8  1  0
 10 12  1  0
 11 10  1  0
 12 13  2  0
 12 19  1  0
 14 15  1  0
 15 16  2  0
 15 17  1  0
 18 17  1  1
 18 20  1  0
 19 18  1  0
 20 22  1  0
 21 20  2  0
M  END
$$$$
