VSN.pdb
     RDKit          3D

 22 21  0  0  1  0  0  0  0  0999 V2000
    2.4216  -19.6636   20.1769 C   0  0  0  0  0  0  0  0  0  0  0  0
    1.0115  -20.1716   20.1056 C   0  0  1  0  0  0  0  0  0  0  0  0
    0.4641  -19.8578   18.7333 C   0  0  0  0  0  0  0  0  0  0  0  0
    0.9273  -21.6646   20.3386 C   0  0  2  0  0  0  0  0  0  0  0  0
   -0.4349  -22.1160   20.1361 N   0  0  0  0  0  0  0  0  0  0  0  0
    1.4362  -22.0474   21.6803 C   0  0  0  0  0  0  0  0  0  0  0  0
    0.8814  -21.5674   22.7027 O   0  0  0  0  0  0  0  0  0  0  0  0
    3.3860  -25.3467   22.3920 O   0  0  0  0  0  0  0  0  0  0  0  0
    2.8627  -24.6494   23.4907 C   0  0  0  0  0  0  0  0  0  0  0  0
    3.0068  -23.1754   23.1797 C   0  0  2  0  0  0  0  0  0  0  0  0
    2.5260  -22.9345   21.8694 N   0  0  0  0  0  0  0  0  0  0  0  0
    4.4449  -22.8286   23.3706 C   0  0  0  0  0  0  0  0  0  0  0  0
    5.2581  -22.7596   22.4119 O   0  0  0  0  0  0  0  0  0  0  0  0
    5.7524  -20.0853   23.4128 N   0  0  0  0  0  0  0  0  0  0  0  0
    6.1306  -19.8092   24.7444 C   0  0  0  0  0  0  0  0  0  0  0  0
    6.1796  -18.6279   25.1298 O   0  0  0  0  0  0  0  0  0  0  0  0
    6.4598  -20.9112   25.6541 C   0  0  0  0  0  0  0  0  0  0  0  0
    6.3228  -22.2120   24.9458 C   0  0  2  0  0  0  0  0  0  0  0  0
    4.9369  -22.5620   24.6773 N   0  0  0  0  0  0  0  0  0  0  0  0
    7.0597  -23.3242   25.5780 C   0  0  0  0  0  0  0  0  0  0  0  0
    6.5897  -23.9590   26.5450 O   0  0  0  0  0  0  0  0  0  0  0  0
    8.3107  -23.7024   25.1118 O   0  0  0  0  0  0  0  0  0  0  0  0
  2  1  1  6
  2  3  1  0
  4  6  1  0
  4  2  1  0
  4  5  1  1
  6 11  1  0
  7  6  2  0
 10  9  1  6
  9  8  1  0
 10 12  1  0
 11 10  1  0
 12 13  2  0
 12 19  1  0
 14 15  1  0
 15 16  2  0
 15 17  1  0
 18 17  1  1
 18 20  1  0
 19 18  1  0
 20 22  1  0
 21 20  2  0
M  END
$$$$
