VSN.pdb
     RDKit          3D

 22 21  0  0  1  0  0  0  0  0999 V2000
    8.0860  -16.8513   17.6917 C   0  0  0  0  0  0  0  0  0  0  0  0
    8.3693  -15.6299   16.8674 C   0  0  1  0  0  0  0  0  0  0  0  0
    7.6292  -15.7609   15.5572 C   0  0  0  0  0  0  0  0  0  0  0  0
    7.9266  -14.3574   17.5567 C   0  0  2  0  0  0  0  0  0  0  0  0
    8.1483  -13.2235   16.6818 N   0  0  0  0  0  0  0  0  0  0  0  0
    8.5969  -14.1742   18.8693 C   0  0  0  0  0  0  0  0  0  0  0  0
    9.8036  -13.8182   18.8935 O   0  0  0  0  0  0  0  0  0  0  0  0
    6.6712  -14.9029   22.3327 O   0  0  0  0  0  0  0  0  0  0  0  0
    7.6703  -13.9234   22.4322 C   0  0  0  0  0  0  0  0  0  0  0  0
    8.6557  -14.1917   21.3155 C   0  0  2  0  0  0  0  0  0  0  0  0
    7.9397  -14.3822   20.1085 N   0  0  0  0  0  0  0  0  0  0  0  0
    9.4716  -15.3701   21.7284 C   0  0  0  0  0  0  0  0  0  0  0  0
    9.1757  -16.5483   21.3974 O   0  0  0  0  0  0  0  0  0  0  0  0
   13.8748  -14.4144   21.2804 N   0  0  0  0  0  0  0  0  0  0  0  0
   13.3165  -15.6727   21.5922 C   0  0  0  0  0  0  0  0  0  0  0  0
   13.1788  -16.5170   20.6896 O   0  0  0  0  0  0  0  0  0  0  0  0
   12.9070  -15.9699   22.9685 C   0  0  0  0  0  0  0  0  0  0  0  0
   11.4522  -16.2772   23.0099 C   0  0  2  0  0  0  0  0  0  0  0  0
   10.6319  -15.1777   22.5266 N   0  0  0  0  0  0  0  0  0  0  0  0
   10.9795  -16.7864   24.3126 C   0  0  0  0  0  0  0  0  0  0  0  0
   11.5000  -17.7819   24.8576 O   0  0  0  0  0  0  0  0  0  0  0  0
    9.9312  -16.1676   24.9785 O   0  0  0  0  0  0  0  0  0  0  0  0
  2  1  1  1
  2  3  1  0
  4  6  1  0
  4  2  1  0
  4  5  1  6
  6 11  1  0
  7  6  2  0
 10  9  1  1
  9  8  1  0
 10 12  1  0
 11 10  1  0
 12 13  2  0
 12 19  1  0
 14 15  1  0
 15 16  2  0
 15 17  1  0
 18 17  1  1
 18 20  1  0
 19 18  1  0
 20 22  1  0
 21 20  2  0
M  END
$$$$
