VSN.pdb
     RDKit          3D

 22 21  0  0  1  0  0  0  0  0999 V2000
    8.6725  -16.4184   17.1790 C   0  0  0  0  0  0  0  0  0  0  0  0
    8.7182  -15.0506   16.5636 C   0  0  1  0  0  0  0  0  0  0  0  0
    8.0666  -15.1219   15.2027 C   0  0  0  0  0  0  0  0  0  0  0  0
    7.9935  -14.0199   17.4020 C   0  0  2  0  0  0  0  0  0  0  0  0
    8.0523  -12.7276   16.7486 N   0  0  0  0  0  0  0  0  0  0  0  0
    8.5253  -13.9568   18.7872 C   0  0  0  0  0  0  0  0  0  0  0  0
    9.6137  -13.3609   18.9961 O   0  0  0  0  0  0  0  0  0  0  0  0
    8.0228  -14.5640   23.4735 O   0  0  0  0  0  0  0  0  0  0  0  0
    7.4186  -14.7820   22.2266 C   0  0  0  0  0  0  0  0  0  0  0  0
    8.4660  -14.4803   21.1767 C   0  0  2  0  0  0  0  0  0  0  0  0
    7.8623  -14.5396   19.8969 N   0  0  0  0  0  0  0  0  0  0  0  0
    9.5723  -15.4619   21.3708 C   0  0  0  0  0  0  0  0  0  0  0  0
    9.4484  -16.6847   21.0980 O   0  0  0  0  0  0  0  0  0  0  0  0
   13.3942  -14.3002   19.4859 N   0  0  0  0  0  0  0  0  0  0  0  0
   13.1799  -15.4961   20.2044 C   0  0  0  0  0  0  0  0  0  0  0  0
   12.9602  -16.5490   19.5803 O   0  0  0  0  0  0  0  0  0  0  0  0
   13.2184  -15.4850   21.6702 C   0  0  0  0  0  0  0  0  0  0  0  0
   11.9079  -15.9298   22.2156 C   0  0  2  0  0  0  0  0  0  0  0  0
   10.8230  -15.0204   21.8822 N   0  0  0  0  0  0  0  0  0  0  0  0
   11.9321  -16.2546   23.6557 C   0  0  0  0  0  0  0  0  0  0  0  0
   12.7849  -17.0265   24.1414 O   0  0  0  0  0  0  0  0  0  0  0  0
   10.9980  -15.7060   24.5228 O   0  0  0  0  0  0  0  0  0  0  0  0
  2  1  1  1
  2  3  1  0
  4  6  1  0
  4  2  1  0
  4  5  1  6
  6 11  1  0
  7  6  2  0
 10  9  1  1
  9  8  1  0
 10 12  1  0
 11 10  1  0
 12 13  2  0
 12 19  1  0
 14 15  1  0
 15 16  2  0
 15 17  1  0
 18 17  1  1
 18 20  1  0
 19 18  1  0
 20 22  1  0
 21 20  2  0
M  END
$$$$
