VSN.pdb
     RDKit          3D

 22 21  0  0  1  0  0  0  0  0999 V2000
    6.7565  -13.7837   18.2873 C   0  0  0  0  0  0  0  0  0  0  0  0
    7.4099  -14.2473   19.5560 C   0  0  1  0  0  0  0  0  0  0  0  0
    8.4706  -15.2617   19.1989 C   0  0  0  0  0  0  0  0  0  0  0  0
    8.0546  -13.1098   20.3181 C   0  0  2  0  0  0  0  0  0  0  0  0
    9.0445  -12.4595   19.4830 N   0  0  0  0  0  0  0  0  0  0  0  0
    8.6389  -13.5641   21.6057 C   0  0  0  0  0  0  0  0  0  0  0  0
    9.8608  -13.8616   21.6496 O   0  0  0  0  0  0  0  0  0  0  0  0
    6.4092  -14.8010   24.8466 O   0  0  0  0  0  0  0  0  0  0  0  0
    7.5526  -14.0407   25.1327 C   0  0  0  0  0  0  0  0  0  0  0  0
    8.4943  -14.2129   23.9606 C   0  0  2  0  0  0  0  0  0  0  0  0
    7.8825  -13.6809   22.7993 N   0  0  0  0  0  0  0  0  0  0  0  0
    8.8109  -15.6674   23.8664 C   0  0  0  0  0  0  0  0  0  0  0  0
    8.5552  -16.3512   22.8406 O   0  0  0  0  0  0  0  0  0  0  0  0
   12.4002  -18.9915   22.6896 N   0  0  0  0  0  0  0  0  0  0  0  0
   12.4860  -18.0861   23.7690 C   0  0  0  0  0  0  0  0  0  0  0  0
   13.3863  -18.2319   24.6145 O   0  0  0  0  0  0  0  0  0  0  0  0
   11.5190  -16.9895   23.8819 C   0  0  0  0  0  0  0  0  0  0  0  0
   10.4190  -17.3762   24.8055 C   0  0  2  0  0  0  0  0  0  0  0  0
    9.4252  -16.3264   24.9659 N   0  0  0  0  0  0  0  0  0  0  0  0
   10.8793  -17.9028   26.1057 C   0  0  0  0  0  0  0  0  0  0  0  0
   10.9570  -19.1289   26.3284 O   0  0  0  0  0  0  0  0  0  0  0  0
   11.2438  -17.0420   27.1312 O   0  0  0  0  0  0  0  0  0  0  0  0
  2  1  1  6
  2  3  1  0
  4  6  1  0
  4  2  1  0
  4  5  1  6
  6 11  1  0
  7  6  2  0
 10  9  1  1
  9  8  1  0
 10 12  1  0
 11 10  1  0
 12 13  2  0
 12 19  1  0
 14 15  1  0
 15 16  2  0
 15 17  1  0
 18 17  1  1
 18 20  1  0
 19 18  1  0
 20 22  1  0
 21 20  2  0
M  END
$$$$
