VSN.pdb
     RDKit          3D

 22 21  0  0  1  0  0  0  0  0999 V2000
    7.7259  -14.9530   16.4949 C   0  0  0  0  0  0  0  0  0  0  0  0
    8.6135  -14.6747   17.6723 C   0  0  1  0  0  0  0  0  0  0  0  0
    9.3467  -13.3791   17.4166 C   0  0  0  0  0  0  0  0  0  0  0  0
    7.8327  -14.5511   18.9628 C   0  0  2  0  0  0  0  0  0  0  0  0
    6.8082  -13.5360   18.8202 N   0  0  0  0  0  0  0  0  0  0  0  0
    8.7173  -14.2756   20.1235 C   0  0  0  0  0  0  0  0  0  0  0  0
    9.1445  -13.1053   20.3005 O   0  0  0  0  0  0  0  0  0  0  0  0
    8.8087  -16.5025   23.3000 O   0  0  0  0  0  0  0  0  0  0  0  0
    9.4428  -15.2564   23.4114 C   0  0  0  0  0  0  0  0  0  0  0  0
   10.0514  -14.9552   22.0589 C   0  0  2  0  0  0  0  0  0  0  0  0
    9.1088  -15.2741   21.0511 N   0  0  0  0  0  0  0  0  0  0  0  0
   11.3206  -15.7335   21.9695 C   0  0  0  0  0  0  0  0  0  0  0  0
   11.3888  -16.8552   21.4019 O   0  0  0  0  0  0  0  0  0  0  0  0
   14.2827  -13.6387   20.1438 N   0  0  0  0  0  0  0  0  0  0  0  0
   14.6625  -14.9269   20.5785 C   0  0  0  0  0  0  0  0  0  0  0  0
   14.7909  -15.8375   19.7414 O   0  0  0  0  0  0  0  0  0  0  0  0
   14.9003  -15.1767   22.0037 C   0  0  0  0  0  0  0  0  0  0  0  0
   13.7640  -15.9436   22.5809 C   0  0  2  0  0  0  0  0  0  0  0  0
   12.5109  -15.2064   22.5406 N   0  0  0  0  0  0  0  0  0  0  0  0
   14.0317  -16.5029   23.9208 C   0  0  0  0  0  0  0  0  0  0  0  0
   13.3003  -16.2448   24.8993 O   0  0  0  0  0  0  0  0  0  0  0  0
   15.1160  -17.3414   24.1362 O   0  0  0  0  0  0  0  0  0  0  0  0
  2  1  1  6
  2  3  1  0
  4  6  1  0
  4  2  1  0
  4  5  1  6
  6 11  1  0
  7  6  2  0
 10  9  1  1
  9  8  1  0
 10 12  1  0
 11 10  1  0
 12 13  2  0
 12 19  1  0
 14 15  1  0
 15 16  2  0
 15 17  1  0
 18 17  1  1
 18 20  1  0
 19 18  1  0
 20 22  1  0
 21 20  2  0
M  END
$$$$
