VSN.pdb
     RDKit          3D

 22 21  0  0  1  0  0  0  0  0999 V2000
    6.9952  -16.0142   19.8458 C   0  0  0  0  0  0  0  0  0  0  0  0
    7.6925  -14.8968   19.1269 C   0  0  1  0  0  0  0  0  0  0  0  0
    6.9853  -14.6657   17.8124 C   0  0  0  0  0  0  0  0  0  0  0  0
    7.6841  -13.6094   19.9224 C   0  0  2  0  0  0  0  0  0  0  0  0
    8.2992  -12.5505   19.1474 N   0  0  0  0  0  0  0  0  0  0  0  0
    8.3390  -13.7695   21.2458 C   0  0  0  0  0  0  0  0  0  0  0  0
    9.5959  -13.7801   21.3068 O   0  0  0  0  0  0  0  0  0  0  0  0
    6.2103  -14.6305   24.5663 O   0  0  0  0  0  0  0  0  0  0  0  0
    7.3785  -13.8995   24.8276 C   0  0  0  0  0  0  0  0  0  0  0  0
    8.3144  -14.1439   23.6637 C   0  0  2  0  0  0  0  0  0  0  0  0
    7.6130  -13.9125   22.4553 N   0  0  0  0  0  0  0  0  0  0  0  0
    8.8327  -15.5352   23.8064 C   0  0  0  0  0  0  0  0  0  0  0  0
    8.1926  -16.5413   23.4024 O   0  0  0  0  0  0  0  0  0  0  0  0
   13.0862  -15.9949   22.1462 N   0  0  0  0  0  0  0  0  0  0  0  0
   12.0934  -16.8600   22.6544 C   0  0  0  0  0  0  0  0  0  0  0  0
   11.2532  -17.3445   21.8761 O   0  0  0  0  0  0  0  0  0  0  0  0
   12.0630  -17.1768   24.0858 C   0  0  0  0  0  0  0  0  0  0  0  0
   10.6695  -17.0807   24.5972 C   0  0  2  0  0  0  0  0  0  0  0  0
   10.0961  -15.7560   24.4194 N   0  0  0  0  0  0  0  0  0  0  0  0
   10.4977  -17.5749   25.9778 C   0  0  0  0  0  0  0  0  0  0  0  0
   10.9286  -18.6910   26.3351 O   0  0  0  0  0  0  0  0  0  0  0  0
    9.8452  -16.8060   26.9309 O   0  0  0  0  0  0  0  0  0  0  0  0
  2  1  1  1
  2  3  1  0
  4  6  1  0
  4  2  1  0
  4  5  1  6
  6 11  1  0
  7  6  2  0
 10  9  1  1
  9  8  1  0
 10 12  1  0
 11 10  1  0
 12 13  2  0
 12 19  1  0
 14 15  1  0
 15 16  2  0
 15 17  1  0
 18 17  1  1
 18 20  1  0
 19 18  1  0
 20 22  1  0
 21 20  2  0
M  END
$$$$
