KTG.pdb
     RDKit          3D

 21 20  0  0  1  0  0  0  0  0999 V2000
   25.7371  -23.5147  -16.4229 N   0  0  0  0  0  0  0  0  0  0  0  0
   25.7052  -22.1228  -16.0601 C   0  0  1  0  0  0  0  0  0  0  0  0
   26.5420  -21.3196  -16.9581 C   0  0  0  0  0  0  0  0  0  0  0  0
   27.9846  -21.6777  -16.8570 C   0  0  0  0  0  0  0  0  0  0  0  0
   28.5494  -22.5412  -17.9353 C   0  0  0  0  0  0  0  0  0  0  0  0
   30.0600  -22.7754  -17.6759 C   0  0  0  0  0  0  0  0  0  0  0  0
   30.5711  -23.7599  -18.5949 N   0  0  0  0  0  0  0  0  0  0  0  0
   24.3025  -21.6911  -15.9326 C   0  0  0  0  0  0  0  0  0  0  0  0
   23.5432  -21.9588  -16.8956 O   0  0  0  0  0  0  0  0  0  0  0  0
   21.9340  -22.8661  -13.4275 C   0  0  0  0  0  0  0  0  0  0  0  0
   21.7916  -21.3773  -13.4344 C   0  0  1  0  0  0  0  0  0  0  0  0
   22.4320  -20.8733  -12.3009 O   0  0  0  0  0  0  0  0  0  0  0  0
   22.3888  -20.7619  -14.7109 C   0  0  2  0  0  0  0  0  0  0  0  0
   23.7887  -21.0025  -14.7941 N   0  0  0  0  0  0  0  0  0  0  0  0
   21.9971  -19.3538  -14.7885 C   0  0  0  0  0  0  0  0  0  0  0  0
   22.8201  -18.5010  -14.3738 O   0  0  0  0  0  0  0  0  0  0  0  0
   20.7642  -18.8621  -15.2931 N   0  0  0  0  0  0  0  0  0  0  0  0
   20.4446  -17.4500  -15.3035 C   0  0  0  0  0  0  0  0  0  0  0  0
   19.1077  -17.1946  -15.8961 C   0  0  0  0  0  0  0  0  0  0  0  0
   18.6154  -15.8999  -15.8458 O   0  0  0  0  0  0  0  0  0  0  0  0
   18.3923  -18.0713  -16.4398 O   0  0  0  0  0  0  0  0  0  0  0  0
  2  1  1  6
  3  2  1  0
  4  3  1  0
  5  6  1  0
  5  4  1  0
  7  6  1  0
  8  2  1  0
  8  9  2  0
 11 10  1  6
 11 12  1  0
 13 14  1  1
 13 11  1  0
 14  8  1  0
 15 13  1  0
 16 15  2  0
 17 15  1  0
 18 17  1  0
 19 18  1  0
 19 20  1  0
 21 19  2  0
M  END
$$$$
