KTG.pdb
     RDKit          3D

 21 20  0  0  1  0  0  0  0  0999 V2000
   26.9265  -22.4500  -13.0645 N   0  0  0  0  0  0  0  0  0  0  0  0
   26.2947  -21.1659  -12.9164 C   0  0  1  0  0  0  0  0  0  0  0  0
   27.2666  -20.0757  -13.0531 C   0  0  0  0  0  0  0  0  0  0  0  0
   28.1928  -19.9950  -11.8890 C   0  0  0  0  0  0  0  0  0  0  0  0
   29.2348  -21.0570  -11.7727 C   0  0  0  0  0  0  0  0  0  0  0  0
   30.2003  -20.7126  -10.6094 C   0  0  0  0  0  0  0  0  0  0  0  0
   31.2519  -21.6942  -10.5345 N   0  0  0  0  0  0  0  0  0  0  0  0
   25.1254  -21.0993  -13.8099 C   0  0  0  0  0  0  0  0  0  0  0  0
   25.2155  -21.7168  -14.8990 O   0  0  0  0  0  0  0  0  0  0  0  0
   21.8076  -22.4688  -13.4218 C   0  0  0  0  0  0  0  0  0  0  0  0
   21.5919  -21.0327  -13.7794 C   0  0  1  0  0  0  0  0  0  0  0  0
   21.2447  -20.3419  -12.6170 O   0  0  0  0  0  0  0  0  0  0  0  0
   22.8485  -20.4182  -14.4182 C   0  0  2  0  0  0  0  0  0  0  0  0
   23.9321  -20.3836  -13.4967 N   0  0  0  0  0  0  0  0  0  0  0  0
   22.4981  -19.1263  -15.0103 C   0  0  0  0  0  0  0  0  0  0  0  0
   22.5301  -18.1193  -14.2611 O   0  0  0  0  0  0  0  0  0  0  0  0
   22.1234  -18.9076  -16.3624 N   0  0  0  0  0  0  0  0  0  0  0  0
   21.8083  -17.5889  -16.8705 C   0  0  0  0  0  0  0  0  0  0  0  0
   20.3543  -17.3018  -16.7862 C   0  0  0  0  0  0  0  0  0  0  0  0
   19.9020  -16.0993  -17.3065 O   0  0  0  0  0  0  0  0  0  0  0  0
   19.5059  -18.0737  -16.2757 O   0  0  0  0  0  0  0  0  0  0  0  0
  2  1  1  6
  3  2  1  0
  4  3  1  0
  5  6  1  0
  5  4  1  0
  7  6  1  0
  8  2  1  0
  8  9  2  0
 11 10  1  1
 11 12  1  0
 13 14  1  1
 13 11  1  0
 14  8  1  0
 15 13  1  0
 16 15  2  0
 17 15  1  0
 18 17  1  0
 19 18  1  0
 19 20  1  0
 21 19  2  0
M  END
$$$$
