KTG.pdb
     RDKit          3D

 21 20  0  0  1  0  0  0  0  0999 V2000
   20.0302  -14.2505  -16.2597 N   0  0  0  0  0  0  0  0  0  0  0  0
   19.8316  -12.9653  -16.8751 C   0  0  1  0  0  0  0  0  0  0  0  0
   18.4394  -12.7894  -17.3023 C   0  0  0  0  0  0  0  0  0  0  0  0
   17.9168  -13.9799  -18.0298 C   0  0  0  0  0  0  0  0  0  0  0  0
   16.5162  -13.9059  -18.5397 C   0  0  0  0  0  0  0  0  0  0  0  0
   16.1641  -15.2197  -19.2842 C   0  0  0  0  0  0  0  0  0  0  0  0
   14.8042  -15.1693  -19.7565 N   0  0  0  0  0  0  0  0  0  0  0  0
   20.3677  -11.9190  -15.9873 C   0  0  0  0  0  0  0  0  0  0  0  0
   19.9067  -11.8828  -14.8203 O   0  0  0  0  0  0  0  0  0  0  0  0
   23.6216  -11.5305  -14.6404 C   0  0  0  0  0  0  0  0  0  0  0  0
   23.3052  -10.1613  -15.1524 C   0  0  1  0  0  0  0  0  0  0  0  0
   24.0573   -9.9440  -16.3082 O   0  0  0  0  0  0  0  0  0  0  0  0
   21.8041  -10.0050  -15.4472 C   0  0  2  0  0  0  0  0  0  0  0  0
   21.3588  -10.9750  -16.3883 N   0  0  0  0  0  0  0  0  0  0  0  0
   21.5339   -8.6148  -15.8166 C   0  0  0  0  0  0  0  0  0  0  0  0
   21.2060   -8.3860  -17.0068 O   0  0  0  0  0  0  0  0  0  0  0  0
   21.6094   -7.4954  -14.9461 N   0  0  0  0  0  0  0  0  0  0  0  0
   21.4008   -6.1410  -15.4135 C   0  0  0  0  0  0  0  0  0  0  0  0
   21.5634   -5.1518  -14.3186 C   0  0  0  0  0  0  0  0  0  0  0  0
   21.4743   -3.8074  -14.6441 O   0  0  0  0  0  0  0  0  0  0  0  0
   21.7762   -5.4496  -13.1178 O   0  0  0  0  0  0  0  0  0  0  0  0
  2  1  1  1
  3  2  1  0
  4  3  1  0
  5  6  1  0
  5  4  1  0
  7  6  1  0
  8  2  1  0
  8  9  2  0
 11 10  1  6
 11 12  1  0
 13 14  1  6
 13 11  1  0
 14  8  1  0
 15 13  1  0
 16 15  2  0
 17 15  1  0
 18 17  1  0
 19 18  1  0
 19 20  1  0
 21 19  2  0
M  END
$$$$
