KTG.pdb
     RDKit          3D

 21 20  0  0  1  0  0  0  0  0999 V2000
   26.0160  -20.6297  -12.8261 N   0  0  0  0  0  0  0  0  0  0  0  0
   24.5781  -20.6197  -12.8757 C   0  0  1  0  0  0  0  0  0  0  0  0
   24.0098  -19.9521  -11.6996 C   0  0  0  0  0  0  0  0  0  0  0  0
   24.5017  -20.5412  -10.4227 C   0  0  0  0  0  0  0  0  0  0  0  0
   25.7991  -20.0296   -9.8917 C   0  0  0  0  0  0  0  0  0  0  0  0
   26.0136  -20.5548   -8.4487 C   0  0  0  0  0  0  0  0  0  0  0  0
   27.2263  -20.0051   -7.8991 N   0  0  0  0  0  0  0  0  0  0  0  0
   24.1456  -20.0958  -14.1828 C   0  0  0  0  0  0  0  0  0  0  0  0
   24.8069  -19.1364  -14.6495 O   0  0  0  0  0  0  0  0  0  0  0  0
   22.1810  -20.2590  -18.5586 C   0  0  0  0  0  0  0  0  0  0  0  0
   22.4723  -20.9600  -17.2699 C   0  0  1  0  0  0  0  0  0  0  0  0
   23.6361  -21.7127  -17.4370 O   0  0  0  0  0  0  0  0  0  0  0  0
   22.6363  -19.9614  -16.1121 C   0  0  2  0  0  0  0  0  0  0  0  0
   23.0398  -20.6187  -14.9164 N   0  0  0  0  0  0  0  0  0  0  0  0
   21.4159  -19.1616  -15.9970 C   0  0  0  0  0  0  0  0  0  0  0  0
   20.4463  -19.6713  -15.3833 O   0  0  0  0  0  0  0  0  0  0  0  0
   21.2282  -17.8545  -16.5192 N   0  0  0  0  0  0  0  0  0  0  0  0
   19.9767  -17.1405  -16.3763 C   0  0  0  0  0  0  0  0  0  0  0  0
   18.9395  -17.6610  -17.3020 C   0  0  0  0  0  0  0  0  0  0  0  0
   17.6719  -17.1048  -17.2305 O   0  0  0  0  0  0  0  0  0  0  0  0
   19.1319  -18.5708  -18.1455 O   0  0  0  0  0  0  0  0  0  0  0  0
  2  1  1  1
  3  2  1  0
  4  3  1  0
  5  6  1  0
  5  4  1  0
  7  6  1  0
  8  2  1  0
  8  9  2  0
 11 10  1  6
 11 12  1  0
 13 14  1  1
 13 11  1  0
 14  8  1  0
 15 13  1  0
 16 15  2  0
 17 15  1  0
 18 17  1  0
 19 18  1  0
 19 20  1  0
 21 19  2  0
M  END
$$$$
