KTG.pdb
     RDKit          3D

 21 20  0  0  1  0  0  0  0  0999 V2000
   26.3729  -17.2669  -17.7868 N   0  0  0  0  0  0  0  0  0  0  0  0
   26.5814  -16.8122  -16.4377 C   0  0  1  0  0  0  0  0  0  0  0  0
   26.1400  -15.4234  -16.2702 C   0  0  0  0  0  0  0  0  0  0  0  0
   26.5368  -14.5618  -17.4190 C   0  0  0  0  0  0  0  0  0  0  0  0
   27.7713  -13.7387  -17.2587 C   0  0  0  0  0  0  0  0  0  0  0  0
   27.9543  -12.8289  -18.5008 C   0  0  0  0  0  0  0  0  0  0  0  0
   29.1371  -12.0207  -18.3499 N   0  0  0  0  0  0  0  0  0  0  0  0
   25.9942  -17.7894  -15.5048 C   0  0  0  0  0  0  0  0  0  0  0  0
   24.7540  -17.7185  -15.3249 O   0  0  0  0  0  0  0  0  0  0  0  0
   27.4586  -21.6269  -14.8505 C   0  0  0  0  0  0  0  0  0  0  0  0
   26.0684  -21.1210  -14.6306 C   0  0  1  0  0  0  0  0  0  0  0  0
   25.3990  -22.0301  -13.8094 O   0  0  0  0  0  0  0  0  0  0  0  0
   26.0744  -19.7210  -13.9945 C   0  0  2  0  0  0  0  0  0  0  0  0
   26.7550  -18.7820  -14.8190 N   0  0  0  0  0  0  0  0  0  0  0  0
   26.5802  -19.8228  -12.6248 C   0  0  0  0  0  0  0  0  0  0  0  0
   27.7704  -19.4789  -12.4209 O   0  0  0  0  0  0  0  0  0  0  0  0
   25.8428  -20.2776  -11.4997 N   0  0  0  0  0  0  0  0  0  0  0  0
   26.3910  -20.2563  -10.1598 C   0  0  0  0  0  0  0  0  0  0  0  0
   25.3921  -20.6913   -9.1516 C   0  0  0  0  0  0  0  0  0  0  0  0
   25.7805  -20.7040   -7.8211 O   0  0  0  0  0  0  0  0  0  0  0  0
   24.2192  -21.0485   -9.4215 O   0  0  0  0  0  0  0  0  0  0  0  0
  2  1  1  6
  3  2  1  0
  4  3  1  0
  5  6  1  0
  5  4  1  0
  7  6  1  0
  8  2  1  0
  8  9  2  0
 11 10  1  1
 11 12  1  0
 13 14  1  6
 13 11  1  0
 14  8  1  0
 15 13  1  0
 16 15  2  0
 17 15  1  0
 18 17  1  0
 19 18  1  0
 19 20  1  0
 21 19  2  0
M  END
$$$$
