KTG.pdb
     RDKit          3D

 21 20  0  0  1  0  0  0  0  0999 V2000
   18.1737  -11.8470  -15.9829 N   0  0  0  0  0  0  0  0  0  0  0  0
   19.4469  -11.1862  -15.8721 C   0  0  1  0  0  0  0  0  0  0  0  0
   20.2449  -11.3611  -17.0904 C   0  0  0  0  0  0  0  0  0  0  0  0
   20.3564  -12.7913  -17.4925 C   0  0  0  0  0  0  0  0  0  0  0  0
   21.0730  -13.0865  -18.7679 C   0  0  0  0  0  0  0  0  0  0  0  0
   21.1467  -14.6207  -18.9795 C   0  0  0  0  0  0  0  0  0  0  0  0
   21.6864  -14.9131  -20.2827 N   0  0  0  0  0  0  0  0  0  0  0  0
   19.2304   -9.7943  -15.4408 C   0  0  0  0  0  0  0  0  0  0  0  0
   18.5217   -9.0785  -16.1898 O   0  0  0  0  0  0  0  0  0  0  0  0
   17.2369   -8.3434  -13.0006 C   0  0  0  0  0  0  0  0  0  0  0  0
   18.5819   -7.7531  -12.7186 C   0  0  1  0  0  0  0  0  0  0  0  0
   19.1226   -8.4104  -11.6120 O   0  0  0  0  0  0  0  0  0  0  0  0
   19.5169   -7.8807  -13.9328 C   0  0  2  0  0  0  0  0  0  0  0  0
   19.7768   -9.2447  -14.2435 N   0  0  0  0  0  0  0  0  0  0  0  0
   20.7073   -7.0601  -13.7050 C   0  0  0  0  0  0  0  0  0  0  0  0
   21.7776   -7.6573  -13.4323 O   0  0  0  0  0  0  0  0  0  0  0  0
   20.7616   -5.6424  -13.7649 N   0  0  0  0  0  0  0  0  0  0  0  0
   21.9870   -4.9081  -13.5289 C   0  0  0  0  0  0  0  0  0  0  0  0
   21.8004   -3.4497  -13.7337 C   0  0  0  0  0  0  0  0  0  0  0  0
   22.8560   -2.6116  -13.4102 O   0  0  0  0  0  0  0  0  0  0  0  0
   20.7517   -2.9232  -14.1800 O   0  0  0  0  0  0  0  0  0  0  0  0
  2  1  1  6
  3  2  1  0
  4  3  1  0
  5  6  1  0
  5  4  1  0
  7  6  1  0
  8  2  1  0
  8  9  2  0
 11 10  1  6
 11 12  1  0
 13 14  1  1
 13 11  1  0
 14  8  1  0
 15 13  1  0
 16 15  2  0
 17 15  1  0
 18 17  1  0
 19 18  1  0
 19 20  1  0
 21 19  2  0
M  END
$$$$
