KTG.pdb
     RDKit          3D

 21 20  0  0  1  0  0  0  0  0999 V2000
   20.9891  -12.8257  -17.6159 N   0  0  0  0  0  0  0  0  0  0  0  0
   20.0573  -11.7297  -17.5957 C   0  0  1  0  0  0  0  0  0  0  0  0
   18.8934  -12.0362  -16.7571 C   0  0  0  0  0  0  0  0  0  0  0  0
   18.1811  -13.2652  -17.2064 C   0  0  0  0  0  0  0  0  0  0  0  0
   17.0459  -13.7414  -16.3629 C   0  0  0  0  0  0  0  0  0  0  0  0
   16.5232  -15.0945  -16.9106 C   0  0  0  0  0  0  0  0  0  0  0  0
   16.0099  -15.8982  -15.8310 N   0  0  0  0  0  0  0  0  0  0  0  0
   20.7800  -10.4901  -17.2624 C   0  0  0  0  0  0  0  0  0  0  0  0
   21.8420  -10.6189  -16.6058 O   0  0  0  0  0  0  0  0  0  0  0  0
   21.2792   -7.5319  -19.7770 C   0  0  0  0  0  0  0  0  0  0  0  0
   21.0348   -6.9759  -18.4103 C   0  0  1  0  0  0  0  0  0  0  0  0
   19.7619   -6.4028  -18.3945 O   0  0  0  0  0  0  0  0  0  0  0  0
   21.1500   -8.0659  -17.3317 C   0  0  2  0  0  0  0  0  0  0  0  0
   20.3352   -9.1898  -17.6442 N   0  0  0  0  0  0  0  0  0  0  0  0
   20.9002   -7.4660  -16.0202 C   0  0  0  0  0  0  0  0  0  0  0  0
   19.8004   -7.7177  -15.4693 O   0  0  0  0  0  0  0  0  0  0  0  0
   21.7938   -6.6206  -15.3108 N   0  0  0  0  0  0  0  0  0  0  0  0
   21.5071   -6.1467  -13.9730 C   0  0  0  0  0  0  0  0  0  0  0  0
   22.4838   -5.1184  -13.5345 C   0  0  0  0  0  0  0  0  0  0  0  0
   23.5743   -4.8721  -14.3538 O   0  0  0  0  0  0  0  0  0  0  0  0
   22.3897   -4.4564  -12.4719 O   0  0  0  0  0  0  0  0  0  0  0  0
  2  1  1  1
  3  2  1  0
  4  3  1  0
  5  6  1  0
  5  4  1  0
  7  6  1  0
  8  2  1  0
  8  9  2  0
 11 10  1  6
 11 12  1  0
 13 14  1  6
 13 11  1  0
 14  8  1  0
 15 13  1  0
 16 15  2  0
 17 15  1  0
 18 17  1  0
 19 18  1  0
 19 20  1  0
 21 19  2  0
M  END
$$$$
