KTG.pdb
     RDKit          3D

 21 20  0  0  1  0  0  0  0  0999 V2000
   25.8655  -13.1701  -16.4687 N   0  0  0  0  0  0  0  0  0  0  0  0
   24.8264  -12.7501  -17.3709 C   0  0  1  0  0  0  0  0  0  0  0  0
   23.6424  -13.6083  -17.2554 C   0  0  0  0  0  0  0  0  0  0  0  0
   23.9287  -15.0203  -17.6349 C   0  0  0  0  0  0  0  0  0  0  0  0
   22.7640  -15.9477  -17.7371 C   0  0  0  0  0  0  0  0  0  0  0  0
   23.2523  -17.3470  -18.1926 C   0  0  0  0  0  0  0  0  0  0  0  0
   22.1470  -18.2704  -18.2188 N   0  0  0  0  0  0  0  0  0  0  0  0
   24.5923  -11.3063  -17.1959 C   0  0  0  0  0  0  0  0  0  0  0  0
   24.7686  -10.8449  -16.0419 O   0  0  0  0  0  0  0  0  0  0  0  0
   24.2424   -6.7248  -18.8405 C   0  0  0  0  0  0  0  0  0  0  0  0
   24.3629   -8.1789  -19.1692 C   0  0  1  0  0  0  0  0  0  0  0  0
   25.6791   -8.4291  -19.5613 O   0  0  0  0  0  0  0  0  0  0  0  0
   23.9802   -9.0596  -17.9681 C   0  0  2  0  0  0  0  0  0  0  0  0
   24.1859  -10.4386  -18.2525 N   0  0  0  0  0  0  0  0  0  0  0  0
   22.6257   -8.7123  -17.5356 C   0  0  0  0  0  0  0  0  0  0  0  0
   21.6686   -9.1901  -18.1929 O   0  0  0  0  0  0  0  0  0  0  0  0
   22.2944   -7.8794  -16.4343 N   0  0  0  0  0  0  0  0  0  0  0  0
   20.9227   -7.6184  -16.0515 C   0  0  0  0  0  0  0  0  0  0  0  0
   20.8444   -6.7504  -14.8497 C   0  0  0  0  0  0  0  0  0  0  0  0
   19.5870   -6.4568  -14.3456 O   0  0  0  0  0  0  0  0  0  0  0  0
   21.8393   -6.2640  -14.2585 O   0  0  0  0  0  0  0  0  0  0  0  0
  2  1  1  1
  3  2  1  0
  4  3  1  0
  5  6  1  0
  5  4  1  0
  7  6  1  0
  8  2  1  0
  8  9  2  0
 11 10  1  1
 11 12  1  0
 13 14  1  6
 13 11  1  0
 14  8  1  0
 15 13  1  0
 16 15  2  0
 17 15  1  0
 18 17  1  0
 19 18  1  0
 19 20  1  0
 21 19  2  0
M  END
$$$$
