KTG.pdb
     RDKit          3D

 21 20  0  0  1  0  0  0  0  0999 V2000
   26.6413  -20.1887  -19.3832 N   0  0  0  0  0  0  0  0  0  0  0  0
   26.8617  -20.3190  -17.9673 C   0  0  1  0  0  0  0  0  0  0  0  0
   28.2586  -20.0388  -17.6183 C   0  0  0  0  0  0  0  0  0  0  0  0
   29.1949  -21.0556  -18.1743 C   0  0  0  0  0  0  0  0  0  0  0  0
   29.4154  -22.2917  -17.3677 C   0  0  0  0  0  0  0  0  0  0  0  0
   30.5353  -23.1440  -18.0184 C   0  0  0  0  0  0  0  0  0  0  0  0
   30.8310  -24.2848  -17.1899 N   0  0  0  0  0  0  0  0  0  0  0  0
   25.8490  -19.5270  -17.2481 C   0  0  0  0  0  0  0  0  0  0  0  0
   26.0547  -18.2912  -17.1698 O   0  0  0  0  0  0  0  0  0  0  0  0
   23.7479  -17.6465  -17.9885 C   0  0  0  0  0  0  0  0  0  0  0  0
   22.8917  -18.4816  -17.0906 C   0  0  1  0  0  0  0  0  0  0  0  0
   22.1860  -19.3893  -17.8823 O   0  0  0  0  0  0  0  0  0  0  0  0
   23.7355  -19.2229  -16.0402 C   0  0  2  0  0  0  0  0  0  0  0  0
   24.6804  -20.0907  -16.6556 N   0  0  0  0  0  0  0  0  0  0  0  0
   22.8398  -19.8660  -15.0777 C   0  0  0  0  0  0  0  0  0  0  0  0
   22.6156  -21.0924  -15.2266 O   0  0  0  0  0  0  0  0  0  0  0  0
   22.1979  -19.2251  -13.9852 N   0  0  0  0  0  0  0  0  0  0  0  0
   21.4610  -19.9658  -12.9828 C   0  0  0  0  0  0  0  0  0  0  0  0
   20.1092  -20.3453  -13.4647 C   0  0  0  0  0  0  0  0  0  0  0  0
   19.2511  -20.9582  -12.5652 O   0  0  0  0  0  0  0  0  0  0  0  0
   19.6899  -20.1491  -14.6317 O   0  0  0  0  0  0  0  0  0  0  0  0
  2  1  1  6
  3  2  1  0
  4  3  1  0
  5  6  1  0
  5  4  1  0
  7  6  1  0
  8  2  1  0
  8  9  2  0
 11 10  1  6
 11 12  1  0
 13 14  1  6
 13 11  1  0
 14  8  1  0
 15 13  1  0
 16 15  2  0
 17 15  1  0
 18 17  1  0
 19 18  1  0
 19 20  1  0
 21 19  2  0
M  END
$$$$
