KTG.pdb
     RDKit          3D

 21 20  0  0  1  0  0  0  0  0999 V2000
   22.5735  -12.5660  -17.8597 N   0  0  0  0  0  0  0  0  0  0  0  0
   23.1291  -11.8128  -16.7669 C   0  0  1  0  0  0  0  0  0  0  0  0
   24.5950  -11.8022  -16.8190 C   0  0  0  0  0  0  0  0  0  0  0  0
   25.1824  -13.1265  -16.4717 C   0  0  0  0  0  0  0  0  0  0  0  0
   25.4872  -14.0537  -17.6006 C   0  0  0  0  0  0  0  0  0  0  0  0
   26.0886  -15.3701  -17.0442 C   0  0  0  0  0  0  0  0  0  0  0  0
   26.3912  -16.2703  -18.1273 N   0  0  0  0  0  0  0  0  0  0  0  0
   22.4790  -10.4919  -16.7138 C   0  0  0  0  0  0  0  0  0  0  0  0
   22.4667   -9.8292  -17.7797 O   0  0  0  0  0  0  0  0  0  0  0  0
   19.1443   -9.5566  -16.6236 C   0  0  0  0  0  0  0  0  0  0  0  0
   19.7301   -8.7929  -15.4788 C   0  0  1  0  0  0  0  0  0  0  0  0
   19.3847   -9.4487  -14.2957 O   0  0  0  0  0  0  0  0  0  0  0  0
   21.2582   -8.6756  -15.6053 C   0  0  2  0  0  0  0  0  0  0  0  0
   21.8816   -9.9528  -15.5362 N   0  0  0  0  0  0  0  0  0  0  0  0
   21.7426   -7.6969  -14.6308 C   0  0  0  0  0  0  0  0  0  0  0  0
   22.3428   -8.1364  -13.6193 O   0  0  0  0  0  0  0  0  0  0  0  0
   21.5945   -6.2878  -14.7262 N   0  0  0  0  0  0  0  0  0  0  0  0
   21.9872   -5.3979  -13.6538 C   0  0  0  0  0  0  0  0  0  0  0  0
   21.7981   -3.9734  -14.0262 C   0  0  0  0  0  0  0  0  0  0  0  0
   22.0499   -3.0136  -13.0584 O   0  0  0  0  0  0  0  0  0  0  0  0
   21.4256   -3.5783  -15.1582 O   0  0  0  0  0  0  0  0  0  0  0  0
  2  1  1  6
  3  2  1  0
  4  3  1  0
  5  6  1  0
  5  4  1  0
  7  6  1  0
  8  2  1  0
  8  9  2  0
 11 10  1  6
 11 12  1  0
 13 14  1  1
 13 11  1  0
 14  8  1  0
 15 13  1  0
 16 15  2  0
 17 15  1  0
 18 17  1  0
 19 18  1  0
 19 20  1  0
 21 19  2  0
M  END
$$$$
