MHW.pdb
     RDKit          3D

 33 35  0  0  1  0  0  0  0  0999 V2000
    7.1610  -11.5489   20.2018 C   0  0  0  0  0  0  0  0  0  0  0  0
    8.0084  -12.4563   18.8741 S   0  0  0  0  0  0  0  0  0  0  0  0
    8.3477  -14.1821   19.4183 C   0  0  0  0  0  0  0  0  0  0  0  0
    8.3835  -14.2048   20.9028 C   0  0  0  0  0  0  0  0  0  0  0  0
    9.4627  -15.0240   21.5311 C   0  0  2  0  0  0  0  0  0  0  0  0
   10.2615  -15.6440   20.4468 N   0  0  0  0  0  0  0  0  0  0  0  0
    9.0004  -16.1293   22.3876 C   0  0  0  0  0  0  0  0  0  0  0  0
    7.8705  -16.0389   22.9787 O   0  0  0  0  0  0  0  0  0  0  0  0
    9.7123  -17.3123   22.6173 N   0  0  0  0  0  0  0  0  0  0  0  0
    9.2184  -18.3685   23.5212 C   0  0  1  0  0  0  0  0  0  0  0  0
    9.8780  -19.6250   23.0047 C   0  0  0  0  0  0  0  0  0  0  0  0
    9.5235  -20.8634   23.6753 C   0  0  0  0  0  0  0  0  0  0  0  0
    8.2634  -21.4118   23.7339 C   0  0  0  0  0  0  0  0  0  0  0  0
    8.3702  -22.5428   24.4413 N   0  0  0  0  0  0  0  0  0  0  0  0
    9.6419  -22.7004   24.8124 C   0  0  0  0  0  0  0  0  0  0  0  0
   10.3351  -21.6797   24.3452 N   0  0  0  0  0  0  0  0  0  0  0  0
    9.5990  -17.9658   24.8727 C   0  0  0  0  0  0  0  0  0  0  0  0
    9.4468  -18.7556   25.8688 O   0  0  0  0  0  0  0  0  0  0  0  0
   10.1585  -16.7064   25.1945 N   0  0  0  0  0  0  0  0  0  0  0  0
   10.3193  -16.2769   26.6040 C   0  0  1  0  0  0  0  0  0  0  0  0
    8.9786  -16.3944   27.2503 C   0  0  0  0  0  0  0  0  0  0  0  0
    7.9586  -15.6064   26.5433 C   0  0  0  0  0  0  0  0  0  0  0  0
    6.9056  -16.1213   25.8076 C   0  0  0  0  0  0  0  0  0  0  0  0
    6.1862  -15.1320   25.2669 N   0  0  0  0  0  0  0  0  0  0  0  0
    6.7569  -13.9822   25.6422 C   0  0  0  0  0  0  0  0  0  0  0  0
    6.4325  -12.6618   25.3932 C   0  0  0  0  0  0  0  0  0  0  0  0
    7.1758  -11.6200   25.9147 C   0  0  0  0  0  0  0  0  0  0  0  0
    8.2768  -11.8913   26.7089 C   0  0  0  0  0  0  0  0  0  0  0  0
    8.5969  -13.1973   26.9538 C   0  0  0  0  0  0  0  0  0  0  0  0
    7.8602  -14.2435   26.4361 C   0  0  0  0  0  0  0  0  0  0  0  0
   11.4483  -16.9081   27.2455 C   0  0  0  0  0  0  0  0  0  0  0  0
   12.2816  -17.8220   26.5927 O   0  0  0  0  0  0  0  0  0  0  0  0
   11.7247  -16.6542   28.4470 O   0  0  0  0  0  0  0  0  0  0  0  0
  1  2  1  0
  3  2  1  0
  4  3  1  0
  5  4  1  0
  5  6  1  6
  7  8  2  0
  7  5  1  0
  9  7  1  0
 10  9  1  0
 10 11  1  6
 12 11  1  0
 13 12  2  0
 14 13  1  0
 15 14  1  0
 15 16  2  0
 16 12  1  0
 17 19  1  0
 17 10  1  0
 18 17  2  0
 20 19  1  0
 20 31  1  0
 20 21  1  1
 22 30  1  0
 22 21  1  0
 23 22  2  0
 24 23  1  0
 24 25  1  0
 25 30  2  0
 26 25  1  0
 26 27  2  0
 27 28  1  0
 28 29  2  0
 30 29  1  0
 31 32  1  0
 33 31  2  0
M  END
$$$$
