MHW.pdb
     RDKit          3D

 33 35  0  0  1  0  0  0  0  0999 V2000
    8.4586  -11.2228   19.3251 C   0  0  0  0  0  0  0  0  0  0  0  0
    7.0974  -12.2260   19.9919 S   0  0  0  0  0  0  0  0  0  0  0  0
    7.3339  -13.9893   19.5179 C   0  0  0  0  0  0  0  0  0  0  0  0
    8.7787  -14.3134   19.6321 C   0  0  0  0  0  0  0  0  0  0  0  0
    9.1649  -15.7343   19.3825 C   0  0  2  0  0  0  0  0  0  0  0  0
    8.2377  -16.2930   18.3694 N   0  0  0  0  0  0  0  0  0  0  0  0
    9.0855  -16.6262   20.5517 C   0  0  0  0  0  0  0  0  0  0  0  0
    8.2589  -17.6014   20.5460 O   0  0  0  0  0  0  0  0  0  0  0  0
    9.8642  -16.4978   21.7077 N   0  0  0  0  0  0  0  0  0  0  0  0
    9.9645  -17.5704   22.7157 C   0  0  1  0  0  0  0  0  0  0  0  0
   11.0443  -18.4766   22.1742 C   0  0  0  0  0  0  0  0  0  0  0  0
   11.2797  -19.7094   22.9049 C   0  0  0  0  0  0  0  0  0  0  0  0
   10.6275  -20.0996   24.0513 C   0  0  0  0  0  0  0  0  0  0  0  0
   11.1394  -21.2864   24.3984 N   0  0  0  0  0  0  0  0  0  0  0  0
   12.0735  -21.6293   23.5097 C   0  0  0  0  0  0  0  0  0  0  0  0
   12.1535  -20.6697   22.6077 N   0  0  0  0  0  0  0  0  0  0  0  0
   10.2682  -16.9155   23.9855 C   0  0  0  0  0  0  0  0  0  0  0  0
   11.1805  -16.0212   24.0701 O   0  0  0  0  0  0  0  0  0  0  0  0
    9.5993  -17.1971   25.2004 N   0  0  0  0  0  0  0  0  0  0  0  0
   10.0889  -16.6523   26.4890 C   0  0  1  0  0  0  0  0  0  0  0  0
    8.8956  -16.4779   27.3691 C   0  0  0  0  0  0  0  0  0  0  0  0
    7.8443  -15.6847   26.7159 C   0  0  0  0  0  0  0  0  0  0  0  0
    6.7422  -16.1941   26.0517 C   0  0  0  0  0  0  0  0  0  0  0  0
    6.0034  -15.2017   25.5439 N   0  0  0  0  0  0  0  0  0  0  0  0
    6.6101  -14.0552   25.8699 C   0  0  0  0  0  0  0  0  0  0  0  0
    6.2874  -12.7337   25.6252 C   0  0  0  0  0  0  0  0  0  0  0  0
    7.0738  -11.6957   26.0880 C   0  0  0  0  0  0  0  0  0  0  0  0
    8.2177  -11.9725   26.8171 C   0  0  0  0  0  0  0  0  0  0  0  0
    8.5360  -13.2797   27.0578 C   0  0  0  0  0  0  0  0  0  0  0  0
    7.7563  -14.3219   26.5985 C   0  0  0  0  0  0  0  0  0  0  0  0
   11.2194  -17.3888   27.0030 C   0  0  0  0  0  0  0  0  0  0  0  0
   11.3858  -18.7632   26.8055 O   0  0  0  0  0  0  0  0  0  0  0  0
   12.1139  -16.8041   27.6681 O   0  0  0  0  0  0  0  0  0  0  0  0
  1  2  1  0
  3  2  1  0
  4  3  1  0
  5  4  1  0
  5  6  1  6
  7  8  2  0
  7  5  1  0
  9  7  1  0
 10  9  1  0
 10 11  1  6
 12 11  1  0
 13 12  2  0
 14 13  1  0
 15 14  1  0
 15 16  2  0
 16 12  1  0
 17 19  1  0
 17 10  1  0
 18 17  2  0
 20 19  1  0
 20 31  1  0
 20 21  1  1
 22 30  1  0
 22 21  1  0
 23 22  2  0
 24 23  1  0
 24 25  1  0
 25 30  2  0
 26 25  1  0
 26 27  2  0
 27 28  1  0
 28 29  2  0
 30 29  1  0
 31 32  1  0
 33 31  2  0
M  END
$$$$
