MHW.pdb
     RDKit          3D

 33 35  0  0  1  0  0  0  0  0999 V2000
    7.0859  -19.8763   26.8129 C   0  0  0  0  0  0  0  0  0  0  0  0
    5.6082  -19.4935   25.8261 S   0  0  0  0  0  0  0  0  0  0  0  0
    5.9444  -19.8275   24.0471 C   0  0  0  0  0  0  0  0  0  0  0  0
    7.3092  -19.3356   23.7298 C   0  0  0  0  0  0  0  0  0  0  0  0
    7.7559  -19.4773   22.3117 C   0  0  2  0  0  0  0  0  0  0  0  0
    7.8115  -20.9231   21.9880 N   0  0  0  0  0  0  0  0  0  0  0  0
    9.0920  -18.9350   22.0121 C   0  0  0  0  0  0  0  0  0  0  0  0
   10.1274  -19.6516   22.2328 O   0  0  0  0  0  0  0  0  0  0  0  0
    9.3367  -17.6612   21.4861 N   0  0  0  0  0  0  0  0  0  0  0  0
   10.7010  -17.1281   21.3099 C   0  0  1  0  0  0  0  0  0  0  0  0
   10.5576  -16.1303   20.1855 C   0  0  0  0  0  0  0  0  0  0  0  0
   11.7800  -15.4961   19.7246 C   0  0  0  0  0  0  0  0  0  0  0  0
   12.1754  -14.2108   20.0138 C   0  0  0  0  0  0  0  0  0  0  0  0
   13.3490  -14.0232   19.3984 N   0  0  0  0  0  0  0  0  0  0  0  0
   13.6789  -15.1414   18.7497 C   0  0  0  0  0  0  0  0  0  0  0  0
   12.7243  -16.0295   18.9515 N   0  0  0  0  0  0  0  0  0  0  0  0
   11.0959  -16.5714   22.6012 C   0  0  0  0  0  0  0  0  0  0  0  0
   12.2200  -15.9773   22.7526 O   0  0  0  0  0  0  0  0  0  0  0  0
   10.2951  -16.6311   23.7664 N   0  0  0  0  0  0  0  0  0  0  0  0
   10.7498  -16.0259   25.0407 C   0  0  1  0  0  0  0  0  0  0  0  0
   10.0879  -14.6920   25.1494 C   0  0  0  0  0  0  0  0  0  0  0  0
    8.6749  -14.8115   25.5371 C   0  0  0  0  0  0  0  0  0  0  0  0
    7.9647  -15.9939   25.6495 C   0  0  0  0  0  0  0  0  0  0  0  0
    6.6947  -15.7453   25.9867 N   0  0  0  0  0  0  0  0  0  0  0  0
    6.5708  -14.4181   26.0956 C   0  0  0  0  0  0  0  0  0  0  0  0
    5.4995  -13.6116   26.4308 C   0  0  0  0  0  0  0  0  0  0  0  0
    5.6180  -12.2364   26.4980 C   0  0  0  0  0  0  0  0  0  0  0  0
    6.8358  -11.6374   26.2246 C   0  0  0  0  0  0  0  0  0  0  0  0
    7.8941  -12.4359   25.8925 C   0  0  0  0  0  0  0  0  0  0  0  0
    7.7838  -13.8100   25.8226 C   0  0  0  0  0  0  0  0  0  0  0  0
   10.6397  -16.9396   26.1532 C   0  0  0  0  0  0  0  0  0  0  0  0
   11.2720  -16.7230   27.3816 O   0  0  0  0  0  0  0  0  0  0  0  0
    9.9569  -17.9921   26.0504 O   0  0  0  0  0  0  0  0  0  0  0  0
  1  2  1  0
  3  2  1  0
  4  3  1  0
  5  4  1  0
  5  6  1  1
  7  8  2  0
  7  5  1  0
  9  7  1  0
 10  9  1  0
 10 11  1  6
 12 11  1  0
 13 12  2  0
 14 13  1  0
 15 14  1  0
 15 16  2  0
 16 12  1  0
 17 19  1  0
 17 10  1  0
 18 17  2  0
 20 19  1  0
 20 31  1  0
 20 21  1  1
 22 30  1  0
 22 21  1  0
 23 22  2  0
 24 23  1  0
 24 25  1  0
 25 30  2  0
 26 25  1  0
 26 27  2  0
 27 28  1  0
 28 29  2  0
 30 29  1  0
 31 32  1  0
 33 31  2  0
M  END
$$$$
