MHW.pdb
     RDKit          3D

 33 35  0  0  1  0  0  0  0  0999 V2000
    8.1159  -11.3503   21.3077 C   0  0  0  0  0  0  0  0  0  0  0  0
    8.0882  -12.2920   19.7532 S   0  0  0  0  0  0  0  0  0  0  0  0
    6.9037  -13.6942   19.8963 C   0  0  0  0  0  0  0  0  0  0  0  0
    7.4426  -14.6610   20.8864 C   0  0  0  0  0  0  0  0  0  0  0  0
    8.4072  -15.6772   20.3691 C   0  0  2  0  0  0  0  0  0  0  0  0
    7.7104  -16.4967   19.3487 N   0  0  0  0  0  0  0  0  0  0  0  0
    8.9294  -16.6214   21.3713 C   0  0  0  0  0  0  0  0  0  0  0  0
    8.2619  -17.6745   21.6536 O   0  0  0  0  0  0  0  0  0  0  0  0
   10.1355  -16.4637   22.0640 N   0  0  0  0  0  0  0  0  0  0  0  0
   10.6089  -17.4446   23.0591 C   0  0  1  0  0  0  0  0  0  0  0  0
   12.0014  -17.7933   22.5900 C   0  0  0  0  0  0  0  0  0  0  0  0
   12.0939  -18.6768   21.4412 C   0  0  0  0  0  0  0  0  0  0  0  0
   11.3388  -19.8081   21.2361 C   0  0  0  0  0  0  0  0  0  0  0  0
   11.7356  -20.3272   20.0682 N   0  0  0  0  0  0  0  0  0  0  0  0
   12.6987  -19.5570   19.5593 C   0  0  0  0  0  0  0  0  0  0  0  0
   12.9109  -18.5590   20.3959 N   0  0  0  0  0  0  0  0  0  0  0  0
   10.5279  -16.7844   24.3595 C   0  0  0  0  0  0  0  0  0  0  0  0
   11.0042  -15.6095   24.5387 O   0  0  0  0  0  0  0  0  0  0  0  0
    9.9296  -17.3628   25.5041 N   0  0  0  0  0  0  0  0  0  0  0  0
   10.0435  -16.7212   26.8354 C   0  0  1  0  0  0  0  0  0  0  0  0
    8.6720  -16.6954   27.4248 C   0  0  0  0  0  0  0  0  0  0  0  0
    7.7351  -15.9204   26.5985 C   0  0  0  0  0  0  0  0  0  0  0  0
    6.8473  -16.4444   25.6752 C   0  0  0  0  0  0  0  0  0  0  0  0
    6.1677  -15.4632   25.0721 N   0  0  0  0  0  0  0  0  0  0  0  0
    6.6012  -14.3096   25.5917 C   0  0  0  0  0  0  0  0  0  0  0  0
    6.2439  -12.9951   25.3570 C   0  0  0  0  0  0  0  0  0  0  0  0
    6.8301  -11.9489   26.0439 C   0  0  0  0  0  0  0  0  0  0  0  0
    7.8022  -12.2097   26.9945 C   0  0  0  0  0  0  0  0  0  0  0  0
    8.1550  -13.5099   27.2250 C   0  0  0  0  0  0  0  0  0  0  0  0
    7.5749  -14.5603   26.5429 C   0  0  0  0  0  0  0  0  0  0  0  0
   11.1188  -17.2765   27.6229 C   0  0  0  0  0  0  0  0  0  0  0  0
   11.5318  -16.7282   28.8412 O   0  0  0  0  0  0  0  0  0  0  0  0
   11.7403  -18.2968   27.2262 O   0  0  0  0  0  0  0  0  0  0  0  0
  1  2  1  0
  3  2  1  0
  4  3  1  0
  5  4  1  0
  5  6  1  6
  7  8  2  0
  7  5  1  0
  9  7  1  0
 10  9  1  0
 10 11  1  6
 12 11  1  0
 13 12  2  0
 14 13  1  0
 15 14  1  0
 15 16  2  0
 16 12  1  0
 17 19  1  0
 17 10  1  0
 18 17  2  0
 20 19  1  0
 20 31  1  0
 20 21  1  1
 22 30  1  0
 22 21  1  0
 23 22  2  0
 24 23  1  0
 24 25  1  0
 25 30  2  0
 26 25  1  0
 26 27  2  0
 27 28  1  0
 28 29  2  0
 30 29  1  0
 31 32  1  0
 33 31  2  0
M  END
$$$$
