MHW.pdb
     RDKit          3D

 33 35  0  0  1  0  0  0  0  0999 V2000
    9.5318  -11.9890   19.8427 C   0  0  0  0  0  0  0  0  0  0  0  0
    7.8541  -12.6748   19.9808 S   0  0  0  0  0  0  0  0  0  0  0  0
    7.6896  -14.1428   18.8818 C   0  0  0  0  0  0  0  0  0  0  0  0
    9.0276  -14.7709   18.7390 C   0  0  0  0  0  0  0  0  0  0  0  0
    9.0562  -16.2596   18.6217 C   0  0  2  0  0  0  0  0  0  0  0  0
    7.8445  -16.6871   17.8818 N   0  0  0  0  0  0  0  0  0  0  0  0
    9.0424  -16.9950   19.8975 C   0  0  0  0  0  0  0  0  0  0  0  0
    7.9288  -17.3899   20.3857 O   0  0  0  0  0  0  0  0  0  0  0  0
   10.1806  -17.3136   20.6473 N   0  0  0  0  0  0  0  0  0  0  0  0
   10.1057  -18.0559   21.9200 C   0  0  1  0  0  0  0  0  0  0  0  0
   11.1275  -19.1560   21.7584 C   0  0  0  0  0  0  0  0  0  0  0  0
   10.6741  -20.3671   21.0977 C   0  0  0  0  0  0  0  0  0  0  0  0
    9.3742  -20.6530   20.7502 C   0  0  0  0  0  0  0  0  0  0  0  0
    9.3891  -21.8585   20.1693 N   0  0  0  0  0  0  0  0  0  0  0  0
   10.6434  -22.3128   20.1515 C   0  0  0  0  0  0  0  0  0  0  0  0
   11.4167  -21.4046   20.7154 N   0  0  0  0  0  0  0  0  0  0  0  0
   10.3823  -17.0882   22.9786 C   0  0  0  0  0  0  0  0  0  0  0  0
   11.0803  -16.0387   22.7533 O   0  0  0  0  0  0  0  0  0  0  0  0
    9.9145  -17.2151   24.3081 N   0  0  0  0  0  0  0  0  0  0  0  0
   10.2673  -16.2148   25.3434 C   0  0  1  0  0  0  0  0  0  0  0  0
    9.6824  -14.9122   24.9072 C   0  0  0  0  0  0  0  0  0  0  0  0
    8.2882  -14.7624   25.3489 C   0  0  0  0  0  0  0  0  0  0  0  0
    7.3376  -15.7677   25.3801 C   0  0  0  0  0  0  0  0  0  0  0  0
    6.1628  -15.2863   25.8004 N   0  0  0  0  0  0  0  0  0  0  0  0
    6.3378  -13.9828   26.0432 C   0  0  0  0  0  0  0  0  0  0  0  0
    5.4799  -13.0029   26.5060 C   0  0  0  0  0  0  0  0  0  0  0  0
    5.9007  -11.7009   26.7003 C   0  0  0  0  0  0  0  0  0  0  0  0
    7.2133  -11.3551   26.4281 C   0  0  0  0  0  0  0  0  0  0  0  0
    8.0604  -12.3248   25.9699 C   0  0  0  0  0  0  0  0  0  0  0  0
    7.6478  -13.6271   25.7726 C   0  0  0  0  0  0  0  0  0  0  0  0
    9.9818  -16.6825   26.6793 C   0  0  0  0  0  0  0  0  0  0  0  0
    9.3427  -17.8988   26.9396 O   0  0  0  0  0  0  0  0  0  0  0  0
   10.3026  -15.9905   27.6806 O   0  0  0  0  0  0  0  0  0  0  0  0
  1  2  1  0
  3  2  1  0
  4  3  1  0
  5  4  1  0
  5  6  1  6
  7  8  2  0
  7  5  1  0
  9  7  1  0
 10  9  1  0
 10 11  1  6
 12 11  1  0
 13 12  2  0
 14 13  1  0
 15 14  1  0
 15 16  2  0
 16 12  1  0
 17 19  1  0
 17 10  1  0
 18 17  2  0
 20 19  1  0
 20 31  1  0
 20 21  1  6
 22 30  1  0
 22 21  1  0
 23 22  2  0
 24 23  1  0
 24 25  1  0
 25 30  2  0
 26 25  1  0
 26 27  2  0
 27 28  1  0
 28 29  2  0
 30 29  1  0
 31 32  1  0
 33 31  2  0
M  END
$$$$
