MHW.pdb
     RDKit          3D

 33 35  0  0  1  0  0  0  0  0999 V2000
    8.6205  -11.3970   20.5357 C   0  0  0  0  0  0  0  0  0  0  0  0
    8.6540  -12.4220   19.0349 S   0  0  0  0  0  0  0  0  0  0  0  0
    7.1913  -13.5399   19.0124 C   0  0  0  0  0  0  0  0  0  0  0  0
    7.3581  -14.5483   20.0897 C   0  0  0  0  0  0  0  0  0  0  0  0
    8.4023  -15.5931   19.8691 C   0  0  2  0  0  0  0  0  0  0  0  0
    7.9862  -16.4240   18.7138 N   0  0  0  0  0  0  0  0  0  0  0  0
    8.6143  -16.5226   20.9916 C   0  0  0  0  0  0  0  0  0  0  0  0
    7.6279  -17.1955   21.4480 O   0  0  0  0  0  0  0  0  0  0  0  0
    9.8438  -16.7442   21.6228 N   0  0  0  0  0  0  0  0  0  0  0  0
   10.0221  -17.7719   22.6661 C   0  0  1  0  0  0  0  0  0  0  0  0
   11.2315  -18.5500   22.2053 C   0  0  0  0  0  0  0  0  0  0  0  0
   11.7029  -19.5976   23.0937 C   0  0  0  0  0  0  0  0  0  0  0  0
   12.8648  -19.5634   23.8291 C   0  0  0  0  0  0  0  0  0  0  0  0
   12.9239  -20.7163   24.5062 N   0  0  0  0  0  0  0  0  0  0  0  0
   11.8463  -21.4452   24.2107 C   0  0  0  0  0  0  0  0  0  0  0  0
   11.1109  -20.7618   23.3546 N   0  0  0  0  0  0  0  0  0  0  0  0
   10.1768  -17.0546   23.9291 C   0  0  0  0  0  0  0  0  0  0  0  0
   10.8370  -15.9596   23.9944 O   0  0  0  0  0  0  0  0  0  0  0  0
    9.6239  -17.4879   25.1575 N   0  0  0  0  0  0  0  0  0  0  0  0
    9.9953  -16.8380   26.4368 C   0  0  1  0  0  0  0  0  0  0  0  0
    8.7376  -16.6798   27.2257 C   0  0  0  0  0  0  0  0  0  0  0  0
    7.7489  -15.8517   26.5202 C   0  0  0  0  0  0  0  0  0  0  0  0
    6.7364  -16.3223   25.7024 C   0  0  0  0  0  0  0  0  0  0  0  0
    6.0384  -15.3030   25.1902 N   0  0  0  0  0  0  0  0  0  0  0  0
    6.5830  -14.1775   25.6649 C   0  0  0  0  0  0  0  0  0  0  0  0
    6.2632  -12.8450   25.4838 C   0  0  0  0  0  0  0  0  0  0  0  0
    6.9736  -11.8359   26.1059 C   0  0  0  0  0  0  0  0  0  0  0  0
    8.0359  -12.1537   26.9349 C   0  0  0  0  0  0  0  0  0  0  0  0
    8.3515  -13.4716   27.1125 C   0  0  0  0  0  0  0  0  0  0  0  0
    7.6475  -14.4851   26.4943 C   0  0  0  0  0  0  0  0  0  0  0  0
   11.1266  -17.4749   27.0688 C   0  0  0  0  0  0  0  0  0  0  0  0
   11.8041  -16.9169   28.1574 O   0  0  0  0  0  0  0  0  0  0  0  0
   11.5553  -18.5805   26.6466 O   0  0  0  0  0  0  0  0  0  0  0  0
  1  2  1  0
  3  2  1  0
  4  3  1  0
  5  4  1  0
  5  6  1  6
  7  8  2  0
  7  5  1  0
  9  7  1  0
 10  9  1  0
 10 11  1  6
 12 11  1  0
 13 12  2  0
 14 13  1  0
 15 14  1  0
 15 16  2  0
 16 12  1  0
 17 19  1  0
 17 10  1  0
 18 17  2  0
 20 19  1  0
 20 31  1  0
 20 21  1  1
 22 30  1  0
 22 21  1  0
 23 22  2  0
 24 23  1  0
 24 25  1  0
 25 30  2  0
 26 25  1  0
 26 27  2  0
 27 28  1  0
 28 29  2  0
 30 29  1  0
 31 32  1  0
 33 31  2  0
M  END
$$$$
