MHW.pdb
     RDKit          3D

 33 35  0  0  1  0  0  0  0  0999 V2000
    6.3218  -11.2825   20.6616 C   0  0  0  0  0  0  0  0  0  0  0  0
    7.1297  -12.6029   21.6144 S   0  0  0  0  0  0  0  0  0  0  0  0
    7.4720  -14.0415   20.5175 C   0  0  0  0  0  0  0  0  0  0  0  0
    8.0333  -15.1378   21.3472 C   0  0  0  0  0  0  0  0  0  0  0  0
    8.3103  -16.4281   20.6480 C   0  0  2  0  0  0  0  0  0  0  0  0
    7.0134  -17.0952   20.3804 N   0  0  0  0  0  0  0  0  0  0  0  0
    9.1242  -17.3952   21.4038 C   0  0  0  0  0  0  0  0  0  0  0  0
    8.5684  -18.4316   21.9049 O   0  0  0  0  0  0  0  0  0  0  0  0
   10.5009  -17.2771   21.6272 N   0  0  0  0  0  0  0  0  0  0  0  0
   11.2759  -18.3073   22.3446 C   0  0  1  0  0  0  0  0  0  0  0  0
   12.6127  -18.3095   21.6422 C   0  0  0  0  0  0  0  0  0  0  0  0
   12.5913  -18.5669   20.2131 C   0  0  0  0  0  0  0  0  0  0  0  0
   12.9611  -17.6766   19.2319 C   0  0  0  0  0  0  0  0  0  0  0  0
   12.7917  -18.3037   18.0619 N   0  0  0  0  0  0  0  0  0  0  0  0
   12.3350  -19.5354   18.2952 C   0  0  0  0  0  0  0  0  0  0  0  0
   12.2159  -19.6882   19.6003 N   0  0  0  0  0  0  0  0  0  0  0  0
   11.3009  -17.9017   23.7477 C   0  0  0  0  0  0  0  0  0  0  0  0
   11.9924  -18.5444   24.6126 O   0  0  0  0  0  0  0  0  0  0  0  0
   10.5893  -16.7924   24.2630 N   0  0  0  0  0  0  0  0  0  0  0  0
   10.5728  -16.5003   25.7160 C   0  0  1  0  0  0  0  0  0  0  0  0
   10.2301  -15.0548   25.8654 C   0  0  0  0  0  0  0  0  0  0  0  0
    8.7772  -14.8314   25.8461 C   0  0  0  0  0  0  0  0  0  0  0  0
    7.8189  -15.7729   25.5140 C   0  0  0  0  0  0  0  0  0  0  0  0
    6.5967  -15.2324   25.5636 N   0  0  0  0  0  0  0  0  0  0  0  0
    6.7482  -13.9535   25.9242 C   0  0  0  0  0  0  0  0  0  0  0  0
    5.8364  -12.9382   26.1441 C   0  0  0  0  0  0  0  0  0  0  0  0
    6.2359  -11.6750   26.5373 C   0  0  0  0  0  0  0  0  0  0  0  0
    7.5815  -11.4054   26.7193 C   0  0  0  0  0  0  0  0  0  0  0  0
    8.4821  -12.4099   26.5008 C   0  0  0  0  0  0  0  0  0  0  0  0
    8.0914  -13.6739   26.1074 C   0  0  0  0  0  0  0  0  0  0  0  0
    9.8049  -17.4686   26.4626 C   0  0  0  0  0  0  0  0  0  0  0  0
    9.0253  -18.4559   25.8521 O   0  0  0  0  0  0  0  0  0  0  0  0
    9.8075  -17.4528   27.7213 O   0  0  0  0  0  0  0  0  0  0  0  0
  1  2  1  0
  3  2  1  0
  4  3  1  0
  5  4  1  0
  5  6  1  1
  7  8  2  0
  7  5  1  0
  9  7  1  0
 10  9  1  0
 10 11  1  6
 12 11  1  0
 13 12  2  0
 14 13  1  0
 15 14  1  0
 15 16  2  0
 16 12  1  0
 17 19  1  0
 17 10  1  0
 18 17  2  0
 20 19  1  0
 20 31  1  0
 20 21  1  6
 22 30  1  0
 22 21  1  0
 23 22  2  0
 24 23  1  0
 24 25  1  0
 25 30  2  0
 26 25  1  0
 26 27  2  0
 27 28  1  0
 28 29  2  0
 30 29  1  0
 31 32  1  0
 33 31  2  0
M  END
$$$$
