MHW.pdb
     RDKit          3D

 33 35  0  0  1  0  0  0  0  0999 V2000
    7.6682  -11.6467   18.9241 C   0  0  0  0  0  0  0  0  0  0  0  0
    6.8883  -13.1664   18.3026 S   0  0  0  0  0  0  0  0  0  0  0  0
    7.9958  -14.6046   18.6098 C   0  0  0  0  0  0  0  0  0  0  0  0
    9.1715  -14.1312   19.3839 C   0  0  0  0  0  0  0  0  0  0  0  0
   10.1200  -15.1803   19.8639 C   0  0  2  0  0  0  0  0  0  0  0  0
   10.3298  -16.1508   18.7627 N   0  0  0  0  0  0  0  0  0  0  0  0
    9.6625  -15.9639   21.0238 C   0  0  0  0  0  0  0  0  0  0  0  0
    9.3153  -15.3598   22.0956 O   0  0  0  0  0  0  0  0  0  0  0  0
    9.5681  -17.3601   21.0565 N   0  0  0  0  0  0  0  0  0  0  0  0
    9.0134  -18.0873   22.2141 C   0  0  1  0  0  0  0  0  0  0  0  0
    9.2003  -19.5414   21.8519 C   0  0  0  0  0  0  0  0  0  0  0  0
    8.8862  -20.5106   22.8867 C   0  0  0  0  0  0  0  0  0  0  0  0
    9.7771  -21.0291   23.7974 C   0  0  0  0  0  0  0  0  0  0  0  0
    9.0878  -21.8812   24.5654 N   0  0  0  0  0  0  0  0  0  0  0  0
    7.8179  -21.8991   24.1567 C   0  0  0  0  0  0  0  0  0  0  0  0
    7.7026  -21.0666   23.1396 N   0  0  0  0  0  0  0  0  0  0  0  0
    9.7571  -17.6279   23.3844 C   0  0  0  0  0  0  0  0  0  0  0  0
   10.8360  -16.9496   23.2615 O   0  0  0  0  0  0  0  0  0  0  0  0
    9.3628  -17.8781   24.7202 N   0  0  0  0  0  0  0  0  0  0  0  0
    9.9738  -17.1397   25.8508 C   0  0  1  0  0  0  0  0  0  0  0  0
    9.7943  -15.6847   25.5679 C   0  0  0  0  0  0  0  0  0  0  0  0
    8.4222  -15.2373   25.8479 C   0  0  0  0  0  0  0  0  0  0  0  0
    7.2794  -16.0078   25.7233 C   0  0  0  0  0  0  0  0  0  0  0  0
    6.1945  -15.2853   26.0223 N   0  0  0  0  0  0  0  0  0  0  0  0
    6.6172  -14.0570   26.3402 C   0  0  0  0  0  0  0  0  0  0  0  0
    5.9421  -12.9191   26.7405 C   0  0  0  0  0  0  0  0  0  0  0  0
    6.6085  -11.7459   27.0392 C   0  0  0  0  0  0  0  0  0  0  0  0
    7.9883  -11.6946   26.9391 C   0  0  0  0  0  0  0  0  0  0  0  0
    8.6546  -12.8201   26.5425 C   0  0  0  0  0  0  0  0  0  0  0  0
    7.9964  -13.9955   26.2418 C   0  0  0  0  0  0  0  0  0  0  0  0
    9.5474  -17.6473   27.1334 C   0  0  0  0  0  0  0  0  0  0  0  0
   10.1965  -17.3314   28.3311 O   0  0  0  0  0  0  0  0  0  0  0  0
    8.5540  -18.4157   27.2181 O   0  0  0  0  0  0  0  0  0  0  0  0
  1  2  1  0
  3  2  1  0
  4  3  1  0
  5  4  1  0
  5  6  1  6
  7  8  2  0
  7  5  1  0
  9  7  1  0
 10  9  1  0
 10 11  1  6
 12 11  1  0
 13 12  2  0
 14 13  1  0
 15 14  1  0
 15 16  2  0
 16 12  1  0
 17 19  1  0
 17 10  1  0
 18 17  2  0
 20 19  1  0
 20 31  1  0
 20 21  1  6
 22 30  1  0
 22 21  1  0
 23 22  2  0
 24 23  1  0
 24 25  1  0
 25 30  2  0
 26 25  1  0
 26 27  2  0
 27 28  1  0
 28 29  2  0
 30 29  1  0
 31 32  1  0
 33 31  2  0
M  END
$$$$
