MHW.pdb
     RDKit          3D

 33 35  0  0  1  0  0  0  0  0999 V2000
    9.1832  -11.7936   19.6538 C   0  0  0  0  0  0  0  0  0  0  0  0
    7.6103  -12.2723   18.8787 S   0  0  0  0  0  0  0  0  0  0  0  0
    7.7188  -14.0068   18.2708 C   0  0  0  0  0  0  0  0  0  0  0  0
    8.1357  -14.8728   19.4029 C   0  0  0  0  0  0  0  0  0  0  0  0
    8.4286  -16.3007   19.0773 C   0  0  2  0  0  0  0  0  0  0  0  0
    7.1793  -16.9260   18.5807 N   0  0  0  0  0  0  0  0  0  0  0  0
    8.8832  -17.1270   20.2083 C   0  0  0  0  0  0  0  0  0  0  0  0
    8.0230  -17.7491   20.9206 O   0  0  0  0  0  0  0  0  0  0  0  0
   10.2205  -17.2999   20.5836 N   0  0  0  0  0  0  0  0  0  0  0  0
   10.6124  -18.0762   21.7753 C   0  0  1  0  0  0  0  0  0  0  0  0
   11.9555  -18.6578   21.4032 C   0  0  0  0  0  0  0  0  0  0  0  0
   12.6194  -19.4533   22.4207 C   0  0  0  0  0  0  0  0  0  0  0  0
   12.1278  -19.7214   23.6771 C   0  0  0  0  0  0  0  0  0  0  0  0
   13.0423  -20.4801   24.2927 N   0  0  0  0  0  0  0  0  0  0  0  0
   14.0658  -20.6814   23.4609 C   0  0  0  0  0  0  0  0  0  0  0  0
   13.8032  -20.0568   22.3287 N   0  0  0  0  0  0  0  0  0  0  0  0
   10.6193  -17.1378   22.8946 C   0  0  0  0  0  0  0  0  0  0  0  0
   11.1255  -15.9676   22.7772 O   0  0  0  0  0  0  0  0  0  0  0  0
   10.0792  -17.4249   24.1707 N   0  0  0  0  0  0  0  0  0  0  0  0
   10.1442  -16.4340   25.2711 C   0  0  1  0  0  0  0  0  0  0  0  0
    9.6544  -15.1367   24.7177 C   0  0  0  0  0  0  0  0  0  0  0  0
    8.3120  -14.8012   25.2142 C   0  0  0  0  0  0  0  0  0  0  0  0
    7.2019  -15.6261   25.1638 C   0  0  0  0  0  0  0  0  0  0  0  0
    6.1327  -15.0012   25.6686 N   0  0  0  0  0  0  0  0  0  0  0  0
    6.5335  -13.7826   26.0469 C   0  0  0  0  0  0  0  0  0  0  0  0
    5.8632  -12.7288   26.6391 C   0  0  0  0  0  0  0  0  0  0  0  0
    6.5053  -11.5483   26.9618 C   0  0  0  0  0  0  0  0  0  0  0  0
    7.8551  -11.4037   26.6902 C   0  0  0  0  0  0  0  0  0  0  0  0
    8.5166  -12.4462   26.1039 C   0  0  0  0  0  0  0  0  0  0  0  0
    7.8825  -13.6281   25.7780 C   0  0  0  0  0  0  0  0  0  0  0  0
    9.5506  -16.9278   26.4911 C   0  0  0  0  0  0  0  0  0  0  0  0
    8.7948  -18.1029   26.5485 O   0  0  0  0  0  0  0  0  0  0  0  0
    9.6929  -16.2977   27.5715 O   0  0  0  0  0  0  0  0  0  0  0  0
  1  2  1  0
  3  2  1  0
  4  3  1  0
  5  4  1  0
  5  6  1  1
  7  8  2  0
  7  5  1  0
  9  7  1  0
 10  9  1  0
 10 11  1  6
 12 11  1  0
 13 12  2  0
 14 13  1  0
 15 14  1  0
 15 16  2  0
 16 12  1  0
 17 19  1  0
 17 10  1  0
 18 17  2  0
 20 19  1  0
 20 31  1  0
 20 21  1  6
 22 30  1  0
 22 21  1  0
 23 22  2  0
 24 23  1  0
 24 25  1  0
 25 30  2  0
 26 25  1  0
 26 27  2  0
 27 28  1  0
 28 29  2  0
 30 29  1  0
 31 32  1  0
 33 31  2  0
M  END
$$$$
