MHW.pdb
     RDKit          3D

 33 35  0  0  1  0  0  0  0  0999 V2000
    6.2974  -12.2274   26.3227 C   0  0  0  0  0  0  0  0  0  0  0  0
    6.3528  -13.9329   26.9490 S   0  0  0  0  0  0  0  0  0  0  0  0
    5.7647  -15.0934   25.6463 C   0  0  0  0  0  0  0  0  0  0  0  0
    6.9454  -15.5846   24.8914 C   0  0  0  0  0  0  0  0  0  0  0  0
    6.7081  -15.9924   23.4743 C   0  0  2  0  0  0  0  0  0  0  0  0
    5.8028  -17.1665   23.4778 N   0  0  0  0  0  0  0  0  0  0  0  0
    7.9083  -16.3982   22.7234 C   0  0  0  0  0  0  0  0  0  0  0  0
    8.2081  -17.6378   22.6359 O   0  0  0  0  0  0  0  0  0  0  0  0
    8.7782  -15.5162   22.0719 N   0  0  0  0  0  0  0  0  0  0  0  0
    9.9332  -15.9848   21.2828 C   0  0  1  0  0  0  0  0  0  0  0  0
   10.2055  -14.8467   20.3283 C   0  0  0  0  0  0  0  0  0  0  0  0
    9.1283  -14.4927   19.4210 C   0  0  0  0  0  0  0  0  0  0  0  0
    8.3795  -13.3401   19.4755 C   0  0  0  0  0  0  0  0  0  0  0  0
    7.5001  -13.4064   18.4689 N   0  0  0  0  0  0  0  0  0  0  0  0
    7.6863  -14.5508   17.8087 C   0  0  0  0  0  0  0  0  0  0  0  0
    8.6740  -15.2039   18.3906 N   0  0  0  0  0  0  0  0  0  0  0  0
   10.9974  -16.2730   22.2410 C   0  0  0  0  0  0  0  0  0  0  0  0
   12.0670  -15.5702   22.2771 O   0  0  0  0  0  0  0  0  0  0  0  0
   10.9434  -17.3200   23.1915 N   0  0  0  0  0  0  0  0  0  0  0  0
   11.7079  -17.2445   24.4591 C   0  0  1  0  0  0  0  0  0  0  0  0
   11.4740  -15.8840   25.0279 C   0  0  0  0  0  0  0  0  0  0  0  0
   11.2482  -15.9287   26.4799 C   0  0  0  0  0  0  0  0  0  0  0  0
   11.6810  -16.9270   27.3350 C   0  0  0  0  0  0  0  0  0  0  0  0
   11.2773  -16.6781   28.5854 N   0  0  0  0  0  0  0  0  0  0  0  0
   10.5893  -15.5316   28.5541 C   0  0  0  0  0  0  0  0  0  0  0  0
    9.9634  -14.7989   29.5450 C   0  0  0  0  0  0  0  0  0  0  0  0
    9.3174  -13.6084   29.2705 C   0  0  0  0  0  0  0  0  0  0  0  0
    9.2885  -13.1254   27.9735 C   0  0  0  0  0  0  0  0  0  0  0  0
    9.9071  -13.8512   26.9944 C   0  0  0  0  0  0  0  0  0  0  0  0
   10.5538  -15.0413   27.2602 C   0  0  0  0  0  0  0  0  0  0  0  0
   11.4814  -18.3912   25.3067 C   0  0  0  0  0  0  0  0  0  0  0  0
   10.2488  -19.0468   25.3869 O   0  0  0  0  0  0  0  0  0  0  0  0
   12.4089  -18.8482   26.0247 O   0  0  0  0  0  0  0  0  0  0  0  0
  1  2  1  0
  3  2  1  0
  4  3  1  0
  5  4  1  0
  5  6  1  1
  7  8  2  0
  7  5  1  0
  9  7  1  0
 10  9  1  0
 10 11  1  6
 12 11  1  0
 13 12  2  0
 14 13  1  0
 15 14  1  0
 15 16  2  0
 16 12  1  0
 17 19  1  0
 17 10  1  0
 18 17  2  0
 20 19  1  0
 20 31  1  0
 20 21  1  1
 22 30  1  0
 22 21  1  0
 23 22  2  0
 24 23  1  0
 24 25  1  0
 25 30  2  0
 26 25  1  0
 26 27  2  0
 27 28  1  0
 28 29  2  0
 30 29  1  0
 31 32  1  0
 33 31  2  0
M  END
$$$$
