MHW.pdb
     RDKit          3D

 33 35  0  0  1  0  0  0  0  0999 V2000
    1.7672  -19.7719   20.4143 C   0  0  0  0  0  0  0  0  0  0  0  0
    3.3640  -19.4386   19.6124 S   0  0  0  0  0  0  0  0  0  0  0  0
    4.5897  -18.8886   20.8713 C   0  0  0  0  0  0  0  0  0  0  0  0
    5.8386  -18.5000   20.1680 C   0  0  0  0  0  0  0  0  0  0  0  0
    6.9967  -18.1157   21.0292 C   0  0  2  0  0  0  0  0  0  0  0  0
    6.5297  -17.1006   22.0038 N   0  0  0  0  0  0  0  0  0  0  0  0
    8.1393  -17.5139   20.3213 C   0  0  0  0  0  0  0  0  0  0  0  0
    8.7109  -18.1632   19.3801 O   0  0  0  0  0  0  0  0  0  0  0  0
    8.6712  -16.2485   20.5954 N   0  0  0  0  0  0  0  0  0  0  0  0
   10.0980  -15.9312   20.3949 C   0  0  1  0  0  0  0  0  0  0  0  0
   10.0755  -14.6817   19.5471 C   0  0  0  0  0  0  0  0  0  0  0  0
    9.0965  -14.6459   18.4750 C   0  0  0  0  0  0  0  0  0  0  0  0
    8.2957  -15.6938   18.0843 C   0  0  0  0  0  0  0  0  0  0  0  0
    7.5457  -15.2457   17.0706 N   0  0  0  0  0  0  0  0  0  0  0  0
    7.8600  -13.9712   16.8325 C   0  0  0  0  0  0  0  0  0  0  0  0
    8.8000  -13.6141   17.6867 N   0  0  0  0  0  0  0  0  0  0  0  0
   10.6777  -15.7796   21.7270 C   0  0  0  0  0  0  0  0  0  0  0  0
   11.3460  -14.7350   22.0455 O   0  0  0  0  0  0  0  0  0  0  0  0
   10.5535  -16.7413   22.7576 N   0  0  0  0  0  0  0  0  0  0  0  0
   10.2830  -16.3345   24.1570 C   0  0  1  0  0  0  0  0  0  0  0  0
    9.3322  -15.1847   24.0998 C   0  0  0  0  0  0  0  0  0  0  0  0
    8.8737  -14.7858   25.4383 C   0  0  0  0  0  0  0  0  0  0  0  0
    8.8929  -15.5821   26.5701 C   0  0  0  0  0  0  0  0  0  0  0  0
    8.3724  -14.9249   27.6120 N   0  0  0  0  0  0  0  0  0  0  0  0
    8.0166  -13.7128   27.1727 C   0  0  0  0  0  0  0  0  0  0  0  0
    7.4503  -12.6252   27.8105 C   0  0  0  0  0  0  0  0  0  0  0  0
    7.1847  -11.4464   27.1398 C   0  0  0  0  0  0  0  0  0  0  0  0
    7.4886  -11.3383   25.7935 C   0  0  0  0  0  0  0  0  0  0  0  0
    8.0478  -12.4148   25.1638 C   0  0  0  0  0  0  0  0  0  0  0  0
    8.3155  -13.5956   25.8263 C   0  0  0  0  0  0  0  0  0  0  0  0
    9.9520  -17.4576   25.0017 C   0  0  0  0  0  0  0  0  0  0  0  0
   10.5470  -17.6737   26.2486 O   0  0  0  0  0  0  0  0  0  0  0  0
    9.0978  -18.3052   24.6320 O   0  0  0  0  0  0  0  0  0  0  0  0
  1  2  1  0
  3  2  1  0
  4  3  1  0
  5  4  1  0
  5  6  1  1
  7  8  2  0
  7  5  1  0
  9  7  1  0
 10  9  1  0
 10 11  1  6
 12 11  1  0
 13 12  2  0
 14 13  1  0
 15 14  1  0
 15 16  2  0
 16 12  1  0
 17 19  1  0
 17 10  1  0
 18 17  2  0
 20 19  1  0
 20 31  1  0
 20 21  1  6
 22 30  1  0
 22 21  1  0
 23 22  2  0
 24 23  1  0
 24 25  1  0
 25 30  2  0
 26 25  1  0
 26 27  2  0
 27 28  1  0
 28 29  2  0
 30 29  1  0
 31 32  1  0
 33 31  2  0
M  END
$$$$
