MHW.pdb
     RDKit          3D

 33 35  0  0  1  0  0  0  0  0999 V2000
    8.6709  -12.1050   19.0246 C   0  0  0  0  0  0  0  0  0  0  0  0
    7.4437  -13.2479   18.3233 S   0  0  0  0  0  0  0  0  0  0  0  0
    7.1067  -14.6083   19.5174 C   0  0  0  0  0  0  0  0  0  0  0  0
    8.3224  -15.4558   19.6143 C   0  0  0  0  0  0  0  0  0  0  0  0
    8.3271  -16.4942   20.6878 C   0  0  2  0  0  0  0  0  0  0  0  0
    7.4364  -16.0328   21.7796 N   0  0  0  0  0  0  0  0  0  0  0  0
    9.6371  -16.7582   21.3068 C   0  0  0  0  0  0  0  0  0  0  0  0
   10.3754  -17.6942   20.8453 O   0  0  0  0  0  0  0  0  0  0  0  0
   10.1647  -16.0482   22.3915 N   0  0  0  0  0  0  0  0  0  0  0  0
   11.5313  -16.2789   22.8970 C   0  0  1  0  0  0  0  0  0  0  0  0
   12.2587  -14.9956   22.5736 C   0  0  0  0  0  0  0  0  0  0  0  0
   12.5996  -14.7801   21.1785 C   0  0  0  0  0  0  0  0  0  0  0  0
   13.6935  -15.3038   20.5297 C   0  0  0  0  0  0  0  0  0  0  0  0
   13.6374  -14.8635   19.2672 N   0  0  0  0  0  0  0  0  0  0  0  0
   12.5554  -14.0958   19.1262 C   0  0  0  0  0  0  0  0  0  0  0  0
   11.9312  -14.0495   20.2878 N   0  0  0  0  0  0  0  0  0  0  0  0
   11.3983  -16.5880   24.3185 C   0  0  0  0  0  0  0  0  0  0  0  0
   12.3683  -16.3994   25.1327 O   0  0  0  0  0  0  0  0  0  0  0  0
   10.2201  -17.1034   24.9088 N   0  0  0  0  0  0  0  0  0  0  0  0
   10.1389  -17.3506   26.3680 C   0  0  1  0  0  0  0  0  0  0  0  0
    8.8302  -16.8003   26.8304 C   0  0  0  0  0  0  0  0  0  0  0  0
    8.9268  -15.3746   27.1758 C   0  0  0  0  0  0  0  0  0  0  0  0
    9.9385  -14.7889   27.9164 C   0  0  0  0  0  0  0  0  0  0  0  0
    9.7034  -13.4822   28.0765 N   0  0  0  0  0  0  0  0  0  0  0  0
    8.5536  -13.2113   27.4493 C   0  0  0  0  0  0  0  0  0  0  0  0
    7.8461  -12.0364   27.2774 C   0  0  0  0  0  0  0  0  0  0  0  0
    6.6660  -11.9970   26.5591 C   0  0  0  0  0  0  0  0  0  0  0  0
    6.1678  -13.1574   25.9917 C   0  0  0  0  0  0  0  0  0  0  0  0
    6.8680  -14.3186   26.1631 C   0  0  0  0  0  0  0  0  0  0  0  0
    8.0468  -14.3664   26.8795 C   0  0  0  0  0  0  0  0  0  0  0  0
   10.4718  -18.7122   26.7142 C   0  0  0  0  0  0  0  0  0  0  0  0
   10.8505  -19.6677   25.7660 O   0  0  0  0  0  0  0  0  0  0  0  0
   10.4262  -19.0963   27.9120 O   0  0  0  0  0  0  0  0  0  0  0  0
  1  2  1  0
  3  2  1  0
  4  3  1  0
  5  4  1  0
  5  6  1  1
  7  8  2  0
  7  5  1  0
  9  7  1  0
 10  9  1  0
 10 11  1  1
 12 11  1  0
 13 12  2  0
 14 13  1  0
 15 14  1  0
 15 16  2  0
 16 12  1  0
 17 19  1  0
 17 10  1  0
 18 17  2  0
 20 19  1  0
 20 31  1  0
 20 21  1  6
 22 30  1  0
 22 21  1  0
 23 22  2  0
 24 23  1  0
 24 25  1  0
 25 30  2  0
 26 25  1  0
 26 27  2  0
 27 28  1  0
 28 29  2  0
 30 29  1  0
 31 32  1  0
 33 31  2  0
M  END
$$$$
