DIA.pdb
     RDKit          3D

 22 21  0  0  1  0  0  0  0  0999 V2000
   17.3292  -12.2133  -15.8227 N   0  0  0  0  0  0  0  0  0  0  0  0
   17.9024  -11.1139  -16.5705 C   0  0  1  0  0  0  0  0  0  0  0  0
   16.7647  -10.2184  -16.9922 C   0  0  0  0  0  0  0  0  0  0  0  0
   15.9644  -10.9358  -18.0097 C   0  0  0  0  0  0  0  0  0  0  0  0
   14.7472  -11.1424  -17.8007 O   0  0  0  0  0  0  0  0  0  0  0  0
   18.8957  -10.4317  -15.7384 C   0  0  0  0  0  0  0  0  0  0  0  0
   18.6287  -10.1770  -14.5394 O   0  0  0  0  0  0  0  0  0  0  0  0
   16.5208  -11.3869  -19.1885 O   0  0  0  0  0  0  0  0  0  0  0  0
   23.8270  -12.0528  -15.0323 C   0  0  0  0  0  0  0  0  0  0  0  0
   22.4199  -11.4635  -14.8442 C   0  0  0  0  0  0  0  0  0  0  0  0
   22.4515  -10.0565  -15.3044 C   0  0  2  0  0  0  0  0  0  0  0  0
   23.4062   -9.2733  -14.4264 C   0  0  0  0  0  0  0  0  0  0  0  0
   21.1395   -9.3390  -15.3218 C   0  0  2  0  0  0  0  0  0  0  0  0
   20.1796  -10.0241  -16.2030 N   0  0  0  0  0  0  0  0  0  0  0  0
   21.2345   -7.9067  -15.6639 C   0  0  0  0  0  0  0  0  0  0  0  0
   21.7510   -7.5678  -16.7509 O   0  0  0  0  0  0  0  0  0  0  0  0
   19.6274   -4.6962  -14.8092 C   0  0  0  0  0  0  0  0  0  0  0  0
   20.8813   -5.4698  -15.0915 C   0  0  2  0  0  0  0  0  0  0  0  0
   20.7646   -6.8730  -14.8143 N   0  0  0  0  0  0  0  0  0  0  0  0
   21.9905   -4.8250  -14.3531 C   0  0  0  0  0  0  0  0  0  0  0  0
   22.4234   -3.5817  -14.7928 O   0  0  0  0  0  0  0  0  0  0  0  0
   22.5654   -5.3226  -13.3598 O   0  0  0  0  0  0  0  0  0  0  0  0
  2  1  1  1
  3  4  1  0
  3  2  1  0
  4  8  1  0
  5  4  2  0
  6  2  1  0
  6  7  2  0
  9 10  1  0
 10 11  1  0
 11 12  1  1
 11 13  1  0
 13 14  1  6
 14  6  1  0
 15 13  1  0
 16 15  2  0
 18 19  1  0
 18 17  1  1
 19 15  1  0
 20 18  1  0
 21 20  1  0
 22 20  2  0
M  END
$$$$
