DIA.pdb
     RDKit          3D

 22 21  0  0  1  0  0  0  0  0999 V2000
   16.9682  -10.9100  -15.9272 N   0  0  0  0  0  0  0  0  0  0  0  0
   17.7190   -9.9290  -16.6824 C   0  0  1  0  0  0  0  0  0  0  0  0
   16.7215   -8.9860  -17.3069 C   0  0  0  0  0  0  0  0  0  0  0  0
   15.9725   -9.7273  -18.3462 C   0  0  0  0  0  0  0  0  0  0  0  0
   16.5723  -10.5679  -19.0543 O   0  0  0  0  0  0  0  0  0  0  0  0
   18.6674   -9.2580  -15.7910 C   0  0  0  0  0  0  0  0  0  0  0  0
   18.3425   -9.0286  -14.6013 O   0  0  0  0  0  0  0  0  0  0  0  0
   14.6257   -9.5198  -18.5606 O   0  0  0  0  0  0  0  0  0  0  0  0
   23.5212  -10.9118  -14.6259 C   0  0  0  0  0  0  0  0  0  0  0  0
   22.1020  -10.3213  -14.6246 C   0  0  0  0  0  0  0  0  0  0  0  0
   22.1833   -8.9427  -15.1587 C   0  0  2  0  0  0  0  0  0  0  0  0
   23.1458   -8.1410  -14.3063 C   0  0  0  0  0  0  0  0  0  0  0  0
   20.8937   -8.1897  -15.2390 C   0  0  2  0  0  0  0  0  0  0  0  0
   19.9692   -8.8341  -16.1863 N   0  0  0  0  0  0  0  0  0  0  0  0
   21.0458   -6.7552  -15.5493 C   0  0  0  0  0  0  0  0  0  0  0  0
   21.6647   -6.4119  -16.5799 O   0  0  0  0  0  0  0  0  0  0  0  0
   19.7639   -3.4375  -14.2477 C   0  0  0  0  0  0  0  0  0  0  0  0
   20.7754   -4.3235  -14.9128 C   0  0  2  0  0  0  0  0  0  0  0  0
   20.5202   -5.7238  -14.7300 N   0  0  0  0  0  0  0  0  0  0  0  0
   22.1183   -3.9146  -14.4430 C   0  0  0  0  0  0  0  0  0  0  0  0
   22.6904   -2.7895  -15.0204 O   0  0  0  0  0  0  0  0  0  0  0  0
   22.7741   -4.5125  -13.5613 O   0  0  0  0  0  0  0  0  0  0  0  0
  2  1  1  1
  3  4  1  0
  3  2  1  0
  4  8  1  0
  5  4  2  0
  6  2  1  0
  6  7  2  0
  9 10  1  0
 10 11  1  0
 11 12  1  1
 11 13  1  0
 13 14  1  6
 14  6  1  0
 15 13  1  0
 16 15  2  0
 18 19  1  0
 18 17  1  1
 19 15  1  0
 20 18  1  0
 21 20  1  0
 22 20  2  0
M  END
$$$$
