DIA.pdb
     RDKit          3D

 22 21  0  0  1  0  0  0  0  0999 V2000
   18.6783  -12.7753  -16.8136 N   0  0  0  0  0  0  0  0  0  0  0  0
   18.2881  -11.4322  -16.4390 C   0  0  1  0  0  0  0  0  0  0  0  0
   17.6542  -11.5151  -15.0732 C   0  0  0  0  0  0  0  0  0  0  0  0
   16.3600  -12.2207  -15.2062 C   0  0  0  0  0  0  0  0  0  0  0  0
   15.5647  -11.8806  -16.1116 O   0  0  0  0  0  0  0  0  0  0  0  0
   19.4643  -10.5608  -16.4773 C   0  0  0  0  0  0  0  0  0  0  0  0
   20.5504  -10.9657  -15.9972 O   0  0  0  0  0  0  0  0  0  0  0  0
   16.0002  -13.2478  -14.3587 O   0  0  0  0  0  0  0  0  0  0  0  0
   23.1036   -7.3526  -19.4944 C   0  0  0  0  0  0  0  0  0  0  0  0
   22.1111   -6.8960  -18.4132 C   0  0  0  0  0  0  0  0  0  0  0  0
   21.0199   -7.8947  -18.3474 C   0  0  2  0  0  0  0  0  0  0  0  0
   19.7754   -7.3059  -18.9799 C   0  0  0  0  0  0  0  0  0  0  0  0
   20.6598   -8.3887  -16.9825 C   0  0  2  0  0  0  0  0  0  0  0  0
   19.4667   -9.2496  -17.0353 N   0  0  0  0  0  0  0  0  0  0  0  0
   20.4930   -7.3237  -15.9750 C   0  0  0  0  0  0  0  0  0  0  0  0
   19.4557   -6.6259  -15.9847 O   0  0  0  0  0  0  0  0  0  0  0  0
   21.4148   -6.6168  -12.5585 C   0  0  0  0  0  0  0  0  0  0  0  0
   21.3072   -6.0552  -13.9454 C   0  0  2  0  0  0  0  0  0  0  0  0
   21.4603   -7.0408  -14.9772 N   0  0  0  0  0  0  0  0  0  0  0  0
   22.2750   -4.9411  -14.0622 C   0  0  0  0  0  0  0  0  0  0  0  0
   22.0403   -3.7993  -13.3086 O   0  0  0  0  0  0  0  0  0  0  0  0
   23.2901   -4.9566  -14.7930 O   0  0  0  0  0  0  0  0  0  0  0  0
  2  1  1  1
  3  4  1  0
  3  2  1  0
  4  8  1  0
  5  4  2  0
  6  2  1  0
  6  7  2  0
  9 10  1  0
 10 11  1  0
 11 12  1  1
 11 13  1  0
 13 14  1  6
 14  6  1  0
 15 13  1  0
 16 15  2  0
 18 19  1  0
 18 17  1  1
 19 15  1  0
 20 18  1  0
 21 20  1  0
 22 20  2  0
M  END
$$$$
