DIA.pdb
     RDKit          3D

 22 21  0  0  1  0  0  0  0  0999 V2000
   28.4893  -21.6182  -15.9687 N   0  0  0  0  0  0  0  0  0  0  0  0
   27.6742  -20.5340  -15.4623 C   0  0  1  0  0  0  0  0  0  0  0  0
   27.1006  -19.8109  -16.6548 C   0  0  0  0  0  0  0  0  0  0  0  0
   28.1848  -19.0234  -17.2834 C   0  0  0  0  0  0  0  0  0  0  0  0
   28.6596  -19.3972  -18.3801 O   0  0  0  0  0  0  0  0  0  0  0  0
   26.6488  -21.0788  -14.5700 C   0  0  0  0  0  0  0  0  0  0  0  0
   26.0924  -22.1658  -14.8573 O   0  0  0  0  0  0  0  0  0  0  0  0
   28.6919  -17.8835  -16.6952 O   0  0  0  0  0  0  0  0  0  0  0  0
   26.6959  -20.8009   -9.0617 C   0  0  0  0  0  0  0  0  0  0  0  0
   26.5549  -21.3405  -10.4941 C   0  0  0  0  0  0  0  0  0  0  0  0
   25.3546  -20.7180  -11.0977 C   0  0  2  0  0  0  0  0  0  0  0  0
   24.1279  -21.1719  -10.3330 C   0  0  0  0  0  0  0  0  0  0  0  0
   25.1277  -20.9955  -12.5496 C   0  0  2  0  0  0  0  0  0  0  0  0
   26.2241  -20.4475  -13.3651 N   0  0  0  0  0  0  0  0  0  0  0  0
   23.8192  -20.5409  -13.0580 C   0  0  0  0  0  0  0  0  0  0  0  0
   23.5116  -19.3324  -12.9689 O   0  0  0  0  0  0  0  0  0  0  0  0
   20.9252  -21.9682  -15.0435 C   0  0  0  0  0  0  0  0  0  0  0  0
   21.5454  -21.0338  -14.0470 C   0  0  2  0  0  0  0  0  0  0  0  0
   22.8723  -21.4129  -13.6533 N   0  0  0  0  0  0  0  0  0  0  0  0
   20.6164  -20.9074  -12.9014 C   0  0  0  0  0  0  0  0  0  0  0  0
   19.5822  -19.9877  -13.0062 O   0  0  0  0  0  0  0  0  0  0  0  0
   20.6984  -21.5719  -11.8448 O   0  0  0  0  0  0  0  0  0  0  0  0
  2  1  1  6
  3  4  1  0
  3  2  1  0
  4  8  1  0
  5  4  2  0
  6  2  1  0
  6  7  2  0
  9 10  1  0
 10 11  1  0
 11 12  1  1
 11 13  1  0
 13 14  1  6
 14  6  1  0
 15 13  1  0
 16 15  2  0
 18 19  1  0
 18 17  1  6
 19 15  1  0
 20 18  1  0
 21 20  1  0
 22 20  2  0
M  END
$$$$
