DIA.pdb
     RDKit          3D

 22 21  0  0  1  0  0  0  0  0999 V2000
   17.2533  -11.1728  -17.6747 N   0  0  0  0  0  0  0  0  0  0  0  0
   17.8459   -9.8818  -17.9549 C   0  0  1  0  0  0  0  0  0  0  0  0
   16.7417   -8.9800  -18.4465 C   0  0  0  0  0  0  0  0  0  0  0  0
   16.3464   -9.4290  -19.8003 C   0  0  0  0  0  0  0  0  0  0  0  0
   17.2331   -9.6760  -20.6493 O   0  0  0  0  0  0  0  0  0  0  0  0
   18.5041   -9.3816  -16.7462 C   0  0  0  0  0  0  0  0  0  0  0  0
   17.9052   -9.4415  -15.6455 O   0  0  0  0  0  0  0  0  0  0  0  0
   15.0235   -9.5848  -20.1584 O   0  0  0  0  0  0  0  0  0  0  0  0
   22.8939  -10.2405  -13.2713 C   0  0  0  0  0  0  0  0  0  0  0  0
   22.3055   -8.9486  -13.8608 C   0  0  0  0  0  0  0  0  0  0  0  0
   21.5480   -9.3100  -15.0807 C   0  0  2  0  0  0  0  0  0  0  0  0
   22.5123   -9.4182  -16.2444 C   0  0  0  0  0  0  0  0  0  0  0  0
   20.4467   -8.3775  -15.4733 C   0  0  2  0  0  0  0  0  0  0  0  0
   19.8117   -8.8157  -16.7272 N   0  0  0  0  0  0  0  0  0  0  0  0
   20.8510   -6.9609  -15.5582 C   0  0  0  0  0  0  0  0  0  0  0  0
   21.6994   -6.6141  -16.4086 O   0  0  0  0  0  0  0  0  0  0  0  0
   19.4894   -3.6731  -14.3285 C   0  0  0  0  0  0  0  0  0  0  0  0
   20.5906   -4.5478  -14.8509 C   0  0  2  0  0  0  0  0  0  0  0  0
   20.3225   -5.9510  -14.7144 N   0  0  0  0  0  0  0  0  0  0  0  0
   21.8514   -4.1338  -14.1950 C   0  0  0  0  0  0  0  0  0  0  0  0
   22.3559   -2.8770  -14.4991 O   0  0  0  0  0  0  0  0  0  0  0  0
   22.4945   -4.8379  -13.3854 O   0  0  0  0  0  0  0  0  0  0  0  0
  2  1  1  1
  3  4  1  0
  3  2  1  0
  4  8  1  0
  5  4  2  0
  6  2  1  0
  6  7  2  0
  9 10  1  0
 10 11  1  0
 11 12  1  6
 11 13  1  0
 13 14  1  6
 14  6  1  0
 15 13  1  0
 16 15  2  0
 18 19  1  0
 18 17  1  1
 19 15  1  0
 20 18  1  0
 21 20  1  0
 22 20  2  0
M  END
$$$$
