DIA.pdb
     RDKit          3D

 22 21  0  0  1  0  0  0  0  0999 V2000
   18.8104  -11.1672  -18.2114 N   0  0  0  0  0  0  0  0  0  0  0  0
   18.0063  -10.6461  -17.1259 C   0  0  1  0  0  0  0  0  0  0  0  0
   17.2150  -11.7992  -16.5618 C   0  0  0  0  0  0  0  0  0  0  0  0
   16.3100  -12.3005  -17.6202 C   0  0  0  0  0  0  0  0  0  0  0  0
   15.3109  -12.9847  -17.3014 O   0  0  0  0  0  0  0  0  0  0  0  0
   18.8827  -10.0106  -16.1397 C   0  0  0  0  0  0  0  0  0  0  0  0
   18.4110   -9.6481  -15.0352 O   0  0  0  0  0  0  0  0  0  0  0  0
   16.5339  -12.0359  -18.9553 O   0  0  0  0  0  0  0  0  0  0  0  0
   22.9116   -9.9738  -12.7459 C   0  0  0  0  0  0  0  0  0  0  0  0
   23.3421   -9.4576  -14.1282 C   0  0  0  0  0  0  0  0  0  0  0  0
   22.3770   -9.9725  -15.1261 C   0  0  2  0  0  0  0  0  0  0  0  0
   23.0640  -10.0632  -16.4735 C   0  0  0  0  0  0  0  0  0  0  0  0
   21.1195   -9.1812  -15.2966 C   0  0  2  0  0  0  0  0  0  0  0  0
   20.2710   -9.7664  -16.3478 N   0  0  0  0  0  0  0  0  0  0  0  0
   21.3354   -7.7417  -15.5387 C   0  0  0  0  0  0  0  0  0  0  0  0
   21.9830   -7.3782  -16.5445 O   0  0  0  0  0  0  0  0  0  0  0  0
   19.8628   -4.4746  -14.6846 C   0  0  0  0  0  0  0  0  0  0  0  0
   21.0894   -5.3236  -14.8434 C   0  0  2  0  0  0  0  0  0  0  0  0
   20.8409   -6.7274  -14.6796 N   0  0  0  0  0  0  0  0  0  0  0  0
   22.1234   -4.8078  -13.9180 C   0  0  0  0  0  0  0  0  0  0  0  0
   22.7682   -3.6278  -14.2620 O   0  0  0  0  0  0  0  0  0  0  0  0
   22.4569   -5.3614  -12.8470 O   0  0  0  0  0  0  0  0  0  0  0  0
  2  1  1  6
  3  4  1  0
  3  2  1  0
  4  8  1  0
  5  4  2  0
  6  2  1  0
  6  7  2  0
  9 10  1  0
 10 11  1  0
 11 12  1  6
 11 13  1  0
 13 14  1  6
 14  6  1  0
 15 13  1  0
 16 15  2  0
 18 19  1  0
 18 17  1  1
 19 15  1  0
 20 18  1  0
 21 20  1  0
 22 20  2  0
M  END
$$$$
