DIA.pdb
     RDKit          3D

 22 21  0  0  1  0  0  0  0  0999 V2000
   16.4129  -11.3728  -15.9261 N   0  0  0  0  0  0  0  0  0  0  0  0
   16.5022   -9.9387  -15.7480 C   0  0  1  0  0  0  0  0  0  0  0  0
   15.6067   -9.5751  -14.5904 C   0  0  0  0  0  0  0  0  0  0  0  0
   14.2503   -9.3106  -15.1205 C   0  0  0  0  0  0  0  0  0  0  0  0
   14.0423   -9.4052  -16.3516 O   0  0  0  0  0  0  0  0  0  0  0  0
   17.9021   -9.5664  -15.5335 C   0  0  0  0  0  0  0  0  0  0  0  0
   18.5753  -10.1661  -14.6611 O   0  0  0  0  0  0  0  0  0  0  0  0
   13.2016   -8.9607  -14.2956 O   0  0  0  0  0  0  0  0  0  0  0  0
   22.9633   -9.4398  -17.0856 C   0  0  0  0  0  0  0  0  0  0  0  0
   22.2092   -8.1169  -17.2953 C   0  0  0  0  0  0  0  0  0  0  0  0
   20.7614   -8.4228  -17.3478 C   0  0  2  0  0  0  0  0  0  0  0  0
   20.1088   -7.5357  -18.3884 C   0  0  0  0  0  0  0  0  0  0  0  0
   20.0080   -8.2685  -16.0653 C   0  0  2  0  0  0  0  0  0  0  0  0
   18.5755   -8.5443  -16.2631 N   0  0  0  0  0  0  0  0  0  0  0  0
   20.2035   -6.9669  -15.3983 C   0  0  0  0  0  0  0  0  0  0  0  0
   19.6758   -5.9426  -15.8834 O   0  0  0  0  0  0  0  0  0  0  0  0
   21.7900   -5.6622  -12.2042 C   0  0  0  0  0  0  0  0  0  0  0  0
   21.2981   -5.5460  -13.6166 C   0  0  2  0  0  0  0  0  0  0  0  0
   20.9704   -6.8081  -14.2159 N   0  0  0  0  0  0  0  0  0  0  0  0
   22.3052   -4.7837  -14.3886 C   0  0  0  0  0  0  0  0  0  0  0  0
   22.4083   -3.4206  -14.1480 O   0  0  0  0  0  0  0  0  0  0  0  0
   23.0705   -5.2824  -15.2433 O   0  0  0  0  0  0  0  0  0  0  0  0
  2  1  1  1
  3  4  1  0
  3  2  1  0
  4  8  1  0
  5  4  2  0
  6  2  1  0
  6  7  2  0
  9 10  1  0
 10 11  1  0
 11 12  1  6
 11 13  1  0
 13 14  1  6
 14  6  1  0
 15 13  1  0
 16 15  2  0
 18 19  1  0
 18 17  1  1
 19 15  1  0
 20 18  1  0
 21 20  1  0
 22 20  2  0
M  END
$$$$
