DIA.pdb
     RDKit          3D

 22 21  0  0  1  0  0  0  0  0999 V2000
   24.1784  -24.4310  -15.8878 N   0  0  0  0  0  0  0  0  0  0  0  0
   23.0040  -25.2769  -15.8450 C   0  0  1  0  0  0  0  0  0  0  0  0
   23.4702  -26.6992  -16.0297 C   0  0  0  0  0  0  0  0  0  0  0  0
   23.5669  -26.9692  -17.4817 C   0  0  0  0  0  0  0  0  0  0  0  0
   23.0399  -26.1726  -18.2915 O   0  0  0  0  0  0  0  0  0  0  0  0
   22.3004  -25.0602  -14.5792 C   0  0  0  0  0  0  0  0  0  0  0  0
   22.9595  -24.9168  -13.5215 O   0  0  0  0  0  0  0  0  0  0  0  0
   24.2236  -28.0777  -17.9741 O   0  0  0  0  0  0  0  0  0  0  0  0
   19.0906  -21.5763  -14.4980 C   0  0  0  0  0  0  0  0  0  0  0  0
   19.9515  -22.3131  -13.4594 C   0  0  0  0  0  0  0  0  0  0  0  0
   19.3136  -23.6211  -13.1865 C   0  0  2  0  0  0  0  0  0  0  0  0
   18.5876  -23.5467  -11.8587 C   0  0  0  0  0  0  0  0  0  0  0  0
   20.2262  -24.8054  -13.1527 C   0  0  2  0  0  0  0  0  0  0  0  0
   20.8821  -24.9984  -14.4565 N   0  0  0  0  0  0  0  0  0  0  0  0
   19.5845  -26.0544  -12.6993 C   0  0  0  0  0  0  0  0  0  0  0  0
   18.7654  -26.6310  -13.4474 O   0  0  0  0  0  0  0  0  0  0  0  0
   19.8748  -28.3713   -9.6881 C   0  0  0  0  0  0  0  0  0  0  0  0
   19.3196  -27.9104  -11.0033 C   0  0  2  0  0  0  0  0  0  0  0  0
   19.8488  -26.6498  -11.4395 N   0  0  0  0  0  0  0  0  0  0  0  0
   17.8428  -27.9128  -10.9004 C   0  0  0  0  0  0  0  0  0  0  0  0
   17.1784  -29.1028  -11.1632 O   0  0  0  0  0  0  0  0  0  0  0  0
   17.1513  -26.9167  -10.5930 O   0  0  0  0  0  0  0  0  0  0  0  0
  2  1  1  1
  3  4  1  0
  3  2  1  0
  4  8  1  0
  5  4  2  0
  6  2  1  0
  6  7  2  0
  9 10  1  0
 10 11  1  0
 11 12  1  1
 11 13  1  0
 13 14  1  6
 14  6  1  0
 15 13  1  0
 16 15  2  0
 18 19  1  0
 18 17  1  1
 19 15  1  0
 20 18  1  0
 21 20  1  0
 22 20  2  0
M  END
$$$$
