DIA.pdb
     RDKit          3D

 22 21  0  0  1  0  0  0  0  0999 V2000
   19.5238  -20.5560  -11.6916 N   0  0  0  0  0  0  0  0  0  0  0  0
   20.3594  -21.3488  -12.5690 C   0  0  1  0  0  0  0  0  0  0  0  0
   19.6026  -21.5344  -13.8601 C   0  0  0  0  0  0  0  0  0  0  0  0
   18.4500  -22.4247  -13.5965 C   0  0  0  0  0  0  0  0  0  0  0  0
   18.4136  -23.0846  -12.5330 O   0  0  0  0  0  0  0  0  0  0  0  0
   21.6469  -20.6743  -12.7468 C   0  0  0  0  0  0  0  0  0  0  0  0
   21.7051  -19.4231  -12.6762 O   0  0  0  0  0  0  0  0  0  0  0  0
   17.4080  -22.5512  -14.4914 O   0  0  0  0  0  0  0  0  0  0  0  0
   25.9075  -21.2940   -9.8342 C   0  0  0  0  0  0  0  0  0  0  0  0
   24.8194  -20.6881  -10.7351 C   0  0  0  0  0  0  0  0  0  0  0  0
   25.1378  -21.0469  -12.1359 C   0  0  2  0  0  0  0  0  0  0  0  0
   26.4808  -20.4492  -12.5035 C   0  0  0  0  0  0  0  0  0  0  0  0
   24.1414  -20.6236  -13.1677 C   0  0  2  0  0  0  0  0  0  0  0  0
   22.8736  -21.3532  -13.0015 N   0  0  0  0  0  0  0  0  0  0  0  0
   24.6257  -20.7250  -14.5579 C   0  0  0  0  0  0  0  0  0  0  0  0
   25.0463  -21.8227  -14.9834 O   0  0  0  0  0  0  0  0  0  0  0  0
   24.9044  -18.4101  -17.5728 C   0  0  0  0  0  0  0  0  0  0  0  0
   25.1077  -19.6870  -16.8121 C   0  0  2  0  0  0  0  0  0  0  0  0
   24.6416  -19.6276  -15.4561 N   0  0  0  0  0  0  0  0  0  0  0  0
   26.5373  -20.0568  -16.9162 C   0  0  0  0  0  0  0  0  0  0  0  0
   27.3976  -19.5968  -15.9289 O   0  0  0  0  0  0  0  0  0  0  0  0
   27.0245  -20.7554  -17.8324 O   0  0  0  0  0  0  0  0  0  0  0  0
  2  1  1  1
  3  4  1  0
  3  2  1  0
  4  8  1  0
  5  4  2  0
  6  2  1  0
  6  7  2  0
  9 10  1  0
 10 11  1  0
 11 12  1  6
 11 13  1  0
 13 14  1  6
 14  6  1  0
 15 13  1  0
 16 15  2  0
 18 19  1  0
 18 17  1  1
 19 15  1  0
 20 18  1  0
 21 20  1  0
 22 20  2  0
M  END
$$$$
