DIA.pdb
     RDKit          3D

 22 21  0  0  1  0  0  0  0  0999 V2000
   23.1306  -12.0897  -20.5977 N   0  0  0  0  0  0  0  0  0  0  0  0
   23.4211  -10.6915  -20.3588 C   0  0  1  0  0  0  0  0  0  0  0  0
   22.7009   -9.8974  -21.4194 C   0  0  0  0  0  0  0  0  0  0  0  0
   23.4909   -9.9716  -22.6688 C   0  0  0  0  0  0  0  0  0  0  0  0
   24.7254   -9.7657  -22.6285 O   0  0  0  0  0  0  0  0  0  0  0  0
   23.0114  -10.3405  -18.9975 C   0  0  0  0  0  0  0  0  0  0  0  0
   21.9016  -10.7336  -18.5644 O   0  0  0  0  0  0  0  0  0  0  0  0
   22.9064  -10.2623  -23.8838 O   0  0  0  0  0  0  0  0  0  0  0  0
   26.3548  -10.5335  -14.7231 C   0  0  0  0  0  0  0  0  0  0  0  0
   25.6659   -9.7361  -15.8422 C   0  0  0  0  0  0  0  0  0  0  0  0
   24.2066   -9.9580  -15.7256 C   0  0  2  0  0  0  0  0  0  0  0  0
   23.9263  -11.4442  -15.8157 C   0  0  0  0  0  0  0  0  0  0  0  0
   23.3510   -9.2605  -16.7346 C   0  0  2  0  0  0  0  0  0  0  0  0
   23.8025   -9.5632  -18.1028 N   0  0  0  0  0  0  0  0  0  0  0  0
   23.2364   -7.8035  -16.5312 C   0  0  0  0  0  0  0  0  0  0  0  0
   24.2010   -7.0645  -16.8252 O   0  0  0  0  0  0  0  0  0  0  0  0
   20.5404   -5.2622  -15.9928 C   0  0  0  0  0  0  0  0  0  0  0  0
   21.9341   -5.7729  -15.7750 C   0  0  2  0  0  0  0  0  0  0  0  0
   22.0727   -7.1815  -16.0114 N   0  0  0  0  0  0  0  0  0  0  0  0
   22.3597   -5.3704  -14.4155 C   0  0  0  0  0  0  0  0  0  0  0  0
   22.6212   -4.0258  -14.1915 O   0  0  0  0  0  0  0  0  0  0  0  0
   22.5002   -6.1578  -13.4537 O   0  0  0  0  0  0  0  0  0  0  0  0
  2  1  1  6
  3  4  1  0
  3  2  1  0
  4  8  1  0
  5  4  2  0
  6  2  1  0
  6  7  2  0
  9 10  1  0
 10 11  1  0
 11 12  1  6
 11 13  1  0
 13 14  1  6
 14  6  1  0
 15 13  1  0
 16 15  2  0
 18 19  1  0
 18 17  1  1
 19 15  1  0
 20 18  1  0
 21 20  1  0
 22 20  2  0
M  END
$$$$
