DIA.pdb
     RDKit          3D

 22 21  0  0  1  0  0  0  0  0999 V2000
   17.7841   -4.1833  -15.2580 N   0  0  0  0  0  0  0  0  0  0  0  0
   18.6172   -5.0336  -16.0822 C   0  0  1  0  0  0  0  0  0  0  0  0
   19.8474   -4.2397  -16.4434 C   0  0  0  0  0  0  0  0  0  0  0  0
   19.4425   -3.1518  -17.3616 C   0  0  0  0  0  0  0  0  0  0  0  0
   18.7926   -3.4298  -18.3952 O   0  0  0  0  0  0  0  0  0  0  0  0
   18.9199   -6.2657  -15.3509 C   0  0  0  0  0  0  0  0  0  0  0  0
   19.1286   -6.2164  -14.1149 O   0  0  0  0  0  0  0  0  0  0  0  0
   19.7604   -1.8328  -17.1128 O   0  0  0  0  0  0  0  0  0  0  0  0
   15.7865   -9.5404  -15.5291 C   0  0  0  0  0  0  0  0  0  0  0  0
   16.9437   -9.3100  -14.5439 C   0  0  0  0  0  0  0  0  0  0  0  0
   18.1967   -9.7367  -15.2075 C   0  0  2  0  0  0  0  0  0  0  0  0
   18.6737  -11.0277  -14.5739 C   0  0  0  0  0  0  0  0  0  0  0  0
   19.3262   -8.7570  -15.1757 C   0  0  2  0  0  0  0  0  0  0  0  0
   18.9972   -7.5532  -15.9567 N   0  0  0  0  0  0  0  0  0  0  0  0
   20.6263   -9.3145  -15.5954 C   0  0  0  0  0  0  0  0  0  0  0  0
   20.7885   -9.6675  -16.7837 O   0  0  0  0  0  0  0  0  0  0  0  0
   23.9433  -10.1672  -13.9202 C   0  0  0  0  0  0  0  0  0  0  0  0
   22.9755  -10.0823  -15.0633 C   0  0  2  0  0  0  0  0  0  0  0  0
   21.7234   -9.4759  -14.7113 N   0  0  0  0  0  0  0  0  0  0  0  0
   22.8204  -11.4407  -15.6310 C   0  0  0  0  0  0  0  0  0  0  0  0
   23.7311  -11.8455  -16.5970 O   0  0  0  0  0  0  0  0  0  0  0  0
   21.9253  -12.2497  -15.3007 O   0  0  0  0  0  0  0  0  0  0  0  0
  2  1  1  1
  3  4  1  0
  3  2  1  0
  4  8  1  0
  5  4  2  0
  6  2  1  0
  6  7  2  0
  9 10  1  0
 10 11  1  0
 11 12  1  1
 11 13  1  0
 13 14  1  6
 14  6  1  0
 15 13  1  0
 16 15  2  0
 18 19  1  0
 18 17  1  1
 19 15  1  0
 20 18  1  0
 21 20  1  0
 22 20  2  0
M  END
$$$$
