DIA.pdb
     RDKit          3D

 22 21  0  0  1  0  0  0  0  0999 V2000
   17.7299  -11.6417  -15.5730 N   0  0  0  0  0  0  0  0  0  0  0  0
   18.1615  -10.5710  -16.4470 C   0  0  1  0  0  0  0  0  0  0  0  0
   16.9506  -10.1053  -17.2156 C   0  0  0  0  0  0  0  0  0  0  0  0
   16.6929  -11.0746  -18.3040 C   0  0  0  0  0  0  0  0  0  0  0  0
   17.5424  -11.9604  -18.5521 O   0  0  0  0  0  0  0  0  0  0  0  0
   18.7773   -9.5126  -15.6439 C   0  0  0  0  0  0  0  0  0  0  0  0
   18.2215   -9.1375  -14.5836 O   0  0  0  0  0  0  0  0  0  0  0  0
   15.5390  -11.0324  -19.0586 O   0  0  0  0  0  0  0  0  0  0  0  0
   23.1044  -10.3512  -14.8339 C   0  0  0  0  0  0  0  0  0  0  0  0
   22.3552   -9.3002  -13.9992 C   0  0  0  0  0  0  0  0  0  0  0  0
   22.0556   -8.1492  -14.8811 C   0  0  2  0  0  0  0  0  0  0  0  0
   22.7104   -6.9082  -14.3096 C   0  0  0  0  0  0  0  0  0  0  0  0
   20.6076   -7.8504  -15.1061 C   0  0  2  0  0  0  0  0  0  0  0  0
   19.9957   -8.8584  -15.9874 N   0  0  0  0  0  0  0  0  0  0  0  0
   20.3383   -6.4874  -15.6032 C   0  0  0  0  0  0  0  0  0  0  0  0
   20.8076   -6.1319  -16.7061 O   0  0  0  0  0  0  0  0  0  0  0  0
   18.1530   -3.5456  -14.6261 C   0  0  0  0  0  0  0  0  0  0  0  0
   19.3161   -4.1929  -15.3182 C   0  0  2  0  0  0  0  0  0  0  0  0
   19.5629   -5.5395  -14.8880 N   0  0  0  0  0  0  0  0  0  0  0  0
   20.4925   -3.3092  -15.1552 C   0  0  0  0  0  0  0  0  0  0  0  0
   20.4941   -2.1020  -15.8402 O   0  0  0  0  0  0  0  0  0  0  0  0
   21.4860   -3.5746  -14.4429 O   0  0  0  0  0  0  0  0  0  0  0  0
  2  1  1  1
  3  4  1  0
  3  2  1  0
  4  8  1  0
  5  4  2  0
  6  2  1  0
  6  7  2  0
  9 10  1  0
 10 11  1  0
 11 12  1  1
 11 13  1  0
 13 14  1  6
 14  6  1  0
 15 13  1  0
 16 15  2  0
 18 19  1  0
 18 17  1  1
 19 15  1  0
 20 18  1  0
 21 20  1  0
 22 20  2  0
M  END
$$$$
