DIA.pdb
     RDKit          3D

 22 21  0  0  1  0  0  0  0  0999 V2000
   16.6231  -11.6286  -17.2548 N   0  0  0  0  0  0  0  0  0  0  0  0
   17.3650  -11.1519  -16.1064 C   0  0  1  0  0  0  0  0  0  0  0  0
   18.4585  -12.1538  -15.8330 C   0  0  0  0  0  0  0  0  0  0  0  0
   17.8364  -13.3780  -15.2809 C   0  0  0  0  0  0  0  0  0  0  0  0
   16.8237  -13.2775  -14.5513 O   0  0  0  0  0  0  0  0  0  0  0  0
   17.8717   -9.8066  -16.3851 C   0  0  0  0  0  0  0  0  0  0  0  0
   18.3605   -9.5504  -17.5117 O   0  0  0  0  0  0  0  0  0  0  0  0
   18.3403  -14.6343  -15.5466 O   0  0  0  0  0  0  0  0  0  0  0  0
   17.2734   -4.6383  -17.4746 C   0  0  0  0  0  0  0  0  0  0  0  0
   17.6611   -4.9849  -16.0282 C   0  0  0  0  0  0  0  0  0  0  0  0
   17.2618   -6.3880  -15.7747 C   0  0  2  0  0  0  0  0  0  0  0  0
   16.5603   -6.4651  -14.4340 C   0  0  0  0  0  0  0  0  0  0  0  0
   18.3638   -7.3988  -15.7827 C   0  0  2  0  0  0  0  0  0  0  0  0
   17.8500   -8.7364  -15.4445 N   0  0  0  0  0  0  0  0  0  0  0  0
   19.5157   -7.0491  -14.9294 C   0  0  0  0  0  0  0  0  0  0  0  0
   19.3975   -7.1022  -13.6859 O   0  0  0  0  0  0  0  0  0  0  0  0
   23.1781   -6.1507  -15.4326 C   0  0  0  0  0  0  0  0  0  0  0  0
   21.9022   -6.2627  -14.6514 C   0  0  2  0  0  0  0  0  0  0  0  0
   20.7732   -6.6486  -15.4487 N   0  0  0  0  0  0  0  0  0  0  0  0
   21.6935   -4.9848  -13.9339 C   0  0  0  0  0  0  0  0  0  0  0  0
   22.4912   -4.7268  -12.8277 O   0  0  0  0  0  0  0  0  0  0  0  0
   20.8480   -4.1207  -14.2550 O   0  0  0  0  0  0  0  0  0  0  0  0
  2  1  1  6
  3  4  1  0
  3  2  1  0
  4  8  1  0
  5  4  2  0
  6  2  1  0
  6  7  2  0
  9 10  1  0
 10 11  1  0
 11 12  1  1
 11 13  1  0
 13 14  1  1
 14  6  1  0
 15 13  1  0
 16 15  2  0
 18 19  1  0
 18 17  1  6
 19 15  1  0
 20 18  1  0
 21 20  1  0
 22 20  2  0
M  END
$$$$
