PTT.pdb
     RDKit          3D

 22 22  0  0  1  0  0  0  0  0999 V2000
   18.3823  -12.3623  -16.4462 N   0  0  0  0  0  0  0  0  0  0  0  0
   19.0265  -13.4796  -17.1509 C   0  0  0  0  0  0  0  0  0  0  0  0
   20.2902  -12.7708  -17.6562 C   0  0  0  0  0  0  0  0  0  0  0  0
   20.7381  -12.0674  -16.3935 C   0  0  0  0  0  0  0  0  0  0  0  0
   19.4370  -11.6939  -15.7276 C   0  0  1  0  0  0  0  0  0  0  0  0
   19.1958  -10.2510  -15.7035 C   0  0  0  0  0  0  0  0  0  0  0  0
   18.8011   -9.6733  -16.7483 O   0  0  0  0  0  0  0  0  0  0  0  0
   16.7681   -8.3602  -14.1620 C   0  0  0  0  0  0  0  0  0  0  0  0
   18.0184   -7.7143  -13.6018 C   0  0  1  0  0  0  0  0  0  0  0  0
   18.3742   -8.3208  -12.3832 O   0  0  0  0  0  0  0  0  0  0  0  0
   19.1778   -8.0002  -14.5659 C   0  0  2  0  0  0  0  0  0  0  0  0
   19.3739   -9.4158  -14.5660 N   0  0  0  0  0  0  0  0  0  0  0  0
   20.3230   -7.2217  -14.1002 C   0  0  0  0  0  0  0  0  0  0  0  0
   21.1305   -7.6745  -13.2614 O   0  0  0  0  0  0  0  0  0  0  0  0
   23.4334   -6.2416  -15.6142 C   0  0  0  0  0  0  0  0  0  0  0  0
   22.6620   -4.9827  -15.3821 C   0  0  1  0  0  0  0  0  0  0  0  0
   21.9609   -4.6791  -16.5517 O   0  0  0  0  0  0  0  0  0  0  0  0
   21.6521   -5.0929  -14.2649 C   0  0  2  0  0  0  0  0  0  0  0  0
   20.5276   -5.9174  -14.6107 N   0  0  0  0  0  0  0  0  0  0  0  0
   21.2022   -3.7341  -13.9280 C   0  0  0  0  0  0  0  0  0  0  0  0
   22.0624   -2.8361  -13.3471 O   0  0  0  0  0  0  0  0  0  0  0  0
   20.0326   -3.3914  -14.1698 O   0  0  0  0  0  0  0  0  0  0  0  0
  1  2  1  0
  1  5  1  0
  2  3  1  0
  3  4  1  0
  5  4  1  0
  6 12  1  0
  5  6  1  6
  7  6  2  0
  9  8  1  6
  9 11  1  0
 10  9  1  0
 11 12  1  1
 11 13  1  0
 13 19  1  0
 14 13  2  0
 16 17  1  0
 16 15  1  6
 18 20  1  0
 18 16  1  0
 18 19  1  6
 20 21  1  0
 22 20  2  0
M  END
$$$$
