PTT.pdb
     RDKit          3D

 22 22  0  0  1  0  0  0  0  0999 V2000
   19.0923  -11.7403  -15.1050 N   0  0  0  0  0  0  0  0  0  0  0  0
   18.4230  -13.0227  -15.3651 C   0  0  0  0  0  0  0  0  0  0  0  0
   17.9056  -12.7594  -16.7856 C   0  0  0  0  0  0  0  0  0  0  0  0
   19.1506  -12.1957  -17.4350 C   0  0  0  0  0  0  0  0  0  0  0  0
   19.7981  -11.4151  -16.3181 C   0  0  1  0  0  0  0  0  0  0  0  0
   19.7802   -9.9691  -16.5404 C   0  0  0  0  0  0  0  0  0  0  0  0
   20.4153   -9.4857  -17.5120 O   0  0  0  0  0  0  0  0  0  0  0  0
   16.9959   -7.9068  -17.3842 C   0  0  0  0  0  0  0  0  0  0  0  0
   17.5306   -7.2712  -16.1176 C   0  0  1  0  0  0  0  0  0  0  0  0
   16.9063   -7.8352  -14.9901 O   0  0  0  0  0  0  0  0  0  0  0  0
   19.0184   -7.6277  -15.9946 C   0  0  2  0  0  0  0  0  0  0  0  0
   19.0852   -9.0302  -15.7287 N   0  0  0  0  0  0  0  0  0  0  0  0
   19.5766   -6.7768  -14.9463 C   0  0  0  0  0  0  0  0  0  0  0  0
   19.6596   -7.1607  -13.7604 O   0  0  0  0  0  0  0  0  0  0  0  0
   22.9089   -5.7406  -14.1652 C   0  0  0  0  0  0  0  0  0  0  0  0
   22.1701   -4.5021  -14.5578 C   0  0  1  0  0  0  0  0  0  0  0  0
   22.3841   -4.2804  -15.9204 O   0  0  0  0  0  0  0  0  0  0  0  0
   20.6784   -4.5977  -14.3438 C   0  0  2  0  0  0  0  0  0  0  0  0
   20.0375   -5.4804  -15.2787 N   0  0  0  0  0  0  0  0  0  0  0  0
   20.1187   -3.2427  -14.4576 C   0  0  0  0  0  0  0  0  0  0  0  0
   20.4346   -2.2755  -13.5365 O   0  0  0  0  0  0  0  0  0  0  0  0
   19.3518   -2.9664  -15.3953 O   0  0  0  0  0  0  0  0  0  0  0  0
  1  2  1  0
  1  5  1  0
  2  3  1  0
  3  4  1  0
  5  4  1  0
  6 12  1  0
  5  6  1  6
  7  6  2  0
  9  8  1  6
  9 11  1  0
 10  9  1  0
 11 12  1  1
 11 13  1  0
 13 19  1  0
 14 13  2  0
 16 17  1  0
 16 15  1  6
 18 20  1  0
 18 16  1  0
 18 19  1  6
 20 21  1  0
 22 20  2  0
M  END
$$$$
