PTT.pdb
     RDKit          3D

 22 22  0  0  1  0  0  0  0  0999 V2000
   19.4891  -12.7816  -17.0897 N   0  0  0  0  0  0  0  0  0  0  0  0
   18.3187  -13.6659  -16.9995 C   0  0  0  0  0  0  0  0  0  0  0  0
   17.6659  -13.1001  -15.7313 C   0  0  0  0  0  0  0  0  0  0  0  0
   17.7080  -11.6182  -16.0344 C   0  0  0  0  0  0  0  0  0  0  0  0
   19.0027  -11.4586  -16.7922 C   0  0  1  0  0  0  0  0  0  0  0  0
   20.0139  -10.7035  -16.0520 C   0  0  0  0  0  0  0  0  0  0  0  0
   20.2231  -10.9732  -14.8418 O   0  0  0  0  0  0  0  0  0  0  0  0
   23.5475  -10.3756  -16.4659 C   0  0  0  0  0  0  0  0  0  0  0  0
   23.0754   -8.9380  -16.5336 C   0  0  1  0  0  0  0  0  0  0  0  0
   22.8499   -8.5633  -17.8707 O   0  0  0  0  0  0  0  0  0  0  0  0
   21.7101   -8.8494  -15.8380 C   0  0  2  0  0  0  0  0  0  0  0  0
   20.8079   -9.6568  -16.5972 N   0  0  0  0  0  0  0  0  0  0  0  0
   21.3568   -7.4334  -15.7684 C   0  0  0  0  0  0  0  0  0  0  0  0
   20.6698   -6.8813  -16.6538 O   0  0  0  0  0  0  0  0  0  0  0  0
   19.6105   -5.9004  -12.7932 C   0  0  0  0  0  0  0  0  0  0  0  0
   19.9582   -5.1666  -14.0479 C   0  0  1  0  0  0  0  0  0  0  0  0
   19.7014   -3.8086  -13.8441 O   0  0  0  0  0  0  0  0  0  0  0  0
   21.4104   -5.2987  -14.4397 C   0  0  2  0  0  0  0  0  0  0  0  0
   21.8031   -6.6615  -14.6691 N   0  0  0  0  0  0  0  0  0  0  0  0
   22.2229   -4.7091  -13.3652 C   0  0  0  0  0  0  0  0  0  0  0  0
   22.2384   -3.3515  -13.1643 O   0  0  0  0  0  0  0  0  0  0  0  0
   22.9037   -5.4435  -12.6297 O   0  0  0  0  0  0  0  0  0  0  0  0
  1  2  1  0
  1  5  1  0
  2  3  1  0
  3  4  1  0
  5  4  1  0
  6 12  1  0
  5  6  1  1
  7  6  2  0
  9  8  1  6
  9 11  1  0
 10  9  1  0
 11 12  1  6
 11 13  1  0
 13 19  1  0
 14 13  2  0
 16 17  1  0
 16 15  1  1
 18 20  1  0
 18 16  1  0
 18 19  1  1
 20 21  1  0
 22 20  2  0
M  END
$$$$
