PTT.pdb
     RDKit          3D

 22 22  0  0  1  0  0  0  0  0999 V2000
   18.5333  -12.6627  -17.0488 N   0  0  0  0  0  0  0  0  0  0  0  0
   18.7866  -13.5276  -18.2097 C   0  0  0  0  0  0  0  0  0  0  0  0
   19.5014  -12.5256  -19.1261 C   0  0  0  0  0  0  0  0  0  0  0  0
   20.4997  -11.9275  -18.1589 C   0  0  0  0  0  0  0  0  0  0  0  0
   19.7442  -11.9070  -16.8533 C   0  0  1  0  0  0  0  0  0  0  0  0
   19.4268  -10.5550  -16.3927 C   0  0  0  0  0  0  0  0  0  0  0  0
   18.6172   -9.8527  -17.0503 O   0  0  0  0  0  0  0  0  0  0  0  0
   17.6271   -9.3339  -13.8001 C   0  0  0  0  0  0  0  0  0  0  0  0
   18.9409   -8.6288  -13.5339 C   0  0  1  0  0  0  0  0  0  0  0  0
   19.7216   -9.3790  -12.6356 O   0  0  0  0  0  0  0  0  0  0  0  0
   19.7362   -8.5872  -14.8459 C   0  0  2  0  0  0  0  0  0  0  0  0
   19.9703   -9.9440  -15.2289 N   0  0  0  0  0  0  0  0  0  0  0  0
   20.9430   -7.8045  -14.5898 C   0  0  0  0  0  0  0  0  0  0  0  0
   22.0394   -8.3476  -14.3373 O   0  0  0  0  0  0  0  0  0  0  0  0
   22.7778   -5.4028  -16.8289 C   0  0  0  0  0  0  0  0  0  0  0  0
   22.2791   -4.6512  -15.6372 C   0  0  1  0  0  0  0  0  0  0  0  0
   21.0747   -4.0340  -15.9838 O   0  0  0  0  0  0  0  0  0  0  0  0
   22.0085   -5.5313  -14.4404 C   0  0  2  0  0  0  0  0  0  0  0  0
   20.8730   -6.3913  -14.6276 N   0  0  0  0  0  0  0  0  0  0  0  0
   21.7986   -4.6577  -13.2764 C   0  0  0  0  0  0  0  0  0  0  0  0
   22.8296   -3.9057  -12.7709 O   0  0  0  0  0  0  0  0  0  0  0  0
   20.6786   -4.5966  -12.7420 O   0  0  0  0  0  0  0  0  0  0  0  0
  1  2  1  0
  1  5  1  0
  2  3  1  0
  3  4  1  0
  5  4  1  0
  6 12  1  0
  5  6  1  6
  7  6  2  0
  9  8  1  6
  9 11  1  0
 10  9  1  0
 11 12  1  1
 11 13  1  0
 13 19  1  0
 14 13  2  0
 16 17  1  0
 16 15  1  6
 18 20  1  0
 18 16  1  0
 18 19  1  6
 20 21  1  0
 22 20  2  0
M  END
$$$$
