PTT.pdb
     RDKit          3D

 22 22  0  0  1  0  0  0  0  0999 V2000
   29.2901  -22.2539  -12.0731 N   0  0  0  0  0  0  0  0  0  0  0  0
   30.6945  -22.3831  -11.6598 C   0  0  0  0  0  0  0  0  0  0  0  0
   31.0368  -20.9028  -11.4452 C   0  0  0  0  0  0  0  0  0  0  0  0
   29.8475  -20.4590  -10.6216 C   0  0  0  0  0  0  0  0  0  0  0  0
   28.7119  -21.2731  -11.1904 C   0  0  1  0  0  0  0  0  0  0  0  0
   27.7275  -20.4644  -11.9098 C   0  0  0  0  0  0  0  0  0  0  0  0
   27.2020  -19.4765  -11.3362 O   0  0  0  0  0  0  0  0  0  0  0  0
   28.0829  -18.5419  -14.8430 C   0  0  0  0  0  0  0  0  0  0  0  0
   26.9057  -19.4215  -15.2100 C   0  0  1  0  0  0  0  0  0  0  0  0
   27.3480  -20.5557  -15.9150 O   0  0  0  0  0  0  0  0  0  0  0  0
   26.2820  -19.9522  -13.9120 C   0  0  2  0  0  0  0  0  0  0  0  0
   27.2975  -20.7040  -13.2443 N   0  0  0  0  0  0  0  0  0  0  0  0
   25.0977  -20.7200  -14.2895 C   0  0  0  0  0  0  0  0  0  0  0  0
   25.1633  -21.9342  -14.5763 O   0  0  0  0  0  0  0  0  0  0  0  0
   22.2192  -21.7589  -12.3611 C   0  0  0  0  0  0  0  0  0  0  0  0
   21.6941  -20.8568  -13.4308 C   0  0  1  0  0  0  0  0  0  0  0  0
   21.5590  -19.5749  -12.8923 O   0  0  0  0  0  0  0  0  0  0  0  0
   22.6060  -20.7503  -14.6296 C   0  0  2  0  0  0  0  0  0  0  0  0
   23.8386  -20.0747  -14.3328 N   0  0  0  0  0  0  0  0  0  0  0  0
   21.8770  -20.0368  -15.6888 C   0  0  0  0  0  0  0  0  0  0  0  0
   22.2903  -18.7975  -16.1097 O   0  0  0  0  0  0  0  0  0  0  0  0
   20.8767  -20.5572  -16.2105 O   0  0  0  0  0  0  0  0  0  0  0  0
  1  2  1  0
  1  5  1  0
  2  3  1  0
  3  4  1  0
  5  4  1  0
  6 12  1  0
  5  6  1  6
  7  6  2  0
  9  8  1  1
  9 11  1  0
 10  9  1  0
 11 12  1  6
 11 13  1  0
 13 19  1  0
 14 13  2  0
 16 17  1  0
 16 15  1  1
 18 20  1  0
 18 16  1  0
 18 19  1  1
 20 21  1  0
 22 20  2  0
M  END
$$$$
