PTT.pdb
     RDKit          3D

 22 22  0  0  1  0  0  0  0  0999 V2000
   20.0539  -15.1910  -17.3549 N   0  0  0  0  0  0  0  0  0  0  0  0
   20.0841  -16.6376  -17.6125 C   0  0  0  0  0  0  0  0  0  0  0  0
   20.5647  -17.1330  -16.2420 C   0  0  0  0  0  0  0  0  0  0  0  0
   19.6433  -16.3563  -15.3268 C   0  0  0  0  0  0  0  0  0  0  0  0
   19.4755  -15.0398  -16.0442 C   0  0  1  0  0  0  0  0  0  0  0  0
   20.1005  -13.9181  -15.3428 C   0  0  0  0  0  0  0  0  0  0  0  0
   19.7918  -13.6890  -14.1457 O   0  0  0  0  0  0  0  0  0  0  0  0
   23.6206  -13.2640  -14.6996 C   0  0  0  0  0  0  0  0  0  0  0  0
   23.1463  -12.0119  -15.4078 C   0  0  1  0  0  0  0  0  0  0  0  0
   23.3686  -12.1233  -16.7925 O   0  0  0  0  0  0  0  0  0  0  0  0
   21.6246  -11.9116  -15.2347 C   0  0  2  0  0  0  0  0  0  0  0  0
   21.0580  -13.0343  -15.9134 N   0  0  0  0  0  0  0  0  0  0  0  0
   21.2197  -10.6091  -15.7584 C   0  0  0  0  0  0  0  0  0  0  0  0
   21.1246  -10.3927  -16.9851 O   0  0  0  0  0  0  0  0  0  0  0  0
   18.0711   -8.9246  -15.6367 C   0  0  0  0  0  0  0  0  0  0  0  0
   19.0162   -8.0195  -14.9147 C   0  0  1  0  0  0  0  0  0  0  0  0
   18.8716   -8.2428  -13.5432 O   0  0  0  0  0  0  0  0  0  0  0  0
   20.4655   -8.2617  -15.2622 C   0  0  2  0  0  0  0  0  0  0  0  0
   20.9260   -9.5601  -14.8546 N   0  0  0  0  0  0  0  0  0  0  0  0
   21.2662   -7.2118  -14.6150 C   0  0  0  0  0  0  0  0  0  0  0  0
   21.1649   -5.9045  -15.0208 O   0  0  0  0  0  0  0  0  0  0  0  0
   22.0431   -7.5064  -13.6913 O   0  0  0  0  0  0  0  0  0  0  0  0
  1  2  1  0
  1  5  1  0
  2  3  1  0
  3  4  1  0
  5  4  1  0
  6 12  1  0
  5  6  1  1
  7  6  2  0
  9  8  1  1
  9 11  1  0
 10  9  1  0
 11 12  1  6
 11 13  1  0
 13 19  1  0
 14 13  2  0
 16 17  1  0
 16 15  1  6
 18 20  1  0
 18 16  1  0
 18 19  1  1
 20 21  1  0
 22 20  2  0
M  END
$$$$
