PTT.pdb
     RDKit          3D

 22 22  0  0  1  0  0  0  0  0999 V2000
   18.4808  -11.3076  -17.0622 N   0  0  0  0  0  0  0  0  0  0  0  0
   17.9833  -12.6230  -17.4889 C   0  0  0  0  0  0  0  0  0  0  0  0
   18.4477  -13.4724  -16.2983 C   0  0  0  0  0  0  0  0  0  0  0  0
   17.9771  -12.6142  -15.1442 C   0  0  0  0  0  0  0  0  0  0  0  0
   18.1707  -11.2093  -15.6587 C   0  0  1  0  0  0  0  0  0  0  0  0
   19.2279  -10.4799  -14.9579 C   0  0  0  0  0  0  0  0  0  0  0  0
   19.1490  -10.3229  -13.7129 O   0  0  0  0  0  0  0  0  0  0  0  0
   22.8311  -11.1157  -14.6622 C   0  0  0  0  0  0  0  0  0  0  0  0
   22.7284   -9.7354  -15.2774 C   0  0  1  0  0  0  0  0  0  0  0  0
   22.7285   -9.8280  -16.6812 O   0  0  0  0  0  0  0  0  0  0  0  0
   21.3650   -9.1421  -14.8969 C   0  0  2  0  0  0  0  0  0  0  0  0
   20.3750   -9.9139  -15.5801 N   0  0  0  0  0  0  0  0  0  0  0  0
   21.3983   -7.7271  -15.2593 C   0  0  0  0  0  0  0  0  0  0  0  0
   21.3830   -7.3514  -16.4506 O   0  0  0  0  0  0  0  0  0  0  0  0
   19.2414   -5.1859  -15.5720 C   0  0  0  0  0  0  0  0  0  0  0  0
   20.1355   -4.6925  -14.4807 C   0  0  1  0  0  0  0  0  0  0  0  0
   19.5339   -4.9915  -13.2558 O   0  0  0  0  0  0  0  0  0  0  0  0
   21.5010   -5.3369  -14.4836 C   0  0  2  0  0  0  0  0  0  0  0  0
   21.4494   -6.7511  -14.2355 N   0  0  0  0  0  0  0  0  0  0  0  0
   22.3167   -4.6699  -13.4580 C   0  0  0  0  0  0  0  0  0  0  0  0
   22.7116   -5.3448  -12.3299 O   0  0  0  0  0  0  0  0  0  0  0  0
   22.6541   -3.4838  -13.6099 O   0  0  0  0  0  0  0  0  0  0  0  0
  1  2  1  0
  1  5  1  0
  2  3  1  0
  3  4  1  0
  5  4  1  0
  6 12  1  0
  5  6  1  1
  7  6  2  0
  9  8  1  1
  9 11  1  0
 10  9  1  0
 11 12  1  6
 11 13  1  0
 13 19  1  0
 14 13  2  0
 16 17  1  0
 16 15  1  6
 18 20  1  0
 18 16  1  0
 18 19  1  1
 20 21  1  0
 22 20  2  0
M  END
$$$$
