PTT.pdb
     RDKit          3D

 22 22  0  0  1  0  0  0  0  0999 V2000
   19.7935  -11.6715  -18.0730 N   0  0  0  0  0  0  0  0  0  0  0  0
   19.6605  -12.9819  -18.7252 C   0  0  0  0  0  0  0  0  0  0  0  0
   20.3360  -13.8653  -17.6679 C   0  0  0  0  0  0  0  0  0  0  0  0
   19.6581  -13.3630  -16.4117 C   0  0  0  0  0  0  0  0  0  0  0  0
   19.4719  -11.8913  -16.6861 C   0  0  1  0  0  0  0  0  0  0  0  0
   20.3002  -11.0374  -15.8343 C   0  0  0  0  0  0  0  0  0  0  0  0
   20.1586  -11.0871  -14.5859 O   0  0  0  0  0  0  0  0  0  0  0  0
   23.8331  -10.9957  -15.4313 C   0  0  0  0  0  0  0  0  0  0  0  0
   23.5368   -9.5557  -15.7958 C   0  0  1  0  0  0  0  0  0  0  0  0
   23.6638   -9.3701  -17.1845 O   0  0  0  0  0  0  0  0  0  0  0  0
   22.0643   -9.2725  -15.4684 C   0  0  2  0  0  0  0  0  0  0  0  0
   21.2841  -10.1260  -16.3082 N   0  0  0  0  0  0  0  0  0  0  0  0
   21.8476   -7.8426  -15.6755 C   0  0  0  0  0  0  0  0  0  0  0  0
   21.8576   -7.3330  -16.8161 O   0  0  0  0  0  0  0  0  0  0  0  0
   19.0880   -5.6212  -15.4702 C   0  0  0  0  0  0  0  0  0  0  0  0
   20.0344   -5.1384  -14.4191 C   0  0  1  0  0  0  0  0  0  0  0  0
   19.6225   -5.6584  -13.1896 O   0  0  0  0  0  0  0  0  0  0  0  0
   21.4602   -5.5822  -14.6432 C   0  0  2  0  0  0  0  0  0  0  0  0
   21.6197   -7.0073  -14.5558 N   0  0  0  0  0  0  0  0  0  0  0  0
   22.3036   -4.9135  -13.6412 C   0  0  0  0  0  0  0  0  0  0  0  0
   22.4311   -3.5469  -13.6337 O   0  0  0  0  0  0  0  0  0  0  0  0
   22.9084   -5.5884  -12.7913 O   0  0  0  0  0  0  0  0  0  0  0  0
  1  2  1  0
  1  5  1  0
  2  3  1  0
  3  4  1  0
  5  4  1  0
  6 12  1  0
  5  6  1  1
  7  6  2  0
  9  8  1  6
  9 11  1  0
 10  9  1  0
 11 12  1  6
 11 13  1  0
 13 19  1  0
 14 13  2  0
 16 17  1  0
 16 15  1  6
 18 20  1  0
 18 16  1  0
 18 19  1  1
 20 21  1  0
 22 20  2  0
M  END
$$$$
