PTT.pdb
     RDKit          3D

 22 22  0  0  1  0  0  0  0  0999 V2000
   23.0169  -13.8841  -16.2815 N   0  0  0  0  0  0  0  0  0  0  0  0
   24.2090  -14.7266  -16.1115 C   0  0  0  0  0  0  0  0  0  0  0  0
   25.2737  -13.6347  -15.9413 C   0  0  0  0  0  0  0  0  0  0  0  0
   24.5961  -12.7419  -14.9248 C   0  0  0  0  0  0  0  0  0  0  0  0
   23.1387  -12.8333  -15.3035 C   0  0  1  0  0  0  0  0  0  0  0  0
   22.6031  -11.5812  -15.8384 C   0  0  0  0  0  0  0  0  0  0  0  0
   22.8269  -11.2759  -17.0375 O   0  0  0  0  0  0  0  0  0  0  0  0
   19.4329  -10.6368  -16.6154 C   0  0  0  0  0  0  0  0  0  0  0  0
   19.8039   -9.5243  -15.6568 C   0  0  1  0  0  0  0  0  0  0  0  0
   19.4145   -9.8612  -14.3476 O   0  0  0  0  0  0  0  0  0  0  0  0
   21.3342   -9.4123  -15.6227 C   0  0  2  0  0  0  0  0  0  0  0  0
   21.8260  -10.6475  -15.0984 N   0  0  0  0  0  0  0  0  0  0  0  0
   21.6590   -8.2333  -14.8233 C   0  0  0  0  0  0  0  0  0  0  0  0
   22.1037   -8.3281  -13.6597 O   0  0  0  0  0  0  0  0  0  0  0  0
   24.2469   -5.6240  -15.5797 C   0  0  0  0  0  0  0  0  0  0  0  0
   22.9062   -4.9647  -15.5403 C   0  0  1  0  0  0  0  0  0  0  0  0
   22.4269   -4.8730  -16.8493 O   0  0  0  0  0  0  0  0  0  0  0  0
   21.8825   -5.7298  -14.7361 C   0  0  2  0  0  0  0  0  0  0  0  0
   21.4661   -6.9456  -15.3783 N   0  0  0  0  0  0  0  0  0  0  0  0
   20.7267   -4.8468  -14.5203 C   0  0  0  0  0  0  0  0  0  0  0  0
   20.8240   -3.7568  -13.6919 O   0  0  0  0  0  0  0  0  0  0  0  0
   19.6496   -5.0860  -15.0915 O   0  0  0  0  0  0  0  0  0  0  0  0
  1  2  1  0
  1  5  1  0
  2  3  1  0
  3  4  1  0
  5  4  1  0
  6 12  1  0
  5  6  1  6
  7  6  2  0
  9  8  1  6
  9 11  1  0
 10  9  1  0
 11 12  1  1
 11 13  1  0
 13 19  1  0
 14 13  2  0
 16 17  1  0
 16 15  1  6
 18 20  1  0
 18 16  1  0
 18 19  1  6
 20 21  1  0
 22 20  2  0
M  END
$$$$
