PTT.pdb
     RDKit          3D

 22 22  0  0  1  0  0  0  0  0999 V2000
   44.1651  -11.2838   -7.1582 N   0  0  0  0  0  0  0  0  0  0  0  0
   44.8700  -12.3529   -6.4369 C   0  0  0  0  0  0  0  0  0  0  0  0
   43.8555  -13.4913   -6.6086 C   0  0  0  0  0  0  0  0  0  0  0  0
   43.5656  -13.3843   -8.0899 C   0  0  0  0  0  0  0  0  0  0  0  0
   43.6343  -11.8995   -8.3476 C   0  0  1  0  0  0  0  0  0  0  0  0
   42.3369  -11.3127   -8.6839 C   0  0  0  0  0  0  0  0  0  0  0  0
   41.7392  -11.6902   -9.7238 O   0  0  0  0  0  0  0  0  0  0  0  0
   39.1367  -11.0643   -6.7621 C   0  0  0  0  0  0  0  0  0  0  0  0
   39.5475   -9.6410   -7.0779 C   0  0  1  0  0  0  0  0  0  0  0  0
   40.3303   -9.1180   -6.0324 O   0  0  0  0  0  0  0  0  0  0  0  0
   40.4608   -9.6690   -8.3111 C   0  0  2  0  0  0  0  0  0  0  0  0
   41.6692  -10.3204   -7.9140 N   0  0  0  0  0  0  0  0  0  0  0  0
   40.6253   -8.2861   -8.7528 C   0  0  0  0  0  0  0  0  0  0  0  0
   41.6482   -7.6237   -8.4777 O   0  0  0  0  0  0  0  0  0  0  0  0
   39.8419   -6.8477  -12.4453 C   0  0  0  0  0  0  0  0  0  0  0  0
   39.0600   -6.1639  -11.3706 C   0  0  1  0  0  0  0  0  0  0  0  0
   37.7817   -6.7264  -11.3366 O   0  0  0  0  0  0  0  0  0  0  0  0
   39.6613   -6.3231   -9.9948 C   0  0  2  0  0  0  0  0  0  0  0  0
   39.5999   -7.6754   -9.5138 N   0  0  0  0  0  0  0  0  0  0  0  0
   38.9402   -5.4248   -9.0807 C   0  0  0  0  0  0  0  0  0  0  0  0
   39.0289   -4.0626   -9.2238 O   0  0  0  0  0  0  0  0  0  0  0  0
   38.2427   -5.8993   -8.1685 O   0  0  0  0  0  0  0  0  0  0  0  0
  1  2  1  0
  1  5  1  0
  2  3  1  0
  3  4  1  0
  5  4  1  0
  6 12  1  0
  5  6  1  1
  7  6  2  0
  9  8  1  1
  9 11  1  0
 10  9  1  0
 11 12  1  1
 11 13  1  0
 13 19  1  0
 14 13  2  0
 16 17  1  0
 16 15  1  6
 18 20  1  0
 18 16  1  0
 18 19  1  1
 20 21  1  0
 22 20  2  0
M  END
$$$$
