PTT.pdb
     RDKit          3D

 22 22  0  0  1  0  0  0  0  0999 V2000
   19.4297  -12.5160  -17.4712 N   0  0  0  0  0  0  0  0  0  0  0  0
   18.2157  -13.1575  -17.9952 C   0  0  0  0  0  0  0  0  0  0  0  0
   17.1510  -12.3341  -17.2583 C   0  0  0  0  0  0  0  0  0  0  0  0
   17.6610  -10.9318  -17.5096 C   0  0  0  0  0  0  0  0  0  0  0  0
   19.1599  -11.1009  -17.4836 C   0  0  1  0  0  0  0  0  0  0  0  0
   19.7922  -10.4563  -16.3323 C   0  0  0  0  0  0  0  0  0  0  0  0
   19.5534  -10.8866  -15.1752 O   0  0  0  0  0  0  0  0  0  0  0  0
   22.1236  -10.9671  -14.5903 C   0  0  0  0  0  0  0  0  0  0  0  0
   22.5630   -9.5671  -14.9658 C   0  0  1  0  0  0  0  0  0  0  0  0
   23.3096   -9.5956  -16.1579 O   0  0  0  0  0  0  0  0  0  0  0  0
   21.3086   -8.7393  -15.2772 C   0  0  2  0  0  0  0  0  0  0  0  0
   20.6826   -9.3495  -16.4077 N   0  0  0  0  0  0  0  0  0  0  0  0
   21.7469   -7.3615  -15.4875 C   0  0  0  0  0  0  0  0  0  0  0  0
   22.3524   -7.0134  -16.5233 O   0  0  0  0  0  0  0  0  0  0  0  0
   19.9963   -4.4583  -16.2907 C   0  0  0  0  0  0  0  0  0  0  0  0
   20.5999   -4.1474  -14.9593 C   0  0  1  0  0  0  0  0  0  0  0  0
   19.6364   -4.3888  -13.9769 O   0  0  0  0  0  0  0  0  0  0  0  0
   21.8038   -4.9975  -14.6309 C   0  0  2  0  0  0  0  0  0  0  0  0
   21.4804   -6.3905  -14.4927 N   0  0  0  0  0  0  0  0  0  0  0  0
   22.3910   -4.4854  -13.3839 C   0  0  0  0  0  0  0  0  0  0  0  0
   22.9221   -3.2211  -13.3281 O   0  0  0  0  0  0  0  0  0  0  0  0
   22.4087   -5.2010  -12.3683 O   0  0  0  0  0  0  0  0  0  0  0  0
  1  2  1  0
  1  5  1  0
  2  3  1  0
  3  4  1  0
  5  4  1  0
  6 12  1  0
  5  6  1  1
  7  6  2  0
  9  8  1  6
  9 11  1  0
 10  9  1  0
 11 12  1  6
 11 13  1  0
 13 19  1  0
 14 13  2  0
 16 17  1  0
 16 15  1  6
 18 20  1  0
 18 16  1  0
 18 19  1  1
 20 21  1  0
 22 20  2  0
M  END
$$$$
