PTT.pdb
     RDKit          3D

 22 22  0  0  1  0  0  0  0  0999 V2000
   23.0932  -20.8834  -15.4508 N   0  0  0  0  0  0  0  0  0  0  0  0
   21.8035  -20.6437  -16.1135 C   0  0  0  0  0  0  0  0  0  0  0  0
   20.8809  -20.6401  -14.8873 C   0  0  0  0  0  0  0  0  0  0  0  0
   21.6515  -19.7235  -13.9623 C   0  0  0  0  0  0  0  0  0  0  0  0
   23.0909  -20.0470  -14.2778 C   0  0  1  0  0  0  0  0  0  0  0  0
   23.7847  -20.7178  -13.1781 C   0  0  0  0  0  0  0  0  0  0  0  0
   23.5139  -21.9176  -12.9173 O   0  0  0  0  0  0  0  0  0  0  0  0
   26.7832  -21.9920  -12.9920 C   0  0  0  0  0  0  0  0  0  0  0  0
   26.8803  -21.0662  -11.7971 C   0  0  1  0  0  0  0  0  0  0  0  0
   27.4014  -19.8197  -12.1895 O   0  0  0  0  0  0  0  0  0  0  0  0
   25.4583  -20.7855  -11.2925 C   0  0  2  0  0  0  0  0  0  0  0  0
   24.7710  -20.1136  -12.3502 N   0  0  0  0  0  0  0  0  0  0  0  0
   25.5870  -20.0155  -10.0575 C   0  0  0  0  0  0  0  0  0  0  0  0
   25.2168  -18.8248   -9.9816 O   0  0  0  0  0  0  0  0  0  0  0  0
   24.2298  -20.7311   -6.5045 C   0  0  0  0  0  0  0  0  0  0  0  0
   25.7244  -20.7199   -6.4961 C   0  0  1  0  0  0  0  0  0  0  0  0
   26.1707  -22.0408   -6.5827 O   0  0  0  0  0  0  0  0  0  0  0  0
   26.3271  -19.9617   -7.6544 C   0  0  2  0  0  0  0  0  0  0  0  0
   26.1463  -20.6316   -8.9124 N   0  0  0  0  0  0  0  0  0  0  0  0
   27.7595  -19.7783   -7.3770 C   0  0  0  0  0  0  0  0  0  0  0  0
   28.1741  -19.0389   -6.2976 O   0  0  0  0  0  0  0  0  0  0  0  0
   28.6062  -20.2961   -8.1246 O   0  0  0  0  0  0  0  0  0  0  0  0
  1  2  1  0
  1  5  1  0
  2  3  1  0
  3  4  1  0
  5  4  1  0
  6 12  1  0
  5  6  1  1
  7  6  2  0
  9  8  1  6
  9 11  1  0
 10  9  1  0
 11 12  1  6
 11 13  1  0
 13 19  1  0
 14 13  2  0
 16 17  1  0
 16 15  1  6
 18 20  1  0
 18 16  1  0
 18 19  1  6
 20 21  1  0
 22 20  2  0
M  END
$$$$
