PTT.pdb
     RDKit          3D

 22 22  0  0  1  0  0  0  0  0999 V2000
   19.9313  -12.0039  -16.9680 N   0  0  0  0  0  0  0  0  0  0  0  0
   19.7285  -13.2850  -17.6591 C   0  0  0  0  0  0  0  0  0  0  0  0
   20.3324  -12.9381  -19.0265 C   0  0  0  0  0  0  0  0  0  0  0  0
   21.6321  -12.2911  -18.6003 C   0  0  0  0  0  0  0  0  0  0  0  0
   21.2575  -11.5716  -17.3283 C   0  0  1  0  0  0  0  0  0  0  0  0
   21.2958  -10.1148  -17.4581 C   0  0  0  0  0  0  0  0  0  0  0  0
   22.3726   -9.5516  -17.7813 O   0  0  0  0  0  0  0  0  0  0  0  0
   19.2662   -8.0827  -19.6593 C   0  0  0  0  0  0  0  0  0  0  0  0
   19.0481   -7.4480  -18.3014 C   0  0  1  0  0  0  0  0  0  0  0  0
   17.9051   -7.9930  -17.6884 O   0  0  0  0  0  0  0  0  0  0  0  0
   20.2295   -7.8300  -17.3993 C   0  0  2  0  0  0  0  0  0  0  0  0
   20.1869   -9.2500  -17.2441 N   0  0  0  0  0  0  0  0  0  0  0  0
   20.0828   -7.0721  -16.1588 C   0  0  0  0  0  0  0  0  0  0  0  0
   19.3679   -7.4790  -15.2186 O   0  0  0  0  0  0  0  0  0  0  0  0
   22.1271   -6.4917  -13.3363 C   0  0  0  0  0  0  0  0  0  0  0  0
   21.9695   -5.1553  -13.9867 C   0  0  1  0  0  0  0  0  0  0  0  0
   23.0615   -4.9513  -14.8337 O   0  0  0  0  0  0  0  0  0  0  0  0
   20.7188   -5.0374  -14.8245 C   0  0  2  0  0  0  0  0  0  0  0  0
   20.7678   -5.8420  -16.0137 N   0  0  0  0  0  0  0  0  0  0  0  0
   20.5432   -3.6204  -15.1759 C   0  0  0  0  0  0  0  0  0  0  0  0
   20.3025   -2.6828  -14.2028 O   0  0  0  0  0  0  0  0  0  0  0  0
   20.6126   -3.2639  -16.3641 O   0  0  0  0  0  0  0  0  0  0  0  0
  1  2  1  0
  1  5  1  0
  2  3  1  0
  3  4  1  0
  5  4  1  0
  6 12  1  0
  5  6  1  6
  7  6  2  0
  9  8  1  6
  9 11  1  0
 10  9  1  0
 11 12  1  1
 11 13  1  0
 13 19  1  0
 14 13  2  0
 16 17  1  0
 16 15  1  6
 18 20  1  0
 18 16  1  0
 18 19  1  6
 20 21  1  0
 22 20  2  0
M  END
$$$$
