PTT.pdb
     RDKit          3D

 22 22  0  0  1  0  0  0  0  0999 V2000
   22.6512  -11.1303  -18.9706 N   0  0  0  0  0  0  0  0  0  0  0  0
   23.1491  -12.4959  -19.1876 C   0  0  0  0  0  0  0  0  0  0  0  0
   22.0933  -13.2829  -18.3999 C   0  0  0  0  0  0  0  0  0  0  0  0
   20.8242  -12.6466  -18.9235 C   0  0  0  0  0  0  0  0  0  0  0  0
   21.2214  -11.2060  -19.1302 C   0  0  1  0  0  0  0  0  0  0  0  0
   20.5606  -10.2877  -18.2024 C   0  0  0  0  0  0  0  0  0  0  0  0
   19.3079  -10.1818  -18.2254 O   0  0  0  0  0  0  0  0  0  0  0  0
   20.4665  -10.4003  -14.7083 C   0  0  0  0  0  0  0  0  0  0  0  0
   19.6321   -9.4025  -15.4843 C   0  0  1  0  0  0  0  0  0  0  0  0
   19.0190   -8.4928  -14.6036 O   0  0  0  0  0  0  0  0  0  0  0  0
   20.5765   -8.5666  -16.3589 C   0  0  2  0  0  0  0  0  0  0  0  0
   21.2310   -9.4770  -17.2451 N   0  0  0  0  0  0  0  0  0  0  0  0
   21.4671   -7.8422  -15.4552 C   0  0  0  0  0  0  0  0  0  0  0  0
   22.3805   -8.4188  -14.8276 O   0  0  0  0  0  0  0  0  0  0  0  0
   23.2991   -4.8589  -16.8899 C   0  0  0  0  0  0  0  0  0  0  0  0
   22.6561   -4.4325  -15.6099 C   0  0  1  0  0  0  0  0  0  0  0  0
   21.4762   -3.7520  -15.9204 O   0  0  0  0  0  0  0  0  0  0  0  0
   22.2890   -5.5860  -14.7073 C   0  0  2  0  0  0  0  0  0  0  0  0
   21.2941   -6.4480  -15.2826 N   0  0  0  0  0  0  0  0  0  0  0  0
   21.8048   -5.0277  -13.4361 C   0  0  0  0  0  0  0  0  0  0  0  0
   22.6500   -4.3268  -12.6126 O   0  0  0  0  0  0  0  0  0  0  0  0
   20.6196   -5.1896  -13.1002 O   0  0  0  0  0  0  0  0  0  0  0  0
  1  2  1  0
  1  5  1  0
  2  3  1  0
  3  4  1  0
  5  4  1  0
  6 12  1  0
  5  6  1  1
  7  6  2  0
  9  8  1  1
  9 11  1  0
 10  9  1  0
 11 12  1  6
 11 13  1  0
 13 19  1  0
 14 13  2  0
 16 17  1  0
 16 15  1  6
 18 20  1  0
 18 16  1  0
 18 19  1  6
 20 21  1  0
 22 20  2  0
M  END
$$$$
