PTT.pdb
     RDKit          3D

 22 22  0  0  1  0  0  0  0  0999 V2000
   27.2844  -19.2252  -15.0672 N   0  0  0  0  0  0  0  0  0  0  0  0
   28.7038  -18.8487  -15.1254 C   0  0  0  0  0  0  0  0  0  0  0  0
   29.3135  -20.0229  -14.3482 C   0  0  0  0  0  0  0  0  0  0  0  0
   28.6182  -21.1893  -15.0159 C   0  0  0  0  0  0  0  0  0  0  0  0
   27.2457  -20.6428  -15.3213 C   0  0  1  0  0  0  0  0  0  0  0  0
   26.1871  -21.2690  -14.5288 C   0  0  0  0  0  0  0  0  0  0  0  0
   25.8997  -22.4770  -14.7269 O   0  0  0  0  0  0  0  0  0  0  0  0
   25.7996  -21.4705  -10.9588 C   0  0  0  0  0  0  0  0  0  0  0  0
   24.4483  -20.9282  -11.3760 C   0  0  1  0  0  0  0  0  0  0  0  0
   24.4115  -19.5322  -11.2057 O   0  0  0  0  0  0  0  0  0  0  0  0
   24.2795  -21.1709  -12.8820 C   0  0  2  0  0  0  0  0  0  0  0  0
   25.4290  -20.6115  -13.5207 N   0  0  0  0  0  0  0  0  0  0  0  0
   23.0065  -20.5690  -13.2720 C   0  0  0  0  0  0  0  0  0  0  0  0
   22.8612  -19.3310  -13.3560 O   0  0  0  0  0  0  0  0  0  0  0  0
   21.0317  -20.3138  -16.2649 C   0  0  0  0  0  0  0  0  0  0  0  0
   20.2080  -21.1208  -15.3142 C   0  0  1  0  0  0  0  0  0  0  0  0
   20.3978  -22.4725  -15.6119 O   0  0  0  0  0  0  0  0  0  0  0  0
   20.5880  -20.9185  -13.8669 C   0  0  2  0  0  0  0  0  0  0  0  0
   21.9044  -21.4078  -13.5637 N   0  0  0  0  0  0  0  0  0  0  0  0
   19.5866  -21.6049  -13.0373 C   0  0  0  0  0  0  0  0  0  0  0  0
   18.2680  -21.2258  -13.0751 O   0  0  0  0  0  0  0  0  0  0  0  0
   19.9331  -22.5378  -12.2935 O   0  0  0  0  0  0  0  0  0  0  0  0
  1  2  1  0
  1  5  1  0
  2  3  1  0
  3  4  1  0
  5  4  1  0
  6 12  1  0
  5  6  1  1
  7  6  2  0
  9  8  1  6
  9 11  1  0
 10  9  1  0
 11 12  1  6
 11 13  1  0
 13 19  1  0
 14 13  2  0
 16 17  1  0
 16 15  1  6
 18 20  1  0
 18 16  1  0
 18 19  1  6
 20 21  1  0
 22 20  2  0
M  END
$$$$
