IAL.pdb
     RDKit          3D

 22 21  0  0  1  0  0  0  0  0999 V2000
    7.2800  -12.0087   19.2824 C   0  0  0  0  0  0  0  0  0  0  0  0
    7.4156  -13.5361   19.3111 C   0  0  0  0  0  0  0  0  0  0  0  0
    7.5933  -14.0156   20.7372 C   0  0  2  0  0  0  0  0  0  0  0  0
    8.7705  -13.3247   21.3959 C   0  0  0  0  0  0  0  0  0  0  0  0
    7.7276  -15.5173   20.7763 C   0  0  2  0  0  0  0  0  0  0  0  0
    6.6201  -16.1177   20.1005 N   0  0  0  0  0  0  0  0  0  0  0  0
    7.9611  -16.0106   22.1362 C   0  0  0  0  0  0  0  0  0  0  0  0
    6.9820  -15.9427   22.9455 O   0  0  0  0  0  0  0  0  0  0  0  0
   10.3954  -18.0101   24.1901 C   0  0  0  0  0  0  0  0  0  0  0  0
    9.2730  -16.9852   23.9920 C   0  0  2  0  0  0  0  0  0  0  0  0
    9.1749  -16.5556   22.6319 N   0  0  0  0  0  0  0  0  0  0  0  0
    9.5861  -15.8505   24.9199 C   0  0  0  0  0  0  0  0  0  0  0  0
   10.5117  -15.0590   24.6433 O   0  0  0  0  0  0  0  0  0  0  0  0
    6.3934  -12.1343   26.6694 C   0  0  0  0  0  0  0  0  0  0  0  0
    7.6434  -12.8968   26.1500 C   0  0  1  0  0  0  0  0  0  0  0  0
    8.5796  -11.7741   25.7205 C   0  0  0  0  0  0  0  0  0  0  0  0
    8.1064  -13.7018   27.3017 C   0  0  0  0  0  0  0  0  0  0  0  0
    9.2141  -14.6754   27.1483 C   0  0  2  0  0  0  0  0  0  0  0  0
    8.8365  -15.6728   26.1087 N   0  0  0  0  0  0  0  0  0  0  0  0
    9.7635  -15.3518   28.3047 C   0  0  0  0  0  0  0  0  0  0  0  0
    9.5599  -16.7581   28.4364 O   0  0  0  0  0  0  0  0  0  0  0  0
   10.4189  -14.8654   29.2469 O   0  0  0  0  0  0  0  0  0  0  0  0
  2  1  1  0
  3  2  1  0
  3  4  1  6
  5  3  1  0
  5  6  1  1
  7  5  1  0
  7 11  1  0
  8  7  2  0
 10  9  1  6
 10 11  1  0
 10 12  1  0
 12 19  1  0
 13 12  2  0
 15 14  1  1
 15 16  1  0
 17 15  1  0
 18 20  1  0
 18 17  1  1
 19 18  1  0
 20 21  1  0
 22 20  2  0
M  END
$$$$
