IAL.pdb
     RDKit          3D

 22 21  0  0  1  0  0  0  0  0999 V2000
    7.3931  -18.9926   18.2089 C   0  0  0  0  0  0  0  0  0  0  0  0
    7.4989  -17.4827   18.4562 C   0  0  0  0  0  0  0  0  0  0  0  0
    7.9633  -17.2193   19.8740 C   0  0  2  0  0  0  0  0  0  0  0  0
    7.0446  -17.8896   20.8759 C   0  0  0  0  0  0  0  0  0  0  0  0
    8.0828  -15.7367   20.1234 C   0  0  2  0  0  0  0  0  0  0  0  0
    8.8132  -15.1261   19.0569 N   0  0  0  0  0  0  0  0  0  0  0  0
    8.5941  -15.4471   21.4658 C   0  0  0  0  0  0  0  0  0  0  0  0
    9.8456  -15.5888   21.6442 O   0  0  0  0  0  0  0  0  0  0  0  0
    7.4599  -14.3200   24.9062 C   0  0  0  0  0  0  0  0  0  0  0  0
    8.4218  -14.9227   23.8763 C   0  0  2  0  0  0  0  0  0  0  0  0
    7.8242  -15.0241   22.5814 N   0  0  0  0  0  0  0  0  0  0  0  0
    8.8177  -16.2621   24.4204 C   0  0  0  0  0  0  0  0  0  0  0  0
    8.3410  -17.3019   23.9191 O   0  0  0  0  0  0  0  0  0  0  0  0
   12.1783  -18.4093   22.2468 C   0  0  0  0  0  0  0  0  0  0  0  0
   11.0555  -18.5118   23.3157 C   0  0  1  0  0  0  0  0  0  0  0  0
   11.0446  -19.9948   23.6649 C   0  0  0  0  0  0  0  0  0  0  0  0
   11.4818  -17.6076   24.4063 C   0  0  0  0  0  0  0  0  0  0  0  0
   10.6808  -17.4893   25.6484 C   0  0  2  0  0  0  0  0  0  0  0  0
    9.7298  -16.3527   25.5004 N   0  0  0  0  0  0  0  0  0  0  0  0
   11.3324  -17.4227   26.9397 C   0  0  0  0  0  0  0  0  0  0  0  0
   11.1947  -16.2329   27.7157 O   0  0  0  0  0  0  0  0  0  0  0  0
   12.0288  -18.2909   27.5009 O   0  0  0  0  0  0  0  0  0  0  0  0
  2  1  1  0
  3  2  1  0
  3  4  1  1
  5  3  1  0
  5  6  1  6
  7  5  1  0
  7 11  1  0
  8  7  2  0
 10  9  1  1
 10 11  1  0
 10 12  1  0
 12 19  1  0
 13 12  2  0
 15 14  1  6
 15 16  1  0
 17 15  1  0
 18 20  1  0
 18 17  1  6
 19 18  1  0
 20 21  1  0
 22 20  2  0
M  END
$$$$
