IAL.pdb
     RDKit          3D

 22 21  0  0  1  0  0  0  0  0999 V2000
    6.9661  -13.4000   25.4668 C   0  0  0  0  0  0  0  0  0  0  0  0
    7.1354  -14.7124   24.6915 C   0  0  0  0  0  0  0  0  0  0  0  0
    7.6255  -14.4268   23.2867 C   0  0  2  0  0  0  0  0  0  0  0  0
    6.6431  -13.5457   22.5414 C   0  0  0  0  0  0  0  0  0  0  0  0
    7.8977  -15.7148   22.5507 C   0  0  2  0  0  0  0  0  0  0  0  0
    6.7133  -16.5150   22.5258 N   0  0  0  0  0  0  0  0  0  0  0  0
    9.0908  -16.3952   23.0613 C   0  0  0  0  0  0  0  0  0  0  0  0
    8.9199  -17.5527   23.5604 O   0  0  0  0  0  0  0  0  0  0  0  0
   12.8542  -16.1508   22.9340 C   0  0  0  0  0  0  0  0  0  0  0  0
   11.5160  -16.7163   23.4225 C   0  0  2  0  0  0  0  0  0  0  0  0
   10.4153  -15.8834   23.0500 N   0  0  0  0  0  0  0  0  0  0  0  0
   11.6453  -16.8471   24.9101 C   0  0  0  0  0  0  0  0  0  0  0  0
   12.6360  -17.4297   25.3987 O   0  0  0  0  0  0  0  0  0  0  0  0
    8.5760  -13.4179   28.0581 C   0  0  0  0  0  0  0  0  0  0  0  0
    9.9039  -14.0531   27.5615 C   0  0  1  0  0  0  0  0  0  0  0  0
   10.9641  -13.3116   28.3661 C   0  0  0  0  0  0  0  0  0  0  0  0
    9.7742  -15.4957   27.8629 C   0  0  0  0  0  0  0  0  0  0  0  0
   10.6885  -16.4841   27.2420 C   0  0  2  0  0  0  0  0  0  0  0  0
   10.6486  -16.3127   25.7631 N   0  0  0  0  0  0  0  0  0  0  0  0
   10.5906  -17.8889   27.5788 C   0  0  0  0  0  0  0  0  0  0  0  0
   11.0404  -18.3181   28.8634 O   0  0  0  0  0  0  0  0  0  0  0  0
   10.1512  -18.8234   26.8806 O   0  0  0  0  0  0  0  0  0  0  0  0
  2  1  1  0
  3  2  1  0
  3  4  1  6
  5  3  1  0
  5  6  1  1
  7  5  1  0
  7 11  1  0
  8  7  2  0
 10  9  1  1
 10 11  1  0
 10 12  1  0
 12 19  1  0
 13 12  2  0
 15 14  1  1
 15 16  1  0
 17 15  1  0
 18 20  1  0
 18 17  1  1
 19 18  1  0
 20 21  1  0
 22 20  2  0
M  END
$$$$
