IAL.pdb
     RDKit          3D

 22 21  0  0  1  0  0  0  0  0999 V2000
    8.9626  -12.6150   18.3105 C   0  0  0  0  0  0  0  0  0  0  0  0
    7.5805  -13.2100   18.6071 C   0  0  0  0  0  0  0  0  0  0  0  0
    7.5490  -13.7766   20.0118 C   0  0  2  0  0  0  0  0  0  0  0  0
    8.0869  -12.7719   21.0109 C   0  0  0  0  0  0  0  0  0  0  0  0
    8.2972  -15.0848   20.0701 C   0  0  2  0  0  0  0  0  0  0  0  0
    7.8250  -15.9562   19.0398 N   0  0  0  0  0  0  0  0  0  0  0  0
    8.2875  -15.6611   21.4173 C   0  0  0  0  0  0  0  0  0  0  0  0
    7.1515  -15.7981   21.9730 O   0  0  0  0  0  0  0  0  0  0  0  0
   10.2481  -17.8311   23.6695 C   0  0  0  0  0  0  0  0  0  0  0  0
    9.2707  -16.6710   23.4492 C   0  0  2  0  0  0  0  0  0  0  0  0
    9.4252  -16.0794   22.1568 N   0  0  0  0  0  0  0  0  0  0  0  0
    9.5409  -15.6929   24.5524 C   0  0  0  0  0  0  0  0  0  0  0  0
   10.4978  -14.8962   24.4557 O   0  0  0  0  0  0  0  0  0  0  0  0
    5.9948  -12.5575   27.1676 C   0  0  0  0  0  0  0  0  0  0  0  0
    7.2823  -13.0376   26.4427 C   0  0  1  0  0  0  0  0  0  0  0  0
    8.1165  -11.7667   26.3414 C   0  0  0  0  0  0  0  0  0  0  0  0
    7.8411  -14.0940   27.3147 C   0  0  0  0  0  0  0  0  0  0  0  0
    9.0464  -14.8544   26.9056 C   0  0  2  0  0  0  0  0  0  0  0  0
    8.7155  -15.6689   25.7033 N   0  0  0  0  0  0  0  0  0  0  0  0
    9.7665  -15.6633   27.8667 C   0  0  0  0  0  0  0  0  0  0  0  0
    9.6788  -17.0843   27.7681 O   0  0  0  0  0  0  0  0  0  0  0  0
   10.4856  -15.2852   28.8121 O   0  0  0  0  0  0  0  0  0  0  0  0
  2  1  1  0
  3  2  1  0
  3  4  1  1
  5  3  1  0
  5  6  1  6
  7  5  1  0
  7 11  1  0
  8  7  2  0
 10  9  1  6
 10 11  1  0
 10 12  1  0
 12 19  1  0
 13 12  2  0
 15 14  1  1
 15 16  1  0
 17 15  1  0
 18 20  1  0
 18 17  1  1
 19 18  1  0
 20 21  1  0
 22 20  2  0
M  END
$$$$
