IAL.pdb
     RDKit          3D

 22 21  0  0  1  0  0  0  0  0999 V2000
    7.0595  -20.5654   27.0995 C   0  0  0  0  0  0  0  0  0  0  0  0
    6.5342  -20.4133   25.6666 C   0  0  0  0  0  0  0  0  0  0  0  0
    7.2164  -19.2455   24.9840 C   0  0  2  0  0  0  0  0  0  0  0  0
    7.0264  -17.9696   25.7797 C   0  0  0  0  0  0  0  0  0  0  0  0
    6.7249  -19.1030   23.5653 C   0  0  2  0  0  0  0  0  0  0  0  0
    6.7710  -20.3726   22.9097 N   0  0  0  0  0  0  0  0  0  0  0  0
    7.4078  -18.0177   22.8560 C   0  0  0  0  0  0  0  0  0  0  0  0
    8.6343  -18.2017   22.5732 O   0  0  0  0  0  0  0  0  0  0  0  0
    6.8289  -14.6757   21.1969 C   0  0  0  0  0  0  0  0  0  0  0  0
    7.6498  -15.7309   21.9465 C   0  0  2  0  0  0  0  0  0  0  0  0
    6.8286  -16.7844   22.4566 N   0  0  0  0  0  0  0  0  0  0  0  0
    8.3639  -14.9941   23.0391 C   0  0  0  0  0  0  0  0  0  0  0  0
    9.3099  -14.2291   22.7571 O   0  0  0  0  0  0  0  0  0  0  0  0
    5.7933  -12.1917   26.5603 C   0  0  0  0  0  0  0  0  0  0  0  0
    6.8070  -12.7054   25.5010 C   0  0  1  0  0  0  0  0  0  0  0  0
    7.4664  -11.4250   25.0038 C   0  0  0  0  0  0  0  0  0  0  0  0
    7.6955  -13.6302   26.2384 C   0  0  0  0  0  0  0  0  0  0  0  0
    8.6694  -14.4825   25.5150 C   0  0  2  0  0  0  0  0  0  0  0  0
    7.9700  -15.1621   24.3893 N   0  0  0  0  0  0  0  0  0  0  0  0
    9.4888  -15.4354   26.2342 C   0  0  0  0  0  0  0  0  0  0  0  0
    9.3594  -16.8221   25.9228 O   0  0  0  0  0  0  0  0  0  0  0  0
   10.3299  -15.2143   27.1271 O   0  0  0  0  0  0  0  0  0  0  0  0
  2  1  1  0
  3  2  1  0
  3  4  1  1
  5  3  1  0
  5  6  1  6
  7  5  1  0
  7 11  1  0
  8  7  2  0
 10  9  1  1
 10 11  1  0
 10 12  1  0
 12 19  1  0
 13 12  2  0
 15 14  1  1
 15 16  1  0
 17 15  1  0
 18 20  1  0
 18 17  1  1
 19 18  1  0
 20 21  1  0
 22 20  2  0
M  END
$$$$
