IAL.pdb
     RDKit          3D

 22 21  0  0  1  0  0  0  0  0999 V2000
    7.6883  -12.0759   19.0803 C   0  0  0  0  0  0  0  0  0  0  0  0
    7.6078  -13.6057   19.1547 C   0  0  0  0  0  0  0  0  0  0  0  0
    7.6742  -14.0602   20.5983 C   0  0  2  0  0  0  0  0  0  0  0  0
    8.9344  -13.5490   21.2674 C   0  0  0  0  0  0  0  0  0  0  0  0
    7.5600  -15.5617   20.6847 C   0  0  2  0  0  0  0  0  0  0  0  0
    6.3753  -15.9942   20.0115 N   0  0  0  0  0  0  0  0  0  0  0  0
    7.6968  -16.0425   22.0621 C   0  0  0  0  0  0  0  0  0  0  0  0
    6.7385  -15.7818   22.8570 O   0  0  0  0  0  0  0  0  0  0  0  0
    9.7011  -18.4013   24.1874 C   0  0  0  0  0  0  0  0  0  0  0  0
    8.8024  -17.1808   23.9587 C   0  0  2  0  0  0  0  0  0  0  0  0
    8.7964  -16.7700   22.5893 N   0  0  0  0  0  0  0  0  0  0  0  0
    9.3281  -16.1095   24.8658 C   0  0  0  0  0  0  0  0  0  0  0  0
   10.3803  -15.5056   24.5694 O   0  0  0  0  0  0  0  0  0  0  0  0
    6.2352  -12.2624   26.6884 C   0  0  0  0  0  0  0  0  0  0  0  0
    7.3430  -13.1524   26.0605 C   0  0  1  0  0  0  0  0  0  0  0  0
    8.1450  -12.1657   25.2211 C   0  0  0  0  0  0  0  0  0  0  0  0
    8.0642  -13.7359   27.2130 C   0  0  0  0  0  0  0  0  0  0  0  0
    9.1310  -14.7446   27.0067 C   0  0  2  0  0  0  0  0  0  0  0  0
    8.6362  -15.7799   26.0571 N   0  0  0  0  0  0  0  0  0  0  0  0
    9.7712  -15.3797   28.1396 C   0  0  0  0  0  0  0  0  0  0  0  0
    9.5705  -16.7777   28.3445 O   0  0  0  0  0  0  0  0  0  0  0  0
   10.5061  -14.8625   29.0034 O   0  0  0  0  0  0  0  0  0  0  0  0
  2  1  1  0
  3  2  1  0
  3  4  1  6
  5  3  1  0
  5  6  1  1
  7  5  1  0
  7 11  1  0
  8  7  2  0
 10  9  1  6
 10 11  1  0
 10 12  1  0
 12 19  1  0
 13 12  2  0
 15 14  1  1
 15 16  1  0
 17 15  1  0
 18 20  1  0
 18 17  1  1
 19 18  1  0
 20 21  1  0
 22 20  2  0
M  END
$$$$
