IAL.pdb
     RDKit          3D

 22 21  0  0  1  0  0  0  0  0999 V2000
    7.9185  -11.8384   18.9334 C   0  0  0  0  0  0  0  0  0  0  0  0
    8.1554  -13.3519   18.8594 C   0  0  0  0  0  0  0  0  0  0  0  0
    7.9883  -13.9720   20.2315 C   0  0  2  0  0  0  0  0  0  0  0  0
    8.9135  -13.3155   21.2365 C   0  0  0  0  0  0  0  0  0  0  0  0
    8.1964  -15.4643   20.1652 C   0  0  2  0  0  0  0  0  0  0  0  0
    7.2606  -16.0411   19.2512 N   0  0  0  0  0  0  0  0  0  0  0  0
    8.2130  -16.0742   21.4974 C   0  0  0  0  0  0  0  0  0  0  0  0
    7.0909  -16.1990   22.0836 O   0  0  0  0  0  0  0  0  0  0  0  0
   10.2040  -18.2749   23.7098 C   0  0  0  0  0  0  0  0  0  0  0  0
    9.2381  -17.1037   23.4986 C   0  0  2  0  0  0  0  0  0  0  0  0
    9.3618  -16.5373   22.1917 N   0  0  0  0  0  0  0  0  0  0  0  0
    9.5568  -16.1107   24.5752 C   0  0  0  0  0  0  0  0  0  0  0  0
   10.5601  -15.3753   24.4649 O   0  0  0  0  0  0  0  0  0  0  0  0
    5.8140  -12.9622   26.7910 C   0  0  0  0  0  0  0  0  0  0  0  0
    7.1054  -13.4919   26.1089 C   0  0  1  0  0  0  0  0  0  0  0  0
    7.8287  -12.2152   25.6989 C   0  0  0  0  0  0  0  0  0  0  0  0
    7.7836  -14.2983   27.1475 C   0  0  0  0  0  0  0  0  0  0  0  0
    9.0162  -15.0588   26.8306 C   0  0  2  0  0  0  0  0  0  0  0  0
    8.7248  -16.0036   25.7167 N   0  0  0  0  0  0  0  0  0  0  0  0
    9.7488  -15.7406   27.8771 C   0  0  0  0  0  0  0  0  0  0  0  0
   10.5045  -14.9611   28.8033 O   0  0  0  0  0  0  0  0  0  0  0  0
    9.8210  -16.9649   28.0997 O   0  0  0  0  0  0  0  0  0  0  0  0
  2  1  1  0
  3  2  1  0
  3  4  1  1
  5  3  1  0
  5  6  1  6
  7  5  1  0
  7 11  1  0
  8  7  2  0
 10  9  1  6
 10 11  1  0
 10 12  1  0
 12 19  1  0
 13 12  2  0
 15 14  1  1
 15 16  1  0
 17 15  1  0
 18 20  1  0
 18 17  1  1
 19 18  1  0
 20 21  1  0
 22 20  2  0
M  END
$$$$
