IAL.pdb
     RDKit          3D

 22 21  0  0  1  0  0  0  0  0999 V2000
    7.7971  -11.8628   18.6144 C   0  0  0  0  0  0  0  0  0  0  0  0
    8.5542  -13.1928   18.5148 C   0  0  0  0  0  0  0  0  0  0  0  0
    8.2511  -14.0554   19.7228 C   0  0  2  0  0  0  0  0  0  0  0  0
    8.5604  -13.3128   21.0072 C   0  0  0  0  0  0  0  0  0  0  0  0
    8.9944  -15.3649   19.6362 C   0  0  2  0  0  0  0  0  0  0  0  0
    8.6269  -16.0490   18.4358 N   0  0  0  0  0  0  0  0  0  0  0  0
    8.8565  -16.1545   20.8627 C   0  0  0  0  0  0  0  0  0  0  0  0
    8.2509  -17.2685   20.7610 O   0  0  0  0  0  0  0  0  0  0  0  0
   10.1292  -17.9275   23.0680 C   0  0  0  0  0  0  0  0  0  0  0  0
    9.2240  -16.7034   23.2458 C   0  0  2  0  0  0  0  0  0  0  0  0
    9.3351  -15.7923   22.1496 N   0  0  0  0  0  0  0  0  0  0  0  0
    9.6342  -16.0757   24.5436 C   0  0  0  0  0  0  0  0  0  0  0  0
   10.8218  -15.7315   24.7193 O   0  0  0  0  0  0  0  0  0  0  0  0
    6.0196  -12.6878   26.5655 C   0  0  0  0  0  0  0  0  0  0  0  0
    7.2411  -13.4088   25.9317 C   0  0  1  0  0  0  0  0  0  0  0  0
    8.0578  -12.2607   25.3519 C   0  0  0  0  0  0  0  0  0  0  0  0
    7.8783  -14.1373   27.0506 C   0  0  0  0  0  0  0  0  0  0  0  0
    8.9872  -15.0891   26.8005 C   0  0  2  0  0  0  0  0  0  0  0  0
    8.6805  -15.8717   25.5710 N   0  0  0  0  0  0  0  0  0  0  0  0
    9.4448  -15.9766   27.8490 C   0  0  0  0  0  0  0  0  0  0  0  0
   10.1421  -15.4190   28.9624 O   0  0  0  0  0  0  0  0  0  0  0  0
    9.3143  -17.2138   27.9276 O   0  0  0  0  0  0  0  0  0  0  0  0
  2  1  1  0
  3  2  1  0
  3  4  1  1
  5  3  1  0
  5  6  1  6
  7  5  1  0
  7 11  1  0
  8  7  2  0
 10  9  1  6
 10 11  1  0
 10 12  1  0
 12 19  1  0
 13 12  2  0
 15 14  1  1
 15 16  1  0
 17 15  1  0
 18 20  1  0
 18 17  1  1
 19 18  1  0
 20 21  1  0
 22 20  2  0
M  END
$$$$
