IAL.pdb
     RDKit          3D

 22 21  0  0  1  0  0  0  0  0999 V2000
    3.1725  -16.9936   21.4588 C   0  0  0  0  0  0  0  0  0  0  0  0
    4.3717  -17.5045   22.2671 C   0  0  0  0  0  0  0  0  0  0  0  0
    5.1014  -18.5812   21.4904 C   0  0  2  0  0  0  0  0  0  0  0  0
    4.2003  -19.7752   21.2469 C   0  0  0  0  0  0  0  0  0  0  0  0
    6.3747  -18.9715   22.1984 C   0  0  2  0  0  0  0  0  0  0  0  0
    6.0714  -19.4273   23.5190 N   0  0  0  0  0  0  0  0  0  0  0  0
    7.3860  -17.9134   22.1285 C   0  0  0  0  0  0  0  0  0  0  0  0
    8.5898  -18.2566   22.3551 O   0  0  0  0  0  0  0  0  0  0  0  0
    7.8080  -14.2686   21.1902 C   0  0  0  0  0  0  0  0  0  0  0  0
    8.2309  -15.6141   21.7902 C   0  0  2  0  0  0  0  0  0  0  0  0
    7.1470  -16.5455   21.8321 N   0  0  0  0  0  0  0  0  0  0  0  0
    8.7605  -15.3043   23.1578 C   0  0  0  0  0  0  0  0  0  0  0  0
    9.8431  -14.6939   23.2812 O   0  0  0  0  0  0  0  0  0  0  0  0
    6.1355  -12.6082   26.6713 C   0  0  0  0  0  0  0  0  0  0  0  0
    7.3422  -13.1470   25.8544 C   0  0  1  0  0  0  0  0  0  0  0  0
    8.4464  -12.1448   26.1667 C   0  0  0  0  0  0  0  0  0  0  0  0
    7.5680  -14.5173   26.3641 C   0  0  0  0  0  0  0  0  0  0  0  0
    8.5253  -15.4274   25.6905 C   0  0  2  0  0  0  0  0  0  0  0  0
    8.0381  -15.7009   24.3099 N   0  0  0  0  0  0  0  0  0  0  0  0
    8.9337  -16.6639   26.3237 C   0  0  0  0  0  0  0  0  0  0  0  0
    9.5424  -16.6045   27.6131 O   0  0  0  0  0  0  0  0  0  0  0  0
    8.8279  -17.8275   25.8894 O   0  0  0  0  0  0  0  0  0  0  0  0
  2  1  1  0
  3  2  1  0
  3  4  1  1
  5  3  1  0
  5  6  1  1
  7  5  1  0
  7 11  1  0
  8  7  2  0
 10  9  1  1
 10 11  1  0
 10 12  1  0
 12 19  1  0
 13 12  2  0
 15 14  1  1
 15 16  1  0
 17 15  1  0
 18 20  1  0
 18 17  1  1
 19 18  1  0
 20 21  1  0
 22 20  2  0
M  END
$$$$
