IAL.pdb
     RDKit          3D

 22 21  0  0  1  0  0  0  0  0999 V2000
   10.5401  -13.2851   28.1142 C   0  0  0  0  0  0  0  0  0  0  0  0
    9.9127  -14.6442   28.4482 C   0  0  0  0  0  0  0  0  0  0  0  0
    9.5343  -15.3696   27.1731 C   0  0  2  0  0  0  0  0  0  0  0  0
    8.6685  -14.4931   26.2905 C   0  0  0  0  0  0  0  0  0  0  0  0
    8.8654  -16.6833   27.4919 C   0  0  2  0  0  0  0  0  0  0  0  0
    9.5716  -17.3398   28.5475 N   0  0  0  0  0  0  0  0  0  0  0  0
    8.6564  -17.4965   26.2911 C   0  0  0  0  0  0  0  0  0  0  0  0
    9.6026  -18.2786   25.9577 O   0  0  0  0  0  0  0  0  0  0  0  0
    6.0068  -18.5243   23.8127 C   0  0  0  0  0  0  0  0  0  0  0  0
    7.4460  -18.2997   24.2897 C   0  0  2  0  0  0  0  0  0  0  0  0
    7.4991  -17.4921   25.4684 N   0  0  0  0  0  0  0  0  0  0  0  0
    8.1646  -17.6636   23.1383 C   0  0  0  0  0  0  0  0  0  0  0  0
    8.3425  -18.3090   22.0841 O   0  0  0  0  0  0  0  0  0  0  0  0
    7.5253  -12.3669   22.1470 C   0  0  0  0  0  0  0  0  0  0  0  0
    7.5591  -13.9157   22.0306 C   0  0  1  0  0  0  0  0  0  0  0  0
    6.8285  -14.1801   20.7200 C   0  0  0  0  0  0  0  0  0  0  0  0
    8.9958  -14.2687   22.0370 C   0  0  0  0  0  0  0  0  0  0  0  0
    9.4277  -15.6819   22.1570 C   0  0  2  0  0  0  0  0  0  0  0  0
    8.6422  -16.3340   23.2415 N   0  0  0  0  0  0  0  0  0  0  0  0
   10.8305  -16.0126   22.2965 C   0  0  0  0  0  0  0  0  0  0  0  0
   11.7193  -15.6919   21.2270 O   0  0  0  0  0  0  0  0  0  0  0  0
   11.4044  -16.5617   23.2572 O   0  0  0  0  0  0  0  0  0  0  0  0
  2  1  1  0
  3  2  1  0
  3  4  1  1
  5  3  1  0
  5  6  1  1
  7  5  1  0
  7 11  1  0
  8  7  2  0
 10  9  1  6
 10 11  1  0
 10 12  1  0
 12 19  1  0
 13 12  2  0
 15 14  1  6
 15 16  1  0
 17 15  1  0
 18 20  1  0
 18 17  1  1
 19 18  1  0
 20 21  1  0
 22 20  2  0
M  END
$$$$
