IAL.pdb
     RDKit          3D

 22 21  0  0  1  0  0  0  0  0999 V2000
    5.8842  -11.6432   26.5055 C   0  0  0  0  0  0  0  0  0  0  0  0
    5.5205  -12.9748   25.8371 C   0  0  0  0  0  0  0  0  0  0  0  0
    6.7793  -13.7374   25.4783 C   0  0  2  0  0  0  0  0  0  0  0  0
    7.6841  -12.9006   24.5962 C   0  0  0  0  0  0  0  0  0  0  0  0
    6.4319  -15.0577   24.8373 C   0  0  2  0  0  0  0  0  0  0  0  0
    5.5482  -15.7895   25.6901 N   0  0  0  0  0  0  0  0  0  0  0  0
    7.6273  -15.7913   24.4129 C   0  0  0  0  0  0  0  0  0  0  0  0
    7.9395  -16.8194   25.0938 O   0  0  0  0  0  0  0  0  0  0  0  0
   10.3572  -15.7524   21.7755 C   0  0  0  0  0  0  0  0  0  0  0  0
    9.5806  -16.2923   22.9817 C   0  0  2  0  0  0  0  0  0  0  0  0
    8.4660  -15.4615   23.3157 N   0  0  0  0  0  0  0  0  0  0  0  0
   10.5730  -16.3804   24.1015 C   0  0  0  0  0  0  0  0  0  0  0  0
   11.7675  -16.6475   23.8535 O   0  0  0  0  0  0  0  0  0  0  0  0
    9.0717  -13.7828   27.5759 C   0  0  0  0  0  0  0  0  0  0  0  0
   10.5176  -14.2387   27.9149 C   0  0  1  0  0  0  0  0  0  0  0  0
   10.7259  -13.7067   29.3273 C   0  0  0  0  0  0  0  0  0  0  0  0
   10.4931  -15.7127   27.7906 C   0  0  0  0  0  0  0  0  0  0  0  0
   11.0689  -16.3818   26.5994 C   0  0  2  0  0  0  0  0  0  0  0  0
   10.1612  -16.1620   25.4392 N   0  0  0  0  0  0  0  0  0  0  0  0
   11.4668  -17.7728   26.6581 C   0  0  0  0  0  0  0  0  0  0  0  0
   12.6770  -18.1109   27.3348 O   0  0  0  0  0  0  0  0  0  0  0  0
   10.8820  -18.7657   26.1830 O   0  0  0  0  0  0  0  0  0  0  0  0
  2  1  1  0
  3  2  1  0
  3  4  1  6
  5  3  1  0
  5  6  1  1
  7  5  1  0
  7 11  1  0
  8  7  2  0
 10  9  1  6
 10 11  1  0
 10 12  1  0
 12 19  1  0
 13 12  2  0
 15 14  1  1
 15 16  1  0
 17 15  1  0
 18 20  1  0
 18 17  1  1
 19 18  1  0
 20 21  1  0
 22 20  2  0
M  END
$$$$
