IAL.pdb
     RDKit          3D

 22 21  0  0  1  0  0  0  0  0999 V2000
    6.0165  -11.8133   26.4782 C   0  0  0  0  0  0  0  0  0  0  0  0
    5.6845  -13.1362   25.7768 C   0  0  0  0  0  0  0  0  0  0  0  0
    6.9592  -13.8911   25.4601 C   0  0  2  0  0  0  0  0  0  0  0  0
    7.9000  -13.0380   24.6330 C   0  0  0  0  0  0  0  0  0  0  0  0
    6.6426  -15.2004   24.7817 C   0  0  2  0  0  0  0  0  0  0  0  0
    5.6133  -15.8806   25.5039 N   0  0  0  0  0  0  0  0  0  0  0  0
    7.8492  -15.9939   24.5337 C   0  0  0  0  0  0  0  0  0  0  0  0
    8.0442  -16.9927   25.2970 O   0  0  0  0  0  0  0  0  0  0  0  0
   10.6895  -16.3261   22.0408 C   0  0  0  0  0  0  0  0  0  0  0  0
    9.8422  -16.7126   23.2583 C   0  0  2  0  0  0  0  0  0  0  0  0
    8.8171  -15.7518   23.5234 N   0  0  0  0  0  0  0  0  0  0  0  0
   10.8030  -16.8412   24.4016 C   0  0  0  0  0  0  0  0  0  0  0  0
   11.8413  -17.5220   24.2669 O   0  0  0  0  0  0  0  0  0  0  0  0
    9.6211  -14.4706   29.4813 C   0  0  0  0  0  0  0  0  0  0  0  0
    9.7261  -14.7828   27.9631 C   0  0  1  0  0  0  0  0  0  0  0  0
    9.3313  -13.4637   27.3107 C   0  0  0  0  0  0  0  0  0  0  0  0
   11.1307  -15.1973   27.7538 C   0  0  0  0  0  0  0  0  0  0  0  0
   11.4666  -16.2768   26.7946 C   0  0  2  0  0  0  0  0  0  0  0  0
   10.5377  -16.1939   25.6333 N   0  0  0  0  0  0  0  0  0  0  0  0
   11.5763  -17.6497   27.2417 C   0  0  0  0  0  0  0  0  0  0  0  0
   10.7043  -18.6265   26.6741 O   0  0  0  0  0  0  0  0  0  0  0  0
   12.3558  -18.1278   28.0887 O   0  0  0  0  0  0  0  0  0  0  0  0
  2  1  1  0
  3  2  1  0
  3  4  1  6
  5  3  1  0
  5  6  1  1
  7  5  1  0
  7 11  1  0
  8  7  2  0
 10  9  1  6
 10 11  1  0
 10 12  1  0
 12 19  1  0
 13 12  2  0
 15 14  1  1
 15 16  1  0
 17 15  1  0
 18 20  1  0
 18 17  1  1
 19 18  1  0
 20 21  1  0
 22 20  2  0
M  END
$$$$
