RWY.pdb
     RDKit          3D

 38 40  0  0  1  0  0  0  0  0999 V2000
   28.4004  -18.4752  -19.8227 N   0  0  0  0  0  0  0  0  0  0  0  0
   27.7520  -17.9507  -18.6766 C   0  0  0  0  0  0  0  0  0  0  0  0
   27.1863  -16.8002  -18.7391 N   0  0  0  0  0  0  0  0  0  0  0  0
   27.7083  -18.6613  -17.4504 N   0  0  0  0  0  0  0  0  0  0  0  0
   28.5975  -19.7786  -17.1305 C   0  0  0  0  0  0  0  0  0  0  0  0
   27.8799  -21.0357  -17.5512 C   0  0  0  0  0  0  0  0  0  0  0  0
   26.7206  -21.3039  -16.6345 C   0  0  0  0  0  0  0  0  0  0  0  0
   26.9654  -22.4937  -15.7892 C   0  0  2  0  0  0  0  0  0  0  0  0
   27.2268  -23.6982  -16.5075 N   0  0  0  0  0  0  0  0  0  0  0  0
   25.9075  -22.6826  -14.7402 C   0  0  0  0  0  0  0  0  0  0  0  0
   24.9558  -23.4683  -14.9971 O   0  0  0  0  0  0  0  0  0  0  0  0
   26.6736  -16.4040  -17.9236 N   0  0  0  0  0  0  0  0  0  0  0  0
   25.8988  -22.0483  -13.4936 C   0  0  2  0  0  0  0  0  0  0  0  0
   24.8098  -22.1247  -12.5243 C   0  0  0  0  0  0  0  0  0  0  0  0
   25.4210  -21.7693  -11.1868 C   0  0  0  0  0  0  0  0  0  0  0  0
   26.3693  -20.6537  -11.2386 C   0  0  0  0  0  0  0  0  0  0  0  0
   26.0337  -19.2977  -11.2414 N   0  0  0  0  0  0  0  0  0  0  0  0
   27.1820  -18.6043  -11.2952 C   0  0  0  0  0  0  0  0  0  0  0  0
   28.2252  -19.4724  -11.3264 C   0  0  0  0  0  0  0  0  0  0  0  0
   29.5981  -19.3237  -11.3826 C   0  0  0  0  0  0  0  0  0  0  0  0
   30.4129  -20.4276  -11.4016 C   0  0  0  0  0  0  0  0  0  0  0  0
   29.9117  -21.7178  -11.3663 C   0  0  0  0  0  0  0  0  0  0  0  0
   28.5543  -21.8698  -11.3107 C   0  0  0  0  0  0  0  0  0  0  0  0
   27.7263  -20.7581  -11.2913 C   0  0  0  0  0  0  0  0  0  0  0  0
   23.7868  -21.0669  -12.8031 O   0  0  0  0  0  0  0  0  0  0  0  0
   24.2034  -19.9415  -13.1357 O   0  0  0  0  0  0  0  0  0  0  0  0
   18.1974  -16.7634  -17.3954 C   0  0  0  0  0  0  0  0  0  0  0  0
   19.0923  -17.5936  -16.7342 C   0  0  0  0  0  0  0  0  0  0  0  0
   18.5919  -18.7332  -16.1105 C   0  0  0  0  0  0  0  0  0  0  0  0
   19.4880  -19.5484  -15.4580 C   0  0  0  0  0  0  0  0  0  0  0  0
   20.8513  -19.2703  -15.4059 C   0  0  0  0  0  0  0  0  0  0  0  0
   21.7768  -20.1626  -14.6846 C   0  0  1  0  0  0  0  0  0  0  0  0
   21.4659  -20.3741  -13.2430 N   0  0  0  0  0  0  0  0  0  0  0  0
   22.4141  -21.3262  -12.6959 C   0  0  0  0  0  0  0  0  0  0  0  0
   20.0664  -20.8304  -13.0451 O   0  0  0  0  0  0  0  0  0  0  0  0
   19.6951  -22.1577  -13.2609 C   0  0  0  0  0  0  0  0  0  0  0  0
   21.3423  -18.1379  -16.0268 C   0  0  0  0  0  0  0  0  0  0  0  0
   20.4437  -17.3266  -16.6780 O   0  0  0  0  0  0  0  0  0  0  0  0
  2  3  2  0
  2  1  1  0
  4  2  1  0
  5  4  1  0
  6  7  1  0
  6  5  1  0
  8 10  1  0
  8  7  1  0
  8  9  1  6
 10 12  1  0
 11 10  2  0
 12 13  1  0
 13 24  1  0
 13 14  1  6
 14 15  1  0
 15 16  2  0
 17 16  1  0
 18 17  1  0
 19 18  2  0
 20 19  1  0
 21 22  1  0
 21 20  2  0
 22 23  2  0
 23 18  1  0
 23 15  1  0
 24 25  2  0
 24 33  1  0
 27 26  1  0
 27 37  2  0
 28 27  1  0
 29 28  2  0
 29 30  1  0
 30 36  2  0
 31 30  1  0
 32 31  1  1
 33 32  1  0
 34 32  1  0
 34 35  1  0
 36 37  1  0
 38 34  2  0
M  END
$$$$
