RWY.pdb
     RDKit          3D

 38 40  0  0  1  0  0  0  0  0999 V2000
   28.3265  -25.9062  -17.0777 N   0  0  0  0  0  0  0  0  0  0  0  0
   28.9615  -25.1689  -18.1084 C   0  0  0  0  0  0  0  0  0  0  0  0
   28.7294  -25.4656  -19.3356 N   0  0  0  0  0  0  0  0  0  0  0  0
   29.8549  -24.1047  -17.8262 N   0  0  0  0  0  0  0  0  0  0  0  0
   30.1249  -23.6115  -16.4752 C   0  0  0  0  0  0  0  0  0  0  0  0
   29.0677  -22.5807  -16.1723 C   0  0  0  0  0  0  0  0  0  0  0  0
   29.3425  -21.9281  -14.8476 C   0  0  0  0  0  0  0  0  0  0  0  0
   28.2850  -20.9542  -14.4964 C   0  0  2  0  0  0  0  0  0  0  0  0
   28.7033  -19.5904  -14.4846 N   0  0  0  0  0  0  0  0  0  0  0  0
   27.5512  -21.3284  -13.2407 C   0  0  0  0  0  0  0  0  0  0  0  0
   26.7861  -22.3294  -13.2807 O   0  0  0  0  0  0  0  0  0  0  0  0
   29.1696  -24.9318  -20.1141 N   0  0  0  0  0  0  0  0  0  0  0  0
   27.6532  -20.6455  -12.0244 C   0  0  1  0  0  0  0  0  0  0  0  0
   26.8968  -20.9685  -10.8182 C   0  0  0  0  0  0  0  0  0  0  0  0
   27.5615  -20.2024   -9.6957 C   0  0  0  0  0  0  0  0  0  0  0  0
   26.8960  -20.3425   -8.3981 C   0  0  0  0  0  0  0  0  0  0  0  0
   25.6285  -20.8902   -8.1867 N   0  0  0  0  0  0  0  0  0  0  0  0
   25.3874  -20.8364   -6.8671 C   0  0  0  0  0  0  0  0  0  0  0  0
   26.4543  -20.2761   -6.2422 C   0  0  0  0  0  0  0  0  0  0  0  0
   26.7501  -19.9796   -4.9251 C   0  0  0  0  0  0  0  0  0  0  0  0
   27.9491  -19.3969   -4.6001 C   0  0  0  0  0  0  0  0  0  0  0  0
   28.9021  -19.0833   -5.5542 C   0  0  0  0  0  0  0  0  0  0  0  0
   28.6139  -19.3748   -6.8585 C   0  0  0  0  0  0  0  0  0  0  0  0
   27.4041  -19.9634   -7.1925 C   0  0  0  0  0  0  0  0  0  0  0  0
   25.5029  -20.4291  -10.9152 O   0  0  0  0  0  0  0  0  0  0  0  0
   25.3750  -19.2045  -11.1013 O   0  0  0  0  0  0  0  0  0  0  0  0
   17.0046  -19.9330  -12.9746 C   0  0  0  0  0  0  0  0  0  0  0  0
   18.3064  -20.3356  -12.7093 C   0  0  0  0  0  0  0  0  0  0  0  0
   19.3359  -19.7524  -13.4428 C   0  0  0  0  0  0  0  0  0  0  0  0
   20.6220  -20.1594  -13.1714 C   0  0  0  0  0  0  0  0  0  0  0  0
   20.9148  -21.1176  -12.2045 C   0  0  0  0  0  0  0  0  0  0  0  0
   22.3057  -21.5362  -11.9534 C   0  0  1  0  0  0  0  0  0  0  0  0
   23.0570  -20.7005  -10.9751 N   0  0  0  0  0  0  0  0  0  0  0  0
   24.3829  -21.2632  -10.8020 C   0  0  0  0  0  0  0  0  0  0  0  0
   22.3403  -20.5966   -9.6785 O   0  0  0  0  0  0  0  0  0  0  0  0
   21.5167  -19.5092   -9.3859 C   0  0  0  0  0  0  0  0  0  0  0  0
   19.8890  -21.6929  -11.4796 C   0  0  0  0  0  0  0  0  0  0  0  0
   18.6058  -21.2830  -11.7535 O   0  0  0  0  0  0  0  0  0  0  0  0
  2  3  2  0
  2  1  1  0
  4  2  1  0
  5  4  1  0
  6  7  1  0
  6  5  1  0
  8 10  1  0
  8  7  1  0
  8  9  1  1
 10 12  1  0
 11 10  2  0
 12 13  1  0
 13 24  1  0
 13 14  1  6
 14 15  1  0
 15 16  2  0
 17 16  1  0
 18 17  1  0
 19 18  2  0
 20 19  1  0
 21 22  1  0
 21 20  2  0
 22 23  2  0
 23 18  1  0
 23 15  1  0
 24 25  2  0
 24 33  1  0
 27 26  1  0
 27 37  2  0
 28 27  1  0
 29 28  2  0
 29 30  1  0
 30 36  2  0
 31 30  1  0
 32 31  1  6
 33 32  1  0
 34 32  1  0
 34 35  1  0
 36 37  1  0
 38 34  2  0
M  END
$$$$
