RWY.pdb
     RDKit          3D

 38 40  0  0  1  0  0  0  0  0999 V2000
   30.8671  -26.1687  -17.1746 N   0  0  0  0  0  0  0  0  0  0  0  0
   31.1044  -24.8362  -17.5955 C   0  0  0  0  0  0  0  0  0  0  0  0
   32.1280  -24.5742  -18.3244 N   0  0  0  0  0  0  0  0  0  0  0  0
   30.2405  -23.7718  -17.2332 N   0  0  0  0  0  0  0  0  0  0  0  0
   29.0865  -23.9317  -16.3479 C   0  0  0  0  0  0  0  0  0  0  0  0
   27.8585  -23.7288  -17.1981 C   0  0  0  0  0  0  0  0  0  0  0  0
   26.8067  -22.9870  -16.4235 C   0  0  0  0  0  0  0  0  0  0  0  0
   26.3970  -23.7371  -15.2154 C   0  0  2  0  0  0  0  0  0  0  0  0
   25.9972  -25.0859  -15.4518 N   0  0  0  0  0  0  0  0  0  0  0  0
   25.3923  -22.9897  -14.3865 C   0  0  0  0  0  0  0  0  0  0  0  0
   24.3558  -22.5604  -14.9613 O   0  0  0  0  0  0  0  0  0  0  0  0
   32.2778  -23.6250  -18.7263 N   0  0  0  0  0  0  0  0  0  0  0  0
   25.5216  -22.7323  -13.0178 C   0  0  2  0  0  0  0  0  0  0  0  0
   25.0412  -21.5294  -12.3442 C   0  0  0  0  0  0  0  0  0  0  0  0
   26.1350  -20.4976  -12.5104 C   0  0  0  0  0  0  0  0  0  0  0  0
   27.1924  -20.5768  -11.4993 C   0  0  0  0  0  0  0  0  0  0  0  0
   28.5293  -20.9014  -11.7413 N   0  0  0  0  0  0  0  0  0  0  0  0
   29.1672  -20.8639  -10.5606 C   0  0  0  0  0  0  0  0  0  0  0  0
   28.2826  -20.5284   -9.5871 C   0  0  0  0  0  0  0  0  0  0  0  0
   28.3804  -20.3466   -8.2206 C   0  0  0  0  0  0  0  0  0  0  0  0
   27.2733  -19.9985   -7.4884 C   0  0  0  0  0  0  0  0  0  0  0  0
   26.0297  -19.8160   -8.0690 C   0  0  0  0  0  0  0  0  0  0  0  0
   25.9281  -19.9948   -9.4206 C   0  0  0  0  0  0  0  0  0  0  0  0
   27.0433  -20.3465  -10.1652 C   0  0  0  0  0  0  0  0  0  0  0  0
   23.8432  -20.9766  -13.0530 O   0  0  0  0  0  0  0  0  0  0  0  0
   23.7988  -21.1091  -14.2904 O   0  0  0  0  0  0  0  0  0  0  0  0
   18.6361  -24.6838  -10.0723 C   0  0  0  0  0  0  0  0  0  0  0  0
   19.0921  -23.4681  -10.5636 C   0  0  0  0  0  0  0  0  0  0  0  0
   19.2425  -23.3320  -11.9409 C   0  0  0  0  0  0  0  0  0  0  0  0
   19.6954  -22.1228  -12.4163 C   0  0  0  0  0  0  0  0  0  0  0  0
   20.0005  -21.0556  -11.5757 C   0  0  0  0  0  0  0  0  0  0  0  0
   20.4962  -19.7802  -12.1242 C   0  0  2  0  0  0  0  0  0  0  0  0
   21.6317  -19.8957  -13.0818 N   0  0  0  0  0  0  0  0  0  0  0  0
   22.8098  -20.3346  -12.3579 C   0  0  0  0  0  0  0  0  0  0  0  0
   21.8803  -18.6164  -13.7942 O   0  0  0  0  0  0  0  0  0  0  0  0
   23.1116  -17.9653  -13.7149 C   0  0  0  0  0  0  0  0  0  0  0  0
   19.8491  -21.1964  -10.2096 C   0  0  0  0  0  0  0  0  0  0  0  0
   19.3959  -22.4058   -9.7389 O   0  0  0  0  0  0  0  0  0  0  0  0
  2  3  2  0
  2  1  1  0
  4  2  1  0
  5  4  1  0
  6  7  1  0
  6  5  1  0
  8 10  1  0
  8  7  1  0
  8  9  1  6
 10 12  1  0
 11 10  2  0
 12 13  1  0
 13 24  1  0
 13 14  1  1
 14 15  1  0
 15 16  2  0
 17 16  1  0
 18 17  1  0
 19 18  2  0
 20 19  1  0
 21 22  1  0
 21 20  2  0
 22 23  2  0
 23 18  1  0
 23 15  1  0
 24 25  2  0
 24 33  1  0
 27 26  1  0
 27 37  2  0
 28 27  1  0
 29 28  2  0
 29 30  1  0
 30 36  2  0
 31 30  1  0
 32 31  1  6
 33 32  1  0
 34 32  1  0
 34 35  1  0
 36 37  1  0
 38 34  2  0
M  END
$$$$
