RWY.pdb
     RDKit          3D

 38 40  0  0  1  0  0  0  0  0999 V2000
   28.3318  -24.6853  -16.3669 N   0  0  0  0  0  0  0  0  0  0  0  0
   27.6480  -25.5311  -17.2758 C   0  0  0  0  0  0  0  0  0  0  0  0
   27.5679  -26.7891  -17.0336 N   0  0  0  0  0  0  0  0  0  0  0  0
   27.0445  -25.0289  -18.4565 N   0  0  0  0  0  0  0  0  0  0  0  0
   26.5201  -23.6684  -18.5816 C   0  0  0  0  0  0  0  0  0  0  0  0
   27.5421  -22.7526  -17.9581 C   0  0  0  0  0  0  0  0  0  0  0  0
   26.8745  -21.5205  -17.4171 C   0  0  0  0  0  0  0  0  0  0  0  0
   27.0896  -20.3564  -18.3052 C   0  0  2  0  0  0  0  0  0  0  0  0
   27.9500  -20.5991  -19.4169 N   0  0  0  0  0  0  0  0  0  0  0  0
   27.4828  -19.1199  -17.5491 C   0  0  0  0  0  0  0  0  0  0  0  0
   28.7014  -18.7973  -17.5389 O   0  0  0  0  0  0  0  0  0  0  0  0
   27.0340  -27.4280  -17.6595 N   0  0  0  0  0  0  0  0  0  0  0  0
   26.5939  -18.2958  -16.8513 C   0  0  2  0  0  0  0  0  0  0  0  0
   26.9834  -17.1620  -16.0182 C   0  0  0  0  0  0  0  0  0  0  0  0
   25.7112  -16.3876  -15.7527 C   0  0  0  0  0  0  0  0  0  0  0  0
   24.9316  -16.0848  -16.9556 C   0  0  0  0  0  0  0  0  0  0  0  0
   25.4250  -16.0599  -18.2622 N   0  0  0  0  0  0  0  0  0  0  0  0
   24.3991  -15.7437  -19.0683 C   0  0  0  0  0  0  0  0  0  0  0  0
   23.2811  -15.5692  -18.3185 C   0  0  0  0  0  0  0  0  0  0  0  0
   21.9700  -15.2425  -18.6091 C   0  0  0  0  0  0  0  0  0  0  0  0
   21.0438  -15.1385  -17.6020 C   0  0  0  0  0  0  0  0  0  0  0  0
   21.3689  -15.3509  -16.2730 C   0  0  0  0  0  0  0  0  0  0  0  0
   22.6646  -15.6743  -15.9807 C   0  0  0  0  0  0  0  0  0  0  0  0
   23.6045  -15.7806  -16.9941 C   0  0  0  0  0  0  0  0  0  0  0  0
   27.4629  -17.6363  -14.6809 O   0  0  0  0  0  0  0  0  0  0  0  0
   27.5959  -16.7819  -13.7848 O   0  0  0  0  0  0  0  0  0  0  0  0
   23.8359  -21.7292   -8.2719 C   0  0  0  0  0  0  0  0  0  0  0  0
   24.3701  -21.1448   -9.4121 C   0  0  0  0  0  0  0  0  0  0  0  0
   23.4966  -20.5295  -10.3047 C   0  0  0  0  0  0  0  0  0  0  0  0
   24.0373  -19.9539  -11.4314 C   0  0  0  0  0  0  0  0  0  0  0  0
   25.4040  -19.9700  -11.6970 C   0  0  0  0  0  0  0  0  0  0  0  0
   25.9422  -19.3532  -12.9230 C   0  0  1  0  0  0  0  0  0  0  0  0
   27.3962  -19.5729  -13.1626 N   0  0  0  0  0  0  0  0  0  0  0  0
   27.7524  -18.9859  -14.4406 C   0  0  0  0  0  0  0  0  0  0  0  0
   27.7484  -21.0148  -13.1129 O   0  0  0  0  0  0  0  0  0  0  0  0
   28.4975  -21.5465  -12.0630 C   0  0  0  0  0  0  0  0  0  0  0  0
   26.2661  -20.5819  -10.8076 C   0  0  0  0  0  0  0  0  0  0  0  0
   25.7219  -21.1552   -9.6829 O   0  0  0  0  0  0  0  0  0  0  0  0
  2  3  2  0
  2  1  1  0
  4  2  1  0
  5  4  1  0
  6  7  1  0
  6  5  1  0
  8 10  1  0
  8  7  1  0
  8  9  1  6
 10 12  1  0
 11 10  2  0
 12 13  1  0
 13 24  1  0
 13 14  1  6
 14 15  1  0
 15 16  2  0
 17 16  1  0
 18 17  1  0
 19 18  2  0
 20 19  1  0
 21 22  1  0
 21 20  2  0
 22 23  2  0
 23 18  1  0
 23 15  1  0
 24 25  2  0
 24 33  1  0
 27 26  1  0
 27 37  2  0
 28 27  1  0
 29 28  2  0
 29 30  1  0
 30 36  2  0
 31 30  1  0
 32 31  1  1
 33 32  1  0
 34 32  1  0
 34 35  1  0
 36 37  1  0
 38 34  2  0
M  END
$$$$
