RWY.pdb
     RDKit          3D

 38 40  0  0  1  0  0  0  0  0999 V2000
   24.0427  -17.1330  -17.9051 N   0  0  0  0  0  0  0  0  0  0  0  0
   24.7283  -16.3308  -16.9588 C   0  0  0  0  0  0  0  0  0  0  0  0
   24.1778  -15.2571  -16.5206 N   0  0  0  0  0  0  0  0  0  0  0  0
   26.0156  -16.6775  -16.4761 N   0  0  0  0  0  0  0  0  0  0  0  0
   26.6833  -17.9417  -16.7882 C   0  0  0  0  0  0  0  0  0  0  0  0
   26.3700  -18.8865  -15.6563 C   0  0  0  0  0  0  0  0  0  0  0  0
   27.4734  -18.8609  -14.6373 C   0  0  0  0  0  0  0  0  0  0  0  0
   27.7932  -20.2227  -14.1543 C   0  0  2  0  0  0  0  0  0  0  0  0
   28.1894  -21.1432  -15.1697 N   0  0  0  0  0  0  0  0  0  0  0  0
   26.7183  -20.7879  -13.2710 C   0  0  0  0  0  0  0  0  0  0  0  0
   26.0146  -21.7292  -13.7269 O   0  0  0  0  0  0  0  0  0  0  0  0
   24.6460  -14.6617  -15.8055 N   0  0  0  0  0  0  0  0  0  0  0  0
   26.4377  -20.3454  -11.9742 C   0  0  2  0  0  0  0  0  0  0  0  0
   25.4249  -20.9219  -11.0949 C   0  0  0  0  0  0  0  0  0  0  0  0
   25.7896  -20.4761   -9.6960 C   0  0  0  0  0  0  0  0  0  0  0  0
   27.1924  -20.7051   -9.3404 C   0  0  0  0  0  0  0  0  0  0  0  0
   28.1287  -21.3920  -10.1168 N   0  0  0  0  0  0  0  0  0  0  0  0
   29.2894  -21.3802   -9.4423 C   0  0  0  0  0  0  0  0  0  0  0  0
   29.1179  -20.7126   -8.2728 C   0  0  0  0  0  0  0  0  0  0  0  0
   29.9489  -20.4001   -7.2137 C   0  0  0  0  0  0  0  0  0  0  0  0
   29.4665  -19.6917   -6.1421 C   0  0  0  0  0  0  0  0  0  0  0  0
   28.1518  -19.2637   -6.0694 C   0  0  0  0  0  0  0  0  0  0  0  0
   27.3260  -19.5706   -7.1149 C   0  0  0  0  0  0  0  0  0  0  0  0
   27.8080  -20.2861   -8.2000 C   0  0  0  0  0  0  0  0  0  0  0  0
   24.0823  -20.3228  -11.3806 O   0  0  0  0  0  0  0  0  0  0  0  0
   24.0411  -19.3625  -12.1723 O   0  0  0  0  0  0  0  0  0  0  0  0
   21.6587  -19.0795  -17.7032 C   0  0  0  0  0  0  0  0  0  0  0  0
   21.7407  -19.7554  -16.4934 C   0  0  0  0  0  0  0  0  0  0  0  0
   21.1281  -19.1854  -15.3807 C   0  0  0  0  0  0  0  0  0  0  0  0
   21.2161  -19.8641  -14.1869 C   0  0  0  0  0  0  0  0  0  0  0  0
   21.8865  -21.0783  -14.0647 C   0  0  0  0  0  0  0  0  0  0  0  0
   21.9695  -21.7673  -12.7641 C   0  0  2  0  0  0  0  0  0  0  0  0
   21.7006  -20.9149  -11.5721 N   0  0  0  0  0  0  0  0  0  0  0  0
   22.9151  -20.8177  -10.7844 C   0  0  0  0  0  0  0  0  0  0  0  0
   20.5726  -21.4434  -10.7633 O   0  0  0  0  0  0  0  0  0  0  0  0
   19.2933  -20.8937  -10.8498 C   0  0  0  0  0  0  0  0  0  0  0  0
   22.4925  -21.6392  -15.1724 C   0  0  0  0  0  0  0  0  0  0  0  0
   22.4016  -20.9583  -16.3630 O   0  0  0  0  0  0  0  0  0  0  0  0
  2  3  2  0
  2  1  1  0
  4  2  1  0
  5  4  1  0
  6  7  1  0
  6  5  1  0
  8 10  1  0
  8  7  1  0
  8  9  1  6
 10 12  1  0
 11 10  2  0
 12 13  1  0
 13 24  1  0
 13 14  1  6
 14 15  1  0
 15 16  2  0
 17 16  1  0
 18 17  1  0
 19 18  2  0
 20 19  1  0
 21 22  1  0
 21 20  2  0
 22 23  2  0
 23 18  1  0
 23 15  1  0
 24 25  2  0
 24 33  1  0
 27 26  1  0
 27 37  2  0
 28 27  1  0
 29 28  2  0
 29 30  1  0
 30 36  2  0
 31 30  1  0
 32 31  1  6
 33 32  1  0
 34 32  1  0
 34 35  1  0
 36 37  1  0
 38 34  2  0
M  END
$$$$
