RWY.pdb
     RDKit          3D

 38 40  0  0  1  0  0  0  0  0999 V2000
   27.3683  -16.5606  -18.5475 N   0  0  0  0  0  0  0  0  0  0  0  0
   28.3552  -16.2921  -17.5661 C   0  0  0  0  0  0  0  0  0  0  0  0
   29.2157  -15.3618  -17.7702 N   0  0  0  0  0  0  0  0  0  0  0  0
   28.4251  -17.0255  -16.3546 N   0  0  0  0  0  0  0  0  0  0  0  0
   28.9192  -18.4002  -16.2682 C   0  0  0  0  0  0  0  0  0  0  0  0
   27.7079  -19.2969  -16.2929 C   0  0  0  0  0  0  0  0  0  0  0  0
   27.2475  -19.5874  -14.8929 C   0  0  0  0  0  0  0  0  0  0  0  0
   27.6798  -20.9320  -14.4510 C   0  0  2  0  0  0  0  0  0  0  0  0
   27.6091  -21.9456  -15.4524 N   0  0  0  0  0  0  0  0  0  0  0  0
   27.0188  -21.3581  -13.1717 C   0  0  0  0  0  0  0  0  0  0  0  0
   25.9681  -22.0499  -13.2526 O   0  0  0  0  0  0  0  0  0  0  0  0
   29.9222  -15.1098  -17.0475 N   0  0  0  0  0  0  0  0  0  0  0  0
   27.4836  -21.0425  -11.8908 C   0  0  2  0  0  0  0  0  0  0  0  0
   26.7124  -21.1943  -10.6606 C   0  0  0  0  0  0  0  0  0  0  0  0
   27.5720  -20.6139   -9.5593 C   0  0  0  0  0  0  0  0  0  0  0  0
   26.9089  -20.5447   -8.2547 C   0  0  0  0  0  0  0  0  0  0  0  0
   25.5742  -20.8689   -8.0002 N   0  0  0  0  0  0  0  0  0  0  0  0
   25.3608  -20.6734   -6.6893 C   0  0  0  0  0  0  0  0  0  0  0  0
   26.5097  -20.2391   -6.1112 C   0  0  0  0  0  0  0  0  0  0  0  0
   26.8644  -19.8889   -4.8221 C   0  0  0  0  0  0  0  0  0  0  0  0
   28.1436  -19.4770   -4.5448 C   0  0  0  0  0  0  0  0  0  0  0  0
   29.1219  -19.3931   -5.5209 C   0  0  0  0  0  0  0  0  0  0  0  0
   28.7756  -19.7385   -6.7975 C   0  0  0  0  0  0  0  0  0  0  0  0
   27.4848  -20.1553   -7.0834 C   0  0  0  0  0  0  0  0  0  0  0  0
   25.4785  -20.3468  -10.7092 O   0  0  0  0  0  0  0  0  0  0  0  0
   25.6324  -19.1111  -10.6992 O   0  0  0  0  0  0  0  0  0  0  0  0
   22.3844  -21.7565  -16.9035 C   0  0  0  0  0  0  0  0  0  0  0  0
   22.5733  -21.1170  -15.6859 C   0  0  0  0  0  0  0  0  0  0  0  0
   21.5165  -21.1062  -14.7797 C   0  0  0  0  0  0  0  0  0  0  0  0
   21.7150  -20.4692  -13.5763 C   0  0  0  0  0  0  0  0  0  0  0  0
   22.9175  -19.8488  -13.2481 C   0  0  0  0  0  0  0  0  0  0  0  0
   23.0854  -19.1651  -11.9530 C   0  0  1  0  0  0  0  0  0  0  0  0
   23.0354  -20.0480  -10.7539 N   0  0  0  0  0  0  0  0  0  0  0  0
   24.1988  -20.9147  -10.7638 C   0  0  0  0  0  0  0  0  0  0  0  0
   21.7762  -20.8341  -10.7040 O   0  0  0  0  0  0  0  0  0  0  0  0
   21.7858  -22.2288  -10.7367 C   0  0  0  0  0  0  0  0  0  0  0  0
   23.9629  -19.8628  -14.1513 C   0  0  0  0  0  0  0  0  0  0  0  0
   23.7605  -20.5008  -15.3520 O   0  0  0  0  0  0  0  0  0  0  0  0
  2  3  2  0
  2  1  1  0
  4  2  1  0
  5  4  1  0
  6  7  1  0
  6  5  1  0
  8 10  1  0
  8  7  1  0
  8  9  1  6
 10 12  1  0
 11 10  2  0
 12 13  1  0
 13 24  1  0
 13 14  1  1
 14 15  1  0
 15 16  2  0
 17 16  1  0
 18 17  1  0
 19 18  2  0
 20 19  1  0
 21 22  1  0
 21 20  2  0
 22 23  2  0
 23 18  1  0
 23 15  1  0
 24 25  2  0
 24 33  1  0
 27 26  1  0
 27 37  2  0
 28 27  1  0
 29 28  2  0
 29 30  1  0
 30 36  2  0
 31 30  1  0
 32 31  1  1
 33 32  1  0
 34 32  1  0
 34 35  1  0
 36 37  1  0
 38 34  2  0
M  END
$$$$
