RWY.pdb
     RDKit          3D

 38 40  0  0  1  0  0  0  0  0999 V2000
   30.2921  -20.2580  -19.0344 N   0  0  0  0  0  0  0  0  0  0  0  0
   29.9685  -21.5225  -19.5872 C   0  0  0  0  0  0  0  0  0  0  0  0
   30.5828  -21.9312  -20.6376 N   0  0  0  0  0  0  0  0  0  0  0  0
   28.9778  -22.3589  -19.0134 N   0  0  0  0  0  0  0  0  0  0  0  0
   28.1539  -21.9694  -17.8685 C   0  0  0  0  0  0  0  0  0  0  0  0
   29.0293  -22.0853  -16.6470 C   0  0  0  0  0  0  0  0  0  0  0  0
   28.2107  -22.5026  -15.4586 C   0  0  0  0  0  0  0  0  0  0  0  0
   27.0313  -21.6264  -15.2816 C   0  0  2  0  0  0  0  0  0  0  0  0
   27.3020  -20.2285  -15.3696 N   0  0  0  0  0  0  0  0  0  0  0  0
   26.2380  -21.9694  -14.0534 C   0  0  0  0  0  0  0  0  0  0  0  0
   25.9761  -23.1840  -13.8406 O   0  0  0  0  0  0  0  0  0  0  0  0
   30.3519  -22.8464  -21.0780 N   0  0  0  0  0  0  0  0  0  0  0  0
   25.7650  -21.0375  -13.1240 C   0  0  1  0  0  0  0  0  0  0  0  0
   24.9279  -21.3570  -11.9714 C   0  0  0  0  0  0  0  0  0  0  0  0
   25.4045  -20.4579  -10.8521 C   0  0  0  0  0  0  0  0  0  0  0  0
   26.6849  -20.8599  -10.2642 C   0  0  0  0  0  0  0  0  0  0  0  0
   27.7048  -21.5490  -10.9246 N   0  0  0  0  0  0  0  0  0  0  0  0
   28.7023  -21.7228  -10.0431 C   0  0  0  0  0  0  0  0  0  0  0  0
   28.3480  -21.1697   -8.8551 C   0  0  0  0  0  0  0  0  0  0  0  0
   28.9682  -21.0545   -7.6254 C   0  0  0  0  0  0  0  0  0  0  0  0
   28.3333  -20.4200   -6.5876 C   0  0  0  0  0  0  0  0  0  0  0  0
   27.0670  -19.8752   -6.7171 C   0  0  0  0  0  0  0  0  0  0  0  0
   26.4495  -19.9868   -7.9317 C   0  0  0  0  0  0  0  0  0  0  0  0
   27.0863  -20.6268   -8.9837 C   0  0  0  0  0  0  0  0  0  0  0  0
   23.5057  -20.9678  -12.2344 O   0  0  0  0  0  0  0  0  0  0  0  0
   23.2416  -19.7512  -12.2639 O   0  0  0  0  0  0  0  0  0  0  0  0
   19.1153  -23.7821   -7.1198 C   0  0  0  0  0  0  0  0  0  0  0  0
   19.4812  -23.0435   -8.2368 C   0  0  0  0  0  0  0  0  0  0  0  0
   20.0958  -21.8106   -8.0354 C   0  0  0  0  0  0  0  0  0  0  0  0
   20.4538  -21.0871   -9.1498 C   0  0  0  0  0  0  0  0  0  0  0  0
   20.2228  -21.5447  -10.4444 C   0  0  0  0  0  0  0  0  0  0  0  0
   20.6095  -20.7327  -11.6124 C   0  0  2  0  0  0  0  0  0  0  0  0
   21.1611  -21.4967  -12.7664 N   0  0  0  0  0  0  0  0  0  0  0  0
   22.5070  -21.9287  -12.4397 C   0  0  0  0  0  0  0  0  0  0  0  0
   21.1393  -20.6942  -14.0159 O   0  0  0  0  0  0  0  0  0  0  0  0
   22.2842  -20.5283  -14.7957 C   0  0  0  0  0  0  0  0  0  0  0  0
   19.6127  -22.7690  -10.6381 C   0  0  0  0  0  0  0  0  0  0  0  0
   19.2572  -23.4888   -9.5222 O   0  0  0  0  0  0  0  0  0  0  0  0
  2  3  2  0
  2  1  1  0
  4  2  1  0
  5  4  1  0
  6  7  1  0
  6  5  1  0
  8 10  1  0
  8  7  1  0
  8  9  1  1
 10 12  1  0
 11 10  2  0
 12 13  1  0
 13 24  1  0
 13 14  1  1
 14 15  1  0
 15 16  2  0
 17 16  1  0
 18 17  1  0
 19 18  2  0
 20 19  1  0
 21 22  1  0
 21 20  2  0
 22 23  2  0
 23 18  1  0
 23 15  1  0
 24 25  2  0
 24 33  1  0
 27 26  1  0
 27 37  2  0
 28 27  1  0
 29 28  2  0
 29 30  1  0
 30 36  2  0
 31 30  1  0
 32 31  1  1
 33 32  1  0
 34 32  1  0
 34 35  1  0
 36 37  1  0
 38 34  2  0
M  END
$$$$
