RWY.pdb
     RDKit          3D

 38 40  0  0  1  0  0  0  0  0999 V2000
   22.1134  -24.1013  -18.7743 N   0  0  0  0  0  0  0  0  0  0  0  0
   22.7265  -23.7024  -19.9884 C   0  0  0  0  0  0  0  0  0  0  0  0
   22.0092  -23.1944  -20.9239 N   0  0  0  0  0  0  0  0  0  0  0  0
   24.1199  -23.8485  -20.2067 N   0  0  0  0  0  0  0  0  0  0  0  0
   25.0342  -24.4409  -19.2298 C   0  0  0  0  0  0  0  0  0  0  0  0
   26.0840  -23.4004  -18.9345 C   0  0  0  0  0  0  0  0  0  0  0  0
   25.9227  -22.8822  -17.5338 C   0  0  0  0  0  0  0  0  0  0  0  0
   27.0749  -23.2568  -16.6841 C   0  0  2  0  0  0  0  0  0  0  0  0
   27.6335  -24.5402  -16.9601 N   0  0  0  0  0  0  0  0  0  0  0  0
   26.7970  -23.0673  -15.2205 C   0  0  0  0  0  0  0  0  0  0  0  0
   26.3418  -24.0494  -14.5745 O   0  0  0  0  0  0  0  0  0  0  0  0
   22.4390  -22.8416  -21.8047 N   0  0  0  0  0  0  0  0  0  0  0  0
   27.0058  -21.8765  -14.5172 C   0  0  2  0  0  0  0  0  0  0  0  0
   26.6817  -21.6694  -13.1089 C   0  0  0  0  0  0  0  0  0  0  0  0
   27.4558  -20.4415  -12.6826 C   0  0  0  0  0  0  0  0  0  0  0  0
   28.0555  -20.5437  -11.3498 C   0  0  0  0  0  0  0  0  0  0  0  0
   29.3614  -20.9551  -11.0726 N   0  0  0  0  0  0  0  0  0  0  0  0
   29.5178  -20.9100   -9.7400 C   0  0  0  0  0  0  0  0  0  0  0  0
   28.3609  -20.4863   -9.1701 C   0  0  0  0  0  0  0  0  0  0  0  0
   27.9580  -20.2584   -7.8679 C   0  0  0  0  0  0  0  0  0  0  0  0
   26.6851  -19.8184   -7.6049 C   0  0  0  0  0  0  0  0  0  0  0  0
   25.7605  -19.5857   -8.6089 C   0  0  0  0  0  0  0  0  0  0  0  0
   26.1546  -19.8098   -9.8986 C   0  0  0  0  0  0  0  0  0  0  0  0
   27.4392  -20.2544  -10.1701 C   0  0  0  0  0  0  0  0  0  0  0  0
   25.2342  -21.3181  -12.9517 O   0  0  0  0  0  0  0  0  0  0  0  0
   24.7586  -20.4840  -13.7446 O   0  0  0  0  0  0  0  0  0  0  0  0
   17.7891  -17.9542  -10.9734 C   0  0  0  0  0  0  0  0  0  0  0  0
   19.0704  -18.4748  -11.0931 C   0  0  0  0  0  0  0  0  0  0  0  0
   19.7606  -18.2522  -12.2815 C   0  0  0  0  0  0  0  0  0  0  0  0
   21.0296  -18.7731  -12.3890 C   0  0  0  0  0  0  0  0  0  0  0  0
   21.6285  -19.5007  -11.3640 C   0  0  0  0  0  0  0  0  0  0  0  0
   22.9856  -20.0537  -11.5240 C   0  0  2  0  0  0  0  0  0  0  0  0
   23.0491  -21.5095  -11.8344 N   0  0  0  0  0  0  0  0  0  0  0  0
   24.4409  -21.9007  -11.9546 C   0  0  0  0  0  0  0  0  0  0  0  0
   22.2860  -21.8416  -13.0645 O   0  0  0  0  0  0  0  0  0  0  0  0
   22.8955  -22.4626  -14.1550 C   0  0  0  0  0  0  0  0  0  0  0  0
   20.9389  -19.7184  -10.1868 C   0  0  0  0  0  0  0  0  0  0  0  0
   19.6717  -19.1957  -10.0834 O   0  0  0  0  0  0  0  0  0  0  0  0
  2  3  2  0
  2  1  1  0
  4  2  1  0
  5  4  1  0
  6  7  1  0
  6  5  1  0
  8 10  1  0
  8  7  1  0
  8  9  1  1
 10 12  1  0
 11 10  2  0
 12 13  1  0
 13 24  1  0
 13 14  1  6
 14 15  1  0
 15 16  2  0
 17 16  1  0
 18 17  1  0
 19 18  2  0
 20 19  1  0
 21 22  1  0
 21 20  2  0
 22 23  2  0
 23 18  1  0
 23 15  1  0
 24 25  2  0
 24 33  1  0
 27 26  1  0
 27 37  2  0
 28 27  1  0
 29 28  2  0
 29 30  1  0
 30 36  2  0
 31 30  1  0
 32 31  1  1
 33 32  1  0
 34 32  1  0
 34 35  1  0
 36 37  1  0
 38 34  2  0
M  END
$$$$
