RWY.pdb
     RDKit          3D

 38 40  0  0  1  0  0  0  0  0999 V2000
   30.7437  -21.4946  -19.2215 N   0  0  0  0  0  0  0  0  0  0  0  0
   30.4669  -22.6616  -19.9769 C   0  0  0  0  0  0  0  0  0  0  0  0
   31.4148  -23.2396  -20.6211 N   0  0  0  0  0  0  0  0  0  0  0  0
   29.1640  -23.2167  -20.0465 N   0  0  0  0  0  0  0  0  0  0  0  0
   28.0193  -22.6901  -19.3024 C   0  0  0  0  0  0  0  0  0  0  0  0
   27.8207  -23.5982  -18.1158 C   0  0  0  0  0  0  0  0  0  0  0  0
   26.6525  -23.1323  -17.2945 C   0  0  0  0  0  0  0  0  0  0  0  0
   27.0241  -21.9932  -16.4257 C   0  0  2  0  0  0  0  0  0  0  0  0
   28.4262  -21.7561  -16.3119 N   0  0  0  0  0  0  0  0  0  0  0  0
   26.3523  -22.0492  -15.0838 C   0  0  0  0  0  0  0  0  0  0  0  0
   25.7620  -23.1160  -14.7637 O   0  0  0  0  0  0  0  0  0  0  0  0
   31.2230  -24.0261  -21.2765 N   0  0  0  0  0  0  0  0  0  0  0  0
   26.3319  -21.0007  -14.1583 C   0  0  1  0  0  0  0  0  0  0  0  0
   25.6056  -21.0173  -12.8920 C   0  0  0  0  0  0  0  0  0  0  0  0
   26.3078  -20.0179  -11.9994 C   0  0  0  0  0  0  0  0  0  0  0  0
   27.4228  -20.5789  -11.2323 C   0  0  0  0  0  0  0  0  0  0  0  0
   28.6214  -21.0571  -11.7669 N   0  0  0  0  0  0  0  0  0  0  0  0
   29.3736  -21.4816  -10.7391 C   0  0  0  0  0  0  0  0  0  0  0  0
   28.6936  -21.2884   -9.5802 C   0  0  0  0  0  0  0  0  0  0  0  0
   28.9738  -21.5329   -8.2492 C   0  0  0  0  0  0  0  0  0  0  0  0
   28.0552  -21.2172   -7.2800 C   0  0  0  0  0  0  0  0  0  0  0  0
   26.8282  -20.6503   -7.5800 C   0  0  0  0  0  0  0  0  0  0  0  0
   26.5466  -20.4066   -8.8955 C   0  0  0  0  0  0  0  0  0  0  0  0
   27.4709  -20.7236   -9.8788 C   0  0  0  0  0  0  0  0  0  0  0  0
   24.2147  -20.4945  -13.0803 O   0  0  0  0  0  0  0  0  0  0  0  0
   24.0853  -19.4243  -13.7036 O   0  0  0  0  0  0  0  0  0  0  0  0
   22.4701  -21.0191  -19.0227 C   0  0  0  0  0  0  0  0  0  0  0  0
   22.1015  -21.1186  -17.6880 C   0  0  0  0  0  0  0  0  0  0  0  0
   21.2483  -20.1487  -17.1690 C   0  0  0  0  0  0  0  0  0  0  0  0
   20.8900  -20.2572  -15.8449 C   0  0  0  0  0  0  0  0  0  0  0  0
   21.3478  -21.2880  -15.0285 C   0  0  0  0  0  0  0  0  0  0  0  0
   20.9510  -21.3610  -13.6107 C   0  0  2  0  0  0  0  0  0  0  0  0
   21.7882  -20.5627  -12.6717 N   0  0  0  0  0  0  0  0  0  0  0  0
   23.0991  -21.1770  -12.5778 C   0  0  0  0  0  0  0  0  0  0  0  0
   21.1506  -20.4423  -11.3357 O   0  0  0  0  0  0  0  0  0  0  0  0
   19.8852  -19.8759  -11.1803 C   0  0  0  0  0  0  0  0  0  0  0  0
   22.1943  -22.2479  -15.5490 C   0  0  0  0  0  0  0  0  0  0  0  0
   22.5492  -22.1360  -16.8724 O   0  0  0  0  0  0  0  0  0  0  0  0
  2  3  2  0
  2  1  1  0
  4  2  1  0
  5  4  1  0
  6  7  1  0
  6  5  1  0
  8 10  1  0
  8  7  1  0
  8  9  1  1
 10 12  1  0
 11 10  2  0
 12 13  1  0
 13 24  1  0
 13 14  1  1
 14 15  1  0
 15 16  2  0
 17 16  1  0
 18 17  1  0
 19 18  2  0
 20 19  1  0
 21 22  1  0
 21 20  2  0
 22 23  2  0
 23 18  1  0
 23 15  1  0
 24 25  2  0
 24 33  1  0
 27 26  1  0
 27 37  2  0
 28 27  1  0
 29 28  2  0
 29 30  1  0
 30 36  2  0
 31 30  1  0
 32 31  1  6
 33 32  1  0
 34 32  1  0
 34 35  1  0
 36 37  1  0
 38 34  2  0
M  END
$$$$
