RWY.pdb
     RDKit          3D

 38 40  0  0  1  0  0  0  0  0999 V2000
   28.5770  -25.0989  -20.9947 N   0  0  0  0  0  0  0  0  0  0  0  0
   29.6111  -24.1392  -21.1317 C   0  0  0  0  0  0  0  0  0  0  0  0
   30.6255  -24.4017  -21.8732 N   0  0  0  0  0  0  0  0  0  0  0  0
   29.5625  -22.8867  -20.4689 N   0  0  0  0  0  0  0  0  0  0  0  0
   28.4629  -22.4756  -19.5953 C   0  0  0  0  0  0  0  0  0  0  0  0
   29.0421  -22.3300  -18.2114 C   0  0  0  0  0  0  0  0  0  0  0  0
   28.0582  -22.8104  -17.1830 C   0  0  0  0  0  0  0  0  0  0  0  0
   27.3684  -21.6778  -16.5261 C   0  0  2  0  0  0  0  0  0  0  0  0
   27.9007  -20.3901  -16.8325 N   0  0  0  0  0  0  0  0  0  0  0  0
   27.2058  -21.8818  -15.0472 C   0  0  0  0  0  0  0  0  0  0  0  0
   26.4813  -22.8379  -14.6598 O   0  0  0  0  0  0  0  0  0  0  0  0
   31.3939  -23.7107  -22.0036 N   0  0  0  0  0  0  0  0  0  0  0  0
   27.8005  -21.0861  -14.0626 C   0  0  1  0  0  0  0  0  0  0  0  0
   27.5931  -21.2394  -12.6257 C   0  0  0  0  0  0  0  0  0  0  0  0
   28.5915  -20.3161  -11.9629 C   0  0  0  0  0  0  0  0  0  0  0  0
   29.0009  -20.7395  -10.6214 C   0  0  0  0  0  0  0  0  0  0  0  0
   29.9700  -21.7025  -10.3305 N   0  0  0  0  0  0  0  0  0  0  0  0
   30.0479  -21.7966   -8.9936 C   0  0  0  0  0  0  0  0  0  0  0  0
   29.1654  -20.9300   -8.4341 C   0  0  0  0  0  0  0  0  0  0  0  0
   28.8258  -20.6101   -7.1332 C   0  0  0  0  0  0  0  0  0  0  0  0
   27.8657  -19.6624   -6.8825 C   0  0  0  0  0  0  0  0  0  0  0  0
   27.2032  -18.9936   -7.8978 C   0  0  0  0  0  0  0  0  0  0  0  0
   27.5358  -19.3068   -9.1863 C   0  0  0  0  0  0  0  0  0  0  0  0
   28.5050  -20.2635   -9.4454 C   0  0  0  0  0  0  0  0  0  0  0  0
   26.2398  -20.7300  -12.2356 O   0  0  0  0  0  0  0  0  0  0  0  0
   25.9032  -19.6115  -12.6673 O   0  0  0  0  0  0  0  0  0  0  0  0
   17.8567  -19.5380  -10.8067 C   0  0  0  0  0  0  0  0  0  0  0  0
   19.1327  -20.0136  -11.0767 C   0  0  0  0  0  0  0  0  0  0  0  0
   19.5828  -21.1236  -10.3672 C   0  0  0  0  0  0  0  0  0  0  0  0
   20.8491  -21.5860  -10.6430 C   0  0  0  0  0  0  0  0  0  0  0  0
   21.6739  -20.9868  -11.5913 C   0  0  0  0  0  0  0  0  0  0  0  0
   23.0300  -21.5049  -11.8476 C   0  0  2  0  0  0  0  0  0  0  0  0
   24.1100  -20.9066  -11.0137 N   0  0  0  0  0  0  0  0  0  0  0  0
   25.3815  -21.4766  -11.4178 C   0  0  0  0  0  0  0  0  0  0  0  0
   23.8613  -21.1128   -9.5641 O   0  0  0  0  0  0  0  0  0  0  0  0
   23.0785  -20.2252   -8.8254 C   0  0  0  0  0  0  0  0  0  0  0  0
   21.2219  -19.8855  -12.2924 C   0  0  0  0  0  0  0  0  0  0  0  0
   19.9560  -19.4273  -12.0143 O   0  0  0  0  0  0  0  0  0  0  0  0
  2  3  2  0
  2  1  1  0
  4  2  1  0
  5  4  1  0
  6  7  1  0
  6  5  1  0
  8 10  1  0
  8  7  1  0
  8  9  1  1
 10 12  1  0
 11 10  2  0
 12 13  1  0
 13 24  1  0
 13 14  1  1
 14 15  1  0
 15 16  2  0
 17 16  1  0
 18 17  1  0
 19 18  2  0
 20 19  1  0
 21 22  1  0
 21 20  2  0
 22 23  2  0
 23 18  1  0
 23 15  1  0
 24 25  2  0
 24 33  1  0
 27 26  1  0
 27 37  2  0
 28 27  1  0
 29 28  2  0
 29 30  1  0
 30 36  2  0
 31 30  1  0
 32 31  1  6
 33 32  1  0
 34 32  1  0
 34 35  1  0
 36 37  1  0
 38 34  2  0
M  END
$$$$
