RWY.pdb
     RDKit          3D

 38 40  0  0  1  0  0  0  0  0999 V2000
   18.0419  -12.5789  -25.3114 N   0  0  0  0  0  0  0  0  0  0  0  0
   19.0201  -11.6377  -25.7193 C   0  0  0  0  0  0  0  0  0  0  0  0
   18.6512  -10.5373  -26.2679 N   0  0  0  0  0  0  0  0  0  0  0  0
   20.4067  -11.8741  -25.5410 N   0  0  0  0  0  0  0  0  0  0  0  0
   20.9519  -13.1174  -24.9948 C   0  0  0  0  0  0  0  0  0  0  0  0
   21.6586  -12.7533  -23.7142 C   0  0  0  0  0  0  0  0  0  0  0  0
   22.0529  -13.9952  -22.9668 C   0  0  0  0  0  0  0  0  0  0  0  0
   23.5241  -14.1427  -22.9039 C   0  0  2  0  0  0  0  0  0  0  0  0
   24.2412  -13.4612  -23.9317 N   0  0  0  0  0  0  0  0  0  0  0  0
   23.9542  -15.5756  -22.7732 C   0  0  0  0  0  0  0  0  0  0  0  0
   24.0752  -16.2538  -23.8288 O   0  0  0  0  0  0  0  0  0  0  0  0
   19.3432   -9.8035  -26.5279 N   0  0  0  0  0  0  0  0  0  0  0  0
   24.2313  -16.2172  -21.5617 C   0  0  1  0  0  0  0  0  0  0  0  0
   24.6892  -17.5974  -21.4321 C   0  0  0  0  0  0  0  0  0  0  0  0
   26.1409  -17.5140  -21.0145 C   0  0  0  0  0  0  0  0  0  0  0  0
   27.0635  -17.2083  -22.1109 C   0  0  0  0  0  0  0  0  0  0  0  0
   27.2732  -15.9466  -22.6723 N   0  0  0  0  0  0  0  0  0  0  0  0
   28.1896  -16.0908  -23.6427 C   0  0  0  0  0  0  0  0  0  0  0  0
   28.5631  -17.3940  -23.7122 C   0  0  0  0  0  0  0  0  0  0  0  0
   29.4503  -18.0988  -24.5035 C   0  0  0  0  0  0  0  0  0  0  0  0
   29.6118  -19.4499  -24.3266 C   0  0  0  0  0  0  0  0  0  0  0  0
   28.9093  -20.1598  -23.3676 C   0  0  0  0  0  0  0  0  0  0  0  0
   28.0305  -19.4668  -22.5825 C   0  0  0  0  0  0  0  0  0  0  0  0
   27.8633  -18.1018  -22.7568 C   0  0  0  0  0  0  0  0  0  0  0  0
   23.9761  -18.2812  -20.3065 O   0  0  0  0  0  0  0  0  0  0  0  0
   23.7181  -17.6013  -19.2956 O   0  0  0  0  0  0  0  0  0  0  0  0
   17.9064  -16.6208  -21.0818 C   0  0  0  0  0  0  0  0  0  0  0  0
   18.8113  -17.6286  -20.7773 C   0  0  0  0  0  0  0  0  0  0  0  0
   18.7377  -18.2179  -19.5182 C   0  0  0  0  0  0  0  0  0  0  0  0
   19.6397  -19.2154  -19.2274 C   0  0  0  0  0  0  0  0  0  0  0  0
   20.6027  -19.6417  -20.1383 C   0  0  0  0  0  0  0  0  0  0  0  0
   21.5600  -20.7048  -19.7829 C   0  0  2  0  0  0  0  0  0  0  0  0
   22.8807  -20.2325  -19.2805 N   0  0  0  0  0  0  0  0  0  0  0  0
   23.6108  -19.6318  -20.3809 C   0  0  0  0  0  0  0  0  0  0  0  0
   23.6555  -21.3346  -18.6554 O   0  0  0  0  0  0  0  0  0  0  0  0
   23.1274  -22.0970  -17.6132 C   0  0  0  0  0  0  0  0  0  0  0  0
   20.6709  -19.0533  -21.3865 C   0  0  0  0  0  0  0  0  0  0  0  0
   19.7675  -18.0576  -21.6730 O   0  0  0  0  0  0  0  0  0  0  0  0
  2  3  2  0
  2  1  1  0
  4  2  1  0
  5  4  1  0
  6  7  1  0
  6  5  1  0
  8 10  1  0
  8  7  1  0
  8  9  1  6
 10 12  1  0
 11 10  2  0
 12 13  1  0
 13 24  1  0
 13 14  1  6
 14 15  1  0
 15 16  2  0
 17 16  1  0
 18 17  1  0
 19 18  2  0
 20 19  1  0
 21 22  1  0
 21 20  2  0
 22 23  2  0
 23 18  1  0
 23 15  1  0
 24 25  2  0
 24 33  1  0
 27 26  1  0
 27 37  2  0
 28 27  1  0
 29 28  2  0
 29 30  1  0
 30 36  2  0
 31 30  1  0
 32 31  1  1
 33 32  1  0
 34 32  1  0
 34 35  1  0
 36 37  1  0
 38 34  2  0
M  END
$$$$
