RWY.pdb
     RDKit          3D

 38 40  0  0  1  0  0  0  0  0999 V2000
   31.3831  -23.0648  -16.8478 N   0  0  0  0  0  0  0  0  0  0  0  0
   30.1825  -23.2596  -17.5757 C   0  0  0  0  0  0  0  0  0  0  0  0
   29.8671  -24.4381  -17.9747 N   0  0  0  0  0  0  0  0  0  0  0  0
   29.3101  -22.1846  -17.8821 N   0  0  0  0  0  0  0  0  0  0  0  0
   29.4380  -20.8478  -17.3009 C   0  0  0  0  0  0  0  0  0  0  0  0
   28.1486  -20.5686  -16.5718 C   0  0  0  0  0  0  0  0  0  0  0  0
   28.1705  -21.2091  -15.2132 C   0  0  0  0  0  0  0  0  0  0  0  0
   28.1692  -20.1926  -14.1376 C   0  0  2  0  0  0  0  0  0  0  0  0
   29.2929  -19.3137  -14.1396 N   0  0  0  0  0  0  0  0  0  0  0  0
   27.9241  -20.7893  -12.7815 C   0  0  0  0  0  0  0  0  0  0  0  0
   26.9305  -21.5527  -12.6439 O   0  0  0  0  0  0  0  0  0  0  0  0
   28.9524  -24.6268  -18.4359 N   0  0  0  0  0  0  0  0  0  0  0  0
   28.7192  -20.5595  -11.6540 C   0  0  1  0  0  0  0  0  0  0  0  0
   28.4248  -21.0472  -10.3099 C   0  0  0  0  0  0  0  0  0  0  0  0
   29.6013  -20.6341   -9.4532 C   0  0  0  0  0  0  0  0  0  0  0  0
   29.4844  -21.0242   -8.0458 C   0  0  0  0  0  0  0  0  0  0  0  0
   29.5691  -22.3279   -7.5513 N   0  0  0  0  0  0  0  0  0  0  0  0
   29.4121  -22.2588   -6.2198 C   0  0  0  0  0  0  0  0  0  0  0  0
   29.2321  -20.9624   -5.8595 C   0  0  0  0  0  0  0  0  0  0  0  0
   29.0274  -20.3195   -4.6533 C   0  0  0  0  0  0  0  0  0  0  0  0
   28.8765  -18.9563   -4.6133 C   0  0  0  0  0  0  0  0  0  0  0  0
   28.9205  -18.1732   -5.7543 C   0  0  0  0  0  0  0  0  0  0  0  0
   29.1227  -18.8048   -6.9498 C   0  0  0  0  0  0  0  0  0  0  0  0
   29.2757  -20.1818   -6.9961 C   0  0  0  0  0  0  0  0  0  0  0  0
   27.2344  -20.3353   -9.7446 O   0  0  0  0  0  0  0  0  0  0  0  0
   27.2548  -19.0903   -9.7537 O   0  0  0  0  0  0  0  0  0  0  0  0
   21.9819  -22.0224  -14.0268 C   0  0  0  0  0  0  0  0  0  0  0  0
   22.6051  -21.3764  -12.9679 C   0  0  0  0  0  0  0  0  0  0  0  0
   21.9697  -21.3841  -11.7292 C   0  0  0  0  0  0  0  0  0  0  0  0
   22.5966  -20.7404  -10.6871 C   0  0  0  0  0  0  0  0  0  0  0  0
   23.8219  -20.0959  -10.8349 C   0  0  0  0  0  0  0  0  0  0  0  0
   24.4542  -19.4059   -9.6960 C   0  0  1  0  0  0  0  0  0  0  0  0
   25.0299  -20.2968   -8.6498 N   0  0  0  0  0  0  0  0  0  0  0  0
   26.1382  -21.0359   -9.2245 C   0  0  0  0  0  0  0  0  0  0  0  0
   24.0056  -21.2115   -8.0843 O   0  0  0  0  0  0  0  0  0  0  0  0
   22.8670  -20.7233   -7.4428 C   0  0  0  0  0  0  0  0  0  0  0  0
   24.4479  -20.0916  -12.0665 C   0  0  0  0  0  0  0  0  0  0  0  0
   23.8185  -20.7363  -13.1047 O   0  0  0  0  0  0  0  0  0  0  0  0
  2  3  2  0
  2  1  1  0
  4  2  1  0
  5  4  1  0
  6  7  1  0
  6  5  1  0
  8 10  1  0
  8  7  1  0
  8  9  1  1
 10 12  1  0
 11 10  2  0
 12 13  1  0
 13 24  1  0
 13 14  1  1
 14 15  1  0
 15 16  2  0
 17 16  1  0
 18 17  1  0
 19 18  2  0
 20 19  1  0
 21 22  1  0
 21 20  2  0
 22 23  2  0
 23 18  1  0
 23 15  1  0
 24 25  2  0
 24 33  1  0
 27 26  1  0
 27 37  2  0
 28 27  1  0
 29 28  2  0
 29 30  1  0
 30 36  2  0
 31 30  1  0
 32 31  1  1
 33 32  1  0
 34 32  1  0
 34 35  1  0
 36 37  1  0
 38 34  2  0
M  END
$$$$
