RWY.pdb
     RDKit          3D

 38 40  0  0  1  0  0  0  0  0999 V2000
   27.9437  -20.3741  -22.3873 N   0  0  0  0  0  0  0  0  0  0  0  0
   26.5707  -20.6891  -22.5454 C   0  0  0  0  0  0  0  0  0  0  0  0
   26.0911  -20.8601  -23.7237 N   0  0  0  0  0  0  0  0  0  0  0  0
   25.7003  -20.8214  -21.4340 N   0  0  0  0  0  0  0  0  0  0  0  0
   26.0894  -20.5055  -20.0592 C   0  0  0  0  0  0  0  0  0  0  0  0
   26.8082  -21.7177  -19.5244 C   0  0  0  0  0  0  0  0  0  0  0  0
   26.4496  -21.9406  -18.0829 C   0  0  0  0  0  0  0  0  0  0  0  0
   27.3427  -21.1796  -17.1810 C   0  0  2  0  0  0  0  0  0  0  0  0
   28.7293  -21.2487  -17.5091 N   0  0  0  0  0  0  0  0  0  0  0  0
   27.0919  -21.4827  -15.7316 C   0  0  0  0  0  0  0  0  0  0  0  0
   26.8080  -22.6702  -15.4179 O   0  0  0  0  0  0  0  0  0  0  0  0
   25.0853  -21.0875  -23.8711 N   0  0  0  0  0  0  0  0  0  0  0  0
   27.1492  -20.5412  -14.6989 C   0  0  1  0  0  0  0  0  0  0  0  0
   26.8816  -20.8258  -13.2923 C   0  0  0  0  0  0  0  0  0  0  0  0
   27.7330  -19.8546  -12.5046 C   0  0  0  0  0  0  0  0  0  0  0  0
   28.8326  -20.4825  -11.7676 C   0  0  0  0  0  0  0  0  0  0  0  0
   29.8945  -21.1911  -12.3346 N   0  0  0  0  0  0  0  0  0  0  0  0
   30.6814  -21.6012  -11.3273 C   0  0  0  0  0  0  0  0  0  0  0  0
   30.1547  -21.1776  -10.1501 C   0  0  0  0  0  0  0  0  0  0  0  0
   30.5317  -21.3062   -8.8267 C   0  0  0  0  0  0  0  0  0  0  0  0
   29.7674  -20.7488   -7.8327 C   0  0  0  0  0  0  0  0  0  0  0  0
   28.6054  -20.0448   -8.0996 C   0  0  0  0  0  0  0  0  0  0  0  0
   28.2284  -19.9150   -9.4073 C   0  0  0  0  0  0  0  0  0  0  0  0
   28.9968  -20.4762  -10.4155 C   0  0  0  0  0  0  0  0  0  0  0  0
   25.4605  -20.4955  -12.9534 O   0  0  0  0  0  0  0  0  0  0  0  0
   25.0169  -19.4019  -13.3508 O   0  0  0  0  0  0  0  0  0  0  0  0
   25.6870  -20.7768   -5.7415 C   0  0  0  0  0  0  0  0  0  0  0  0
   25.1816  -20.4993   -7.0043 C   0  0  0  0  0  0  0  0  0  0  0  0
   24.1695  -21.3166   -7.5000 C   0  0  0  0  0  0  0  0  0  0  0  0
   23.6765  -21.0323   -8.7528 C   0  0  0  0  0  0  0  0  0  0  0  0
   24.1523  -19.9729   -9.5209 C   0  0  0  0  0  0  0  0  0  0  0  0
   23.6064  -19.7099  -10.8647 C   0  0  2  0  0  0  0  0  0  0  0  0
   23.3789  -20.9165  -11.7086 N   0  0  0  0  0  0  0  0  0  0  0  0
   24.6566  -21.3769  -12.2186 C   0  0  0  0  0  0  0  0  0  0  0  0
   22.4236  -20.6417  -12.8120 O   0  0  0  0  0  0  0  0  0  0  0  0
   22.7671  -20.8640  -14.1458 C   0  0  0  0  0  0  0  0  0  0  0  0
   25.1567  -19.1650   -9.0238 C   0  0  0  0  0  0  0  0  0  0  0  0
   25.6459  -19.4522   -7.7716 O   0  0  0  0  0  0  0  0  0  0  0  0
  2  3  2  0
  2  1  1  0
  4  2  1  0
  5  4  1  0
  6  7  1  0
  6  5  1  0
  8 10  1  0
  8  7  1  0
  8  9  1  6
 10 12  1  0
 11 10  2  0
 12 13  1  0
 13 24  1  0
 13 14  1  1
 14 15  1  0
 15 16  2  0
 17 16  1  0
 18 17  1  0
 19 18  2  0
 20 19  1  0
 21 22  1  0
 21 20  2  0
 22 23  2  0
 23 18  1  0
 23 15  1  0
 24 25  2  0
 24 33  1  0
 27 26  1  0
 27 37  2  0
 28 27  1  0
 29 28  2  0
 29 30  1  0
 30 36  2  0
 31 30  1  0
 32 31  1  1
 33 32  1  0
 34 32  1  0
 34 35  1  0
 36 37  1  0
 38 34  2  0
M  END
$$$$
