TFL.pdb
     RDKit          3D

 27 27  0  0  1  0  0  0  0  0999 V2000
   33.8225  -24.9300  -19.3376 C   0  0  0  0  0  0  0  0  0  0  0  0
   34.7785  -25.6613  -18.4206 C   0  0  1  0  0  0  0  0  0  0  0  0
   36.0601  -25.6132  -18.9401 O   0  0  0  0  0  0  0  0  0  0  0  0
   34.7706  -24.9548  -17.0597 C   0  0  2  0  0  0  0  0  0  0  0  0
   35.6424  -25.7082  -16.1837 N   0  0  0  0  0  0  0  0  0  0  0  0
   33.4045  -24.9854  -16.5111 C   0  0  0  0  0  0  0  0  0  0  0  0
   32.9819  -26.0224  -15.9605 O   0  0  0  0  0  0  0  0  0  0  0  0
   32.5125  -23.8751  -16.5718 N   0  0  0  0  0  0  0  0  0  0  0  0
   31.2233  -23.8424  -15.9412 C   0  0  1  0  0  0  0  0  0  0  0  0
   30.9179  -22.4590  -15.4092 C   0  0  0  0  0  0  0  0  0  0  0  0
   31.6363  -22.1636  -14.1518 C   0  0  0  0  0  0  0  0  0  0  0  0
   31.3159  -22.8373  -12.9900 C   0  0  0  0  0  0  0  0  0  0  0  0
   31.9759  -22.5777  -11.7973 C   0  0  0  0  0  0  0  0  0  0  0  0
   32.9799  -21.6348  -11.7246 C   0  0  0  0  0  0  0  0  0  0  0  0
   33.2985  -20.9629  -12.8862 C   0  0  0  0  0  0  0  0  0  0  0  0
   32.6438  -21.2192  -14.0732 C   0  0  0  0  0  0  0  0  0  0  0  0
   30.1445  -24.3663  -16.8084 C   0  0  0  0  0  0  0  0  0  0  0  0
   30.0356  -23.8973  -17.9703 O   0  0  0  0  0  0  0  0  0  0  0  0
   28.6783  -29.7853  -17.1822 C   0  0  0  0  0  0  0  0  0  0  0  0
   28.9442  -28.3511  -17.4813 C   0  0  1  0  0  0  0  0  0  0  0  0
   29.2119  -28.1334  -18.9738 C   0  0  0  0  0  0  0  0  0  0  0  0
   28.0271  -27.3405  -16.9323 C   0  0  0  0  0  0  0  0  0  0  0  0
   28.1721  -25.9095  -17.2509 C   0  0  2  0  0  0  0  0  0  0  0  0
   29.2540  -25.3647  -16.3592 N   0  0  0  0  0  0  0  0  0  0  0  0
   27.0450  -25.0085  -17.1075 C   0  0  0  0  0  0  0  0  0  0  0  0
   26.9097  -24.3036  -16.0463 O   0  0  0  0  0  0  0  0  0  0  0  0
   26.0547  -24.8138  -18.0407 O   0  0  0  0  0  0  0  0  0  0  0  0
  2  4  1  0
  2  1  1  6
  2  3  1  0
  4  5  1  1
  6  7  2  0
  6  4  1  0
  8  6  1  0
  9  8  1  0
 10 11  1  0
  9 10  1  6
 11 12  2  0
 11 16  1  0
 12 13  1  0
 13 14  2  0
 15 14  1  0
 16 15  2  0
 17 24  1  0
 17  9  1  0
 18 17  2  0
 20 22  1  0
 20 19  1  6
 21 20  1  0
 23 24  1  0
 23 22  1  1
 25 23  1  0
 26 25  2  0
 27 25  1  0
M  END
$$$$
