TFL.pdb
     RDKit          3D

 27 27  0  0  1  0  0  0  0  0999 V2000
   21.5233  -18.3726  -18.9878 C   0  0  0  0  0  0  0  0  0  0  0  0
   22.7156  -18.4207  -19.9183 C   0  0  1  0  0  0  0  0  0  0  0  0
   22.4185  -17.7645  -21.0998 O   0  0  0  0  0  0  0  0  0  0  0  0
   23.8849  -17.7019  -19.2349 C   0  0  2  0  0  0  0  0  0  0  0  0
   25.0168  -17.7800  -20.1337 N   0  0  0  0  0  0  0  0  0  0  0  0
   24.2196  -18.4088  -17.9873 C   0  0  0  0  0  0  0  0  0  0  0  0
   24.8752  -19.4696  -18.0339 O   0  0  0  0  0  0  0  0  0  0  0  0
   23.8310  -17.9442  -16.6968 N   0  0  0  0  0  0  0  0  0  0  0  0
   24.2129  -18.5747  -15.4651 C   0  0  1  0  0  0  0  0  0  0  0  0
   25.0509  -17.6416  -14.6184 C   0  0  0  0  0  0  0  0  0  0  0  0
   26.3909  -17.4027  -15.1943 C   0  0  0  0  0  0  0  0  0  0  0  0
   26.6912  -16.1911  -15.7843 C   0  0  0  0  0  0  0  0  0  0  0  0
   27.9419  -15.9428  -16.3318 C   0  0  0  0  0  0  0  0  0  0  0  0
   28.9365  -16.8981  -16.3086 C   0  0  0  0  0  0  0  0  0  0  0  0
   28.6346  -18.1078  -15.7188 C   0  0  0  0  0  0  0  0  0  0  0  0
   27.3920  -18.3570  -15.1737 C   0  0  0  0  0  0  0  0  0  0  0  0
   23.0608  -19.1323  -14.7222 C   0  0  0  0  0  0  0  0  0  0  0  0
   22.1241  -18.3543  -14.4072 O   0  0  0  0  0  0  0  0  0  0  0  0
   22.1139  -24.7804  -14.6276 C   0  0  0  0  0  0  0  0  0  0  0  0
   21.8954  -23.3106  -14.7222 C   0  0  1  0  0  0  0  0  0  0  0  0
   20.6110  -22.9864  -15.4916 C   0  0  0  0  0  0  0  0  0  0  0  0
   22.0237  -22.5043  -13.4986 C   0  0  0  0  0  0  0  0  0  0  0  0
   21.8819  -21.0381  -13.5197 C   0  0  2  0  0  0  0  0  0  0  0  0
   22.9993  -20.4973  -14.3691 N   0  0  0  0  0  0  0  0  0  0  0  0
   21.9170  -20.2803  -12.2838 C   0  0  0  0  0  0  0  0  0  0  0  0
   20.8594  -20.1514  -11.5723 O   0  0  0  0  0  0  0  0  0  0  0  0
   23.0246  -19.6558  -11.7614 O   0  0  0  0  0  0  0  0  0  0  0  0
  2  4  1  0
  2  1  1  1
  2  3  1  0
  4  5  1  6
  6  7  2  0
  6  4  1  0
  8  6  1  0
  9  8  1  0
 10 11  1  0
  9 10  1  1
 11 12  2  0
 11 16  1  0
 12 13  1  0
 13 14  2  0
 15 14  1  0
 16 15  2  0
 17 24  1  0
 17  9  1  0
 18 17  2  0
 20 22  1  0
 20 19  1  1
 21 20  1  0
 23 24  1  0
 23 22  1  1
 25 23  1  0
 26 25  2  0
 27 25  1  0
M  END
$$$$
