TFL.pdb
     RDKit          3D

 27 27  0  0  1  0  0  0  0  0999 V2000
   16.5789  -23.4198  -13.4646 C   0  0  0  0  0  0  0  0  0  0  0  0
   17.5318  -24.4116  -14.0956 C   0  0  1  0  0  0  0  0  0  0  0  0
   17.9165  -23.9651  -15.3475 O   0  0  0  0  0  0  0  0  0  0  0  0
   18.7752  -24.5137  -13.2042 C   0  0  2  0  0  0  0  0  0  0  0  0
   19.6805  -25.4463  -13.8412 N   0  0  0  0  0  0  0  0  0  0  0  0
   18.3821  -25.0545  -11.8922 C   0  0  0  0  0  0  0  0  0  0  0  0
   17.9828  -26.2334  -11.8033 O   0  0  0  0  0  0  0  0  0  0  0  0
   18.4308  -24.2949  -10.6869 N   0  0  0  0  0  0  0  0  0  0  0  0
   18.0510  -24.8026   -9.3991 C   0  0  1  0  0  0  0  0  0  0  0  0
   18.6090  -23.9357   -8.2913 C   0  0  0  0  0  0  0  0  0  0  0  0
   18.2040  -24.4012   -6.9483 C   0  0  0  0  0  0  0  0  0  0  0  0
   18.9304  -25.3806   -6.3006 C   0  0  0  0  0  0  0  0  0  0  0  0
   18.5702  -25.8341   -5.0396 C   0  0  0  0  0  0  0  0  0  0  0  0
   17.4705  -25.3239   -4.3818 C   0  0  0  0  0  0  0  0  0  0  0  0
   16.7462  -24.3456   -5.0305 C   0  0  0  0  0  0  0  0  0  0  0  0
   17.1023  -23.8931   -6.2842 C   0  0  0  0  0  0  0  0  0  0  0  0
   16.5920  -25.0151   -9.2712 C   0  0  0  0  0  0  0  0  0  0  0  0
   15.8229  -24.0836   -9.6218 O   0  0  0  0  0  0  0  0  0  0  0  0
   12.2688  -26.3315  -10.8533 C   0  0  0  0  0  0  0  0  0  0  0  0
   12.9239  -27.5709  -10.3517 C   0  0  1  0  0  0  0  0  0  0  0  0
   12.8369  -28.7029  -11.3803 C   0  0  0  0  0  0  0  0  0  0  0  0
   14.2677  -27.4626   -9.7633 C   0  0  0  0  0  0  0  0  0  0  0  0
   14.5785  -26.4683   -8.7217 C   0  0  2  0  0  0  0  0  0  0  0  0
   16.0618  -26.2237   -8.7714 N   0  0  0  0  0  0  0  0  0  0  0  0
   14.2649  -26.7396   -7.3322 C   0  0  0  0  0  0  0  0  0  0  0  0
   15.0467  -27.4634   -6.6207 O   0  0  0  0  0  0  0  0  0  0  0  0
   13.1618  -26.2737   -6.6570 O   0  0  0  0  0  0  0  0  0  0  0  0
  2  4  1  0
  2  1  1  1
  2  3  1  0
  4  5  1  6
  6  7  2  0
  6  4  1  0
  8  6  1  0
  9  8  1  0
 10 11  1  0
  9 10  1  1
 11 12  2  0
 11 16  1  0
 12 13  1  0
 13 14  2  0
 15 14  1  0
 16 15  2  0
 17 24  1  0
 17  9  1  0
 18 17  2  0
 20 22  1  0
 20 19  1  6
 21 20  1  0
 23 24  1  0
 23 22  1  6
 25 23  1  0
 26 25  2  0
 27 25  1  0
M  END
$$$$
