TFL.pdb
     RDKit          3D

 27 27  0  0  1  0  0  0  0  0999 V2000
   28.5276  -20.7944  -19.1109 C   0  0  0  0  0  0  0  0  0  0  0  0
   27.5847  -20.9857  -17.9430 C   0  0  1  0  0  0  0  0  0  0  0  0
   26.3730  -21.4813  -18.3913 O   0  0  0  0  0  0  0  0  0  0  0  0
   28.2111  -22.0057  -16.9847 C   0  0  2  0  0  0  0  0  0  0  0  0
   28.2063  -23.2850  -17.6618 N   0  0  0  0  0  0  0  0  0  0  0  0
   27.3756  -22.1049  -15.7763 C   0  0  0  0  0  0  0  0  0  0  0  0
   26.5429  -23.0287  -15.6739 O   0  0  0  0  0  0  0  0  0  0  0  0
   27.4617  -21.1875  -14.6886 N   0  0  0  0  0  0  0  0  0  0  0  0
   26.6161  -21.2309  -13.5295 C   0  0  1  0  0  0  0  0  0  0  0  0
   27.2598  -20.5106  -12.3647 C   0  0  0  0  0  0  0  0  0  0  0  0
   26.4136  -20.5223  -11.1530 C   0  0  0  0  0  0  0  0  0  0  0  0
   26.6514  -21.4346  -10.1443 C   0  0  0  0  0  0  0  0  0  0  0  0
   25.8710  -21.4654   -8.9974 C   0  0  0  0  0  0  0  0  0  0  0  0
   24.8248  -20.5844   -8.8189 C   0  0  0  0  0  0  0  0  0  0  0  0
   24.5888  -19.6738   -9.8276 C   0  0  0  0  0  0  0  0  0  0  0  0
   25.3633  -19.6413  -10.9688 C   0  0  0  0  0  0  0  0  0  0  0  0
   25.2419  -20.7533  -13.8008 C   0  0  0  0  0  0  0  0  0  0  0  0
   25.1014  -19.6493  -14.3869 O   0  0  0  0  0  0  0  0  0  0  0  0
   20.5695  -20.4620  -16.0302 C   0  0  0  0  0  0  0  0  0  0  0  0
   20.9096  -21.7918  -15.4531 C   0  0  1  0  0  0  0  0  0  0  0  0
   20.5793  -22.9245  -16.4301 C   0  0  0  0  0  0  0  0  0  0  0  0
   22.2315  -21.9671  -14.8320 C   0  0  0  0  0  0  0  0  0  0  0  0
   22.7174  -21.0604  -13.7775 C   0  0  2  0  0  0  0  0  0  0  0  0
   24.1094  -21.5038  -13.4190 N   0  0  0  0  0  0  0  0  0  0  0  0
   21.9999  -20.9440  -12.5227 C   0  0  0  0  0  0  0  0  0  0  0  0
   22.1026  -21.8573  -11.6301 O   0  0  0  0  0  0  0  0  0  0  0  0
   21.1810  -19.8993  -12.1652 O   0  0  0  0  0  0  0  0  0  0  0  0
  2  4  1  0
  2  1  1  6
  2  3  1  0
  4  5  1  6
  6  7  2  0
  6  4  1  0
  8  6  1  0
  9  8  1  0
 10 11  1  0
  9 10  1  1
 11 12  2  0
 11 16  1  0
 12 13  1  0
 13 14  2  0
 15 14  1  0
 16 15  2  0
 17 24  1  0
 17  9  1  0
 18 17  2  0
 20 22  1  0
 20 19  1  6
 21 20  1  0
 23 24  1  0
 23 22  1  6
 25 23  1  0
 26 25  2  0
 27 25  1  0
M  END
$$$$
