TFL.pdb
     RDKit          3D

 27 27  0  0  1  0  0  0  0  0999 V2000
   28.3593  -22.6546  -19.2277 C   0  0  0  0  0  0  0  0  0  0  0  0
   27.6266  -22.0671  -18.0413 C   0  0  1  0  0  0  0  0  0  0  0  0
   27.6849  -22.9418  -16.9706 O   0  0  0  0  0  0  0  0  0  0  0  0
   28.3235  -20.7590  -17.6487 C   0  0  2  0  0  0  0  0  0  0  0  0
   29.6862  -21.0927  -17.2924 N   0  0  0  0  0  0  0  0  0  0  0  0
   27.6496  -20.1915  -16.4688 C   0  0  0  0  0  0  0  0  0  0  0  0
   28.3229  -19.8575  -15.4726 O   0  0  0  0  0  0  0  0  0  0  0  0
   26.2397  -19.9953  -16.3926 N   0  0  0  0  0  0  0  0  0  0  0  0
   25.5839  -19.2623  -15.3470 C   0  0  1  0  0  0  0  0  0  0  0  0
   24.8594  -18.0569  -15.9057 C   0  0  0  0  0  0  0  0  0  0  0  0
   25.7666  -16.9189  -16.1632 C   0  0  0  0  0  0  0  0  0  0  0  0
   26.1566  -16.6149  -17.4523 C   0  0  0  0  0  0  0  0  0  0  0  0
   27.0074  -15.5517  -17.7194 C   0  0  0  0  0  0  0  0  0  0  0  0
   27.4983  -14.7549  -16.7062 C   0  0  0  0  0  0  0  0  0  0  0  0
   27.1076  -15.0602  -15.4191 C   0  0  0  0  0  0  0  0  0  0  0  0
   26.2618  -16.1167  -15.1510 C   0  0  0  0  0  0  0  0  0  0  0  0
   24.7075  -20.1120  -14.5103 C   0  0  0  0  0  0  0  0  0  0  0  0
   23.9934  -20.9744  -15.0832 O   0  0  0  0  0  0  0  0  0  0  0  0
   26.1588  -20.8372   -9.1480 C   0  0  0  0  0  0  0  0  0  0  0  0
   25.7170  -20.9854  -10.5622 C   0  0  1  0  0  0  0  0  0  0  0  0
   26.2504  -22.2818  -11.1799 C   0  0  0  0  0  0  0  0  0  0  0  0
   24.2968  -20.7678  -10.8776 C   0  0  0  0  0  0  0  0  0  0  0  0
   23.7887  -20.8534  -12.2578 C   0  0  2  0  0  0  0  0  0  0  0  0
   24.6625  -19.9712  -13.1068 N   0  0  0  0  0  0  0  0  0  0  0  0
   22.4226  -20.4732  -12.5611 C   0  0  0  0  0  0  0  0  0  0  0  0
   21.4456  -21.2117  -12.1850 O   0  0  0  0  0  0  0  0  0  0  0  0
   22.0412  -19.3408  -13.2406 O   0  0  0  0  0  0  0  0  0  0  0  0
  2  4  1  0
  2  1  1  6
  2  3  1  0
  4  5  1  1
  6  7  2  0
  6  4  1  0
  8  6  1  0
  9  8  1  0
 10 11  1  0
  9 10  1  6
 11 12  2  0
 11 16  1  0
 12 13  1  0
 13 14  2  0
 15 14  1  0
 16 15  2  0
 17 24  1  0
 17  9  1  0
 18 17  2  0
 20 22  1  0
 20 19  1  1
 21 20  1  0
 23 24  1  0
 23 22  1  1
 25 23  1  0
 26 25  2  0
 27 25  1  0
M  END
$$$$
