TFL.pdb
     RDKit          3D

 27 27  0  0  1  0  0  0  0  0999 V2000
   26.0997  -24.1709  -16.5767 C   0  0  0  0  0  0  0  0  0  0  0  0
   27.2039  -23.3940  -17.2599 C   0  0  1  0  0  0  0  0  0  0  0  0
   27.8813  -24.2153  -18.1437 O   0  0  0  0  0  0  0  0  0  0  0  0
   26.5634  -22.2441  -18.0465 C   0  0  2  0  0  0  0  0  0  0  0  0
   27.6358  -21.5301  -18.7062 N   0  0  0  0  0  0  0  0  0  0  0  0
   25.8948  -21.3316  -17.1038 C   0  0  0  0  0  0  0  0  0  0  0  0
   26.5011  -20.3266  -16.6802 O   0  0  0  0  0  0  0  0  0  0  0  0
   24.5640  -21.5308  -16.6334 N   0  0  0  0  0  0  0  0  0  0  0  0
   23.8739  -20.6235  -15.7610 C   0  0  1  0  0  0  0  0  0  0  0  0
   22.5852  -20.1431  -16.3922 C   0  0  0  0  0  0  0  0  0  0  0  0
   22.8156  -19.1772  -17.4870 C   0  0  0  0  0  0  0  0  0  0  0  0
   23.0345  -17.8432  -17.2063 C   0  0  0  0  0  0  0  0  0  0  0  0
   23.2532  -16.9174  -18.2166 C   0  0  0  0  0  0  0  0  0  0  0  0
   23.2607  -17.2935  -19.5436 C   0  0  0  0  0  0  0  0  0  0  0  0
   23.0419  -18.6265  -19.8219 C   0  0  0  0  0  0  0  0  0  0  0  0
   22.8243  -19.5488  -18.8193 C   0  0  0  0  0  0  0  0  0  0  0  0
   23.6679  -21.1747  -14.4030 C   0  0  0  0  0  0  0  0  0  0  0  0
   23.0059  -22.2378  -14.2874 O   0  0  0  0  0  0  0  0  0  0  0  0
   26.2610  -20.3530   -8.7978 C   0  0  0  0  0  0  0  0  0  0  0  0
   25.1409  -20.9229   -9.5963 C   0  0  1  0  0  0  0  0  0  0  0  0
   23.7992  -20.7487   -8.8779 C   0  0  0  0  0  0  0  0  0  0  0  0
   25.0517  -20.5757  -11.0230 C   0  0  0  0  0  0  0  0  0  0  0  0
   23.9706  -21.0936  -11.8792 C   0  0  2  0  0  0  0  0  0  0  0  0
   24.1933  -20.5371  -13.2588 N   0  0  0  0  0  0  0  0  0  0  0  0
   22.5839  -20.8181  -11.5565 C   0  0  0  0  0  0  0  0  0  0  0  0
   21.8337  -21.7408  -11.0800 O   0  0  0  0  0  0  0  0  0  0  0  0
   21.9543  -19.6057  -11.7094 O   0  0  0  0  0  0  0  0  0  0  0  0
  2  4  1  0
  2  1  1  6
  2  3  1  0
  4  5  1  1
  6  7  2  0
  6  4  1  0
  8  6  1  0
  9  8  1  0
 10 11  1  0
  9 10  1  6
 11 12  2  0
 11 16  1  0
 12 13  1  0
 13 14  2  0
 15 14  1  0
 16 15  2  0
 17 24  1  0
 17  9  1  0
 18 17  2  0
 20 22  1  0
 20 19  1  1
 21 20  1  0
 23 24  1  0
 23 22  1  1
 25 23  1  0
 26 25  2  0
 27 25  1  0
M  END
$$$$
