TFL.pdb
     RDKit          3D

 27 27  0  0  1  0  0  0  0  0999 V2000
   21.3340  -22.1115  -21.9000 C   0  0  0  0  0  0  0  0  0  0  0  0
   22.2082  -21.7447  -20.7207 C   0  0  1  0  0  0  0  0  0  0  0  0
   22.6699  -22.8925  -20.1008 O   0  0  0  0  0  0  0  0  0  0  0  0
   23.4098  -20.9495  -21.2451 C   0  0  2  0  0  0  0  0  0  0  0  0
   24.2091  -21.8589  -22.0383 N   0  0  0  0  0  0  0  0  0  0  0  0
   24.2132  -20.4844  -20.1021 C   0  0  0  0  0  0  0  0  0  0  0  0
   25.3611  -20.9412  -19.9260 O   0  0  0  0  0  0  0  0  0  0  0  0
   23.7488  -19.5200  -19.1607 N   0  0  0  0  0  0  0  0  0  0  0  0
   24.5166  -19.0521  -18.0417 C   0  0  1  0  0  0  0  0  0  0  0  0
   24.5280  -17.5398  -17.9897 C   0  0  0  0  0  0  0  0  0  0  0  0
   25.3535  -17.0166  -16.8809 C   0  0  0  0  0  0  0  0  0  0  0  0
   24.7551  -16.4743  -15.7610 C   0  0  0  0  0  0  0  0  0  0  0  0
   25.5084  -15.9768  -14.7071 C   0  0  0  0  0  0  0  0  0  0  0  0
   26.8871  -16.0042  -14.7364 C   0  0  0  0  0  0  0  0  0  0  0  0
   27.4829  -16.5464  -15.8559 C   0  0  0  0  0  0  0  0  0  0  0  0
   26.7362  -17.0416  -16.9050 C   0  0  0  0  0  0  0  0  0  0  0  0
   24.0951  -19.6594  -16.7596 C   0  0  0  0  0  0  0  0  0  0  0  0
   22.8640  -19.7304  -16.5122 O   0  0  0  0  0  0  0  0  0  0  0  0
   25.9503  -20.2118  -11.1208 C   0  0  0  0  0  0  0  0  0  0  0  0
   25.8373  -21.1662  -12.2580 C   0  0  1  0  0  0  0  0  0  0  0  0
   24.6916  -22.1596  -12.0402 C   0  0  0  0  0  0  0  0  0  0  0  0
   25.8474  -20.6275  -13.6267 C   0  0  0  0  0  0  0  0  0  0  0  0
   24.6240  -20.5720  -14.4455 C   0  0  2  0  0  0  0  0  0  0  0  0
   25.0360  -20.1502  -15.8293 N   0  0  0  0  0  0  0  0  0  0  0  0
   23.5299  -19.6972  -14.0705 C   0  0  0  0  0  0  0  0  0  0  0  0
   23.5131  -18.4768  -14.4603 O   0  0  0  0  0  0  0  0  0  0  0  0
   22.4463  -20.0569  -13.3050 O   0  0  0  0  0  0  0  0  0  0  0  0
  2  4  1  0
  2  1  1  6
  2  3  1  0
  4  5  1  6
  6  7  2  0
  6  4  1  0
  8  6  1  0
  9  8  1  0
 10 11  1  0
  9 10  1  1
 11 12  2  0
 11 16  1  0
 12 13  1  0
 13 14  2  0
 15 14  1  0
 16 15  2  0
 17 24  1  0
 17  9  1  0
 18 17  2  0
 20 22  1  0
 20 19  1  1
 21 20  1  0
 23 24  1  0
 23 22  1  1
 25 23  1  0
 26 25  2  0
 27 25  1  0
M  END
$$$$
