TFL.pdb
     RDKit          3D

 27 27  0  0  1  0  0  0  0  0999 V2000
   25.3151  -18.3119  -13.7498 C   0  0  0  0  0  0  0  0  0  0  0  0
   25.9589  -19.1631  -12.6772 C   0  0  1  0  0  0  0  0  0  0  0  0
   24.9824  -19.7589  -11.8986 O   0  0  0  0  0  0  0  0  0  0  0  0
   26.7791  -20.2606  -13.3658 C   0  0  2  0  0  0  0  0  0  0  0  0
   25.8436  -21.1174  -14.0628 N   0  0  0  0  0  0  0  0  0  0  0  0
   27.4761  -21.0540  -12.3397 C   0  0  0  0  0  0  0  0  0  0  0  0
   26.9996  -22.1478  -11.9738 O   0  0  0  0  0  0  0  0  0  0  0  0
   28.6925  -20.6391  -11.7229 N   0  0  0  0  0  0  0  0  0  0  0  0
   29.3897  -21.3996  -10.7249 C   0  0  1  0  0  0  0  0  0  0  0  0
   30.7943  -20.8719  -10.5281 C   0  0  0  0  0  0  0  0  0  0  0  0
   31.5112  -21.5614   -9.4348 C   0  0  0  0  0  0  0  0  0  0  0  0
   32.2591  -22.6924   -9.6950 C   0  0  0  0  0  0  0  0  0  0  0  0
   32.9410  -23.3573   -8.6857 C   0  0  0  0  0  0  0  0  0  0  0  0
   32.8986  -22.9141   -7.3802 C   0  0  0  0  0  0  0  0  0  0  0  0
   32.1509  -21.7841   -7.1224 C   0  0  0  0  0  0  0  0  0  0  0  0
   31.4722  -21.1214   -8.1241 C   0  0  0  0  0  0  0  0  0  0  0  0
   28.6408  -21.5040   -9.4528 C   0  0  0  0  0  0  0  0  0  0  0  0
   28.9292  -22.4445   -8.6690 O   0  0  0  0  0  0  0  0  0  0  0  0
   28.7995  -18.1501   -5.3739 C   0  0  0  0  0  0  0  0  0  0  0  0
   28.4317  -19.4273   -6.0452 C   0  0  1  0  0  0  0  0  0  0  0  0
   28.2521  -20.5595   -5.0290 C   0  0  0  0  0  0  0  0  0  0  0  0
   27.3523  -19.4066   -7.0443 C   0  0  0  0  0  0  0  0  0  0  0  0
   26.9482  -20.6221   -7.7720 C   0  0  2  0  0  0  0  0  0  0  0  0
   27.6279  -20.5818   -9.1132 N   0  0  0  0  0  0  0  0  0  0  0  0
   25.5475  -20.8835   -8.0419 C   0  0  0  0  0  0  0  0  0  0  0  0
   24.7590  -21.2324   -7.0943 O   0  0  0  0  0  0  0  0  0  0  0  0
   24.9396  -20.7863   -9.2709 O   0  0  0  0  0  0  0  0  0  0  0  0
  2  4  1  0
  2  1  1  6
  2  3  1  0
  4  5  1  1
  6  7  2  0
  6  4  1  0
  8  6  1  0
  9  8  1  0
 10 11  1  0
  9 10  1  1
 11 12  2  0
 11 16  1  0
 12 13  1  0
 13 14  2  0
 15 14  1  0
 16 15  2  0
 17 24  1  0
 17  9  1  0
 18 17  2  0
 20 22  1  0
 20 19  1  1
 21 20  1  0
 23 24  1  0
 23 22  1  6
 25 23  1  0
 26 25  2  0
 27 25  1  0
M  END
$$$$
