TFL.pdb
     RDKit          3D

 27 27  0  0  1  0  0  0  0  0999 V2000
   21.9170   -7.9349  -21.2452 C   0  0  0  0  0  0  0  0  0  0  0  0
   21.9542   -9.3873  -20.8224 C   0  0  1  0  0  0  0  0  0  0  0  0
   22.3167  -10.1818  -21.8958 O   0  0  0  0  0  0  0  0  0  0  0  0
   23.0082   -9.5374  -19.7189 C   0  0  2  0  0  0  0  0  0  0  0  0
   23.0280  -10.9331  -19.3358 N   0  0  0  0  0  0  0  0  0  0  0  0
   22.6028   -8.7312  -18.5553 C   0  0  0  0  0  0  0  0  0  0  0  0
   21.6663   -9.1211  -17.8285 O   0  0  0  0  0  0  0  0  0  0  0  0
   23.2302   -7.5018  -18.1989 N   0  0  0  0  0  0  0  0  0  0  0  0
   22.9119   -6.7473  -17.0200 C   0  0  1  0  0  0  0  0  0  0  0  0
   24.1576   -6.4612  -16.2098 C   0  0  0  0  0  0  0  0  0  0  0  0
   24.8373   -7.6943  -15.7604 C   0  0  0  0  0  0  0  0  0  0  0  0
   24.2938   -8.4623  -14.7499 C   0  0  0  0  0  0  0  0  0  0  0  0
   24.9130   -9.6239  -14.3106 C   0  0  0  0  0  0  0  0  0  0  0  0
   26.0982  -10.0582  -14.8667 C   0  0  0  0  0  0  0  0  0  0  0  0
   26.6395   -9.2896  -15.8759 C   0  0  0  0  0  0  0  0  0  0  0  0
   26.0258   -8.1345  -16.3144 C   0  0  0  0  0  0  0  0  0  0  0  0
   22.1332   -5.5231  -17.3123 C   0  0  0  0  0  0  0  0  0  0  0  0
   22.6810   -4.6192  -17.9940 O   0  0  0  0  0  0  0  0  0  0  0  0
   17.0753   -4.0398  -19.6997 C   0  0  0  0  0  0  0  0  0  0  0  0
   18.2005   -3.5485  -18.8572 C   0  0  1  0  0  0  0  0  0  0  0  0
   17.8313   -2.2474  -18.1378 C   0  0  0  0  0  0  0  0  0  0  0  0
   18.8718   -4.5027  -17.9613 C   0  0  0  0  0  0  0  0  0  0  0  0
   20.0271   -4.1085  -17.1367 C   0  0  2  0  0  0  0  0  0  0  0  0
   20.8113   -5.3589  -16.8465 N   0  0  0  0  0  0  0  0  0  0  0  0
   19.8262   -3.4570  -15.8568 C   0  0  0  0  0  0  0  0  0  0  0  0
   19.6532   -2.1891  -15.7951 O   0  0  0  0  0  0  0  0  0  0  0  0
   19.7937   -4.0881  -14.6361 O   0  0  0  0  0  0  0  0  0  0  0  0
  2  4  1  0
  2  1  1  6
  2  3  1  0
  4  5  1  1
  6  7  2  0
  6  4  1  0
  8  6  1  0
  9  8  1  0
 10 11  1  0
  9 10  1  6
 11 12  2  0
 11 16  1  0
 12 13  1  0
 13 14  2  0
 15 14  1  0
 16 15  2  0
 17 24  1  0
 17  9  1  0
 18 17  2  0
 20 22  1  0
 20 19  1  1
 21 20  1  0
 23 24  1  0
 23 22  1  1
 25 23  1  0
 26 25  2  0
 27 25  1  0
M  END
$$$$
