TFL.pdb
     RDKit          3D

 27 27  0  0  1  0  0  0  0  0999 V2000
   24.4265  -28.3318  -17.3504 C   0  0  0  0  0  0  0  0  0  0  0  0
   25.5537  -27.6185  -16.6359 C   0  0  1  0  0  0  0  0  0  0  0  0
   26.7034  -28.3871  -16.6836 O   0  0  0  0  0  0  0  0  0  0  0  0
   25.8158  -26.2927  -17.3602 C   0  0  2  0  0  0  0  0  0  0  0  0
   26.8716  -25.6146  -16.6386 N   0  0  0  0  0  0  0  0  0  0  0  0
   24.5976  -25.4672  -17.3059 C   0  0  0  0  0  0  0  0  0  0  0  0
   24.3595  -24.7815  -16.2908 O   0  0  0  0  0  0  0  0  0  0  0  0
   23.6496  -25.4015  -18.3685 N   0  0  0  0  0  0  0  0  0  0  0  0
   22.4345  -24.6390  -18.3177 C   0  0  1  0  0  0  0  0  0  0  0  0
   22.0633  -24.1233  -19.6912 C   0  0  0  0  0  0  0  0  0  0  0  0
   20.8030  -23.3512  -19.6856 C   0  0  0  0  0  0  0  0  0  0  0  0
   20.8198  -21.9894  -19.4586 C   0  0  0  0  0  0  0  0  0  0  0  0
   19.6501  -21.2428  -19.4484 C   0  0  0  0  0  0  0  0  0  0  0  0
   18.4221  -21.8323  -19.6650 C   0  0  0  0  0  0  0  0  0  0  0  0
   18.4075  -23.1928  -19.8916 C   0  0  0  0  0  0  0  0  0  0  0  0
   19.5690  -23.9371  -19.9022 C   0  0  0  0  0  0  0  0  0  0  0  0
   21.3232  -25.3688  -17.6677 C   0  0  0  0  0  0  0  0  0  0  0  0
   21.0335  -26.5149  -18.0972 O   0  0  0  0  0  0  0  0  0  0  0  0
   21.5333  -26.4542  -12.7144 C   0  0  0  0  0  0  0  0  0  0  0  0
   20.8913  -25.6243  -13.7709 C   0  0  1  0  0  0  0  0  0  0  0  0
   21.8885  -24.6388  -14.3883 C   0  0  0  0  0  0  0  0  0  0  0  0
   20.0789  -26.3005  -14.7939 C   0  0  0  0  0  0  0  0  0  0  0  0
   19.4842  -25.5627  -15.9218 C   0  0  2  0  0  0  0  0  0  0  0  0
   20.5983  -24.8084  -16.5944 N   0  0  0  0  0  0  0  0  0  0  0  0
   18.4296  -24.5946  -15.6901 C   0  0  0  0  0  0  0  0  0  0  0  0
   18.7032  -23.3459  -15.6056 O   0  0  0  0  0  0  0  0  0  0  0  0
   17.0938  -24.8874  -15.5496 O   0  0  0  0  0  0  0  0  0  0  0  0
  2  4  1  0
  2  1  1  6
  2  3  1  0
  4  5  1  1
  6  7  2  0
  6  4  1  0
  8  6  1  0
  9  8  1  0
 10 11  1  0
  9 10  1  6
 11 12  2  0
 11 16  1  0
 12 13  1  0
 13 14  2  0
 15 14  1  0
 16 15  2  0
 17 24  1  0
 17  9  1  0
 18 17  2  0
 20 22  1  0
 20 19  1  6
 21 20  1  0
 23 24  1  0
 23 22  1  1
 25 23  1  0
 26 25  2  0
 27 25  1  0
M  END
$$$$
