TFL.pdb
     RDKit          3D

 27 27  0  0  1  0  0  0  0  0999 V2000
   26.2063  -20.5608  -18.8138 C   0  0  0  0  0  0  0  0  0  0  0  0
   27.2869  -21.6094  -18.9634 C   0  0  1  0  0  0  0  0  0  0  0  0
   27.9544  -21.4310  -20.1624 O   0  0  0  0  0  0  0  0  0  0  0  0
   28.2847  -21.4355  -17.8122 C   0  0  2  0  0  0  0  0  0  0  0  0
   29.3009  -22.4539  -17.9719 N   0  0  0  0  0  0  0  0  0  0  0  0
   27.5869  -21.6572  -16.5347 C   0  0  0  0  0  0  0  0  0  0  0  0
   27.2313  -22.8101  -16.2158 O   0  0  0  0  0  0  0  0  0  0  0  0
   27.2849  -20.6094  -15.6165 N   0  0  0  0  0  0  0  0  0  0  0  0
   26.5004  -20.7822  -14.4269 C   0  0  1  0  0  0  0  0  0  0  0  0
   26.8233  -19.7116  -13.4074 C   0  0  0  0  0  0  0  0  0  0  0  0
   26.1982  -19.9725  -12.0937 C   0  0  0  0  0  0  0  0  0  0  0  0
   26.7740  -20.8653  -11.2118 C   0  0  0  0  0  0  0  0  0  0  0  0
   26.2062  -21.1270   -9.9729 C   0  0  0  0  0  0  0  0  0  0  0  0
   25.0423  -20.5047   -9.5724 C   0  0  0  0  0  0  0  0  0  0  0  0
   24.4687  -19.6132  -10.4548 C   0  0  0  0  0  0  0  0  0  0  0  0
   25.0312  -19.3513  -11.6870 C   0  0  0  0  0  0  0  0  0  0  0  0
   25.0498  -20.8819  -14.7030 C   0  0  0  0  0  0  0  0  0  0  0  0
   24.6574  -20.7145  -15.8862 O   0  0  0  0  0  0  0  0  0  0  0  0
   23.6790  -25.4636  -15.2413 C   0  0  0  0  0  0  0  0  0  0  0  0
   23.3641  -24.0089  -15.2817 C   0  0  1  0  0  0  0  0  0  0  0  0
   22.2803  -23.7019  -16.3198 C   0  0  0  0  0  0  0  0  0  0  0  0
   23.1236  -23.3098  -14.0100 C   0  0  0  0  0  0  0  0  0  0  0  0
   22.8251  -21.8679  -13.9641 C   0  0  2  0  0  0  0  0  0  0  0  0
   24.1193  -21.1566  -13.6783 N   0  0  0  0  0  0  0  0  0  0  0  0
   21.8646  -21.3481  -13.0102 C   0  0  0  0  0  0  0  0  0  0  0  0
   22.2631  -20.7783  -11.9341 O   0  0  0  0  0  0  0  0  0  0  0  0
   20.4975  -21.3979  -13.1458 O   0  0  0  0  0  0  0  0  0  0  0  0
  2  4  1  0
  2  1  1  1
  2  3  1  0
  4  5  1  6
  6  7  2  0
  6  4  1  0
  8  6  1  0
  9  8  1  0
 10 11  1  0
  9 10  1  1
 11 12  2  0
 11 16  1  0
 12 13  1  0
 13 14  2  0
 15 14  1  0
 16 15  2  0
 17 24  1  0
 17  9  1  0
 18 17  2  0
 20 22  1  0
 20 19  1  1
 21 20  1  0
 23 24  1  0
 23 22  1  1
 25 23  1  0
 26 25  2  0
 27 25  1  0
M  END
$$$$
