TFL.pdb
     RDKit          3D

 27 27  0  0  1  0  0  0  0  0999 V2000
   25.2912   -9.4522  -15.4060 C   0  0  0  0  0  0  0  0  0  0  0  0
   24.9784  -10.8903  -15.7575 C   0  0  1  0  0  0  0  0  0  0  0  0
   25.9501  -11.7256  -15.2353 O   0  0  0  0  0  0  0  0  0  0  0  0
   23.6268  -11.2528  -15.1305 C   0  0  2  0  0  0  0  0  0  0  0  0
   23.3307  -12.6163  -15.5155 N   0  0  0  0  0  0  0  0  0  0  0  0
   22.5884  -10.3671  -15.6832 C   0  0  0  0  0  0  0  0  0  0  0  0
   22.2493  -10.4820  -16.8787 O   0  0  0  0  0  0  0  0  0  0  0  0
   21.9300   -9.3610  -14.9174 N   0  0  0  0  0  0  0  0  0  0  0  0
   20.9542   -8.4530  -15.4501 C   0  0  1  0  0  0  0  0  0  0  0  0
   19.6513   -8.5526  -14.6868 C   0  0  0  0  0  0  0  0  0  0  0  0
   18.8465   -9.7252  -15.0891 C   0  0  0  0  0  0  0  0  0  0  0  0
   18.5952  -10.7413  -14.1887 C   0  0  0  0  0  0  0  0  0  0  0  0
   17.8425  -11.8521  -14.5426 C   0  0  0  0  0  0  0  0  0  0  0  0
   17.3145  -11.9857  -15.8098 C   0  0  0  0  0  0  0  0  0  0  0  0
   17.5667  -10.9695  -16.7077 C   0  0  0  0  0  0  0  0  0  0  0  0
   18.3147   -9.8642  -16.3583 C   0  0  0  0  0  0  0  0  0  0  0  0
   21.4514   -7.0622  -15.5423 C   0  0  0  0  0  0  0  0  0  0  0  0
   22.0147   -6.5645  -14.5339 O   0  0  0  0  0  0  0  0  0  0  0  0
   23.5509   -2.5858  -18.0553 C   0  0  0  0  0  0  0  0  0  0  0  0
   22.2947   -3.1557  -18.6158 C   0  0  1  0  0  0  0  0  0  0  0  0
   22.2354   -2.9854  -20.1370 C   0  0  0  0  0  0  0  0  0  0  0  0
   21.8915   -4.5067  -18.1960 C   0  0  0  0  0  0  0  0  0  0  0  0
   21.7075   -4.8531  -16.7760 C   0  0  2  0  0  0  0  0  0  0  0  0
   21.3054   -6.3015  -16.7220 N   0  0  0  0  0  0  0  0  0  0  0  0
   20.7388   -4.1393  -15.9667 C   0  0  0  0  0  0  0  0  0  0  0  0
   19.4915   -4.4193  -16.0514 O   0  0  0  0  0  0  0  0  0  0  0  0
   21.0307   -3.1440  -15.0645 O   0  0  0  0  0  0  0  0  0  0  0  0
  2  4  1  0
  2  1  1  1
  2  3  1  0
  4  5  1  6
  6  7  2  0
  6  4  1  0
  8  6  1  0
  9  8  1  0
 10 11  1  0
  9 10  1  1
 11 12  2  0
 11 16  1  0
 12 13  1  0
 13 14  2  0
 15 14  1  0
 16 15  2  0
 17 24  1  0
 17  9  1  0
 18 17  2  0
 20 22  1  0
 20 19  1  6
 21 20  1  0
 23 24  1  0
 23 22  1  6
 25 23  1  0
 26 25  2  0
 27 25  1  0
M  END
$$$$
