TFL.pdb
     RDKit          3D

 27 27  0  0  1  0  0  0  0  0999 V2000
   26.4194  -18.3213  -13.0985 C   0  0  0  0  0  0  0  0  0  0  0  0
   27.0118  -19.5214  -13.8044 C   0  0  1  0  0  0  0  0  0  0  0  0
   27.3248  -19.1927  -15.1116 O   0  0  0  0  0  0  0  0  0  0  0  0
   28.2997  -19.9187  -13.0733 C   0  0  2  0  0  0  0  0  0  0  0  0
   28.8513  -21.0601  -13.7719 N   0  0  0  0  0  0  0  0  0  0  0  0
   27.9656  -20.3205  -11.6966 C   0  0  0  0  0  0  0  0  0  0  0  0
   27.6088  -21.4935  -11.4638 O   0  0  0  0  0  0  0  0  0  0  0  0
   28.0262  -19.4296  -10.5855 N   0  0  0  0  0  0  0  0  0  0  0  0
   27.6788  -19.7940   -9.2412 C   0  0  1  0  0  0  0  0  0  0  0  0
   28.3915  -18.9097   -8.2412 C   0  0  0  0  0  0  0  0  0  0  0  0
   28.2317  -19.3832   -6.8502 C   0  0  0  0  0  0  0  0  0  0  0  0
   27.3215  -18.7776   -6.0070 C   0  0  0  0  0  0  0  0  0  0  0  0
   27.1533  -19.2040   -4.6972 C   0  0  0  0  0  0  0  0  0  0  0  0
   27.8897  -20.2516   -4.1847 C   0  0  0  0  0  0  0  0  0  0  0  0
   28.7983  -20.8553   -5.0287 C   0  0  0  0  0  0  0  0  0  0  0  0
   28.9674  -20.4332   -6.3312 C   0  0  0  0  0  0  0  0  0  0  0  0
   26.2168  -19.8390   -9.0161 C   0  0  0  0  0  0  0  0  0  0  0  0
   25.5541  -18.7865   -9.2035 O   0  0  0  0  0  0  0  0  0  0  0  0
   23.5868  -22.5948  -12.2465 C   0  0  0  0  0  0  0  0  0  0  0  0
   23.7860  -21.5915  -11.1644 C   0  0  1  0  0  0  0  0  0  0  0  0
   22.9126  -20.3526  -11.3854 C   0  0  0  0  0  0  0  0  0  0  0  0
   23.7467  -22.0520   -9.7679 C   0  0  0  0  0  0  0  0  0  0  0  0
   24.0706  -21.1525   -8.6471 C   0  0  2  0  0  0  0  0  0  0  0  0
   25.5684  -21.0223   -8.6024 N   0  0  0  0  0  0  0  0  0  0  0  0
   23.6582  -21.4852   -7.2973 C   0  0  0  0  0  0  0  0  0  0  0  0
   22.5351  -21.0699   -6.8418 O   0  0  0  0  0  0  0  0  0  0  0  0
   24.3790  -22.2446   -6.4065 O   0  0  0  0  0  0  0  0  0  0  0  0
  2  4  1  0
  2  1  1  1
  2  3  1  0
  4  5  1  6
  6  7  2  0
  6  4  1  0
  8  6  1  0
  9  8  1  0
 10 11  1  0
  9 10  1  1
 11 12  2  0
 11 16  1  0
 12 13  1  0
 13 14  2  0
 15 14  1  0
 16 15  2  0
 17 24  1  0
 17  9  1  0
 18 17  2  0
 20 22  1  0
 20 19  1  6
 21 20  1  0
 23 24  1  0
 23 22  1  6
 25 23  1  0
 26 25  2  0
 27 25  1  0
M  END
$$$$
