TFL.pdb
     RDKit          3D

 27 27  0  0  1  0  0  0  0  0999 V2000
   18.2177  -10.7207  -19.8253 C   0  0  0  0  0  0  0  0  0  0  0  0
   17.9350  -12.0236  -19.1096 C   0  0  1  0  0  0  0  0  0  0  0  0
   17.8022  -13.0482  -20.0301 O   0  0  0  0  0  0  0  0  0  0  0  0
   19.1249  -12.3341  -18.1937 C   0  0  2  0  0  0  0  0  0  0  0  0
   18.8750  -13.6278  -17.5944 N   0  0  0  0  0  0  0  0  0  0  0  0
   19.1868  -11.3207  -17.1272 C   0  0  0  0  0  0  0  0  0  0  0  0
   18.2628  -11.2442  -16.2920 O   0  0  0  0  0  0  0  0  0  0  0  0
   20.2646  -10.3984  -16.9865 N   0  0  0  0  0  0  0  0  0  0  0  0
   20.3106   -9.3582  -15.9983 C   0  0  1  0  0  0  0  0  0  0  0  0
   21.7336   -9.0999  -15.5528 C   0  0  0  0  0  0  0  0  0  0  0  0
   21.8262   -8.0193  -14.5486 C   0  0  0  0  0  0  0  0  0  0  0  0
   22.1469   -6.7331  -14.9349 C   0  0  0  0  0  0  0  0  0  0  0  0
   22.2398   -5.7019  -14.0110 C   0  0  0  0  0  0  0  0  0  0  0  0
   22.0152   -5.9209  -12.6679 C   0  0  0  0  0  0  0  0  0  0  0  0
   21.6949   -7.2064  -12.2841 C   0  0  0  0  0  0  0  0  0  0  0  0
   21.6019   -8.2333  -13.2007 C   0  0  0  0  0  0  0  0  0  0  0  0
   19.6194   -8.1228  -16.4298 C   0  0  0  0  0  0  0  0  0  0  0  0
   19.8749   -7.6678  -17.5743 O   0  0  0  0  0  0  0  0  0  0  0  0
   15.7266   -4.9513  -17.9525 C   0  0  0  0  0  0  0  0  0  0  0  0
   15.6470   -5.3951  -16.5335 C   0  0  1  0  0  0  0  0  0  0  0  0
   14.2043   -5.7145  -16.1294 C   0  0  0  0  0  0  0  0  0  0  0  0
   16.5904   -6.4235  -16.0684 C   0  0  0  0  0  0  0  0  0  0  0  0
   18.0411   -6.1732  -16.0105 C   0  0  2  0  0  0  0  0  0  0  0  0
   18.6962   -7.4610  -15.5923 N   0  0  0  0  0  0  0  0  0  0  0  0
   18.5741   -5.1503  -15.1317 C   0  0  0  0  0  0  0  0  0  0  0  0
   18.7005   -5.3754  -13.8768 O   0  0  0  0  0  0  0  0  0  0  0  0
   18.9867   -3.8984  -15.5218 O   0  0  0  0  0  0  0  0  0  0  0  0
  2  4  1  0
  2  1  1  6
  2  3  1  0
  4  5  1  1
  6  7  2  0
  6  4  1  0
  8  6  1  0
  9  8  1  0
 10 11  1  0
  9 10  1  6
 11 12  2  0
 11 16  1  0
 12 13  1  0
 13 14  2  0
 15 14  1  0
 16 15  2  0
 17 24  1  0
 17  9  1  0
 18 17  2  0
 20 22  1  0
 20 19  1  6
 21 20  1  0
 23 24  1  0
 23 22  1  1
 25 23  1  0
 26 25  2  0
 27 25  1  0
M  END
$$$$
