TFL.pdb
     RDKit          3D

 27 27  0  0  1  0  0  0  0  0999 V2000
   24.9533  -22.0922  -11.4945 C   0  0  0  0  0  0  0  0  0  0  0  0
   25.4002  -21.0795  -12.5262 C   0  0  1  0  0  0  0  0  0  0  0  0
   24.5398  -21.0989  -13.6097 O   0  0  0  0  0  0  0  0  0  0  0  0
   25.3526  -19.6885  -11.8828 C   0  0  2  0  0  0  0  0  0  0  0  0
   25.6982  -18.7312  -12.9120 N   0  0  0  0  0  0  0  0  0  0  0  0
   26.3616  -19.6201  -10.8125 C   0  0  0  0  0  0  0  0  0  0  0  0
   27.5714  -19.5365  -11.1069 O   0  0  0  0  0  0  0  0  0  0  0  0
   26.0331  -19.6440   -9.4255 N   0  0  0  0  0  0  0  0  0  0  0  0
   27.0037  -19.6506   -8.3680 C   0  0  1  0  0  0  0  0  0  0  0  0
   26.3552  -19.3315   -7.0384 C   0  0  0  0  0  0  0  0  0  0  0  0
   27.3359  -19.2407   -5.9364 C   0  0  0  0  0  0  0  0  0  0  0  0
   27.4281  -20.2502   -4.9991 C   0  0  0  0  0  0  0  0  0  0  0  0
   28.3406  -20.1879   -3.9555 C   0  0  0  0  0  0  0  0  0  0  0  0
   29.1933  -19.1132   -3.8127 C   0  0  0  0  0  0  0  0  0  0  0  0
   29.0997  -18.1058   -4.7500 C   0  0  0  0  0  0  0  0  0  0  0  0
   28.1933  -18.1654   -5.7884 C   0  0  0  0  0  0  0  0  0  0  0  0
   27.7999  -20.8973   -8.3247 C   0  0  0  0  0  0  0  0  0  0  0  0
   27.1854  -21.9947   -8.3150 O   0  0  0  0  0  0  0  0  0  0  0  0
   32.0095  -23.7490  -10.0959 C   0  0  0  0  0  0  0  0  0  0  0  0
   32.3848  -22.8023   -9.0097 C   0  0  1  0  0  0  0  0  0  0  0  0
   33.7715  -22.1979   -9.2516 C   0  0  0  0  0  0  0  0  0  0  0  0
   31.4044  -21.7857   -8.5983 C   0  0  0  0  0  0  0  0  0  0  0  0
   30.0163  -22.1427   -8.2577 C   0  0  2  0  0  0  0  0  0  0  0  0
   29.2106  -20.8730   -8.2949 N   0  0  0  0  0  0  0  0  0  0  0  0
   29.7117  -22.7719   -6.9872 C   0  0  0  0  0  0  0  0  0  0  0  0
   29.7340  -22.0885   -5.9037 O   0  0  0  0  0  0  0  0  0  0  0  0
   29.3774  -24.0935   -6.8105 O   0  0  0  0  0  0  0  0  0  0  0  0
  2  4  1  0
  2  1  1  1
  2  3  1  0
  4  5  1  6
  6  7  2  0
  6  4  1  0
  8  6  1  0
  9  8  1  0
 10 11  1  0
  9 10  1  1
 11 12  2  0
 11 16  1  0
 12 13  1  0
 13 14  2  0
 15 14  1  0
 16 15  2  0
 17 24  1  0
 17  9  1  0
 18 17  2  0
 20 22  1  0
 20 19  1  6
 21 20  1  0
 23 24  1  0
 23 22  1  1
 25 23  1  0
 26 25  2  0
 27 25  1  0
M  END
$$$$
