LVW.pdb
     RDKit          3D

 30 31  0  0  1  0  0  0  0  0999 V2000
   28.4129  -15.6420  -17.6164 C   0  0  0  0  0  0  0  0  0  0  0  0
   28.6535  -16.9134  -16.8332 C   0  0  1  0  0  0  0  0  0  0  0  0
   30.0857  -16.9400  -16.3881 C   0  0  0  0  0  0  0  0  0  0  0  0
   27.6829  -17.0785  -15.6944 C   0  0  0  0  0  0  0  0  0  0  0  0
   28.0282  -18.2444  -14.8261 C   0  0  2  0  0  0  0  0  0  0  0  0
   28.4007  -19.4041  -15.5948 N   0  0  0  0  0  0  0  0  0  0  0  0
   27.0132  -18.5399  -13.7994 C   0  0  0  0  0  0  0  0  0  0  0  0
   26.4243  -17.6070  -13.1851 O   0  0  0  0  0  0  0  0  0  0  0  0
   23.9775  -20.5463  -14.4682 C   0  0  0  0  0  0  0  0  0  0  0  0
   24.6812  -21.1754  -13.3084 C   0  0  2  0  0  0  0  0  0  0  0  0
   23.6165  -21.7369  -12.3576 C   0  0  0  0  0  0  0  0  0  0  0  0
   25.5705  -20.2010  -12.5724 C   0  0  2  0  0  0  0  0  0  0  0  0
   26.6649  -19.8570  -13.4667 N   0  0  0  0  0  0  0  0  0  0  0  0
   26.1578  -20.8427  -11.3487 C   0  0  0  0  0  0  0  0  0  0  0  0
   27.1950  -21.5302  -11.4425 O   0  0  0  0  0  0  0  0  0  0  0  0
   25.5434  -20.6754  -10.0848 N   0  0  0  0  0  0  0  0  0  0  0  0
   26.0841  -21.3916   -8.9186 C   0  0  1  0  0  0  0  0  0  0  0  0
   27.5049  -20.9794   -8.7114 C   0  0  0  0  0  0  0  0  0  0  0  0
   27.6773  -20.0325   -7.6194 C   0  0  0  0  0  0  0  0  0  0  0  0
   27.0811  -18.7662   -7.4999 C   0  0  0  0  0  0  0  0  0  0  0  0
   27.5021  -18.1740   -6.3763 N   0  0  0  0  0  0  0  0  0  0  0  0
   28.3642  -19.0030   -5.7331 C   0  0  0  0  0  0  0  0  0  0  0  0
   29.0397  -18.8278   -4.5273 C   0  0  0  0  0  0  0  0  0  0  0  0
   29.8598  -19.8251   -4.0492 C   0  0  0  0  0  0  0  0  0  0  0  0
   29.9787  -20.9726   -4.7966 C   0  0  0  0  0  0  0  0  0  0  0  0
   29.3061  -21.1321   -5.9863 C   0  0  0  0  0  0  0  0  0  0  0  0
   28.4759  -20.1479   -6.4923 C   0  0  0  0  0  0  0  0  0  0  0  0
   25.1907  -21.2977   -7.7830 C   0  0  0  0  0  0  0  0  0  0  0  0
   24.1505  -20.6109   -7.7266 O   0  0  0  0  0  0  0  0  0  0  0  0
   25.4947  -22.0329   -6.6271 O   0  0  0  0  0  0  0  0  0  0  0  0
  2  1  1  1
  3  2  1  0
  4  2  1  0
  5  4  1  0
  5  6  1  6
  7  5  1  0
  7  8  2  0
 10  9  1  6
 10 12  1  0
 11 10  1  0
 12 13  1  6
 13  7  1  0
 14 12  1  0
 15 14  2  0
 16 14  1  0
 17 16  1  0
 17 28  1  0
 18 19  1  0
 17 18  1  1
 19 27  1  0
 20 21  1  0
 20 19  2  0
 21 22  1  0
 22 27  2  0
 22 23  1  0
 23 24  2  0
 24 25  1  0
 26 25  2  0
 27 26  1  0
 28 30  1  0
 29 28  2  0
M  END
$$$$
