LVW.pdb
     RDKit          3D

 30 31  0  0  1  0  0  0  0  0999 V2000
   30.3399  -16.0476  -15.9309 C   0  0  0  0  0  0  0  0  0  0  0  0
   29.5965  -17.2629  -16.4389 C   0  0  1  0  0  0  0  0  0  0  0  0
   30.4176  -17.9149  -17.5116 C   0  0  0  0  0  0  0  0  0  0  0  0
   29.2208  -18.2105  -15.3312 C   0  0  0  0  0  0  0  0  0  0  0  0
   28.3803  -19.3442  -15.8222 C   0  0  2  0  0  0  0  0  0  0  0  0
   28.1336  -19.2650  -17.2390 N   0  0  0  0  0  0  0  0  0  0  0  0
   27.1505  -19.5532  -15.0377 C   0  0  0  0  0  0  0  0  0  0  0  0
   26.1849  -18.7437  -15.1210 O   0  0  0  0  0  0  0  0  0  0  0  0
   25.0026  -22.3127  -15.4343 C   0  0  0  0  0  0  0  0  0  0  0  0
   25.3078  -22.3151  -13.9704 C   0  0  2  0  0  0  0  0  0  0  0  0
   24.0381  -22.7428  -13.2236 C   0  0  0  0  0  0  0  0  0  0  0  0
   25.7715  -20.9662  -13.4730 C   0  0  2  0  0  0  0  0  0  0  0  0
   27.0055  -20.6494  -14.1750 N   0  0  0  0  0  0  0  0  0  0  0  0
   26.0766  -21.0214  -12.0040 C   0  0  0  0  0  0  0  0  0  0  0  0
   27.2255  -21.3169  -11.6169 O   0  0  0  0  0  0  0  0  0  0  0  0
   25.0693  -20.7412  -11.0502 N   0  0  0  0  0  0  0  0  0  0  0  0
   25.3405  -20.9767   -9.6231 C   0  0  1  0  0  0  0  0  0  0  0  0
   26.5960  -20.2619   -9.2430 C   0  0  0  0  0  0  0  0  0  0  0  0
   26.8727  -20.3025   -7.8145 C   0  0  0  0  0  0  0  0  0  0  0  0
   26.0935  -20.9203   -6.8222 C   0  0  0  0  0  0  0  0  0  0  0  0
   26.6501  -20.7197   -5.6221 N   0  0  0  0  0  0  0  0  0  0  0  0
   27.7823  -19.9856   -5.7743 C   0  0  0  0  0  0  0  0  0  0  0  0
   28.6973  -19.5469   -4.8197 C   0  0  0  0  0  0  0  0  0  0  0  0
   29.8011  -18.8221   -5.2095 C   0  0  0  0  0  0  0  0  0  0  0  0
   29.9556  -18.5576   -6.5496 C   0  0  0  0  0  0  0  0  0  0  0  0
   29.0436  -18.9966   -7.4818 C   0  0  0  0  0  0  0  0  0  0  0  0
   27.9251  -19.7261   -7.1205 C   0  0  0  0  0  0  0  0  0  0  0  0
   24.1635  -20.7311   -8.8164 C   0  0  0  0  0  0  0  0  0  0  0  0
   23.2846  -19.8762   -9.0479 O   0  0  0  0  0  0  0  0  0  0  0  0
   23.9653  -21.5074   -7.6644 O   0  0  0  0  0  0  0  0  0  0  0  0
  2  1  1  1
  3  2  1  0
  4  2  1  0
  5  4  1  0
  5  6  1  6
  7  5  1  0
  7  8  2  0
 10  9  1  6
 10 12  1  0
 11 10  1  0
 12 13  1  6
 13  7  1  0
 14 12  1  0
 15 14  2  0
 16 14  1  0
 17 16  1  0
 17 28  1  0
 18 19  1  0
 17 18  1  1
 19 27  1  0
 20 21  1  0
 20 19  2  0
 21 22  1  0
 22 27  2  0
 22 23  1  0
 23 24  2  0
 24 25  1  0
 26 25  2  0
 27 26  1  0
 28 30  1  0
 29 28  2  0
M  END
$$$$
