LVW.pdb
     RDKit          3D

 30 31  0  0  1  0  0  0  0  0999 V2000
   27.6231  -15.4315  -17.4804 C   0  0  0  0  0  0  0  0  0  0  0  0
   27.6465  -16.8323  -16.9103 C   0  0  1  0  0  0  0  0  0  0  0  0
   29.0616  -17.1846  -16.5590 C   0  0  0  0  0  0  0  0  0  0  0  0
   26.6972  -16.9973  -15.7537 C   0  0  0  0  0  0  0  0  0  0  0  0
   26.9018  -18.2937  -15.0393 C   0  0  2  0  0  0  0  0  0  0  0  0
   26.8461  -19.4221  -15.9325 N   0  0  0  0  0  0  0  0  0  0  0  0
   26.0422  -18.4590  -13.8537 C   0  0  0  0  0  0  0  0  0  0  0  0
   25.7240  -17.4655  -13.1421 O   0  0  0  0  0  0  0  0  0  0  0  0
   22.7568  -20.2994  -13.8816 C   0  0  0  0  0  0  0  0  0  0  0  0
   23.5782  -20.8630  -12.7664 C   0  0  2  0  0  0  0  0  0  0  0  0
   22.6388  -21.1603  -11.5908 C   0  0  0  0  0  0  0  0  0  0  0  0
   24.6781  -19.9259  -12.3260 C   0  0  2  0  0  0  0  0  0  0  0  0
   25.5486  -19.7150  -13.4721 N   0  0  0  0  0  0  0  0  0  0  0  0
   25.4966  -20.5491  -11.2325 C   0  0  0  0  0  0  0  0  0  0  0  0
   26.1443  -21.5921  -11.4561 O   0  0  0  0  0  0  0  0  0  0  0  0
   25.5401  -19.9632   -9.9450 N   0  0  0  0  0  0  0  0  0  0  0  0
   26.3557  -20.5909   -8.8932 C   0  0  1  0  0  0  0  0  0  0  0  0
   27.4128  -19.6287   -8.4592 C   0  0  0  0  0  0  0  0  0  0  0  0
   28.2872  -20.1608   -7.4242 C   0  0  0  0  0  0  0  0  0  0  0  0
   29.1714  -21.2457   -7.5436 C   0  0  0  0  0  0  0  0  0  0  0  0
   29.7828  -21.4599   -6.3728 N   0  0  0  0  0  0  0  0  0  0  0  0
   29.3385  -20.5514   -5.4666 C   0  0  0  0  0  0  0  0  0  0  0  0
   29.6963  -20.3728   -4.1321 C   0  0  0  0  0  0  0  0  0  0  0  0
   29.1232  -19.3587   -3.3979 C   0  0  0  0  0  0  0  0  0  0  0  0
   28.2051  -18.5509   -4.0256 C   0  0  0  0  0  0  0  0  0  0  0  0
   27.8605  -18.7389   -5.3445 C   0  0  0  0  0  0  0  0  0  0  0  0
   28.4187  -19.7492   -6.1071 C   0  0  0  0  0  0  0  0  0  0  0  0
   25.5246  -21.1771   -7.8626 C   0  0  0  0  0  0  0  0  0  0  0  0
   24.3469  -20.8564   -7.6035 O   0  0  0  0  0  0  0  0  0  0  0  0
   26.0632  -22.1996   -7.0667 O   0  0  0  0  0  0  0  0  0  0  0  0
  2  1  1  1
  3  2  1  0
  4  2  1  0
  5  4  1  0
  5  6  1  6
  7  5  1  0
  7  8  2  0
 10  9  1  6
 10 12  1  0
 11 10  1  0
 12 13  1  6
 13  7  1  0
 14 12  1  0
 15 14  2  0
 16 14  1  0
 17 16  1  0
 17 28  1  0
 18 19  1  0
 17 18  1  1
 19 27  1  0
 20 21  1  0
 20 19  2  0
 21 22  1  0
 22 27  2  0
 22 23  1  0
 23 24  2  0
 24 25  1  0
 26 25  2  0
 27 26  1  0
 28 30  1  0
 29 28  2  0
M  END
$$$$
