LVW.pdb
     RDKit          3D

 30 31  0  0  1  0  0  0  0  0999 V2000
   20.9710  -17.9615  -15.0993 C   0  0  0  0  0  0  0  0  0  0  0  0
   22.4163  -18.0257  -15.5402 C   0  0  1  0  0  0  0  0  0  0  0  0
   23.0293  -16.6663  -15.3773 C   0  0  0  0  0  0  0  0  0  0  0  0
   23.1867  -19.1049  -14.8275 C   0  0  0  0  0  0  0  0  0  0  0  0
   24.6364  -19.0930  -15.1893 C   0  0  2  0  0  0  0  0  0  0  0  0
   24.8420  -18.9755  -16.6100 N   0  0  0  0  0  0  0  0  0  0  0  0
   25.4061  -20.1969  -14.5887 C   0  0  0  0  0  0  0  0  0  0  0  0
   25.2579  -21.3838  -14.9937 O   0  0  0  0  0  0  0  0  0  0  0  0
   28.9530  -19.3908  -12.6405 C   0  0  0  0  0  0  0  0  0  0  0  0
   28.5500  -20.7386  -13.1475 C   0  0  2  0  0  0  0  0  0  0  0  0
   28.8594  -20.7909  -14.6490 C   0  0  0  0  0  0  0  0  0  0  0  0
   27.0876  -21.0336  -12.9097 C   0  0  2  0  0  0  0  0  0  0  0  0
   26.3248  -19.9750  -13.5526 N   0  0  0  0  0  0  0  0  0  0  0  0
   26.7745  -21.0027  -11.4417 C   0  0  0  0  0  0  0  0  0  0  0  0
   27.7019  -20.9800  -10.6071 O   0  0  0  0  0  0  0  0  0  0  0  0
   25.4321  -21.0000  -10.9935 N   0  0  0  0  0  0  0  0  0  0  0  0
   25.1529  -20.9431   -9.5498 C   0  0  1  0  0  0  0  0  0  0  0  0
   26.1838  -20.0873   -8.8892 C   0  0  0  0  0  0  0  0  0  0  0  0
   26.4331  -20.4517   -7.5021 C   0  0  0  0  0  0  0  0  0  0  0  0
   25.7166  -21.3843   -6.7339 C   0  0  0  0  0  0  0  0  0  0  0  0
   26.2182  -21.4273   -5.4941 N   0  0  0  0  0  0  0  0  0  0  0  0
   27.2525  -20.5522   -5.4025 C   0  0  0  0  0  0  0  0  0  0  0  0
   28.0849  -20.2633   -4.3233 C   0  0  0  0  0  0  0  0  0  0  0  0
   29.0972  -19.3410   -4.4654 C   0  0  0  0  0  0  0  0  0  0  0  0
   29.2456  -18.7334   -5.6895 C   0  0  0  0  0  0  0  0  0  0  0  0
   28.4158  -19.0278   -6.7469 C   0  0  0  0  0  0  0  0  0  0  0  0
   27.3901  -19.9493   -6.6343 C   0  0  0  0  0  0  0  0  0  0  0  0
   23.7627  -20.6286   -9.2948 C   0  0  0  0  0  0  0  0  0  0  0  0
   22.9871  -20.0531  -10.0848 O   0  0  0  0  0  0  0  0  0  0  0  0
   23.2087  -20.9903   -8.0574 O   0  0  0  0  0  0  0  0  0  0  0  0
  2  1  1  1
  3  2  1  0
  4  2  1  0
  5  4  1  0
  5  6  1  6
  7  5  1  0
  7  8  2  0
 10  9  1  6
 10 12  1  0
 11 10  1  0
 12 13  1  6
 13  7  1  0
 14 12  1  0
 15 14  2  0
 16 14  1  0
 17 16  1  0
 17 28  1  0
 18 19  1  0
 17 18  1  1
 19 27  1  0
 20 21  1  0
 20 19  2  0
 21 22  1  0
 22 27  2  0
 22 23  1  0
 23 24  2  0
 24 25  1  0
 26 25  2  0
 27 26  1  0
 28 30  1  0
 29 28  2  0
M  END
$$$$
