LVW.pdb
     RDKit          3D

 30 31  0  0  1  0  0  0  0  0999 V2000
   25.1814  -26.7266  -16.3573 C   0  0  0  0  0  0  0  0  0  0  0  0
   25.6803  -25.4131  -16.9172 C   0  0  1  0  0  0  0  0  0  0  0  0
   24.5043  -24.6233  -17.4105 C   0  0  0  0  0  0  0  0  0  0  0  0
   26.5248  -24.6521  -15.9304 C   0  0  0  0  0  0  0  0  0  0  0  0
   27.0259  -23.3630  -16.4959 C   0  0  2  0  0  0  0  0  0  0  0  0
   27.9317  -23.5671  -17.5968 N   0  0  0  0  0  0  0  0  0  0  0  0
   27.5585  -22.4376  -15.4802 C   0  0  0  0  0  0  0  0  0  0  0  0
   28.7302  -22.5761  -15.0302 O   0  0  0  0  0  0  0  0  0  0  0  0
   27.8486  -18.6385  -15.4375 C   0  0  0  0  0  0  0  0  0  0  0  0
   26.9526  -19.0852  -14.3267 C   0  0  2  0  0  0  0  0  0  0  0  0
   27.1533  -18.1294  -13.1439 C   0  0  0  0  0  0  0  0  0  0  0  0
   27.2282  -20.5067  -13.8961 C   0  0  2  0  0  0  0  0  0  0  0  0
   26.7918  -21.3764  -14.9773 N   0  0  0  0  0  0  0  0  0  0  0  0
   26.4286  -20.8526  -12.6734 C   0  0  0  0  0  0  0  0  0  0  0  0
   25.2062  -21.0833  -12.7729 O   0  0  0  0  0  0  0  0  0  0  0  0
   27.0502  -20.9189  -11.4037 N   0  0  0  0  0  0  0  0  0  0  0  0
   26.2427  -21.2584  -10.2212 C   0  0  1  0  0  0  0  0  0  0  0  0
   27.1552  -21.5036   -9.0641 C   0  0  0  0  0  0  0  0  0  0  0  0
   27.0839  -20.4678   -8.0439 C   0  0  0  0  0  0  0  0  0  0  0  0
   26.3135  -19.2939   -8.0870 C   0  0  0  0  0  0  0  0  0  0  0  0
   26.5316  -18.5708   -6.9825 N   0  0  0  0  0  0  0  0  0  0  0  0
   27.4257  -19.2218   -6.1944 C   0  0  0  0  0  0  0  0  0  0  0  0
   27.9421  -18.8684   -4.9497 C   0  0  0  0  0  0  0  0  0  0  0  0
   28.8346  -19.7030   -4.3152 C   0  0  0  0  0  0  0  0  0  0  0  0
   29.1842  -20.8713   -4.9496 C   0  0  0  0  0  0  0  0  0  0  0  0
   28.6667  -21.2077   -6.1794 C   0  0  0  0  0  0  0  0  0  0  0  0
   27.7689  -20.3894   -6.8414 C   0  0  0  0  0  0  0  0  0  0  0  0
   25.1647  -20.3107  -10.0306 C   0  0  0  0  0  0  0  0  0  0  0  0
   24.0492  -20.5637   -9.5321 O   0  0  0  0  0  0  0  0  0  0  0  0
   25.3612  -18.9807  -10.4326 O   0  0  0  0  0  0  0  0  0  0  0  0
  2  1  1  1
  3  2  1  0
  4  2  1  0
  5  4  1  0
  5  6  1  6
  7  5  1  0
  7  8  2  0
 10  9  1  6
 10 12  1  0
 11 10  1  0
 12 13  1  6
 13  7  1  0
 14 12  1  0
 15 14  2  0
 16 14  1  0
 17 16  1  0
 17 28  1  0
 18 19  1  0
 17 18  1  1
 19 27  1  0
 20 21  1  0
 20 19  2  0
 21 22  1  0
 22 27  2  0
 22 23  1  0
 23 24  2  0
 24 25  1  0
 26 25  2  0
 27 26  1  0
 28 30  1  0
 29 28  2  0
M  END
$$$$
