LVW.pdb
     RDKit          3D

 30 31  0  0  1  0  0  0  0  0999 V2000
   16.7943  -27.6601   -7.7548 C   0  0  0  0  0  0  0  0  0  0  0  0
   17.2586  -26.6902   -6.6911 C   0  0  1  0  0  0  0  0  0  0  0  0
   17.1690  -25.2967   -7.2393 C   0  0  0  0  0  0  0  0  0  0  0  0
   16.5118  -26.8590   -5.3950 C   0  0  0  0  0  0  0  0  0  0  0  0
   16.9534  -25.8760   -4.3598 C   0  0  2  0  0  0  0  0  0  0  0  0
   18.3876  -25.8189   -4.2401 N   0  0  0  0  0  0  0  0  0  0  0  0
   16.2765  -26.0390   -3.0610 C   0  0  0  0  0  0  0  0  0  0  0  0
   15.0176  -26.1107   -2.9923 O   0  0  0  0  0  0  0  0  0  0  0  0
   16.9396  -28.6772   -0.3693 C   0  0  0  0  0  0  0  0  0  0  0  0
   17.1382  -27.3102    0.2036 C   0  0  2  0  0  0  0  0  0  0  0  0
   16.6848  -27.3412    1.6687 C   0  0  0  0  0  0  0  0  0  0  0  0
   16.3745  -26.2485   -0.5524 C   0  0  2  0  0  0  0  0  0  0  0  0
   16.9972  -26.1195   -1.8606 N   0  0  0  0  0  0  0  0  0  0  0  0
   16.4834  -24.9228    0.1440 C   0  0  0  0  0  0  0  0  0  0  0  0
   17.6061  -24.4620    0.4345 O   0  0  0  0  0  0  0  0  0  0  0  0
   15.3202  -24.1884    0.4763 N   0  0  0  0  0  0  0  0  0  0  0  0
   15.4546  -22.8992    1.1729 C   0  0  1  0  0  0  0  0  0  0  0  0
   15.5175  -21.8037    0.1592 C   0  0  0  0  0  0  0  0  0  0  0  0
   14.2503  -21.5719   -0.5186 C   0  0  0  0  0  0  0  0  0  0  0  0
   13.0717  -21.0607    0.0495 C   0  0  0  0  0  0  0  0  0  0  0  0
   12.1062  -21.0197   -0.8760 N   0  0  0  0  0  0  0  0  0  0  0  0
   12.5979  -21.4871   -2.0523 C   0  0  0  0  0  0  0  0  0  0  0  0
   11.9751  -21.6174   -3.2917 C   0  0  0  0  0  0  0  0  0  0  0  0
   12.6833  -22.1038   -4.3676 C   0  0  0  0  0  0  0  0  0  0  0  0
   13.9996  -22.4464   -4.1685 C   0  0  0  0  0  0  0  0  0  0  0  0
   14.6021  -22.3131   -2.9386 C   0  0  0  0  0  0  0  0  0  0  0  0
   13.9163  -21.8281   -1.8394 C   0  0  0  0  0  0  0  0  0  0  0  0
   14.4778  -22.7701    2.2339 C   0  0  0  0  0  0  0  0  0  0  0  0
   13.4152  -23.4168    2.3312 O   0  0  0  0  0  0  0  0  0  0  0  0
   14.7188  -21.8428    3.2591 O   0  0  0  0  0  0  0  0  0  0  0  0
  2  1  1  6
  3  2  1  0
  4  2  1  0
  5  4  1  0
  5  6  1  1
  7  5  1  0
  7  8  2  0
 10  9  1  6
 10 12  1  0
 11 10  1  0
 12 13  1  6
 13  7  1  0
 14 12  1  0
 15 14  2  0
 16 14  1  0
 17 16  1  0
 17 28  1  0
 18 19  1  0
 17 18  1  6
 19 27  1  0
 20 21  1  0
 20 19  2  0
 21 22  1  0
 22 27  2  0
 22 23  1  0
 23 24  2  0
 24 25  1  0
 26 25  2  0
 27 26  1  0
 28 30  1  0
 29 28  2  0
M  END
$$$$
