LVW.pdb
     RDKit          3D

 30 31  0  0  1  0  0  0  0  0999 V2000
   21.6219  -17.7167  -16.5775 C   0  0  0  0  0  0  0  0  0  0  0  0
   22.7477  -17.3965  -15.6196 C   0  0  1  0  0  0  0  0  0  0  0  0
   22.2537  -16.3999  -14.6132 C   0  0  0  0  0  0  0  0  0  0  0  0
   23.3297  -18.6311  -14.9845 C   0  0  0  0  0  0  0  0  0  0  0  0
   24.4392  -18.3064  -14.0378 C   0  0  2  0  0  0  0  0  0  0  0  0
   25.4126  -17.4208  -14.6231 N   0  0  0  0  0  0  0  0  0  0  0  0
   25.0485  -19.4922  -13.4098 C   0  0  0  0  0  0  0  0  0  0  0  0
   24.3783  -20.5483  -13.2362 O   0  0  0  0  0  0  0  0  0  0  0  0
   28.6559  -20.8062  -14.1739 C   0  0  0  0  0  0  0  0  0  0  0  0
   28.4681  -20.6249  -12.7015 C   0  0  2  0  0  0  0  0  0  0  0  0
   29.2024  -21.7666  -11.9872 C   0  0  0  0  0  0  0  0  0  0  0  0
   27.0119  -20.6148  -12.3000 C   0  0  2  0  0  0  0  0  0  0  0  0
   26.3846  -19.4944  -12.9836 N   0  0  0  0  0  0  0  0  0  0  0  0
   26.8730  -20.3906  -10.8219 C   0  0  0  0  0  0  0  0  0  0  0  0
   27.6040  -19.5589  -10.2465 O   0  0  0  0  0  0  0  0  0  0  0  0
   25.9178  -21.1172  -10.0719 N   0  0  0  0  0  0  0  0  0  0  0  0
   25.9087  -20.9977   -8.6053 C   0  0  1  0  0  0  0  0  0  0  0  0
   25.8229  -19.5527   -8.2363 C   0  0  0  0  0  0  0  0  0  0  0  0
   26.9450  -19.0959   -7.4294 C   0  0  0  0  0  0  0  0  0  0  0  0
   27.7750  -17.9925   -7.6878 C   0  0  0  0  0  0  0  0  0  0  0  0
   28.7167  -17.9053   -6.7412 N   0  0  0  0  0  0  0  0  0  0  0  0
   28.5468  -18.9164   -5.8507 C   0  0  0  0  0  0  0  0  0  0  0  0
   29.2680  -19.2224   -4.6988 C   0  0  0  0  0  0  0  0  0  0  0  0
   28.8995  -20.2996   -3.9245 C   0  0  0  0  0  0  0  0  0  0  0  0
   27.8149  -21.0408   -4.3294 C   0  0  0  0  0  0  0  0  0  0  0  0
   27.1118  -20.7275   -5.4700 C   0  0  0  0  0  0  0  0  0  0  0  0
   27.4585  -19.6520   -6.2681 C   0  0  0  0  0  0  0  0  0  0  0  0
   24.9415  -21.8960   -8.0102 C   0  0  0  0  0  0  0  0  0  0  0  0
   24.7633  -22.0719   -6.7879 O   0  0  0  0  0  0  0  0  0  0  0  0
   24.1160  -22.6505   -8.8577 O   0  0  0  0  0  0  0  0  0  0  0  0
  2  1  1  6
  3  2  1  0
  4  2  1  0
  5  4  1  0
  5  6  1  6
  7  5  1  0
  7  8  2  0
 10  9  1  6
 10 12  1  0
 11 10  1  0
 12 13  1  6
 13  7  1  0
 14 12  1  0
 15 14  2  0
 16 14  1  0
 17 16  1  0
 17 28  1  0
 18 19  1  0
 17 18  1  6
 19 27  1  0
 20 21  1  0
 20 19  2  0
 21 22  1  0
 22 27  2  0
 22 23  1  0
 23 24  2  0
 24 25  1  0
 26 25  2  0
 27 26  1  0
 28 30  1  0
 29 28  2  0
M  END
$$$$
