LVW.pdb
     RDKit          3D

 30 31  0  0  1  0  0  0  0  0999 V2000
   26.9723  -15.9957  -16.6073 C   0  0  0  0  0  0  0  0  0  0  0  0
   27.3995  -17.4333  -16.8033 C   0  0  1  0  0  0  0  0  0  0  0  0
   28.4807  -17.7526  -15.8137 C   0  0  0  0  0  0  0  0  0  0  0  0
   26.2403  -18.3913  -16.7340 C   0  0  0  0  0  0  0  0  0  0  0  0
   26.6848  -19.8166  -16.7931 C   0  0  2  0  0  0  0  0  0  0  0  0
   27.4893  -20.0881  -17.9565 N   0  0  0  0  0  0  0  0  0  0  0  0
   25.5898  -20.7866  -16.6152 C   0  0  0  0  0  0  0  0  0  0  0  0
   24.8537  -21.1164  -17.5869 O   0  0  0  0  0  0  0  0  0  0  0  0
   25.7048  -24.2427  -15.5927 C   0  0  0  0  0  0  0  0  0  0  0  0
   24.8042  -23.5758  -14.6026 C   0  0  2  0  0  0  0  0  0  0  0  0
   23.6818  -24.5591  -14.2472 C   0  0  0  0  0  0  0  0  0  0  0  0
   24.2165  -22.2878  -15.1296 C   0  0  2  0  0  0  0  0  0  0  0  0
   25.3240  -21.3762  -15.3707 N   0  0  0  0  0  0  0  0  0  0  0  0
   23.3158  -21.6602  -14.1053 C   0  0  0  0  0  0  0  0  0  0  0  0
   23.8042  -20.9858  -13.1758 O   0  0  0  0  0  0  0  0  0  0  0  0
   21.9127  -21.8276  -14.1836 N   0  0  0  0  0  0  0  0  0  0  0  0
   21.0422  -21.0579  -13.2807 C   0  0  1  0  0  0  0  0  0  0  0  0
   21.4518  -19.6218  -13.3185 C   0  0  0  0  0  0  0  0  0  0  0  0
   21.0523  -18.9402  -14.5410 C   0  0  0  0  0  0  0  0  0  0  0  0
   19.7408  -18.6697  -14.9652 C   0  0  0  0  0  0  0  0  0  0  0  0
   19.7690  -18.0558  -16.1537 N   0  0  0  0  0  0  0  0  0  0  0  0
   21.0605  -17.9028  -16.5445 C   0  0  0  0  0  0  0  0  0  0  0  0
   21.5819  -17.3106  -17.6926 C   0  0  0  0  0  0  0  0  0  0  0  0
   22.9454  -17.2486  -17.8739 C   0  0  0  0  0  0  0  0  0  0  0  0
   23.7486  -17.7842  -16.8953 C   0  0  0  0  0  0  0  0  0  0  0  0
   23.2201  -18.3668  -15.7664 C   0  0  0  0  0  0  0  0  0  0  0  0
   21.8548  -18.4443  -15.5567 C   0  0  0  0  0  0  0  0  0  0  0  0
   19.6452  -21.3587  -13.5139 C   0  0  0  0  0  0  0  0  0  0  0  0
   19.1778  -21.9210  -14.5250 O   0  0  0  0  0  0  0  0  0  0  0  0
   18.7081  -20.9979  -12.5337 O   0  0  0  0  0  0  0  0  0  0  0  0
  2  1  1  1
  3  2  1  0
  4  2  1  0
  5  4  1  0
  5  6  1  6
  7  5  1  0
  7  8  2  0
 10  9  1  6
 10 12  1  0
 11 10  1  0
 12 13  1  1
 13  7  1  0
 14 12  1  0
 15 14  2  0
 16 14  1  0
 17 16  1  0
 17 28  1  0
 18 19  1  0
 17 18  1  6
 19 27  1  0
 20 21  1  0
 20 19  2  0
 21 22  1  0
 22 27  2  0
 22 23  1  0
 23 24  2  0
 24 25  1  0
 26 25  2  0
 27 26  1  0
 28 30  1  0
 29 28  2  0
M  END
$$$$
