LVW.pdb
     RDKit          3D

 30 31  0  0  1  0  0  0  0  0999 V2000
   29.0087  -15.4131  -17.0012 C   0  0  0  0  0  0  0  0  0  0  0  0
   28.3793  -16.7657  -16.7521 C   0  0  1  0  0  0  0  0  0  0  0  0
   29.0896  -17.7879  -17.5892 C   0  0  0  0  0  0  0  0  0  0  0  0
   28.3488  -17.1242  -15.2903 C   0  0  0  0  0  0  0  0  0  0  0  0
   27.7430  -18.4696  -15.0541 C   0  0  2  0  0  0  0  0  0  0  0  0
   27.1135  -18.9983  -16.2367 N   0  0  0  0  0  0  0  0  0  0  0  0
   26.8714  -18.5268  -13.8673 C   0  0  0  0  0  0  0  0  0  0  0  0
   26.6971  -17.5071  -13.1432 O   0  0  0  0  0  0  0  0  0  0  0  0
   23.3148  -19.5332  -13.8583 C   0  0  0  0  0  0  0  0  0  0  0  0
   24.0149  -20.4098  -12.8695 C   0  0  2  0  0  0  0  0  0  0  0  0
   23.0564  -20.6607  -11.6985 C   0  0  0  0  0  0  0  0  0  0  0  0
   25.3015  -19.8006  -12.3641 C   0  0  2  0  0  0  0  0  0  0  0  0
   26.2075  -19.7058  -13.4981 N   0  0  0  0  0  0  0  0  0  0  0  0
   25.9390  -20.6902  -11.3363 C   0  0  0  0  0  0  0  0  0  0  0  0
   26.5603  -21.7112  -11.6951 O   0  0  0  0  0  0  0  0  0  0  0  0
   25.8409  -20.3810   -9.9587 N   0  0  0  0  0  0  0  0  0  0  0  0
   26.1543  -21.4173   -8.9620 C   0  0  1  0  0  0  0  0  0  0  0  0
   27.5663  -21.2420   -8.5067 C   0  0  0  0  0  0  0  0  0  0  0  0
   27.7213  -20.2081   -7.4938 C   0  0  0  0  0  0  0  0  0  0  0  0
   27.2095  -18.9008   -7.5385 C   0  0  0  0  0  0  0  0  0  0  0  0
   27.5840  -18.2322   -6.4417 N   0  0  0  0  0  0  0  0  0  0  0  0
   28.3328  -19.0494   -5.6571 C   0  0  0  0  0  0  0  0  0  0  0  0
   28.9245  -18.8035   -4.4200 C   0  0  0  0  0  0  0  0  0  0  0  0
   29.6322  -19.8010   -3.7876 C   0  0  0  0  0  0  0  0  0  0  0  0
   29.7261  -21.0197   -4.4163 C   0  0  0  0  0  0  0  0  0  0  0  0
   29.1372  -21.2488   -5.6386 C   0  0  0  0  0  0  0  0  0  0  0  0
   28.4206  -20.2663   -6.2983 C   0  0  0  0  0  0  0  0  0  0  0  0
   25.1297  -21.4930   -7.9418 C   0  0  0  0  0  0  0  0  0  0  0  0
   25.1347  -22.2590   -6.9568 O   0  0  0  0  0  0  0  0  0  0  0  0
   24.0186  -20.6419   -8.0418 O   0  0  0  0  0  0  0  0  0  0  0  0
  2  1  1  1
  3  2  1  0
  4  2  1  0
  5  4  1  0
  5  6  1  6
  7  5  1  0
  7  8  2  0
 10  9  1  6
 10 12  1  0
 11 10  1  0
 12 13  1  6
 13  7  1  0
 14 12  1  0
 15 14  2  0
 16 14  1  0
 17 16  1  0
 17 28  1  0
 18 19  1  0
 17 18  1  1
 19 27  1  0
 20 21  1  0
 20 19  2  0
 21 22  1  0
 22 27  2  0
 22 23  1  0
 23 24  2  0
 24 25  1  0
 26 25  2  0
 27 26  1  0
 28 30  1  0
 29 28  2  0
M  END
$$$$
