LVW.pdb
     RDKit          3D

 30 31  0  0  1  0  0  0  0  0999 V2000
   30.5825  -21.8431  -19.4395 C   0  0  0  0  0  0  0  0  0  0  0  0
   29.8472  -22.3928  -18.2376 C   0  0  1  0  0  0  0  0  0  0  0  0
   30.6453  -23.5252  -17.6624 C   0  0  0  0  0  0  0  0  0  0  0  0
   29.5271  -21.3272  -17.2236 C   0  0  0  0  0  0  0  0  0  0  0  0
   28.9046  -21.8945  -15.9893 C   0  0  2  0  0  0  0  0  0  0  0  0
   27.7636  -22.7218  -16.2861 N   0  0  0  0  0  0  0  0  0  0  0  0
   28.6272  -20.8881  -14.9492 C   0  0  0  0  0  0  0  0  0  0  0  0
   28.9491  -19.6787  -15.1174 O   0  0  0  0  0  0  0  0  0  0  0  0
   25.3248  -20.3695  -13.8257 C   0  0  0  0  0  0  0  0  0  0  0  0
   26.4266  -19.4813  -13.3429 C   0  0  2  0  0  0  0  0  0  0  0  0
   26.9157  -18.6454  -14.5325 C   0  0  0  0  0  0  0  0  0  0  0  0
   27.5778  -20.2574  -12.7475 C   0  0  2  0  0  0  0  0  0  0  0  0
   28.0008  -21.2309  -13.7422 N   0  0  0  0  0  0  0  0  0  0  0  0
   27.1327  -21.0084  -11.5260 C   0  0  0  0  0  0  0  0  0  0  0  0
   27.6101  -22.1345  -11.2785 O   0  0  0  0  0  0  0  0  0  0  0  0
   26.1724  -20.4495  -10.6495 N   0  0  0  0  0  0  0  0  0  0  0  0
   25.8364  -21.1544   -9.4022 C   0  0  1  0  0  0  0  0  0  0  0  0
   27.0914  -21.4008   -8.6304 C   0  0  0  0  0  0  0  0  0  0  0  0
   27.4214  -20.3247   -7.7073 C   0  0  0  0  0  0  0  0  0  0  0  0
   27.1020  -18.9642   -7.8500 C   0  0  0  0  0  0  0  0  0  0  0  0
   27.5988  -18.2738   -6.8172 N   0  0  0  0  0  0  0  0  0  0  0  0
   28.2435  -19.1276   -5.9808 C   0  0  0  0  0  0  0  0  0  0  0  0
   28.8982  -18.8746   -4.7773 C   0  0  0  0  0  0  0  0  0  0  0  0
   29.4721  -19.9120   -4.0773 C   0  0  0  0  0  0  0  0  0  0  0  0
   29.3724  -21.1768   -4.6063 C   0  0  0  0  0  0  0  0  0  0  0  0
   28.7233  -21.4124   -5.7965 C   0  0  0  0  0  0  0  0  0  0  0  0
   28.1376  -20.3906   -6.5224 C   0  0  0  0  0  0  0  0  0  0  0  0
   24.7442  -20.5045   -8.7085 C   0  0  0  0  0  0  0  0  0  0  0  0
   24.2282  -19.4119   -9.0197 O   0  0  0  0  0  0  0  0  0  0  0  0
   24.1953  -21.1346   -7.5812 O   0  0  0  0  0  0  0  0  0  0  0  0
  2  1  1  6
  3  2  1  0
  4  2  1  0
  5  4  1  0
  5  6  1  6
  7  5  1  0
  7  8  2  0
 10  9  1  6
 10 12  1  0
 11 10  1  0
 12 13  1  6
 13  7  1  0
 14 12  1  0
 15 14  2  0
 16 14  1  0
 17 16  1  0
 17 28  1  0
 18 19  1  0
 17 18  1  1
 19 27  1  0
 20 21  1  0
 20 19  2  0
 21 22  1  0
 22 27  2  0
 22 23  1  0
 23 24  2  0
 24 25  1  0
 26 25  2  0
 27 26  1  0
 28 30  1  0
 29 28  2  0
M  END
$$$$
