LVW.pdb
     RDKit          3D

 30 31  0  0  1  0  0  0  0  0999 V2000
   25.2080  -36.9058  -15.7062 C   0  0  0  0  0  0  0  0  0  0  0  0
   25.0612  -35.4642  -15.2724 C   0  0  1  0  0  0  0  0  0  0  0  0
   23.6043  -35.1685  -15.0724 C   0  0  0  0  0  0  0  0  0  0  0  0
   25.8963  -35.1410  -14.0623 C   0  0  0  0  0  0  0  0  0  0  0  0
   25.7352  -33.7192  -13.6318 C   0  0  2  0  0  0  0  0  0  0  0  0
   26.1510  -32.7912  -14.6517 N   0  0  0  0  0  0  0  0  0  0  0  0
   26.3302  -33.4277  -12.3155 C   0  0  0  0  0  0  0  0  0  0  0  0
   27.5157  -33.0031  -12.2214 O   0  0  0  0  0  0  0  0  0  0  0  0
   25.5467  -32.1833   -7.6709 C   0  0  0  0  0  0  0  0  0  0  0  0
   25.1822  -32.4176   -9.1021 C   0  0  2  0  0  0  0  0  0  0  0  0
   23.7704  -33.0164   -9.1384 C   0  0  0  0  0  0  0  0  0  0  0  0
   26.1530  -33.3378   -9.8041 C   0  0  2  0  0  0  0  0  0  0  0  0
   25.6099  -33.6092  -11.1259 N   0  0  0  0  0  0  0  0  0  0  0  0
   26.2648  -34.6445   -9.0732 C   0  0  0  0  0  0  0  0  0  0  0  0
   26.1186  -35.7187   -9.6912 O   0  0  0  0  0  0  0  0  0  0  0  0
   26.5345  -34.6697   -7.6841 N   0  0  0  0  0  0  0  0  0  0  0  0
   26.6214  -35.9637   -6.9888 C   0  0  1  0  0  0  0  0  0  0  0  0
   27.5169  -36.8730   -7.7651 C   0  0  0  0  0  0  0  0  0  0  0  0
   27.5959  -38.2164   -7.2101 C   0  0  0  0  0  0  0  0  0  0  0  0
   26.5756  -39.1816   -7.1906 C   0  0  0  0  0  0  0  0  0  0  0  0
   27.0097  -40.2840   -6.5687 N   0  0  0  0  0  0  0  0  0  0  0  0
   28.2931  -40.0922   -6.1684 C   0  0  0  0  0  0  0  0  0  0  0  0
   29.1593  -40.9564   -5.5023 C   0  0  0  0  0  0  0  0  0  0  0  0
   30.4427  -40.5516   -5.2112 C   0  0  0  0  0  0  0  0  0  0  0  0
   30.8210  -39.2879   -5.5978 C   0  0  0  0  0  0  0  0  0  0  0  0
   29.9548  -38.4443   -6.2546 C   0  0  0  0  0  0  0  0  0  0  0  0
   28.6597  -38.8226   -6.5602 C   0  0  0  0  0  0  0  0  0  0  0  0
   26.9104  -35.7861   -5.5811 C   0  0  0  0  0  0  0  0  0  0  0  0
   26.6648  -36.6086   -4.6755 O   0  0  0  0  0  0  0  0  0  0  0  0
   27.5208  -34.5926   -5.1665 O   0  0  0  0  0  0  0  0  0  0  0  0
  2  1  1  1
  3  2  1  0
  4  2  1  0
  5  4  1  0
  5  6  1  6
  7  5  1  0
  7  8  2  0
 10  9  1  1
 10 12  1  0
 11 10  1  0
 12 13  1  6
 13  7  1  0
 14 12  1  0
 15 14  2  0
 16 14  1  0
 17 16  1  0
 17 28  1  0
 18 19  1  0
 17 18  1  6
 19 27  1  0
 20 21  1  0
 20 19  2  0
 21 22  1  0
 22 27  2  0
 22 23  1  0
 23 24  2  0
 24 25  1  0
 26 25  2  0
 27 26  1  0
 28 30  1  0
 29 28  2  0
M  END
$$$$
