LVW.pdb
     RDKit          3D

 30 31  0  0  1  0  0  0  0  0999 V2000
   29.3492  -18.6285   -4.3591 C   0  0  0  0  0  0  0  0  0  0  0  0
   28.6267  -19.7042   -5.1392 C   0  0  1  0  0  0  0  0  0  0  0  0
   27.7804  -20.4998   -4.1900 C   0  0  0  0  0  0  0  0  0  0  0  0
   27.8424  -19.1456   -6.2963 C   0  0  0  0  0  0  0  0  0  0  0  0
   27.2450  -20.2225   -7.1425 C   0  0  2  0  0  0  0  0  0  0  0  0
   27.8365  -21.5099   -6.8829 N   0  0  0  0  0  0  0  0  0  0  0  0
   27.2002  -19.8920   -8.5779 C   0  0  0  0  0  0  0  0  0  0  0  0
   26.9090  -18.7255   -8.9641 O   0  0  0  0  0  0  0  0  0  0  0  0
   29.9864  -20.4760  -10.9283 C   0  0  0  0  0  0  0  0  0  0  0  0
   28.7816  -21.1126  -11.5443 C   0  0  2  0  0  0  0  0  0  0  0  0
   28.8448  -20.8773  -13.0588 C   0  0  0  0  0  0  0  0  0  0  0  0
   27.4884  -20.5640  -10.9887 C   0  0  2  0  0  0  0  0  0  0  0  0
   27.4762  -20.8515   -9.5628 N   0  0  0  0  0  0  0  0  0  0  0  0
   26.3104  -21.2572  -11.6100 C   0  0  0  0  0  0  0  0  0  0  0  0
   25.9354  -22.3633  -11.1707 O   0  0  0  0  0  0  0  0  0  0  0  0
   25.6191  -20.6660  -12.6943 N   0  0  0  0  0  0  0  0  0  0  0  0
   24.4625  -21.3629  -13.2792 C   0  0  1  0  0  0  0  0  0  0  0  0
   23.5189  -21.7411  -12.1846 C   0  0  0  0  0  0  0  0  0  0  0  0
   22.5043  -20.7305  -11.9233 C   0  0  0  0  0  0  0  0  0  0  0  0
   22.0098  -19.7783  -12.8299 C   0  0  0  0  0  0  0  0  0  0  0  0
   21.1093  -18.9996  -12.2193 N   0  0  0  0  0  0  0  0  0  0  0  0
   20.9802  -19.3980  -10.9275 C   0  0  0  0  0  0  0  0  0  0  0  0
   20.1572  -18.9029   -9.9183 C   0  0  0  0  0  0  0  0  0  0  0  0
   20.1775  -19.4834   -8.6700 C   0  0  0  0  0  0  0  0  0  0  0  0
   21.0252  -20.5468   -8.4696 C   0  0  0  0  0  0  0  0  0  0  0  0
   21.8332  -21.0253   -9.4754 C   0  0  0  0  0  0  0  0  0  0  0  0
   21.8352  -20.4626  -10.7392 C   0  0  0  0  0  0  0  0  0  0  0  0
   23.9196  -20.6292  -14.4032 C   0  0  0  0  0  0  0  0  0  0  0  0
   24.1885  -19.4483  -14.7033 O   0  0  0  0  0  0  0  0  0  0  0  0
   23.0064  -21.2765  -15.2494 O   0  0  0  0  0  0  0  0  0  0  0  0
  2  1  1  1
  3  2  1  0
  4  2  1  0
  5  4  1  0
  5  6  1  6
  7  5  1  0
  7  8  2  0
 10  9  1  1
 10 12  1  0
 11 10  1  0
 12 13  1  1
 13  7  1  0
 14 12  1  0
 15 14  2  0
 16 14  1  0
 17 16  1  0
 17 28  1  0
 18 19  1  0
 17 18  1  1
 19 27  1  0
 20 21  1  0
 20 19  2  0
 21 22  1  0
 22 27  2  0
 22 23  1  0
 23 24  2  0
 24 25  1  0
 26 25  2  0
 27 26  1  0
 28 30  1  0
 29 28  2  0
M  END
$$$$
