LVW.pdb
     RDKit          3D

 30 31  0  0  1  0  0  0  0  0999 V2000
   24.7576  -16.2387  -17.8256 C   0  0  0  0  0  0  0  0  0  0  0  0
   24.3161  -17.6236  -17.4074 C   0  0  1  0  0  0  0  0  0  0  0  0
   25.5192  -18.5182  -17.3614 C   0  0  0  0  0  0  0  0  0  0  0  0
   23.5432  -17.6141  -16.1156 C   0  0  0  0  0  0  0  0  0  0  0  0
   23.4033  -18.9835  -15.5343 C   0  0  2  0  0  0  0  0  0  0  0  0
   22.4944  -19.8057  -16.2908 N   0  0  0  0  0  0  0  0  0  0  0  0
   23.1116  -18.9872  -14.0898 C   0  0  0  0  0  0  0  0  0  0  0  0
   22.5060  -18.0195  -13.5499 O   0  0  0  0  0  0  0  0  0  0  0  0
   20.7512  -20.7736  -12.7402 C   0  0  0  0  0  0  0  0  0  0  0  0
   21.9113  -21.2253  -11.9117 C   0  0  2  0  0  0  0  0  0  0  0  0
   21.4050  -21.4744  -10.4853 C   0  0  0  0  0  0  0  0  0  0  0  0
   23.0370  -20.2181  -11.8930 C   0  0  2  0  0  0  0  0  0  0  0  0
   23.4922  -20.0557  -13.2650 N   0  0  0  0  0  0  0  0  0  0  0  0
   24.1910  -20.7309  -11.0809 C   0  0  0  0  0  0  0  0  0  0  0  0
   24.7348  -21.8122  -11.3844 O   0  0  0  0  0  0  0  0  0  0  0  0
   24.6692  -19.9969   -9.9693 N   0  0  0  0  0  0  0  0  0  0  0  0
   25.7791  -20.5391   -9.1695 C   0  0  1  0  0  0  0  0  0  0  0  0
   26.7715  -19.4516   -8.9160 C   0  0  0  0  0  0  0  0  0  0  0  0
   27.9310  -19.8949   -8.1558 C   0  0  0  0  0  0  0  0  0  0  0  0
   28.9164  -20.8040   -8.5749 C   0  0  0  0  0  0  0  0  0  0  0  0
   29.8068  -20.9880   -7.5932 N   0  0  0  0  0  0  0  0  0  0  0  0
   29.4525  -20.2297   -6.5239 C   0  0  0  0  0  0  0  0  0  0  0  0
   30.0779  -20.0814   -5.2879 C   0  0  0  0  0  0  0  0  0  0  0  0
   29.5442  -19.2297   -4.3468 C   0  0  0  0  0  0  0  0  0  0  0  0
   28.3953  -18.5496   -4.6739 C   0  0  0  0  0  0  0  0  0  0  0  0
   27.7876  -18.7061   -5.8985 C   0  0  0  0  0  0  0  0  0  0  0  0
   28.2999  -19.5546   -6.8636 C   0  0  0  0  0  0  0  0  0  0  0  0
   25.2904  -21.2759   -8.0229 C   0  0  0  0  0  0  0  0  0  0  0  0
   24.1664  -21.1470   -7.4966 O   0  0  0  0  0  0  0  0  0  0  0  0
   26.1328  -22.2271   -7.4274 O   0  0  0  0  0  0  0  0  0  0  0  0
  2  1  1  1
  3  2  1  0
  4  2  1  0
  5  4  1  0
  5  6  1  6
  7  5  1  0
  7  8  2  0
 10  9  1  6
 10 12  1  0
 11 10  1  0
 12 13  1  6
 13  7  1  0
 14 12  1  0
 15 14  2  0
 16 14  1  0
 17 16  1  0
 17 28  1  0
 18 19  1  0
 17 18  1  1
 19 27  1  0
 20 21  1  0
 20 19  2  0
 21 22  1  0
 22 27  2  0
 22 23  1  0
 23 24  2  0
 24 25  1  0
 26 25  2  0
 27 26  1  0
 28 30  1  0
 29 28  2  0
M  END
$$$$
