LVW.pdb
     RDKit          3D

 30 31  0  0  1  0  0  0  0  0999 V2000
   29.3595  -16.1154  -18.3706 C   0  0  0  0  0  0  0  0  0  0  0  0
   29.1953  -17.4556  -17.6889 C   0  0  1  0  0  0  0  0  0  0  0  0
   30.5514  -17.9686  -17.3046 C   0  0  0  0  0  0  0  0  0  0  0  0
   28.2406  -17.3954  -16.5266 C   0  0  0  0  0  0  0  0  0  0  0  0
   28.2675  -18.6476  -15.7117 C   0  0  2  0  0  0  0  0  0  0  0  0
   28.0884  -19.8266  -16.5193 N   0  0  0  0  0  0  0  0  0  0  0  0
   27.3713  -18.6130  -14.5424 C   0  0  0  0  0  0  0  0  0  0  0  0
   27.3465  -17.6097  -13.7761 O   0  0  0  0  0  0  0  0  0  0  0  0
   23.7333  -19.1903  -14.8853 C   0  0  0  0  0  0  0  0  0  0  0  0
   24.2093  -20.0997  -13.7978 C   0  0  2  0  0  0  0  0  0  0  0  0
   23.1178  -20.1617  -12.7218 C   0  0  0  0  0  0  0  0  0  0  0  0
   25.5125  -19.6402  -13.1874 C   0  0  2  0  0  0  0  0  0  0  0  0
   26.5185  -19.6837  -14.2370 N   0  0  0  0  0  0  0  0  0  0  0  0
   25.9432  -20.5763  -12.0953 C   0  0  0  0  0  0  0  0  0  0  0  0
   26.1692  -21.7756  -12.3558 O   0  0  0  0  0  0  0  0  0  0  0  0
   26.0949  -20.1099  -10.7678 N   0  0  0  0  0  0  0  0  0  0  0  0
   26.1846  -21.0820   -9.6667 C   0  0  1  0  0  0  0  0  0  0  0  0
   27.4432  -20.8339   -8.9012 C   0  0  0  0  0  0  0  0  0  0  0  0
   27.2353  -20.7442   -7.4633 C   0  0  0  0  0  0  0  0  0  0  0  0
   26.1689  -21.2905   -6.7301 C   0  0  0  0  0  0  0  0  0  0  0  0
   26.3022  -20.9743   -5.4368 N   0  0  0  0  0  0  0  0  0  0  0  0
   27.4273  -20.2313   -5.2746 C   0  0  0  0  0  0  0  0  0  0  0  0
   27.9815  -19.6913   -4.1161 C   0  0  0  0  0  0  0  0  0  0  0  0
   29.1577  -18.9789   -4.1859 C   0  0  0  0  0  0  0  0  0  0  0  0
   29.7455  -18.8284   -5.4193 C   0  0  0  0  0  0  0  0  0  0  0  0
   29.1868  -19.3667   -6.5557 C   0  0  0  0  0  0  0  0  0  0  0  0
   28.0060  -20.0866   -6.5172 C   0  0  0  0  0  0  0  0  0  0  0  0
   24.9483  -21.1413   -8.9153 C   0  0  0  0  0  0  0  0  0  0  0  0
   24.0624  -20.2628   -8.8960 O   0  0  0  0  0  0  0  0  0  0  0  0
   24.6946  -22.2751   -8.1285 O   0  0  0  0  0  0  0  0  0  0  0  0
  2  1  1  1
  3  2  1  0
  4  2  1  0
  5  4  1  0
  5  6  1  6
  7  5  1  0
  7  8  2  0
 10  9  1  6
 10 12  1  0
 11 10  1  0
 12 13  1  6
 13  7  1  0
 14 12  1  0
 15 14  2  0
 16 14  1  0
 17 16  1  0
 17 28  1  0
 18 19  1  0
 17 18  1  1
 19 27  1  0
 20 21  1  0
 20 19  2  0
 21 22  1  0
 22 27  2  0
 22 23  1  0
 23 24  2  0
 24 25  1  0
 26 25  2  0
 27 26  1  0
 28 30  1  0
 29 28  2  0
M  END
$$$$
