LVW.pdb
     RDKit          3D

 30 31  0  0  1  0  0  0  0  0999 V2000
   30.1212  -24.4960  -16.6447 C   0  0  0  0  0  0  0  0  0  0  0  0
   28.7751  -23.9114  -17.0107 C   0  0  1  0  0  0  0  0  0  0  0  0
   27.7596  -25.0154  -17.0256 C   0  0  0  0  0  0  0  0  0  0  0  0
   28.3833  -22.7671  -16.1144 C   0  0  0  0  0  0  0  0  0  0  0  0
   26.9970  -22.2840  -16.3930 C   0  0  2  0  0  0  0  0  0  0  0  0
   26.8239  -21.8898  -17.7674 N   0  0  0  0  0  0  0  0  0  0  0  0
   26.5222  -21.2645  -15.4408 C   0  0  0  0  0  0  0  0  0  0  0  0
   27.0799  -20.1336  -15.3728 O   0  0  0  0  0  0  0  0  0  0  0  0
   23.2915  -19.7173  -15.4476 C   0  0  0  0  0  0  0  0  0  0  0  0
   23.4362  -20.3130  -14.0836 C   0  0  2  0  0  0  0  0  0  0  0  0
   22.7366  -19.3825  -13.0847 C   0  0  0  0  0  0  0  0  0  0  0  0
   24.8807  -20.5070  -13.6863 C   0  0  2  0  0  0  0  0  0  0  0  0
   25.4422  -21.5081  -14.5799 N   0  0  0  0  0  0  0  0  0  0  0  0
   24.9764  -21.0338  -12.2836 C   0  0  0  0  0  0  0  0  0  0  0  0
   24.4231  -22.1113  -11.9836 O   0  0  0  0  0  0  0  0  0  0  0  0
   25.6904  -20.3166  -11.2943 N   0  0  0  0  0  0  0  0  0  0  0  0
   25.6503  -20.7785   -9.8977 C   0  0  1  0  0  0  0  0  0  0  0  0
   26.9023  -20.3459   -9.2070 C   0  0  0  0  0  0  0  0  0  0  0  0
   26.9147  -20.6598   -7.7856 C   0  0  0  0  0  0  0  0  0  0  0  0
   26.2344  -21.7108   -7.1486 C   0  0  0  0  0  0  0  0  0  0  0  0
   26.4616  -21.6617   -5.8309 N   0  0  0  0  0  0  0  0  0  0  0  0
   27.2756  -20.6093   -5.5592 C   0  0  0  0  0  0  0  0  0  0  0  0
   27.7938  -20.1721   -4.3421 C   0  0  0  0  0  0  0  0  0  0  0  0
   28.6276  -19.0771   -4.3051 C   0  0  0  0  0  0  0  0  0  0  0  0
   28.9182  -18.4504   -5.4936 C   0  0  0  0  0  0  0  0  0  0  0  0
   28.3989  -18.8926   -6.6886 C   0  0  0  0  0  0  0  0  0  0  0  0
   27.5583  -19.9892   -6.7573 C   0  0  0  0  0  0  0  0  0  0  0  0
   24.3910  -20.4408   -9.2678 C   0  0  0  0  0  0  0  0  0  0  0  0
   23.7788  -19.3607   -9.3916 O   0  0  0  0  0  0  0  0  0  0  0  0
   23.7793  -21.3923   -8.4375 O   0  0  0  0  0  0  0  0  0  0  0  0
  2  1  1  1
  3  2  1  0
  4  2  1  0
  5  4  1  0
  5  6  1  6
  7  5  1  0
  7  8  2  0
 10  9  1  6
 10 12  1  0
 11 10  1  0
 12 13  1  6
 13  7  1  0
 14 12  1  0
 15 14  2  0
 16 14  1  0
 17 16  1  0
 17 28  1  0
 18 19  1  0
 17 18  1  1
 19 27  1  0
 20 21  1  0
 20 19  2  0
 21 22  1  0
 22 27  2  0
 22 23  1  0
 23 24  2  0
 24 25  1  0
 26 25  2  0
 27 26  1  0
 28 30  1  0
 29 28  2  0
M  END
$$$$
