LVW.pdb
     RDKit          3D

 30 31  0  0  1  0  0  0  0  0999 V2000
   28.8731  -15.0041  -16.3875 C   0  0  0  0  0  0  0  0  0  0  0  0
   28.3934  -16.4372  -16.4488 C   0  0  1  0  0  0  0  0  0  0  0  0
   29.5849  -17.3371  -16.5925 C   0  0  0  0  0  0  0  0  0  0  0  0
   27.5220  -16.8016  -15.2767 C   0  0  0  0  0  0  0  0  0  0  0  0
   27.1159  -18.2394  -15.3038 C   0  0  2  0  0  0  0  0  0  0  0  0
   26.5942  -18.6335  -16.5871 N   0  0  0  0  0  0  0  0  0  0  0  0
   26.2390  -18.6286  -14.1852 C   0  0  0  0  0  0  0  0  0  0  0  0
   25.4468  -17.7947  -13.6641 O   0  0  0  0  0  0  0  0  0  0  0  0
   23.7856  -21.1314  -14.5437 C   0  0  0  0  0  0  0  0  0  0  0  0
   24.5341  -21.5531  -13.3198 C   0  0  2  0  0  0  0  0  0  0  0  0
   23.5229  -22.1373  -12.3251 C   0  0  0  0  0  0  0  0  0  0  0  0
   25.2890  -20.4117  -12.6802 C   0  0  2  0  0  0  0  0  0  0  0  0
   26.2500  -19.9288  -13.6596 N   0  0  0  0  0  0  0  0  0  0  0  0
   26.0534  -20.8907  -11.4800 C   0  0  0  0  0  0  0  0  0  0  0  0
   27.2132  -21.3310  -11.6149 O   0  0  0  0  0  0  0  0  0  0  0  0
   25.4684  -20.8483  -10.1921 N   0  0  0  0  0  0  0  0  0  0  0  0
   26.1900  -21.4349   -9.0516 C   0  0  1  0  0  0  0  0  0  0  0  0
   27.5282  -20.7811   -8.9354 C   0  0  0  0  0  0  0  0  0  0  0  0
   27.6200  -19.8496   -7.8207 C   0  0  0  0  0  0  0  0  0  0  0  0
   26.8959  -18.6571   -7.6569 C   0  0  0  0  0  0  0  0  0  0  0  0
   27.2730  -18.0526   -6.5243 N   0  0  0  0  0  0  0  0  0  0  0  0
   28.2296  -18.8018   -5.9179 C   0  0  0  0  0  0  0  0  0  0  0  0
   28.9053  -18.5870   -4.7187 C   0  0  0  0  0  0  0  0  0  0  0  0
   29.8348  -19.5037   -4.2812 C   0  0  0  0  0  0  0  0  0  0  0  0
   30.0602  -20.6125   -5.0616 C   0  0  0  0  0  0  0  0  0  0  0  0
   29.3860  -20.8119   -6.2445 C   0  0  0  0  0  0  0  0  0  0  0  0
   28.4473  -19.9086   -6.7100 C   0  0  0  0  0  0  0  0  0  0  0  0
   25.3601  -21.4695   -7.8656 C   0  0  0  0  0  0  0  0  0  0  0  0
   25.6029  -22.1099   -6.8225 O   0  0  0  0  0  0  0  0  0  0  0  0
   24.1694  -20.7271   -7.8574 O   0  0  0  0  0  0  0  0  0  0  0  0
  2  1  1  1
  3  2  1  0
  4  2  1  0
  5  4  1  0
  5  6  1  6
  7  5  1  0
  7  8  2  0
 10  9  1  6
 10 12  1  0
 11 10  1  0
 12 13  1  6
 13  7  1  0
 14 12  1  0
 15 14  2  0
 16 14  1  0
 17 16  1  0
 17 28  1  0
 18 19  1  0
 17 18  1  1
 19 27  1  0
 20 21  1  0
 20 19  2  0
 21 22  1  0
 22 27  2  0
 22 23  1  0
 23 24  2  0
 24 25  1  0
 26 25  2  0
 27 26  1  0
 28 30  1  0
 29 28  2  0
M  END
$$$$
