HCK.pdb
     RDKit          3D

 26 26  0  0  1  0  0  0  0  0999 V2000
    7.9152  -19.1819   17.4376 N   0  0  0  0  0  0  0  0  0  0  0  0
    8.5668  -18.1828   18.2428 C   0  0  1  0  0  0  0  0  0  0  0  0
    8.6166  -16.8597   17.5411 C   0  0  0  0  0  0  0  0  0  0  0  0
    9.4718  -16.8542   16.3321 C   0  0  0  0  0  0  0  0  0  0  0  0
   10.8133  -16.5712   16.3693 C   0  0  0  0  0  0  0  0  0  0  0  0
   11.3179  -16.6417   15.1245 N   0  0  0  0  0  0  0  0  0  0  0  0
   10.2935  -16.9682   14.3082 C   0  0  0  0  0  0  0  0  0  0  0  0
    9.1833  -17.0945   15.0409 N   0  0  0  0  0  0  0  0  0  0  0  0
    7.8937  -18.0378   19.5689 C   0  0  0  0  0  0  0  0  0  0  0  0
    6.7237  -18.4917   19.6774 O   0  0  0  0  0  0  0  0  0  0  0  0
    8.5256  -17.4226   20.6691 N   0  0  0  0  0  0  0  0  0  0  0  0
    8.0294  -17.6176   21.9921 C   0  0  1  0  0  0  0  0  0  0  0  0
    7.9939  -19.0903   22.3009 C   0  0  0  0  0  0  0  0  0  0  0  0
    9.6502  -19.8135   22.3789 S   0  0  0  0  0  0  0  0  0  0  0  0
    8.7591  -16.8161   23.0080 C   0  0  0  0  0  0  0  0  0  0  0  0
   10.0181  -16.6300   22.8609 O   0  0  0  0  0  0  0  0  0  0  0  0
    8.1885  -16.2224   24.1548 N   0  0  0  0  0  0  0  0  0  0  0  0
    8.8851  -15.3600   25.0469 C   0  0  1  0  0  0  0  0  0  0  0  0
    8.0979  -14.4105   25.8618 C   0  0  0  0  0  0  0  0  0  0  0  0
    7.6327  -13.1658   25.1652 C   0  0  0  0  0  0  0  0  0  0  0  0
    6.7643  -12.3714   26.1170 C   0  0  0  0  0  0  0  0  0  0  0  0
    6.2591  -11.0842   25.5501 C   0  0  0  0  0  0  0  0  0  0  0  0
    5.3323  -10.3969   26.4252 N   0  0  0  0  0  0  0  0  0  0  0  0
    9.6972  -16.1814   26.0423 C   0  0  0  0  0  0  0  0  0  0  0  0
    9.4759  -17.4022   26.1684 O   0  0  0  0  0  0  0  0  0  0  0  0
   10.6753  -15.5700   26.8016 O   0  0  0  0  0  0  0  0  0  0  0  0
  2  1  1  6
  2  9  1  0
  3  2  1  0
  3  4  1  0
  4  5  2  0
  4  8  1  0
  5  6  1  0
  6  7  1  0
  8  7  2  0
  9 10  2  0
 11  9  1  0
 11 12  1  0
 12 15  1  0
 12 13  1  1
 14 13  1  0
 15 16  2  0
 17 15  1  0
 17 18  1  0
 18 24  1  0
 18 19  1  1
 20 19  1  0
 21 22  1  0
 21 20  1  0
 22 23  1  0
 24 25  2  0
 24 26  1  0
M  END
$$$$
