HCK.pdb
     RDKit          3D

 26 26  0  0  1  0  0  0  0  0999 V2000
   10.9844  -14.3114   19.5752 N   0  0  0  0  0  0  0  0  0  0  0  0
    9.8074  -14.3549   20.4022 C   0  0  1  0  0  0  0  0  0  0  0  0
    8.7472  -15.2273   19.8018 C   0  0  0  0  0  0  0  0  0  0  0  0
    8.2968  -14.7872   18.4615 C   0  0  0  0  0  0  0  0  0  0  0  0
    7.8483  -13.5166   18.2059 C   0  0  0  0  0  0  0  0  0  0  0  0
    7.5100  -13.4164   16.9079 N   0  0  0  0  0  0  0  0  0  0  0  0
    7.7461  -14.6232   16.3509 C   0  0  0  0  0  0  0  0  0  0  0  0
    8.2196  -15.4457   17.2916 N   0  0  0  0  0  0  0  0  0  0  0  0
   10.1371  -14.8208   21.7831 C   0  0  0  0  0  0  0  0  0  0  0  0
   11.2427  -15.4008   21.9502 O   0  0  0  0  0  0  0  0  0  0  0  0
    9.2608  -14.6273   22.8707 N   0  0  0  0  0  0  0  0  0  0  0  0
    9.6790  -14.9281   24.2008 C   0  0  1  0  0  0  0  0  0  0  0  0
    8.8049  -14.1900   25.1788 C   0  0  0  0  0  0  0  0  0  0  0  0
    7.0464  -14.5152   24.9063 S   0  0  0  0  0  0  0  0  0  0  0  0
    9.7631  -16.3876   24.4650 C   0  0  0  0  0  0  0  0  0  0  0  0
    8.7528  -17.1253   24.1886 O   0  0  0  0  0  0  0  0  0  0  0  0
   10.8771  -17.0641   25.0079 N   0  0  0  0  0  0  0  0  0  0  0  0
   10.8960  -18.4474   25.3409 C   0  0  1  0  0  0  0  0  0  0  0  0
   12.1476  -19.2036   25.1244 C   0  0  0  0  0  0  0  0  0  0  0  0
   12.1390  -20.1912   23.9950 C   0  0  0  0  0  0  0  0  0  0  0  0
   12.7834  -19.5511   22.7842 C   0  0  0  0  0  0  0  0  0  0  0  0
   12.7918  -20.4200   21.5682 C   0  0  0  0  0  0  0  0  0  0  0  0
   13.3337  -19.7622   20.3973 N   0  0  0  0  0  0  0  0  0  0  0  0
   10.5509  -18.6363   26.8141 C   0  0  0  0  0  0  0  0  0  0  0  0
   10.4237  -17.6418   27.5557 O   0  0  0  0  0  0  0  0  0  0  0  0
   10.3808  -19.9091   27.3224 O   0  0  0  0  0  0  0  0  0  0  0  0
  2  1  1  6
  2  9  1  0
  3  2  1  0
  3  4  1  0
  4  5  2  0
  4  8  1  0
  5  6  1  0
  6  7  1  0
  8  7  2  0
  9 10  2  0
 11  9  1  0
 11 12  1  0
 12 15  1  0
 12 13  1  1
 14 13  1  0
 15 16  2  0
 17 15  1  0
 17 18  1  0
 18 24  1  0
 18 19  1  1
 20 19  1  0
 21 22  1  0
 21 20  1  0
 22 23  1  0
 24 25  2  0
 24 26  1  0
M  END
$$$$
