HCK.pdb
     RDKit          3D

 26 26  0  0  1  0  0  0  0  0999 V2000
   10.0847  -14.8062   20.8356 N   0  0  0  0  0  0  0  0  0  0  0  0
    8.9574  -14.2774   21.5572 C   0  0  1  0  0  0  0  0  0  0  0  0
    7.6663  -14.8432   21.0488 C   0  0  0  0  0  0  0  0  0  0  0  0
    7.4227  -14.5831   19.6114 C   0  0  0  0  0  0  0  0  0  0  0  0
    7.5051  -13.3319   19.0559 C   0  0  0  0  0  0  0  0  0  0  0  0
    7.2322  -13.4096   17.7411 N   0  0  0  0  0  0  0  0  0  0  0  0
    6.9787  -14.7082   17.4732 C   0  0  0  0  0  0  0  0  0  0  0  0
    7.0943  -15.4109   18.6038 N   0  0  0  0  0  0  0  0  0  0  0  0
    9.0897  -14.5322   23.0236 C   0  0  0  0  0  0  0  0  0  0  0  0
    9.8697  -15.4536   23.3833 O   0  0  0  0  0  0  0  0  0  0  0  0
    8.3806  -13.7817   23.9837 N   0  0  0  0  0  0  0  0  0  0  0  0
    8.7101  -13.8797   25.3680 C   0  0  1  0  0  0  0  0  0  0  0  0
    7.9035  -12.8752   26.1465 C   0  0  0  0  0  0  0  0  0  0  0  0
    8.2100  -12.9824   27.9261 S   0  0  0  0  0  0  0  0  0  0  0  0
    8.5983  -15.2649   25.8930 C   0  0  0  0  0  0  0  0  0  0  0  0
    7.4838  -15.8847   25.7701 O   0  0  0  0  0  0  0  0  0  0  0  0
    9.6267  -15.9887   26.5348 N   0  0  0  0  0  0  0  0  0  0  0  0
    9.4587  -17.2688   27.1331 C   0  0  1  0  0  0  0  0  0  0  0  0
    9.9863  -18.4509   26.4192 C   0  0  0  0  0  0  0  0  0  0  0  0
    9.9452  -18.3936   24.9206 C   0  0  0  0  0  0  0  0  0  0  0  0
   10.6536  -19.6117   24.3677 C   0  0  0  0  0  0  0  0  0  0  0  0
   10.6970  -19.6655   22.8749 C   0  0  0  0  0  0  0  0  0  0  0  0
   11.5542  -20.7148   22.3636 N   0  0  0  0  0  0  0  0  0  0  0  0
   10.1135  -17.2935   28.5099 C   0  0  0  0  0  0  0  0  0  0  0  0
   10.0169  -18.3096   29.2265 O   0  0  0  0  0  0  0  0  0  0  0  0
   10.8113  -16.1896   28.9590 O   0  0  0  0  0  0  0  0  0  0  0  0
  2  1  1  6
  2  9  1  0
  3  2  1  0
  3  4  1  0
  4  5  2  0
  4  8  1  0
  5  6  1  0
  6  7  1  0
  8  7  2  0
  9 10  2  0
 11  9  1  0
 11 12  1  0
 12 15  1  0
 12 13  1  1
 14 13  1  0
 15 16  2  0
 17 15  1  0
 17 18  1  0
 18 24  1  0
 18 19  1  6
 20 19  1  0
 21 22  1  0
 21 20  1  0
 22 23  1  0
 24 25  2  0
 24 26  1  0
M  END
$$$$
