HCK.pdb
     RDKit          3D

 26 26  0  0  1  0  0  0  0  0999 V2000
   10.6775  -14.0105   20.2089 N   0  0  0  0  0  0  0  0  0  0  0  0
    9.4078  -14.1220   20.8772 C   0  0  1  0  0  0  0  0  0  0  0  0
    8.5113  -15.1071   20.1906 C   0  0  0  0  0  0  0  0  0  0  0  0
    8.1100  -14.7013   18.8241 C   0  0  0  0  0  0  0  0  0  0  0  0
    8.5720  -13.5602   18.2196 C   0  0  0  0  0  0  0  0  0  0  0  0
    8.0343  -13.4582   16.9909 N   0  0  0  0  0  0  0  0  0  0  0  0
    7.2359  -14.5343   16.8259 C   0  0  0  0  0  0  0  0  0  0  0  0
    7.2848  -15.2797   17.9338 N   0  0  0  0  0  0  0  0  0  0  0  0
    9.5864  -14.5005   22.3116 C   0  0  0  0  0  0  0  0  0  0  0  0
   10.6665  -15.0641   22.6318 O   0  0  0  0  0  0  0  0  0  0  0  0
    8.5989  -14.2444   23.2849 N   0  0  0  0  0  0  0  0  0  0  0  0
    8.8354  -14.5553   24.6567 C   0  0  1  0  0  0  0  0  0  0  0  0
    7.8032  -13.8688   25.5103 C   0  0  0  0  0  0  0  0  0  0  0  0
    6.2111  -13.7118   24.6659 S   0  0  0  0  0  0  0  0  0  0  0  0
    8.9381  -16.0156   24.9098 C   0  0  0  0  0  0  0  0  0  0  0  0
    7.9957  -16.7816   24.5020 O   0  0  0  0  0  0  0  0  0  0  0  0
   10.0006  -16.6640   25.5761 N   0  0  0  0  0  0  0  0  0  0  0  0
   10.0332  -18.0539   25.8791 C   0  0  1  0  0  0  0  0  0  0  0  0
   11.1111  -18.8751   25.2882 C   0  0  0  0  0  0  0  0  0  0  0  0
   11.1356  -20.3220   25.6845 C   0  0  0  0  0  0  0  0  0  0  0  0
   12.3115  -20.9920   25.0068 C   0  0  0  0  0  0  0  0  0  0  0  0
   12.4443  -22.4479   25.3167 C   0  0  0  0  0  0  0  0  0  0  0  0
   13.5237  -23.0913   24.5968 N   0  0  0  0  0  0  0  0  0  0  0  0
   10.1390  -18.2591   27.3863 C   0  0  0  0  0  0  0  0  0  0  0  0
   10.3899  -17.2899   28.1300 O   0  0  0  0  0  0  0  0  0  0  0  0
    9.9571  -19.5185   27.9230 O   0  0  0  0  0  0  0  0  0  0  0  0
  2  1  1  6
  2  9  1  0
  3  2  1  0
  3  4  1  0
  4  5  2  0
  4  8  1  0
  5  6  1  0
  6  7  1  0
  8  7  2  0
  9 10  2  0
 11  9  1  0
 11 12  1  0
 12 15  1  0
 12 13  1  1
 14 13  1  0
 15 16  2  0
 17 15  1  0
 17 18  1  0
 18 24  1  0
 18 19  1  6
 20 19  1  0
 21 22  1  0
 21 20  1  0
 22 23  1  0
 24 25  2  0
 24 26  1  0
M  END
$$$$
