HCK.pdb
     RDKit          3D

 26 26  0  0  1  0  0  0  0  0999 V2000
    8.9271  -13.3213   17.8938 N   0  0  0  0  0  0  0  0  0  0  0  0
    9.4435  -14.2608   18.8539 C   0  0  1  0  0  0  0  0  0  0  0  0
   10.9270  -14.1224   19.0135 C   0  0  0  0  0  0  0  0  0  0  0  0
   11.7090  -14.7729   17.9372 C   0  0  0  0  0  0  0  0  0  0  0  0
   11.1259  -15.4598   16.9031 C   0  0  0  0  0  0  0  0  0  0  0  0
   12.0844  -15.9368   16.0889 N   0  0  0  0  0  0  0  0  0  0  0  0
   13.2668  -15.5494   16.6125 C   0  0  0  0  0  0  0  0  0  0  0  0
   13.0349  -14.8489   17.7265 N   0  0  0  0  0  0  0  0  0  0  0  0
    8.7662  -14.1053   20.1766 C   0  0  0  0  0  0  0  0  0  0  0  0
    8.4651  -12.9372   20.5395 O   0  0  0  0  0  0  0  0  0  0  0  0
    8.4648  -15.2089   21.0009 N   0  0  0  0  0  0  0  0  0  0  0  0
    7.8251  -15.0187   22.2615 C   0  0  1  0  0  0  0  0  0  0  0  0
    6.5091  -15.7491   22.2698 C   0  0  0  0  0  0  0  0  0  0  0  0
    6.7229  -17.5453   22.2473 S   0  0  0  0  0  0  0  0  0  0  0  0
    8.7004  -15.3608   23.4121 C   0  0  0  0  0  0  0  0  0  0  0  0
    9.6962  -16.1436   23.2202 O   0  0  0  0  0  0  0  0  0  0  0  0
    8.5398  -14.8978   24.7362 N   0  0  0  0  0  0  0  0  0  0  0  0
    9.2973  -15.3595   25.8487 C   0  0  1  0  0  0  0  0  0  0  0  0
    9.2679  -14.5650   27.0950 C   0  0  0  0  0  0  0  0  0  0  0  0
   10.0481  -15.1166   28.2518 C   0  0  0  0  0  0  0  0  0  0  0  0
   10.0007  -14.1199   29.3899 C   0  0  0  0  0  0  0  0  0  0  0  0
   10.7965  -14.5255   30.5880 C   0  0  0  0  0  0  0  0  0  0  0  0
   10.3844  -15.7965   31.1466 N   0  0  0  0  0  0  0  0  0  0  0  0
    8.8464  -16.7614   26.2439 C   0  0  0  0  0  0  0  0  0  0  0  0
    9.6418  -17.5323   26.8169 O   0  0  0  0  0  0  0  0  0  0  0  0
    7.5579  -17.1731   25.9652 O   0  0  0  0  0  0  0  0  0  0  0  0
  2  1  1  6
  2  9  1  0
  3  2  1  0
  3  4  1  0
  4  5  2  0
  4  8  1  0
  5  6  1  0
  6  7  1  0
  8  7  2  0
  9 10  2  0
 11  9  1  0
 11 12  1  0
 12 15  1  0
 12 13  1  6
 14 13  1  0
 15 16  2  0
 17 15  1  0
 17 18  1  0
 18 24  1  0
 18 19  1  1
 20 19  1  0
 21 22  1  0
 21 20  1  0
 22 23  1  0
 24 25  2  0
 24 26  1  0
M  END
$$$$
