HCK.pdb
     RDKit          3D

 26 26  0  0  1  0  0  0  0  0999 V2000
   10.5156  -12.8988   19.1730 N   0  0  0  0  0  0  0  0  0  0  0  0
    9.7831  -13.9256   19.8660 C   0  0  1  0  0  0  0  0  0  0  0  0
    9.6932  -15.1800   19.0512 C   0  0  0  0  0  0  0  0  0  0  0  0
    9.0353  -14.9956   17.7374 C   0  0  0  0  0  0  0  0  0  0  0  0
    8.6424  -13.7690   17.2662 C   0  0  0  0  0  0  0  0  0  0  0  0
    8.0771  -13.9175   16.0548 N   0  0  0  0  0  0  0  0  0  0  0  0
    8.1155  -15.2359   15.7674 C   0  0  0  0  0  0  0  0  0  0  0  0
    8.6934  -15.8811   16.7849 N   0  0  0  0  0  0  0  0  0  0  0  0
   10.3959  -14.2184   21.1969 C   0  0  0  0  0  0  0  0  0  0  0  0
   11.1309  -13.3301   21.7042 O   0  0  0  0  0  0  0  0  0  0  0  0
   10.1719  -15.4334   21.8764 N   0  0  0  0  0  0  0  0  0  0  0  0
   10.0137  -15.4527   23.2939 C   0  0  1  0  0  0  0  0  0  0  0  0
    8.9196  -14.4971   23.6880 C   0  0  0  0  0  0  0  0  0  0  0  0
    8.5949  -14.5245   25.4674 S   0  0  0  0  0  0  0  0  0  0  0  0
    9.8284  -16.8229   23.8370 C   0  0  0  0  0  0  0  0  0  0  0  0
    8.6727  -17.3696   23.7548 O   0  0  0  0  0  0  0  0  0  0  0  0
   10.8270  -17.6066   24.4551 N   0  0  0  0  0  0  0  0  0  0  0  0
   10.6349  -18.9387   24.9170 C   0  0  1  0  0  0  0  0  0  0  0  0
   11.6494  -19.9553   24.5668 C   0  0  0  0  0  0  0  0  0  0  0  0
   11.9465  -20.1197   23.1054 C   0  0  0  0  0  0  0  0  0  0  0  0
   13.0676  -21.1243   22.9471 C   0  0  0  0  0  0  0  0  0  0  0  0
   13.4679  -21.3714   21.5286 C   0  0  0  0  0  0  0  0  0  0  0  0
   14.8756  -21.1379   21.2811 N   0  0  0  0  0  0  0  0  0  0  0  0
   10.5425  -18.9571   26.4389 C   0  0  0  0  0  0  0  0  0  0  0  0
   10.7726  -17.9178   27.0887 O   0  0  0  0  0  0  0  0  0  0  0  0
   10.2045  -20.1256   27.0929 O   0  0  0  0  0  0  0  0  0  0  0  0
  2  1  1  6
  2  9  1  0
  3  2  1  0
  3  4  1  0
  4  5  2  0
  4  8  1  0
  5  6  1  0
  6  7  1  0
  8  7  2  0
  9 10  2  0
 11  9  1  0
 11 12  1  0
 12 15  1  0
 12 13  1  6
 14 13  1  0
 15 16  2  0
 17 15  1  0
 17 18  1  0
 18 24  1  0
 18 19  1  1
 20 19  1  0
 21 22  1  0
 21 20  1  0
 22 23  1  0
 24 25  2  0
 24 26  1  0
M  END
$$$$
