HCK.pdb
     RDKit          3D

 26 26  0  0  1  0  0  0  0  0999 V2000
    9.8580  -21.6152   16.5946 N   0  0  0  0  0  0  0  0  0  0  0  0
    9.2328  -21.2603   17.8413 C   0  0  1  0  0  0  0  0  0  0  0  0
    7.9764  -22.0450   18.0676 C   0  0  0  0  0  0  0  0  0  0  0  0
    6.9370  -21.8230   17.0364 C   0  0  0  0  0  0  0  0  0  0  0  0
    6.4952  -22.8143   16.1979 C   0  0  0  0  0  0  0  0  0  0  0  0
    5.5563  -22.3152   15.3742 N   0  0  0  0  0  0  0  0  0  0  0  0
    5.4103  -21.0123   15.6961 C   0  0  0  0  0  0  0  0  0  0  0  0
    6.2450  -20.7208   16.6979 N   0  0  0  0  0  0  0  0  0  0  0  0
   10.1723  -21.4499   18.9875 C   0  0  0  0  0  0  0  0  0  0  0  0
   11.0844  -22.3083   18.8530 O   0  0  0  0  0  0  0  0  0  0  0  0
   10.0619  -20.7068   20.1807 N   0  0  0  0  0  0  0  0  0  0  0  0
   11.0751  -20.7875   21.1813 C   0  0  1  0  0  0  0  0  0  0  0  0
   11.6619  -19.4205   21.4103 C   0  0  0  0  0  0  0  0  0  0  0  0
   10.4610  -18.2706   22.1231 S   0  0  0  0  0  0  0  0  0  0  0  0
   10.6071  -21.4482   22.4269 C   0  0  0  0  0  0  0  0  0  0  0  0
    9.3841  -21.3051   22.7808 O   0  0  0  0  0  0  0  0  0  0  0  0
   11.3983  -22.2402   23.2872 N   0  0  0  0  0  0  0  0  0  0  0  0
   10.9518  -22.7749   24.5280 C   0  0  1  0  0  0  0  0  0  0  0  0
   11.6716  -23.9375   25.0899 C   0  0  0  0  0  0  0  0  0  0  0  0
   11.0999  -24.5280   26.3451 C   0  0  0  0  0  0  0  0  0  0  0  0
   11.9956  -25.6593   26.8021 C   0  0  0  0  0  0  0  0  0  0  0  0
   11.5183  -26.3531   28.0367 C   0  0  0  0  0  0  0  0  0  0  0  0
   12.4550  -27.3360   28.5405 N   0  0  0  0  0  0  0  0  0  0  0  0
   10.9990  -21.7003   25.6087 C   0  0  0  0  0  0  0  0  0  0  0  0
   11.6863  -20.6740   25.4359 O   0  0  0  0  0  0  0  0  0  0  0  0
   10.2805  -21.8675   26.7761 O   0  0  0  0  0  0  0  0  0  0  0  0
  2  1  1  6
  2  9  1  0
  3  2  1  0
  3  4  1  0
  4  5  2  0
  4  8  1  0
  5  6  1  0
  6  7  1  0
  8  7  2  0
  9 10  2  0
 11  9  1  0
 11 12  1  0
 12 15  1  0
 12 13  1  1
 14 13  1  0
 15 16  2  0
 17 15  1  0
 17 18  1  0
 18 24  1  0
 18 19  1  1
 20 19  1  0
 21 22  1  0
 21 20  1  0
 22 23  1  0
 24 25  2  0
 24 26  1  0
M  END
$$$$
