HCK.pdb
     RDKit          3D

 26 26  0  0  1  0  0  0  0  0999 V2000
    6.0805  -18.2723   21.0222 N   0  0  0  0  0  0  0  0  0  0  0  0
    5.5324  -17.7331   22.2387 C   0  0  1  0  0  0  0  0  0  0  0  0
    4.5378  -18.6697   22.8544 C   0  0  0  0  0  0  0  0  0  0  0  0
    3.3550  -18.9324   22.0030 C   0  0  0  0  0  0  0  0  0  0  0  0
    3.1946  -18.3787   20.7585 C   0  0  0  0  0  0  0  0  0  0  0  0
    2.0302  -18.7976   20.2314 N   0  0  0  0  0  0  0  0  0  0  0  0
    1.4615  -19.6128   21.1449 C   0  0  0  0  0  0  0  0  0  0  0  0
    2.2637  -19.6901   22.2107 N   0  0  0  0  0  0  0  0  0  0  0  0
    6.6130  -17.4115   23.2193 C   0  0  0  0  0  0  0  0  0  0  0  0
    7.6596  -18.1112   23.1782 O   0  0  0  0  0  0  0  0  0  0  0  0
    6.4877  -16.3691   24.1605 N   0  0  0  0  0  0  0  0  0  0  0  0
    7.5241  -16.1198   25.1082 C   0  0  1  0  0  0  0  0  0  0  0  0
    7.3391  -14.7495   25.7028 C   0  0  0  0  0  0  0  0  0  0  0  0
    5.6822  -14.5202   26.3918 S   0  0  0  0  0  0  0  0  0  0  0  0
    7.6494  -17.1954   26.1252 C   0  0  0  0  0  0  0  0  0  0  0  0
    6.5944  -17.6041   26.7263 O   0  0  0  0  0  0  0  0  0  0  0  0
    8.8502  -17.8308   26.5093 N   0  0  0  0  0  0  0  0  0  0  0  0
    8.9475  -18.8251   27.5226 C   0  0  1  0  0  0  0  0  0  0  0  0
    9.3342  -20.1954   27.1253 C   0  0  0  0  0  0  0  0  0  0  0  0
    8.4766  -20.8508   26.0832 C   0  0  0  0  0  0  0  0  0  0  0  0
    9.0590  -22.2096   25.7583 C   0  0  0  0  0  0  0  0  0  0  0  0
    8.3423  -22.9336   24.6649 C   0  0  0  0  0  0  0  0  0  0  0  0
    8.9752  -24.1819   24.2929 N   0  0  0  0  0  0  0  0  0  0  0  0
    9.9634  -18.4004   28.5773 C   0  0  0  0  0  0  0  0  0  0  0  0
   10.6752  -17.3943   28.3860 O   0  0  0  0  0  0  0  0  0  0  0  0
   10.0923  -19.1321   29.7414 O   0  0  0  0  0  0  0  0  0  0  0  0
  2  1  1  6
  2  9  1  0
  3  2  1  0
  3  4  1  0
  4  5  2  0
  4  8  1  0
  5  6  1  0
  6  7  1  0
  8  7  2  0
  9 10  2  0
 11  9  1  0
 11 12  1  0
 12 15  1  0
 12 13  1  1
 14 13  1  0
 15 16  2  0
 17 15  1  0
 17 18  1  0
 18 24  1  0
 18 19  1  6
 20 19  1  0
 21 22  1  0
 21 20  1  0
 22 23  1  0
 24 25  2  0
 24 26  1  0
M  END
$$$$
