HCK.pdb
     RDKit          3D

 26 26  0  0  1  0  0  0  0  0999 V2000
   12.8350  -18.7801   17.6425 N   0  0  0  0  0  0  0  0  0  0  0  0
   13.8000  -19.0679   18.6705 C   0  0  1  0  0  0  0  0  0  0  0  0
   14.9007  -18.0512   18.6897 C   0  0  0  0  0  0  0  0  0  0  0  0
   15.6726  -17.9796   17.4279 C   0  0  0  0  0  0  0  0  0  0  0  0
   16.7761  -18.7566   17.1842 C   0  0  0  0  0  0  0  0  0  0  0  0
   17.2624  -18.4692   15.9635 N   0  0  0  0  0  0  0  0  0  0  0  0
   16.4644  -17.5127   15.4431 C   0  0  0  0  0  0  0  0  0  0  0  0
   15.5084  -17.2209   16.3299 N   0  0  0  0  0  0  0  0  0  0  0  0
   13.1485  -19.1474   20.0128 C   0  0  0  0  0  0  0  0  0  0  0  0
   12.1763  -18.3768   20.2314 O   0  0  0  0  0  0  0  0  0  0  0  0
   13.5871  -20.0436   21.0091 N   0  0  0  0  0  0  0  0  0  0  0  0
   12.8482  -20.2005   22.2191 C   0  0  1  0  0  0  0  0  0  0  0  0
   12.2841  -21.5945   22.2833 C   0  0  0  0  0  0  0  0  0  0  0  0
   10.6337  -21.6996   21.5501 S   0  0  0  0  0  0  0  0  0  0  0  0
   13.6262  -19.8194   23.4259 C   0  0  0  0  0  0  0  0  0  0  0  0
   14.8208  -19.3807   23.2784 O   0  0  0  0  0  0  0  0  0  0  0  0
   13.1689  -19.8959   24.7595 N   0  0  0  0  0  0  0  0  0  0  0  0
   13.9694  -19.6195   25.9029 C   0  0  1  0  0  0  0  0  0  0  0  0
   13.3135  -19.5900   27.2274 C   0  0  0  0  0  0  0  0  0  0  0  0
   13.2734  -20.8892   27.9767 C   0  0  0  0  0  0  0  0  0  0  0  0
   12.5718  -20.6664   29.2992 C   0  0  0  0  0  0  0  0  0  0  0  0
   12.5653  -21.8632   30.1943 C   0  0  0  0  0  0  0  0  0  0  0  0
   11.9130  -21.6252   31.4651 N   0  0  0  0  0  0  0  0  0  0  0  0
   15.0879  -20.6492   26.0206 C   0  0  0  0  0  0  0  0  0  0  0  0
   16.0623  -20.4267   26.7664 O   0  0  0  0  0  0  0  0  0  0  0  0
   15.0180  -21.8252   25.2999 O   0  0  0  0  0  0  0  0  0  0  0  0
  2  1  1  6
  2  9  1  0
  3  2  1  0
  3  4  1  0
  4  5  2  0
  4  8  1  0
  5  6  1  0
  6  7  1  0
  8  7  2  0
  9 10  2  0
 11  9  1  0
 11 12  1  0
 12 15  1  0
 12 13  1  1
 14 13  1  0
 15 16  2  0
 17 15  1  0
 17 18  1  0
 18 24  1  0
 18 19  1  1
 20 19  1  0
 21 22  1  0
 21 20  1  0
 22 23  1  0
 24 25  2  0
 24 26  1  0
M  END
$$$$
