HCK.pdb
     RDKit          3D

 26 26  0  0  1  0  0  0  0  0999 V2000
   10.1434  -14.8438   21.5152 N   0  0  0  0  0  0  0  0  0  0  0  0
    9.0060  -14.3620   22.2536 C   0  0  1  0  0  0  0  0  0  0  0  0
    7.7260  -14.9330   21.7234 C   0  0  0  0  0  0  0  0  0  0  0  0
    7.3807  -14.4669   20.3609 C   0  0  0  0  0  0  0  0  0  0  0  0
    8.1905  -13.6357   19.6299 C   0  0  0  0  0  0  0  0  0  0  0  0
    7.6149  -13.3866   18.4400 N   0  0  0  0  0  0  0  0  0  0  0  0
    6.4455  -14.0609   18.4257 C   0  0  0  0  0  0  0  0  0  0  0  0
    6.3090  -14.7097   19.5858 N   0  0  0  0  0  0  0  0  0  0  0  0
    9.1419  -14.6667   23.7101 C   0  0  0  0  0  0  0  0  0  0  0  0
   10.0118  -15.5136   24.0460 O   0  0  0  0  0  0  0  0  0  0  0  0
    8.3401  -14.0412   24.6867 N   0  0  0  0  0  0  0  0  0  0  0  0
    8.5827  -14.2632   26.0746 C   0  0  1  0  0  0  0  0  0  0  0  0
    7.6894  -13.3658   26.8884 C   0  0  0  0  0  0  0  0  0  0  0  0
    6.0678  -13.1356   26.1205 S   0  0  0  0  0  0  0  0  0  0  0  0
    8.4903  -15.6960   26.4564 C   0  0  0  0  0  0  0  0  0  0  0  0
    7.6916  -16.4586   25.8069 O   0  0  0  0  0  0  0  0  0  0  0  0
    9.2142  -16.3206   27.4952 N   0  0  0  0  0  0  0  0  0  0  0  0
    9.4803  -17.7166   27.5656 C   0  0  1  0  0  0  0  0  0  0  0  0
   10.3359  -18.3206   26.5223 C   0  0  0  0  0  0  0  0  0  0  0  0
   10.6425  -19.7809   26.6794 C   0  0  0  0  0  0  0  0  0  0  0  0
   11.5337  -20.2165   25.5361 C   0  0  0  0  0  0  0  0  0  0  0  0
   11.9239  -21.6583   25.5834 C   0  0  0  0  0  0  0  0  0  0  0  0
   12.8961  -22.0226   24.5738 N   0  0  0  0  0  0  0  0  0  0  0  0
   10.1488  -18.0561   28.8933 C   0  0  0  0  0  0  0  0  0  0  0  0
   10.3577  -19.2473   29.1980 O   0  0  0  0  0  0  0  0  0  0  0  0
   10.5204  -17.0426   29.7547 O   0  0  0  0  0  0  0  0  0  0  0  0
  2  1  1  6
  2  9  1  0
  3  2  1  0
  3  4  1  0
  4  5  2  0
  4  8  1  0
  5  6  1  0
  6  7  1  0
  8  7  2  0
  9 10  2  0
 11  9  1  0
 11 12  1  0
 12 15  1  0
 12 13  1  1
 14 13  1  0
 15 16  2  0
 17 15  1  0
 17 18  1  0
 18 24  1  0
 18 19  1  6
 20 19  1  0
 21 22  1  0
 21 20  1  0
 22 23  1  0
 24 25  2  0
 24 26  1  0
M  END
$$$$
