HCK.pdb
     RDKit          3D

 26 26  0  0  1  0  0  0  0  0999 V2000
   11.0531  -13.9989   19.9097 N   0  0  0  0  0  0  0  0  0  0  0  0
    9.7821  -14.1033   20.5765 C   0  0  1  0  0  0  0  0  0  0  0  0
    8.8741  -15.0694   19.8781 C   0  0  0  0  0  0  0  0  0  0  0  0
    8.4000  -14.5983   18.5566 C   0  0  0  0  0  0  0  0  0  0  0  0
    8.7931  -13.4055   18.0056 C   0  0  0  0  0  0  0  0  0  0  0  0
    8.2000  -13.2512   16.8083 N   0  0  0  0  0  0  0  0  0  0  0  0
    7.4358  -14.3462   16.6095 C   0  0  0  0  0  0  0  0  0  0  0  0
    7.5596  -15.1544   17.6663 N   0  0  0  0  0  0  0  0  0  0  0  0
    9.9558  -14.5009   22.0063 C   0  0  0  0  0  0  0  0  0  0  0  0
   10.9830  -15.1676   22.3015 O   0  0  0  0  0  0  0  0  0  0  0  0
    9.0204  -14.1525   23.0022 N   0  0  0  0  0  0  0  0  0  0  0  0
    9.2474  -14.5059   24.3653 C   0  0  1  0  0  0  0  0  0  0  0  0
    8.3532  -13.6809   25.2514 C   0  0  0  0  0  0  0  0  0  0  0  0
    6.6152  -14.1621   25.1084 S   0  0  0  0  0  0  0  0  0  0  0  0
    9.1398  -15.9673   24.6100 C   0  0  0  0  0  0  0  0  0  0  0  0
    8.0514  -16.5677   24.2997 O   0  0  0  0  0  0  0  0  0  0  0  0
   10.1454  -16.7858   25.1686 N   0  0  0  0  0  0  0  0  0  0  0  0
    9.9870  -18.1686   25.4642 C   0  0  1  0  0  0  0  0  0  0  0  0
   10.8160  -19.1432   24.7239 C   0  0  0  0  0  0  0  0  0  0  0  0
   10.6414  -19.1658   23.2339 C   0  0  0  0  0  0  0  0  0  0  0  0
   11.8935  -19.7396   22.6061 C   0  0  0  0  0  0  0  0  0  0  0  0
   11.8198  -19.8809   21.1202 C   0  0  0  0  0  0  0  0  0  0  0  0
   13.0955  -20.1935   20.5100 N   0  0  0  0  0  0  0  0  0  0  0  0
   10.2710  -18.4245   26.9404 C   0  0  0  0  0  0  0  0  0  0  0  0
   10.1530  -19.5754   27.4061 O   0  0  0  0  0  0  0  0  0  0  0  0
   10.6576  -17.3801   27.7570 O   0  0  0  0  0  0  0  0  0  0  0  0
  2  1  1  6
  2  9  1  0
  3  2  1  0
  3  4  1  0
  4  5  2  0
  4  8  1  0
  5  6  1  0
  6  7  1  0
  8  7  2  0
  9 10  2  0
 11  9  1  0
 11 12  1  0
 12 15  1  0
 12 13  1  1
 14 13  1  0
 15 16  2  0
 17 15  1  0
 17 18  1  0
 18 24  1  0
 18 19  1  6
 20 19  1  0
 21 22  1  0
 21 20  1  0
 22 23  1  0
 24 25  2  0
 24 26  1  0
M  END
$$$$
