HCK.pdb
     RDKit          3D

 26 26  0  0  1  0  0  0  0  0999 V2000
    9.8725  -17.2740   22.4092 N   0  0  0  0  0  0  0  0  0  0  0  0
   11.2443  -17.2133   22.8399 C   0  0  1  0  0  0  0  0  0  0  0  0
   12.1090  -16.5335   21.8222 C   0  0  0  0  0  0  0  0  0  0  0  0
   12.0201  -17.1262   20.4680 C   0  0  0  0  0  0  0  0  0  0  0  0
   12.1532  -18.4708   20.2327 C   0  0  0  0  0  0  0  0  0  0  0  0
   12.0274  -18.7067   18.9145 N   0  0  0  0  0  0  0  0  0  0  0  0
   11.8160  -17.5110   18.3245 C   0  0  0  0  0  0  0  0  0  0  0  0
   11.8130  -16.5620   19.2651 N   0  0  0  0  0  0  0  0  0  0  0  0
   11.3636  -16.5243   24.1603 C   0  0  0  0  0  0  0  0  0  0  0  0
   12.5248  -16.3133   24.6008 O   0  0  0  0  0  0  0  0  0  0  0  0
   10.2345  -16.1162   24.8997 N   0  0  0  0  0  0  0  0  0  0  0  0
   10.3783  -15.6292   26.2327 C   0  0  1  0  0  0  0  0  0  0  0  0
    9.3987  -14.5103   26.4647 C   0  0  0  0  0  0  0  0  0  0  0  0
    9.5288  -13.8213   28.1323 S   0  0  0  0  0  0  0  0  0  0  0  0
   10.3016  -16.7057   27.2536 C   0  0  0  0  0  0  0  0  0  0  0  0
    9.1499  -17.1416   27.6072 O   0  0  0  0  0  0  0  0  0  0  0  0
   11.4028  -17.3141   27.8943 N   0  0  0  0  0  0  0  0  0  0  0  0
   11.2974  -18.2871   28.9271 C   0  0  1  0  0  0  0  0  0  0  0  0
   12.4021  -19.2552   29.0937 C   0  0  0  0  0  0  0  0  0  0  0  0
   12.6711  -20.1615   27.9287 C   0  0  0  0  0  0  0  0  0  0  0  0
   13.8624  -21.0355   28.2573 C   0  0  0  0  0  0  0  0  0  0  0  0
   14.2068  -22.0222   27.1890 C   0  0  0  0  0  0  0  0  0  0  0  0
   15.3465  -22.8519   27.5207 N   0  0  0  0  0  0  0  0  0  0  0  0
   11.1447  -17.6005   30.2800 C   0  0  0  0  0  0  0  0  0  0  0  0
   10.8264  -18.2681   31.2841 O   0  0  0  0  0  0  0  0  0  0  0  0
   11.3591  -16.2405   30.3886 O   0  0  0  0  0  0  0  0  0  0  0  0
  2  1  1  6
  2  9  1  0
  3  2  1  0
  3  4  1  0
  4  5  2  0
  4  8  1  0
  5  6  1  0
  6  7  1  0
  8  7  2  0
  9 10  2  0
 11  9  1  0
 11 12  1  0
 12 15  1  0
 12 13  1  1
 14 13  1  0
 15 16  2  0
 17 15  1  0
 17 18  1  0
 18 24  1  0
 18 19  1  1
 20 19  1  0
 21 22  1  0
 21 20  1  0
 22 23  1  0
 24 25  2  0
 24 26  1  0
M  END
$$$$
