DAC.pdb
     RDKit          3D

 20 19  0  0  1  0  0  0  0  0999 V2000
    5.9773  -17.9955   22.0489 N   0  0  0  0  0  0  0  0  0  0  0  0
    6.9495  -18.0190   20.9739 C   0  0  1  0  0  0  0  0  0  0  0  0
    6.1548  -18.0110   19.6777 C   0  0  0  0  0  0  0  0  0  0  0  0
    6.5102  -19.2619   18.9564 C   0  0  0  0  0  0  0  0  0  0  0  0
    7.6635  -19.7482   19.0828 O   0  0  0  0  0  0  0  0  0  0  0  0
    7.8149  -16.8368   21.1043 C   0  0  0  0  0  0  0  0  0  0  0  0
    9.0569  -16.9589   20.9764 O   0  0  0  0  0  0  0  0  0  0  0  0
    5.6235  -19.9416   18.1317 O   0  0  0  0  0  0  0  0  0  0  0  0
    7.3125  -13.1698   21.0143 C   0  0  0  0  0  0  0  0  0  0  0  0
    8.1612  -14.3544   21.4873 C   0  0  2  0  0  0  0  0  0  0  0  0
    7.3393  -15.5227   21.3726 N   0  0  0  0  0  0  0  0  0  0  0  0
    8.5590  -14.0478   22.8798 C   0  0  0  0  0  0  0  0  0  0  0  0
    9.2799  -13.0947   23.2243 O   0  0  0  0  0  0  0  0  0  0  0  0
    8.0519  -14.9449   23.8803 N   0  0  0  0  0  0  0  0  0  0  0  0
    8.3940  -14.8366   25.2667 C   0  0  1  0  0  0  0  0  0  0  0  0
    7.0935  -14.7547   26.0756 C   0  0  0  0  0  0  0  0  0  0  0  0
    6.1769  -13.2552   25.7153 S   0  0  0  0  0  0  0  0  0  0  0  0
    9.1182  -16.0559   25.6788 C   0  0  0  0  0  0  0  0  0  0  0  0
    9.5778  -16.1813   26.9748 O   0  0  0  0  0  0  0  0  0  0  0  0
    9.3270  -16.9863   24.8740 O   0  0  0  0  0  0  0  0  0  0  0  0
  2  1  1  1
  2  3  1  0
  4  5  2  0
  4  3  1  0
  6  2  1  0
  7  6  2  0
  8  4  1  0
 10  9  1  1
 10 12  1  0
 10 11  1  0
 11  6  1  0
 12 13  2  0
 14 15  1  0
 14 12  1  0
 15 16  1  1
 16 17  1  0
 18 15  1  0
 19 18  1  0
 20 18  2  0
M  END
$$$$
