DAC.pdb
     RDKit          3D

 20 19  0  0  1  0  0  0  0  0999 V2000
    6.3798  -18.7099   20.3515 N   0  0  0  0  0  0  0  0  0  0  0  0
    5.9682  -17.5134   21.0588 C   0  0  1  0  0  0  0  0  0  0  0  0
    5.6143  -17.9513   22.4711 C   0  0  0  0  0  0  0  0  0  0  0  0
    5.9622  -19.3940   22.5660 C   0  0  0  0  0  0  0  0  0  0  0  0
    6.3742  -20.0042   21.5460 O   0  0  0  0  0  0  0  0  0  0  0  0
    7.0826  -16.5536   21.0358 C   0  0  0  0  0  0  0  0  0  0  0  0
    8.2592  -16.9642   21.1800 O   0  0  0  0  0  0  0  0  0  0  0  0
    5.8569  -20.1254   23.7416 O   0  0  0  0  0  0  0  0  0  0  0  0
    7.3785  -12.8794   20.3063 C   0  0  0  0  0  0  0  0  0  0  0  0
    8.0000  -14.2069   20.7522 C   0  0  2  0  0  0  0  0  0  0  0  0
    6.9265  -15.1505   20.8569 N   0  0  0  0  0  0  0  0  0  0  0  0
    8.6739  -13.9351   22.0418 C   0  0  0  0  0  0  0  0  0  0  0  0
    9.7550  -13.3340   22.1711 O   0  0  0  0  0  0  0  0  0  0  0  0
    7.9936  -14.4198   23.2101 N   0  0  0  0  0  0  0  0  0  0  0  0
    8.5270  -14.2850   24.5323 C   0  0  1  0  0  0  0  0  0  0  0  0
    7.3529  -14.1841   25.5141 C   0  0  0  0  0  0  0  0  0  0  0  0
    6.7934  -12.4913   25.7135 S   0  0  0  0  0  0  0  0  0  0  0  0
    9.3024  -15.4976   24.8627 C   0  0  0  0  0  0  0  0  0  0  0  0
    9.9684  -15.5840   26.0692 O   0  0  0  0  0  0  0  0  0  0  0  0
    9.3708  -16.4572   24.0681 O   0  0  0  0  0  0  0  0  0  0  0  0
  2  1  1  6
  2  3  1  0
  4  5  2  0
  4  3  1  0
  6  2  1  0
  7  6  2  0
  8  4  1  0
 10  9  1  1
 10 12  1  0
 10 11  1  0
 11  6  1  0
 12 13  2  0
 14 15  1  0
 14 12  1  0
 15 16  1  1
 16 17  1  0
 18 15  1  0
 19 18  1  0
 20 18  2  0
M  END
$$$$
