DAC.pdb
     RDKit          3D

 20 19  0  0  1  0  0  0  0  0999 V2000
    7.6980  -18.6853   19.5566 N   0  0  0  0  0  0  0  0  0  0  0  0
    8.5693  -17.9340   20.4385 C   0  0  1  0  0  0  0  0  0  0  0  0
    9.2852  -16.9148   19.5665 C   0  0  0  0  0  0  0  0  0  0  0  0
   10.6986  -17.3656   19.4631 C   0  0  0  0  0  0  0  0  0  0  0  0
   11.1270  -18.2570   20.2405 O   0  0  0  0  0  0  0  0  0  0  0  0
    7.7434  -17.2975   21.4760 C   0  0  0  0  0  0  0  0  0  0  0  0
    6.8742  -16.4546   21.1477 O   0  0  0  0  0  0  0  0  0  0  0  0
   11.5952  -16.8488   18.5372 O   0  0  0  0  0  0  0  0  0  0  0  0
    6.9631  -17.9422   25.0428 C   0  0  0  0  0  0  0  0  0  0  0  0
    7.0951  -16.9308   23.8996 C   0  0  2  0  0  0  0  0  0  0  0  0
    7.8561  -17.5712   22.8679 N   0  0  0  0  0  0  0  0  0  0  0  0
    7.7646  -15.7423   24.4747 C   0  0  0  0  0  0  0  0  0  0  0  0
    8.9951  -15.5688   24.5244 O   0  0  0  0  0  0  0  0  0  0  0  0
    6.8892  -14.7351   25.0056 N   0  0  0  0  0  0  0  0  0  0  0  0
    7.3680  -13.5682   25.6838 C   0  0  1  0  0  0  0  0  0  0  0  0
    6.1547  -12.7652   26.1694 C   0  0  0  0  0  0  0  0  0  0  0  0
    6.6453  -11.3121   27.1000 S   0  0  0  0  0  0  0  0  0  0  0  0
    8.1481  -13.9865   26.8660 C   0  0  0  0  0  0  0  0  0  0  0  0
    9.2507  -13.2546   27.2600 O   0  0  0  0  0  0  0  0  0  0  0  0
    7.8307  -14.9974   27.5248 O   0  0  0  0  0  0  0  0  0  0  0  0
  2  1  1  6
  2  3  1  0
  4  5  2  0
  4  3  1  0
  6  2  1  0
  7  6  2  0
  8  4  1  0
 10  9  1  1
 10 12  1  0
 10 11  1  0
 11  6  1  0
 12 13  2  0
 14 15  1  0
 14 12  1  0
 15 16  1  1
 16 17  1  0
 18 15  1  0
 19 18  1  0
 20 18  2  0
M  END
$$$$
