DAC.pdb
     RDKit          3D

 20 19  0  0  1  0  0  0  0  0999 V2000
   10.1476  -17.6114   18.3111 N   0  0  0  0  0  0  0  0  0  0  0  0
    8.8571  -17.2317   18.8511 C   0  0  1  0  0  0  0  0  0  0  0  0
    8.3505  -18.4326   19.6340 C   0  0  0  0  0  0  0  0  0  0  0  0
    6.9835  -18.7227   19.1254 C   0  0  0  0  0  0  0  0  0  0  0  0
    6.3148  -17.8082   18.5787 O   0  0  0  0  0  0  0  0  0  0  0  0
    9.0405  -16.0475   19.7040 C   0  0  0  0  0  0  0  0  0  0  0  0
    9.9622  -16.0315   20.5548 O   0  0  0  0  0  0  0  0  0  0  0  0
    6.3870  -19.9731   19.2201 O   0  0  0  0  0  0  0  0  0  0  0  0
    7.3506  -12.6976   19.9973 C   0  0  0  0  0  0  0  0  0  0  0  0
    8.3236  -13.7576   20.5235 C   0  0  2  0  0  0  0  0  0  0  0  0
    8.2287  -14.8806   19.6383 N   0  0  0  0  0  0  0  0  0  0  0  0
    7.8957  -14.0604   21.9079 C   0  0  0  0  0  0  0  0  0  0  0  0
    6.8043  -13.7336   22.4068 O   0  0  0  0  0  0  0  0  0  0  0  0
    8.8436  -14.7895   22.7033 N   0  0  0  0  0  0  0  0  0  0  0  0
    8.5648  -15.2271   24.0381 C   0  0  1  0  0  0  0  0  0  0  0  0
    7.4194  -16.2455   23.9785 C   0  0  0  0  0  0  0  0  0  0  0  0
    7.0702  -16.9520   25.5901 S   0  0  0  0  0  0  0  0  0  0  0  0
    9.7591  -15.9063   24.5797 C   0  0  0  0  0  0  0  0  0  0  0  0
    9.9245  -16.0281   25.9451 O   0  0  0  0  0  0  0  0  0  0  0  0
   10.6323  -16.3783   23.8237 O   0  0  0  0  0  0  0  0  0  0  0  0
  2  1  1  1
  2  3  1  0
  4  5  2  0
  4  3  1  0
  6  2  1  0
  7  6  2  0
  8  4  1  0
 10  9  1  6
 10 12  1  0
 10 11  1  0
 11  6  1  0
 12 13  2  0
 14 15  1  0
 14 12  1  0
 15 16  1  6
 16 17  1  0
 18 15  1  0
 19 18  1  0
 20 18  2  0
M  END
$$$$
