DAC.pdb
     RDKit          3D

 20 19  0  0  1  0  0  0  0  0999 V2000
   12.2490  -16.1308   18.5541 N   0  0  0  0  0  0  0  0  0  0  0  0
   12.7656  -15.7910   19.8652 C   0  0  1  0  0  0  0  0  0  0  0  0
   13.4299  -14.4307   19.7242 C   0  0  0  0  0  0  0  0  0  0  0  0
   14.7117  -14.6588   19.0055 C   0  0  0  0  0  0  0  0  0  0  0  0
   15.5081  -15.5416   19.4163 O   0  0  0  0  0  0  0  0  0  0  0  0
   11.6428  -15.7669   20.8151 C   0  0  0  0  0  0  0  0  0  0  0  0
   10.6479  -15.0389   20.5827 O   0  0  0  0  0  0  0  0  0  0  0  0
   15.0909  -13.9380   17.8808 O   0  0  0  0  0  0  0  0  0  0  0  0
   10.2233  -18.0509   23.2283 C   0  0  0  0  0  0  0  0  0  0  0  0
   10.4846  -16.5727   22.9218 C   0  0  2  0  0  0  0  0  0  0  0  0
   11.5941  -16.5289   22.0160 N   0  0  0  0  0  0  0  0  0  0  0  0
   10.7600  -15.9233   24.2233 C   0  0  0  0  0  0  0  0  0  0  0  0
   11.8860  -15.7994   24.7366 O   0  0  0  0  0  0  0  0  0  0  0  0
    9.6104  -15.4099   24.9145 N   0  0  0  0  0  0  0  0  0  0  0  0
    9.6881  -14.8074   26.2113 C   0  0  1  0  0  0  0  0  0  0  0  0
    8.3325  -14.1597   26.5201 C   0  0  0  0  0  0  0  0  0  0  0  0
    8.5207  -12.5873   27.3630 S   0  0  0  0  0  0  0  0  0  0  0  0
    9.9360  -15.8611   27.2159 C   0  0  0  0  0  0  0  0  0  0  0  0
   10.6090  -15.5580   28.3829 O   0  0  0  0  0  0  0  0  0  0  0  0
    9.5473  -17.0325   27.0328 O   0  0  0  0  0  0  0  0  0  0  0  0
  2  1  1  6
  2  3  1  0
  4  5  2  0
  4  3  1  0
  6  2  1  0
  7  6  2  0
  8  4  1  0
 10  9  1  1
 10 12  1  0
 10 11  1  0
 11  6  1  0
 12 13  2  0
 14 15  1  0
 14 12  1  0
 15 16  1  1
 16 17  1  0
 18 15  1  0
 19 18  1  0
 20 18  2  0
M  END
$$$$
