DAC.pdb
     RDKit          3D

 20 19  0  0  1  0  0  0  0  0999 V2000
    8.0251  -18.3035   22.3700 N   0  0  0  0  0  0  0  0  0  0  0  0
    9.3866  -17.8070   22.4036 C   0  0  1  0  0  0  0  0  0  0  0  0
   10.1294  -18.5183   21.2838 C   0  0  0  0  0  0  0  0  0  0  0  0
   10.5736  -19.8260   21.8351 C   0  0  0  0  0  0  0  0  0  0  0  0
   10.2644  -20.8906   21.2403 O   0  0  0  0  0  0  0  0  0  0  0  0
    9.3544  -16.3489   22.2126 C   0  0  0  0  0  0  0  0  0  0  0  0
   10.4298  -15.7049   22.1629 O   0  0  0  0  0  0  0  0  0  0  0  0
   11.3273  -19.9451   22.9952 O   0  0  0  0  0  0  0  0  0  0  0  0
    6.6952  -13.8234   21.4350 C   0  0  0  0  0  0  0  0  0  0  0  0
    8.1030  -14.1610   21.9365 C   0  0  2  0  0  0  0  0  0  0  0  0
    8.1609  -15.5862   22.0752 N   0  0  0  0  0  0  0  0  0  0  0  0
    8.2704  -13.4368   23.2166 C   0  0  0  0  0  0  0  0  0  0  0  0
    8.7116  -12.2797   23.3313 O   0  0  0  0  0  0  0  0  0  0  0  0
    7.8814  -14.1621   24.3937 N   0  0  0  0  0  0  0  0  0  0  0  0
    7.8587  -13.5719   25.6983 C   0  0  1  0  0  0  0  0  0  0  0  0
    6.4296  -13.6752   26.2455 C   0  0  0  0  0  0  0  0  0  0  0  0
    5.7002  -12.0586   26.5161 S   0  0  0  0  0  0  0  0  0  0  0  0
    8.7509  -14.3416   26.5886 C   0  0  0  0  0  0  0  0  0  0  0  0
    8.9982  -13.8955   27.8718 O   0  0  0  0  0  0  0  0  0  0  0  0
    9.2928  -15.3977   26.2042 O   0  0  0  0  0  0  0  0  0  0  0  0
  2  1  1  6
  2  3  1  0
  4  5  2  0
  4  3  1  0
  6  2  1  0
  7  6  2  0
  8  4  1  0
 10  9  1  1
 10 12  1  0
 10 11  1  0
 11  6  1  0
 12 13  2  0
 14 15  1  0
 14 12  1  0
 15 16  1  1
 16 17  1  0
 18 15  1  0
 19 18  1  0
 20 18  2  0
M  END
$$$$
