DAC.pdb
     RDKit          3D

 20 19  0  0  1  0  0  0  0  0999 V2000
    9.4397  -17.2214   20.2235 N   0  0  0  0  0  0  0  0  0  0  0  0
   10.3244  -17.6460   21.2905 C   0  0  1  0  0  0  0  0  0  0  0  0
   11.7128  -17.1504   20.9181 C   0  0  0  0  0  0  0  0  0  0  0  0
   12.2925  -18.1671   20.0006 C   0  0  0  0  0  0  0  0  0  0  0  0
   11.8660  -19.3502   20.0318 O   0  0  0  0  0  0  0  0  0  0  0  0
    9.8443  -17.0622   22.5523 C   0  0  0  0  0  0  0  0  0  0  0  0
    9.8994  -15.8206   22.7229 O   0  0  0  0  0  0  0  0  0  0  0  0
   13.3007  -17.8815   19.0895 O   0  0  0  0  0  0  0  0  0  0  0  0
    7.9422  -18.4080   25.4905 C   0  0  0  0  0  0  0  0  0  0  0  0
    8.7011  -17.2664   24.8063 C   0  0  2  0  0  0  0  0  0  0  0  0
    9.3046  -17.8190   23.6298 N   0  0  0  0  0  0  0  0  0  0  0  0
    9.6842  -16.7719   25.7964 C   0  0  0  0  0  0  0  0  0  0  0  0
   10.8456  -17.1978   25.9253 O   0  0  0  0  0  0  0  0  0  0  0  0
    9.2210  -15.7183   26.6555 N   0  0  0  0  0  0  0  0  0  0  0  0
   10.0283  -15.1494   27.6926 C   0  0  1  0  0  0  0  0  0  0  0  0
    9.3380  -13.8737   28.1912 C   0  0  0  0  0  0  0  0  0  0  0  0
    9.1440  -12.6642   26.8805 S   0  0  0  0  0  0  0  0  0  0  0  0
   10.1055  -16.1027   28.8179 C   0  0  0  0  0  0  0  0  0  0  0  0
   11.0006  -15.8857   29.8467 O   0  0  0  0  0  0  0  0  0  0  0  0
    9.3724  -17.1115   28.8615 O   0  0  0  0  0  0  0  0  0  0  0  0
  2  1  1  6
  2  3  1  0
  4  5  2  0
  4  3  1  0
  6  2  1  0
  7  6  2  0
  8  4  1  0
 10  9  1  1
 10 12  1  0
 10 11  1  0
 11  6  1  0
 12 13  2  0
 14 15  1  0
 14 12  1  0
 15 16  1  1
 16 17  1  0
 18 15  1  0
 19 18  1  0
 20 18  2  0
M  END
$$$$
