DAC.pdb
     RDKit          3D

 20 19  0  0  1  0  0  0  0  0999 V2000
   11.0712  -15.9310   17.9947 N   0  0  0  0  0  0  0  0  0  0  0  0
   11.9904  -15.0820   18.7266 C   0  0  1  0  0  0  0  0  0  0  0  0
   12.9240  -14.4713   17.6936 C   0  0  0  0  0  0  0  0  0  0  0  0
   13.6625  -15.6018   17.0707 C   0  0  0  0  0  0  0  0  0  0  0  0
   14.4628  -16.2809   17.7641 O   0  0  0  0  0  0  0  0  0  0  0  0
   11.2100  -14.0624   19.4443 C   0  0  0  0  0  0  0  0  0  0  0  0
   11.8019  -13.2054   20.1436 O   0  0  0  0  0  0  0  0  0  0  0  0
   13.5179  -15.9611   15.7372 O   0  0  0  0  0  0  0  0  0  0  0  0
    7.7757  -12.7011   19.3910 C   0  0  0  0  0  0  0  0  0  0  0  0
    8.9990  -13.0970   20.2241 C   0  0  2  0  0  0  0  0  0  0  0  0
    9.7906  -13.9681   19.4067 N   0  0  0  0  0  0  0  0  0  0  0  0
    8.4741  -13.7495   21.4448 C   0  0  0  0  0  0  0  0  0  0  0  0
    7.3042  -13.6594   21.8572 O   0  0  0  0  0  0  0  0  0  0  0  0
    9.4216  -14.5386   22.1811 N   0  0  0  0  0  0  0  0  0  0  0  0
    9.0671  -15.2914   23.3467 C   0  0  1  0  0  0  0  0  0  0  0  0
    8.0641  -16.3744   22.9303 C   0  0  0  0  0  0  0  0  0  0  0  0
    7.6808  -17.4855   24.2857 S   0  0  0  0  0  0  0  0  0  0  0  0
   10.2751  -15.9584   23.8728 C   0  0  0  0  0  0  0  0  0  0  0  0
   10.2945  -16.4283   25.1711 O   0  0  0  0  0  0  0  0  0  0  0  0
   11.2906  -16.1090   23.1636 O   0  0  0  0  0  0  0  0  0  0  0  0
  2  1  1  6
  2  3  1  0
  4  5  2  0
  4  3  1  0
  6  2  1  0
  7  6  2  0
  8  4  1  0
 10  9  1  6
 10 12  1  0
 10 11  1  0
 11  6  1  0
 12 13  2  0
 14 15  1  0
 14 12  1  0
 15 16  1  6
 16 17  1  0
 18 15  1  0
 19 18  1  0
 20 18  2  0
M  END
$$$$
