DAC.pdb
     RDKit          3D

 20 19  0  0  1  0  0  0  0  0999 V2000
   12.0779  -19.3395   21.1043 N   0  0  0  0  0  0  0  0  0  0  0  0
   12.6429  -18.0361   21.3929 C   0  0  1  0  0  0  0  0  0  0  0  0
   12.6708  -17.2800   20.0742 C   0  0  0  0  0  0  0  0  0  0  0  0
   13.8093  -17.8331   19.2937 C   0  0  0  0  0  0  0  0  0  0  0  0
   14.8292  -18.2582   19.8952 O   0  0  0  0  0  0  0  0  0  0  0  0
   11.7957  -17.3744   22.3969 C   0  0  0  0  0  0  0  0  0  0  0  0
   12.0140  -16.1774   22.7023 O   0  0  0  0  0  0  0  0  0  0  0  0
   13.8140  -17.9104   17.9072 O   0  0  0  0  0  0  0  0  0  0  0  0
    8.8716  -18.4427   24.5146 C   0  0  0  0  0  0  0  0  0  0  0  0
    9.8749  -17.3812   24.0519 C   0  0  2  0  0  0  0  0  0  0  0  0
   10.7129  -18.0052   23.0710 N   0  0  0  0  0  0  0  0  0  0  0  0
   10.6070  -16.9486   25.2636 C   0  0  0  0  0  0  0  0  0  0  0  0
   11.7269  -17.3648   25.6092 O   0  0  0  0  0  0  0  0  0  0  0  0
    9.9374  -15.9714   26.0756 N   0  0  0  0  0  0  0  0  0  0  0  0
   10.5214  -15.4100   27.2566 C   0  0  1  0  0  0  0  0  0  0  0  0
    9.7588  -14.1253   27.6035 C   0  0  0  0  0  0  0  0  0  0  0  0
   10.4589  -13.2993   29.0339 S   0  0  0  0  0  0  0  0  0  0  0  0
   10.3547  -16.3619   28.3733 C   0  0  0  0  0  0  0  0  0  0  0  0
   11.3228  -16.4526   29.3537 O   0  0  0  0  0  0  0  0  0  0  0  0
    9.3480  -17.0947   28.4527 O   0  0  0  0  0  0  0  0  0  0  0  0
  2  1  1  6
  2  3  1  0
  4  5  2  0
  4  3  1  0
  6  2  1  0
  7  6  2  0
  8  4  1  0
 10  9  1  1
 10 12  1  0
 10 11  1  0
 11  6  1  0
 12 13  2  0
 14 15  1  0
 14 12  1  0
 15 16  1  1
 16 17  1  0
 18 15  1  0
 19 18  1  0
 20 18  2  0
M  END
$$$$
