DAC.pdb
     RDKit          3D

 20 19  0  0  1  0  0  0  0  0999 V2000
   11.1224  -15.7901   18.7734 N   0  0  0  0  0  0  0  0  0  0  0  0
   10.5879  -16.7328   19.7362 C   0  0  1  0  0  0  0  0  0  0  0  0
   11.7699  -17.5440   20.2427 C   0  0  0  0  0  0  0  0  0  0  0  0
   12.0040  -18.6196   19.2429 C   0  0  0  0  0  0  0  0  0  0  0  0
   12.2070  -19.7986   19.6317 O   0  0  0  0  0  0  0  0  0  0  0  0
    9.9299  -15.9756   20.8119 C   0  0  0  0  0  0  0  0  0  0  0  0
   10.5940  -15.1558   21.4906 O   0  0  0  0  0  0  0  0  0  0  0  0
   12.0119  -18.3947   17.8726 O   0  0  0  0  0  0  0  0  0  0  0  0
    6.4102  -15.7660   22.1307 C   0  0  0  0  0  0  0  0  0  0  0  0
    7.8851  -15.3539   22.1762 C   0  0  2  0  0  0  0  0  0  0  0  0
    8.5547  -16.1036   21.1548 N   0  0  0  0  0  0  0  0  0  0  0  0
    8.3594  -15.6660   23.5434 C   0  0  0  0  0  0  0  0  0  0  0  0
    9.0214  -16.6705   23.8588 O   0  0  0  0  0  0  0  0  0  0  0  0
    8.0063  -14.7092   24.5546 N   0  0  0  0  0  0  0  0  0  0  0  0
    8.3789  -14.8577   25.9293 C   0  0  1  0  0  0  0  0  0  0  0  0
    7.7661  -13.6949   26.7197 C   0  0  0  0  0  0  0  0  0  0  0  0
    8.3551  -12.1053   26.1327 S   0  0  0  0  0  0  0  0  0  0  0  0
    7.8103  -16.1185   26.4470 C   0  0  0  0  0  0  0  0  0  0  0  0
    8.3172  -16.6821   27.6012 O   0  0  0  0  0  0  0  0  0  0  0  0
    6.8717  -16.6933   25.8593 O   0  0  0  0  0  0  0  0  0  0  0  0
  2  1  1  6
  2  3  1  0
  4  5  2  0
  4  3  1  0
  6  2  1  0
  7  6  2  0
  8  4  1  0
 10  9  1  1
 10 12  1  0
 10 11  1  0
 11  6  1  0
 12 13  2  0
 14 15  1  0
 14 12  1  0
 15 16  1  1
 16 17  1  0
 18 15  1  0
 19 18  1  0
 20 18  2  0
M  END
$$$$
