DAC.pdb
     RDKit          3D

 20 19  0  0  1  0  0  0  0  0999 V2000
    7.7963  -14.4854   20.6602 N   0  0  0  0  0  0  0  0  0  0  0  0
    7.3331  -15.1958   21.8357 C   0  0  1  0  0  0  0  0  0  0  0  0
    7.7260  -16.6514   21.6388 C   0  0  0  0  0  0  0  0  0  0  0  0
    6.9279  -17.1527   20.4885 C   0  0  0  0  0  0  0  0  0  0  0  0
    5.7013  -16.8828   20.4162 O   0  0  0  0  0  0  0  0  0  0  0  0
    7.9722  -14.6015   23.0197 C   0  0  0  0  0  0  0  0  0  0  0  0
    9.2174  -14.6719   23.1547 O   0  0  0  0  0  0  0  0  0  0  0  0
    7.4688  -17.9194   19.4649 O   0  0  0  0  0  0  0  0  0  0  0  0
    6.7664  -12.6249   25.9838 C   0  0  0  0  0  0  0  0  0  0  0  0
    7.8541  -13.4296   25.2651 C   0  0  2  0  0  0  0  0  0  0  0  0
    7.2667  -13.9312   24.0580 N   0  0  0  0  0  0  0  0  0  0  0  0
    8.2696  -14.4946   26.2054 C   0  0  0  0  0  0  0  0  0  0  0  0
    7.5773  -15.4775   26.5239 O   0  0  0  0  0  0  0  0  0  0  0  0
    9.5808  -14.3435   26.7718 N   0  0  0  0  0  0  0  0  0  0  0  0
   10.1454  -15.2883   27.6880 C   0  0  1  0  0  0  0  0  0  0  0  0
   11.6710  -15.2513   27.5342 C   0  0  0  0  0  0  0  0  0  0  0  0
   12.1811  -15.6119   25.8525 S   0  0  0  0  0  0  0  0  0  0  0  0
    9.8101  -14.8787   29.0667 C   0  0  0  0  0  0  0  0  0  0  0  0
    9.2461  -13.6404   29.3014 O   0  0  0  0  0  0  0  0  0  0  0  0
   10.0270  -15.6341   30.0359 O   0  0  0  0  0  0  0  0  0  0  0  0
  2  1  1  6
  2  3  1  0
  4  5  2  0
  4  3  1  0
  6  2  1  0
  7  6  2  0
  8  4  1  0
 10  9  1  1
 10 12  1  0
 10 11  1  0
 11  6  1  0
 12 13  2  0
 14 15  1  0
 14 12  1  0
 15 16  1  1
 16 17  1  0
 18 15  1  0
 19 18  1  0
 20 18  2  0
M  END
$$$$
