DAC.pdb
     RDKit          3D

 20 19  0  0  1  0  0  0  0  0999 V2000
    6.5949  -18.1670   21.5624 N   0  0  0  0  0  0  0  0  0  0  0  0
    8.0426  -18.2296   21.6010 C   0  0  1  0  0  0  0  0  0  0  0  0
    8.4740  -18.9491   20.3330 C   0  0  0  0  0  0  0  0  0  0  0  0
    8.4076  -20.4048   20.6296 C   0  0  0  0  0  0  0  0  0  0  0  0
    8.0171  -20.7933   21.7606 O   0  0  0  0  0  0  0  0  0  0  0  0
    8.5654  -16.8564   21.6678 C   0  0  0  0  0  0  0  0  0  0  0  0
    9.8041  -16.6651   21.7220 O   0  0  0  0  0  0  0  0  0  0  0  0
    8.7594  -21.3844   19.7104 O   0  0  0  0  0  0  0  0  0  0  0  0
    7.2043  -13.4738   20.9999 C   0  0  0  0  0  0  0  0  0  0  0  0
    8.2378  -14.3427   21.7239 C   0  0  2  0  0  0  0  0  0  0  0  0
    7.7508  -15.6896   21.6760 N   0  0  0  0  0  0  0  0  0  0  0  0
    8.3423  -13.8021   23.0980 C   0  0  0  0  0  0  0  0  0  0  0  0
    8.7599  -12.6677   23.3904 O   0  0  0  0  0  0  0  0  0  0  0  0
    7.9185  -14.6883   24.1457 N   0  0  0  0  0  0  0  0  0  0  0  0
    7.9193  -14.3141   25.5281 C   0  0  1  0  0  0  0  0  0  0  0  0
    6.5095  -14.5435   26.0869 C   0  0  0  0  0  0  0  0  0  0  0  0
    5.5211  -13.0471   26.0393 S   0  0  0  0  0  0  0  0  0  0  0  0
    8.8551  -15.1900   26.2617 C   0  0  0  0  0  0  0  0  0  0  0  0
    9.0718  -14.9926   27.6110 O   0  0  0  0  0  0  0  0  0  0  0  0
    9.4616  -16.1149   25.6842 O   0  0  0  0  0  0  0  0  0  0  0  0
  2  1  1  6
  2  3  1  0
  4  5  2  0
  4  3  1  0
  6  2  1  0
  7  6  2  0
  8  4  1  0
 10  9  1  6
 10 12  1  0
 10 11  1  0
 11  6  1  0
 12 13  2  0
 14 15  1  0
 14 12  1  0
 15 16  1  1
 16 17  1  0
 18 15  1  0
 19 18  1  0
 20 18  2  0
M  END
$$$$
