CTE.pdb
     RDKit          3D

 23 22  0  0  1  0  0  0  0  0999 V2000
   26.0080  -17.2428  -17.2768 N   0  0  0  0  0  0  0  0  0  0  0  0
   25.0371  -16.2146  -17.0808 C   0  0  1  0  0  0  0  0  0  0  0  0
   24.0952  -16.6061  -15.9550 C   0  0  0  0  0  0  0  0  0  0  0  0
   23.0196  -17.9720  -16.3887 S   0  0  0  0  0  0  0  0  0  0  0  0
   25.6488  -14.9155  -16.6641 C   0  0  0  0  0  0  0  0  0  0  0  0
   26.7266  -14.9290  -16.0150 O   0  0  0  0  0  0  0  0  0  0  0  0
   27.8330  -13.7310  -17.1088 C   0  0  0  0  0  0  0  0  0  0  0  0
   27.0461  -12.4864  -17.4870 C   0  0  1  0  0  0  0  0  0  0  0  0
   26.6318  -12.6938  -18.8344 O   0  0  0  0  0  0  0  0  0  0  0  0
   25.7734  -12.3861  -16.6509 C   0  0  2  0  0  0  0  0  0  0  0  0
   25.0799  -13.6668  -16.9610 N   0  0  0  0  0  0  0  0  0  0  0  0
   24.9115  -11.2625  -17.0250 C   0  0  0  0  0  0  0  0  0  0  0  0
   23.9918  -11.4231  -17.8959 O   0  0  0  0  0  0  0  0  0  0  0  0
   25.0313   -9.9731  -16.4671 N   0  0  0  0  0  0  0  0  0  0  0  0
   24.1279   -8.8824  -16.8245 C   0  0  1  0  0  0  0  0  0  0  0  0
   22.7803   -9.2404  -16.2567 C   0  0  0  0  0  0  0  0  0  0  0  0
   21.7335   -8.1965  -16.4384 C   0  0  0  0  0  0  0  0  0  0  0  0
   20.4904   -8.4194  -15.6800 C   0  0  0  0  0  0  0  0  0  0  0  0
   20.0162   -9.5664  -15.5199 O   0  0  0  0  0  0  0  0  0  0  0  0
   24.6676   -7.6297  -16.2699 C   0  0  0  0  0  0  0  0  0  0  0  0
   24.1970   -6.4183  -16.6984 O   0  0  0  0  0  0  0  0  0  0  0  0
   19.7922   -7.3661  -15.1106 O   0  0  0  0  0  0  0  0  0  0  0  0
   25.5645   -7.6843  -15.3994 O   0  0  0  0  0  0  0  0  0  0  0  0
  2  1  1  1
  2  3  1  0
  3  4  1  0
  5  2  1  0
  6  5  2  0
  8  7  1  1
  8 10  1  0
  9  8  1  0
 10 11  1  6
 10 12  1  0
 11  5  1  0
 12 14  1  0
 13 12  2  0
 14 15  1  0
 15 16  1  1
 16 17  1  0
 17 18  1  0
 18 22  1  0
 19 18  2  0
 20 21  1  0
 20 15  1  0
 23 20  2  0
M  END
$$$$
