CTE.pdb
     RDKit          3D

 23 22  0  0  1  0  0  0  0  0999 V2000
   15.8410  -11.3322  -15.6717 N   0  0  0  0  0  0  0  0  0  0  0  0
   17.1763  -11.0820  -15.2328 C   0  0  1  0  0  0  0  0  0  0  0  0
   18.0832  -12.2175  -15.6751 C   0  0  0  0  0  0  0  0  0  0  0  0
   17.7912  -13.7363  -14.7703 S   0  0  0  0  0  0  0  0  0  0  0  0
   17.7576   -9.8418  -15.8326 C   0  0  0  0  0  0  0  0  0  0  0  0
   17.4043   -9.5009  -16.9910 O   0  0  0  0  0  0  0  0  0  0  0  0
   16.7779   -7.5236  -16.5414 C   0  0  0  0  0  0  0  0  0  0  0  0
   17.8535   -6.8870  -15.6758 C   0  0  1  0  0  0  0  0  0  0  0  0
   17.3621   -6.9651  -14.3407 O   0  0  0  0  0  0  0  0  0  0  0  0
   19.1327   -7.7182  -15.7179 C   0  0  2  0  0  0  0  0  0  0  0  0
   18.6870   -9.0275  -15.1661 N   0  0  0  0  0  0  0  0  0  0  0  0
   20.2108   -7.1802  -14.8853 C   0  0  0  0  0  0  0  0  0  0  0  0
   20.1893   -7.3516  -13.6202 O   0  0  0  0  0  0  0  0  0  0  0  0
   21.3090   -6.4644  -15.4044 N   0  0  0  0  0  0  0  0  0  0  0  0
   22.3801   -5.9545  -14.5521 C   0  0  1  0  0  0  0  0  0  0  0  0
   23.6148   -5.8887  -15.4109 C   0  0  0  0  0  0  0  0  0  0  0  0
   23.9973   -7.1801  -16.0470 C   0  0  0  0  0  0  0  0  0  0  0  0
   25.2202   -7.1346  -16.8672 C   0  0  0  0  0  0  0  0  0  0  0  0
   25.6762   -6.0549  -17.3060 O   0  0  0  0  0  0  0  0  0  0  0  0
   21.9746   -4.6381  -14.0318 C   0  0  0  0  0  0  0  0  0  0  0  0
   22.5582   -4.1240  -12.9058 O   0  0  0  0  0  0  0  0  0  0  0  0
   25.9187   -8.2879  -17.1882 O   0  0  0  0  0  0  0  0  0  0  0  0
   21.0875   -3.9915  -14.6320 O   0  0  0  0  0  0  0  0  0  0  0  0
  2  1  1  6
  2  3  1  0
  3  4  1  0
  5  2  1  0
  6  5  2  0
  8  7  1  6
  8 10  1  0
  9  8  1  0
 10 11  1  1
 10 12  1  0
 11  5  1  0
 12 14  1  0
 13 12  2  0
 14 15  1  0
 15 16  1  6
 16 17  1  0
 17 18  1  0
 18 22  1  0
 19 18  2  0
 20 21  1  0
 20 15  1  0
 23 20  2  0
M  END
$$$$
