CTE.pdb
     RDKit          3D

 23 22  0  0  1  0  0  0  0  0999 V2000
   28.0054  -21.1831  -10.4375 N   0  0  0  0  0  0  0  0  0  0  0  0
   26.5798  -21.2360  -10.3804 C   0  0  1  0  0  0  0  0  0  0  0  0
   26.0787  -20.3595   -9.2454 C   0  0  0  0  0  0  0  0  0  0  0  0
   26.9011  -20.6956   -7.6893 S   0  0  0  0  0  0  0  0  0  0  0  0
   25.9329  -20.7042  -11.6191 C   0  0  0  0  0  0  0  0  0  0  0  0
   26.6268  -20.0429  -12.4340 O   0  0  0  0  0  0  0  0  0  0  0  0
   26.2709  -21.1620  -14.0965 C   0  0  0  0  0  0  0  0  0  0  0  0
   24.7786  -21.4291  -14.2111 C   0  0  1  0  0  0  0  0  0  0  0  0
   24.5967  -22.7679  -13.7588 O   0  0  0  0  0  0  0  0  0  0  0  0
   24.0017  -20.5353  -13.2487 C   0  0  2  0  0  0  0  0  0  0  0  0
   24.5778  -20.9049  -11.9262 N   0  0  0  0  0  0  0  0  0  0  0  0
   22.5600  -20.7931  -13.2413 C   0  0  0  0  0  0  0  0  0  0  0  0
   22.0516  -21.5631  -12.3587 O   0  0  0  0  0  0  0  0  0  0  0  0
   21.6654  -20.2268  -14.1724 N   0  0  0  0  0  0  0  0  0  0  0  0
   20.2163  -20.3466  -14.0331 C   0  0  1  0  0  0  0  0  0  0  0  0
   19.6143  -19.2559  -14.8783 C   0  0  0  0  0  0  0  0  0  0  0  0
   18.1295  -19.3037  -14.9871 C   0  0  0  0  0  0  0  0  0  0  0  0
   17.5364  -18.3004  -15.8881 C   0  0  0  0  0  0  0  0  0  0  0  0
   17.3052  -18.5543  -17.0916 O   0  0  0  0  0  0  0  0  0  0  0  0
   19.8162  -21.6948  -14.4694 C   0  0  0  0  0  0  0  0  0  0  0  0
   20.5160  -22.3466  -15.4482 O   0  0  0  0  0  0  0  0  0  0  0  0
   17.2087  -17.0304  -15.4401 O   0  0  0  0  0  0  0  0  0  0  0  0
   18.8259  -22.2407  -13.9341 O   0  0  0  0  0  0  0  0  0  0  0  0
  2  1  1  6
  2  3  1  0
  3  4  1  0
  5  2  1  0
  6  5  2  0
  8  7  1  1
  8 10  1  0
  9  8  1  0
 10 11  1  1
 10 12  1  0
 11  5  1  0
 12 14  1  0
 13 12  2  0
 14 15  1  0
 15 16  1  6
 16 17  1  0
 17 18  1  0
 18 22  1  0
 19 18  2  0
 20 21  1  0
 20 15  1  0
 23 20  2  0
M  END
$$$$
