CTE.pdb
     RDKit          3D

 23 22  0  0  1  0  0  0  0  0999 V2000
   25.8820  -21.9786  -13.1735 N   0  0  0  0  0  0  0  0  0  0  0  0
   24.5537  -21.7735  -13.6551 C   0  0  1  0  0  0  0  0  0  0  0  0
   23.5916  -21.6800  -12.4833 C   0  0  0  0  0  0  0  0  0  0  0  0
   23.3407  -23.2515  -11.6598 S   0  0  0  0  0  0  0  0  0  0  0  0
   24.4044  -20.4889  -14.4056 C   0  0  0  0  0  0  0  0  0  0  0  0
   25.0265  -19.4717  -14.0038 O   0  0  0  0  0  0  0  0  0  0  0  0
   25.9044  -18.7887  -15.6505 C   0  0  0  0  0  0  0  0  0  0  0  0
   24.9330  -18.8889  -16.8157 C   0  0  1  0  0  0  0  0  0  0  0  0
   25.2814  -20.0901  -17.4983 O   0  0  0  0  0  0  0  0  0  0  0  0
   23.5068  -19.0760  -16.3061 C   0  0  2  0  0  0  0  0  0  0  0  0
   23.5986  -20.3540  -15.5473 N   0  0  0  0  0  0  0  0  0  0  0  0
   22.5143  -19.2139  -17.3743 C   0  0  0  0  0  0  0  0  0  0  0  0
   22.2006  -20.3718  -17.8114 O   0  0  0  0  0  0  0  0  0  0  0  0
   21.8579  -18.1175  -17.9702 N   0  0  0  0  0  0  0  0  0  0  0  0
   20.4065  -18.0701  -18.1280 C   0  0  1  0  0  0  0  0  0  0  0  0
   19.8195  -18.5433  -16.8250 C   0  0  0  0  0  0  0  0  0  0  0  0
   18.3309  -18.5863  -16.7947 C   0  0  0  0  0  0  0  0  0  0  0  0
   17.7443  -19.0258  -15.5168 C   0  0  0  0  0  0  0  0  0  0  0  0
   17.2751  -18.2076  -14.6943 O   0  0  0  0  0  0  0  0  0  0  0  0
   20.0191  -16.6893  -18.4618 C   0  0  0  0  0  0  0  0  0  0  0  0
   20.8612  -15.6449  -18.1924 O   0  0  0  0  0  0  0  0  0  0  0  0
   17.6874  -20.3668  -15.1709 O   0  0  0  0  0  0  0  0  0  0  0  0
   18.9075  -16.4796  -18.9963 O   0  0  0  0  0  0  0  0  0  0  0  0
  2  1  1  1
  2  3  1  0
  3  4  1  0
  5  2  1  0
  6  5  2  0
  8  7  1  1
  8 10  1  0
  9  8  1  0
 10 11  1  1
 10 12  1  0
 11  5  1  0
 12 14  1  0
 13 12  2  0
 14 15  1  0
 15 16  1  1
 16 17  1  0
 17 18  1  0
 18 22  1  0
 19 18  2  0
 20 21  1  0
 20 15  1  0
 23 20  2  0
M  END
$$$$
