CTE.pdb
     RDKit          3D

 23 22  0  0  1  0  0  0  0  0999 V2000
   15.5629  -12.4278  -15.8903 N   0  0  0  0  0  0  0  0  0  0  0  0
   16.7309  -11.9527  -15.2209 C   0  0  1  0  0  0  0  0  0  0  0  0
   17.8895  -12.9020  -15.4741 C   0  0  0  0  0  0  0  0  0  0  0  0
   17.8082  -14.3849  -14.4714 S   0  0  0  0  0  0  0  0  0  0  0  0
   17.1822  -10.6192  -15.7246 C   0  0  0  0  0  0  0  0  0  0  0  0
   17.4199  -10.4793  -16.9521 O   0  0  0  0  0  0  0  0  0  0  0  0
   15.3280   -7.7187  -15.9408 C   0  0  0  0  0  0  0  0  0  0  0  0
   16.5190   -7.3117  -15.0880 C   0  0  1  0  0  0  0  0  0  0  0  0
   16.1569   -7.6387  -13.7493 O   0  0  0  0  0  0  0  0  0  0  0  0
   17.7364   -8.1656  -15.4304 C   0  0  2  0  0  0  0  0  0  0  0  0
   17.3570   -9.5016  -14.8931 N   0  0  0  0  0  0  0  0  0  0  0  0
   18.9713   -7.7139  -14.7854 C   0  0  0  0  0  0  0  0  0  0  0  0
   19.2720   -8.1293  -13.6160 O   0  0  0  0  0  0  0  0  0  0  0  0
   19.8824   -6.8239  -15.3903 N   0  0  0  0  0  0  0  0  0  0  0  0
   21.1584   -6.4747  -14.7710 C   0  0  1  0  0  0  0  0  0  0  0  0
   22.2332   -6.9282  -15.7226 C   0  0  0  0  0  0  0  0  0  0  0  0
   23.6216   -6.6085  -15.2879 C   0  0  0  0  0  0  0  0  0  0  0  0
   24.6762   -6.9656  -16.2526 C   0  0  0  0  0  0  0  0  0  0  0  0
   25.3867   -7.9845  -16.1007 O   0  0  0  0  0  0  0  0  0  0  0  0
   21.1795   -5.0214  -14.5352 C   0  0  0  0  0  0  0  0  0  0  0  0
   22.0172   -4.4796  -13.5985 O   0  0  0  0  0  0  0  0  0  0  0  0
   24.9265   -6.1864  -17.3712 O   0  0  0  0  0  0  0  0  0  0  0  0
   20.4206   -4.2838  -15.2024 O   0  0  0  0  0  0  0  0  0  0  0  0
  2  1  1  6
  2  3  1  0
  3  4  1  0
  5  2  1  0
  6  5  2  0
  8  7  1  6
  8 10  1  0
  9  8  1  0
 10 11  1  1
 10 12  1  0
 11  5  1  0
 12 14  1  0
 13 12  2  0
 14 15  1  0
 15 16  1  6
 16 17  1  0
 17 18  1  0
 18 22  1  0
 19 18  2  0
 20 21  1  0
 20 15  1  0
 23 20  2  0
M  END
$$$$
