CTE.pdb
     RDKit          3D

 23 22  0  0  1  0  0  0  0  0999 V2000
   19.3635  -13.7750  -16.7021 N   0  0  0  0  0  0  0  0  0  0  0  0
   19.4320  -12.3887  -17.0361 C   0  0  1  0  0  0  0  0  0  0  0  0
   18.0309  -11.8046  -17.0929 C   0  0  0  0  0  0  0  0  0  0  0  0
   16.9973  -12.5901  -18.3280 S   0  0  0  0  0  0  0  0  0  0  0  0
   20.1653  -11.5840  -16.0111 C   0  0  0  0  0  0  0  0  0  0  0  0
   19.8443  -11.7003  -14.8002 O   0  0  0  0  0  0  0  0  0  0  0  0
   23.4879  -11.7768  -14.9935 C   0  0  0  0  0  0  0  0  0  0  0  0
   23.3430  -10.3250  -15.4212 C   0  0  1  0  0  0  0  0  0  0  0  0
   23.6542  -10.3059  -16.8115 O   0  0  0  0  0  0  0  0  0  0  0  0
   21.8906   -9.8744  -15.2941 C   0  0  2  0  0  0  0  0  0  0  0  0
   21.2045  -10.6954  -16.3298 N   0  0  0  0  0  0  0  0  0  0  0  0
   21.6884   -8.4535  -15.5862 C   0  0  0  0  0  0  0  0  0  0  0  0
   21.3276   -8.0848  -16.7542 O   0  0  0  0  0  0  0  0  0  0  0  0
   21.8685   -7.4316  -14.6317 N   0  0  0  0  0  0  0  0  0  0  0  0
   21.6800   -6.0199  -14.9564 C   0  0  1  0  0  0  0  0  0  0  0  0
   20.2164   -5.8436  -15.2616 C   0  0  0  0  0  0  0  0  0  0  0  0
   19.7876   -4.4292  -15.4473 C   0  0  0  0  0  0  0  0  0  0  0  0
   18.3378   -4.2335  -15.6207 C   0  0  0  0  0  0  0  0  0  0  0  0
   17.8105   -3.1038  -15.5110 O   0  0  0  0  0  0  0  0  0  0  0  0
   22.1256   -5.2141  -13.8074 C   0  0  0  0  0  0  0  0  0  0  0  0
   22.4520   -3.8947  -13.9664 O   0  0  0  0  0  0  0  0  0  0  0  0
   17.4951   -5.2942  -15.9133 O   0  0  0  0  0  0  0  0  0  0  0  0
   22.2031   -5.7500  -12.6795 O   0  0  0  0  0  0  0  0  0  0  0  0
  2  1  1  1
  2  3  1  0
  3  4  1  0
  5  2  1  0
  6  5  2  0
  8  7  1  6
  8 10  1  0
  9  8  1  0
 10 11  1  6
 10 12  1  0
 11  5  1  0
 12 14  1  0
 13 12  2  0
 14 15  1  0
 15 16  1  1
 16 17  1  0
 17 18  1  0
 18 22  1  0
 19 18  2  0
 20 21  1  0
 20 15  1  0
 23 20  2  0
M  END
$$$$
