CTE.pdb
     RDKit          3D

 23 22  0  0  1  0  0  0  0  0999 V2000
   19.1009  -16.7447  -17.2330 N   0  0  0  0  0  0  0  0  0  0  0  0
   19.0836  -15.8106  -16.1535 C   0  0  1  0  0  0  0  0  0  0  0  0
   20.2086  -16.1270  -15.1830 C   0  0  0  0  0  0  0  0  0  0  0  0
   19.7888  -17.4329  -14.0302 S   0  0  0  0  0  0  0  0  0  0  0  0
   19.3200  -14.4045  -16.6036 C   0  0  0  0  0  0  0  0  0  0  0  0
   20.2780  -14.1666  -17.3838 O   0  0  0  0  0  0  0  0  0  0  0  0
   17.3730  -12.3859  -18.7035 C   0  0  0  0  0  0  0  0  0  0  0  0
   17.4711  -11.5986  -17.4066 C   0  0  1  0  0  0  0  0  0  0  0  0
   16.4085  -12.0804  -16.5887 O   0  0  0  0  0  0  0  0  0  0  0  0
   18.7685  -11.9338  -16.6764 C   0  0  2  0  0  0  0  0  0  0  0  0
   18.5223  -13.3226  -16.1986 N   0  0  0  0  0  0  0  0  0  0  0  0
   19.0386  -11.0646  -15.5290 C   0  0  0  0  0  0  0  0  0  0  0  0
   18.6372  -11.3988  -14.3639 O   0  0  0  0  0  0  0  0  0  0  0  0
   19.7381   -9.8444  -15.6273 N   0  0  0  0  0  0  0  0  0  0  0  0
   19.9380   -8.9659  -14.4775 C   0  0  1  0  0  0  0  0  0  0  0  0
   21.0162   -7.9903  -14.8677 C   0  0  0  0  0  0  0  0  0  0  0  0
   21.3096   -6.9484  -13.8444 C   0  0  0  0  0  0  0  0  0  0  0  0
   22.2917   -5.9296  -14.2539 C   0  0  0  0  0  0  0  0  0  0  0  0
   22.5489   -4.9391  -13.5335 O   0  0  0  0  0  0  0  0  0  0  0  0
   18.6579   -8.3087  -14.1653 C   0  0  0  0  0  0  0  0  0  0  0  0
   17.7625   -8.0195  -15.1589 O   0  0  0  0  0  0  0  0  0  0  0  0
   22.9736   -6.0251  -15.4568 O   0  0  0  0  0  0  0  0  0  0  0  0
   18.3960   -8.0160  -12.9774 O   0  0  0  0  0  0  0  0  0  0  0  0
  2  1  1  6
  2  3  1  0
  3  4  1  0
  5  2  1  0
  6  5  2  0
  8  7  1  6
  8 10  1  0
  9  8  1  0
 10 11  1  1
 10 12  1  0
 11  5  1  0
 12 14  1  0
 13 12  2  0
 14 15  1  0
 15 16  1  6
 16 17  1  0
 17 18  1  0
 18 22  1  0
 19 18  2  0
 20 21  1  0
 20 15  1  0
 23 20  2  0
M  END
$$$$
