CTE.pdb
     RDKit          3D

 23 22  0  0  1  0  0  0  0  0999 V2000
   19.6821  -13.0984  -16.4458 N   0  0  0  0  0  0  0  0  0  0  0  0
   20.4775  -12.0591  -17.0162 C   0  0  1  0  0  0  0  0  0  0  0  0
   20.5816  -12.2582  -18.5185 C   0  0  0  0  0  0  0  0  0  0  0  0
   21.5290  -10.9711  -19.3287 S   0  0  0  0  0  0  0  0  0  0  0  0
   19.8761  -10.7032  -16.8277 C   0  0  0  0  0  0  0  0  0  0  0  0
   19.0658  -10.2704  -17.6874 O   0  0  0  0  0  0  0  0  0  0  0  0
   17.5281   -9.6717  -14.9594 C   0  0  0  0  0  0  0  0  0  0  0  0
   18.5617   -8.6380  -14.5415 C   0  0  1  0  0  0  0  0  0  0  0  0
   19.2068   -9.1876  -13.3961 O   0  0  0  0  0  0  0  0  0  0  0  0
   19.6345   -8.4920  -15.6169 C   0  0  2  0  0  0  0  0  0  0  0  0
   20.1697   -9.8770  -15.7313 N   0  0  0  0  0  0  0  0  0  0  0  0
   20.7187   -7.5800  -15.2455 C   0  0  0  0  0  0  0  0  0  0  0  0
   21.9118   -8.0187  -15.1253 O   0  0  0  0  0  0  0  0  0  0  0  0
   20.5276   -6.2036  -15.0067 N   0  0  0  0  0  0  0  0  0  0  0  0
   21.6201   -5.3248  -14.5969 C   0  0  1  0  0  0  0  0  0  0  0  0
   21.2247   -3.9316  -15.0083 C   0  0  0  0  0  0  0  0  0  0  0  0
   21.0728   -3.7383  -16.4774 C   0  0  0  0  0  0  0  0  0  0  0  0
   20.6405   -2.3915  -16.8890 C   0  0  0  0  0  0  0  0  0  0  0  0
   19.5765   -2.2087  -17.5220 O   0  0  0  0  0  0  0  0  0  0  0  0
   21.8065   -5.4604  -13.1426 C   0  0  0  0  0  0  0  0  0  0  0  0
   20.9503   -6.2261  -12.3988 O   0  0  0  0  0  0  0  0  0  0  0  0
   21.3955   -1.2678  -16.5920 O   0  0  0  0  0  0  0  0  0  0  0  0
   22.7595   -4.8660  -12.5915 O   0  0  0  0  0  0  0  0  0  0  0  0
  2  1  1  6
  2  3  1  0
  3  4  1  0
  5  2  1  0
  6  5  2  0
  8  7  1  6
  8 10  1  0
  9  8  1  0
 10 11  1  1
 10 12  1  0
 11  5  1  0
 12 14  1  0
 13 12  2  0
 14 15  1  0
 15 16  1  1
 16 17  1  0
 17 18  1  0
 18 22  1  0
 19 18  2  0
 20 21  1  0
 20 15  1  0
 23 20  2  0
M  END
$$$$
