CTE.pdb
     RDKit          3D

 23 22  0  0  1  0  0  0  0  0999 V2000
   20.9334  -13.9625    9.2755 N   0  0  0  0  0  0  0  0  0  0  0  0
   21.4333  -15.1770    8.7157 C   0  0  1  0  0  0  0  0  0  0  0  0
   22.6941  -15.5997    9.4500 C   0  0  0  0  0  0  0  0  0  0  0  0
   24.1511  -14.7121    8.9022 S   0  0  0  0  0  0  0  0  0  0  0  0
   20.4768  -16.3167    8.8635 C   0  0  0  0  0  0  0  0  0  0  0  0
   19.8717  -16.4676    9.9563 O   0  0  0  0  0  0  0  0  0  0  0  0
   17.4487  -16.6141    7.6025 C   0  0  0  0  0  0  0  0  0  0  0  0
   18.0850  -17.8912    7.0776 C   0  0  1  0  0  0  0  0  0  0  0  0
   18.6828  -17.5345    5.8344 O   0  0  0  0  0  0  0  0  0  0  0  0
   19.2206  -18.3367    7.9946 C   0  0  2  0  0  0  0  0  0  0  0  0
   20.2139  -17.2385    7.8378 N   0  0  0  0  0  0  0  0  0  0  0  0
   19.8322  -19.6071    7.5980 C   0  0  0  0  0  0  0  0  0  0  0  0
   20.8090  -19.6184    6.7757 O   0  0  0  0  0  0  0  0  0  0  0  0
   19.4025  -20.8598    8.0815 N   0  0  0  0  0  0  0  0  0  0  0  0
   20.0377  -22.1112    7.6761 C   0  0  1  0  0  0  0  0  0  0  0  0
   20.0922  -22.9801    8.9044 C   0  0  0  0  0  0  0  0  0  0  0  0
   21.1626  -22.6163    9.8743 C   0  0  0  0  0  0  0  0  0  0  0  0
   21.2336  -23.4674   11.0747 C   0  0  0  0  0  0  0  0  0  0  0  0
   21.5567  -24.6744   11.0051 O   0  0  0  0  0  0  0  0  0  0  0  0
   19.2422  -22.7066    6.5894 C   0  0  0  0  0  0  0  0  0  0  0  0
   19.7716  -23.6871    5.7950 O   0  0  0  0  0  0  0  0  0  0  0  0
   20.9450  -22.9661   12.3342 O   0  0  0  0  0  0  0  0  0  0  0  0
   18.0726  -22.3055    6.3988 O   0  0  0  0  0  0  0  0  0  0  0  0
  2  1  1  1
  2  3  1  0
  3  4  1  0
  5  2  1  0
  6  5  2  0
  8  7  1  1
  8 10  1  0
  9  8  1  0
 10 11  1  6
 10 12  1  0
 11  5  1  0
 12 14  1  0
 13 12  2  0
 14 15  1  0
 15 16  1  1
 16 17  1  0
 17 18  1  0
 18 22  1  0
 19 18  2  0
 20 21  1  0
 20 15  1  0
 23 20  2  0
M  END
$$$$
