CTE.pdb
     RDKit          3D

 23 22  0  0  1  0  0  0  0  0999 V2000
   25.9295  -12.7476  -17.3792 N   0  0  0  0  0  0  0  0  0  0  0  0
   25.8773  -11.5990  -16.5329 C   0  0  1  0  0  0  0  0  0  0  0  0
   27.2717  -11.0195  -16.3675 C   0  0  0  0  0  0  0  0  0  0  0  0
   28.3721  -12.0995  -15.4545 S   0  0  0  0  0  0  0  0  0  0  0  0
   25.0459  -10.4969  -17.1072 C   0  0  0  0  0  0  0  0  0  0  0  0
   24.8975  -10.4312  -18.3548 O   0  0  0  0  0  0  0  0  0  0  0  0
   22.6824  -10.3636  -18.3739 C   0  0  0  0  0  0  0  0  0  0  0  0
   22.2873   -9.3496  -17.3123 C   0  0  1  0  0  0  0  0  0  0  0  0
   21.9248  -10.1185  -16.1688 O   0  0  0  0  0  0  0  0  0  0  0  0
   23.4927   -8.5067  -16.9055 C   0  0  2  0  0  0  0  0  0  0  0  0
   24.4145   -9.5198  -16.3212 N   0  0  0  0  0  0  0  0  0  0  0  0
   23.1853   -7.4893  -15.8978 C   0  0  0  0  0  0  0  0  0  0  0  0
   23.3195   -7.7562  -14.6565 O   0  0  0  0  0  0  0  0  0  0  0  0
   22.7391   -6.1905  -16.2172 N   0  0  0  0  0  0  0  0  0  0  0  0
   22.4382   -5.1955  -15.1910 C   0  0  1  0  0  0  0  0  0  0  0  0
   22.2421   -3.8870  -15.9092 C   0  0  0  0  0  0  0  0  0  0  0  0
   21.8232   -2.7563  -15.0346 C   0  0  0  0  0  0  0  0  0  0  0  0
   21.6423   -1.4670  -15.7240 C   0  0  0  0  0  0  0  0  0  0  0  0
   22.2256   -1.2114  -16.8013 O   0  0  0  0  0  0  0  0  0  0  0  0
   21.2378   -5.6308  -14.4578 C   0  0  0  0  0  0  0  0  0  0  0  0
   21.1366   -5.4340  -13.1074 O   0  0  0  0  0  0  0  0  0  0  0  0
   20.8168   -0.4807  -15.2075 O   0  0  0  0  0  0  0  0  0  0  0  0
   20.3074   -6.1848  -15.0844 O   0  0  0  0  0  0  0  0  0  0  0  0
  2  1  1  6
  2  3  1  0
  3  4  1  0
  5  2  1  0
  6  5  2  0
  8  7  1  6
  8 10  1  0
  9  8  1  0
 10 11  1  1
 10 12  1  0
 11  5  1  0
 12 14  1  0
 13 12  2  0
 14 15  1  0
 15 16  1  6
 16 17  1  0
 17 18  1  0
 18 22  1  0
 19 18  2  0
 20 21  1  0
 20 15  1  0
 23 20  2  0
M  END
$$$$
