CTE.pdb
     RDKit          3D

 23 22  0  0  1  0  0  0  0  0999 V2000
   27.0359  -14.7647  -18.6749 N   0  0  0  0  0  0  0  0  0  0  0  0
   26.0402  -13.7458  -18.7669 C   0  0  1  0  0  0  0  0  0  0  0  0
   24.6781  -14.3273  -18.4290 C   0  0  0  0  0  0  0  0  0  0  0  0
   24.1649  -15.6104  -19.5696 S   0  0  0  0  0  0  0  0  0  0  0  0
   26.2600  -12.6346  -17.7909 C   0  0  0  0  0  0  0  0  0  0  0  0
   26.9980  -12.8370  -16.7922 O   0  0  0  0  0  0  0  0  0  0  0  0
   28.3150  -11.3834  -17.1259 C   0  0  0  0  0  0  0  0  0  0  0  0
   27.5924  -10.0822  -17.4362 C   0  0  1  0  0  0  0  0  0  0  0  0
   27.6768   -9.9289  -18.8503 O   0  0  0  0  0  0  0  0  0  0  0  0
   26.1089  -10.2030  -17.0995 C   0  0  2  0  0  0  0  0  0  0  0  0
   25.6813  -11.3631  -17.9295 N   0  0  0  0  0  0  0  0  0  0  0  0
   25.3241   -9.0232  -17.4702 C   0  0  0  0  0  0  0  0  0  0  0  0
   25.0345   -8.8055  -18.6945 O   0  0  0  0  0  0  0  0  0  0  0  0
   24.8486   -8.0819  -16.5343 N   0  0  0  0  0  0  0  0  0  0  0  0
   24.0235   -6.9420  -16.9261 C   0  0  1  0  0  0  0  0  0  0  0  0
   23.0115   -6.7498  -15.8283 C   0  0  0  0  0  0  0  0  0  0  0  0
   21.5934   -6.8979  -16.2592 C   0  0  0  0  0  0  0  0  0  0  0  0
   20.5927   -6.6854  -15.1991 C   0  0  0  0  0  0  0  0  0  0  0  0
   20.9261   -6.3577  -14.0382 O   0  0  0  0  0  0  0  0  0  0  0  0
   24.9001   -5.7728  -17.1068 C   0  0  0  0  0  0  0  0  0  0  0  0
   24.5348   -4.7502  -17.9396 O   0  0  0  0  0  0  0  0  0  0  0  0
   19.2372   -6.8400  -15.4431 O   0  0  0  0  0  0  0  0  0  0  0  0
   25.9868   -5.7234  -16.4889 O   0  0  0  0  0  0  0  0  0  0  0  0
  2  1  1  1
  2  3  1  0
  3  4  1  0
  5  2  1  0
  6  5  2  0
  8  7  1  6
  8 10  1  0
  9  8  1  0
 10 11  1  6
 10 12  1  0
 11  5  1  0
 12 14  1  0
 13 12  2  0
 14 15  1  0
 15 16  1  1
 16 17  1  0
 17 18  1  0
 18 22  1  0
 19 18  2  0
 20 21  1  0
 20 15  1  0
 23 20  2  0
M  END
$$$$
