MTS.pdb
     RDKit          3D

 22 21  0  0  1  0  0  0  0  0999 V2000
   18.0363  -14.9774  -18.3710 C   0  0  0  0  0  0  0  0  0  0  0  0
   19.2217  -14.8710  -19.7458 S   0  0  0  0  0  0  0  0  0  0  0  0
   20.5613  -13.6911  -19.3311 C   0  0  0  0  0  0  0  0  0  0  0  0
   19.9115  -12.4630  -18.7263 C   0  0  0  0  0  0  0  0  0  0  0  0
   20.9087  -11.4100  -18.3574 C   0  0  2  0  0  0  0  0  0  0  0  0
   21.9378  -11.9626  -17.5289 N   0  0  0  0  0  0  0  0  0  0  0  0
   20.2916  -10.1950  -17.7829 C   0  0  0  0  0  0  0  0  0  0  0  0
   19.4475   -9.5571  -18.4629 O   0  0  0  0  0  0  0  0  0  0  0  0
   18.0804   -9.8524  -15.0534 C   0  0  0  0  0  0  0  0  0  0  0  0
   19.1585   -8.8637  -14.6649 C   0  0  1  0  0  0  0  0  0  0  0  0
   20.0238   -9.5368  -13.7938 O   0  0  0  0  0  0  0  0  0  0  0  0
   19.9651   -8.5419  -15.9036 C   0  0  2  0  0  0  0  0  0  0  0  0
   20.5865   -9.6814  -16.4909 N   0  0  0  0  0  0  0  0  0  0  0  0
   20.9131   -7.4216  -15.6628 C   0  0  0  0  0  0  0  0  0  0  0  0
   22.1598   -7.5551  -15.7588 O   0  0  0  0  0  0  0  0  0  0  0  0
   21.5339   -2.6606  -15.1167 O   0  0  0  0  0  0  0  0  0  0  0  0
   20.6571   -3.7281  -15.3596 C   0  0  0  0  0  0  0  0  0  0  0  0
   21.4054   -5.0198  -15.1054 C   0  0  2  0  0  0  0  0  0  0  0  0
   20.4521   -6.1092  -15.3033 N   0  0  0  0  0  0  0  0  0  0  0  0
   21.9904   -5.0360  -13.7658 C   0  0  0  0  0  0  0  0  0  0  0  0
   21.3649   -5.5801  -12.8239 O   0  0  0  0  0  0  0  0  0  0  0  0
   23.2215   -4.4702  -13.4848 O   0  0  0  0  0  0  0  0  0  0  0  0
  2  1  1  0
  3  2  1  0
  4  3  1  0
  5  6  1  1
  5  4  1  0
  7  5  1  0
  8  7  2  0
 10  9  1  6
 10 12  1  0
 10 11  1  0
 12 13  1  1
 13  7  1  0
 14 15  2  0
 14 12  1  0
 16 17  1  0
 18 17  1  1
 18 20  1  0
 18 19  1  0
 19 14  1  0
 20 22  1  0
 21 20  2  0
M  END
$$$$
