MTS.pdb
     RDKit          3D

 22 21  0  0  1  0  0  0  0  0999 V2000
   26.9380  -18.0626  -18.9868 C   0  0  0  0  0  0  0  0  0  0  0  0
   27.5846  -17.0749  -17.6037 S   0  0  0  0  0  0  0  0  0  0  0  0
   28.0473  -18.1716  -16.2102 C   0  0  0  0  0  0  0  0  0  0  0  0
   27.0837  -19.3411  -16.2155 C   0  0  0  0  0  0  0  0  0  0  0  0
   27.3115  -20.2765  -15.0699 C   0  0  2  0  0  0  0  0  0  0  0  0
   28.4412  -21.1182  -15.3270 N   0  0  0  0  0  0  0  0  0  0  0  0
   26.1012  -21.0327  -14.6821 C   0  0  0  0  0  0  0  0  0  0  0  0
   26.1358  -22.2899  -14.6911 O   0  0  0  0  0  0  0  0  0  0  0  0
   25.1850  -22.0098  -12.0766 C   0  0  0  0  0  0  0  0  0  0  0  0
   23.7832  -21.5244  -12.3770 C   0  0  1  0  0  0  0  0  0  0  0  0
   23.6065  -20.3387  -11.6533 O   0  0  0  0  0  0  0  0  0  0  0  0
   23.7243  -21.1443  -13.8400 C   0  0  2  0  0  0  0  0  0  0  0  0
   24.8735  -20.4331  -14.2908 N   0  0  0  0  0  0  0  0  0  0  0  0
   22.4475  -20.4596  -14.1760 C   0  0  0  0  0  0  0  0  0  0  0  0
   22.3286  -19.2077  -14.1765 O   0  0  0  0  0  0  0  0  0  0  0  0
   19.1168  -22.6844  -14.9044 O   0  0  0  0  0  0  0  0  0  0  0  0
   19.1389  -21.4575  -15.5839 C   0  0  0  0  0  0  0  0  0  0  0  0
   20.0122  -20.5005  -14.8002 C   0  0  2  0  0  0  0  0  0  0  0  0
   21.2653  -21.1988  -14.5229 N   0  0  0  0  0  0  0  0  0  0  0  0
   19.3453  -20.0585  -13.5767 C   0  0  0  0  0  0  0  0  0  0  0  0
   18.2908  -19.3830  -13.6560 O   0  0  0  0  0  0  0  0  0  0  0  0
   19.8311  -20.3560  -12.3156 O   0  0  0  0  0  0  0  0  0  0  0  0
  2  1  1  0
  3  2  1  0
  4  3  1  0
  5  6  1  6
  5  4  1  0
  7  5  1  0
  8  7  2  0
 10  9  1  6
 10 12  1  0
 10 11  1  0
 12 13  1  1
 13  7  1  0
 14 15  2  0
 14 12  1  0
 16 17  1  0
 18 17  1  1
 18 20  1  0
 18 19  1  0
 19 14  1  0
 20 22  1  0
 21 20  2  0
M  END
$$$$
