MTS.pdb
     RDKit          3D

 22 21  0  0  1  0  0  0  0  0999 V2000
   15.3467  -11.6447  -14.6678 C   0  0  0  0  0  0  0  0  0  0  0  0
   15.9326  -13.3434  -14.9471 S   0  0  0  0  0  0  0  0  0  0  0  0
   17.1928  -13.3630  -16.2775 C   0  0  0  0  0  0  0  0  0  0  0  0
   18.2612  -12.3554  -15.9038 C   0  0  0  0  0  0  0  0  0  0  0  0
   19.3671  -12.2931  -16.9098 C   0  0  2  0  0  0  0  0  0  0  0  0
   19.9806  -13.5782  -17.0606 N   0  0  0  0  0  0  0  0  0  0  0  0
   20.3414  -11.2131  -16.6426 C   0  0  0  0  0  0  0  0  0  0  0  0
   21.3678  -11.4690  -15.9624 O   0  0  0  0  0  0  0  0  0  0  0  0
   22.3219   -9.4018  -19.0085 C   0  0  0  0  0  0  0  0  0  0  0  0
   21.6953   -8.2720  -18.2200 C   0  0  1  0  0  0  0  0  0  0  0  0
   20.5774   -7.8473  -18.9485 O   0  0  0  0  0  0  0  0  0  0  0  0
   21.1673   -8.8444  -16.9231 C   0  0  2  0  0  0  0  0  0  0  0  0
   20.2030   -9.8768  -17.1067 N   0  0  0  0  0  0  0  0  0  0  0  0
   20.7045   -7.7732  -16.0010 C   0  0  0  0  0  0  0  0  0  0  0  0
   19.4901   -7.4814  -15.8551 O   0  0  0  0  0  0  0  0  0  0  0  0
   22.3507   -6.9040  -12.5570 O   0  0  0  0  0  0  0  0  0  0  0  0
   22.2107   -5.7153  -13.2883 C   0  0  0  0  0  0  0  0  0  0  0  0
   21.1482   -5.9343  -14.3447 C   0  0  2  0  0  0  0  0  0  0  0  0
   21.6297   -7.0035  -15.2164 N   0  0  0  0  0  0  0  0  0  0  0  0
   20.8759   -4.7022  -15.0829 C   0  0  0  0  0  0  0  0  0  0  0  0
   20.3928   -3.7135  -14.4800 O   0  0  0  0  0  0  0  0  0  0  0  0
   21.1307   -4.5745  -16.4370 O   0  0  0  0  0  0  0  0  0  0  0  0
  2  1  1  0
  3  2  1  0
  4  3  1  0
  5  6  1  1
  5  4  1  0
  7  5  1  0
  8  7  2  0
 10  9  1  6
 10 12  1  0
 10 11  1  0
 12 13  1  6
 13  7  1  0
 14 15  2  0
 14 12  1  0
 16 17  1  0
 18 17  1  1
 18 20  1  0
 18 19  1  0
 19 14  1  0
 20 22  1  0
 21 20  2  0
M  END
$$$$
