MTS.pdb
     RDKit          3D

 22 21  0  0  1  0  0  0  0  0999 V2000
   25.1495  -17.8952  -15.4097 C   0  0  0  0  0  0  0  0  0  0  0  0
   25.1012  -16.2112  -14.7252 S   0  0  0  0  0  0  0  0  0  0  0  0
   23.8333  -15.2148  -15.5959 C   0  0  0  0  0  0  0  0  0  0  0  0
   23.8722  -13.8188  -15.0076 C   0  0  0  0  0  0  0  0  0  0  0  0
   22.8674  -12.9044  -15.6347 C   0  0  2  0  0  0  0  0  0  0  0  0
   22.8452  -13.0828  -17.0554 N   0  0  0  0  0  0  0  0  0  0  0  0
   23.0292  -11.4912  -15.2302 C   0  0  0  0  0  0  0  0  0  0  0  0
   23.0703  -11.2057  -14.0060 O   0  0  0  0  0  0  0  0  0  0  0  0
   25.6572   -9.1086  -15.7209 C   0  0  0  0  0  0  0  0  0  0  0  0
   24.4665   -8.3362  -16.2466 C   0  0  1  0  0  0  0  0  0  0  0  0
   24.4865   -8.4696  -17.6404 O   0  0  0  0  0  0  0  0  0  0  0  0
   23.2109   -9.0320  -15.7693 C   0  0  2  0  0  0  0  0  0  0  0  0
   23.1446  -10.4058  -16.1405 N   0  0  0  0  0  0  0  0  0  0  0  0
   21.9889   -8.2695  -16.1398 C   0  0  0  0  0  0  0  0  0  0  0  0
   21.1807   -8.6676  -17.0170 O   0  0  0  0  0  0  0  0  0  0  0  0
   18.1875   -6.0136  -15.6552 O   0  0  0  0  0  0  0  0  0  0  0  0
   19.2902   -6.7980  -15.2865 C   0  0  0  0  0  0  0  0  0  0  0  0
   20.5179   -6.2373  -15.9729 C   0  0  2  0  0  0  0  0  0  0  0  0
   21.6598   -7.0216  -15.5085 N   0  0  0  0  0  0  0  0  0  0  0  0
   20.6765   -4.8119  -15.6893 C   0  0  0  0  0  0  0  0  0  0  0  0
   21.4569   -4.4454  -14.7778 O   0  0  0  0  0  0  0  0  0  0  0  0
   19.9948   -3.8335  -16.3914 O   0  0  0  0  0  0  0  0  0  0  0  0
  2  1  1  0
  3  2  1  0
  4  3  1  0
  5  6  1  6
  5  4  1  0
  7  5  1  0
  8  7  2  0
 10  9  1  1
 10 12  1  0
 10 11  1  0
 12 13  1  6
 13  7  1  0
 14 15  2  0
 14 12  1  0
 16 17  1  0
 18 17  1  1
 18 20  1  0
 18 19  1  0
 19 14  1  0
 20 22  1  0
 21 20  2  0
M  END
$$$$
