MTS.pdb
     RDKit          3D

 22 21  0  0  1  0  0  0  0  0999 V2000
   26.2761  -16.4199  -16.8191 C   0  0  0  0  0  0  0  0  0  0  0  0
   28.0445  -16.6442  -17.1788 S   0  0  0  0  0  0  0  0  0  0  0  0
   28.6711  -18.1476  -16.3387 C   0  0  0  0  0  0  0  0  0  0  0  0
   27.4670  -18.9412  -15.8734 C   0  0  0  0  0  0  0  0  0  0  0  0
   27.8506  -20.1722  -15.1139 C   0  0  2  0  0  0  0  0  0  0  0  0
   28.6755  -21.0215  -15.9195 N   0  0  0  0  0  0  0  0  0  0  0  0
   26.6942  -20.8789  -14.5220 C   0  0  0  0  0  0  0  0  0  0  0  0
   26.2546  -21.9134  -15.0863 O   0  0  0  0  0  0  0  0  0  0  0  0
   26.3047  -21.8173  -10.9266 C   0  0  0  0  0  0  0  0  0  0  0  0
   24.9399  -21.2673  -11.2812 C   0  0  1  0  0  0  0  0  0  0  0  0
   24.8760  -19.9766  -10.7418 O   0  0  0  0  0  0  0  0  0  0  0  0
   24.8778  -21.1054  -12.7840 C   0  0  2  0  0  0  0  0  0  0  0  0
   26.0262  -20.4686  -13.3365 N   0  0  0  0  0  0  0  0  0  0  0  0
   23.6005  -20.4765  -13.2137 C   0  0  0  0  0  0  0  0  0  0  0  0
   23.5068  -19.2545  -13.4951 O   0  0  0  0  0  0  0  0  0  0  0  0
   20.8149  -22.5683  -14.9531 O   0  0  0  0  0  0  0  0  0  0  0  0
   20.7189  -21.1718  -15.0425 C   0  0  0  0  0  0  0  0  0  0  0  0
   21.1383  -20.5844  -13.7114 C   0  0  2  0  0  0  0  0  0  0  0  0
   22.3886  -21.2390  -13.3331 N   0  0  0  0  0  0  0  0  0  0  0  0
   20.0952  -20.7642  -12.7030 C   0  0  0  0  0  0  0  0  0  0  0  0
   20.3353  -21.4492  -11.6795 O   0  0  0  0  0  0  0  0  0  0  0  0
   18.8358  -20.2045  -12.8275 O   0  0  0  0  0  0  0  0  0  0  0  0
  2  1  1  0
  3  2  1  0
  4  3  1  0
  5  6  1  6
  5  4  1  0
  7  5  1  0
  8  7  2  0
 10  9  1  6
 10 12  1  0
 10 11  1  0
 12 13  1  1
 13  7  1  0
 14 15  2  0
 14 12  1  0
 16 17  1  0
 18 17  1  6
 18 20  1  0
 18 19  1  0
 19 14  1  0
 20 22  1  0
 21 20  2  0
M  END
$$$$
