MTS.pdb
     RDKit          3D

 22 21  0  0  1  0  0  0  0  0999 V2000
   15.9736  -14.6859  -16.3632 C   0  0  0  0  0  0  0  0  0  0  0  0
   17.2922  -13.5920  -15.7539 S   0  0  0  0  0  0  0  0  0  0  0  0
   18.5548  -13.3421  -17.0585 C   0  0  0  0  0  0  0  0  0  0  0  0
   19.5600  -12.3393  -16.5293 C   0  0  0  0  0  0  0  0  0  0  0  0
   20.6322  -12.0231  -17.5241 C   0  0  2  0  0  0  0  0  0  0  0  0
   21.2229  -13.2279  -18.0244 N   0  0  0  0  0  0  0  0  0  0  0  0
   21.6294  -11.0535  -17.0217 C   0  0  0  0  0  0  0  0  0  0  0  0
   22.5410  -11.4551  -16.2539 O   0  0  0  0  0  0  0  0  0  0  0  0
   24.3505   -9.5272  -18.3030 C   0  0  0  0  0  0  0  0  0  0  0  0
   23.6076   -8.2895  -17.8481 C   0  0  1  0  0  0  0  0  0  0  0  0
   22.9079   -7.8104  -18.9623 O   0  0  0  0  0  0  0  0  0  0  0  0
   22.5638   -8.7157  -16.8395 C   0  0  2  0  0  0  0  0  0  0  0  0
   21.6364   -9.6702  -17.3480 N   0  0  0  0  0  0  0  0  0  0  0  0
   21.9036   -7.5427  -16.2070 C   0  0  0  0  0  0  0  0  0  0  0  0
   20.8218   -7.0624  -16.6316 O   0  0  0  0  0  0  0  0  0  0  0  0
   21.9766   -4.2070  -12.6795 O   0  0  0  0  0  0  0  0  0  0  0  0
   22.5048   -5.4028  -13.1878 C   0  0  0  0  0  0  0  0  0  0  0  0
   21.8652   -5.6654  -14.5349 C   0  0  2  0  0  0  0  0  0  0  0  0
   22.4714   -6.8856  -15.0625 N   0  0  0  0  0  0  0  0  0  0  0  0
   22.0441   -4.5275  -15.4351 C   0  0  0  0  0  0  0  0  0  0  0  0
   21.0706   -3.7759  -15.6836 O   0  0  0  0  0  0  0  0  0  0  0  0
   23.2569   -4.2369  -16.0346 O   0  0  0  0  0  0  0  0  0  0  0  0
  2  1  1  0
  3  2  1  0
  4  3  1  0
  5  6  1  1
  5  4  1  0
  7  5  1  0
  8  7  2  0
 10  9  1  6
 10 12  1  0
 10 11  1  0
 12 13  1  6
 13  7  1  0
 14 15  2  0
 14 12  1  0
 16 17  1  0
 18 17  1  1
 18 20  1  0
 18 19  1  0
 19 14  1  0
 20 22  1  0
 21 20  2  0
M  END
$$$$
