MTS.pdb
     RDKit          3D

 22 21  0  0  1  0  0  0  0  0999 V2000
   12.5343  -11.5670  -16.6658 C   0  0  0  0  0  0  0  0  0  0  0  0
   14.0208  -11.1046  -15.7261 S   0  0  0  0  0  0  0  0  0  0  0  0
   15.5209  -11.7220  -16.5787 C   0  0  0  0  0  0  0  0  0  0  0  0
   16.7218  -11.2089  -15.8100 C   0  0  0  0  0  0  0  0  0  0  0  0
   18.0186  -11.5879  -16.4534 C   0  0  2  0  0  0  0  0  0  0  0  0
   18.1709  -13.0117  -16.4735 N   0  0  0  0  0  0  0  0  0  0  0  0
   19.1857  -10.8879  -15.8747 C   0  0  0  0  0  0  0  0  0  0  0  0
   19.7518  -11.3750  -14.8626 O   0  0  0  0  0  0  0  0  0  0  0  0
   22.3651  -10.6424  -17.0636 C   0  0  0  0  0  0  0  0  0  0  0  0
   22.0889   -9.1697  -16.8502 C   0  0  1  0  0  0  0  0  0  0  0  0
   21.6619   -8.6598  -18.0825 O   0  0  0  0  0  0  0  0  0  0  0  0
   20.9125   -9.0471  -15.9070 C   0  0  2  0  0  0  0  0  0  0  0  0
   19.7291   -9.6786  -16.3869 N   0  0  0  0  0  0  0  0  0  0  0  0
   20.6912   -7.6370  -15.4895 C   0  0  0  0  0  0  0  0  0  0  0  0
   19.9070   -6.8645  -16.0973 O   0  0  0  0  0  0  0  0  0  0  0  0
   22.7394   -6.1736  -12.3045 O   0  0  0  0  0  0  0  0  0  0  0  0
   21.5291   -5.5098  -12.5532 C   0  0  0  0  0  0  0  0  0  0  0  0
   21.2036   -5.6589  -14.0246 C   0  0  2  0  0  0  0  0  0  0  0  0
   21.3685   -7.0725  -14.3551 N   0  0  0  0  0  0  0  0  0  0  0  0
   22.0558   -4.7985  -14.8435 C   0  0  0  0  0  0  0  0  0  0  0  0
   21.9714   -3.5520  -14.7265 O   0  0  0  0  0  0  0  0  0  0  0  0
   22.9655   -5.3037  -15.7556 O   0  0  0  0  0  0  0  0  0  0  0  0
  2  1  1  0
  3  2  1  0
  4  3  1  0
  5  6  1  1
  5  4  1  0
  7  5  1  0
  8  7  2  0
 10  9  1  6
 10 12  1  0
 10 11  1  0
 12 13  1  6
 13  7  1  0
 14 15  2  0
 14 12  1  0
 16 17  1  0
 18 17  1  1
 18 20  1  0
 18 19  1  0
 19 14  1  0
 20 22  1  0
 21 20  2  0
M  END
$$$$
