MTS.pdb
     RDKit          3D

 22 21  0  0  1  0  0  0  0  0999 V2000
   28.1654  -12.1599  -15.1626 C   0  0  0  0  0  0  0  0  0  0  0  0
   27.7072  -13.7997  -15.8012 S   0  0  0  0  0  0  0  0  0  0  0  0
   25.8870  -13.9201  -15.9763 C   0  0  0  0  0  0  0  0  0  0  0  0
   25.4205  -12.6822  -16.7155 C   0  0  0  0  0  0  0  0  0  0  0  0
   23.9317  -12.6239  -16.8533 C   0  0  2  0  0  0  0  0  0  0  0  0
   23.4528  -13.7490  -17.5987 N   0  0  0  0  0  0  0  0  0  0  0  0
   23.4424  -11.3304  -17.3772 C   0  0  0  0  0  0  0  0  0  0  0  0
   23.1633  -11.2311  -18.5995 O   0  0  0  0  0  0  0  0  0  0  0  0
   21.3671  -10.2414  -18.6772 C   0  0  0  0  0  0  0  0  0  0  0  0
   21.2760   -9.1534  -17.6290 C   0  0  1  0  0  0  0  0  0  0  0  0
   20.4742   -9.6575  -16.5976 O   0  0  0  0  0  0  0  0  0  0  0  0
   22.6552   -8.9560  -17.0399 C   0  0  2  0  0  0  0  0  0  0  0  0
   23.2594  -10.1638  -16.5862 N   0  0  0  0  0  0  0  0  0  0  0  0
   22.6621   -7.8804  -16.0127 C   0  0  0  0  0  0  0  0  0  0  0  0
   22.5814   -8.1183  -14.7806 O   0  0  0  0  0  0  0  0  0  0  0  0
   23.1007   -3.1414  -15.0540 O   0  0  0  0  0  0  0  0  0  0  0  0
   23.0687   -4.1482  -16.0300 C   0  0  0  0  0  0  0  0  0  0  0  0
   22.7356   -5.4573  -15.3457 C   0  0  2  0  0  0  0  0  0  0  0  0
   22.7628   -6.4938  -16.3752 N   0  0  0  0  0  0  0  0  0  0  0  0
   21.4411   -5.3855  -14.6702 C   0  0  0  0  0  0  0  0  0  0  0  0
   20.3913   -5.6148  -15.3181 O   0  0  0  0  0  0  0  0  0  0  0  0
   21.3189   -5.0715  -13.3281 O   0  0  0  0  0  0  0  0  0  0  0  0
  2  1  1  0
  3  2  1  0
  4  3  1  0
  5  6  1  6
  5  4  1  0
  7  5  1  0
  8  7  2  0
 10  9  1  6
 10 12  1  0
 10 11  1  0
 12 13  1  1
 13  7  1  0
 14 15  2  0
 14 12  1  0
 16 17  1  0
 18 17  1  6
 18 20  1  0
 18 19  1  0
 19 14  1  0
 20 22  1  0
 21 20  2  0
M  END
$$$$
