MTS.pdb
     RDKit          3D

 22 21  0  0  1  0  0  0  0  0999 V2000
   29.6259  -20.5900  -12.2506 C   0  0  0  0  0  0  0  0  0  0  0  0
   29.5638  -21.0634  -10.4960 S   0  0  0  0  0  0  0  0  0  0  0  0
   27.9531  -20.5767   -9.7700 C   0  0  0  0  0  0  0  0  0  0  0  0
   26.8868  -21.4386  -10.4155 C   0  0  0  0  0  0  0  0  0  0  0  0
   25.6055  -20.6972  -10.6343 C   0  0  2  0  0  0  0  0  0  0  0  0
   24.7803  -20.7669   -9.4660 N   0  0  0  0  0  0  0  0  0  0  0  0
   24.8986  -21.1016  -11.8687 C   0  0  0  0  0  0  0  0  0  0  0  0
   24.3371  -22.2262  -11.9121 O   0  0  0  0  0  0  0  0  0  0  0  0
   22.4801  -22.0118  -12.8601 C   0  0  0  0  0  0  0  0  0  0  0  0
   22.5362  -20.8403  -13.8168 C   0  0  1  0  0  0  0  0  0  0  0  0
   22.1051  -19.7172  -13.1002 O   0  0  0  0  0  0  0  0  0  0  0  0
   23.9869  -20.5922  -14.1667 C   0  0  2  0  0  0  0  0  0  0  0  0
   24.8032  -20.2976  -13.0368 N   0  0  0  0  0  0  0  0  0  0  0  0
   24.1226  -19.5922  -15.2591 C   0  0  0  0  0  0  0  0  0  0  0  0
   24.4783  -18.4042  -15.0511 O   0  0  0  0  0  0  0  0  0  0  0  0
   25.6320  -20.2636  -18.8542 O   0  0  0  0  0  0  0  0  0  0  0  0
   24.3438  -19.7185  -18.9582 C   0  0  0  0  0  0  0  0  0  0  0  0
   24.0549  -18.9464  -17.6881 C   0  0  2  0  0  0  0  0  0  0  0  0
   23.8519  -19.9318  -16.6286 N   0  0  0  0  0  0  0  0  0  0  0  0
   22.8966  -18.0702  -17.8549 C   0  0  0  0  0  0  0  0  0  0  0  0
   21.7529  -18.4933  -17.5595 O   0  0  0  0  0  0  0  0  0  0  0  0
   23.0058  -16.7755  -18.3309 O   0  0  0  0  0  0  0  0  0  0  0  0
  2  1  1  0
  3  2  1  0
  4  3  1  0
  5  6  1  1
  5  4  1  0
  7  5  1  0
  8  7  2  0
 10  9  1  1
 10 12  1  0
 10 11  1  0
 12 13  1  1
 13  7  1  0
 14 15  2  0
 14 12  1  0
 16 17  1  0
 18 17  1  6
 18 20  1  0
 18 19  1  0
 19 14  1  0
 20 22  1  0
 21 20  2  0
M  END
$$$$
