MTS.pdb
     RDKit          3D

 22 21  0  0  1  0  0  0  0  0999 V2000
   28.2909  -19.8629   -4.1687 C   0  0  0  0  0  0  0  0  0  0  0  0
   28.8521  -19.5335   -5.8667 S   0  0  0  0  0  0  0  0  0  0  0  0
   27.4130  -19.1980   -6.9506 C   0  0  0  0  0  0  0  0  0  0  0  0
   26.9057  -20.5336   -7.4557 C   0  0  0  0  0  0  0  0  0  0  0  0
   25.6435  -20.4044   -8.2491 C   0  0  2  0  0  0  0  0  0  0  0  0
   24.5216  -20.8587   -7.4838 N   0  0  0  0  0  0  0  0  0  0  0  0
   25.7257  -21.0312   -9.5860 C   0  0  0  0  0  0  0  0  0  0  0  0
   25.9341  -22.2687   -9.6701 O   0  0  0  0  0  0  0  0  0  0  0  0
   23.2345  -21.7136  -11.8411 C   0  0  0  0  0  0  0  0  0  0  0  0
   24.1624  -20.9127  -12.7289 C   0  0  1  0  0  0  0  0  0  0  0  0
   23.7200  -19.5852  -12.6763 O   0  0  0  0  0  0  0  0  0  0  0  0
   25.5387  -20.9291  -12.1011 C   0  0  2  0  0  0  0  0  0  0  0  0
   25.5839  -20.3255  -10.8115 N   0  0  0  0  0  0  0  0  0  0  0  0
   26.5698  -20.3946  -13.0301 C   0  0  0  0  0  0  0  0  0  0  0  0
   27.0589  -19.2424  -12.9106 O   0  0  0  0  0  0  0  0  0  0  0  0
   28.1420  -22.8443  -15.8120 O   0  0  0  0  0  0  0  0  0  0  0  0
   28.9583  -21.7547  -15.4748 C   0  0  0  0  0  0  0  0  0  0  0  0
   28.0640  -20.6126  -15.0404 C   0  0  2  0  0  0  0  0  0  0  0  0
   27.0703  -21.1741  -14.1284 N   0  0  0  0  0  0  0  0  0  0  0  0
   27.4467  -19.9580  -16.1927 C   0  0  0  0  0  0  0  0  0  0  0  0
   26.2077  -20.0516  -16.3672 O   0  0  0  0  0  0  0  0  0  0  0  0
   28.1777  -19.2284  -17.1136 O   0  0  0  0  0  0  0  0  0  0  0  0
  2  1  1  0
  3  2  1  0
  4  3  1  0
  5  6  1  1
  5  4  1  0
  7  5  1  0
  8  7  2  0
 10  9  1  1
 10 12  1  0
 10 11  1  0
 12 13  1  1
 13  7  1  0
 14 15  2  0
 14 12  1  0
 16 17  1  0
 18 17  1  6
 18 20  1  0
 18 19  1  0
 19 14  1  0
 20 22  1  0
 21 20  2  0
M  END
$$$$
