MTS.pdb
     RDKit          3D

 22 21  0  0  1  0  0  0  0  0999 V2000
   27.8240  -17.8793   -6.6673 C   0  0  0  0  0  0  0  0  0  0  0  0
   27.8534  -19.4813   -5.8075 S   0  0  0  0  0  0  0  0  0  0  0  0
   27.4498  -20.8313   -6.9792 C   0  0  0  0  0  0  0  0  0  0  0  0
   27.1652  -20.1934   -8.3240 C   0  0  0  0  0  0  0  0  0  0  0  0
   26.8789  -21.2049   -9.3890 C   0  0  2  0  0  0  0  0  0  0  0  0
   27.9870  -22.0990   -9.5419 N   0  0  0  0  0  0  0  0  0  0  0  0
   26.4396  -20.6020  -10.6659 C   0  0  0  0  0  0  0  0  0  0  0  0
   27.3062  -20.1800  -11.4738 O   0  0  0  0  0  0  0  0  0  0  0  0
   26.6354  -21.3522  -13.2090 C   0  0  0  0  0  0  0  0  0  0  0  0
   25.1415  -21.2034  -13.4011 C   0  0  1  0  0  0  0  0  0  0  0  0
   24.5691  -22.4339  -13.0560 O   0  0  0  0  0  0  0  0  0  0  0  0
   24.6382  -20.1994  -12.3876 C   0  0  2  0  0  0  0  0  0  0  0  0
   25.0811  -20.4600  -11.0589 N   0  0  0  0  0  0  0  0  0  0  0  0
   23.1655  -20.0160  -12.4846 C   0  0  0  0  0  0  0  0  0  0  0  0
   22.3736  -20.3968  -11.5851 O   0  0  0  0  0  0  0  0  0  0  0  0
   21.8463  -18.5882  -15.8513 O   0  0  0  0  0  0  0  0  0  0  0  0
   20.8122  -18.3972  -14.9231 C   0  0  0  0  0  0  0  0  0  0  0  0
   21.1062  -19.2512  -13.7077 C   0  0  2  0  0  0  0  0  0  0  0  0
   22.5587  -19.3861  -13.6244 N   0  0  0  0  0  0  0  0  0  0  0  0
   20.4368  -20.5476  -13.7991 C   0  0  0  0  0  0  0  0  0  0  0  0
   19.2013  -20.6220  -13.5928 O   0  0  0  0  0  0  0  0  0  0  0  0
   21.1138  -21.7143  -14.1077 O   0  0  0  0  0  0  0  0  0  0  0  0
  2  1  1  0
  3  2  1  0
  4  3  1  0
  5  6  1  6
  5  4  1  0
  7  5  1  0
  8  7  2  0
 10  9  1  1
 10 12  1  0
 10 11  1  0
 12 13  1  1
 13  7  1  0
 14 15  2  0
 14 12  1  0
 16 17  1  0
 18 17  1  6
 18 20  1  0
 18 19  1  0
 19 14  1  0
 20 22  1  0
 21 20  2  0
M  END
$$$$
