MTS.pdb
     RDKit          3D

 22 21  0  0  1  0  0  0  0  0999 V2000
   23.0691  -12.6065  -23.6574 C   0  0  0  0  0  0  0  0  0  0  0  0
   22.1655  -11.8542  -22.2702 S   0  0  0  0  0  0  0  0  0  0  0  0
   22.8506  -12.4482  -20.6776 C   0  0  0  0  0  0  0  0  0  0  0  0
   22.1060  -11.7318  -19.5692 C   0  0  0  0  0  0  0  0  0  0  0  0
   22.5871  -12.1254  -18.2081 C   0  0  2  0  0  0  0  0  0  0  0  0
   22.4276  -13.5344  -18.0081 N   0  0  0  0  0  0  0  0  0  0  0  0
   21.9964  -11.3148  -17.1213 C   0  0  0  0  0  0  0  0  0  0  0  0
   20.8694  -11.6336  -16.6630 O   0  0  0  0  0  0  0  0  0  0  0  0
   22.2641  -11.4121  -13.9905 C   0  0  0  0  0  0  0  0  0  0  0  0
   22.6049   -9.9412  -14.0951 C   0  0  1  0  0  0  0  0  0  0  0  0
   24.0021   -9.8558  -14.1347 O   0  0  0  0  0  0  0  0  0  0  0  0
   22.1088   -9.4410  -15.4338 C   0  0  2  0  0  0  0  0  0  0  0  0
   22.6197  -10.1764  -16.5419 N   0  0  0  0  0  0  0  0  0  0  0  0
   22.2982   -7.9725  -15.5731 C   0  0  0  0  0  0  0  0  0  0  0  0
   23.1326   -7.4682  -16.3673 O   0  0  0  0  0  0  0  0  0  0  0  0
   20.6287   -3.5913  -15.4437 O   0  0  0  0  0  0  0  0  0  0  0  0
   20.4322   -4.9722  -15.2952 C   0  0  0  0  0  0  0  0  0  0  0  0
   21.7612   -5.6010  -14.9331 C   0  0  2  0  0  0  0  0  0  0  0  0
   21.5293   -7.0374  -14.7994 N   0  0  0  0  0  0  0  0  0  0  0  0
   22.3068   -5.0148  -13.7101 C   0  0  0  0  0  0  0  0  0  0  0  0
   22.1303   -5.5968  -12.6126 O   0  0  0  0  0  0  0  0  0  0  0  0
   23.0204   -3.8292  -13.7076 O   0  0  0  0  0  0  0  0  0  0  0  0
  2  1  1  0
  3  2  1  0
  4  3  1  0
  5  6  1  1
  5  4  1  0
  7  5  1  0
  8  7  2  0
 10  9  1  6
 10 12  1  0
 10 11  1  0
 12 13  1  6
 13  7  1  0
 14 15  2  0
 14 12  1  0
 16 17  1  0
 18 17  1  1
 18 20  1  0
 18 19  1  0
 19 14  1  0
 20 22  1  0
 21 20  2  0
M  END
$$$$
