MTS.pdb
     RDKit          3D

 22 21  0  0  1  0  0  0  0  0999 V2000
   22.2373  -19.8836   -9.1172 C   0  0  0  0  0  0  0  0  0  0  0  0
   23.4740  -20.8573   -8.2067 S   0  0  0  0  0  0  0  0  0  0  0  0
   24.7048  -21.5566   -9.3707 C   0  0  0  0  0  0  0  0  0  0  0  0
   25.0525  -20.4702  -10.3683 C   0  0  0  0  0  0  0  0  0  0  0  0
   25.8965  -20.9762  -11.4956 C   0  0  2  0  0  0  0  0  0  0  0  0
   27.0107  -21.7218  -10.9922 N   0  0  0  0  0  0  0  0  0  0  0  0
   26.2905  -19.9193  -12.4520 C   0  0  0  0  0  0  0  0  0  0  0  0
   27.2988  -19.2108  -12.2004 O   0  0  0  0  0  0  0  0  0  0  0  0
   28.3908  -19.2987  -14.0339 C   0  0  0  0  0  0  0  0  0  0  0  0
   27.4536  -19.2063  -15.2187 C   0  0  1  0  0  0  0  0  0  0  0  0
   27.3140  -20.5060  -15.7209 O   0  0  0  0  0  0  0  0  0  0  0  0
   26.0903  -18.7986  -14.7049 C   0  0  2  0  0  0  0  0  0  0  0  0
   25.6005  -19.6364  -13.6620 N   0  0  0  0  0  0  0  0  0  0  0  0
   25.1174  -18.6234  -15.8160 C   0  0  0  0  0  0  0  0  0  0  0  0
   23.8751  -18.7309  -15.6533 O   0  0  0  0  0  0  0  0  0  0  0  0
   25.3231  -15.2730  -18.0471 O   0  0  0  0  0  0  0  0  0  0  0  0
   24.4818  -16.1929  -17.4043 C   0  0  0  0  0  0  0  0  0  0  0  0
   24.6867  -17.5483  -18.0476 C   0  0  2  0  0  0  0  0  0  0  0  0
   25.5475  -18.3179  -17.1523 N   0  0  0  0  0  0  0  0  0  0  0  0
   25.2610  -17.4162  -19.3855 C   0  0  0  0  0  0  0  0  0  0  0  0
   26.5012  -17.5279  -19.5404 O   0  0  0  0  0  0  0  0  0  0  0  0
   24.4874  -17.1701  -20.5061 O   0  0  0  0  0  0  0  0  0  0  0  0
  2  1  1  0
  3  2  1  0
  4  3  1  0
  5  6  1  1
  5  4  1  0
  7  5  1  0
  8  7  2  0
 10  9  1  1
 10 12  1  0
 10 11  1  0
 12 13  1  1
 13  7  1  0
 14 15  2  0
 14 12  1  0
 16 17  1  0
 18 17  1  1
 18 20  1  0
 18 19  1  0
 19 14  1  0
 20 22  1  0
 21 20  2  0
M  END
$$$$
