MTS.pdb
     RDKit          3D

 22 21  0  0  1  0  0  0  0  0999 V2000
   13.5600  -10.9762  -19.0087 C   0  0  0  0  0  0  0  0  0  0  0  0
   14.6298  -10.3686  -17.6696 S   0  0  0  0  0  0  0  0  0  0  0  0
   16.2321  -11.2579  -17.6923 C   0  0  0  0  0  0  0  0  0  0  0  0
   17.1195  -10.6185  -16.6435 C   0  0  0  0  0  0  0  0  0  0  0  0
   18.4745  -11.2499  -16.5772 C   0  0  2  0  0  0  0  0  0  0  0  0
   18.3678  -12.6274  -16.2007 N   0  0  0  0  0  0  0  0  0  0  0  0
   19.4327  -10.4931  -15.7427 C   0  0  0  0  0  0  0  0  0  0  0  0
   19.3525  -10.5763  -14.4903 O   0  0  0  0  0  0  0  0  0  0  0  0
   22.8289  -10.9126  -15.2318 C   0  0  0  0  0  0  0  0  0  0  0  0
   22.8207   -9.4459  -15.6052 C   0  0  1  0  0  0  0  0  0  0  0  0
   23.1372   -9.3779  -16.9675 O   0  0  0  0  0  0  0  0  0  0  0  0
   21.4021   -8.9379  -15.4708 C   0  0  2  0  0  0  0  0  0  0  0  0
   20.4611   -9.6597  -16.2601 N   0  0  0  0  0  0  0  0  0  0  0  0
   21.3265   -7.4668  -15.6757 C   0  0  0  0  0  0  0  0  0  0  0  0
   20.9820   -6.9509  -16.7695 O   0  0  0  0  0  0  0  0  0  0  0  0
   22.2065   -4.9411  -12.5856 O   0  0  0  0  0  0  0  0  0  0  0  0
   21.2431   -4.4754  -13.4924 C   0  0  0  0  0  0  0  0  0  0  0  0
   21.5235   -5.1031  -14.8416 C   0  0  2  0  0  0  0  0  0  0  0  0
   21.6463   -6.5425  -14.6232 N   0  0  0  0  0  0  0  0  0  0  0  0
   22.7249   -4.5335  -15.4494 C   0  0  0  0  0  0  0  0  0  0  0  0
   22.7197   -3.3369  -15.8269 O   0  0  0  0  0  0  0  0  0  0  0  0
   23.8856   -5.2650  -15.6298 O   0  0  0  0  0  0  0  0  0  0  0  0
  2  1  1  0
  3  2  1  0
  4  3  1  0
  5  6  1  1
  5  4  1  0
  7  5  1  0
  8  7  2  0
 10  9  1  6
 10 12  1  0
 10 11  1  0
 12 13  1  6
 13  7  1  0
 14 15  2  0
 14 12  1  0
 16 17  1  0
 18 17  1  1
 18 20  1  0
 18 19  1  0
 19 14  1  0
 20 22  1  0
 21 20  2  0
M  END
$$$$
