MTS.pdb
     RDKit          3D

 22 21  0  0  1  0  0  0  0  0999 V2000
   28.6962  -14.2304  -15.0736 C   0  0  0  0  0  0  0  0  0  0  0  0
   27.8257  -12.9344  -16.0059 S   0  0  0  0  0  0  0  0  0  0  0  0
   26.0338  -12.9817  -15.6248 C   0  0  0  0  0  0  0  0  0  0  0  0
   25.3924  -11.7958  -16.3166 C   0  0  0  0  0  0  0  0  0  0  0  0
   23.9150  -11.7296  -16.0887 C   0  0  2  0  0  0  0  0  0  0  0  0
   23.2860  -12.9406  -16.5231 N   0  0  0  0  0  0  0  0  0  0  0  0
   23.2891  -10.5155  -16.6554 C   0  0  0  0  0  0  0  0  0  0  0  0
   22.8391  -10.5497  -17.8293 O   0  0  0  0  0  0  0  0  0  0  0  0
   20.8846   -9.7626  -17.5427 C   0  0  0  0  0  0  0  0  0  0  0  0
   20.9115   -8.5462  -16.6424 C   0  0  1  0  0  0  0  0  0  0  0  0
   20.3841   -8.9490  -15.4094 O   0  0  0  0  0  0  0  0  0  0  0  0
   22.3585   -8.1842  -16.3899 C   0  0  2  0  0  0  0  0  0  0  0  0
   23.1542   -9.2843  -15.9582 N   0  0  0  0  0  0  0  0  0  0  0  0
   22.4781   -6.9962  -15.5032 C   0  0  0  0  0  0  0  0  0  0  0  0
   22.5492   -7.0885  -14.2511 O   0  0  0  0  0  0  0  0  0  0  0  0
   23.0688   -2.1940  -15.1534 O   0  0  0  0  0  0  0  0  0  0  0  0
   22.9623   -3.3129  -15.9926 C   0  0  0  0  0  0  0  0  0  0  0  0
   22.6146   -4.5125  -15.1365 C   0  0  2  0  0  0  0  0  0  0  0  0
   22.5199   -5.6617  -16.0338 N   0  0  0  0  0  0  0  0  0  0  0  0
   21.3753   -4.2897  -14.3939 C   0  0  0  0  0  0  0  0  0  0  0  0
   20.2733   -4.5393  -14.9397 O   0  0  0  0  0  0  0  0  0  0  0  0
   21.3618   -3.8088  -13.0964 O   0  0  0  0  0  0  0  0  0  0  0  0
  2  1  1  0
  3  2  1  0
  4  3  1  0
  5  6  1  6
  5  4  1  0
  7  5  1  0
  8  7  2  0
 10  9  1  6
 10 12  1  0
 10 11  1  0
 12 13  1  1
 13  7  1  0
 14 15  2  0
 14 12  1  0
 16 17  1  0
 18 17  1  6
 18 20  1  0
 18 19  1  0
 19 14  1  0
 20 22  1  0
 21 20  2  0
M  END
$$$$
