MTS.pdb
     RDKit          3D

 22 21  0  0  1  0  0  0  0  0999 V2000
   17.2047   -8.8710  -20.5974 C   0  0  0  0  0  0  0  0  0  0  0  0
   16.4659  -10.5271  -20.4620 S   0  0  0  0  0  0  0  0  0  0  0  0
   17.5354  -11.6113  -19.4427 C   0  0  0  0  0  0  0  0  0  0  0  0
   18.1780  -10.7431  -18.3797 C   0  0  0  0  0  0  0  0  0  0  0  0
   19.1460  -11.5023  -17.5278 C   0  0  2  0  0  0  0  0  0  0  0  0
   18.5755  -12.7471  -17.1085 N   0  0  0  0  0  0  0  0  0  0  0  0
   19.6883  -10.7058  -16.4060 C   0  0  0  0  0  0  0  0  0  0  0  0
   19.0784  -10.7029  -15.3061 O   0  0  0  0  0  0  0  0  0  0  0  0
   22.6492  -11.1268  -14.5637 C   0  0  0  0  0  0  0  0  0  0  0  0
   22.7853   -9.6707  -14.9536 C   0  0  1  0  0  0  0  0  0  0  0  0
   23.6084   -9.6346  -16.0858 O   0  0  0  0  0  0  0  0  0  0  0  0
   21.4261   -9.1774  -15.3982 C   0  0  2  0  0  0  0  0  0  0  0  0
   20.8738   -9.9250  -16.4779 N   0  0  0  0  0  0  0  0  0  0  0  0
   21.4315   -7.7114  -15.6483 C   0  0  0  0  0  0  0  0  0  0  0  0
   21.5481   -7.2199  -16.7999 O   0  0  0  0  0  0  0  0  0  0  0  0
   20.0955   -3.3758  -14.9824 O   0  0  0  0  0  0  0  0  0  0  0  0
   20.0188   -4.7528  -14.7269 C   0  0  0  0  0  0  0  0  0  0  0  0
   21.4138   -5.3312  -14.8384 C   0  0  2  0  0  0  0  0  0  0  0  0
   21.3019   -6.7641  -14.5759 N   0  0  0  0  0  0  0  0  0  0  0  0
   22.3341   -4.6718  -13.9135 C   0  0  0  0  0  0  0  0  0  0  0  0
   22.5003   -5.1449  -12.7633 O   0  0  0  0  0  0  0  0  0  0  0  0
   23.0415   -3.5322  -14.2540 O   0  0  0  0  0  0  0  0  0  0  0  0
  2  1  1  0
  3  2  1  0
  4  3  1  0
  5  6  1  1
  5  4  1  0
  7  5  1  0
  8  7  2  0
 10  9  1  6
 10 12  1  0
 10 11  1  0
 12 13  1  6
 13  7  1  0
 14 15  2  0
 14 12  1  0
 16 17  1  0
 18 17  1  1
 18 20  1  0
 18 19  1  0
 19 14  1  0
 20 22  1  0
 21 20  2  0
M  END
$$$$
