AGV.pdb
     RDKit          3D

 17 16  0  0  1  0  0  0  0  0999 V2000
   24.4414  -20.8732   -9.1177 C   0  0  0  0  0  0  0  0  0  0  0  0
   25.7971  -21.1220   -9.7706 C   0  0  2  0  0  0  0  0  0  0  0  0
   26.7200  -20.1687   -9.1877 N   0  0  0  0  0  0  0  0  0  0  0  0
   25.7402  -20.8415  -11.2403 C   0  0  0  0  0  0  0  0  0  0  0  0
   26.0617  -19.7197  -11.7121 O   0  0  0  0  0  0  0  0  0  0  0  0
   25.3200  -21.8297  -12.1721 N   0  0  0  0  0  0  0  0  0  0  0  0
   25.1947  -21.6569  -13.5752 C   0  0  0  0  0  0  0  0  0  0  0  0
   24.0643  -20.8386  -14.0397 C   0  0  0  0  0  0  0  0  0  0  0  0
   23.1824  -20.5681  -13.1618 O   0  0  0  0  0  0  0  0  0  0  0  0
   23.4048  -19.5702  -18.1157 C   0  0  0  0  0  0  0  0  0  0  0  0
   22.9815  -18.7134  -16.9579 C   0  0  1  0  0  0  0  0  0  0  0  0
   21.7890  -17.8620  -17.3468 C   0  0  0  0  0  0  0  0  0  0  0  0
   22.7281  -19.4937  -15.6968 C   0  0  2  0  0  0  0  0  0  0  0  0
   23.8505  -20.3301  -15.3273 N   0  0  0  0  0  0  0  0  0  0  0  0
   21.5755  -20.3962  -15.9587 C   0  0  0  0  0  0  0  0  0  0  0  0
   21.7299  -21.5401  -16.4866 O   0  0  0  0  0  0  0  0  0  0  0  0
   20.2682  -20.0472  -15.6450 O   0  0  0  0  0  0  0  0  0  0  0  0
  2  1  1  1
  2  3  1  0
  4  2  1  0
  5  4  2  0
  6  4  1  0
  7  8  1  0
  7  6  1  0
  8  9  2  0
 11 10  1  6
 11 13  1  0
 12 11  1  0
 13 14  1  6
 14  8  1  0
 15 13  1  0
 16 15  2  0
 17 15  1  0
M  END
$$$$
