AGV.pdb
     RDKit          3D

 17 16  0  0  1  0  0  0  0  0999 V2000
   15.9472  -10.0321  -18.9290 C   0  0  0  0  0  0  0  0  0  0  0  0
   16.1923   -8.7065  -18.2157 C   0  0  2  0  0  0  0  0  0  0  0  0
   17.4665   -8.2076  -18.6929 N   0  0  0  0  0  0  0  0  0  0  0  0
   16.3224   -8.9125  -16.7384 C   0  0  0  0  0  0  0  0  0  0  0  0
   15.3694   -9.3569  -16.0464 O   0  0  0  0  0  0  0  0  0  0  0  0
   17.5292   -8.6156  -16.0478 N   0  0  0  0  0  0  0  0  0  0  0  0
   17.7306   -8.6915  -14.6449 C   0  0  0  0  0  0  0  0  0  0  0  0
   18.9439   -8.0486  -14.1180 C   0  0  0  0  0  0  0  0  0  0  0  0
   19.0947   -8.1077  -12.8550 O   0  0  0  0  0  0  0  0  0  0  0  0
   22.5269   -9.0187  -15.1306 C   0  0  0  0  0  0  0  0  0  0  0  0
   22.3720   -7.5257  -15.1578 C   0  0  1  0  0  0  0  0  0  0  0  0
   22.2634   -7.0379  -16.5890 C   0  0  0  0  0  0  0  0  0  0  0  0
   21.2372   -7.0260  -14.3057 C   0  0  2  0  0  0  0  0  0  0  0  0
   19.9413   -7.3837  -14.8428 N   0  0  0  0  0  0  0  0  0  0  0  0
   21.3130   -5.5409  -14.2940 C   0  0  0  0  0  0  0  0  0  0  0  0
   20.4793   -4.8249  -14.9291 O   0  0  0  0  0  0  0  0  0  0  0  0
   22.2927   -4.8492  -13.5933 O   0  0  0  0  0  0  0  0  0  0  0  0
  2  1  1  6
  2  3  1  0
  4  2  1  0
  5  4  2  0
  6  4  1  0
  7  8  1  0
  7  6  1  0
  8  9  2  0
 11 10  1  6
 11 13  1  0
 12 11  1  0
 13 14  1  6
 14  8  1  0
 15 13  1  0
 16 15  2  0
 17 15  1  0
M  END
$$$$
