AGV.pdb
     RDKit          3D

 17 16  0  0  1  0  0  0  0  0999 V2000
   20.7480  -12.6697  -20.0125 C   0  0  0  0  0  0  0  0  0  0  0  0
   21.3503  -13.2487  -18.7365 C   0  0  2  0  0  0  0  0  0  0  0  0
   20.2429  -13.7352  -17.9382 N   0  0  0  0  0  0  0  0  0  0  0  0
   22.0360  -12.1826  -17.9396 C   0  0  0  0  0  0  0  0  0  0  0  0
   23.1568  -12.3776  -17.4010 O   0  0  0  0  0  0  0  0  0  0  0  0
   21.4526  -10.8993  -17.7539 N   0  0  0  0  0  0  0  0  0  0  0  0
   21.9649   -9.8579  -16.9370 C   0  0  0  0  0  0  0  0  0  0  0  0
   21.1724   -8.6205  -16.8734 C   0  0  0  0  0  0  0  0  0  0  0  0
   20.7197   -8.1982  -17.9862 O   0  0  0  0  0  0  0  0  0  0  0  0
   17.9996   -7.8505  -16.7717 C   0  0  0  0  0  0  0  0  0  0  0  0
   18.5383   -7.0891  -15.5953 C   0  0  1  0  0  0  0  0  0  0  0  0
   18.2787   -7.8560  -14.3136 C   0  0  0  0  0  0  0  0  0  0  0  0
   19.9869   -6.7098  -15.7402 C   0  0  2  0  0  0  0  0  0  0  0  0
   20.8645   -7.8613  -15.7372 N   0  0  0  0  0  0  0  0  0  0  0  0
   20.3474   -5.8800  -14.5600 C   0  0  0  0  0  0  0  0  0  0  0  0
   20.9746   -6.3655  -13.5690 O   0  0  0  0  0  0  0  0  0  0  0  0
   20.0234   -4.5325  -14.4682 O   0  0  0  0  0  0  0  0  0  0  0  0
  2  1  1  6
  2  3  1  0
  4  2  1  0
  5  4  2  0
  6  4  1  0
  7  8  1  0
  7  6  1  0
  8  9  2  0
 11 10  1  6
 11 13  1  0
 12 11  1  0
 13 14  1  1
 14  8  1  0
 15 13  1  0
 16 15  2  0
 17 15  1  0
M  END
$$$$
