AGV.pdb
     RDKit          3D

 17 16  0  0  1  0  0  0  0  0999 V2000
   18.3944  -13.4091  -20.7015 C   0  0  0  0  0  0  0  0  0  0  0  0
   18.7853  -13.4051  -19.2273 C   0  0  2  0  0  0  0  0  0  0  0  0
   17.5799  -13.6961  -18.4774 N   0  0  0  0  0  0  0  0  0  0  0  0
   19.2534  -12.0473  -18.8040 C   0  0  0  0  0  0  0  0  0  0  0  0
   20.4618  -11.7067  -18.8940 O   0  0  0  0  0  0  0  0  0  0  0  0
   18.3541  -11.0786  -18.2801 N   0  0  0  0  0  0  0  0  0  0  0  0
   18.6884   -9.7609  -17.8725 C   0  0  0  0  0  0  0  0  0  0  0  0
   19.3550   -9.6241  -16.5687 C   0  0  0  0  0  0  0  0  0  0  0  0
   18.6024   -9.7491  -15.5491 O   0  0  0  0  0  0  0  0  0  0  0  0
   23.3484  -10.0287  -13.6728 C   0  0  0  0  0  0  0  0  0  0  0  0
   22.6684  -10.0581  -15.0109 C   0  0  1  0  0  0  0  0  0  0  0  0
   22.5960  -11.4810  -15.5289 C   0  0  0  0  0  0  0  0  0  0  0  0
   21.3204   -9.3899  -15.0121 C   0  0  2  0  0  0  0  0  0  0  0  0
   20.7114   -9.3724  -16.3254 N   0  0  0  0  0  0  0  0  0  0  0  0
   21.5275   -7.9745  -14.6053 C   0  0  0  0  0  0  0  0  0  0  0  0
   21.7783   -7.6556  -13.4026 O   0  0  0  0  0  0  0  0  0  0  0  0
   21.4602   -6.9212  -15.5081 O   0  0  0  0  0  0  0  0  0  0  0  0
  2  1  1  6
  2  3  1  0
  4  2  1  0
  5  4  2  0
  6  4  1  0
  7  8  1  0
  7  6  1  0
  8  9  2  0
 11 10  1  1
 11 13  1  0
 12 11  1  0
 13 14  1  6
 14  8  1  0
 15 13  1  0
 16 15  2  0
 17 15  1  0
M  END
$$$$
