AGV.pdb
     RDKit          3D

 17 16  0  0  1  0  0  0  0  0999 V2000
   15.6505  -12.5136  -19.8777 C   0  0  0  0  0  0  0  0  0  0  0  0
   17.0728  -12.8819  -19.4684 C   0  0  2  0  0  0  0  0  0  0  0  0
   16.9879  -13.4503  -18.1380 N   0  0  0  0  0  0  0  0  0  0  0  0
   17.9332  -11.6601  -19.3740 C   0  0  0  0  0  0  0  0  0  0  0  0
   18.2391  -10.9867  -20.3925 O   0  0  0  0  0  0  0  0  0  0  0  0
   18.4452  -11.2034  -18.1287 N   0  0  0  0  0  0  0  0  0  0  0  0
   19.2316  -10.0399  -17.9237 C   0  0  0  0  0  0  0  0  0  0  0  0
   19.5999   -9.7303  -16.5339 C   0  0  0  0  0  0  0  0  0  0  0  0
   18.6702   -9.8650  -15.6743 O   0  0  0  0  0  0  0  0  0  0  0  0
   22.2138  -11.4223  -14.3721 C   0  0  0  0  0  0  0  0  0  0  0  0
   22.3925   -9.9363  -14.2550 C   0  0  1  0  0  0  0  0  0  0  0  0
   23.6227   -9.4960  -15.0237 C   0  0  0  0  0  0  0  0  0  0  0  0
   21.1708   -9.1533  -14.6525 C   0  0  2  0  0  0  0  0  0  0  0  0
   20.8462   -9.3064  -16.0551 N   0  0  0  0  0  0  0  0  0  0  0  0
   21.4739   -7.7150  -14.4265 C   0  0  0  0  0  0  0  0  0  0  0  0
   21.7903   -6.9413  -15.3817 O   0  0  0  0  0  0  0  0  0  0  0  0
   21.4303   -7.1323  -13.1664 O   0  0  0  0  0  0  0  0  0  0  0  0
  2  1  1  1
  2  3  1  0
  4  2  1  0
  5  4  2  0
  6  4  1  0
  7  8  1  0
  7  6  1  0
  8  9  2  0
 11 10  1  6
 11 13  1  0
 12 11  1  0
 13 14  1  6
 14  8  1  0
 15 13  1  0
 16 15  2  0
 17 15  1  0
M  END
$$$$
