AGV.pdb
     RDKit          3D

 17 16  0  0  1  0  0  0  0  0999 V2000
   13.9940  -11.8241  -17.0513 C   0  0  0  0  0  0  0  0  0  0  0  0
   15.3082  -11.9098  -17.8204 C   0  0  2  0  0  0  0  0  0  0  0  0
   16.1241  -12.8956  -17.1399 N   0  0  0  0  0  0  0  0  0  0  0  0
   16.0456  -10.6080  -17.7619 C   0  0  0  0  0  0  0  0  0  0  0  0
   15.5559   -9.5490  -18.2344 O   0  0  0  0  0  0  0  0  0  0  0  0
   17.3342  -10.5071  -17.1695 N   0  0  0  0  0  0  0  0  0  0  0  0
   18.1329   -9.3361  -17.0985 C   0  0  0  0  0  0  0  0  0  0  0  0
   18.9561   -9.1726  -15.8908 C   0  0  0  0  0  0  0  0  0  0  0  0
   18.3436   -9.3125  -14.7832 O   0  0  0  0  0  0  0  0  0  0  0  0
   23.1271   -9.9671  -13.5012 C   0  0  0  0  0  0  0  0  0  0  0  0
   22.2831   -9.8911  -14.7404 C   0  0  1  0  0  0  0  0  0  0  0  0
   21.8506  -11.2810  -15.1638 C   0  0  0  0  0  0  0  0  0  0  0  0
   21.1139   -8.9530  -14.6118 C   0  0  2  0  0  0  0  0  0  0  0  0
   20.3246   -8.8813  -15.8233 N   0  0  0  0  0  0  0  0  0  0  0  0
   21.6626   -7.5932  -14.3641 C   0  0  0  0  0  0  0  0  0  0  0  0
   21.8694   -6.7741  -15.3114 O   0  0  0  0  0  0  0  0  0  0  0  0
   21.9807   -7.1373  -13.0913 O   0  0  0  0  0  0  0  0  0  0  0  0
  2  1  1  1
  2  3  1  0
  4  2  1  0
  5  4  2  0
  6  4  1  0
  7  8  1  0
  7  6  1  0
  8  9  2  0
 11 10  1  1
 11 13  1  0
 12 11  1  0
 13 14  1  6
 14  8  1  0
 15 13  1  0
 16 15  2  0
 17 15  1  0
M  END
$$$$
