AGV.pdb
     RDKit          3D

 17 16  0  0  1  0  0  0  0  0999 V2000
   16.3296  -14.3037  -18.8670 C   0  0  0  0  0  0  0  0  0  0  0  0
   17.1395  -14.2046  -17.5785 C   0  0  2  0  0  0  0  0  0  0  0  0
   16.2375  -13.7088  -16.5582 N   0  0  0  0  0  0  0  0  0  0  0  0
   18.2433  -13.2026  -17.7187 C   0  0  0  0  0  0  0  0  0  0  0  0
   19.3060  -13.4719  -18.3372 O   0  0  0  0  0  0  0  0  0  0  0  0
   18.1424  -11.8994  -17.1594 N   0  0  0  0  0  0  0  0  0  0  0  0
   19.0887  -10.8515  -17.3040 C   0  0  0  0  0  0  0  0  0  0  0  0
   19.6103  -10.2593  -16.0630 C   0  0  0  0  0  0  0  0  0  0  0  0
   18.8066  -10.2525  -15.0753 O   0  0  0  0  0  0  0  0  0  0  0  0
   22.8421  -11.2319  -14.0556 C   0  0  0  0  0  0  0  0  0  0  0  0
   22.7607   -9.7485  -14.2719 C   0  0  1  0  0  0  0  0  0  0  0  0
   23.7430   -9.3225  -15.3451 C   0  0  0  0  0  0  0  0  0  0  0  0
   21.3668   -9.2612  -14.5599 C   0  0  2  0  0  0  0  0  0  0  0  0
   20.8791   -9.7058  -15.8486 N   0  0  0  0  0  0  0  0  0  0  0  0
   21.4163   -7.7754  -14.5980 C   0  0  0  0  0  0  0  0  0  0  0  0
   21.4133   -7.1353  -15.6940 O   0  0  0  0  0  0  0  0  0  0  0  0
   21.4684   -7.0008  -13.4463 O   0  0  0  0  0  0  0  0  0  0  0  0
  2  1  1  6
  2  3  1  0
  4  2  1  0
  5  4  2  0
  6  4  1  0
  7  8  1  0
  7  6  1  0
  8  9  2  0
 11 10  1  6
 11 13  1  0
 12 11  1  0
 13 14  1  6
 14  8  1  0
 15 13  1  0
 16 15  2  0
 17 15  1  0
M  END
$$$$
