AGV.pdb
     RDKit          3D

 17 16  0  0  1  0  0  0  0  0999 V2000
   15.9760  -13.3344  -19.0138 C   0  0  0  0  0  0  0  0  0  0  0  0
   17.4314  -13.4831  -19.4446 C   0  0  2  0  0  0  0  0  0  0  0  0
   18.0498  -14.4005  -18.5085 N   0  0  0  0  0  0  0  0  0  0  0  0
   18.1568  -12.1782  -19.3306 C   0  0  0  0  0  0  0  0  0  0  0  0
   17.8419  -11.1831  -20.0343 O   0  0  0  0  0  0  0  0  0  0  0  0
   19.2358  -12.0021  -18.4217 N   0  0  0  0  0  0  0  0  0  0  0  0
   19.9495  -10.7966  -18.1941 C   0  0  0  0  0  0  0  0  0  0  0  0
   20.0966  -10.3727  -16.7935 C   0  0  0  0  0  0  0  0  0  0  0  0
   19.1705  -10.7477  -16.0041 O   0  0  0  0  0  0  0  0  0  0  0  0
   22.4174  -11.5945  -14.3626 C   0  0  0  0  0  0  0  0  0  0  0  0
   22.5116  -10.0992  -14.2672 C   0  0  1  0  0  0  0  0  0  0  0  0
   23.7969   -9.6149  -14.9087 C   0  0  0  0  0  0  0  0  0  0  0  0
   21.3056   -9.3872  -14.8168 C   0  0  2  0  0  0  0  0  0  0  0  0
   21.1302   -9.6086  -16.2367 N   0  0  0  0  0  0  0  0  0  0  0  0
   21.5262   -7.9292  -14.6238 C   0  0  0  0  0  0  0  0  0  0  0  0
   21.9265   -7.1836  -15.5698 O   0  0  0  0  0  0  0  0  0  0  0  0
   21.3100   -7.2966  -13.4063 O   0  0  0  0  0  0  0  0  0  0  0  0
  2  1  1  1
  2  3  1  0
  4  2  1  0
  5  4  2  0
  6  4  1  0
  7  8  1  0
  7  6  1  0
  8  9  2  0
 11 10  1  6
 11 13  1  0
 12 11  1  0
 13 14  1  6
 14  8  1  0
 15 13  1  0
 16 15  2  0
 17 15  1  0
M  END
$$$$
