AGV.pdb
     RDKit          3D

 17 16  0  0  1  0  0  0  0  0999 V2000
   19.7759  -11.2706  -18.7956 C   0  0  0  0  0  0  0  0  0  0  0  0
   20.5850  -12.1818  -17.8783 C   0  0  2  0  0  0  0  0  0  0  0  0
   19.7278  -12.5084  -16.7563 N   0  0  0  0  0  0  0  0  0  0  0  0
   21.7777  -11.4619  -17.3296 C   0  0  0  0  0  0  0  0  0  0  0  0
   22.7537  -11.1475  -18.0597 O   0  0  0  0  0  0  0  0  0  0  0  0
   21.8636  -11.0998  -15.9574 N   0  0  0  0  0  0  0  0  0  0  0  0
   22.9188  -10.3711  -15.3490 C   0  0  0  0  0  0  0  0  0  0  0  0
   22.9130   -8.9139  -15.5480 C   0  0  0  0  0  0  0  0  0  0  0  0
   23.5008   -8.4988  -16.5986 O   0  0  0  0  0  0  0  0  0  0  0  0
   19.7407   -6.7324  -15.0748 C   0  0  0  0  0  0  0  0  0  0  0  0
   20.9627   -6.1992  -15.7649 C   0  0  1  0  0  0  0  0  0  0  0  0
   20.8205   -4.7084  -16.0009 C   0  0  0  0  0  0  0  0  0  0  0  0
   22.2459   -6.5364  -15.0555 C   0  0  2  0  0  0  0  0  0  0  0  0
   22.3404   -7.9412  -14.7185 N   0  0  0  0  0  0  0  0  0  0  0  0
   22.2580   -5.7764  -13.7773 C   0  0  0  0  0  0  0  0  0  0  0  0
   21.9337   -6.3174  -12.6759 O   0  0  0  0  0  0  0  0  0  0  0  0
   22.6219   -4.4377  -13.7086 O   0  0  0  0  0  0  0  0  0  0  0  0
  2  1  1  6
  2  3  1  0
  4  2  1  0
  5  4  2  0
  6  4  1  0
  7  8  1  0
  7  6  1  0
  8  9  2  0
 11 10  1  1
 11 13  1  0
 12 11  1  0
 13 14  1  1
 14  8  1  0
 15 13  1  0
 16 15  2  0
 17 15  1  0
M  END
$$$$
