AGV.pdb
     RDKit          3D

 17 16  0  0  1  0  0  0  0  0999 V2000
   18.0759  -25.6234  -11.7734 C   0  0  0  0  0  0  0  0  0  0  0  0
   18.3160  -24.8086  -10.5067 C   0  0  2  0  0  0  0  0  0  0  0  0
   19.6160  -25.2011  -10.0006 N   0  0  0  0  0  0  0  0  0  0  0  0
   17.3086  -25.1518   -9.4535 C   0  0  0  0  0  0  0  0  0  0  0  0
   16.0770  -24.9599   -9.6291 O   0  0  0  0  0  0  0  0  0  0  0  0
   17.6963  -25.7110   -8.2052 N   0  0  0  0  0  0  0  0  0  0  0  0
   16.8251  -26.0804   -7.1474 C   0  0  0  0  0  0  0  0  0  0  0  0
   17.3487  -25.9327   -5.7810 C   0  0  0  0  0  0  0  0  0  0  0  0
   18.5678  -25.5755   -5.6935 O   0  0  0  0  0  0  0  0  0  0  0  0
   15.5591  -24.0633   -2.6641 C   0  0  0  0  0  0  0  0  0  0  0  0
   16.1668  -25.3853   -2.2943 C   0  0  1  0  0  0  0  0  0  0  0  0
   15.0788  -26.4202   -2.0860 C   0  0  0  0  0  0  0  0  0  0  0  0
   17.2125  -25.8568   -3.2678 C   0  0  2  0  0  0  0  0  0  0  0  0
   16.6635  -26.1406   -4.5770 N   0  0  0  0  0  0  0  0  0  0  0  0
   17.7674  -27.1311   -2.7387 C   0  0  0  0  0  0  0  0  0  0  0  0
   17.3804  -28.2591   -3.1734 O   0  0  0  0  0  0  0  0  0  0  0  0
   18.7360  -27.1671   -1.7439 O   0  0  0  0  0  0  0  0  0  0  0  0
  2  1  1  6
  2  3  1  0
  4  2  1  0
  5  4  2  0
  6  4  1  0
  7  8  1  0
  7  6  1  0
  8  9  2  0
 11 10  1  6
 11 13  1  0
 12 11  1  0
 13 14  1  6
 14  8  1  0
 15 13  1  0
 16 15  2  0
 17 15  1  0
M  END
$$$$
