AGV.pdb
     RDKit          3D

 17 16  0  0  1  0  0  0  0  0999 V2000
   24.7349  -19.1232  -17.9153 C   0  0  0  0  0  0  0  0  0  0  0  0
   25.3416  -20.5225  -17.9119 C   0  0  2  0  0  0  0  0  0  0  0  0
   24.3077  -21.4245  -18.3784 N   0  0  0  0  0  0  0  0  0  0  0  0
   25.7021  -20.9435  -16.5209 C   0  0  0  0  0  0  0  0  0  0  0  0
   24.8488  -21.4354  -15.7370 O   0  0  0  0  0  0  0  0  0  0  0  0
   27.0258  -20.8072  -16.0204 N   0  0  0  0  0  0  0  0  0  0  0  0
   27.4731  -21.1799  -14.7260 C   0  0  0  0  0  0  0  0  0  0  0  0
   26.8149  -20.5222  -13.5870 C   0  0  0  0  0  0  0  0  0  0  0  0
   27.0579  -19.2795  -13.4525 O   0  0  0  0  0  0  0  0  0  0  0  0
   23.3260  -19.6890  -12.8869 C   0  0  0  0  0  0  0  0  0  0  0  0
   23.8376  -20.3705  -11.6508 C   0  0  1  0  0  0  0  0  0  0  0  0
   23.2510  -21.7641  -11.5421 C   0  0  0  0  0  0  0  0  0  0  0  0
   25.3388  -20.3828  -11.5518 C   0  0  2  0  0  0  0  0  0  0  0  0
   25.9604  -21.1046  -12.6420 N   0  0  0  0  0  0  0  0  0  0  0  0
   25.6937  -21.0945  -10.2952 C   0  0  0  0  0  0  0  0  0  0  0  0
   26.1295  -22.2866  -10.3035 O   0  0  0  0  0  0  0  0  0  0  0  0
   25.5718  -20.5046   -9.0437 O   0  0  0  0  0  0  0  0  0  0  0  0
  2  1  1  1
  2  3  1  0
  4  2  1  0
  5  4  2  0
  6  4  1  0
  7  8  1  0
  7  6  1  0
  8  9  2  0
 11 10  1  6
 11 13  1  0
 12 11  1  0
 13 14  1  6
 14  8  1  0
 15 13  1  0
 16 15  2  0
 17 15  1  0
M  END
$$$$
