AWQ.pdb
     RDKit          3D

 29 30  0  0  1  0  0  0  0  0999 V2000
   26.7136  -22.2189  -17.4483 C   0  0  0  0  0  0  0  0  0  0  0  0
   27.6072  -22.0038  -16.2421 C   0  0  2  0  0  0  0  0  0  0  0  0
   28.6573  -23.0030  -16.1847 N   0  0  0  0  0  0  0  0  0  0  0  0
   26.7941  -22.1080  -15.0008 C   0  0  0  0  0  0  0  0  0  0  0  0
   26.3072  -23.2244  -14.7007 O   0  0  0  0  0  0  0  0  0  0  0  0
   26.5448  -21.0025  -14.1424 N   0  0  0  0  0  0  0  0  0  0  0  0
   25.7691  -21.1510  -12.9262 C   0  0  1  0  0  0  0  0  0  0  0  0
   26.0938  -20.0601  -11.9317 C   0  0  0  0  0  0  0  0  0  0  0  0
   27.2583  -20.4226  -11.0917 C   0  0  0  0  0  0  0  0  0  0  0  0
   28.4938  -20.8429  -11.5162 C   0  0  0  0  0  0  0  0  0  0  0  0
   29.2764  -21.0753  -10.4338 N   0  0  0  0  0  0  0  0  0  0  0  0
   28.5615  -20.8104   -9.3230 C   0  0  0  0  0  0  0  0  0  0  0  0
   28.9124  -20.8933   -7.9911 C   0  0  0  0  0  0  0  0  0  0  0  0
   27.9679  -20.5555   -7.0227 C   0  0  0  0  0  0  0  0  0  0  0  0
   26.7137  -20.1486   -7.3806 C   0  0  0  0  0  0  0  0  0  0  0  0
   26.3873  -20.0741   -8.7183 C   0  0  0  0  0  0  0  0  0  0  0  0
   27.2994  -20.4018   -9.7145 C   0  0  0  0  0  0  0  0  0  0  0  0
   24.3147  -21.0048  -13.2802 C   0  0  0  0  0  0  0  0  0  0  0  0
   23.9784  -20.3425  -14.2998 O   0  0  0  0  0  0  0  0  0  0  0  0
   18.6385  -24.1337  -11.1163 N   0  0  0  0  0  0  0  0  0  0  0  0
   18.9825  -23.8197  -12.4458 C   0  0  0  0  0  0  0  0  0  0  0  0
   18.7125  -24.6230  -13.3749 O   0  0  0  0  0  0  0  0  0  0  0  0
   19.6545  -22.5508  -12.7791 C   0  0  0  0  0  0  0  0  0  0  0  0
   21.1127  -22.6180  -12.5082 C   0  0  0  0  0  0  0  0  0  0  0  0
   21.8694  -21.4040  -12.8901 C   0  0  2  0  0  0  0  0  0  0  0  0
   23.2973  -21.5922  -12.4985 N   0  0  0  0  0  0  0  0  0  0  0  0
   21.4866  -20.0970  -12.4183 C   0  0  0  0  0  0  0  0  0  0  0  0
   21.9639  -19.5950  -11.3761 O   0  0  0  0  0  0  0  0  0  0  0  0
   20.5574  -19.3158  -13.1029 O   0  0  0  0  0  0  0  0  0  0  0  0
  2  1  1  6
  2  4  1  0
  3  2  1  0
  4  5  2  0
  6  4  1  0
  6  7  1  0
  7  8  1  1
  9  8  1  0
 10  9  2  0
 11 12  1  0
 11 10  1  0
 12 17  2  0
 13 14  2  0
 13 12  1  0
 14 15  1  0
 15 16  2  0
 17 16  1  0
 17  9  1  0
 18  7  1  0
 18 19  2  0
 20 21  1  0
 21 22  2  0
 23 24  1  0
 23 21  1  0
 25 24  1  1
 25 26  1  0
 26 18  1  0
 27 29  1  0
 27 25  1  0
 28 27  2  0
M  END
$$$$
