AWQ.pdb
     RDKit          3D

 29 30  0  0  1  0  0  0  0  0999 V2000
   27.5316  -19.9370  -15.4082 C   0  0  0  0  0  0  0  0  0  0  0  0
   28.1860  -21.0251  -14.5791 C   0  0  2  0  0  0  0  0  0  0  0  0
   28.1691  -22.2963  -15.2778 N   0  0  0  0  0  0  0  0  0  0  0  0
   27.4435  -21.1845  -13.3000 C   0  0  0  0  0  0  0  0  0  0  0  0
   26.3861  -21.8593  -13.3061 O   0  0  0  0  0  0  0  0  0  0  0  0
   27.8772  -20.6081  -12.0749 N   0  0  0  0  0  0  0  0  0  0  0  0
   27.1070  -20.7582  -10.8555 C   0  0  1  0  0  0  0  0  0  0  0  0
   27.7186  -19.9706   -9.7197 C   0  0  0  0  0  0  0  0  0  0  0  0
   27.0412  -20.2591   -8.4347 C   0  0  0  0  0  0  0  0  0  0  0  0
   25.7974  -20.8096   -8.2532 C   0  0  0  0  0  0  0  0  0  0  0  0
   25.5471  -20.9051   -6.9242 N   0  0  0  0  0  0  0  0  0  0  0  0
   26.6111  -20.4244   -6.2519 C   0  0  0  0  0  0  0  0  0  0  0  0
   26.8357  -20.3088   -4.8954 C   0  0  0  0  0  0  0  0  0  0  0  0
   28.0431  -19.7675   -4.4557 C   0  0  0  0  0  0  0  0  0  0  0  0
   28.9920  -19.3565   -5.3486 C   0  0  0  0  0  0  0  0  0  0  0  0
   28.7436  -19.4826   -6.6992 C   0  0  0  0  0  0  0  0  0  0  0  0
   27.5534  -20.0167   -7.1786 C   0  0  0  0  0  0  0  0  0  0  0  0
   25.7359  -20.1892  -11.0971 C   0  0  0  0  0  0  0  0  0  0  0  0
   25.6110  -19.0511  -11.6267 O   0  0  0  0  0  0  0  0  0  0  0  0
   23.0813  -18.9023  -14.7796 N   0  0  0  0  0  0  0  0  0  0  0  0
   21.8742  -19.3635  -14.2188 C   0  0  0  0  0  0  0  0  0  0  0  0
   20.7939  -18.7703  -14.4691 O   0  0  0  0  0  0  0  0  0  0  0  0
   21.8460  -20.5457  -13.3388 C   0  0  0  0  0  0  0  0  0  0  0  0
   23.1691  -20.7905  -12.7114 C   0  0  0  0  0  0  0  0  0  0  0  0
   23.2466  -20.4404  -11.2748 C   0  0  2  0  0  0  0  0  0  0  0  0
   24.5660  -20.8958  -10.7461 N   0  0  0  0  0  0  0  0  0  0  0  0
   22.2528  -20.8920  -10.3336 C   0  0  0  0  0  0  0  0  0  0  0  0
   22.5306  -21.6538   -9.3805 O   0  0  0  0  0  0  0  0  0  0  0  0
   20.9189  -20.5013  -10.4351 O   0  0  0  0  0  0  0  0  0  0  0  0
  2  1  1  6
  2  4  1  0
  3  2  1  0
  4  5  2  0
  6  4  1  0
  6  7  1  0
  7  8  1  1
  9  8  1  0
 10  9  2  0
 11 12  1  0
 11 10  1  0
 12 17  2  0
 13 14  2  0
 13 12  1  0
 14 15  1  0
 15 16  2  0
 17 16  1  0
 17  9  1  0
 18  7  1  0
 18 19  2  0
 20 21  1  0
 21 22  2  0
 23 24  1  0
 23 21  1  0
 25 24  1  6
 25 26  1  0
 26 18  1  0
 27 29  1  0
 27 25  1  0
 28 27  2  0
M  END
$$$$
