AWQ.pdb
     RDKit          3D

 29 30  0  0  1  0  0  0  0  0999 V2000
   27.4355  -19.8133  -15.3043 C   0  0  0  0  0  0  0  0  0  0  0  0
   27.9488  -21.0617  -14.6131 C   0  0  2  0  0  0  0  0  0  0  0  0
   27.6673  -22.2478  -15.3996 N   0  0  0  0  0  0  0  0  0  0  0  0
   27.2783  -21.2059  -13.2931 C   0  0  0  0  0  0  0  0  0  0  0  0
   26.1662  -21.7847  -13.2509 O   0  0  0  0  0  0  0  0  0  0  0  0
   27.8397  -20.7186  -12.0813 N   0  0  0  0  0  0  0  0  0  0  0  0
   27.1657  -20.9004  -10.8103 C   0  0  1  0  0  0  0  0  0  0  0  0
   28.0459  -20.4772   -9.6568 C   0  0  0  0  0  0  0  0  0  0  0  0
   27.3435  -20.6163   -8.3605 C   0  0  0  0  0  0  0  0  0  0  0  0
   26.1187  -21.1921   -8.1336 C   0  0  0  0  0  0  0  0  0  0  0  0
   25.8335  -21.1149   -6.8104 N   0  0  0  0  0  0  0  0  0  0  0  0
   26.8564  -20.4988   -6.1866 C   0  0  0  0  0  0  0  0  0  0  0  0
   27.0360  -20.1875   -4.8544 C   0  0  0  0  0  0  0  0  0  0  0  0
   28.2065  -19.5370   -4.4658 C   0  0  0  0  0  0  0  0  0  0  0  0
   29.1634  -19.2105   -5.3847 C   0  0  0  0  0  0  0  0  0  0  0  0
   28.9604  -19.5323   -6.7101 C   0  0  0  0  0  0  0  0  0  0  0  0
   27.8080  -20.1804   -7.1386 C   0  0  0  0  0  0  0  0  0  0  0  0
   25.9564  -20.0063  -10.7918 C   0  0  0  0  0  0  0  0  0  0  0  0
   26.0693  -18.7882  -11.0995 O   0  0  0  0  0  0  0  0  0  0  0  0
   22.5335  -22.2093  -14.6052 N   0  0  0  0  0  0  0  0  0  0  0  0
   21.9041  -21.1016  -14.0042 C   0  0  0  0  0  0  0  0  0  0  0  0
   20.6621  -21.1108  -13.8068 O   0  0  0  0  0  0  0  0  0  0  0  0
   22.6788  -19.9183  -13.5891 C   0  0  0  0  0  0  0  0  0  0  0  0
   23.7837  -20.2851  -12.6679 C   0  0  0  0  0  0  0  0  0  0  0  0
   23.4881  -20.0739  -11.2325 C   0  0  2  0  0  0  0  0  0  0  0  0
   24.6797  -20.4910  -10.4364 N   0  0  0  0  0  0  0  0  0  0  0  0
   22.3435  -20.6808  -10.6009 C   0  0  0  0  0  0  0  0  0  0  0  0
   22.3187  -21.8900  -10.2797 O   0  0  0  0  0  0  0  0  0  0  0  0
   21.1941  -19.9477  -10.3112 O   0  0  0  0  0  0  0  0  0  0  0  0
  2  1  1  6
  2  4  1  0
  3  2  1  0
  4  5  2  0
  6  4  1  0
  6  7  1  0
  7  8  1  1
  9  8  1  0
 10  9  2  0
 11 12  1  0
 11 10  1  0
 12 17  2  0
 13 14  2  0
 13 12  1  0
 14 15  1  0
 15 16  2  0
 17 16  1  0
 17  9  1  0
 18  7  1  0
 18 19  2  0
 20 21  1  0
 21 22  2  0
 23 24  1  0
 23 21  1  0
 25 24  1  6
 25 26  1  0
 26 18  1  0
 27 29  1  0
 27 25  1  0
 28 27  2  0
M  END
$$$$
