AWQ.pdb
     RDKit          3D

 29 30  0  0  1  0  0  0  0  0999 V2000
   27.1880  -19.8708  -15.5911 C   0  0  0  0  0  0  0  0  0  0  0  0
   28.0269  -20.7570  -14.6909 C   0  0  2  0  0  0  0  0  0  0  0  0
   28.2959  -22.0361  -15.3202 N   0  0  0  0  0  0  0  0  0  0  0  0
   27.2932  -21.0057  -13.4210 C   0  0  0  0  0  0  0  0  0  0  0  0
   26.4844  -21.9637  -13.3791 O   0  0  0  0  0  0  0  0  0  0  0  0
   27.4669  -20.2088  -12.2565 N   0  0  0  0  0  0  0  0  0  0  0  0
   26.8259  -20.5545  -11.0026 C   0  0  1  0  0  0  0  0  0  0  0  0
   27.3832  -19.7392   -9.8584 C   0  0  0  0  0  0  0  0  0  0  0  0
   26.8566  -20.2052   -8.5550 C   0  0  0  0  0  0  0  0  0  0  0  0
   25.7282  -20.9533   -8.3311 C   0  0  0  0  0  0  0  0  0  0  0  0
   25.5966  -21.1648   -6.9984 N   0  0  0  0  0  0  0  0  0  0  0  0
   26.6230  -20.5639   -6.3656 C   0  0  0  0  0  0  0  0  0  0  0  0
   26.9295  -20.4945   -5.0220 C   0  0  0  0  0  0  0  0  0  0  0  0
   28.0704  -19.7978   -4.6257 C   0  0  0  0  0  0  0  0  0  0  0  0
   28.8755  -19.1915   -5.5482 C   0  0  0  0  0  0  0  0  0  0  0  0
   28.5477  -19.2753   -6.8850 C   0  0  0  0  0  0  0  0  0  0  0  0
   27.4197  -19.9599   -7.3214 C   0  0  0  0  0  0  0  0  0  0  0  0
   25.3656  -20.2128  -11.1158 C   0  0  0  0  0  0  0  0  0  0  0  0
   25.0159  -19.0689  -11.5165 O   0  0  0  0  0  0  0  0  0  0  0  0
   22.2971  -23.3479  -15.5867 N   0  0  0  0  0  0  0  0  0  0  0  0
   21.8682  -23.2718  -14.2471 C   0  0  0  0  0  0  0  0  0  0  0  0
   21.3617  -24.2778  -13.6876 O   0  0  0  0  0  0  0  0  0  0  0  0
   22.0072  -22.0254  -13.4725 C   0  0  0  0  0  0  0  0  0  0  0  0
   22.7539  -22.2486  -12.2089 C   0  0  0  0  0  0  0  0  0  0  0  0
   23.0113  -21.0237  -11.4180 C   0  0  2  0  0  0  0  0  0  0  0  0
   24.3573  -21.1426  -10.7839 N   0  0  0  0  0  0  0  0  0  0  0  0
   22.1090  -20.5923  -10.3802 C   0  0  0  0  0  0  0  0  0  0  0  0
   22.3118  -20.8406   -9.1706 O   0  0  0  0  0  0  0  0  0  0  0  0
   20.9533  -19.8694  -10.6703 O   0  0  0  0  0  0  0  0  0  0  0  0
  2  1  1  6
  2  4  1  0
  3  2  1  0
  4  5  2  0
  6  4  1  0
  6  7  1  0
  7  8  1  1
  9  8  1  0
 10  9  2  0
 11 12  1  0
 11 10  1  0
 12 17  2  0
 13 14  2  0
 13 12  1  0
 14 15  1  0
 15 16  2  0
 17 16  1  0
 17  9  1  0
 18  7  1  0
 18 19  2  0
 20 21  1  0
 21 22  2  0
 23 24  1  0
 23 21  1  0
 25 24  1  1
 25 26  1  0
 26 18  1  0
 27 29  1  0
 27 25  1  0
 28 27  2  0
M  END
$$$$
