AWQ.pdb
     RDKit          3D

 29 30  0  0  1  0  0  0  0  0999 V2000
   26.2691  -21.0254  -12.2490 C   0  0  0  0  0  0  0  0  0  0  0  0
   25.8969  -21.4172  -13.6659 C   0  0  2  0  0  0  0  0  0  0  0  0
   26.9439  -21.0524  -14.6013 N   0  0  0  0  0  0  0  0  0  0  0  0
   24.6492  -20.7105  -14.0616 C   0  0  0  0  0  0  0  0  0  0  0  0
   24.6375  -19.4568  -14.0219 O   0  0  0  0  0  0  0  0  0  0  0  0
   23.4731  -21.3902  -14.4811 N   0  0  0  0  0  0  0  0  0  0  0  0
   22.2889  -20.6638  -14.8966 C   0  0  1  0  0  0  0  0  0  0  0  0
   22.2173  -20.5460  -16.4018 C   0  0  0  0  0  0  0  0  0  0  0  0
   23.0905  -19.4593  -16.9018 C   0  0  0  0  0  0  0  0  0  0  0  0
   24.4194  -19.5438  -17.2338 C   0  0  0  0  0  0  0  0  0  0  0  0
   24.8492  -18.3258  -17.6456 N   0  0  0  0  0  0  0  0  0  0  0  0
   23.8165  -17.4628  -17.5825 C   0  0  0  0  0  0  0  0  0  0  0  0
   23.7512  -16.1201  -17.8937 C   0  0  0  0  0  0  0  0  0  0  0  0
   22.5388  -15.4497  -17.7362 C   0  0  0  0  0  0  0  0  0  0  0  0
   21.4303  -16.1063  -17.2815 C   0  0  0  0  0  0  0  0  0  0  0  0
   21.5212  -17.4482  -16.9774 C   0  0  0  0  0  0  0  0  0  0  0  0
   22.7106  -18.1530  -17.1203 C   0  0  0  0  0  0  0  0  0  0  0  0
   21.0829  -21.4488  -14.4591 C   0  0  0  0  0  0  0  0  0  0  0  0
   21.1079  -22.7096  -14.4883 O   0  0  0  0  0  0  0  0  0  0  0  0
   20.0025  -22.4482  -10.3420 N   0  0  0  0  0  0  0  0  0  0  0  0
   18.6356  -22.7875  -10.3732 C   0  0  0  0  0  0  0  0  0  0  0  0
   18.1914  -23.6908   -9.6194 O   0  0  0  0  0  0  0  0  0  0  0  0
   17.6993  -22.0941  -11.2763 C   0  0  0  0  0  0  0  0  0  0  0  0
   18.4024  -21.1183  -12.1467 C   0  0  0  0  0  0  0  0  0  0  0  0
   18.7817  -21.6396  -13.4796 C   0  0  2  0  0  0  0  0  0  0  0  0
   19.9058  -20.8133  -14.0099 N   0  0  0  0  0  0  0  0  0  0  0  0
   17.8200  -21.7521  -14.5472 C   0  0  0  0  0  0  0  0  0  0  0  0
   17.5520  -20.7973  -15.3104 O   0  0  0  0  0  0  0  0  0  0  0  0
   17.1317  -22.9396  -14.7891 O   0  0  0  0  0  0  0  0  0  0  0  0
  2  1  1  1
  2  4  1  0
  3  2  1  0
  4  5  2  0
  6  4  1  0
  6  7  1  0
  7  8  1  6
  9  8  1  0
 10  9  2  0
 11 12  1  0
 11 10  1  0
 12 17  2  0
 13 14  2  0
 13 12  1  0
 14 15  1  0
 15 16  2  0
 17 16  1  0
 17  9  1  0
 18  7  1  0
 18 19  2  0
 20 21  1  0
 21 22  2  0
 23 24  1  0
 23 21  1  0
 25 24  1  1
 25 26  1  0
 26 18  1  0
 27 29  1  0
 27 25  1  0
 28 27  2  0
M  END
$$$$
