AWQ.pdb
     RDKit          3D

 29 30  0  0  1  0  0  0  0  0999 V2000
   26.8246  -20.8248  -15.7203 C   0  0  0  0  0  0  0  0  0  0  0  0
   27.5168  -21.6453  -14.6492 C   0  0  2  0  0  0  0  0  0  0  0  0
   27.7946  -22.9895  -15.1185 N   0  0  0  0  0  0  0  0  0  0  0  0
   26.6361  -21.7398  -13.4540 C   0  0  0  0  0  0  0  0  0  0  0  0
   25.8213  -22.6913  -13.3894 O   0  0  0  0  0  0  0  0  0  0  0  0
   26.6765  -20.8030  -12.3854 N   0  0  0  0  0  0  0  0  0  0  0  0
   25.7518  -20.8881  -11.2716 C   0  0  1  0  0  0  0  0  0  0  0  0
   26.2100  -20.0343  -10.1117 C   0  0  0  0  0  0  0  0  0  0  0  0
   27.4050  -20.6109   -9.4539 C   0  0  0  0  0  0  0  0  0  0  0  0
   28.3749  -21.3949  -10.0265 C   0  0  0  0  0  0  0  0  0  0  0  0
   29.2945  -21.7174   -9.0839 N   0  0  0  0  0  0  0  0  0  0  0  0
   28.9286  -21.1522   -7.9169 C   0  0  0  0  0  0  0  0  0  0  0  0
   29.5323  -21.1876   -6.6767 C   0  0  0  0  0  0  0  0  0  0  0  0
   28.9363  -20.5049   -5.6170 C   0  0  0  0  0  0  0  0  0  0  0  0
   27.7735  -19.8107   -5.7977 C   0  0  0  0  0  0  0  0  0  0  0  0
   27.1897  -19.7906   -7.0468 C   0  0  0  0  0  0  0  0  0  0  0  0
   27.7515  -20.4577   -8.1290 C   0  0  0  0  0  0  0  0  0  0  0  0
   24.4258  -20.3410  -11.7237 C   0  0  0  0  0  0  0  0  0  0  0  0
   24.3843  -19.3066  -12.4446 O   0  0  0  0  0  0  0  0  0  0  0  0
   19.4461  -22.0351  -14.3665 N   0  0  0  0  0  0  0  0  0  0  0  0
   20.4189  -22.9602  -13.9396 C   0  0  0  0  0  0  0  0  0  0  0  0
   20.2151  -24.1947  -14.0652 O   0  0  0  0  0  0  0  0  0  0  0  0
   21.6911  -22.5087  -13.3473 C   0  0  0  0  0  0  0  0  0  0  0  0
   21.7790  -21.0272  -13.3075 C   0  0  0  0  0  0  0  0  0  0  0  0
   21.9304  -20.4528  -11.9513 C   0  0  2  0  0  0  0  0  0  0  0  0
   23.2073  -20.9546  -11.3634 N   0  0  0  0  0  0  0  0  0  0  0  0
   20.9190  -20.6301  -10.9398 C   0  0  0  0  0  0  0  0  0  0  0  0
   21.1187  -21.3032   -9.9040 O   0  0  0  0  0  0  0  0  0  0  0  0
   19.6547  -20.0566  -11.0618 O   0  0  0  0  0  0  0  0  0  0  0  0
  2  1  1  6
  2  4  1  0
  3  2  1  0
  4  5  2  0
  6  4  1  0
  6  7  1  0
  7  8  1  1
  9  8  1  0
 10  9  2  0
 11 12  1  0
 11 10  1  0
 12 17  2  0
 13 14  2  0
 13 12  1  0
 14 15  1  0
 15 16  2  0
 17 16  1  0
 17  9  1  0
 18  7  1  0
 18 19  2  0
 20 21  1  0
 21 22  2  0
 23 24  1  0
 23 21  1  0
 25 24  1  6
 25 26  1  0
 26 18  1  0
 27 29  1  0
 27 25  1  0
 28 27  2  0
M  END
$$$$
