AWQ.pdb
     RDKit          3D

 29 30  0  0  1  0  0  0  0  0999 V2000
   26.6722  -20.0565  -15.2193 C   0  0  0  0  0  0  0  0  0  0  0  0
   27.3868  -21.1774  -14.4895 C   0  0  2  0  0  0  0  0  0  0  0  0
   27.2393  -22.4371  -15.1937 N   0  0  0  0  0  0  0  0  0  0  0  0
   26.8041  -21.3308  -13.1295 C   0  0  0  0  0  0  0  0  0  0  0  0
   25.7708  -22.0303  -13.0005 O   0  0  0  0  0  0  0  0  0  0  0  0
   27.3640  -20.7222  -11.9731 N   0  0  0  0  0  0  0  0  0  0  0  0
   26.7372  -20.8540  -10.6721 C   0  0  1  0  0  0  0  0  0  0  0  0
   27.5878  -20.2334   -9.5878 C   0  0  0  0  0  0  0  0  0  0  0  0
   27.0182  -20.4829   -8.2437 C   0  0  0  0  0  0  0  0  0  0  0  0
   25.8361  -21.1116   -7.9429 C   0  0  0  0  0  0  0  0  0  0  0  0
   25.6788  -21.1340   -6.5965 N   0  0  0  0  0  0  0  0  0  0  0  0
   26.7415  -20.5295   -6.0306 C   0  0  0  0  0  0  0  0  0  0  0  0
   27.0417  -20.3043   -4.7028 C   0  0  0  0  0  0  0  0  0  0  0  0
   28.2275  -19.6448   -4.3820 C   0  0  0  0  0  0  0  0  0  0  0  0
   29.0823  -19.2260   -5.3621 C   0  0  0  0  0  0  0  0  0  0  0  0
   28.7598  -19.4630   -6.6817 C   0  0  0  0  0  0  0  0  0  0  0  0
   27.5879  -20.1168   -7.0437 C   0  0  0  0  0  0  0  0  0  0  0  0
   25.4389  -20.0952  -10.7011 C   0  0  0  0  0  0  0  0  0  0  0  0
   25.4381  -18.8581  -10.9479 O   0  0  0  0  0  0  0  0  0  0  0  0
   23.4351  -20.0414  -15.2698 N   0  0  0  0  0  0  0  0  0  0  0  0
   22.2085  -19.5987  -14.7373 C   0  0  0  0  0  0  0  0  0  0  0  0
   21.2958  -19.1958  -15.5030 O   0  0  0  0  0  0  0  0  0  0  0  0
   21.9634  -19.6031  -13.2838 C   0  0  0  0  0  0  0  0  0  0  0  0
   23.1465  -20.0928  -12.5324 C   0  0  0  0  0  0  0  0  0  0  0  0
   22.9586  -20.1719  -11.0659 C   0  0  2  0  0  0  0  0  0  0  0  0
   24.2022  -20.7296  -10.4576 N   0  0  0  0  0  0  0  0  0  0  0  0
   21.8589  -20.9000  -10.4846 C   0  0  0  0  0  0  0  0  0  0  0  0
   20.8532  -20.3270  -10.0092 O   0  0  0  0  0  0  0  0  0  0  0  0
   21.8565  -22.2922  -10.4204 O   0  0  0  0  0  0  0  0  0  0  0  0
  2  1  1  6
  2  4  1  0
  3  2  1  0
  4  5  2  0
  6  4  1  0
  6  7  1  0
  7  8  1  1
  9  8  1  0
 10  9  2  0
 11 12  1  0
 11 10  1  0
 12 17  2  0
 13 14  2  0
 13 12  1  0
 14 15  1  0
 15 16  2  0
 17 16  1  0
 17  9  1  0
 18  7  1  0
 18 19  2  0
 20 21  1  0
 21 22  2  0
 23 24  1  0
 23 21  1  0
 25 24  1  6
 25 26  1  0
 26 18  1  0
 27 29  1  0
 27 25  1  0
 28 27  2  0
M  END
$$$$
