AWQ.pdb
     RDKit          3D

 29 30  0  0  1  0  0  0  0  0999 V2000
   27.7495  -21.2427  -17.6949 C   0  0  0  0  0  0  0  0  0  0  0  0
   28.5616  -21.9303  -16.6144 C   0  0  2  0  0  0  0  0  0  0  0  0
   28.8927  -23.2903  -16.9950 N   0  0  0  0  0  0  0  0  0  0  0  0
   27.7695  -21.9765  -15.3561 C   0  0  0  0  0  0  0  0  0  0  0  0
   26.9727  -22.9309  -15.1895 O   0  0  0  0  0  0  0  0  0  0  0  0
   27.8746  -20.9904  -14.3373 N   0  0  0  0  0  0  0  0  0  0  0  0
   27.1161  -21.0935  -13.1058 C   0  0  1  0  0  0  0  0  0  0  0  0
   27.6255  -20.1235  -12.0647 C   0  0  0  0  0  0  0  0  0  0  0  0
   26.7911  -20.1546  -10.8416 C   0  0  0  0  0  0  0  0  0  0  0  0
   25.4254  -20.0478  -10.7612 C   0  0  0  0  0  0  0  0  0  0  0  0
   25.0531  -20.1210   -9.4597 N   0  0  0  0  0  0  0  0  0  0  0  0
   26.1591  -20.2731   -8.7054 C   0  0  0  0  0  0  0  0  0  0  0  0
   26.3009  -20.3944   -7.3383 C   0  0  0  0  0  0  0  0  0  0  0  0
   27.5801  -20.5435   -6.8037 C   0  0  0  0  0  0  0  0  0  0  0  0
   28.6788  -20.5698   -7.6154 C   0  0  0  0  0  0  0  0  0  0  0  0
   28.5107  -20.4466   -8.9785 C   0  0  0  0  0  0  0  0  0  0  0  0
   27.2532  -20.2961   -9.5511 C   0  0  0  0  0  0  0  0  0  0  0  0
   25.6917  -20.7124  -13.4024 C   0  0  0  0  0  0  0  0  0  0  0  0
   25.4455  -19.6887  -14.0971 O   0  0  0  0  0  0  0  0  0  0  0  0
   23.6082  -24.6393  -16.0955 N   0  0  0  0  0  0  0  0  0  0  0  0
   22.9362  -24.8291  -14.8720 C   0  0  0  0  0  0  0  0  0  0  0  0
   22.6322  -25.9884  -14.4912 O   0  0  0  0  0  0  0  0  0  0  0  0
   22.5822  -23.6852  -14.0123 C   0  0  0  0  0  0  0  0  0  0  0  0
   23.1009  -22.4077  -14.5628 C   0  0  0  0  0  0  0  0  0  0  0  0
   23.2651  -21.3259  -13.5654 C   0  0  2  0  0  0  0  0  0  0  0  0
   24.6040  -21.4726  -12.9224 N   0  0  0  0  0  0  0  0  0  0  0  0
   22.3181  -21.1361  -12.4955 C   0  0  0  0  0  0  0  0  0  0  0  0
   22.6061  -21.3611  -11.2987 O   0  0  0  0  0  0  0  0  0  0  0  0
   21.0210  -20.6880  -12.7382 O   0  0  0  0  0  0  0  0  0  0  0  0
  2  1  1  6
  2  4  1  0
  3  2  1  0
  4  5  2  0
  6  4  1  0
  6  7  1  0
  7  8  1  1
  9  8  1  0
 10  9  2  0
 11 12  1  0
 11 10  1  0
 12 17  2  0
 13 14  2  0
 13 12  1  0
 14 15  1  0
 15 16  2  0
 17 16  1  0
 17  9  1  0
 18  7  1  0
 18 19  2  0
 20 21  1  0
 21 22  2  0
 23 24  1  0
 23 21  1  0
 25 24  1  1
 25 26  1  0
 26 18  1  0
 27 29  1  0
 27 25  1  0
 28 27  2  0
M  END
$$$$
