AWQ.pdb
     RDKit          3D

 29 30  0  0  1  0  0  0  0  0999 V2000
   27.8592  -20.4292  -15.0502 C   0  0  0  0  0  0  0  0  0  0  0  0
   28.5440  -20.6238  -13.7113 C   0  0  2  0  0  0  0  0  0  0  0  0
   29.5517  -21.6647  -13.7859 N   0  0  0  0  0  0  0  0  0  0  0  0
   27.5344  -21.0224  -12.6941 C   0  0  0  0  0  0  0  0  0  0  0  0
   26.8080  -22.0164  -12.9347 O   0  0  0  0  0  0  0  0  0  0  0  0
   27.3563  -20.3294  -11.4656 N   0  0  0  0  0  0  0  0  0  0  0  0
   26.2758  -20.6656  -10.5589 C   0  0  1  0  0  0  0  0  0  0  0  0
   26.4431  -19.9740   -9.2255 C   0  0  0  0  0  0  0  0  0  0  0  0
   27.6271  -20.4834   -8.4963 C   0  0  0  0  0  0  0  0  0  0  0  0
   28.5730  -21.3652   -8.9553 C   0  0  0  0  0  0  0  0  0  0  0  0
   29.4901  -21.5757   -7.9792 N   0  0  0  0  0  0  0  0  0  0  0  0
   29.1462  -20.8425   -6.9025 C   0  0  0  0  0  0  0  0  0  0  0  0
   29.7567  -20.7186   -5.6713 C   0  0  0  0  0  0  0  0  0  0  0  0
   29.1851  -19.8782   -4.7168 C   0  0  0  0  0  0  0  0  0  0  0  0
   28.0393  -19.1861   -4.9904 C   0  0  0  0  0  0  0  0  0  0  0  0
   27.4483  -19.3268   -6.2283 C   0  0  0  0  0  0  0  0  0  0  0  0
   27.9859  -20.1542   -7.2072 C   0  0  0  0  0  0  0  0  0  0  0  0
   24.9912  -20.1621  -11.1575 C   0  0  0  0  0  0  0  0  0  0  0  0
   25.0125  -19.2076  -11.9821 O   0  0  0  0  0  0  0  0  0  0  0  0
   19.5757  -22.7246  -13.4659 N   0  0  0  0  0  0  0  0  0  0  0  0
   20.9024  -22.6330  -13.9304 C   0  0  0  0  0  0  0  0  0  0  0  0
   21.4820  -23.6492  -14.3917 O   0  0  0  0  0  0  0  0  0  0  0  0
   21.6352  -21.3545  -13.8943 C   0  0  0  0  0  0  0  0  0  0  0  0
   22.7570  -21.3958  -12.9226 C   0  0  0  0  0  0  0  0  0  0  0  0
   22.5782  -20.5305  -11.7346 C   0  0  2  0  0  0  0  0  0  0  0  0
   23.7432  -20.7295  -10.8231 N   0  0  0  0  0  0  0  0  0  0  0  0
   21.3981  -20.6139  -10.9113 C   0  0  0  0  0  0  0  0  0  0  0  0
   21.3746  -21.2567   -9.8379 O   0  0  0  0  0  0  0  0  0  0  0  0
   20.2107  -19.9779  -11.2690 O   0  0  0  0  0  0  0  0  0  0  0  0
  2  1  1  6
  2  4  1  0
  3  2  1  0
  4  5  2  0
  6  4  1  0
  6  7  1  0
  7  8  1  1
  9  8  1  0
 10  9  2  0
 11 12  1  0
 11 10  1  0
 12 17  2  0
 13 14  2  0
 13 12  1  0
 14 15  1  0
 15 16  2  0
 17 16  1  0
 17  9  1  0
 18  7  1  0
 18 19  2  0
 20 21  1  0
 21 22  2  0
 23 24  1  0
 23 21  1  0
 25 24  1  6
 25 26  1  0
 26 18  1  0
 27 29  1  0
 27 25  1  0
 28 27  2  0
M  END
$$$$
