AWQ.pdb
     RDKit          3D

 29 30  0  0  1  0  0  0  0  0999 V2000
   26.5465  -22.2145  -17.2867 C   0  0  0  0  0  0  0  0  0  0  0  0
   27.4391  -22.6040  -16.1242 C   0  0  2  0  0  0  0  0  0  0  0  0
   27.8730  -23.9836  -16.2378 N   0  0  0  0  0  0  0  0  0  0  0  0
   26.6845  -22.4543  -14.8510 C   0  0  0  0  0  0  0  0  0  0  0  0
   25.8744  -23.3567  -14.5301 O   0  0  0  0  0  0  0  0  0  0  0  0
   26.8398  -21.3379  -13.9846 N   0  0  0  0  0  0  0  0  0  0  0  0
   26.0559  -21.2090  -12.7715 C   0  0  1  0  0  0  0  0  0  0  0  0
   26.6360  -20.1588  -11.8523 C   0  0  0  0  0  0  0  0  0  0  0  0
   27.7311  -20.7112  -11.0222 C   0  0  0  0  0  0  0  0  0  0  0  0
   28.8519  -21.3744  -11.4548 C   0  0  0  0  0  0  0  0  0  0  0  0
   29.6033  -21.7180  -10.3800 N   0  0  0  0  0  0  0  0  0  0  0  0
   28.9813  -21.2852   -9.2660 C   0  0  0  0  0  0  0  0  0  0  0  0
   29.3443  -21.3911   -7.9390 C   0  0  0  0  0  0  0  0  0  0  0  0
   28.5072  -20.8473   -6.9655 C   0  0  0  0  0  0  0  0  0  0  0  0
   27.3453  -20.2186   -7.3138 C   0  0  0  0  0  0  0  0  0  0  0  0
   27.0046  -20.1257   -8.6468 C   0  0  0  0  0  0  0  0  0  0  0  0
   27.8110  -20.6544   -9.6478 C   0  0  0  0  0  0  0  0  0  0  0  0
   24.6773  -20.7455  -13.1542 C   0  0  0  0  0  0  0  0  0  0  0  0
   24.4611  -20.3057  -14.3166 O   0  0  0  0  0  0  0  0  0  0  0  0
   20.8610  -24.5737  -14.8696 N   0  0  0  0  0  0  0  0  0  0  0  0
   20.3675  -23.2544  -14.8640 C   0  0  0  0  0  0  0  0  0  0  0  0
   19.1301  -23.0423  -14.9366 O   0  0  0  0  0  0  0  0  0  0  0  0
   21.2796  -22.1005  -14.7666 C   0  0  0  0  0  0  0  0  0  0  0  0
   22.1415  -22.1865  -13.5608 C   0  0  0  0  0  0  0  0  0  0  0  0
   22.2084  -20.9439  -12.7585 C   0  0  2  0  0  0  0  0  0  0  0  0
   23.6003  -20.7862  -12.2433 N   0  0  0  0  0  0  0  0  0  0  0  0
   21.3313  -20.7223  -11.6365 C   0  0  0  0  0  0  0  0  0  0  0  0
   21.6372  -21.0591  -10.4707 O   0  0  0  0  0  0  0  0  0  0  0  0
   20.0859  -20.1160  -11.7906 O   0  0  0  0  0  0  0  0  0  0  0  0
  2  1  1  6
  2  4  1  0
  3  2  1  0
  4  5  2  0
  6  4  1  0
  6  7  1  0
  7  8  1  1
  9  8  1  0
 10  9  2  0
 11 12  1  0
 11 10  1  0
 12 17  2  0
 13 14  2  0
 13 12  1  0
 14 15  1  0
 15 16  2  0
 17 16  1  0
 17  9  1  0
 18  7  1  0
 18 19  2  0
 20 21  1  0
 21 22  2  0
 23 24  1  0
 23 21  1  0
 25 24  1  1
 25 26  1  0
 26 18  1  0
 27 29  1  0
 27 25  1  0
 28 27  2  0
M  END
$$$$
