AWQ.pdb
     RDKit          3D

 29 30  0  0  1  0  0  0  0  0999 V2000
   27.1797  -20.5149  -16.1868 C   0  0  0  0  0  0  0  0  0  0  0  0
   28.0433  -21.1217  -15.0979 C   0  0  2  0  0  0  0  0  0  0  0  0
   28.7023  -22.3269  -15.5642 N   0  0  0  0  0  0  0  0  0  0  0  0
   27.1903  -21.4762  -13.9319 C   0  0  0  0  0  0  0  0  0  0  0  0
   26.6429  -22.6048  -13.9167 O   0  0  0  0  0  0  0  0  0  0  0  0
   26.9682  -20.5961  -12.8378 N   0  0  0  0  0  0  0  0  0  0  0  0
   26.0351  -20.9286  -11.7788 C   0  0  1  0  0  0  0  0  0  0  0  0
   26.2611  -20.0671  -10.5577 C   0  0  0  0  0  0  0  0  0  0  0  0
   27.4653  -20.4947   -9.8090 C   0  0  0  0  0  0  0  0  0  0  0  0
   28.5072  -21.2583  -10.2719 C   0  0  0  0  0  0  0  0  0  0  0  0
   29.4086  -21.4263   -9.2732 N   0  0  0  0  0  0  0  0  0  0  0  0
   28.9601  -20.7822   -8.1782 C   0  0  0  0  0  0  0  0  0  0  0  0
   29.5155  -20.6596   -6.9210 C   0  0  0  0  0  0  0  0  0  0  0  0
   28.8340  -19.9250   -5.9515 C   0  0  0  0  0  0  0  0  0  0  0  0
   27.6353  -19.3340   -6.2357 C   0  0  0  0  0  0  0  0  0  0  0  0
   27.1011  -19.4713   -7.4996 C   0  0  0  0  0  0  0  0  0  0  0  0
   27.7483  -20.1949   -8.4941 C   0  0  0  0  0  0  0  0  0  0  0  0
   24.6452  -20.6351  -12.2729 C   0  0  0  0  0  0  0  0  0  0  0  0
   24.4038  -19.5470  -12.8636 O   0  0  0  0  0  0  0  0  0  0  0  0
   19.0735  -22.0547  -15.7003 N   0  0  0  0  0  0  0  0  0  0  0  0
   19.9373  -22.8286  -14.9009 C   0  0  0  0  0  0  0  0  0  0  0  0
   19.5460  -23.9257  -14.4267 O   0  0  0  0  0  0  0  0  0  0  0  0
   21.3107  -22.3800  -14.6087 C   0  0  0  0  0  0  0  0  0  0  0  0
   21.6037  -22.4314  -13.1542 C   0  0  0  0  0  0  0  0  0  0  0  0
   22.2252  -21.2050  -12.6048 C   0  0  2  0  0  0  0  0  0  0  0  0
   23.5852  -21.5496  -12.0956 N   0  0  0  0  0  0  0  0  0  0  0  0
   21.5855  -20.4344  -11.5683 C   0  0  0  0  0  0  0  0  0  0  0  0
   21.8113  -20.6291  -10.3530 O   0  0  0  0  0  0  0  0  0  0  0  0
   20.6743  -19.4228  -11.8662 O   0  0  0  0  0  0  0  0  0  0  0  0
  2  1  1  6
  2  4  1  0
  3  2  1  0
  4  5  2  0
  6  4  1  0
  6  7  1  0
  7  8  1  1
  9  8  1  0
 10  9  2  0
 11 12  1  0
 11 10  1  0
 12 17  2  0
 13 14  2  0
 13 12  1  0
 14 15  1  0
 15 16  2  0
 17 16  1  0
 17  9  1  0
 18  7  1  0
 18 19  2  0
 20 21  1  0
 21 22  2  0
 23 24  1  0
 23 21  1  0
 25 24  1  1
 25 26  1  0
 26 18  1  0
 27 29  1  0
 27 25  1  0
 28 27  2  0
M  END
$$$$
