AWQ.pdb
     RDKit          3D

 29 30  0  0  1  0  0  0  0  0999 V2000
   28.1994  -23.2662  -16.5704 C   0  0  0  0  0  0  0  0  0  0  0  0
   27.5621  -21.9491  -16.1719 C   0  0  2  0  0  0  0  0  0  0  0  0
   28.5387  -20.8764  -16.1661 N   0  0  0  0  0  0  0  0  0  0  0  0
   26.9927  -22.0707  -14.8030 C   0  0  0  0  0  0  0  0  0  0  0  0
   26.1096  -22.9383  -14.6010 O   0  0  0  0  0  0  0  0  0  0  0  0
   27.4032  -21.2501  -13.7171 N   0  0  0  0  0  0  0  0  0  0  0  0
   26.7878  -21.3653  -12.4091 C   0  0  1  0  0  0  0  0  0  0  0  0
   27.6597  -20.7538  -11.3366 C   0  0  0  0  0  0  0  0  0  0  0  0
   26.9242  -20.6069  -10.0596 C   0  0  0  0  0  0  0  0  0  0  0  0
   25.5642  -20.6044   -9.8765 C   0  0  0  0  0  0  0  0  0  0  0  0
   25.2972  -20.4426   -8.5572 N   0  0  0  0  0  0  0  0  0  0  0  0
   26.4649  -20.3414   -7.8928 C   0  0  0  0  0  0  0  0  0  0  0  0
   26.7177  -20.1687   -6.5473 C   0  0  0  0  0  0  0  0  0  0  0  0
   28.0408  -20.0945   -6.1139 C   0  0  0  0  0  0  0  0  0  0  0  0
   29.0744  -20.1906   -7.0023 C   0  0  0  0  0  0  0  0  0  0  0  0
   28.7957  -20.3630   -8.3418 C   0  0  0  0  0  0  0  0  0  0  0  0
   27.4912  -20.4418   -8.8146 C   0  0  0  0  0  0  0  0  0  0  0  0
   25.5021  -20.5850  -12.4285 C   0  0  0  0  0  0  0  0  0  0  0  0
   25.5301  -19.3278  -12.5277 O   0  0  0  0  0  0  0  0  0  0  0  0
   23.6370  -19.6519  -16.3983 N   0  0  0  0  0  0  0  0  0  0  0  0
   23.1189  -20.9218  -16.0772 C   0  0  0  0  0  0  0  0  0  0  0  0
   23.1079  -21.8364  -16.9403 O   0  0  0  0  0  0  0  0  0  0  0  0
   22.5884  -21.2101  -14.7325 C   0  0  0  0  0  0  0  0  0  0  0  0
   22.7475  -20.0479  -13.8224 C   0  0  0  0  0  0  0  0  0  0  0  0
   23.0007  -20.4008  -12.4070 C   0  0  2  0  0  0  0  0  0  0  0  0
   24.2458  -21.2211  -12.3380 N   0  0  0  0  0  0  0  0  0  0  0  0
   22.0146  -21.0899  -11.6133 C   0  0  0  0  0  0  0  0  0  0  0  0
   22.1907  -22.2539  -11.1890 O   0  0  0  0  0  0  0  0  0  0  0  0
   20.8025  -20.4921  -11.2727 O   0  0  0  0  0  0  0  0  0  0  0  0
  2  1  1  1
  2  4  1  0
  3  2  1  0
  4  5  2  0
  6  4  1  0
  6  7  1  0
  7  8  1  1
  9  8  1  0
 10  9  2  0
 11 12  1  0
 11 10  1  0
 12 17  2  0
 13 14  2  0
 13 12  1  0
 14 15  1  0
 15 16  2  0
 17 16  1  0
 17  9  1  0
 18  7  1  0
 18 19  2  0
 20 21  1  0
 21 22  2  0
 23 24  1  0
 23 21  1  0
 25 24  1  6
 25 26  1  0
 26 18  1  0
 27 29  1  0
 27 25  1  0
 28 27  2  0
M  END
$$$$
