QTV.pdb
     RDKit          3D

 24 23  0  0  1  0  0  0  0  0999 V2000
    8.1726  -12.5304   18.0935 N   0  0  0  0  0  0  0  0  0  0  0  0
    8.2065  -13.7476   17.3758 C   0  0  0  0  0  0  0  0  0  0  0  0
    8.5766  -13.7205   16.1820 O   0  0  0  0  0  0  0  0  0  0  0  0
    7.7999  -14.9851   18.0849 C   0  0  0  0  0  0  0  0  0  0  0  0
    8.7311  -15.3017   19.2369 C   0  0  0  0  0  0  0  0  0  0  0  0
    8.2116  -16.5245   19.9230 C   0  0  2  0  0  0  0  0  0  0  0  0
    7.2832  -17.1853   19.0403 N   0  0  0  0  0  0  0  0  0  0  0  0
    7.5353  -16.2325   21.2081 C   0  0  0  0  0  0  0  0  0  0  0  0
    6.3520  -15.7812   21.2300 O   0  0  0  0  0  0  0  0  0  0  0  0
    6.7017  -18.5156   23.6192 C   0  0  0  0  0  0  0  0  0  0  0  0
    7.5146  -17.5604   24.4696 C   0  0  1  0  0  0  0  0  0  0  0  0
    8.8454  -18.0068   24.3981 O   0  0  0  0  0  0  0  0  0  0  0  0
    7.4936  -16.2145   23.7355 C   0  0  2  0  0  0  0  0  0  0  0  0
    8.1529  -16.4340   22.4701 N   0  0  0  0  0  0  0  0  0  0  0  0
    8.2194  -15.2593   24.5982 C   0  0  0  0  0  0  0  0  0  0  0  0
    9.3840  -14.9378   24.2458 O   0  0  0  0  0  0  0  0  0  0  0  0
    6.3299  -13.2904   27.8640 C   0  0  0  0  0  0  0  0  0  0  0  0
    7.4132  -12.6725   27.0224 C   0  0  2  0  0  0  0  0  0  0  0  0
    6.8513  -11.9635   25.8077 C   0  0  0  0  0  0  0  0  0  0  0  0
    8.4204  -13.6786   26.5329 C   0  0  2  0  0  0  0  0  0  0  0  0
    7.7026  -14.6876   25.7792 N   0  0  0  0  0  0  0  0  0  0  0  0
    9.2038  -14.2840   27.6106 C   0  0  0  0  0  0  0  0  0  0  0  0
    9.1759  -15.6369   27.8968 O   0  0  0  0  0  0  0  0  0  0  0  0
    9.9412  -13.5501   28.3171 O   0  0  0  0  0  0  0  0  0  0  0  0
  2  1  1  0
  2  3  2  0
  4  2  1  0
  5  4  1  0
  6  5  1  0
  6  7  1  6
  8  6  1  0
  8 14  1  0
  9  8  2  0
 11 10  1  6
 12 11  1  0
 13 14  1  6
 13 11  1  0
 15 13  1  0
 16 15  2  0
 18 20  1  0
 18 17  1  6
 19 18  1  0
 20 21  1  1
 21 15  1  0
 22 23  1  0
 22 20  1  0
 24 22  2  0
M  END
$$$$
