QTV.pdb
     RDKit          3D

 24 23  0  0  1  0  0  0  0  0999 V2000
   11.5666  -13.6361   19.9069 N   0  0  0  0  0  0  0  0  0  0  0  0
   11.1981  -13.2451   18.5996 C   0  0  0  0  0  0  0  0  0  0  0  0
   12.1068  -13.0197   17.7712 O   0  0  0  0  0  0  0  0  0  0  0  0
    9.7524  -13.1259   18.2904 C   0  0  0  0  0  0  0  0  0  0  0  0
    8.8931  -13.4925   19.4827 C   0  0  0  0  0  0  0  0  0  0  0  0
    8.9562  -14.9766   19.6538 C   0  0  2  0  0  0  0  0  0  0  0  0
    8.3545  -15.5965   18.4998 N   0  0  0  0  0  0  0  0  0  0  0  0
    8.2689  -15.4553   20.8754 C   0  0  0  0  0  0  0  0  0  0  0  0
    7.0043  -15.5023   20.9317 O   0  0  0  0  0  0  0  0  0  0  0  0
    8.2789  -18.5530   22.5809 C   0  0  0  0  0  0  0  0  0  0  0  0
    8.8123  -17.6253   23.6538 C   0  0  1  0  0  0  0  0  0  0  0  0
   10.2072  -17.5920   23.4856 O   0  0  0  0  0  0  0  0  0  0  0  0
    8.3210  -16.2208   23.2840 C   0  0  2  0  0  0  0  0  0  0  0  0
    8.9643  -15.8831   22.0366 N   0  0  0  0  0  0  0  0  0  0  0  0
    8.7272  -15.3331   24.3933 C   0  0  0  0  0  0  0  0  0  0  0  0
    9.8795  -14.8306   24.3341 O   0  0  0  0  0  0  0  0  0  0  0  0
    6.7594  -12.3720   25.5764 C   0  0  0  0  0  0  0  0  0  0  0  0
    7.1863  -13.1450   26.7945 C   0  0  2  0  0  0  0  0  0  0  0  0
    7.5932  -12.2306   27.9313 C   0  0  0  0  0  0  0  0  0  0  0  0
    8.3411  -14.0724   26.5249 C   0  0  2  0  0  0  0  0  0  0  0  0
    7.9204  -15.0124   25.5046 N   0  0  0  0  0  0  0  0  0  0  0  0
    8.8141  -14.7699   27.7213 C   0  0  0  0  0  0  0  0  0  0  0  0
    8.6933  -16.1366   27.8962 O   0  0  0  0  0  0  0  0  0  0  0  0
    9.3578  -14.1067   28.6409 O   0  0  0  0  0  0  0  0  0  0  0  0
  2  1  1  0
  2  3  2  0
  4  2  1  0
  5  4  1  0
  6  5  1  0
  6  7  1  6
  8  6  1  0
  8 14  1  0
  9  8  2  0
 11 10  1  6
 12 11  1  0
 13 14  1  6
 13 11  1  0
 15 13  1  0
 16 15  2  0
 18 20  1  0
 18 17  1  6
 19 18  1  0
 20 21  1  6
 21 15  1  0
 22 23  1  0
 22 20  1  0
 24 22  2  0
M  END
$$$$
