QTV.pdb
     RDKit          3D

 24 23  0  0  1  0  0  0  0  0999 V2000
   15.5864  -15.3552   19.1754 N   0  0  0  0  0  0  0  0  0  0  0  0
   14.6201  -14.5824   19.8586 C   0  0  0  0  0  0  0  0  0  0  0  0
   14.9788  -13.9514   20.8765 O   0  0  0  0  0  0  0  0  0  0  0  0
   13.2365  -14.5675   19.3245 C   0  0  0  0  0  0  0  0  0  0  0  0
   12.3361  -15.5258   20.0764 C   0  0  0  0  0  0  0  0  0  0  0  0
   10.9705  -15.4398   19.4733 C   0  0  2  0  0  0  0  0  0  0  0  0
   11.0844  -14.8461   18.1646 N   0  0  0  0  0  0  0  0  0  0  0  0
   10.0203  -14.6453   20.2855 C   0  0  0  0  0  0  0  0  0  0  0  0
    9.8658  -13.4058   20.0745 O   0  0  0  0  0  0  0  0  0  0  0  0
    6.5112  -15.2321   20.4871 C   0  0  0  0  0  0  0  0  0  0  0  0
    6.9382  -15.3150   21.9387 C   0  0  1  0  0  0  0  0  0  0  0  0
    7.3343  -16.6459   22.1557 O   0  0  0  0  0  0  0  0  0  0  0  0
    8.2204  -14.4819   22.0528 C   0  0  2  0  0  0  0  0  0  0  0  0
    9.2384  -15.2058   21.3292 N   0  0  0  0  0  0  0  0  0  0  0  0
    8.5168  -14.3713   23.4963 C   0  0  0  0  0  0  0  0  0  0  0  0
    9.5061  -15.0169   23.9302 O   0  0  0  0  0  0  0  0  0  0  0  0
    7.5875  -12.2401   27.9004 C   0  0  0  0  0  0  0  0  0  0  0  0
    7.2540  -12.4750   26.4522 C   0  0  2  0  0  0  0  0  0  0  0  0
    5.7974  -12.8423   26.2591 C   0  0  0  0  0  0  0  0  0  0  0  0
    8.0820  -13.5677   25.8302 C   0  0  2  0  0  0  0  0  0  0  0  0
    7.7747  -13.5993   24.4138 N   0  0  0  0  0  0  0  0  0  0  0  0
    7.8666  -14.8779   26.4454 C   0  0  0  0  0  0  0  0  0  0  0  0
    7.1199  -15.8785   25.8502 O   0  0  0  0  0  0  0  0  0  0  0  0
    8.3794  -15.1178   27.5683 O   0  0  0  0  0  0  0  0  0  0  0  0
  2  1  1  0
  2  3  2  0
  4  2  1  0
  5  4  1  0
  6  5  1  0
  6  7  1  6
  8  6  1  0
  8 14  1  0
  9  8  2  0
 11 10  1  6
 12 11  1  0
 13 14  1  6
 13 11  1  0
 15 13  1  0
 16 15  2  0
 18 20  1  0
 18 17  1  1
 19 18  1  0
 20 21  1  6
 21 15  1  0
 22 23  1  0
 22 20  1  0
 24 22  2  0
M  END
$$$$
