QTV.pdb
     RDKit          3D

 24 23  0  0  1  0  0  0  0  0999 V2000
   15.0992  -17.6491   19.6244 N   0  0  0  0  0  0  0  0  0  0  0  0
   13.9024  -17.2134   19.0115 C   0  0  0  0  0  0  0  0  0  0  0  0
   13.9606  -16.7832   17.8392 O   0  0  0  0  0  0  0  0  0  0  0  0
   12.6481  -17.2937   19.7989 C   0  0  0  0  0  0  0  0  0  0  0  0
   12.5053  -18.6346   20.4889 C   0  0  0  0  0  0  0  0  0  0  0  0
   11.2379  -18.6090   21.2819 C   0  0  2  0  0  0  0  0  0  0  0  0
   10.1304  -18.8125   20.3819 N   0  0  0  0  0  0  0  0  0  0  0  0
   11.0353  -17.3419   22.0218 C   0  0  0  0  0  0  0  0  0  0  0  0
   11.9994  -16.5440   22.2172 O   0  0  0  0  0  0  0  0  0  0  0  0
    7.6927  -15.0856   21.8972 C   0  0  0  0  0  0  0  0  0  0  0  0
    8.0526  -15.4924   23.3119 C   0  0  1  0  0  0  0  0  0  0  0  0
    7.4661  -16.7527   23.5190 O   0  0  0  0  0  0  0  0  0  0  0  0
    9.5658  -15.7394   23.3112 C   0  0  2  0  0  0  0  0  0  0  0  0
    9.7779  -16.9467   22.5486 N   0  0  0  0  0  0  0  0  0  0  0  0
    9.9641  -15.8823   24.7271 C   0  0  0  0  0  0  0  0  0  0  0  0
   10.4192  -16.9995   25.0855 O   0  0  0  0  0  0  0  0  0  0  0  0
   10.3262  -13.8736   29.2847 C   0  0  0  0  0  0  0  0  0  0  0  0
   10.0066  -13.7794   27.8175 C   0  0  2  0  0  0  0  0  0  0  0  0
    8.5829  -13.3219   27.5766 C   0  0  0  0  0  0  0  0  0  0  0  0
   10.1902  -15.0861   27.0928 C   0  0  2  0  0  0  0  0  0  0  0  0
    9.8705  -14.8626   25.6966 N   0  0  0  0  0  0  0  0  0  0  0  0
    9.3859  -16.1743   27.6500 C   0  0  0  0  0  0  0  0  0  0  0  0
    8.1700  -16.5639   27.1181 O   0  0  0  0  0  0  0  0  0  0  0  0
    9.8093  -16.7923   28.6600 O   0  0  0  0  0  0  0  0  0  0  0  0
  2  1  1  0
  2  3  2  0
  4  2  1  0
  5  4  1  0
  6  5  1  0
  6  7  1  6
  8  6  1  0
  8 14  1  0
  9  8  2  0
 11 10  1  6
 12 11  1  0
 13 14  1  6
 13 11  1  0
 15 13  1  0
 16 15  2  0
 18 20  1  0
 18 17  1  1
 19 18  1  0
 20 21  1  6
 21 15  1  0
 22 23  1  0
 22 20  1  0
 24 22  2  0
M  END
$$$$
