QTV.pdb
     RDKit          3D

 24 23  0  0  1  0  0  0  0  0999 V2000
   12.9202  -18.0936   21.4374 N   0  0  0  0  0  0  0  0  0  0  0  0
   12.9517  -18.6407   20.1345 C   0  0  0  0  0  0  0  0  0  0  0  0
   13.3538  -19.8162   19.9959 O   0  0  0  0  0  0  0  0  0  0  0  0
   12.5046  -17.7843   19.0091 C   0  0  0  0  0  0  0  0  0  0  0  0
   11.5440  -16.7084   19.4720 C   0  0  0  0  0  0  0  0  0  0  0  0
   10.1922  -17.3317   19.6138 C   0  0  2  0  0  0  0  0  0  0  0  0
    9.6906  -17.6417   18.2984 N   0  0  0  0  0  0  0  0  0  0  0  0
    9.2169  -16.4631   20.3126 C   0  0  0  0  0  0  0  0  0  0  0  0
    8.6845  -15.4783   19.7198 O   0  0  0  0  0  0  0  0  0  0  0  0
    6.0672  -17.2939   21.4102 C   0  0  0  0  0  0  0  0  0  0  0  0
    6.6957  -16.8520   22.7164 C   0  0  1  0  0  0  0  0  0  0  0  0
    7.3364  -17.9850   23.2466 O   0  0  0  0  0  0  0  0  0  0  0  0
    7.8224  -15.8827   22.3395 C   0  0  2  0  0  0  0  0  0  0  0  0
    8.8232  -16.6709   21.6604 N   0  0  0  0  0  0  0  0  0  0  0  0
    8.3152  -15.3054   23.6074 C   0  0  0  0  0  0  0  0  0  0  0  0
    9.4182  -15.7290   24.0406 O   0  0  0  0  0  0  0  0  0  0  0  0
    7.8425  -11.9226   27.2307 C   0  0  0  0  0  0  0  0  0  0  0  0
    7.3182  -12.6304   26.0109 C   0  0  2  0  0  0  0  0  0  0  0  0
    5.8968  -13.1160   26.2054 C   0  0  0  0  0  0  0  0  0  0  0  0
    8.1530  -13.8207   25.6201 C   0  0  2  0  0  0  0  0  0  0  0  0
    7.6413  -14.3211   24.3595 N   0  0  0  0  0  0  0  0  0  0  0  0
    8.1710  -14.8732   26.6367 C   0  0  0  0  0  0  0  0  0  0  0  0
    9.0114  -14.8486   27.7349 O   0  0  0  0  0  0  0  0  0  0  0  0
    7.3902  -15.8517   26.5175 O   0  0  0  0  0  0  0  0  0  0  0  0
  2  1  1  0
  2  3  2  0
  4  2  1  0
  5  4  1  0
  6  5  1  0
  6  7  1  6
  8  6  1  0
  8 14  1  0
  9  8  2  0
 11 10  1  6
 12 11  1  0
 13 14  1  1
 13 11  1  0
 15 13  1  0
 16 15  2  0
 18 20  1  0
 18 17  1  1
 19 18  1  0
 20 21  1  6
 21 15  1  0
 22 23  1  0
 22 20  1  0
 24 22  2  0
M  END
$$$$
