QTV.pdb
     RDKit          3D

 24 23  0  0  1  0  0  0  0  0999 V2000
    8.3235  -12.7227   18.0208 N   0  0  0  0  0  0  0  0  0  0  0  0
    8.7647  -13.8821   17.3435 C   0  0  0  0  0  0  0  0  0  0  0  0
    9.2777  -13.7469   16.2115 O   0  0  0  0  0  0  0  0  0  0  0  0
    8.5916  -15.1911   18.0192 C   0  0  0  0  0  0  0  0  0  0  0  0
    7.9643  -15.0350   19.3891 C   0  0  0  0  0  0  0  0  0  0  0  0
    7.9050  -16.3883   20.0224 C   0  0  2  0  0  0  0  0  0  0  0  0
    7.1804  -17.2732   19.1449 N   0  0  0  0  0  0  0  0  0  0  0  0
    7.2543  -16.3845   21.3530 C   0  0  0  0  0  0  0  0  0  0  0  0
    5.9928  -16.3373   21.4576 O   0  0  0  0  0  0  0  0  0  0  0  0
    6.8823  -17.6737   25.8678 C   0  0  0  0  0  0  0  0  0  0  0  0
    7.5947  -17.7272   24.5314 C   0  0  1  0  0  0  0  0  0  0  0  0
    6.8767  -18.6404   23.7403 O   0  0  0  0  0  0  0  0  0  0  0  0
    7.3755  -16.3577   23.8777 C   0  0  2  0  0  0  0  0  0  0  0  0
    7.9829  -16.4322   22.5702 N   0  0  0  0  0  0  0  0  0  0  0  0
    8.0333  -15.3680   24.7561 C   0  0  0  0  0  0  0  0  0  0  0  0
    9.2905  -15.3204   24.7268 O   0  0  0  0  0  0  0  0  0  0  0  0
    5.8906  -12.6978   27.4166 C   0  0  0  0  0  0  0  0  0  0  0  0
    7.1506  -12.3504   26.6715 C   0  0  2  0  0  0  0  0  0  0  0  0
    6.8573  -11.7606   25.3076 C   0  0  0  0  0  0  0  0  0  0  0  0
    8.0556  -13.5358   26.4663 C   0  0  2  0  0  0  0  0  0  0  0  0
    7.3562  -14.4805   25.6178 N   0  0  0  0  0  0  0  0  0  0  0  0
    8.4780  -14.1645   27.7184 C   0  0  0  0  0  0  0  0  0  0  0  0
    9.3951  -13.5906   28.5801 O   0  0  0  0  0  0  0  0  0  0  0  0
    7.9914  -15.2793   28.0374 O   0  0  0  0  0  0  0  0  0  0  0  0
  2  1  1  0
  2  3  2  0
  4  2  1  0
  5  4  1  0
  6  5  1  0
  6  7  1  6
  8  6  1  0
  8 14  1  0
  9  8  2  0
 11 10  1  1
 12 11  1  0
 13 14  1  6
 13 11  1  0
 15 13  1  0
 16 15  2  0
 18 20  1  0
 18 17  1  6
 19 18  1  0
 20 21  1  6
 21 15  1  0
 22 23  1  0
 22 20  1  0
 24 22  2  0
M  END
$$$$
