QTV.pdb
     RDKit          3D

 24 23  0  0  1  0  0  0  0  0999 V2000
   11.9676  -13.8832   20.2633 N   0  0  0  0  0  0  0  0  0  0  0  0
   11.4542  -14.2358   18.9945 C   0  0  0  0  0  0  0  0  0  0  0  0
   11.9105  -15.2561   18.4343 O   0  0  0  0  0  0  0  0  0  0  0  0
   10.4032  -13.3716   18.4043 C   0  0  0  0  0  0  0  0  0  0  0  0
    9.1683  -13.3152   19.2797 C   0  0  0  0  0  0  0  0  0  0  0  0
    8.5809  -14.6893   19.3320 C   0  0  2  0  0  0  0  0  0  0  0  0
    7.7276  -14.8665   18.1838 N   0  0  0  0  0  0  0  0  0  0  0  0
    7.7977  -14.9452   20.5628 C   0  0  0  0  0  0  0  0  0  0  0  0
    6.5574  -14.6912   20.6065 O   0  0  0  0  0  0  0  0  0  0  0  0
    7.0046  -17.8908   22.1631 C   0  0  0  0  0  0  0  0  0  0  0  0
    7.7343  -17.1820   23.2862 C   0  0  1  0  0  0  0  0  0  0  0  0
    9.0929  -17.5113   23.1407 O   0  0  0  0  0  0  0  0  0  0  0  0
    7.6402  -15.6835   22.9752 C   0  0  2  0  0  0  0  0  0  0  0  0
    8.3703  -15.4791   21.7468 N   0  0  0  0  0  0  0  0  0  0  0  0
    8.2497  -14.9818   24.1240 C   0  0  0  0  0  0  0  0  0  0  0  0
    9.4848  -14.7479   24.0644 O   0  0  0  0  0  0  0  0  0  0  0  0
    5.9205  -13.4370   27.3287 C   0  0  0  0  0  0  0  0  0  0  0  0
    7.2259  -12.8332   26.8872 C   0  0  2  0  0  0  0  0  0  0  0  0
    7.0309  -11.7942   25.8025 C   0  0  0  0  0  0  0  0  0  0  0  0
    8.1974  -13.8569   26.3632 C   0  0  2  0  0  0  0  0  0  0  0  0
    7.5497  -14.5593   25.2730 N   0  0  0  0  0  0  0  0  0  0  0  0
    8.6628  -14.7908   27.3892 C   0  0  0  0  0  0  0  0  0  0  0  0
    8.4345  -16.1537   27.3298 O   0  0  0  0  0  0  0  0  0  0  0  0
    9.3017  -14.3457   28.3766 O   0  0  0  0  0  0  0  0  0  0  0  0
  2  1  1  0
  2  3  2  0
  4  2  1  0
  5  4  1  0
  6  5  1  0
  6  7  1  6
  8  6  1  0
  8 14  1  0
  9  8  2  0
 11 10  1  6
 12 11  1  0
 13 14  1  6
 13 11  1  0
 15 13  1  0
 16 15  2  0
 18 20  1  0
 18 17  1  6
 19 18  1  0
 20 21  1  6
 21 15  1  0
 22 23  1  0
 22 20  1  0
 24 22  2  0
M  END
$$$$
