QTV.pdb
     RDKit          3D

 24 23  0  0  1  0  0  0  0  0999 V2000
   14.5577  -16.7496   19.8331 N   0  0  0  0  0  0  0  0  0  0  0  0
   14.2014  -18.1129   19.7228 C   0  0  0  0  0  0  0  0  0  0  0  0
   15.0917  -18.9339   19.4126 O   0  0  0  0  0  0  0  0  0  0  0  0
   12.7898  -18.4865   19.9825 C   0  0  0  0  0  0  0  0  0  0  0  0
   11.9713  -17.2970   20.4403 C   0  0  0  0  0  0  0  0  0  0  0  0
   10.5353  -17.5864   20.1402 C   0  0  2  0  0  0  0  0  0  0  0  0
   10.3847  -17.7257   18.7134 N   0  0  0  0  0  0  0  0  0  0  0  0
    9.6119  -16.5347   20.6252 C   0  0  0  0  0  0  0  0  0  0  0  0
    9.3885  -15.4982   19.9322 O   0  0  0  0  0  0  0  0  0  0  0  0
    6.1908  -16.7514   21.1426 C   0  0  0  0  0  0  0  0  0  0  0  0
    6.6580  -16.3616   22.5304 C   0  0  1  0  0  0  0  0  0  0  0  0
    6.9800  -17.5616   23.1874 O   0  0  0  0  0  0  0  0  0  0  0  0
    7.9909  -15.6281   22.3399 C   0  0  2  0  0  0  0  0  0  0  0  0
    8.9321  -16.6160   21.8686 N   0  0  0  0  0  0  0  0  0  0  0  0
    8.3555  -15.0787   23.6624 C   0  0  0  0  0  0  0  0  0  0  0  0
    9.3330  -15.6065   24.2536 O   0  0  0  0  0  0  0  0  0  0  0  0
    7.5542  -11.7462   27.2822 C   0  0  0  0  0  0  0  0  0  0  0  0
    7.2018  -12.3651   25.9569 C   0  0  2  0  0  0  0  0  0  0  0  0
    5.7358  -12.7371   25.8778 C   0  0  0  0  0  0  0  0  0  0  0  0
    7.9998  -13.6065   25.6594 C   0  0  2  0  0  0  0  0  0  0  0  0
    7.6900  -14.0131   24.3029 N   0  0  0  0  0  0  0  0  0  0  0  0
    7.7507  -14.6947   26.6056 C   0  0  0  0  0  0  0  0  0  0  0  0
    8.4675  -14.8558   27.7775 O   0  0  0  0  0  0  0  0  0  0  0  0
    6.8448  -15.5294   26.3527 O   0  0  0  0  0  0  0  0  0  0  0  0
  2  1  1  0
  2  3  2  0
  4  2  1  0
  5  4  1  0
  6  5  1  0
  6  7  1  6
  8  6  1  0
  8 14  1  0
  9  8  2  0
 11 10  1  6
 12 11  1  0
 13 14  1  1
 13 11  1  0
 15 13  1  0
 16 15  2  0
 18 20  1  0
 18 17  1  1
 19 18  1  0
 20 21  1  6
 21 15  1  0
 22 23  1  0
 22 20  1  0
 24 22  2  0
M  END
$$$$
