QTV.pdb
     RDKit          3D

 24 23  0  0  1  0  0  0  0  0999 V2000
   13.9526  -15.5899   19.8266 N   0  0  0  0  0  0  0  0  0  0  0  0
   13.5448  -14.2884   19.4556 C   0  0  0  0  0  0  0  0  0  0  0  0
   14.4251  -13.4146   19.2995 O   0  0  0  0  0  0  0  0  0  0  0  0
   12.0942  -14.0390   19.2738 C   0  0  0  0  0  0  0  0  0  0  0  0
   11.2796  -15.2994   19.4791 C   0  0  0  0  0  0  0  0  0  0  0  0
    9.8350  -14.9383   19.3431 C   0  0  2  0  0  0  0  0  0  0  0  0
    9.7187  -13.8683   18.3841 N   0  0  0  0  0  0  0  0  0  0  0  0
    9.2142  -14.5154   20.6197 C   0  0  0  0  0  0  0  0  0  0  0  0
    8.8881  -13.3067   20.8128 O   0  0  0  0  0  0  0  0  0  0  0  0
    6.1391  -15.7094   21.8915 C   0  0  0  0  0  0  0  0  0  0  0  0
    7.0830  -16.0240   23.0344 C   0  0  1  0  0  0  0  0  0  0  0  0
    7.6186  -17.2947   22.7626 O   0  0  0  0  0  0  0  0  0  0  0  0
    8.2565  -15.0467   22.8979 C   0  0  2  0  0  0  0  0  0  0  0  0
    8.9495  -15.4141   21.6860 N   0  0  0  0  0  0  0  0  0  0  0  0
    9.0882  -15.2249   24.1063 C   0  0  0  0  0  0  0  0  0  0  0  0
   10.1616  -15.8685   23.9747 O   0  0  0  0  0  0  0  0  0  0  0  0
    7.8462  -13.8823   27.9804 C   0  0  0  0  0  0  0  0  0  0  0  0
    9.2934  -13.9312   27.5717 C   0  0  2  0  0  0  0  0  0  0  0  0
    9.7615  -12.6143   26.9881 C   0  0  0  0  0  0  0  0  0  0  0  0
    9.5788  -15.0035   26.5542 C   0  0  2  0  0  0  0  0  0  0  0  0
    8.7657  -14.7281   25.3861 N   0  0  0  0  0  0  0  0  0  0  0  0
    9.3379  -16.3565   27.0569 C   0  0  0  0  0  0  0  0  0  0  0  0
    8.3666  -17.1934   26.5380 O   0  0  0  0  0  0  0  0  0  0  0  0
   10.0404  -16.7906   28.0053 O   0  0  0  0  0  0  0  0  0  0  0  0
  2  1  1  0
  2  3  2  0
  4  2  1  0
  5  4  1  0
  6  5  1  0
  6  7  1  6
  8  6  1  0
  8 14  1  0
  9  8  2  0
 11 10  1  6
 12 11  1  0
 13 14  1  6
 13 11  1  0
 15 13  1  0
 16 15  2  0
 18 20  1  0
 18 17  1  6
 19 18  1  0
 20 21  1  6
 21 15  1  0
 22 23  1  0
 22 20  1  0
 24 22  2  0
M  END
$$$$
