QTV.pdb
     RDKit          3D

 24 23  0  0  1  0  0  0  0  0999 V2000
   12.3587  -15.0975   20.8624 N   0  0  0  0  0  0  0  0  0  0  0  0
   12.7588  -14.6304   19.5898 C   0  0  0  0  0  0  0  0  0  0  0  0
   13.8275  -15.0658   19.1089 O   0  0  0  0  0  0  0  0  0  0  0  0
   11.8841  -13.6502   18.9016 C   0  0  0  0  0  0  0  0  0  0  0  0
   10.6503  -13.3299   19.7199 C   0  0  0  0  0  0  0  0  0  0  0  0
    9.6203  -14.3723   19.4226 C   0  0  2  0  0  0  0  0  0  0  0  0
    9.0355  -14.0846   18.1368 N   0  0  0  0  0  0  0  0  0  0  0  0
    8.5459  -14.4412   20.4398 C   0  0  0  0  0  0  0  0  0  0  0  0
    7.4962  -13.7420   20.3226 O   0  0  0  0  0  0  0  0  0  0  0  0
    6.5512  -17.1782   21.5620 C   0  0  0  0  0  0  0  0  0  0  0  0
    7.2336  -16.7485   22.8450 C   0  0  1  0  0  0  0  0  0  0  0  0
    8.4417  -17.4640   22.9054 O   0  0  0  0  0  0  0  0  0  0  0  0
    7.6349  -15.2826   22.6426 C   0  0  2  0  0  0  0  0  0  0  0  0
    8.6188  -15.2751   21.5862 N   0  0  0  0  0  0  0  0  0  0  0  0
    8.1825  -14.8196   23.9347 C   0  0  0  0  0  0  0  0  0  0  0  0
    9.4285  -14.8999   24.0920 O   0  0  0  0  0  0  0  0  0  0  0  0
    5.7127  -13.4124   27.1488 C   0  0  0  0  0  0  0  0  0  0  0  0
    7.0579  -12.8180   26.8315 C   0  0  2  0  0  0  0  0  0  0  0  0
    6.9488  -11.6499   25.8736 C   0  0  0  0  0  0  0  0  0  0  0  0
    8.0097  -13.8136   26.2238 C   0  0  2  0  0  0  0  0  0  0  0  0
    7.4126  -14.2984   24.9950 N   0  0  0  0  0  0  0  0  0  0  0  0
    8.3396  -14.9208   27.1220 C   0  0  0  0  0  0  0  0  0  0  0  0
    9.1421  -14.7741   28.2389 O   0  0  0  0  0  0  0  0  0  0  0  0
    7.8779  -16.0646   26.8776 O   0  0  0  0  0  0  0  0  0  0  0  0
  2  1  1  0
  2  3  2  0
  4  2  1  0
  5  4  1  0
  6  5  1  0
  6  7  1  6
  8  6  1  0
  8 14  1  0
  9  8  2  0
 11 10  1  6
 12 11  1  0
 13 14  1  6
 13 11  1  0
 15 13  1  0
 16 15  2  0
 18 20  1  0
 18 17  1  6
 19 18  1  0
 20 21  1  6
 21 15  1  0
 22 23  1  0
 22 20  1  0
 24 22  2  0
M  END
$$$$
