CSG.pdb
     RDKit          3D

 17 16  0  0  1  0  0  0  0  0999 V2000
   18.0101  -11.9495  -15.5801 N   0  0  0  0  0  0  0  0  0  0  0  0
   18.5561  -10.9404  -16.4312 C   0  0  1  0  0  0  0  0  0  0  0  0
   17.4528  -10.0227  -16.9112 C   0  0  0  0  0  0  0  0  0  0  0  0
   16.4009  -10.8392  -18.1418 S   0  0  0  0  0  0  0  0  0  0  0  0
   19.6515  -10.1702  -15.7736 C   0  0  0  0  0  0  0  0  0  0  0  0
   19.5295   -9.7496  -14.5950 O   0  0  0  0  0  0  0  0  0  0  0  0
   23.6285  -10.9119  -15.9893 O   0  0  0  0  0  0  0  0  0  0  0  0
   23.3255   -9.6247  -16.4135 C   0  0  0  0  0  0  0  0  0  0  0  0
   21.9828   -9.2306  -15.7904 C   0  0  2  0  0  0  0  0  0  0  0  0
   20.8795   -9.8706  -16.4303 N   0  0  0  0  0  0  0  0  0  0  0  0
   21.8480   -7.7463  -15.7555 C   0  0  0  0  0  0  0  0  0  0  0  0
   21.4843   -7.1099  -16.7782 O   0  0  0  0  0  0  0  0  0  0  0  0
   22.1158   -6.9752  -14.5909 N   0  0  0  0  0  0  0  0  0  0  0  0
   21.8434   -5.5511  -14.5437 C   0  0  0  0  0  0  0  0  0  0  0  0
   22.2668   -4.9217  -13.2983 C   0  0  0  0  0  0  0  0  0  0  0  0
   22.1576   -3.6722  -13.2006 O   0  0  0  0  0  0  0  0  0  0  0  0
   22.7838   -5.5917  -12.2045 O   0  0  0  0  0  0  0  0  0  0  0  0
  2  1  1  1
  2  3  1  0
  4  3  1  0
  5  2  1  0
  6  5  2  0
  8  7  1  0
  9  8  1  6
  9 10  1  0
 10  5  1  0
 11  9  1  0
 11 13  1  0
 12 11  2  0
 14 13  1  0
 14 15  1  0
 15 17  1  0
 16 15  2  0
M  END
$$$$
