CSG.pdb
     RDKit          3D

 17 16  0  0  1  0  0  0  0  0999 V2000
   23.7346  -12.6515  -17.6072 N   0  0  0  0  0  0  0  0  0  0  0  0
   23.9072  -11.8482  -16.4386 C   0  0  1  0  0  0  0  0  0  0  0  0
   25.3761  -11.5454  -16.2372 C   0  0  0  0  0  0  0  0  0  0  0  0
   26.3235  -13.0550  -15.9033 S   0  0  0  0  0  0  0  0  0  0  0  0
   23.0986  -10.5953  -16.4826 C   0  0  0  0  0  0  0  0  0  0  0  0
   22.9927   -9.9303  -17.5444 O   0  0  0  0  0  0  0  0  0  0  0  0
   20.1220   -9.9474  -13.7789 O   0  0  0  0  0  0  0  0  0  0  0  0
   20.0979   -9.3185  -15.0169 C   0  0  0  0  0  0  0  0  0  0  0  0
   21.5399   -8.9565  -15.3859 C   0  0  2  0  0  0  0  0  0  0  0  0
   22.4103  -10.0864  -15.3440 N   0  0  0  0  0  0  0  0  0  0  0  0
   22.0193   -7.8270  -14.5391 C   0  0  0  0  0  0  0  0  0  0  0  0
   22.8041   -8.0331  -13.5773 O   0  0  0  0  0  0  0  0  0  0  0  0
   21.6284   -6.4776  -14.7606 N   0  0  0  0  0  0  0  0  0  0  0  0
   22.0716   -5.4058  -13.8892 C   0  0  0  0  0  0  0  0  0  0  0  0
   21.5348   -4.1009  -14.2575 C   0  0  0  0  0  0  0  0  0  0  0  0
   21.8108   -3.1190  -13.5211 O   0  0  0  0  0  0  0  0  0  0  0  0
   20.7393   -3.8511  -15.3608 O   0  0  0  0  0  0  0  0  0  0  0  0
  2  1  1  6
  2  3  1  0
  4  3  1  0
  5  2  1  0
  6  5  2  0
  8  7  1  0
  9  8  1  1
  9 10  1  0
 10  5  1  0
 11  9  1  0
 11 13  1  0
 12 11  2  0
 14 13  1  0
 14 15  1  0
 15 17  1  0
 16 15  2  0
M  END
$$$$
