CSG.pdb
     RDKit          3D

 17 16  0  0  1  0  0  0  0  0999 V2000
   21.2165  -13.3736  -18.1679 N   0  0  0  0  0  0  0  0  0  0  0  0
   22.0359  -12.2034  -18.1557 C   0  0  1  0  0  0  0  0  0  0  0  0
   22.7259  -12.0470  -19.4933 C   0  0  0  0  0  0  0  0  0  0  0  0
   24.2398  -13.0414  -19.5776 S   0  0  0  0  0  0  0  0  0  0  0  0
   21.2707  -10.9744  -17.7957 C   0  0  0  0  0  0  0  0  0  0  0  0
   20.3945  -10.5082  -18.5677 O   0  0  0  0  0  0  0  0  0  0  0  0
   18.6983   -8.1757  -15.5403 O   0  0  0  0  0  0  0  0  0  0  0  0
   19.3380   -9.3887  -15.7599 C   0  0  0  0  0  0  0  0  0  0  0  0
   20.7699   -9.0872  -16.2127 C   0  0  2  0  0  0  0  0  0  0  0  0
   21.4833  -10.2681  -16.5771 N   0  0  0  0  0  0  0  0  0  0  0  0
   21.4779   -8.2817  -15.1771 C   0  0  0  0  0  0  0  0  0  0  0  0
   22.2247   -8.8374  -14.3305 O   0  0  0  0  0  0  0  0  0  0  0  0
   21.3560   -6.8678  -15.0840 N   0  0  0  0  0  0  0  0  0  0  0  0
   22.0131   -6.1166  -14.0311 C   0  0  0  0  0  0  0  0  0  0  0  0
   21.8179   -4.6756  -14.1398 C   0  0  0  0  0  0  0  0  0  0  0  0
   21.2034   -4.2366  -15.1460 O   0  0  0  0  0  0  0  0  0  0  0  0
   22.2570   -3.7421  -13.2188 O   0  0  0  0  0  0  0  0  0  0  0  0
  2  1  1  6
  2  3  1  0
  4  3  1  0
  5  2  1  0
  6  5  2  0
  8  7  1  0
  9  8  1  1
  9 10  1  0
 10  5  1  0
 11  9  1  0
 11 13  1  0
 12 11  2  0
 14 13  1  0
 14 15  1  0
 15 17  1  0
 16 15  2  0
M  END
$$$$
