CSG.pdb
     RDKit          3D

 17 16  0  0  1  0  0  0  0  0999 V2000
   20.1773  -10.0866  -15.0130 N   0  0  0  0  0  0  0  0  0  0  0  0
   20.3794   -8.8655  -15.7264 C   0  0  1  0  0  0  0  0  0  0  0  0
   19.5038   -8.8420  -16.9603 C   0  0  0  0  0  0  0  0  0  0  0  0
   20.1689   -9.9116  -18.2646 S   0  0  0  0  0  0  0  0  0  0  0  0
   20.1465   -7.6622  -14.8759 C   0  0  0  0  0  0  0  0  0  0  0  0
   19.1423   -7.5863  -14.1231 O   0  0  0  0  0  0  0  0  0  0  0  0
   22.4648   -5.5964  -12.4804 O   0  0  0  0  0  0  0  0  0  0  0  0
   22.0727   -4.7687  -13.5245 C   0  0  0  0  0  0  0  0  0  0  0  0
   20.7901   -5.3508  -14.1266 C   0  0  2  0  0  0  0  0  0  0  0  0
   21.0325   -6.5469  -14.8661 N   0  0  0  0  0  0  0  0  0  0  0  0
   20.0798   -4.3121  -14.9259 C   0  0  0  0  0  0  0  0  0  0  0  0
   20.4925   -3.9876  -16.0695 O   0  0  0  0  0  0  0  0  0  0  0  0
   18.9182   -3.6389  -14.4565 N   0  0  0  0  0  0  0  0  0  0  0  0
   18.3060   -2.5631  -15.2130 C   0  0  0  0  0  0  0  0  0  0  0  0
   17.0611   -2.0793  -14.6278 C   0  0  0  0  0  0  0  0  0  0  0  0
   16.5170   -1.0706  -15.1464 O   0  0  0  0  0  0  0  0  0  0  0  0
   16.4227   -2.6435  -13.5385 O   0  0  0  0  0  0  0  0  0  0  0  0
  2  1  1  1
  2  3  1  0
  4  3  1  0
  5  2  1  0
  6  5  2  0
  8  7  1  0
  9  8  1  6
  9 10  1  0
 10  5  1  0
 11  9  1  0
 11 13  1  0
 12 11  2  0
 14 13  1  0
 14 15  1  0
 15 17  1  0
 16 15  2  0
M  END
$$$$
