CSG.pdb
     RDKit          3D

 17 16  0  0  1  0  0  0  0  0999 V2000
   19.3246  -10.7927  -18.6011 N   0  0  0  0  0  0  0  0  0  0  0  0
   19.7739   -9.4367  -18.5939 C   0  0  1  0  0  0  0  0  0  0  0  0
   18.8661   -8.5914  -19.4606 C   0  0  0  0  0  0  0  0  0  0  0  0
   19.2136   -8.8398  -21.2228 S   0  0  0  0  0  0  0  0  0  0  0  0
   19.8786   -8.8772  -17.2149 C   0  0  0  0  0  0  0  0  0  0  0  0
   18.9038   -8.9234  -16.4221 O   0  0  0  0  0  0  0  0  0  0  0  0
   22.0839   -8.3137  -13.2331 O   0  0  0  0  0  0  0  0  0  0  0  0
   22.0798   -8.7800  -14.5413 C   0  0  0  0  0  0  0  0  0  0  0  0
   21.2290   -7.8193  -15.3777 C   0  0  2  0  0  0  0  0  0  0  0  0
   21.0684   -8.2680  -16.7227 N   0  0  0  0  0  0  0  0  0  0  0  0
   21.7804   -6.4368  -15.2925 C   0  0  0  0  0  0  0  0  0  0  0  0
   22.7698   -6.0955  -15.9910 O   0  0  0  0  0  0  0  0  0  0  0  0
   21.2349   -5.4409  -14.4362 N   0  0  0  0  0  0  0  0  0  0  0  0
   21.7692   -4.0925  -14.4027 C   0  0  0  0  0  0  0  0  0  0  0  0
   21.1063   -3.1840  -15.3309 C   0  0  0  0  0  0  0  0  0  0  0  0
   20.2150   -2.4214  -14.8764 O   0  0  0  0  0  0  0  0  0  0  0  0
   21.3794   -3.0905  -16.6834 O   0  0  0  0  0  0  0  0  0  0  0  0
  2  1  1  1
  2  3  1  0
  4  3  1  0
  5  2  1  0
  6  5  2  0
  8  7  1  0
  9  8  1  1
  9 10  1  0
 10  5  1  0
 11  9  1  0
 11 13  1  0
 12 11  2  0
 14 13  1  0
 14 15  1  0
 15 17  1  0
 16 15  2  0
M  END
$$$$
