CSG.pdb
     RDKit          3D

 17 16  0  0  1  0  0  0  0  0999 V2000
   17.0844   -9.2679  -13.2185 N   0  0  0  0  0  0  0  0  0  0  0  0
   18.2356   -9.0077  -14.0234 C   0  0  1  0  0  0  0  0  0  0  0  0
   17.9124   -9.2665  -15.4789 C   0  0  0  0  0  0  0  0  0  0  0  0
   18.0695  -11.0257  -15.8893 S   0  0  0  0  0  0  0  0  0  0  0  0
   18.7707   -7.6293  -13.8258 C   0  0  0  0  0  0  0  0  0  0  0  0
   17.9977   -6.6565  -13.6330 O   0  0  0  0  0  0  0  0  0  0  0  0
   22.5777   -4.7466  -13.0306 O   0  0  0  0  0  0  0  0  0  0  0  0
   22.1926   -6.0477  -13.3263 C   0  0  0  0  0  0  0  0  0  0  0  0
   20.7010   -6.0264  -13.6744 C   0  0  2  0  0  0  0  0  0  0  0  0
   20.1649   -7.3380  -13.8436 N   0  0  0  0  0  0  0  0  0  0  0  0
   20.4608   -5.1482  -14.8549 C   0  0  0  0  0  0  0  0  0  0  0  0
   20.6153   -5.5868  -16.0241 O   0  0  0  0  0  0  0  0  0  0  0  0
   20.0518   -3.7913  -14.7356 N   0  0  0  0  0  0  0  0  0  0  0  0
   19.9048   -2.9373  -15.8991 C   0  0  0  0  0  0  0  0  0  0  0  0
   19.3447   -1.6272  -15.5885 C   0  0  0  0  0  0  0  0  0  0  0  0
   19.2490   -0.7890  -16.5217 O   0  0  0  0  0  0  0  0  0  0  0  0
   18.9056   -1.2259  -14.3400 O   0  0  0  0  0  0  0  0  0  0  0  0
  2  1  1  1
  2  3  1  0
  4  3  1  0
  5  2  1  0
  6  5  2  0
  8  7  1  0
  9  8  1  6
  9 10  1  0
 10  5  1  0
 11  9  1  0
 11 13  1  0
 12 11  2  0
 14 13  1  0
 14 15  1  0
 15 17  1  0
 16 15  2  0
M  END
$$$$
