CSG.pdb
     RDKit          3D

 17 16  0  0  1  0  0  0  0  0999 V2000
   15.4409  -11.6603  -11.2360 N   0  0  0  0  0  0  0  0  0  0  0  0
   15.4769  -10.3592  -11.8246 C   0  0  1  0  0  0  0  0  0  0  0  0
   14.7893   -9.3654  -10.9139 C   0  0  0  0  0  0  0  0  0  0  0  0
   12.9936   -9.6163  -10.8959 S   0  0  0  0  0  0  0  0  0  0  0  0
   16.8640   -9.9198  -12.1540 C   0  0  0  0  0  0  0  0  0  0  0  0
   17.8017  -10.0638  -11.3288 O   0  0  0  0  0  0  0  0  0  0  0  0
   17.9782   -9.1393  -16.0791 O   0  0  0  0  0  0  0  0  0  0  0  0
   18.9056   -9.5990  -15.1531 C   0  0  0  0  0  0  0  0  0  0  0  0
   18.5392   -9.0050  -13.7895 C   0  0  2  0  0  0  0  0  0  0  0  0
   17.2031   -9.3215  -13.4015 N   0  0  0  0  0  0  0  0  0  0  0  0
   18.8120   -7.5393  -13.7771 C   0  0  0  0  0  0  0  0  0  0  0  0
   17.9022   -6.7141  -14.0501 O   0  0  0  0  0  0  0  0  0  0  0  0
   20.0880   -6.9954  -13.4632 N   0  0  0  0  0  0  0  0  0  0  0  0
   20.3413   -5.5683  -13.5244 C   0  0  0  0  0  0  0  0  0  0  0  0
   21.6864   -5.2003  -13.0984 C   0  0  0  0  0  0  0  0  0  0  0  0
   22.4245   -6.1029  -12.6260 O   0  0  0  0  0  0  0  0  0  0  0  0
   22.2233   -3.9279  -13.1713 O   0  0  0  0  0  0  0  0  0  0  0  0
  2  1  1  1
  2  3  1  0
  4  3  1  0
  5  2  1  0
  6  5  2  0
  8  7  1  0
  9  8  1  6
  9 10  1  0
 10  5  1  0
 11  9  1  0
 11 13  1  0
 12 11  2  0
 14 13  1  0
 14 15  1  0
 15 17  1  0
 16 15  2  0
M  END
$$$$
