CSG.pdb
     RDKit          3D

 17 16  0  0  1  0  0  0  0  0999 V2000
   16.7785  -11.5900  -16.7069 N   0  0  0  0  0  0  0  0  0  0  0  0
   17.2804  -11.4629  -15.3754 C   0  0  1  0  0  0  0  0  0  0  0  0
   18.3665  -12.4892  -15.1371 C   0  0  0  0  0  0  0  0  0  0  0  0
   17.6732  -14.1527  -14.9367 S   0  0  0  0  0  0  0  0  0  0  0  0
   17.7655  -10.0840  -15.0774 C   0  0  0  0  0  0  0  0  0  0  0  0
   18.3185   -9.3865  -15.9654 O   0  0  0  0  0  0  0  0  0  0  0  0
   17.7790   -8.3563  -11.1715 O   0  0  0  0  0  0  0  0  0  0  0  0
   17.2921   -7.6114  -12.2377 C   0  0  0  0  0  0  0  0  0  0  0  0
   17.9651   -8.1260  -13.5139 C   0  0  2  0  0  0  0  0  0  0  0  0
   17.6334   -9.4858  -13.7914 N   0  0  0  0  0  0  0  0  0  0  0  0
   19.4361   -7.8924  -13.4496 C   0  0  0  0  0  0  0  0  0  0  0  0
   20.2215   -8.8240  -13.1355 O   0  0  0  0  0  0  0  0  0  0  0  0
   20.0294   -6.6312  -13.7326 N   0  0  0  0  0  0  0  0  0  0  0  0
   21.4622   -6.4267  -13.6338 C   0  0  0  0  0  0  0  0  0  0  0  0
   21.8927   -5.1129  -14.0976 C   0  0  0  0  0  0  0  0  0  0  0  0
   21.0481   -4.3865  -14.6821 O   0  0  0  0  0  0  0  0  0  0  0  0
   23.1658   -4.5942  -13.9466 O   0  0  0  0  0  0  0  0  0  0  0  0
  2  1  1  6
  2  3  1  0
  4  3  1  0
  5  2  1  0
  6  5  2  0
  8  7  1  0
  9  8  1  1
  9 10  1  0
 10  5  1  0
 11  9  1  0
 11 13  1  0
 12 11  2  0
 14 13  1  0
 14 15  1  0
 15 17  1  0
 16 15  2  0
M  END
$$$$
