CSG.pdb
     RDKit          3D

 17 16  0  0  1  0  0  0  0  0999 V2000
   28.5514  -20.4640  -15.5002 N   0  0  0  0  0  0  0  0  0  0  0  0
   27.6758  -19.7316  -14.6413 C   0  0  1  0  0  0  0  0  0  0  0  0
   27.0567  -18.5795  -15.4025 C   0  0  0  0  0  0  0  0  0  0  0  0
   28.1875  -17.1652  -15.4977 S   0  0  0  0  0  0  0  0  0  0  0  0
   26.6283  -20.5953  -14.0230 C   0  0  0  0  0  0  0  0  0  0  0  0
   26.0043  -21.4460  -14.7070 O   0  0  0  0  0  0  0  0  0  0  0  0
   25.3184  -19.9892  -10.0518 O   0  0  0  0  0  0  0  0  0  0  0  0
   25.2999  -21.2929  -10.5302 C   0  0  0  0  0  0  0  0  0  0  0  0
   25.1961  -21.2295  -12.0572 C   0  0  2  0  0  0  0  0  0  0  0  0
   26.2787  -20.5093  -12.6448 N   0  0  0  0  0  0  0  0  0  0  0  0
   23.8629  -20.6978  -12.4603 C   0  0  0  0  0  0  0  0  0  0  0  0
   23.6933  -19.4655  -12.6502 O   0  0  0  0  0  0  0  0  0  0  0  0
   22.7263  -21.5311  -12.6509 N   0  0  0  0  0  0  0  0  0  0  0  0
   21.4455  -20.9866  -13.0606 C   0  0  0  0  0  0  0  0  0  0  0  0
   20.3702  -21.2624  -12.1151 C   0  0  0  0  0  0  0  0  0  0  0  0
   20.6489  -21.9167  -11.0774 O   0  0  0  0  0  0  0  0  0  0  0  0
   19.0557  -20.8601  -12.2665 O   0  0  0  0  0  0  0  0  0  0  0  0
  2  1  1  6
  2  3  1  0
  4  3  1  0
  5  2  1  0
  6  5  2  0
  8  7  1  0
  9  8  1  1
  9 10  1  0
 10  5  1  0
 11  9  1  0
 11 13  1  0
 12 11  2  0
 14 13  1  0
 14 15  1  0
 15 17  1  0
 16 15  2  0
M  END
$$$$
