CSG.pdb
     RDKit          3D

 17 16  0  0  1  0  0  0  0  0999 V2000
   23.6589  -11.8299  -17.6448 N   0  0  0  0  0  0  0  0  0  0  0  0
   23.9102  -10.8741  -16.6133 C   0  0  1  0  0  0  0  0  0  0  0  0
   25.3885  -10.5554  -16.5590 C   0  0  0  0  0  0  0  0  0  0  0  0
   26.3353  -11.9254  -15.8417 S   0  0  0  0  0  0  0  0  0  0  0  0
   23.0959   -9.6344  -16.7730 C   0  0  0  0  0  0  0  0  0  0  0  0
   22.9286   -9.1112  -17.9040 O   0  0  0  0  0  0  0  0  0  0  0  0
   20.0151   -8.7605  -14.3397 O   0  0  0  0  0  0  0  0  0  0  0  0
   20.1430   -8.1918  -15.6003 C   0  0  0  0  0  0  0  0  0  0  0  0
   21.6200   -7.8429  -15.8085 C   0  0  2  0  0  0  0  0  0  0  0  0
   22.4703   -8.9808  -15.6728 N   0  0  0  0  0  0  0  0  0  0  0  0
   22.0139   -6.7181  -14.9128 C   0  0  0  0  0  0  0  0  0  0  0  0
   22.8666   -6.8891  -14.0035 O   0  0  0  0  0  0  0  0  0  0  0  0
   21.4630   -5.4119  -15.0279 N   0  0  0  0  0  0  0  0  0  0  0  0
   21.8529   -4.3414  -14.1299 C   0  0  0  0  0  0  0  0  0  0  0  0
   21.2125   -3.0674  -14.4354 C   0  0  0  0  0  0  0  0  0  0  0  0
   20.5283   -2.9873  -15.4880 O   0  0  0  0  0  0  0  0  0  0  0  0
   21.2961   -1.9283  -13.6557 O   0  0  0  0  0  0  0  0  0  0  0  0
  2  1  1  6
  2  3  1  0
  4  3  1  0
  5  2  1  0
  6  5  2  0
  8  7  1  0
  9  8  1  1
  9 10  1  0
 10  5  1  0
 11  9  1  0
 11 13  1  0
 12 11  2  0
 14 13  1  0
 14 15  1  0
 15 17  1  0
 16 15  2  0
M  END
$$$$
