CSG.pdb
     RDKit          3D

 17 16  0  0  1  0  0  0  0  0999 V2000
   21.9479   -8.3198  -12.5109 N   0  0  0  0  0  0  0  0  0  0  0  0
   21.4815   -7.8896  -13.7908 C   0  0  1  0  0  0  0  0  0  0  0  0
   19.9707   -7.9620  -13.8366 C   0  0  0  0  0  0  0  0  0  0  0  0
   19.3795   -9.6505  -13.5415 S   0  0  0  0  0  0  0  0  0  0  0  0
   21.9679   -6.5250  -14.1466 C   0  0  0  0  0  0  0  0  0  0  0  0
   22.1250   -5.6434  -13.2640 O   0  0  0  0  0  0  0  0  0  0  0  0
   24.3008   -5.6698  -17.4085 O   0  0  0  0  0  0  0  0  0  0  0  0
   23.2329   -4.7888  -17.2982 C   0  0  0  0  0  0  0  0  0  0  0  0
   22.7289   -4.8431  -15.8526 C   0  0  2  0  0  0  0  0  0  0  0  0
   22.2780   -6.1459  -15.4843 N   0  0  0  0  0  0  0  0  0  0  0  0
   21.6976   -3.7904  -15.6277 C   0  0  0  0  0  0  0  0  0  0  0  0
   20.4878   -4.0081  -15.8967 O   0  0  0  0  0  0  0  0  0  0  0  0
   22.0098   -2.5043  -15.1070 N   0  0  0  0  0  0  0  0  0  0  0  0
   20.9847   -1.4984  -14.9024 C   0  0  0  0  0  0  0  0  0  0  0  0
   21.4867   -0.2782  -14.2816 C   0  0  0  0  0  0  0  0  0  0  0  0
   20.6738    0.6609  -14.0816 O   0  0  0  0  0  0  0  0  0  0  0  0
   22.7961   -0.0656  -13.8906 O   0  0  0  0  0  0  0  0  0  0  0  0
  2  1  1  1
  2  3  1  0
  4  3  1  0
  5  2  1  0
  6  5  2  0
  8  7  1  0
  9  8  1  6
  9 10  1  0
 10  5  1  0
 11  9  1  0
 11 13  1  0
 12 11  2  0
 14 13  1  0
 14 15  1  0
 15 17  1  0
 16 15  2  0
M  END
$$$$
