CSG.pdb
     RDKit          3D

 17 16  0  0  1  0  0  0  0  0999 V2000
   28.0603  -20.7540  -15.6967 N   0  0  0  0  0  0  0  0  0  0  0  0
   27.4855  -19.9871  -14.6373 C   0  0  1  0  0  0  0  0  0  0  0  0
   26.9038  -18.7044  -15.1905 C   0  0  0  0  0  0  0  0  0  0  0  0
   28.1802  -17.4330  -15.3958 S   0  0  0  0  0  0  0  0  0  0  0  0
   26.4649  -20.7543  -13.8658 C   0  0  0  0  0  0  0  0  0  0  0  0
   25.7190  -21.5919  -14.4341 O   0  0  0  0  0  0  0  0  0  0  0  0
   26.5873  -21.4673   -9.8941 O   0  0  0  0  0  0  0  0  0  0  0  0
   25.3312  -20.9786  -10.2290 C   0  0  0  0  0  0  0  0  0  0  0  0
   25.1645  -21.1165  -11.7455 C   0  0  2  0  0  0  0  0  0  0  0  0
   26.2779  -20.5867  -12.4637 N   0  0  0  0  0  0  0  0  0  0  0  0
   23.8656  -20.5248  -12.1760 C   0  0  0  0  0  0  0  0  0  0  0  0
   23.6599  -19.2872  -12.0792 O   0  0  0  0  0  0  0  0  0  0  0  0
   22.8030  -21.3044  -12.7105 N   0  0  0  0  0  0  0  0  0  0  0  0
   21.5446  -20.7019  -13.1080 C   0  0  0  0  0  0  0  0  0  0  0  0
   20.3792  -21.4926  -12.7296 C   0  0  0  0  0  0  0  0  0  0  0  0
   20.5511  -22.7113  -12.4690 O   0  0  0  0  0  0  0  0  0  0  0  0
   19.0874  -21.0086  -12.6327 O   0  0  0  0  0  0  0  0  0  0  0  0
  2  1  1  6
  2  3  1  0
  4  3  1  0
  5  2  1  0
  6  5  2  0
  8  7  1  0
  9  8  1  1
  9 10  1  0
 10  5  1  0
 11  9  1  0
 11 13  1  0
 12 11  2  0
 14 13  1  0
 14 15  1  0
 15 17  1  0
 16 15  2  0
M  END
$$$$
