CSG.pdb
     RDKit          3D

 17 16  0  0  1  0  0  0  0  0999 V2000
   15.6808   -9.6479  -10.1030 N   0  0  0  0  0  0  0  0  0  0  0  0
   16.0026   -8.6827  -11.1058 C   0  0  1  0  0  0  0  0  0  0  0  0
   15.5625   -7.3074  -10.6534 C   0  0  0  0  0  0  0  0  0  0  0  0
   13.7621   -7.1201  -10.7596 S   0  0  0  0  0  0  0  0  0  0  0  0
   17.4501   -8.6951  -11.4664 C   0  0  0  0  0  0  0  0  0  0  0  0
   18.3369   -8.7960  -10.5808 O   0  0  0  0  0  0  0  0  0  0  0  0
   19.3747  -10.5571  -14.4051 O   0  0  0  0  0  0  0  0  0  0  0  0
   19.5494   -9.1862  -14.5425 C   0  0  0  0  0  0  0  0  0  0  0  0
   19.2842   -8.5417  -13.1784 C   0  0  2  0  0  0  0  0  0  0  0  0
   17.9061   -8.5952  -12.8123 N   0  0  0  0  0  0  0  0  0  0  0  0
   19.8362   -7.1572  -13.1478 C   0  0  0  0  0  0  0  0  0  0  0  0
   19.1484   -6.1823  -13.5478 O   0  0  0  0  0  0  0  0  0  0  0  0
   21.1441   -6.8591  -12.6755 N   0  0  0  0  0  0  0  0  0  0  0  0
   21.6573   -5.5022  -12.6660 C   0  0  0  0  0  0  0  0  0  0  0  0
   22.1512   -5.0610  -13.9651 C   0  0  0  0  0  0  0  0  0  0  0  0
   22.1131   -5.8784  -14.9206 O   0  0  0  0  0  0  0  0  0  0  0  0
   22.6633   -3.8053  -14.2364 O   0  0  0  0  0  0  0  0  0  0  0  0
  2  1  1  1
  2  3  1  0
  4  3  1  0
  5  2  1  0
  6  5  2  0
  8  7  1  0
  9  8  1  6
  9 10  1  0
 10  5  1  0
 11  9  1  0
 11 13  1  0
 12 11  2  0
 14 13  1  0
 14 15  1  0
 15 17  1  0
 16 15  2  0
M  END
$$$$
