CSG.pdb
     RDKit          3D

 17 16  0  0  1  0  0  0  0  0999 V2000
   18.6112  -11.9363  -16.7545 N   0  0  0  0  0  0  0  0  0  0  0  0
   19.3455  -10.7721  -17.1369 C   0  0  1  0  0  0  0  0  0  0  0  0
   18.7293  -10.1619  -18.3769 C   0  0  0  0  0  0  0  0  0  0  0  0
   18.9160  -11.2519  -19.8139 S   0  0  0  0  0  0  0  0  0  0  0  0
   19.4441   -9.7717  -16.0346 C   0  0  0  0  0  0  0  0  0  0  0  0
   18.4437   -9.4861  -15.3285 O   0  0  0  0  0  0  0  0  0  0  0  0
   21.9259   -7.4394  -12.7488 O   0  0  0  0  0  0  0  0  0  0  0  0
   22.0134   -8.3111  -13.8264 C   0  0  0  0  0  0  0  0  0  0  0  0
   20.7685   -8.1072  -14.6954 C   0  0  2  0  0  0  0  0  0  0  0  0
   20.6563   -9.0923  -15.7216 N   0  0  0  0  0  0  0  0  0  0  0  0
   20.7343   -6.7144  -15.2262 C   0  0  0  0  0  0  0  0  0  0  0  0
   21.3195   -6.4219  -16.3010 O   0  0  0  0  0  0  0  0  0  0  0  0
   20.0538   -5.6545  -14.5659 N   0  0  0  0  0  0  0  0  0  0  0  0
   19.8859   -4.3552  -15.1889 C   0  0  0  0  0  0  0  0  0  0  0  0
   21.1110   -3.5649  -15.2189 C   0  0  0  0  0  0  0  0  0  0  0  0
   22.0490   -3.8992  -14.4501 O   0  0  0  0  0  0  0  0  0  0  0  0
   21.3293   -2.4671  -16.0311 O   0  0  0  0  0  0  0  0  0  0  0  0
  2  1  1  1
  2  3  1  0
  4  3  1  0
  5  2  1  0
  6  5  2  0
  8  7  1  0
  9  8  1  6
  9 10  1  0
 10  5  1  0
 11  9  1  0
 11 13  1  0
 12 11  2  0
 14 13  1  0
 14 15  1  0
 15 17  1  0
 16 15  2  0
M  END
$$$$
