CSG.pdb
     RDKit          3D

 17 16  0  0  1  0  0  0  0  0999 V2000
   19.4365  -13.2388  -16.2984 N   0  0  0  0  0  0  0  0  0  0  0  0
   19.2343  -11.8637  -16.6287 C   0  0  1  0  0  0  0  0  0  0  0  0
   17.8254  -11.4505  -16.2626 C   0  0  0  0  0  0  0  0  0  0  0  0
   16.6105  -12.1491  -17.4132 S   0  0  0  0  0  0  0  0  0  0  0  0
   20.2427  -10.9690  -15.9899 C   0  0  0  0  0  0  0  0  0  0  0  0
   20.5401  -11.0927  -14.7745 O   0  0  0  0  0  0  0  0  0  0  0  0
   23.6492  -10.5982  -16.8831 O   0  0  0  0  0  0  0  0  0  0  0  0
   23.2716   -9.2620  -16.9117 C   0  0  0  0  0  0  0  0  0  0  0  0
   21.9518   -9.1323  -16.1450 C   0  0  2  0  0  0  0  0  0  0  0  0
   20.9171   -9.9389  -16.7063 N   0  0  0  0  0  0  0  0  0  0  0  0
   21.5648   -7.6974  -16.0265 C   0  0  0  0  0  0  0  0  0  0  0  0
   20.9632   -7.1146  -16.9654 O   0  0  0  0  0  0  0  0  0  0  0  0
   21.8452   -6.9164  -14.8715 N   0  0  0  0  0  0  0  0  0  0  0  0
   21.5532   -5.4961  -14.8259 C   0  0  0  0  0  0  0  0  0  0  0  0
   21.9997   -4.8525  -13.5960 C   0  0  0  0  0  0  0  0  0  0  0  0
   22.4254   -5.5854  -12.6663 O   0  0  0  0  0  0  0  0  0  0  0  0
   21.9937   -3.4891  -13.3646 O   0  0  0  0  0  0  0  0  0  0  0  0
  2  1  1  1
  2  3  1  0
  4  3  1  0
  5  2  1  0
  6  5  2  0
  8  7  1  0
  9  8  1  6
  9 10  1  0
 10  5  1  0
 11  9  1  0
 11 13  1  0
 12 11  2  0
 14 13  1  0
 14 15  1  0
 15 17  1  0
 16 15  2  0
M  END
$$$$
