FMV.pdb
     RDKit          3D

 27 27  0  0  1  0  0  0  0  0999 V2000
    6.4879  -19.8414   22.0399 N   0  0  0  0  0  0  0  0  0  0  0  0
    6.4919  -18.7129   22.9316 C   0  0  1  0  0  0  0  0  0  0  0  0
    6.3983  -19.2367   24.3486 C   0  0  0  0  0  0  0  0  0  0  0  0
    6.5192  -18.1622   25.3480 C   0  0  0  0  0  0  0  0  0  0  0  0
    5.6927  -17.0782   25.2675 C   0  0  0  0  0  0  0  0  0  0  0  0
    5.8214  -16.0701   26.2213 C   0  0  0  0  0  0  0  0  0  0  0  0
    6.7468  -16.1219   27.2408 C   0  0  0  0  0  0  0  0  0  0  0  0
    7.5624  -17.2382   27.2832 C   0  0  0  0  0  0  0  0  0  0  0  0
    7.4503  -18.2538   26.3422 C   0  0  0  0  0  0  0  0  0  0  0  0
    7.7674  -17.9521   22.8301 C   0  0  0  0  0  0  0  0  0  0  0  0
    8.8608  -18.6123   22.8915 O   0  0  0  0  0  0  0  0  0  0  0  0
    7.9042  -11.9425   20.4768 C   0  0  0  0  0  0  0  0  0  0  0  0
    7.5604  -13.3549   19.3752 S   0  0  0  0  0  0  0  0  0  0  0  0
    7.7402  -14.8737   20.3875 C   0  0  0  0  0  0  0  0  0  0  0  0
    8.6766  -14.6164   21.5302 C   0  0  0  0  0  0  0  0  0  0  0  0
    8.9786  -15.8099   22.3899 C   0  0  2  0  0  0  0  0  0  0  0  0
    7.7550  -16.5527   22.6721 N   0  0  0  0  0  0  0  0  0  0  0  0
    9.6486  -15.3951   23.6250 C   0  0  0  0  0  0  0  0  0  0  0  0
   10.8526  -15.0479   23.5876 O   0  0  0  0  0  0  0  0  0  0  0  0
    9.2859  -13.0617   27.8119 C   0  0  0  0  0  0  0  0  0  0  0  0
    8.5823  -13.7802   26.6882 C   0  0  1  0  0  0  0  0  0  0  0  0
    8.1865  -12.7278   25.6551 C   0  0  0  0  0  0  0  0  0  0  0  0
    9.5423  -14.7304   25.9933 C   0  0  2  0  0  0  0  0  0  0  0  0
    8.9267  -15.3871   24.8723 N   0  0  0  0  0  0  0  0  0  0  0  0
   10.0175  -15.7868   26.9313 C   0  0  0  0  0  0  0  0  0  0  0  0
    9.8068  -17.1135   26.6114 O   0  0  0  0  0  0  0  0  0  0  0  0
   10.6066  -15.5052   28.0090 O   0  0  0  0  0  0  0  0  0  0  0  0
  2  1  1  6
  2  3  1  0
  4  3  1  0
  5  4  2  0
  6  5  1  0
  7  6  2  0
  7  8  1  0
  8  9  2  0
  9  4  1  0
 10 17  1  0
 10  2  1  0
 11 10  2  0
 13 12  1  0
 14 13  1  0
 15 14  1  0
 16 15  1  6
 16 17  1  0
 18 19  2  0
 18 16  1  0
 21 20  1  1
 21 22  1  0
 23 21  1  0
 23 24  1  6
 24 18  1  0
 25 23  1  0
 26 25  1  0
 27 25  2  0
M  END
$$$$
