FMV.pdb
     RDKit          3D

 27 27  0  0  1  0  0  0  0  0999 V2000
    8.6365  -16.1217   18.9897 N   0  0  0  0  0  0  0  0  0  0  0  0
    8.1477  -16.7898   20.1660 C   0  0  1  0  0  0  0  0  0  0  0  0
    8.5695  -18.2414   20.0881 C   0  0  0  0  0  0  0  0  0  0  0  0
    7.4449  -19.1300   19.7514 C   0  0  0  0  0  0  0  0  0  0  0  0
    6.7792  -19.7753   20.7539 C   0  0  0  0  0  0  0  0  0  0  0  0
    5.7176  -20.6132   20.4170 C   0  0  0  0  0  0  0  0  0  0  0  0
    5.3124  -20.8171   19.1160 C   0  0  0  0  0  0  0  0  0  0  0  0
    6.0153  -20.1433   18.1337 C   0  0  0  0  0  0  0  0  0  0  0  0
    7.0763  -19.3037   18.4483 C   0  0  0  0  0  0  0  0  0  0  0  0
    8.7588  -16.2225   21.3993 C   0  0  0  0  0  0  0  0  0  0  0  0
   10.0317  -16.1055   21.4333 O   0  0  0  0  0  0  0  0  0  0  0  0
    6.0394  -11.6595   25.6057 C   0  0  0  0  0  0  0  0  0  0  0  0
    6.4928  -13.1139   26.6088 S   0  0  0  0  0  0  0  0  0  0  0  0
    7.9079  -13.9200   25.7653 C   0  0  0  0  0  0  0  0  0  0  0  0
    7.4432  -14.5643   24.4935 C   0  0  0  0  0  0  0  0  0  0  0  0
    8.5225  -15.2083   23.6719 C   0  0  2  0  0  0  0  0  0  0  0  0
    7.9499  -15.8324   22.4841 N   0  0  0  0  0  0  0  0  0  0  0  0
    9.2696  -16.1778   24.4773 C   0  0  0  0  0  0  0  0  0  0  0  0
    8.7156  -17.2461   24.8283 O   0  0  0  0  0  0  0  0  0  0  0  0
   13.6329  -18.0429   25.6306 C   0  0  0  0  0  0  0  0  0  0  0  0
   12.8651  -16.8920   25.0307 C   0  0  1  0  0  0  0  0  0  0  0  0
   12.9299  -17.0462   23.5131 C   0  0  0  0  0  0  0  0  0  0  0  0
   11.3983  -16.9860   25.4139 C   0  0  2  0  0  0  0  0  0  0  0  0
   10.6310  -15.9028   24.8618 N   0  0  0  0  0  0  0  0  0  0  0  0
   11.2318  -16.9496   26.8947 C   0  0  0  0  0  0  0  0  0  0  0  0
   11.3633  -18.1207   27.6145 O   0  0  0  0  0  0  0  0  0  0  0  0
   10.9744  -15.8808   27.5103 O   0  0  0  0  0  0  0  0  0  0  0  0
  2  1  1  6
  2  3  1  0
  4  3  1  0
  5  4  2  0
  6  5  1  0
  7  6  2  0
  7  8  1  0
  8  9  2  0
  9  4  1  0
 10 17  1  0
 10  2  1  0
 11 10  2  0
 13 12  1  0
 14 13  1  0
 15 14  1  0
 16 15  1  1
 16 17  1  0
 18 19  2  0
 18 16  1  0
 21 20  1  1
 21 22  1  0
 23 21  1  0
 23 24  1  6
 24 18  1  0
 25 23  1  0
 26 25  1  0
 27 25  2  0
M  END
$$$$
