FMV.pdb
     RDKit          3D

 27 27  0  0  1  0  0  0  0  0999 V2000
    5.9981  -17.5975   26.0473 N   0  0  0  0  0  0  0  0  0  0  0  0
    6.1052  -17.1287   24.6917 C   0  0  1  0  0  0  0  0  0  0  0  0
    5.3979  -15.7935   24.6018 C   0  0  0  0  0  0  0  0  0  0  0  0
    6.0469  -14.7635   25.4298 C   0  0  0  0  0  0  0  0  0  0  0  0
    6.3217  -15.0339   26.7398 C   0  0  0  0  0  0  0  0  0  0  0  0
    6.9357  -14.0471   27.5091 C   0  0  0  0  0  0  0  0  0  0  0  0
    7.2764  -12.8116   27.0033 C   0  0  0  0  0  0  0  0  0  0  0  0
    6.9794  -12.5820   25.6721 C   0  0  0  0  0  0  0  0  0  0  0  0
    6.3678  -13.5520   24.8882 C   0  0  0  0  0  0  0  0  0  0  0  0
    7.5264  -16.8969   24.3138 C   0  0  0  0  0  0  0  0  0  0  0  0
    8.3929  -17.7531   24.7027 O   0  0  0  0  0  0  0  0  0  0  0  0
    8.9791  -11.8190   20.3828 C   0  0  0  0  0  0  0  0  0  0  0  0
    8.4369  -13.3684   19.5877 S   0  0  0  0  0  0  0  0  0  0  0  0
    8.0972  -14.5657   20.9350 C   0  0  0  0  0  0  0  0  0  0  0  0
    9.2195  -14.5457   21.9293 C   0  0  0  0  0  0  0  0  0  0  0  0
    9.2050  -15.6635   22.9317 C   0  0  2  0  0  0  0  0  0  0  0  0
    7.8895  -15.7684   23.5535 N   0  0  0  0  0  0  0  0  0  0  0  0
   10.2555  -15.4664   23.9339 C   0  0  0  0  0  0  0  0  0  0  0  0
   11.1161  -14.5721   23.7585 O   0  0  0  0  0  0  0  0  0  0  0  0
    9.1881  -14.5860   27.2724 C   0  0  0  0  0  0  0  0  0  0  0  0
   10.5861  -14.4707   26.7191 C   0  0  1  0  0  0  0  0  0  0  0  0
   11.5001  -14.0746   27.8762 C   0  0  0  0  0  0  0  0  0  0  0  0
   11.0680  -15.8257   26.2301 C   0  0  2  0  0  0  0  0  0  0  0  0
   10.2966  -16.2958   25.1117 N   0  0  0  0  0  0  0  0  0  0  0  0
   10.9678  -16.8478   27.3105 C   0  0  0  0  0  0  0  0  0  0  0  0
   11.8346  -16.7784   28.3832 O   0  0  0  0  0  0  0  0  0  0  0  0
   10.1147  -17.7743   27.2742 O   0  0  0  0  0  0  0  0  0  0  0  0
  2  1  1  1
  2  3  1  0
  4  3  1  0
  5  4  2  0
  6  5  1  0
  7  6  2  0
  7  8  1  0
  8  9  2  0
  9  4  1  0
 10 17  1  0
 10  2  1  0
 11 10  2  0
 13 12  1  0
 14 13  1  0
 15 14  1  0
 16 15  1  6
 16 17  1  0
 18 19  2  0
 18 16  1  0
 21 20  1  1
 21 22  1  0
 23 21  1  0
 23 24  1  6
 24 18  1  0
 25 23  1  0
 26 25  1  0
 27 25  2  0
M  END
$$$$
