FMV.pdb
     RDKit          3D

 27 27  0  0  1  0  0  0  0  0999 V2000
    5.6065  -18.0714   25.6339 N   0  0  0  0  0  0  0  0  0  0  0  0
    6.0314  -16.7151   25.4130 C   0  0  1  0  0  0  0  0  0  0  0  0
    6.7311  -16.2348   26.6664 C   0  0  0  0  0  0  0  0  0  0  0  0
    6.9716  -14.7823   26.6471 C   0  0  0  0  0  0  0  0  0  0  0  0
    8.2507  -14.3150   26.7476 C   0  0  0  0  0  0  0  0  0  0  0  0
    8.4600  -12.9371   26.7283 C   0  0  0  0  0  0  0  0  0  0  0  0
    7.4311  -12.0282   26.6122 C   0  0  0  0  0  0  0  0  0  0  0  0
    6.1526  -12.5466   26.5131 C   0  0  0  0  0  0  0  0  0  0  0  0
    5.9225  -13.9164   26.5303 C   0  0  0  0  0  0  0  0  0  0  0  0
    7.0198  -16.6356   24.3027 C   0  0  0  0  0  0  0  0  0  0  0  0
    7.8696  -17.5848   24.1931 O   0  0  0  0  0  0  0  0  0  0  0  0
    7.7002  -13.2433   17.6238 C   0  0  0  0  0  0  0  0  0  0  0  0
    7.9844  -12.6185   19.3137 S   0  0  0  0  0  0  0  0  0  0  0  0
    8.5864  -14.0362   20.3095 C   0  0  0  0  0  0  0  0  0  0  0  0
    7.7604  -14.1722   21.5537 C   0  0  0  0  0  0  0  0  0  0  0  0
    7.9908  -15.4310   22.3391 C   0  0  2  0  0  0  0  0  0  0  0  0
    7.0076  -15.5457   23.4109 N   0  0  0  0  0  0  0  0  0  0  0  0
    9.3587  -15.4646   22.8631 C   0  0  0  0  0  0  0  0  0  0  0  0
    9.6649  -14.7365   23.8365 O   0  0  0  0  0  0  0  0  0  0  0  0
   13.4397  -17.8037   23.8097 C   0  0  0  0  0  0  0  0  0  0  0  0
   12.0126  -17.7723   23.3235 C   0  0  1  0  0  0  0  0  0  0  0  0
   11.1188  -18.0846   24.5214 C   0  0  0  0  0  0  0  0  0  0  0  0
   11.6477  -16.3713   22.8638 C   0  0  2  0  0  0  0  0  0  0  0  0
   10.3427  -16.3290   22.2621 N   0  0  0  0  0  0  0  0  0  0  0  0
   12.6263  -15.8697   21.8577 C   0  0  0  0  0  0  0  0  0  0  0  0
   13.6735  -15.0736   22.2780 O   0  0  0  0  0  0  0  0  0  0  0  0
   12.5267  -16.1506   20.6334 O   0  0  0  0  0  0  0  0  0  0  0  0
  2  1  1  1
  2  3  1  0
  4  3  1  0
  5  4  2  0
  6  5  1  0
  7  6  2  0
  7  8  1  0
  8  9  2  0
  9  4  1  0
 10 17  1  0
 10  2  1  0
 11 10  2  0
 13 12  1  0
 14 13  1  0
 15 14  1  0
 16 15  1  1
 16 17  1  0
 18 19  2  0
 18 16  1  0
 21 20  1  1
 21 22  1  0
 23 21  1  0
 23 24  1  6
 24 18  1  0
 25 23  1  0
 26 25  1  0
 27 25  2  0
M  END
$$$$
