FMV.pdb
     RDKit          3D

 27 27  0  0  1  0  0  0  0  0999 V2000
    6.8671  -16.0185   25.7760 N   0  0  0  0  0  0  0  0  0  0  0  0
    6.1775  -16.5266   24.6206 C   0  0  1  0  0  0  0  0  0  0  0  0
    5.4245  -15.3785   23.9835 C   0  0  0  0  0  0  0  0  0  0  0  0
    5.7735  -14.0816   24.5868 C   0  0  0  0  0  0  0  0  0  0  0  0
    6.9374  -13.4668   24.2235 C   0  0  0  0  0  0  0  0  0  0  0  0
    7.2525  -12.2399   24.8051 C   0  0  0  0  0  0  0  0  0  0  0  0
    6.4392  -11.6225   25.7300 C   0  0  0  0  0  0  0  0  0  0  0  0
    5.2709  -12.2813   26.0678 C   0  0  0  0  0  0  0  0  0  0  0  0
    4.9385  -13.5046   25.4999 C   0  0  0  0  0  0  0  0  0  0  0  0
    7.1370  -17.0380   23.6036 C   0  0  0  0  0  0  0  0  0  0  0  0
    6.6934  -17.2589   22.4248 O   0  0  0  0  0  0  0  0  0  0  0  0
    8.8269  -12.2035   21.7364 C   0  0  0  0  0  0  0  0  0  0  0  0
    7.6415  -13.4899   21.2198 S   0  0  0  0  0  0  0  0  0  0  0  0
    8.3742  -15.1051   21.6869 C   0  0  0  0  0  0  0  0  0  0  0  0
    8.9148  -15.0345   23.0838 C   0  0  0  0  0  0  0  0  0  0  0  0
    9.5272  -16.3058   23.5970 C   0  0  2  0  0  0  0  0  0  0  0  0
    8.4847  -17.2660   23.9428 N   0  0  0  0  0  0  0  0  0  0  0  0
   10.3992  -16.0287   24.7413 C   0  0  0  0  0  0  0  0  0  0  0  0
   11.3379  -15.2072   24.6176 O   0  0  0  0  0  0  0  0  0  0  0  0
   11.3231  -15.5290   29.3840 C   0  0  0  0  0  0  0  0  0  0  0  0
   10.4088  -15.6257   28.1888 C   0  0  1  0  0  0  0  0  0  0  0  0
   10.2008  -14.2079   27.6616 C   0  0  0  0  0  0  0  0  0  0  0  0
   11.0846  -16.4074   27.0755 C   0  0  2  0  0  0  0  0  0  0  0  0
   10.1773  -16.6971   25.9987 N   0  0  0  0  0  0  0  0  0  0  0  0
   11.6142  -17.7053   27.5825 C   0  0  0  0  0  0  0  0  0  0  0  0
   12.7219  -17.7027   28.4069 O   0  0  0  0  0  0  0  0  0  0  0  0
   11.0807  -18.8062   27.2808 O   0  0  0  0  0  0  0  0  0  0  0  0
  2  1  1  1
  2  3  1  0
  4  3  1  0
  5  4  2  0
  6  5  1  0
  7  6  2  0
  7  8  1  0
  8  9  2  0
  9  4  1  0
 10 17  1  0
 10  2  1  0
 11 10  2  0
 13 12  1  0
 14 13  1  0
 15 14  1  0
 16 15  1  1
 16 17  1  0
 18 19  2  0
 18 16  1  0
 21 20  1  1
 21 22  1  0
 23 21  1  0
 23 24  1  6
 24 18  1  0
 25 23  1  0
 26 25  1  0
 27 25  2  0
M  END
$$$$
