MWN.pdb
     RDKit          3D

 31 32  0  0  1  0  0  0  0  0999 V2000
    6.7741  -11.8430   20.1792 C   0  0  0  0  0  0  0  0  0  0  0  0
    8.3225  -12.5993   19.6164 S   0  0  0  0  0  0  0  0  0  0  0  0
    8.3911  -14.2815   20.2983 C   0  0  0  0  0  0  0  0  0  0  0  0
    9.5656  -15.0533   19.7449 C   0  0  0  0  0  0  0  0  0  0  0  0
    9.5760  -16.4148   20.4153 C   0  0  2  0  0  0  0  0  0  0  0  0
    8.3090  -17.0597   20.1380 N   0  0  0  0  0  0  0  0  0  0  0  0
    9.8441  -16.2858   21.8758 C   0  0  0  0  0  0  0  0  0  0  0  0
   10.9111  -15.6995   22.1861 O   0  0  0  0  0  0  0  0  0  0  0  0
    9.0064  -16.7621   22.8985 N   0  0  0  0  0  0  0  0  0  0  0  0
    9.3427  -16.4701   24.3133 C   0  0  1  0  0  0  0  0  0  0  0  0
    8.0329  -16.4353   25.0242 C   0  0  0  0  0  0  0  0  0  0  0  0
    7.2995  -15.1691   24.9339 C   0  0  0  0  0  0  0  0  0  0  0  0
    6.2763  -14.8906   24.0414 C   0  0  0  0  0  0  0  0  0  0  0  0
    5.8545  -13.6245   24.2299 N   0  0  0  0  0  0  0  0  0  0  0  0
    6.5632  -13.0516   25.2180 C   0  0  0  0  0  0  0  0  0  0  0  0
    6.4987  -11.7809   25.7679 C   0  0  0  0  0  0  0  0  0  0  0  0
    7.3541  -11.4477   26.7878 C   0  0  0  0  0  0  0  0  0  0  0  0
    8.2664  -12.4018   27.2423 C   0  0  0  0  0  0  0  0  0  0  0  0
    8.3179  -13.6642   26.6834 C   0  0  0  0  0  0  0  0  0  0  0  0
    7.4539  -14.0000   25.6537 C   0  0  0  0  0  0  0  0  0  0  0  0
   10.3382  -17.4145   24.7857 C   0  0  0  0  0  0  0  0  0  0  0  0
   10.1480  -18.6522   24.6320 O   0  0  0  0  0  0  0  0  0  0  0  0
   13.9392  -18.2179   23.7023 N   0  0  0  0  0  0  0  0  0  0  0  0
   14.5448  -17.4837   24.7783 C   0  0  0  0  0  0  0  0  0  0  0  0
   15.6687  -16.9826   24.5528 O   0  0  0  0  0  0  0  0  0  0  0  0
   13.8044  -17.3857   26.0312 C   0  0  0  0  0  0  0  0  0  0  0  0
   12.4527  -18.0890   25.9466 C   0  0  2  0  0  0  0  0  0  0  0  0
   11.5435  -17.0362   25.4198 N   0  0  0  0  0  0  0  0  0  0  0  0
   12.0239  -18.3939   27.3200 C   0  0  0  0  0  0  0  0  0  0  0  0
   11.0948  -17.7871   27.9017 O   0  0  0  0  0  0  0  0  0  0  0  0
   12.6457  -19.3895   28.0393 O   0  0  0  0  0  0  0  0  0  0  0  0
  1  2  1  0
  3  2  1  0
  4  3  1  0
  5  4  1  0
  5  6  1  1
  7  5  1  0
  8  7  2  0
  9  7  1  0
 10  9  1  0
 10 11  1  1
 11 12  1  0
 12 20  1  0
 12 13  2  0
 13 14  1  0
 15 14  1  0
 15 16  2  0
 17 16  1  0
 18 17  2  0
 19 20  2  0
 19 18  1  0
 20 15  1  0
 21 28  1  0
 21 10  1  0
 22 21  2  0
 23 24  1  0
 24 25  2  0
 26 24  1  0
 27 26  1  1
 27 28  1  0
 29 31  1  0
 29 27  1  0
 30 29  2  0
M  END
$$$$
