MWN.pdb
     RDKit          3D

 31 32  0  0  1  0  0  0  0  0999 V2000
    6.0759  -12.1647   25.9603 C   0  0  0  0  0  0  0  0  0  0  0  0
    6.1862  -13.9738   25.9266 S   0  0  0  0  0  0  0  0  0  0  0  0
    6.2713  -14.4862   24.1861 C   0  0  0  0  0  0  0  0  0  0  0  0
    7.4961  -13.9232   23.5048 C   0  0  0  0  0  0  0  0  0  0  0  0
    8.2473  -15.0844   22.8801 C   0  0  2  0  0  0  0  0  0  0  0  0
    7.3630  -16.2315   22.8617 N   0  0  0  0  0  0  0  0  0  0  0  0
    9.5163  -15.3527   23.6144 C   0  0  0  0  0  0  0  0  0  0  0  0
   10.3330  -14.3991   23.6613 O   0  0  0  0  0  0  0  0  0  0  0  0
    9.8494  -16.5661   24.2400 N   0  0  0  0  0  0  0  0  0  0  0  0
   11.1984  -16.7359   24.8328 C   0  0  1  0  0  0  0  0  0  0  0  0
   11.0102  -17.6970   25.9567 C   0  0  0  0  0  0  0  0  0  0  0  0
   10.3383  -17.1572   27.1426 C   0  0  0  0  0  0  0  0  0  0  0  0
    9.3121  -17.7746   27.8403 C   0  0  0  0  0  0  0  0  0  0  0  0
    8.9246  -16.9792   28.8570 N   0  0  0  0  0  0  0  0  0  0  0  0
    9.6590  -15.8534   28.8588 C   0  0  0  0  0  0  0  0  0  0  0  0
    9.6336  -14.7495   29.6966 C   0  0  0  0  0  0  0  0  0  0  0  0
   10.5094  -13.7172   29.4719 C   0  0  0  0  0  0  0  0  0  0  0  0
   11.4024  -13.8105   28.4029 C   0  0  0  0  0  0  0  0  0  0  0  0
   11.4150  -14.9178   27.5770 C   0  0  0  0  0  0  0  0  0  0  0  0
   10.5306  -15.9598   27.8043 C   0  0  0  0  0  0  0  0  0  0  0  0
   12.1485  -17.0932   23.7957 C   0  0  0  0  0  0  0  0  0  0  0  0
   13.3106  -17.4669   24.1145 O   0  0  0  0  0  0  0  0  0  0  0  0
   13.8564  -19.4087   19.6211 N   0  0  0  0  0  0  0  0  0  0  0  0
   12.5334  -19.7972   20.0239 C   0  0  0  0  0  0  0  0  0  0  0  0
   12.0604  -20.8213   19.4830 O   0  0  0  0  0  0  0  0  0  0  0  0
   11.8600  -18.9719   21.0203 C   0  0  0  0  0  0  0  0  0  0  0  0
   12.7277  -17.7971   21.4626 C   0  0  2  0  0  0  0  0  0  0  0  0
   11.8554  -17.0569   22.4134 N   0  0  0  0  0  0  0  0  0  0  0  0
   12.9353  -16.9324   20.2913 C   0  0  0  0  0  0  0  0  0  0  0  0
   12.0205  -16.6242   19.4925 O   0  0  0  0  0  0  0  0  0  0  0  0
   14.1809  -16.4119   20.0214 O   0  0  0  0  0  0  0  0  0  0  0  0
  1  2  1  0
  3  2  1  0
  4  3  1  0
  5  4  1  0
  5  6  1  1
  7  5  1  0
  8  7  2  0
  9  7  1  0
 10  9  1  0
 10 11  1  1
 11 12  1  0
 12 20  1  0
 12 13  2  0
 13 14  1  0
 15 14  1  0
 15 16  2  0
 17 16  1  0
 18 17  2  0
 19 20  2  0
 19 18  1  0
 20 15  1  0
 21 28  1  0
 21 10  1  0
 22 21  2  0
 23 24  1  0
 24 25  2  0
 26 24  1  0
 27 26  1  6
 27 28  1  0
 29 31  1  0
 29 27  1  0
 30 29  2  0
M  END
$$$$
