MWN.pdb
     RDKit          3D

 31 32  0  0  1  0  0  0  0  0999 V2000
    6.8411  -12.8214   17.8156 C   0  0  0  0  0  0  0  0  0  0  0  0
    7.0334  -12.9946   19.6098 S   0  0  0  0  0  0  0  0  0  0  0  0
    8.5439  -13.9580   19.9093 C   0  0  0  0  0  0  0  0  0  0  0  0
    8.8515  -14.0566   21.3848 C   0  0  0  0  0  0  0  0  0  0  0  0
    9.1528  -15.5115   21.6937 C   0  0  2  0  0  0  0  0  0  0  0  0
    7.9160  -16.2575   21.5846 N   0  0  0  0  0  0  0  0  0  0  0  0
    9.7869  -15.6493   23.0355 C   0  0  0  0  0  0  0  0  0  0  0  0
   10.9175  -15.1164   23.1633 O   0  0  0  0  0  0  0  0  0  0  0  0
    9.2200  -16.3158   24.1350 N   0  0  0  0  0  0  0  0  0  0  0  0
    9.9231  -16.2995   25.4408 C   0  0  1  0  0  0  0  0  0  0  0  0
    8.8412  -16.3541   26.4649 C   0  0  0  0  0  0  0  0  0  0  0  0
    7.6779  -15.5022   26.1997 C   0  0  0  0  0  0  0  0  0  0  0  0
    6.4555  -15.9344   25.7098 C   0  0  0  0  0  0  0  0  0  0  0  0
    5.6336  -14.8757   25.5693 N   0  0  0  0  0  0  0  0  0  0  0  0
    6.2686  -13.7536   25.9494 C   0  0  0  0  0  0  0  0  0  0  0  0
    5.8454  -12.4342   25.9859 C   0  0  0  0  0  0  0  0  0  0  0  0
    6.7110  -11.4646   26.4260 C   0  0  0  0  0  0  0  0  0  0  0  0
    7.9958  -11.8376   26.8251 C   0  0  0  0  0  0  0  0  0  0  0  0
    8.4021  -13.1573   26.7826 C   0  0  0  0  0  0  0  0  0  0  0  0
    7.5277  -14.1358   26.3382 C   0  0  0  0  0  0  0  0  0  0  0  0
   10.9284  -17.3458   25.4697 C   0  0  0  0  0  0  0  0  0  0  0  0
   11.5702  -17.5665   26.5332 O   0  0  0  0  0  0  0  0  0  0  0  0
   12.4848  -22.4040   22.6502 N   0  0  0  0  0  0  0  0  0  0  0  0
   12.5611  -21.5733   23.8196 C   0  0  0  0  0  0  0  0  0  0  0  0
   13.4311  -21.8752   24.6664 O   0  0  0  0  0  0  0  0  0  0  0  0
   11.6260  -20.4583   23.9195 C   0  0  0  0  0  0  0  0  0  0  0  0
   12.2887  -19.2141   24.5039 C   0  0  2  0  0  0  0  0  0  0  0  0
   11.2459  -18.1631   24.3610 N   0  0  0  0  0  0  0  0  0  0  0  0
   13.4057  -18.8489   23.6197 C   0  0  0  0  0  0  0  0  0  0  0  0
   13.2490  -18.3099   22.4995 O   0  0  0  0  0  0  0  0  0  0  0  0
   14.7056  -19.0917   24.0025 O   0  0  0  0  0  0  0  0  0  0  0  0
  1  2  1  0
  3  2  1  0
  4  3  1  0
  5  4  1  0
  5  6  1  1
  7  5  1  0
  8  7  2  0
  9  7  1  0
 10  9  1  0
 10 11  1  1
 11 12  1  0
 12 20  1  0
 12 13  2  0
 13 14  1  0
 15 14  1  0
 15 16  2  0
 17 16  1  0
 18 17  2  0
 19 20  2  0
 19 18  1  0
 20 15  1  0
 21 28  1  0
 21 10  1  0
 22 21  2  0
 23 24  1  0
 24 25  2  0
 26 24  1  0
 27 26  1  6
 27 28  1  0
 29 31  1  0
 29 27  1  0
 30 29  2  0
M  END
$$$$
