MWN.pdb
     RDKit          3D

 31 32  0  0  1  0  0  0  0  0999 V2000
    7.4887  -11.6798   20.3224 C   0  0  0  0  0  0  0  0  0  0  0  0
    6.9765  -12.9736   19.1605 S   0  0  0  0  0  0  0  0  0  0  0  0
    7.3940  -14.5767   19.9055 C   0  0  0  0  0  0  0  0  0  0  0  0
    8.4336  -14.4264   20.9909 C   0  0  0  0  0  0  0  0  0  0  0  0
    8.8559  -15.8203   21.4171 C   0  0  2  0  0  0  0  0  0  0  0  0
    7.6728  -16.6552   21.4523 N   0  0  0  0  0  0  0  0  0  0  0  0
    9.5681  -15.7828   22.7259 C   0  0  0  0  0  0  0  0  0  0  0  0
   10.5715  -15.0287   22.7808 O   0  0  0  0  0  0  0  0  0  0  0  0
    9.2016  -16.5132   23.8689 N   0  0  0  0  0  0  0  0  0  0  0  0
   10.0137  -16.3926   25.1042 C   0  0  1  0  0  0  0  0  0  0  0  0
    9.0265  -16.4097   26.2210 C   0  0  0  0  0  0  0  0  0  0  0  0
    7.8745  -15.5176   26.0584 C   0  0  0  0  0  0  0  0  0  0  0  0
    6.5962  -15.9083   25.6918 C   0  0  0  0  0  0  0  0  0  0  0  0
    5.8031  -14.8211   25.6186 N   0  0  0  0  0  0  0  0  0  0  0  0
    6.5113  -13.7203   25.9243 C   0  0  0  0  0  0  0  0  0  0  0  0
    6.1411  -12.3861   25.9865 C   0  0  0  0  0  0  0  0  0  0  0  0
    7.0790  -11.4457   26.3316 C   0  0  0  0  0  0  0  0  0  0  0  0
    8.3818  -11.8626   26.6107 C   0  0  0  0  0  0  0  0  0  0  0  0
    8.7347  -13.1967   26.5441 C   0  0  0  0  0  0  0  0  0  0  0  0
    7.7873  -14.1457   26.1957 C   0  0  0  0  0  0  0  0  0  0  0  0
   11.0516  -17.4069   25.1099 C   0  0  0  0  0  0  0  0  0  0  0  0
   11.7982  -17.5315   26.1192 O   0  0  0  0  0  0  0  0  0  0  0  0
   10.1096  -20.6881   21.6338 N   0  0  0  0  0  0  0  0  0  0  0  0
   10.8570  -20.8175   22.8537 C   0  0  0  0  0  0  0  0  0  0  0  0
   10.3174  -21.4681   23.7760 O   0  0  0  0  0  0  0  0  0  0  0  0
   12.1700  -20.1848   22.9128 C   0  0  0  0  0  0  0  0  0  0  0  0
   12.3365  -19.3430   24.1747 C   0  0  2  0  0  0  0  0  0  0  0  0
   11.2898  -18.2952   24.0365 N   0  0  0  0  0  0  0  0  0  0  0  0
   13.6433  -18.6732   24.0926 C   0  0  0  0  0  0  0  0  0  0  0  0
   14.5031  -18.7278   25.0023 O   0  0  0  0  0  0  0  0  0  0  0  0
   13.9815  -17.9398   22.9777 O   0  0  0  0  0  0  0  0  0  0  0  0
  1  2  1  0
  3  2  1  0
  4  3  1  0
  5  4  1  0
  5  6  1  1
  7  5  1  0
  8  7  2  0
  9  7  1  0
 10  9  1  0
 10 11  1  1
 11 12  1  0
 12 20  1  0
 12 13  2  0
 13 14  1  0
 15 14  1  0
 15 16  2  0
 17 16  1  0
 18 17  2  0
 19 20  2  0
 19 18  1  0
 20 15  1  0
 21 28  1  0
 21 10  1  0
 22 21  2  0
 23 24  1  0
 24 25  2  0
 26 24  1  0
 27 26  1  6
 27 28  1  0
 29 31  1  0
 29 27  1  0
 30 29  2  0
M  END
$$$$
