MWN.pdb
     RDKit          3D

 31 32  0  0  1  0  0  0  0  0999 V2000
    7.5096  -12.1013   18.0678 C   0  0  0  0  0  0  0  0  0  0  0  0
    8.0839  -12.8134   19.6328 S   0  0  0  0  0  0  0  0  0  0  0  0
    6.8088  -13.9715   20.2094 C   0  0  0  0  0  0  0  0  0  0  0  0
    7.1131  -14.4795   21.5989 C   0  0  0  0  0  0  0  0  0  0  0  0
    8.2665  -15.4593   21.4861 C   0  0  2  0  0  0  0  0  0  0  0  0
    7.7163  -16.7659   21.1889 N   0  0  0  0  0  0  0  0  0  0  0  0
    9.0904  -15.4551   22.7281 C   0  0  0  0  0  0  0  0  0  0  0  0
    9.9285  -14.5241   22.8251 O   0  0  0  0  0  0  0  0  0  0  0  0
    8.9940  -16.3958   23.7675 N   0  0  0  0  0  0  0  0  0  0  0  0
    9.9155  -16.3013   24.9259 C   0  0  1  0  0  0  0  0  0  0  0  0
    9.0446  -16.4434   26.1273 C   0  0  0  0  0  0  0  0  0  0  0  0
    7.8371  -15.6119   26.1331 C   0  0  0  0  0  0  0  0  0  0  0  0
    6.5470  -16.0603   25.8972 C   0  0  0  0  0  0  0  0  0  0  0  0
    5.6958  -15.0172   25.9593 N   0  0  0  0  0  0  0  0  0  0  0  0
    6.3768  -13.8901   26.2286 C   0  0  0  0  0  0  0  0  0  0  0  0
    5.9479  -12.5816   26.3877 C   0  0  0  0  0  0  0  0  0  0  0  0
    6.8695  -11.6031   26.6636 C   0  0  0  0  0  0  0  0  0  0  0  0
    8.2156  -11.9562   26.7762 C   0  0  0  0  0  0  0  0  0  0  0  0
    8.6267  -13.2652   26.6148 C   0  0  0  0  0  0  0  0  0  0  0  0
    7.6957  -14.2527   26.3363 C   0  0  0  0  0  0  0  0  0  0  0  0
   11.0014  -17.2510   24.7676 C   0  0  0  0  0  0  0  0  0  0  0  0
   11.7854  -17.4702   25.7314 O   0  0  0  0  0  0  0  0  0  0  0  0
   13.3380  -21.7032   22.1852 N   0  0  0  0  0  0  0  0  0  0  0  0
   13.4907  -20.3244   21.8123 C   0  0  0  0  0  0  0  0  0  0  0  0
   14.5766  -20.0041   21.2801 O   0  0  0  0  0  0  0  0  0  0  0  0
   12.3765  -19.4230   22.0836 C   0  0  0  0  0  0  0  0  0  0  0  0
   12.3835  -18.9331   23.5288 C   0  0  2  0  0  0  0  0  0  0  0  0
   11.2479  -17.9736   23.5780 N   0  0  0  0  0  0  0  0  0  0  0  0
   13.6198  -18.1624   23.7306 C   0  0  0  0  0  0  0  0  0  0  0  0
   14.6094  -18.6016   24.3613 O   0  0  0  0  0  0  0  0  0  0  0  0
   13.7400  -16.8910   23.2167 O   0  0  0  0  0  0  0  0  0  0  0  0
  1  2  1  0
  3  2  1  0
  4  3  1  0
  5  4  1  0
  5  6  1  1
  7  5  1  0
  8  7  2  0
  9  7  1  0
 10  9  1  0
 10 11  1  1
 11 12  1  0
 12 20  1  0
 12 13  2  0
 13 14  1  0
 15 14  1  0
 15 16  2  0
 17 16  1  0
 18 17  2  0
 19 20  2  0
 19 18  1  0
 20 15  1  0
 21 28  1  0
 21 10  1  0
 22 21  2  0
 23 24  1  0
 24 25  2  0
 26 24  1  0
 27 26  1  6
 27 28  1  0
 29 31  1  0
 29 27  1  0
 30 29  2  0
M  END
$$$$
