MWN.pdb
     RDKit          3D

 31 32  0  0  1  0  0  0  0  0999 V2000
    7.6302  -11.8035   19.4565 C   0  0  0  0  0  0  0  0  0  0  0  0
    7.0257  -13.1265   18.3745 S   0  0  0  0  0  0  0  0  0  0  0  0
    7.5590  -14.7081   19.0910 C   0  0  0  0  0  0  0  0  0  0  0  0
    8.2623  -14.5057   20.4123 C   0  0  0  0  0  0  0  0  0  0  0  0
    8.6805  -15.8723   20.9227 C   0  0  2  0  0  0  0  0  0  0  0  0
    7.4954  -16.7009   21.0058 N   0  0  0  0  0  0  0  0  0  0  0  0
    9.3904  -15.7573   22.2283 C   0  0  0  0  0  0  0  0  0  0  0  0
   10.4150  -15.0302   22.2314 O   0  0  0  0  0  0  0  0  0  0  0  0
    9.0002  -16.3894   23.4210 N   0  0  0  0  0  0  0  0  0  0  0  0
    9.7593  -16.1281   24.6682 C   0  0  1  0  0  0  0  0  0  0  0  0
    8.7782  -16.3376   25.7708 C   0  0  0  0  0  0  0  0  0  0  0  0
    7.6051  -15.4586   25.7469 C   0  0  0  0  0  0  0  0  0  0  0  0
    6.3179  -15.8393   25.4017 C   0  0  0  0  0  0  0  0  0  0  0  0
    5.5041  -14.7672   25.4695 N   0  0  0  0  0  0  0  0  0  0  0  0
    6.2072  -13.6860   25.8484 C   0  0  0  0  0  0  0  0  0  0  0  0
    5.8180  -12.3720   26.0558 C   0  0  0  0  0  0  0  0  0  0  0  0
    6.7550  -11.4494   26.4481 C   0  0  0  0  0  0  0  0  0  0  0  0
    8.0762  -11.8635   26.6270 C   0  0  0  0  0  0  0  0  0  0  0  0
    8.4479  -13.1773   26.4161 C   0  0  0  0  0  0  0  0  0  0  0  0
    7.5014  -14.1083   26.0200 C   0  0  0  0  0  0  0  0  0  0  0  0
   10.9683  -16.9307   24.6838 C   0  0  0  0  0  0  0  0  0  0  0  0
   10.8887  -18.1831   24.5540 O   0  0  0  0  0  0  0  0  0  0  0  0
   13.9821  -16.4888   22.3544 N   0  0  0  0  0  0  0  0  0  0  0  0
   14.8506  -15.9477   23.3626 C   0  0  0  0  0  0  0  0  0  0  0  0
   15.7314  -15.1487   22.9743 O   0  0  0  0  0  0  0  0  0  0  0  0
   14.6336  -16.3722   24.7411 C   0  0  0  0  0  0  0  0  0  0  0  0
   13.4374  -17.3120   24.8625 C   0  0  2  0  0  0  0  0  0  0  0  0
   12.2674  -16.3940   24.8329 N   0  0  0  0  0  0  0  0  0  0  0  0
   13.4851  -17.9212   26.2003 C   0  0  0  0  0  0  0  0  0  0  0  0
   14.0038  -19.0384   26.4298 O   0  0  0  0  0  0  0  0  0  0  0  0
   12.9463  -17.2653   27.2841 O   0  0  0  0  0  0  0  0  0  0  0  0
  1  2  1  0
  3  2  1  0
  4  3  1  0
  5  4  1  0
  5  6  1  1
  7  5  1  0
  8  7  2  0
  9  7  1  0
 10  9  1  0
 10 11  1  1
 11 12  1  0
 12 20  1  0
 12 13  2  0
 13 14  1  0
 15 14  1  0
 15 16  2  0
 17 16  1  0
 18 17  2  0
 19 20  2  0
 19 18  1  0
 20 15  1  0
 21 28  1  0
 21 10  1  0
 22 21  2  0
 23 24  1  0
 24 25  2  0
 26 24  1  0
 27 26  1  1
 27 28  1  0
 29 31  1  0
 29 27  1  0
 30 29  2  0
M  END
$$$$
