MWN.pdb
     RDKit          3D

 31 32  0  0  1  0  0  0  0  0999 V2000
    7.3772  -12.0456   18.0819 C   0  0  0  0  0  0  0  0  0  0  0  0
    7.8715  -13.2424   16.8131 S   0  0  0  0  0  0  0  0  0  0  0  0
    8.5995  -14.6734   17.6625 C   0  0  0  0  0  0  0  0  0  0  0  0
    9.3049  -14.2606   18.9327 C   0  0  0  0  0  0  0  0  0  0  0  0
    9.7761  -15.5252   19.6268 C   0  0  2  0  0  0  0  0  0  0  0  0
    8.9928  -16.6328   19.1191 N   0  0  0  0  0  0  0  0  0  0  0  0
    9.6774  -15.3867   21.1076 C   0  0  0  0  0  0  0  0  0  0  0  0
   10.4526  -14.5480   21.6311 O   0  0  0  0  0  0  0  0  0  0  0  0
    8.7997  -16.1106   21.9323 N   0  0  0  0  0  0  0  0  0  0  0  0
    8.7613  -15.8242   23.3871 C   0  0  1  0  0  0  0  0  0  0  0  0
    7.3131  -15.7106   23.7222 C   0  0  0  0  0  0  0  0  0  0  0  0
    7.0141  -15.1923   25.0605 C   0  0  0  0  0  0  0  0  0  0  0  0
    6.5574  -15.9419   26.1332 C   0  0  0  0  0  0  0  0  0  0  0  0
    6.3693  -15.1316   27.1935 N   0  0  0  0  0  0  0  0  0  0  0  0
    6.6857  -13.8680   26.8619 C   0  0  0  0  0  0  0  0  0  0  0  0
    6.6576  -12.6967   27.6024 C   0  0  0  0  0  0  0  0  0  0  0  0
    7.0398  -11.5196   27.0096 C   0  0  0  0  0  0  0  0  0  0  0  0
    7.4468  -11.5375   25.6742 C   0  0  0  0  0  0  0  0  0  0  0  0
    7.4691  -12.7137   24.9499 C   0  0  0  0  0  0  0  0  0  0  0  0
    7.0831  -13.9018   25.5490 C   0  0  0  0  0  0  0  0  0  0  0  0
    9.5403  -16.8174   24.1032 C   0  0  0  0  0  0  0  0  0  0  0  0
    9.3305  -17.0087   25.3325 O   0  0  0  0  0  0  0  0  0  0  0  0
   12.4619  -21.7054   24.0042 N   0  0  0  0  0  0  0  0  0  0  0  0
   12.9744  -20.3648   23.9437 C   0  0  0  0  0  0  0  0  0  0  0  0
   14.1046  -20.1731   24.4447 O   0  0  0  0  0  0  0  0  0  0  0  0
   12.1409  -19.3500   23.3090 C   0  0  0  0  0  0  0  0  0  0  0  0
   11.2438  -18.6409   24.3195 C   0  0  2  0  0  0  0  0  0  0  0  0
   10.5430  -17.6131   23.5039 N   0  0  0  0  0  0  0  0  0  0  0  0
   12.1164  -17.9311   25.2669 C   0  0  0  0  0  0  0  0  0  0  0  0
   12.3873  -18.3647   26.4108 O   0  0  0  0  0  0  0  0  0  0  0  0
   12.6872  -16.7271   24.9207 O   0  0  0  0  0  0  0  0  0  0  0  0
  1  2  1  0
  3  2  1  0
  4  3  1  0
  5  4  1  0
  5  6  1  6
  7  5  1  0
  8  7  2  0
  9  7  1  0
 10  9  1  0
 10 11  1  1
 11 12  1  0
 12 20  1  0
 12 13  2  0
 13 14  1  0
 15 14  1  0
 15 16  2  0
 17 16  1  0
 18 17  2  0
 19 20  2  0
 19 18  1  0
 20 15  1  0
 21 28  1  0
 21 10  1  0
 22 21  2  0
 23 24  1  0
 24 25  2  0
 26 24  1  0
 27 26  1  6
 27 28  1  0
 29 31  1  0
 29 27  1  0
 30 29  2  0
M  END
$$$$
