MWN.pdb
     RDKit          3D

 31 32  0  0  1  0  0  0  0  0999 V2000
    8.4011  -18.0956   28.0517 C   0  0  0  0  0  0  0  0  0  0  0  0
    7.8149  -19.7302   28.5717 S   0  0  0  0  0  0  0  0  0  0  0  0
    7.3063  -20.6313   27.0789 C   0  0  0  0  0  0  0  0  0  0  0  0
    6.6043  -19.7219   26.0982 C   0  0  0  0  0  0  0  0  0  0  0  0
    7.6064  -19.3485   25.0215 C   0  0  2  0  0  0  0  0  0  0  0  0
    8.8899  -19.1370   25.6587 N   0  0  0  0  0  0  0  0  0  0  0  0
    7.1445  -18.1556   24.2566 C   0  0  0  0  0  0  0  0  0  0  0  0
    6.0527  -18.2851   23.6485 O   0  0  0  0  0  0  0  0  0  0  0  0
    7.8292  -16.9313   24.1736 N   0  0  0  0  0  0  0  0  0  0  0  0
    7.8939  -16.2172   22.8753 C   0  0  1  0  0  0  0  0  0  0  0  0
    7.1134  -14.9641   23.0822 C   0  0  0  0  0  0  0  0  0  0  0  0
    6.7891  -14.6458   24.4760 C   0  0  0  0  0  0  0  0  0  0  0  0
    6.2247  -15.5184   25.3932 C   0  0  0  0  0  0  0  0  0  0  0  0
    6.0468  -14.8772   26.5652 N   0  0  0  0  0  0  0  0  0  0  0  0
    6.4740  -13.6072   26.4581 C   0  0  0  0  0  0  0  0  0  0  0  0
    6.4985  -12.5727   27.3802 C   0  0  0  0  0  0  0  0  0  0  0  0
    6.9976  -11.3511   27.0038 C   0  0  0  0  0  0  0  0  0  0  0  0
    7.4671  -11.1867   25.6993 C   0  0  0  0  0  0  0  0  0  0  0  0
    7.4357  -12.2283   24.7922 C   0  0  0  0  0  0  0  0  0  0  0  0
    6.9318  -13.4614   25.1728 C   0  0  0  0  0  0  0  0  0  0  0  0
    9.2771  -16.0852   22.4565 C   0  0  0  0  0  0  0  0  0  0  0  0
    9.5512  -15.4691   21.3902 O   0  0  0  0  0  0  0  0  0  0  0  0
   14.3541  -14.6992   22.2710 N   0  0  0  0  0  0  0  0  0  0  0  0
   13.9214  -15.5933   23.3088 C   0  0  0  0  0  0  0  0  0  0  0  0
   14.8112  -16.2613   23.8808 O   0  0  0  0  0  0  0  0  0  0  0  0
   12.4942  -15.6458   23.6047 C   0  0  0  0  0  0  0  0  0  0  0  0
   11.7401  -16.5168   22.6039 C   0  0  2  0  0  0  0  0  0  0  0  0
   10.3722  -16.6081   23.1813 N   0  0  0  0  0  0  0  0  0  0  0  0
   12.3297  -17.8632   22.6541 C   0  0  0  0  0  0  0  0  0  0  0  0
   11.9221  -18.7650   23.4225 O   0  0  0  0  0  0  0  0  0  0  0  0
   13.3832  -18.1936   21.8318 O   0  0  0  0  0  0  0  0  0  0  0  0
  1  2  1  0
  3  2  1  0
  4  3  1  0
  5  4  1  0
  5  6  1  1
  7  5  1  0
  8  7  2  0
  9  7  1  0
 10  9  1  0
 10 11  1  1
 11 12  1  0
 12 20  1  0
 12 13  2  0
 13 14  1  0
 15 14  1  0
 15 16  2  0
 17 16  1  0
 18 17  2  0
 19 20  2  0
 19 18  1  0
 20 15  1  0
 21 28  1  0
 21 10  1  0
 22 21  2  0
 23 24  1  0
 24 25  2  0
 26 24  1  0
 27 26  1  1
 27 28  1  0
 29 31  1  0
 29 27  1  0
 30 29  2  0
M  END
$$$$
