MWN.pdb
     RDKit          3D

 31 32  0  0  1  0  0  0  0  0999 V2000
    7.6600  -11.4453   19.4868 C   0  0  0  0  0  0  0  0  0  0  0  0
    7.6684  -12.8966   18.4006 S   0  0  0  0  0  0  0  0  0  0  0  0
    7.4373  -14.3648   19.4447 C   0  0  0  0  0  0  0  0  0  0  0  0
    8.3829  -14.3583   20.6225 C   0  0  0  0  0  0  0  0  0  0  0  0
    8.6368  -15.8023   21.0141 C   0  0  2  0  0  0  0  0  0  0  0  0
    7.3815  -16.5189   20.9202 N   0  0  0  0  0  0  0  0  0  0  0  0
    9.2421  -15.8855   22.3737 C   0  0  0  0  0  0  0  0  0  0  0  0
   10.3238  -15.2656   22.5294 O   0  0  0  0  0  0  0  0  0  0  0  0
    8.6983  -16.5902   23.4609 N   0  0  0  0  0  0  0  0  0  0  0  0
    9.3990  -16.5705   24.7680 C   0  0  1  0  0  0  0  0  0  0  0  0
    8.3204  -16.7018   25.7886 C   0  0  0  0  0  0  0  0  0  0  0  0
    7.3704  -15.5869   25.8495 C   0  0  0  0  0  0  0  0  0  0  0  0
    6.0105  -15.6701   25.5953 C   0  0  0  0  0  0  0  0  0  0  0  0
    5.4589  -14.4470   25.7228 N   0  0  0  0  0  0  0  0  0  0  0  0
    6.4067  -13.5531   26.0533 C   0  0  0  0  0  0  0  0  0  0  0  0
    6.3310  -12.1896   26.2906 C   0  0  0  0  0  0  0  0  0  0  0  0
    7.4725  -11.5018   26.6176 C   0  0  0  0  0  0  0  0  0  0  0  0
    8.6795  -12.1985   26.7018 C   0  0  0  0  0  0  0  0  0  0  0  0
    8.7379  -13.5578   26.4623 C   0  0  0  0  0  0  0  0  0  0  0  0
    7.5851  -14.2517   26.1322 C   0  0  0  0  0  0  0  0  0  0  0  0
   10.4539  -17.5671   24.7740 C   0  0  0  0  0  0  0  0  0  0  0  0
   10.2213  -18.7261   24.3333 O   0  0  0  0  0  0  0  0  0  0  0  0
   13.5777  -18.0321   23.0901 N   0  0  0  0  0  0  0  0  0  0  0  0
   14.4803  -17.6546   24.1419 C   0  0  0  0  0  0  0  0  0  0  0  0
   15.5734  -17.1572   23.7916 O   0  0  0  0  0  0  0  0  0  0  0  0
   14.0493  -17.8814   25.5168 C   0  0  0  0  0  0  0  0  0  0  0  0
   12.6450  -18.4753   25.5794 C   0  0  2  0  0  0  0  0  0  0  0  0
   11.7636  -17.3241   25.2470 N   0  0  0  0  0  0  0  0  0  0  0  0
   12.3800  -18.8429   26.9785 C   0  0  0  0  0  0  0  0  0  0  0  0
   11.5737  -18.2249   27.7117 O   0  0  0  0  0  0  0  0  0  0  0  0
   13.0271  -19.9142   27.5520 O   0  0  0  0  0  0  0  0  0  0  0  0
  1  2  1  0
  3  2  1  0
  4  3  1  0
  5  4  1  0
  5  6  1  1
  7  5  1  0
  8  7  2  0
  9  7  1  0
 10  9  1  0
 10 11  1  1
 11 12  1  0
 12 20  1  0
 12 13  2  0
 13 14  1  0
 15 14  1  0
 15 16  2  0
 17 16  1  0
 18 17  2  0
 19 20  2  0
 19 18  1  0
 20 15  1  0
 21 28  1  0
 21 10  1  0
 22 21  2  0
 23 24  1  0
 24 25  2  0
 26 24  1  0
 27 26  1  1
 27 28  1  0
 29 31  1  0
 29 27  1  0
 30 29  2  0
M  END
$$$$
