MWN.pdb
     RDKit          3D

 31 32  0  0  1  0  0  0  0  0999 V2000
    7.0273  -11.6775   19.5917 C   0  0  0  0  0  0  0  0  0  0  0  0
    6.5594  -13.0154   18.4615 S   0  0  0  0  0  0  0  0  0  0  0  0
    7.1075  -14.5791   19.2056 C   0  0  0  0  0  0  0  0  0  0  0  0
    8.0723  -14.3403   20.3430 C   0  0  0  0  0  0  0  0  0  0  0  0
    8.5858  -15.6933   20.7999 C   0  0  2  0  0  0  0  0  0  0  0  0
    7.4492  -16.5811   20.9346 N   0  0  0  0  0  0  0  0  0  0  0  0
    9.3650  -15.5664   22.0641 C   0  0  0  0  0  0  0  0  0  0  0  0
   10.3413  -14.7764   22.0277 O   0  0  0  0  0  0  0  0  0  0  0  0
    9.0875  -16.2516   23.2591 N   0  0  0  0  0  0  0  0  0  0  0  0
    9.9572  -16.0392   24.4416 C   0  0  1  0  0  0  0  0  0  0  0  0
    9.1088  -16.3915   25.6157 C   0  0  0  0  0  0  0  0  0  0  0  0
    7.9340  -15.5395   25.8234 C   0  0  0  0  0  0  0  0  0  0  0  0
    6.6132  -15.9524   25.7448 C   0  0  0  0  0  0  0  0  0  0  0  0
    5.8040  -14.8984   25.9695 N   0  0  0  0  0  0  0  0  0  0  0  0
    6.5425  -13.7981   26.1949 C   0  0  0  0  0  0  0  0  0  0  0  0
    6.1713  -12.4914   26.4703 C   0  0  0  0  0  0  0  0  0  0  0  0
    7.1454  -11.5443   26.6627 C   0  0  0  0  0  0  0  0  0  0  0  0
    8.4853  -11.9267   26.5751 C   0  0  0  0  0  0  0  0  0  0  0  0
    8.8386  -13.2336   26.2998 C   0  0  0  0  0  0  0  0  0  0  0  0
    7.8547  -14.1894   26.1057 C   0  0  0  0  0  0  0  0  0  0  0  0
   11.2025  -16.7647   24.2712 C   0  0  0  0  0  0  0  0  0  0  0  0
   11.1759  -17.9891   23.9682 O   0  0  0  0  0  0  0  0  0  0  0  0
   16.6414  -16.8413   22.5807 N   0  0  0  0  0  0  0  0  0  0  0  0
   16.1147  -16.6037   23.8959 C   0  0  0  0  0  0  0  0  0  0  0  0
   16.8304  -16.9570   24.8592 O   0  0  0  0  0  0  0  0  0  0  0  0
   14.8017  -15.9763   23.9954 C   0  0  0  0  0  0  0  0  0  0  0  0
   13.6939  -17.0085   24.1864 C   0  0  2  0  0  0  0  0  0  0  0  0
   12.4808  -16.1799   24.4194 N   0  0  0  0  0  0  0  0  0  0  0  0
   13.9755  -17.7368   25.4327 C   0  0  0  0  0  0  0  0  0  0  0  0
   13.7474  -17.2663   26.5713 O   0  0  0  0  0  0  0  0  0  0  0  0
   14.5154  -19.0025   25.3933 O   0  0  0  0  0  0  0  0  0  0  0  0
  1  2  1  0
  3  2  1  0
  4  3  1  0
  5  4  1  0
  5  6  1  1
  7  5  1  0
  8  7  2  0
  9  7  1  0
 10  9  1  0
 10 11  1  1
 11 12  1  0
 12 20  1  0
 12 13  2  0
 13 14  1  0
 15 14  1  0
 15 16  2  0
 17 16  1  0
 18 17  2  0
 19 20  2  0
 19 18  1  0
 20 15  1  0
 21 28  1  0
 21 10  1  0
 22 21  2  0
 23 24  1  0
 24 25  2  0
 26 24  1  0
 27 26  1  1
 27 28  1  0
 29 31  1  0
 29 27  1  0
 30 29  2  0
M  END
$$$$
