MCC.pdb
     RDKit          3D

 21 20  0  0  1  0  0  0  0  0999 V2000
    7.0196  -11.4955   26.1837 C   0  0  0  0  0  0  0  0  0  0  0  0
    6.4711  -12.6433   27.4905 S   0  0  0  0  0  0  0  0  0  0  0  0
    5.9755  -14.2408   26.7508 C   0  0  0  0  0  0  0  0  0  0  0  0
    7.0898  -14.7053   25.8370 C   0  0  0  0  0  0  0  0  0  0  0  0
    6.7189  -16.0318   25.2425 C   0  0  2  0  0  0  0  0  0  0  0  0
    6.5879  -17.0879   26.2082 N   0  0  0  0  0  0  0  0  0  0  0  0
    7.6981  -16.4173   24.1814 C   0  0  0  0  0  0  0  0  0  0  0  0
    8.5547  -17.3200   24.3564 O   0  0  0  0  0  0  0  0  0  0  0  0
    7.7312  -15.7945   22.9057 N   0  0  0  0  0  0  0  0  0  0  0  0
    8.7611  -16.0372   21.9629 C   0  0  1  0  0  0  0  0  0  0  0  0
    8.2435  -15.5488   20.6016 C   0  0  0  0  0  0  0  0  0  0  0  0
    7.3033  -14.0099   20.8013 S   0  0  0  0  0  0  0  0  0  0  0  0
   10.0434  -15.4192   22.2194 C   0  0  0  0  0  0  0  0  0  0  0  0
   10.1697  -14.2837   22.7312 O   0  0  0  0  0  0  0  0  0  0  0  0
   11.2377  -16.1059   21.8872 N   0  0  0  0  0  0  0  0  0  0  0  0
   12.3793  -16.0934   22.7715 C   0  0  1  0  0  0  0  0  0  0  0  0
   11.9697  -16.6434   24.1388 C   0  0  0  0  0  0  0  0  0  0  0  0
   13.4238  -16.7365   25.1978 S   0  0  0  0  0  0  0  0  0  0  0  0
   13.5315  -16.8211   22.2170 C   0  0  0  0  0  0  0  0  0  0  0  0
   13.2942  -17.8991   21.3786 O   0  0  0  0  0  0  0  0  0  0  0  0
   14.7263  -16.5216   22.4596 O   0  0  0  0  0  0  0  0  0  0  0  0
  2  1  1  0
  3  2  1  0
  3  4  1  0
  4  5  1  0
  5  7  1  0
  5  6  1  1
  7  8  2  0
  9  7  1  0
  9 10  1  0
 10 13  1  0
 10 11  1  6
 12 11  1  0
 13 14  2  0
 15 13  1  0
 15 16  1  0
 16 19  1  0
 16 17  1  1
 18 17  1  0
 19 21  2  0
 19 20  1  0
M  END
$$$$
