MCC.pdb
     RDKit          3D

 21 20  0  0  1  0  0  0  0  0999 V2000
    7.0754  -10.7201   25.8173 C   0  0  0  0  0  0  0  0  0  0  0  0
    6.0551  -11.8622   26.8075 S   0  0  0  0  0  0  0  0  0  0  0  0
    6.5995  -13.5860   26.5303 C   0  0  0  0  0  0  0  0  0  0  0  0
    6.4914  -13.8843   25.0499 C   0  0  0  0  0  0  0  0  0  0  0  0
    6.9658  -15.2842   24.7933 C   0  0  2  0  0  0  0  0  0  0  0  0
    6.3786  -16.2676   25.6613 N   0  0  0  0  0  0  0  0  0  0  0  0
    8.4569  -15.3493   24.8690 C   0  0  0  0  0  0  0  0  0  0  0  0
    9.1958  -14.7934   24.0178 O   0  0  0  0  0  0  0  0  0  0  0  0
    9.1428  -16.0403   25.9026 N   0  0  0  0  0  0  0  0  0  0  0  0
   10.5553  -16.0371   26.0178 C   0  0  1  0  0  0  0  0  0  0  0  0
   10.8846  -16.3923   27.4755 C   0  0  0  0  0  0  0  0  0  0  0  0
   10.6144  -14.9553   28.5497 S   0  0  0  0  0  0  0  0  0  0  0  0
   11.2859  -16.9315   25.1470 C   0  0  0  0  0  0  0  0  0  0  0  0
   11.0665  -18.1624   25.0845 O   0  0  0  0  0  0  0  0  0  0  0  0
   12.3085  -16.4222   24.3084 N   0  0  0  0  0  0  0  0  0  0  0  0
   12.9965  -17.2727   23.3656 C   0  0  1  0  0  0  0  0  0  0  0  0
   13.0006  -16.6068   21.9886 C   0  0  0  0  0  0  0  0  0  0  0  0
   13.9517  -17.6220   20.8444 S   0  0  0  0  0  0  0  0  0  0  0  0
   14.3573  -17.6184   23.8052 C   0  0  0  0  0  0  0  0  0  0  0  0
   15.0645  -16.6966   24.5612 O   0  0  0  0  0  0  0  0  0  0  0  0
   14.9210  -18.7070   23.5343 O   0  0  0  0  0  0  0  0  0  0  0  0
  2  1  1  0
  3  2  1  0
  3  4  1  0
  4  5  1  0
  5  7  1  0
  5  6  1  1
  7  8  2  0
  9  7  1  0
  9 10  1  0
 10 13  1  0
 10 11  1  1
 12 11  1  0
 13 14  2  0
 15 13  1  0
 15 16  1  0
 16 19  1  0
 16 17  1  6
 18 17  1  0
 19 21  2  0
 19 20  1  0
M  END
$$$$
