MCC.pdb
     RDKit          3D

 21 20  0  0  1  0  0  0  0  0999 V2000
    7.8016  -11.8222   26.6493 C   0  0  0  0  0  0  0  0  0  0  0  0
    6.0240  -12.0083   26.2866 S   0  0  0  0  0  0  0  0  0  0  0  0
    5.7104  -13.6387   25.5198 C   0  0  0  0  0  0  0  0  0  0  0  0
    7.0275  -14.3799   25.4282 C   0  0  0  0  0  0  0  0  0  0  0  0
    6.8246  -15.6522   24.6594 C   0  0  2  0  0  0  0  0  0  0  0  0
    5.8646  -16.5439   25.2498 N   0  0  0  0  0  0  0  0  0  0  0  0
    8.1297  -16.3524   24.4605 C   0  0  0  0  0  0  0  0  0  0  0  0
    8.5569  -17.2154   25.2680 O   0  0  0  0  0  0  0  0  0  0  0  0
    8.9770  -16.0944   23.3506 N   0  0  0  0  0  0  0  0  0  0  0  0
   10.3344  -16.4999   23.3143 C   0  0  1  0  0  0  0  0  0  0  0  0
   10.9258  -15.9611   22.0030 C   0  0  0  0  0  0  0  0  0  0  0  0
   12.6424  -16.5169   21.8119 S   0  0  0  0  0  0  0  0  0  0  0  0
   11.1753  -16.0733   24.4111 C   0  0  0  0  0  0  0  0  0  0  0  0
   11.5267  -14.8847   24.5866 O   0  0  0  0  0  0  0  0  0  0  0  0
   11.6429  -17.0228   25.3536 N   0  0  0  0  0  0  0  0  0  0  0  0
   11.9684  -16.6369   26.7066 C   0  0  1  0  0  0  0  0  0  0  0  0
   10.7920  -15.8713   27.3143 C   0  0  0  0  0  0  0  0  0  0  0  0
   11.1943  -15.4197   29.0110 S   0  0  0  0  0  0  0  0  0  0  0  0
   12.3597  -17.7828   27.5422 C   0  0  0  0  0  0  0  0  0  0  0  0
   13.2547  -17.5724   28.5795 O   0  0  0  0  0  0  0  0  0  0  0  0
   11.9281  -18.9492   27.3706 O   0  0  0  0  0  0  0  0  0  0  0  0
  2  1  1  0
  3  2  1  0
  3  4  1  0
  4  5  1  0
  5  7  1  0
  5  6  1  1
  7  8  2  0
  9  7  1  0
  9 10  1  0
 10 13  1  0
 10 11  1  6
 12 11  1  0
 13 14  2  0
 15 13  1  0
 15 16  1  0
 16 19  1  0
 16 17  1  1
 18 17  1  0
 19 21  2  0
 19 20  1  0
M  END
$$$$
