MCC.pdb
     RDKit          3D

 21 20  0  0  1  0  0  0  0  0999 V2000
    5.9739  -12.0896   26.9919 C   0  0  0  0  0  0  0  0  0  0  0  0
    6.9363  -11.6753   25.4992 S   0  0  0  0  0  0  0  0  0  0  0  0
    6.3162  -12.6338   24.0704 C   0  0  0  0  0  0  0  0  0  0  0  0
    6.8201  -14.0556   24.1996 C   0  0  0  0  0  0  0  0  0  0  0  0
    8.2906  -14.0861   23.9043 C   0  0  2  0  0  0  0  0  0  0  0  0
    8.6108  -13.9018   22.5155 N   0  0  0  0  0  0  0  0  0  0  0  0
    8.8962  -15.3543   24.4126 C   0  0  0  0  0  0  0  0  0  0  0  0
    8.6136  -15.8256   25.5428 O   0  0  0  0  0  0  0  0  0  0  0  0
    9.8297  -16.1142   23.6593 N   0  0  0  0  0  0  0  0  0  0  0  0
   10.5178  -17.2304   24.1968 C   0  0  1  0  0  0  0  0  0  0  0  0
   11.3468  -17.8357   23.0540 C   0  0  0  0  0  0  0  0  0  0  0  0
   10.2647  -18.3223   21.6812 S   0  0  0  0  0  0  0  0  0  0  0  0
   11.3924  -16.9817   25.3216 C   0  0  0  0  0  0  0  0  0  0  0  0
   12.2927  -16.1119   25.3139 O   0  0  0  0  0  0  0  0  0  0  0  0
   11.2505  -17.7426   26.5087 N   0  0  0  0  0  0  0  0  0  0  0  0
   11.3196  -17.1200   27.8099 C   0  0  1  0  0  0  0  0  0  0  0  0
   10.2677  -16.0133   27.9009 C   0  0  0  0  0  0  0  0  0  0  0  0
   10.9747  -14.5953   28.7577 S   0  0  0  0  0  0  0  0  0  0  0  0
   11.1834  -18.0896   28.9080 C   0  0  0  0  0  0  0  0  0  0  0  0
   12.0327  -17.9808   29.9980 O   0  0  0  0  0  0  0  0  0  0  0  0
   10.3372  -19.0170   28.9170 O   0  0  0  0  0  0  0  0  0  0  0  0
  2  1  1  0
  3  2  1  0
  3  4  1  0
  4  5  1  0
  5  7  1  0
  5  6  1  6
  7  8  2  0
  9  7  1  0
  9 10  1  0
 10 13  1  0
 10 11  1  6
 12 11  1  0
 13 14  2  0
 15 13  1  0
 15 16  1  0
 16 19  1  0
 16 17  1  6
 18 17  1  0
 19 21  2  0
 19 20  1  0
M  END
$$$$
