MCC.pdb
     RDKit          3D

 21 20  0  0  1  0  0  0  0  0999 V2000
    8.0870  -11.5994   19.8457 C   0  0  0  0  0  0  0  0  0  0  0  0
    7.0880  -12.9830   19.2025 S   0  0  0  0  0  0  0  0  0  0  0  0
    7.4497  -14.5065   20.1472 C   0  0  0  0  0  0  0  0  0  0  0  0
    8.9478  -14.7252   20.1373 C   0  0  0  0  0  0  0  0  0  0  0  0
    9.2708  -15.9604   20.9251 C   0  0  2  0  0  0  0  0  0  0  0  0
    8.5117  -17.1165   20.5349 N   0  0  0  0  0  0  0  0  0  0  0  0
    9.1066  -15.7011   22.3877 C   0  0  0  0  0  0  0  0  0  0  0  0
    9.7335  -14.7874   22.9806 O   0  0  0  0  0  0  0  0  0  0  0  0
    8.2351  -16.4645   23.2087 N   0  0  0  0  0  0  0  0  0  0  0  0
    8.0214  -16.1697   24.5783 C   0  0  1  0  0  0  0  0  0  0  0  0
    7.0957  -17.2640   25.1308 C   0  0  0  0  0  0  0  0  0  0  0  0
    8.0461  -18.7649   25.4994 S   0  0  0  0  0  0  0  0  0  0  0  0
    9.1936  -16.0859   25.4214 C   0  0  0  0  0  0  0  0  0  0  0  0
   10.3026  -16.5749   25.1081 O   0  0  0  0  0  0  0  0  0  0  0  0
    9.1187  -15.4235   26.6720 N   0  0  0  0  0  0  0  0  0  0  0  0
   10.2913  -15.2434   27.4953 C   0  0  1  0  0  0  0  0  0  0  0  0
   10.2013  -13.9007   28.2223 C   0  0  0  0  0  0  0  0  0  0  0  0
    8.4711  -13.4191   28.3615 S   0  0  0  0  0  0  0  0  0  0  0  0
   10.4982  -16.3564   28.4350 C   0  0  0  0  0  0  0  0  0  0  0  0
   11.6469  -16.3650   29.2106 O   0  0  0  0  0  0  0  0  0  0  0  0
    9.6899  -17.3064   28.5777 O   0  0  0  0  0  0  0  0  0  0  0  0
  2  1  1  0
  3  2  1  0
  3  4  1  0
  4  5  1  0
  5  7  1  0
  5  6  1  6
  7  8  2  0
  9  7  1  0
  9 10  1  0
 10 13  1  0
 10 11  1  1
 12 11  1  0
 13 14  2  0
 15 13  1  0
 15 16  1  0
 16 19  1  0
 16 17  1  1
 18 17  1  0
 19 21  2  0
 19 20  1  0
M  END
$$$$
