MCC.pdb
     RDKit          3D

 21 20  0  0  1  0  0  0  0  0999 V2000
    8.3188  -17.8747   29.1168 C   0  0  0  0  0  0  0  0  0  0  0  0
    8.0601  -19.3814   28.1224 S   0  0  0  0  0  0  0  0  0  0  0  0
    7.6112  -18.9288   26.4083 C   0  0  0  0  0  0  0  0  0  0  0  0
    6.3115  -18.1533   26.4483 C   0  0  0  0  0  0  0  0  0  0  0  0
    5.9135  -17.7859   25.0492 C   0  0  2  0  0  0  0  0  0  0  0  0
    6.0893  -18.8461   24.0951 N   0  0  0  0  0  0  0  0  0  0  0  0
    6.6463  -16.5614   24.6054 C   0  0  0  0  0  0  0  0  0  0  0  0
    7.4973  -16.5882   23.6811 O   0  0  0  0  0  0  0  0  0  0  0  0
    6.4352  -15.2862   25.1933 N   0  0  0  0  0  0  0  0  0  0  0  0
    7.2260  -14.1553   24.8708 C   0  0  1  0  0  0  0  0  0  0  0  0
    6.4613  -12.9198   25.3691 C   0  0  0  0  0  0  0  0  0  0  0  0
    5.6601  -13.2743   26.9579 S   0  0  0  0  0  0  0  0  0  0  0  0
    8.5674  -14.1182   25.4103 C   0  0  0  0  0  0  0  0  0  0  0  0
    8.8725  -13.4964   26.4531 O   0  0  0  0  0  0  0  0  0  0  0  0
    9.6137  -14.8098   24.7506 N   0  0  0  0  0  0  0  0  0  0  0  0
   10.8842  -15.0393   25.3976 C   0  0  1  0  0  0  0  0  0  0  0  0
   10.6682  -15.8740   26.6611 C   0  0  0  0  0  0  0  0  0  0  0  0
   10.3454  -14.7721   28.0490 S   0  0  0  0  0  0  0  0  0  0  0  0
   11.8715  -15.6591   24.5001 C   0  0  0  0  0  0  0  0  0  0  0  0
   13.1850  -15.7641   24.9302 O   0  0  0  0  0  0  0  0  0  0  0  0
   11.5933  -16.1021   23.3588 O   0  0  0  0  0  0  0  0  0  0  0  0
  2  1  1  0
  3  2  1  0
  3  4  1  0
  4  5  1  0
  5  7  1  0
  5  6  1  6
  7  8  2  0
  9  7  1  0
  9 10  1  0
 10 13  1  0
 10 11  1  1
 12 11  1  0
 13 14  2  0
 15 13  1  0
 15 16  1  0
 16 19  1  0
 16 17  1  1
 18 17  1  0
 19 21  2  0
 19 20  1  0
M  END
$$$$
