MCC.pdb
     RDKit          3D

 21 20  0  0  1  0  0  0  0  0999 V2000
   10.2727  -14.1155   29.0577 C   0  0  0  0  0  0  0  0  0  0  0  0
   10.7754  -15.7253   29.7517 S   0  0  0  0  0  0  0  0  0  0  0  0
    9.7205  -17.0554   29.0716 C   0  0  0  0  0  0  0  0  0  0  0  0
    8.9452  -16.4921   27.8995 C   0  0  0  0  0  0  0  0  0  0  0  0
    8.0482  -17.5585   27.3437 C   0  0  2  0  0  0  0  0  0  0  0  0
    8.6743  -18.8470   27.2307 N   0  0  0  0  0  0  0  0  0  0  0  0
    7.4930  -17.1336   26.0229 C   0  0  0  0  0  0  0  0  0  0  0  0
    7.4119  -17.9200   25.0460 O   0  0  0  0  0  0  0  0  0  0  0  0
    7.0198  -15.8174   25.7776 N   0  0  0  0  0  0  0  0  0  0  0  0
    7.3055  -15.1126   24.5819 C   0  0  1  0  0  0  0  0  0  0  0  0
    6.7490  -13.6917   24.7579 C   0  0  0  0  0  0  0  0  0  0  0  0
    7.0351  -12.7135   23.2569 S   0  0  0  0  0  0  0  0  0  0  0  0
    8.6952  -15.0203   24.1917 C   0  0  0  0  0  0  0  0  0  0  0  0
    9.5623  -14.4251   24.8706 O   0  0  0  0  0  0  0  0  0  0  0  0
    9.1320  -15.6231   22.9857 N   0  0  0  0  0  0  0  0  0  0  0  0
   10.5003  -15.5009   22.5404 C   0  0  1  0  0  0  0  0  0  0  0  0
   11.4274  -16.1721   23.5551 C   0  0  0  0  0  0  0  0  0  0  0  0
   10.8377  -17.8429   23.8793 S   0  0  0  0  0  0  0  0  0  0  0  0
   10.7028  -16.0347   21.1845 C   0  0  0  0  0  0  0  0  0  0  0  0
    9.6143  -16.5674   20.5118 O   0  0  0  0  0  0  0  0  0  0  0  0
   11.8116  -16.0366   20.5954 O   0  0  0  0  0  0  0  0  0  0  0  0
  2  1  1  0
  3  2  1  0
  3  4  1  0
  4  5  1  0
  5  7  1  0
  5  6  1  6
  7  8  2  0
  9  7  1  0
  9 10  1  0
 10 13  1  0
 10 11  1  1
 12 11  1  0
 13 14  2  0
 15 13  1  0
 15 16  1  0
 16 19  1  0
 16 17  1  1
 18 17  1  0
 19 21  2  0
 19 20  1  0
M  END
$$$$
