MCC.pdb
     RDKit          3D

 21 20  0  0  1  0  0  0  0  0999 V2000
    5.6813  -12.2211   26.5484 C   0  0  0  0  0  0  0  0  0  0  0  0
    7.3175  -12.8424   27.0609 S   0  0  0  0  0  0  0  0  0  0  0  0
    7.7847  -14.2865   26.0407 C   0  0  0  0  0  0  0  0  0  0  0  0
    6.9892  -15.4821   26.5201 C   0  0  0  0  0  0  0  0  0  0  0  0
    6.3892  -16.1817   25.3362 C   0  0  2  0  0  0  0  0  0  0  0  0
    5.5538  -17.2991   25.6804 N   0  0  0  0  0  0  0  0  0  0  0  0
    7.4616  -16.6084   24.3869 C   0  0  0  0  0  0  0  0  0  0  0  0
    7.5813  -17.7989   24.0026 O   0  0  0  0  0  0  0  0  0  0  0  0
    8.4177  -15.7041   23.8535 N   0  0  0  0  0  0  0  0  0  0  0  0
    9.2396  -16.0264   22.7449 C   0  0  1  0  0  0  0  0  0  0  0  0
    8.3125  -16.1669   21.5283 C   0  0  0  0  0  0  0  0  0  0  0  0
    7.3638  -14.6402   21.2807 S   0  0  0  0  0  0  0  0  0  0  0  0
   10.2945  -15.0925   22.4177 C   0  0  0  0  0  0  0  0  0  0  0  0
   10.1637  -13.8503   22.5005 O   0  0  0  0  0  0  0  0  0  0  0  0
   11.5528  -15.5737   21.9780 N   0  0  0  0  0  0  0  0  0  0  0  0
   12.6020  -15.8936   22.9174 C   0  0  1  0  0  0  0  0  0  0  0  0
   12.0745  -16.8928   23.9484 C   0  0  0  0  0  0  0  0  0  0  0  0
   13.2341  -16.9907   25.3232 S   0  0  0  0  0  0  0  0  0  0  0  0
   13.8203  -16.3876   22.2570 C   0  0  0  0  0  0  0  0  0  0  0  0
   15.0078  -15.7013   22.4567 O   0  0  0  0  0  0  0  0  0  0  0  0
   13.8490  -17.4018   21.5176 O   0  0  0  0  0  0  0  0  0  0  0  0
  2  1  1  0
  3  2  1  0
  3  4  1  0
  4  5  1  0
  5  7  1  0
  5  6  1  1
  7  8  2  0
  9  7  1  0
  9 10  1  0
 10 13  1  0
 10 11  1  6
 12 11  1  0
 13 14  2  0
 15 13  1  0
 15 16  1  0
 16 19  1  0
 16 17  1  1
 18 17  1  0
 19 21  2  0
 19 20  1  0
M  END
$$$$
