MCC.pdb
     RDKit          3D

 21 20  0  0  1  0  0  0  0  0999 V2000
    7.6989  -11.7452   27.6250 C   0  0  0  0  0  0  0  0  0  0  0  0
    6.4587  -12.2584   26.3902 S   0  0  0  0  0  0  0  0  0  0  0  0
    5.9214  -13.9749   26.7209 C   0  0  0  0  0  0  0  0  0  0  0  0
    6.0414  -14.7646   25.4347 C   0  0  0  0  0  0  0  0  0  0  0  0
    7.4848  -15.0930   25.1908 C   0  0  2  0  0  0  0  0  0  0  0  0
    8.3720  -13.9729   25.3434 N   0  0  0  0  0  0  0  0  0  0  0  0
    7.6559  -15.7105   23.8407 C   0  0  0  0  0  0  0  0  0  0  0  0
    7.1131  -16.8002   23.5287 O   0  0  0  0  0  0  0  0  0  0  0  0
    8.4401  -15.1137   22.8183 N   0  0  0  0  0  0  0  0  0  0  0  0
    8.6790  -15.7440   21.5717 C   0  0  1  0  0  0  0  0  0  0  0  0
    8.1138  -14.8149   20.4868 C   0  0  0  0  0  0  0  0  0  0  0  0
    6.6817  -13.9014   21.1244 S   0  0  0  0  0  0  0  0  0  0  0  0
   10.0540  -16.0529   21.2463 C   0  0  0  0  0  0  0  0  0  0  0  0
   10.7950  -15.2855   20.5911 O   0  0  0  0  0  0  0  0  0  0  0  0
   10.6236  -17.2775   21.6755 N   0  0  0  0  0  0  0  0  0  0  0  0
   11.9166  -17.3175   22.3173 C   0  0  1  0  0  0  0  0  0  0  0  0
   11.9136  -16.3809   23.5266 C   0  0  0  0  0  0  0  0  0  0  0  0
   13.5100  -16.4806   24.3550 S   0  0  0  0  0  0  0  0  0  0  0  0
   12.3207  -18.6824   22.6892 C   0  0  0  0  0  0  0  0  0  0  0  0
   13.6716  -18.9919   22.7101 O   0  0  0  0  0  0  0  0  0  0  0  0
   11.5086  -19.5910   22.9914 O   0  0  0  0  0  0  0  0  0  0  0  0
  2  1  1  0
  3  2  1  0
  3  4  1  0
  4  5  1  0
  5  7  1  0
  5  6  1  6
  7  8  2  0
  9  7  1  0
  9 10  1  0
 10 13  1  0
 10 11  1  6
 12 11  1  0
 13 14  2  0
 15 13  1  0
 15 16  1  0
 16 19  1  0
 16 17  1  1
 18 17  1  0
 19 21  2  0
 19 20  1  0
M  END
$$$$
