MCC.pdb
     RDKit          3D

 21 20  0  0  1  0  0  0  0  0999 V2000
    6.3407  -12.2320   19.8737 C   0  0  0  0  0  0  0  0  0  0  0  0
    7.8090  -12.3284   18.7964 S   0  0  0  0  0  0  0  0  0  0  0  0
    8.8634  -13.7344   19.3022 C   0  0  0  0  0  0  0  0  0  0  0  0
    8.0652  -15.0098   19.1327 C   0  0  0  0  0  0  0  0  0  0  0  0
    8.8575  -16.1627   19.6747 C   0  0  2  0  0  0  0  0  0  0  0  0
    8.2819  -17.4493   19.3944 N   0  0  0  0  0  0  0  0  0  0  0  0
    9.0726  -15.9995   21.1446 C   0  0  0  0  0  0  0  0  0  0  0  0
    9.9626  -15.2451   21.6116 O   0  0  0  0  0  0  0  0  0  0  0  0
    8.2912  -16.6815   22.1143 N   0  0  0  0  0  0  0  0  0  0  0  0
    8.6421  -16.7241   23.4867 C   0  0  1  0  0  0  0  0  0  0  0  0
    7.3381  -16.9204   24.2745 C   0  0  0  0  0  0  0  0  0  0  0  0
    7.6910  -17.0702   26.0479 S   0  0  0  0  0  0  0  0  0  0  0  0
    9.5850  -17.7438   23.8907 C   0  0  0  0  0  0  0  0  0  0  0  0
    9.3502  -18.9705   23.8054 O   0  0  0  0  0  0  0  0  0  0  0  0
   10.8482  -17.3708   24.4137 N   0  0  0  0  0  0  0  0  0  0  0  0
   11.8223  -18.3649   24.7987 C   0  0  1  0  0  0  0  0  0  0  0  0
   13.1250  -18.1236   24.0343 C   0  0  0  0  0  0  0  0  0  0  0  0
   13.5703  -16.3828   24.1607 S   0  0  0  0  0  0  0  0  0  0  0  0
   12.0455  -18.4039   26.2524 C   0  0  0  0  0  0  0  0  0  0  0  0
   13.2582  -17.9528   26.7496 O   0  0  0  0  0  0  0  0  0  0  0  0
   11.1966  -18.8245   27.0761 O   0  0  0  0  0  0  0  0  0  0  0  0
  2  1  1  0
  3  2  1  0
  3  4  1  0
  4  5  1  0
  5  7  1  0
  5  6  1  1
  7  8  2  0
  9  7  1  0
  9 10  1  0
 10 13  1  0
 10 11  1  1
 12 11  1  0
 13 14  2  0
 15 13  1  0
 15 16  1  0
 16 19  1  0
 16 17  1  6
 18 17  1  0
 19 21  2  0
 19 20  1  0
M  END
$$$$
