MCC.pdb
     RDKit          3D

 21 20  0  0  1  0  0  0  0  0999 V2000
   10.3211  -13.5811   27.8364 C   0  0  0  0  0  0  0  0  0  0  0  0
    9.7722  -14.5451   29.2839 S   0  0  0  0  0  0  0  0  0  0  0  0
    8.8791  -16.0433   28.7343 C   0  0  0  0  0  0  0  0  0  0  0  0
    8.6803  -15.9530   27.2361 C   0  0  0  0  0  0  0  0  0  0  0  0
    7.8148  -17.0921   26.7842 C   0  0  2  0  0  0  0  0  0  0  0  0
    8.2129  -18.3703   27.3064 N   0  0  0  0  0  0  0  0  0  0  0  0
    7.7535  -17.1374   25.2917 C   0  0  0  0  0  0  0  0  0  0  0  0
    8.1148  -18.1472   24.6368 O   0  0  0  0  0  0  0  0  0  0  0  0
    7.2853  -16.0483   24.5101 N   0  0  0  0  0  0  0  0  0  0  0  0
    7.6513  -15.8681   23.1529 C   0  0  1  0  0  0  0  0  0  0  0  0
    6.7425  -14.7657   22.5886 C   0  0  0  0  0  0  0  0  0  0  0  0
    6.9801  -14.6106   20.7966 S   0  0  0  0  0  0  0  0  0  0  0  0
    9.0282  -15.5142   22.8869 C   0  0  0  0  0  0  0  0  0  0  0  0
    9.6211  -14.5750   23.4645 O   0  0  0  0  0  0  0  0  0  0  0  0
    9.7739  -16.2469   21.9301 N   0  0  0  0  0  0  0  0  0  0  0  0
   11.2179  -16.2493   21.9484 C   0  0  1  0  0  0  0  0  0  0  0  0
   11.7088  -16.7920   23.2915 C   0  0  0  0  0  0  0  0  0  0  0  0
   12.1413  -15.4111   24.3641 S   0  0  0  0  0  0  0  0  0  0  0  0
   11.7959  -16.9936   20.8185 C   0  0  0  0  0  0  0  0  0  0  0  0
   13.1716  -16.9800   20.6495 O   0  0  0  0  0  0  0  0  0  0  0  0
   11.1122  -17.6456   19.9917 O   0  0  0  0  0  0  0  0  0  0  0  0
  2  1  1  0
  3  2  1  0
  3  4  1  0
  4  5  1  0
  5  7  1  0
  5  6  1  6
  7  8  2  0
  9  7  1  0
  9 10  1  0
 10 13  1  0
 10 11  1  1
 12 11  1  0
 13 14  2  0
 15 13  1  0
 15 16  1  0
 16 19  1  0
 16 17  1  1
 18 17  1  0
 19 21  2  0
 19 20  1  0
M  END
$$$$
