MCC.pdb
     RDKit          3D

 21 20  0  0  1  0  0  0  0  0999 V2000
   -6.0715  -29.1162   27.9048 C   0  0  0  0  0  0  0  0  0  0  0  0
   -7.3678  -29.7129   26.7691 S   0  0  0  0  0  0  0  0  0  0  0  0
   -7.8771  -28.3670   25.6405 C   0  0  0  0  0  0  0  0  0  0  0  0
   -6.9977  -27.1645   25.9106 C   0  0  0  0  0  0  0  0  0  0  0  0
   -7.4131  -26.0381   25.0108 C   0  0  2  0  0  0  0  0  0  0  0  0
   -7.1110  -26.2579   23.6232 N   0  0  0  0  0  0  0  0  0  0  0  0
   -6.8097  -24.7524   25.4760 C   0  0  0  0  0  0  0  0  0  0  0  0
   -5.7559  -24.2867   24.9742 O   0  0  0  0  0  0  0  0  0  0  0  0
   -7.3807  -23.9685   26.5133 N   0  0  0  0  0  0  0  0  0  0  0  0
   -6.7814  -22.7752   26.9880 C   0  0  1  0  0  0  0  0  0  0  0  0
   -7.9247  -21.8109   27.3381 C   0  0  0  0  0  0  0  0  0  0  0  0
   -8.9069  -22.4723   28.7127 S   0  0  0  0  0  0  0  0  0  0  0  0
   -5.9069  -22.8920   28.1341 C   0  0  0  0  0  0  0  0  0  0  0  0
   -5.0966  -22.0006   28.4748 O   0  0  0  0  0  0  0  0  0  0  0  0
   -5.9431  -24.0611   28.9342 N   0  0  0  0  0  0  0  0  0  0  0  0
   -5.0663  -24.2178   30.0709 C   0  0  1  0  0  0  0  0  0  0  0  0
   -5.3301  -23.0951   31.0757 C   0  0  0  0  0  0  0  0  0  0  0  0
   -4.1350  -23.2111   32.4184 S   0  0  0  0  0  0  0  0  0  0  0  0
   -5.1838  -25.5443   30.6963 C   0  0  0  0  0  0  0  0  0  0  0  0
   -6.4496  -26.0663   30.9120 O   0  0  0  0  0  0  0  0  0  0  0  0
   -4.1982  -26.2374   31.0492 O   0  0  0  0  0  0  0  0  0  0  0  0
  2  1  1  0
  3  2  1  0
  3  4  1  0
  4  5  1  0
  5  7  1  0
  5  6  1  6
  7  8  2  0
  9  7  1  0
  9 10  1  0
 10 13  1  0
 10 11  1  1
 12 11  1  0
 13 14  2  0
 15 13  1  0
 15 16  1  0
 16 19  1  0
 16 17  1  1
 18 17  1  0
 19 21  2  0
 19 20  1  0
M  END
$$$$
