MCC.pdb
     RDKit          3D

 21 20  0  0  1  0  0  0  0  0999 V2000
    6.9067  -12.3573   27.0781 C   0  0  0  0  0  0  0  0  0  0  0  0
    6.2547  -11.4485   25.6376 S   0  0  0  0  0  0  0  0  0  0  0  0
    6.7377  -12.2984   24.0921 C   0  0  0  0  0  0  0  0  0  0  0  0
    7.4123  -13.6030   24.4602 C   0  0  0  0  0  0  0  0  0  0  0  0
    7.7960  -14.3305   23.2055 C   0  0  2  0  0  0  0  0  0  0  0  0
    6.6848  -14.6452   22.3504 N   0  0  0  0  0  0  0  0  0  0  0  0
    8.5625  -15.5697   23.5377 C   0  0  0  0  0  0  0  0  0  0  0  0
    8.0480  -16.5267   24.1692 O   0  0  0  0  0  0  0  0  0  0  0  0
    9.9205  -15.7542   23.1658 N   0  0  0  0  0  0  0  0  0  0  0  0
   10.7442  -16.7498   23.7478 C   0  0  1  0  0  0  0  0  0  0  0  0
   11.8337  -17.0849   22.7183 C   0  0  0  0  0  0  0  0  0  0  0  0
   12.8431  -18.4756   23.3005 S   0  0  0  0  0  0  0  0  0  0  0  0
   11.3801  -16.4217   25.0048 C   0  0  0  0  0  0  0  0  0  0  0  0
   11.8997  -15.3079   25.2428 O   0  0  0  0  0  0  0  0  0  0  0  0
   11.4355  -17.3863   26.0415 N   0  0  0  0  0  0  0  0  0  0  0  0
   11.5719  -16.9924   27.4241 C   0  0  1  0  0  0  0  0  0  0  0  0
   10.4791  -15.9814   27.7753 C   0  0  0  0  0  0  0  0  0  0  0  0
   11.1243  -14.8089   28.9809 S   0  0  0  0  0  0  0  0  0  0  0  0
   11.5631  -18.1418   28.3425 C   0  0  0  0  0  0  0  0  0  0  0  0
   12.2556  -18.0402   29.5389 O   0  0  0  0  0  0  0  0  0  0  0  0
   10.9609  -19.2176   28.1056 O   0  0  0  0  0  0  0  0  0  0  0  0
  2  1  1  0
  3  2  1  0
  3  4  1  0
  4  5  1  0
  5  7  1  0
  5  6  1  1
  7  8  2  0
  9  7  1  0
  9 10  1  0
 10 13  1  0
 10 11  1  6
 12 11  1  0
 13 14  2  0
 15 13  1  0
 15 16  1  0
 16 19  1  0
 16 17  1  1
 18 17  1  0
 19 21  2  0
 19 20  1  0
M  END
$$$$
