MCC.pdb
     RDKit          3D

 21 20  0  0  1  0  0  0  0  0999 V2000
    8.7436  -12.1267   20.6159 C   0  0  0  0  0  0  0  0  0  0  0  0
    7.3630  -12.6115   19.5274 S   0  0  0  0  0  0  0  0  0  0  0  0
    6.7849  -14.2910   19.9624 C   0  0  0  0  0  0  0  0  0  0  0  0
    7.9852  -15.2135   19.9864 C   0  0  0  0  0  0  0  0  0  0  0  0
    7.8552  -16.1616   21.1417 C   0  0  2  0  0  0  0  0  0  0  0  0
    6.5013  -16.5471   21.4307 N   0  0  0  0  0  0  0  0  0  0  0  0
    8.5027  -15.5874   22.3601 C   0  0  0  0  0  0  0  0  0  0  0  0
    9.7231  -15.2895   22.3928 O   0  0  0  0  0  0  0  0  0  0  0  0
    7.7894  -15.3385   23.5624 N   0  0  0  0  0  0  0  0  0  0  0  0
    8.4249  -15.2626   24.8268 C   0  0  1  0  0  0  0  0  0  0  0  0
    7.3812  -14.7284   25.8192 C   0  0  0  0  0  0  0  0  0  0  0  0
    6.2041  -13.6404   24.9692 S   0  0  0  0  0  0  0  0  0  0  0  0
    8.9812  -16.4887   25.3553 C   0  0  0  0  0  0  0  0  0  0  0  0
    8.3067  -17.5273   25.5386 O   0  0  0  0  0  0  0  0  0  0  0  0
   10.3560  -16.5528   25.6932 N   0  0  0  0  0  0  0  0  0  0  0  0
   10.9566  -17.7816   26.1567 C   0  0  1  0  0  0  0  0  0  0  0  0
   12.4147  -17.8398   25.6983 C   0  0  0  0  0  0  0  0  0  0  0  0
   13.1809  -19.3323   26.3540 S   0  0  0  0  0  0  0  0  0  0  0  0
   10.8384  -17.9540   27.6130 C   0  0  0  0  0  0  0  0  0  0  0  0
   11.0271  -16.8497   28.4292 O   0  0  0  0  0  0  0  0  0  0  0  0
   10.5746  -19.0503   28.1652 O   0  0  0  0  0  0  0  0  0  0  0  0
  2  1  1  0
  3  2  1  0
  3  4  1  0
  4  5  1  0
  5  7  1  0
  5  6  1  1
  7  8  2  0
  9  7  1  0
  9 10  1  0
 10 13  1  0
 10 11  1  1
 12 11  1  0
 13 14  2  0
 15 13  1  0
 15 16  1  0
 16 19  1  0
 16 17  1  1
 18 17  1  0
 19 21  2  0
 19 20  1  0
M  END
$$$$
