MCC.pdb
     RDKit          3D

 21 20  0  0  1  0  0  0  0  0999 V2000
    7.9823  -11.7357   21.0118 C   0  0  0  0  0  0  0  0  0  0  0  0
    8.0831  -12.5988   19.4084 S   0  0  0  0  0  0  0  0  0  0  0  0
    7.3429  -14.2652   19.5486 C   0  0  0  0  0  0  0  0  0  0  0  0
    7.5379  -14.7518   20.9690 C   0  0  0  0  0  0  0  0  0  0  0  0
    8.0408  -16.1650   20.9412 C   0  0  2  0  0  0  0  0  0  0  0  0
    7.0917  -17.1121   20.4240 N   0  0  0  0  0  0  0  0  0  0  0  0
    8.4993  -16.5798   22.3017 C   0  0  0  0  0  0  0  0  0  0  0  0
    7.6929  -16.8541   23.2257 O   0  0  0  0  0  0  0  0  0  0  0  0
    9.8720  -16.6933   22.6468 N   0  0  0  0  0  0  0  0  0  0  0  0
   10.3096  -16.9361   23.9727 C   0  0  1  0  0  0  0  0  0  0  0  0
   11.6197  -17.7316   23.8713 C   0  0  0  0  0  0  0  0  0  0  0  0
   12.2463  -18.1256   25.5278 S   0  0  0  0  0  0  0  0  0  0  0  0
   10.5343  -15.7789   24.8108 C   0  0  0  0  0  0  0  0  0  0  0  0
   11.0769  -14.7277   24.4012 O   0  0  0  0  0  0  0  0  0  0  0  0
   10.1321  -15.8018   26.1695 N   0  0  0  0  0  0  0  0  0  0  0  0
   10.4173  -14.6960   27.0535 C   0  0  1  0  0  0  0  0  0  0  0  0
    9.4751  -13.5339   26.7349 C   0  0  0  0  0  0  0  0  0  0  0  0
    7.8408  -13.8997   27.3981 S   0  0  0  0  0  0  0  0  0  0  0  0
   10.3497  -15.0758   28.4732 C   0  0  0  0  0  0  0  0  0  0  0  0
   10.6727  -14.1263   29.4300 O   0  0  0  0  0  0  0  0  0  0  0  0
   10.0142  -16.2175   28.8733 O   0  0  0  0  0  0  0  0  0  0  0  0
  2  1  1  0
  3  2  1  0
  3  4  1  0
  4  5  1  0
  5  7  1  0
  5  6  1  1
  7  8  2  0
  9  7  1  0
  9 10  1  0
 10 13  1  0
 10 11  1  6
 12 11  1  0
 13 14  2  0
 15 13  1  0
 15 16  1  0
 16 19  1  0
 16 17  1  1
 18 17  1  0
 19 21  2  0
 19 20  1  0
M  END
$$$$
