MCC.pdb
     RDKit          3D

 21 20  0  0  1  0  0  0  0  0999 V2000
    6.9584  -11.7610   25.4734 C   0  0  0  0  0  0  0  0  0  0  0  0
    6.7697  -12.8723   26.9071 S   0  0  0  0  0  0  0  0  0  0  0  0
    6.6952  -14.6107   26.3442 C   0  0  0  0  0  0  0  0  0  0  0  0
    6.6704  -14.6174   24.8303 C   0  0  0  0  0  0  0  0  0  0  0  0
    6.6119  -16.0357   24.3447 C   0  0  2  0  0  0  0  0  0  0  0  0
    5.7542  -16.8847   25.1248 N   0  0  0  0  0  0  0  0  0  0  0  0
    7.9871  -16.6158   24.2692 C   0  0  0  0  0  0  0  0  0  0  0  0
    8.3754  -17.5224   25.0481 O   0  0  0  0  0  0  0  0  0  0  0  0
    8.9491  -16.1867   23.3171 N   0  0  0  0  0  0  0  0  0  0  0  0
   10.2582  -16.7261   23.2564 C   0  0  1  0  0  0  0  0  0  0  0  0
   11.0405  -15.8846   22.2368 C   0  0  0  0  0  0  0  0  0  0  0  0
   12.6508  -16.6474   21.8949 S   0  0  0  0  0  0  0  0  0  0  0  0
   11.0073  -16.7691   24.4930 C   0  0  0  0  0  0  0  0  0  0  0  0
   11.1788  -15.7708   25.2285 O   0  0  0  0  0  0  0  0  0  0  0  0
   11.5899  -17.9869   24.9241 N   0  0  0  0  0  0  0  0  0  0  0  0
   12.3904  -18.0503   26.1244 C   0  0  1  0  0  0  0  0  0  0  0  0
   11.5019  -17.7942   27.3427 C   0  0  0  0  0  0  0  0  0  0  0  0
   10.1001  -18.9246   27.2996 S   0  0  0  0  0  0  0  0  0  0  0  0
   13.1262  -19.3185   26.2464 C   0  0  0  0  0  0  0  0  0  0  0  0
   12.9713  -20.2734   25.2537 O   0  0  0  0  0  0  0  0  0  0  0  0
   13.8921  -19.5897   27.2035 O   0  0  0  0  0  0  0  0  0  0  0  0
  2  1  1  0
  3  2  1  0
  3  4  1  0
  4  5  1  0
  5  7  1  0
  5  6  1  1
  7  8  2  0
  9  7  1  0
  9 10  1  0
 10 13  1  0
 10 11  1  6
 12 11  1  0
 13 14  2  0
 15 13  1  0
 15 16  1  0
 16 19  1  0
 16 17  1  1
 18 17  1  0
 19 21  2  0
 19 20  1  0
M  END
$$$$
