NVD.pdb
     RDKit          3D

 24 23  0  0  1  0  0  0  0  0999 V2000
    8.2704  -14.5735   18.1677 N   0  0  0  0  0  0  0  0  0  0  0  0
    7.5380  -14.6799   19.3744 C   0  0  0  0  0  0  0  0  0  0  0  0
    6.4031  -15.2424   19.3161 O   0  0  0  0  0  0  0  0  0  0  0  0
    8.1098  -14.1449   20.6248 C   0  0  0  0  0  0  0  0  0  0  0  0
    7.8537  -15.1033   21.7401 C   0  0  2  0  0  0  0  0  0  0  0  0
    6.4190  -15.1444   21.9547 N   0  0  0  0  0  0  0  0  0  0  0  0
    8.4754  -14.6708   23.0191 C   0  0  0  0  0  0  0  0  0  0  0  0
    9.7093  -14.4821   23.0923 O   0  0  0  0  0  0  0  0  0  0  0  0
    7.8523  -12.8867   27.6153 C   0  0  0  0  0  0  0  0  0  0  0  0
    7.2830  -13.3314   26.2976 C   0  0  1  0  0  0  0  0  0  0  0  0
    6.8117  -12.1606   25.4653 C   0  0  0  0  0  0  0  0  0  0  0  0
    8.2435  -14.1721   25.4974 C   0  0  2  0  0  0  0  0  0  0  0  0
    7.6932  -14.4564   24.2031 N   0  0  0  0  0  0  0  0  0  0  0  0
    8.6546  -15.4012   26.2311 C   0  0  0  0  0  0  0  0  0  0  0  0
    7.7633  -16.2765   26.3733 O   0  0  0  0  0  0  0  0  0  0  0  0
    9.9313  -15.6196   26.7480 N   0  0  0  0  0  0  0  0  0  0  0  0
   10.2917  -16.8775   27.4283 C   0  0  1  0  0  0  0  0  0  0  0  0
   11.5077  -17.4767   26.8269 C   0  0  0  0  0  0  0  0  0  0  0  0
   12.0459  -18.6612   27.4915 C   0  0  0  0  0  0  0  0  0  0  0  0
   11.3792  -19.5530   28.0640 O   0  0  0  0  0  0  0  0  0  0  0  0
   10.5062  -16.5721   28.8853 C   0  0  0  0  0  0  0  0  0  0  0  0
   10.6997  -15.4303   29.3471 O   0  0  0  0  0  0  0  0  0  0  0  0
   13.4427  -18.8730   27.5229 O   0  0  0  0  0  0  0  0  0  0  0  0
   10.5004  -17.6046   29.8349 O   0  0  0  0  0  0  0  0  0  0  0  0
  1  2  1  0
  2  3  2  0
  4  2  1  0
  5  4  1  0
  5  6  1  1
  7  5  1  0
  7  8  2  0
 10  9  1  1
 10 11  1  0
 10 12  1  0
 12 13  1  6
 13  7  1  0
 14 12  1  0
 15 14  2  0
 16 14  1  0
 17 16  1  0
 17 21  1  0
 17 18  1  6
 19 18  1  0
 20 19  2  0
 21 22  2  0
 21 24  1  0
 23 19  1  0
M  END
$$$$
