NVD.pdb
     RDKit          3D

 24 23  0  0  1  0  0  0  0  0999 V2000
    5.2002  -22.2374   23.8538 N   0  0  0  0  0  0  0  0  0  0  0  0
    5.2336  -20.8241   23.9256 C   0  0  0  0  0  0  0  0  0  0  0  0
    4.2800  -20.2518   24.5348 O   0  0  0  0  0  0  0  0  0  0  0  0
    6.3505  -20.0878   23.3034 C   0  0  0  0  0  0  0  0  0  0  0  0
    5.8088  -19.0343   22.3954 C   0  0  2  0  0  0  0  0  0  0  0  0
    5.2879  -19.7038   21.2178 N   0  0  0  0  0  0  0  0  0  0  0  0
    6.8552  -18.0855   21.9326 C   0  0  0  0  0  0  0  0  0  0  0  0
    7.7776  -18.4750   21.1835 O   0  0  0  0  0  0  0  0  0  0  0  0
    8.3892  -13.3480   21.6130 C   0  0  0  0  0  0  0  0  0  0  0  0
    7.3366  -14.3783   21.9112 C   0  0  1  0  0  0  0  0  0  0  0  0
    6.2235  -14.3567   20.8885 C   0  0  0  0  0  0  0  0  0  0  0  0
    7.8963  -15.7722   22.0265 C   0  0  2  0  0  0  0  0  0  0  0  0
    6.8466  -16.7045   22.3227 N   0  0  0  0  0  0  0  0  0  0  0  0
    9.0214  -15.8434   22.9998 C   0  0  0  0  0  0  0  0  0  0  0  0
    8.6975  -15.7962   24.2138 O   0  0  0  0  0  0  0  0  0  0  0  0
   10.3650  -15.9554   22.6432 N   0  0  0  0  0  0  0  0  0  0  0  0
   11.4276  -16.1214   23.6524 C   0  0  1  0  0  0  0  0  0  0  0  0
   11.2600  -17.3941   24.3952 C   0  0  0  0  0  0  0  0  0  0  0  0
   12.3137  -17.7344   25.3482 C   0  0  0  0  0  0  0  0  0  0  0  0
   13.3516  -17.0700   25.5691 O   0  0  0  0  0  0  0  0  0  0  0  0
   12.7525  -16.0834   22.9417 C   0  0  0  0  0  0  0  0  0  0  0  0
   13.8609  -16.1490   23.5087 O   0  0  0  0  0  0  0  0  0  0  0  0
   12.2054  -18.9124   26.1211 O   0  0  0  0  0  0  0  0  0  0  0  0
   12.8051  -15.9649   21.5448 O   0  0  0  0  0  0  0  0  0  0  0  0
  1  2  1  0
  2  3  2  0
  4  2  1  0
  5  4  1  0
  5  6  1  6
  7  5  1  0
  7  8  2  0
 10  9  1  6
 10 11  1  0
 10 12  1  0
 12 13  1  1
 13  7  1  0
 14 12  1  0
 15 14  2  0
 16 14  1  0
 17 16  1  0
 17 21  1  0
 17 18  1  6
 19 18  1  0
 20 19  2  0
 21 22  2  0
 21 24  1  0
 23 19  1  0
M  END
$$$$
