NVD.pdb
     RDKit          3D

 24 23  0  0  1  0  0  0  0  0999 V2000
    9.6231  -18.0738   14.7308 N   0  0  0  0  0  0  0  0  0  0  0  0
    9.7748  -16.7081   14.3913 C   0  0  0  0  0  0  0  0  0  0  0  0
    9.8619  -16.4232   13.1587 O   0  0  0  0  0  0  0  0  0  0  0  0
    9.8245  -15.6916   15.4594 C   0  0  0  0  0  0  0  0  0  0  0  0
    9.8624  -16.3677   16.7896 C   0  0  2  0  0  0  0  0  0  0  0  0
    8.5763  -17.0112   16.9849 N   0  0  0  0  0  0  0  0  0  0  0  0
   10.0480  -15.4109   17.9119 C   0  0  0  0  0  0  0  0  0  0  0  0
   11.1418  -14.8268   18.0728 O   0  0  0  0  0  0  0  0  0  0  0  0
    7.7883  -12.8334   21.5597 C   0  0  0  0  0  0  0  0  0  0  0  0
    7.7918  -13.5852   20.2586 C   0  0  1  0  0  0  0  0  0  0  0  0
    7.3823  -12.7049   19.0998 C   0  0  0  0  0  0  0  0  0  0  0  0
    9.1173  -14.2364   19.9609 C   0  0  2  0  0  0  0  0  0  0  0  0
    8.9924  -15.1248   18.8412 N   0  0  0  0  0  0  0  0  0  0  0  0
    9.6950  -14.9012   21.1620 C   0  0  0  0  0  0  0  0  0  0  0  0
    9.9233  -14.1512   22.1450 O   0  0  0  0  0  0  0  0  0  0  0  0
    9.9837  -16.2630   21.2455 N   0  0  0  0  0  0  0  0  0  0  0  0
   10.5333  -16.8689   22.4727 C   0  0  1  0  0  0  0  0  0  0  0  0
   11.9718  -16.5428   22.6273 C   0  0  0  0  0  0  0  0  0  0  0  0
   12.8487  -16.9307   21.5250 C   0  0  0  0  0  0  0  0  0  0  0  0
   12.8908  -18.0552   20.9762 O   0  0  0  0  0  0  0  0  0  0  0  0
    9.7365  -16.3558   23.6406 C   0  0  0  0  0  0  0  0  0  0  0  0
    8.8258  -15.5084   23.5572 O   0  0  0  0  0  0  0  0  0  0  0  0
   13.7556  -15.9900   20.9869 O   0  0  0  0  0  0  0  0  0  0  0  0
    9.9939  -16.8266   24.9367 O   0  0  0  0  0  0  0  0  0  0  0  0
  1  2  1  0
  2  3  2  0
  4  2  1  0
  5  4  1  0
  5  6  1  1
  7  5  1  0
  7  8  2  0
 10  9  1  1
 10 11  1  0
 10 12  1  0
 12 13  1  6
 13  7  1  0
 14 12  1  0
 15 14  2  0
 16 14  1  0
 17 16  1  0
 17 21  1  0
 17 18  1  1
 19 18  1  0
 20 19  2  0
 21 22  2  0
 21 24  1  0
 23 19  1  0
M  END
$$$$
