NVD.pdb
     RDKit          3D

 24 23  0  0  1  0  0  0  0  0999 V2000
   11.3831  -19.3295   15.9150 N   0  0  0  0  0  0  0  0  0  0  0  0
   11.1256  -18.0533   16.4706 C   0  0  0  0  0  0  0  0  0  0  0  0
   12.1114  -17.4253   16.9622 O   0  0  0  0  0  0  0  0  0  0  0  0
    9.7520  -17.5148   16.4567 C   0  0  0  0  0  0  0  0  0  0  0  0
    9.0975  -17.7850   17.7707 C   0  0  2  0  0  0  0  0  0  0  0  0
    7.6654  -17.6521   17.5764 N   0  0  0  0  0  0  0  0  0  0  0  0
    9.4901  -16.8048   18.8169 C   0  0  0  0  0  0  0  0  0  0  0  0
   10.6889  -16.6779   19.1489 O   0  0  0  0  0  0  0  0  0  0  0  0
    7.8756  -13.2620   21.9939 C   0  0  0  0  0  0  0  0  0  0  0  0
    7.7107  -14.1001   20.7575 C   0  0  1  0  0  0  0  0  0  0  0  0
    7.5959  -13.2494   19.5131 C   0  0  0  0  0  0  0  0  0  0  0  0
    8.8130  -15.1122   20.5835 C   0  0  2  0  0  0  0  0  0  0  0  0
    8.5207  -15.9776   19.4770 N   0  0  0  0  0  0  0  0  0  0  0  0
    9.0885  -15.8595   21.8420 C   0  0  0  0  0  0  0  0  0  0  0  0
    8.2663  -16.7661   22.1303 O   0  0  0  0  0  0  0  0  0  0  0  0
   10.1726  -15.6117   22.6835 N   0  0  0  0  0  0  0  0  0  0  0  0
   10.3671  -16.3546   23.9427 C   0  0  1  0  0  0  0  0  0  0  0  0
   11.8038  -16.4182   24.3049 C   0  0  0  0  0  0  0  0  0  0  0  0
   12.7065  -16.9605   23.2922 C   0  0  0  0  0  0  0  0  0  0  0  0
   12.6330  -18.0962   22.7704 O   0  0  0  0  0  0  0  0  0  0  0  0
    9.5713  -15.6644   25.0162 C   0  0  0  0  0  0  0  0  0  0  0  0
    9.0796  -14.5237   24.9087 O   0  0  0  0  0  0  0  0  0  0  0  0
   13.7817  -16.1750   22.8193 O   0  0  0  0  0  0  0  0  0  0  0  0
    9.3364  -16.2999   26.2446 O   0  0  0  0  0  0  0  0  0  0  0  0
  1  2  1  0
  2  3  2  0
  4  2  1  0
  5  4  1  0
  5  6  1  6
  7  5  1  0
  7  8  2  0
 10  9  1  1
 10 11  1  0
 10 12  1  0
 12 13  1  6
 13  7  1  0
 14 12  1  0
 15 14  2  0
 16 14  1  0
 17 16  1  0
 17 21  1  0
 17 18  1  1
 19 18  1  0
 20 19  2  0
 21 22  2  0
 21 24  1  0
 23 19  1  0
M  END
$$$$
