NVD.pdb
     RDKit          3D

 24 23  0  0  1  0  0  0  0  0999 V2000
    7.7601  -20.7073   15.8127 N   0  0  0  0  0  0  0  0  0  0  0  0
    7.3313  -19.4324   16.2539 C   0  0  0  0  0  0  0  0  0  0  0  0
    6.3222  -18.9277   15.6751 O   0  0  0  0  0  0  0  0  0  0  0  0
    8.0576  -18.7554   17.3451 C   0  0  0  0  0  0  0  0  0  0  0  0
    8.2135  -17.3076   17.0170 C   0  0  2  0  0  0  0  0  0  0  0  0
    9.1077  -17.2158   15.8777 N   0  0  0  0  0  0  0  0  0  0  0  0
    8.8345  -16.5344   18.1243 C   0  0  0  0  0  0  0  0  0  0  0  0
   10.0708  -16.5712   18.3077 O   0  0  0  0  0  0  0  0  0  0  0  0
    8.0119  -13.3454   21.9227 C   0  0  0  0  0  0  0  0  0  0  0  0
    7.5681  -14.0327   20.6622 C   0  0  1  0  0  0  0  0  0  0  0  0
    7.2367  -13.0424   19.5690 C   0  0  0  0  0  0  0  0  0  0  0  0
    8.5727  -15.0344   20.1554 C   0  0  2  0  0  0  0  0  0  0  0  0
    8.0488  -15.7269   19.0132 N   0  0  0  0  0  0  0  0  0  0  0  0
    9.0299  -15.9591   21.2298 C   0  0  0  0  0  0  0  0  0  0  0  0
    8.2267  -16.8752   21.5405 O   0  0  0  0  0  0  0  0  0  0  0  0
   10.2584  -15.8614   21.8825 N   0  0  0  0  0  0  0  0  0  0  0  0
   10.6853  -16.8492   22.8911 C   0  0  1  0  0  0  0  0  0  0  0  0
   12.1435  -17.1039   22.8005 C   0  0  0  0  0  0  0  0  0  0  0  0
   12.7036  -18.0323   23.7798 C   0  0  0  0  0  0  0  0  0  0  0  0
   12.2354  -18.2791   24.9145 O   0  0  0  0  0  0  0  0  0  0  0  0
   10.3152  -16.3163   24.2480 C   0  0  0  0  0  0  0  0  0  0  0  0
    9.7869  -16.9921   25.1528 O   0  0  0  0  0  0  0  0  0  0  0  0
   13.8834  -18.7468   23.4728 O   0  0  0  0  0  0  0  0  0  0  0  0
   10.5563  -14.9730   24.5727 O   0  0  0  0  0  0  0  0  0  0  0  0
  1  2  1  0
  2  3  2  0
  4  2  1  0
  5  4  1  0
  5  6  1  6
  7  5  1  0
  7  8  2  0
 10  9  1  1
 10 11  1  0
 10 12  1  0
 12 13  1  6
 13  7  1  0
 14 12  1  0
 15 14  2  0
 16 14  1  0
 17 16  1  0
 17 21  1  0
 17 18  1  1
 19 18  1  0
 20 19  2  0
 21 22  2  0
 21 24  1  0
 23 19  1  0
M  END
$$$$
