NVD.pdb
     RDKit          3D

 24 23  0  0  1  0  0  0  0  0999 V2000
    7.4241  -15.1770   18.7349 N   0  0  0  0  0  0  0  0  0  0  0  0
    7.5582  -13.7968   19.0191 C   0  0  0  0  0  0  0  0  0  0  0  0
    7.4174  -12.9892   18.0517 O   0  0  0  0  0  0  0  0  0  0  0  0
    7.8496  -13.3605   20.3980 C   0  0  0  0  0  0  0  0  0  0  0  0
    8.0213  -14.5570   21.2737 C   0  0  2  0  0  0  0  0  0  0  0  0
    6.7151  -15.1697   21.4305 N   0  0  0  0  0  0  0  0  0  0  0  0
    8.5056  -14.2047   22.6341 C   0  0  0  0  0  0  0  0  0  0  0  0
    9.6735  -13.7915   22.8040 O   0  0  0  0  0  0  0  0  0  0  0  0
    7.2560  -12.7731   27.1918 C   0  0  0  0  0  0  0  0  0  0  0  0
    6.9079  -13.2318   25.8038 C   0  0  1  0  0  0  0  0  0  0  0  0
    6.4188  -12.0908   24.9411 C   0  0  0  0  0  0  0  0  0  0  0  0
    8.0470  -13.9388   25.1167 C   0  0  2  0  0  0  0  0  0  0  0  0
    7.6622  -14.3239   23.7891 N   0  0  0  0  0  0  0  0  0  0  0  0
    8.5616  -15.0814   25.9215 C   0  0  0  0  0  0  0  0  0  0  0  0
    9.0300  -14.7874   27.0506 O   0  0  0  0  0  0  0  0  0  0  0  0
    8.5495  -16.4105   25.4992 N   0  0  0  0  0  0  0  0  0  0  0  0
    9.7390  -17.2750   25.6134 C   0  0  1  0  0  0  0  0  0  0  0  0
   10.8629  -16.7407   24.8067 C   0  0  0  0  0  0  0  0  0  0  0  0
   12.1479  -17.4206   24.9511 C   0  0  0  0  0  0  0  0  0  0  0  0
   12.3341  -18.5434   25.4730 O   0  0  0  0  0  0  0  0  0  0  0  0
   10.1129  -17.3600   27.0677 C   0  0  0  0  0  0  0  0  0  0  0  0
   11.0972  -17.9851   27.5091 O   0  0  0  0  0  0  0  0  0  0  0  0
   13.3256  -16.8011   24.4757 O   0  0  0  0  0  0  0  0  0  0  0  0
    9.3352  -16.7124   28.0392 O   0  0  0  0  0  0  0  0  0  0  0  0
  1  2  1  0
  2  3  2  0
  4  2  1  0
  5  4  1  0
  5  6  1  1
  7  5  1  0
  7  8  2  0
 10  9  1  1
 10 11  1  0
 10 12  1  0
 12 13  1  6
 13  7  1  0
 14 12  1  0
 15 14  2  0
 16 14  1  0
 17 16  1  0
 17 21  1  0
 17 18  1  6
 19 18  1  0
 20 19  2  0
 21 22  2  0
 21 24  1  0
 23 19  1  0
M  END
$$$$
