NVD.pdb
     RDKit          3D

 24 23  0  0  1  0  0  0  0  0999 V2000
    8.5082  -18.1049   15.6235 N   0  0  0  0  0  0  0  0  0  0  0  0
    9.5130  -18.3278   16.5953 C   0  0  0  0  0  0  0  0  0  0  0  0
   10.1547  -19.4192   16.5261 O   0  0  0  0  0  0  0  0  0  0  0  0
    9.7694  -17.3055   17.6277 C   0  0  0  0  0  0  0  0  0  0  0  0
    9.4697  -17.8721   18.9757 C   0  0  2  0  0  0  0  0  0  0  0  0
    8.0523  -18.1819   19.0096 N   0  0  0  0  0  0  0  0  0  0  0  0
    9.7328  -16.9050   20.0734 C   0  0  0  0  0  0  0  0  0  0  0  0
   10.9030  -16.5609   20.3482 O   0  0  0  0  0  0  0  0  0  0  0  0
    7.8087  -13.6554   23.3394 C   0  0  0  0  0  0  0  0  0  0  0  0
    7.7474  -14.4800   22.0847 C   0  0  1  0  0  0  0  0  0  0  0  0
    7.7389  -13.6160   20.8442 C   0  0  0  0  0  0  0  0  0  0  0  0
    8.8593  -15.4925   21.9933 C   0  0  2  0  0  0  0  0  0  0  0  0
    8.6674  -16.3370   20.8493 N   0  0  0  0  0  0  0  0  0  0  0  0
    9.0179  -16.2631   23.2579 C   0  0  0  0  0  0  0  0  0  0  0  0
    8.0467  -16.9950   23.5772 O   0  0  0  0  0  0  0  0  0  0  0  0
   10.1482  -16.2139   24.0733 N   0  0  0  0  0  0  0  0  0  0  0  0
   10.3647  -17.1829   25.1639 C   0  0  1  0  0  0  0  0  0  0  0  0
   11.4951  -18.0904   24.8508 C   0  0  0  0  0  0  0  0  0  0  0  0
   11.9230  -18.9892   25.9203 C   0  0  0  0  0  0  0  0  0  0  0  0
   11.3677  -19.1280   27.0338 O   0  0  0  0  0  0  0  0  0  0  0  0
   10.6293  -16.4092   26.4263 C   0  0  0  0  0  0  0  0  0  0  0  0
   10.9759  -15.2121   26.4622 O   0  0  0  0  0  0  0  0  0  0  0  0
   13.0641  -19.8023   25.7374 O   0  0  0  0  0  0  0  0  0  0  0  0
   10.4941  -17.0270   27.6785 O   0  0  0  0  0  0  0  0  0  0  0  0
  1  2  1  0
  2  3  2  0
  4  2  1  0
  5  4  1  0
  5  6  1  6
  7  5  1  0
  7  8  2  0
 10  9  1  1
 10 11  1  0
 10 12  1  0
 12 13  1  6
 13  7  1  0
 14 12  1  0
 15 14  2  0
 16 14  1  0
 17 16  1  0
 17 21  1  0
 17 18  1  6
 19 18  1  0
 20 19  2  0
 21 22  2  0
 21 24  1  0
 23 19  1  0
M  END
$$$$
