NVD.pdb
     RDKit          3D

 24 23  0  0  1  0  0  0  0  0999 V2000
    8.5906  -19.2236   13.9416 N   0  0  0  0  0  0  0  0  0  0  0  0
    8.5938  -19.3101   15.3545 C   0  0  0  0  0  0  0  0  0  0  0  0
    7.9877  -20.2941   15.8765 O   0  0  0  0  0  0  0  0  0  0  0  0
    9.2861  -18.2764   16.1474 C   0  0  0  0  0  0  0  0  0  0  0  0
    8.2807  -17.4650   16.8950 C   0  0  2  0  0  0  0  0  0  0  0  0
    7.6459  -16.5755   15.9401 N   0  0  0  0  0  0  0  0  0  0  0  0
    8.9000  -16.6121   17.9431 C   0  0  0  0  0  0  0  0  0  0  0  0
   10.1427  -16.4902   18.0088 O   0  0  0  0  0  0  0  0  0  0  0  0
    8.0420  -13.3410   21.6543 C   0  0  0  0  0  0  0  0  0  0  0  0
    7.5905  -14.1310   20.4584 C   0  0  1  0  0  0  0  0  0  0  0  0
    7.1320  -13.2329   19.3320 C   0  0  0  0  0  0  0  0  0  0  0  0
    8.6421  -15.0848   19.9543 C   0  0  2  0  0  0  0  0  0  0  0  0
    8.1053  -15.9054   18.9067 N   0  0  0  0  0  0  0  0  0  0  0  0
    9.2476  -15.8818   21.0572 C   0  0  0  0  0  0  0  0  0  0  0  0
    8.5509  -16.8355   21.4884 O   0  0  0  0  0  0  0  0  0  0  0  0
   10.5018  -15.6309   21.6130 N   0  0  0  0  0  0  0  0  0  0  0  0
   11.0510  -16.4598   22.7023 C   0  0  1  0  0  0  0  0  0  0  0  0
   12.5244  -16.3142   22.7888 C   0  0  0  0  0  0  0  0  0  0  0  0
   13.1767  -16.9644   23.9229 C   0  0  0  0  0  0  0  0  0  0  0  0
   14.1357  -16.5061   24.5846 O   0  0  0  0  0  0  0  0  0  0  0  0
   10.3918  -16.0354   23.9858 C   0  0  0  0  0  0  0  0  0  0  0  0
   10.0826  -14.8608   24.2669 O   0  0  0  0  0  0  0  0  0  0  0  0
   12.7256  -18.2307   24.3589 O   0  0  0  0  0  0  0  0  0  0  0  0
   10.0822  -16.9841   24.9718 O   0  0  0  0  0  0  0  0  0  0  0  0
  1  2  1  0
  2  3  2  0
  4  2  1  0
  5  4  1  0
  5  6  1  6
  7  5  1  0
  7  8  2  0
 10  9  1  1
 10 11  1  0
 10 12  1  0
 12 13  1  6
 13  7  1  0
 14 12  1  0
 15 14  2  0
 16 14  1  0
 17 16  1  0
 17 21  1  0
 17 18  1  1
 19 18  1  0
 20 19  2  0
 21 22  2  0
 21 24  1  0
 23 19  1  0
M  END
$$$$
