NVD.pdb
     RDKit          3D

 24 23  0  0  1  0  0  0  0  0999 V2000
    5.9875  -19.4044   16.4455 N   0  0  0  0  0  0  0  0  0  0  0  0
    7.3931  -19.3948   16.2785 C   0  0  0  0  0  0  0  0  0  0  0  0
    7.8584  -19.9662   15.2466 O   0  0  0  0  0  0  0  0  0  0  0  0
    8.2435  -18.7356   17.2880 C   0  0  0  0  0  0  0  0  0  0  0  0
    8.3632  -17.2828   16.9670 C   0  0  2  0  0  0  0  0  0  0  0  0
    9.2774  -17.1609   15.8465 N   0  0  0  0  0  0  0  0  0  0  0  0
    8.9384  -16.4953   18.0889 C   0  0  0  0  0  0  0  0  0  0  0  0
   10.1762  -16.4439   18.2583 O   0  0  0  0  0  0  0  0  0  0  0  0
    7.9088  -13.4329   21.9409 C   0  0  0  0  0  0  0  0  0  0  0  0
    7.5239  -14.1096   20.6556 C   0  0  1  0  0  0  0  0  0  0  0  0
    7.1434  -13.1107   19.5866 C   0  0  0  0  0  0  0  0  0  0  0  0
    8.5955  -15.0313   20.1342 C   0  0  2  0  0  0  0  0  0  0  0  0
    8.1056  -15.7733   19.0081 N   0  0  0  0  0  0  0  0  0  0  0  0
    9.1480  -15.9070   21.2047 C   0  0  0  0  0  0  0  0  0  0  0  0
    8.4928  -16.9522   21.4481 O   0  0  0  0  0  0  0  0  0  0  0  0
   10.3122  -15.6342   21.9223 N   0  0  0  0  0  0  0  0  0  0  0  0
   10.8603  -16.5843   22.9083 C   0  0  1  0  0  0  0  0  0  0  0  0
   12.3428  -16.5945   22.8682 C   0  0  0  0  0  0  0  0  0  0  0  0
   13.0148  -17.4185   23.8702 C   0  0  0  0  0  0  0  0  0  0  0  0
   12.4562  -18.1119   24.7504 O   0  0  0  0  0  0  0  0  0  0  0  0
   10.3613  -16.1809   24.2685 C   0  0  0  0  0  0  0  0  0  0  0  0
   10.0547  -15.0166   24.5923 O   0  0  0  0  0  0  0  0  0  0  0  0
   14.4264  -17.4771   23.8969 O   0  0  0  0  0  0  0  0  0  0  0  0
   10.2127  -17.1388   25.2825 O   0  0  0  0  0  0  0  0  0  0  0  0
  1  2  1  0
  2  3  2  0
  4  2  1  0
  5  4  1  0
  5  6  1  6
  7  5  1  0
  7  8  2  0
 10  9  1  1
 10 11  1  0
 10 12  1  0
 12 13  1  6
 13  7  1  0
 14 12  1  0
 15 14  2  0
 16 14  1  0
 17 16  1  0
 17 21  1  0
 17 18  1  1
 19 18  1  0
 20 19  2  0
 21 22  2  0
 21 24  1  0
 23 19  1  0
M  END
$$$$
