NVD.pdb
     RDKit          3D

 24 23  0  0  1  0  0  0  0  0999 V2000
    6.7326  -19.1674   16.1193 N   0  0  0  0  0  0  0  0  0  0  0  0
    6.9831  -19.6951   17.4086 C   0  0  0  0  0  0  0  0  0  0  0  0
    6.5227  -20.8491   17.6623 O   0  0  0  0  0  0  0  0  0  0  0  0
    7.7526  -18.9011   18.3854 C   0  0  0  0  0  0  0  0  0  0  0  0
    8.0509  -17.5565   17.8103 C   0  0  2  0  0  0  0  0  0  0  0  0
    8.9758  -17.7521   16.7091 N   0  0  0  0  0  0  0  0  0  0  0  0
    8.7160  -16.6528   18.7852 C   0  0  0  0  0  0  0  0  0  0  0  0
    9.9631  -16.6186   18.8694 O   0  0  0  0  0  0  0  0  0  0  0  0
    8.0587  -13.1058   22.2793 C   0  0  0  0  0  0  0  0  0  0  0  0
    7.5754  -13.9040   21.1013 C   0  0  1  0  0  0  0  0  0  0  0  0
    7.2730  -13.0223   19.9111 C   0  0  0  0  0  0  0  0  0  0  0  0
    8.5342  -14.9938   20.6981 C   0  0  2  0  0  0  0  0  0  0  0  0
    7.9618  -15.7963   19.6554 N   0  0  0  0  0  0  0  0  0  0  0  0
    8.9841  -15.8018   21.8656 C   0  0  0  0  0  0  0  0  0  0  0  0
    8.1610  -16.6514   22.2918 O   0  0  0  0  0  0  0  0  0  0  0  0
   10.2263  -15.6665   22.4849 N   0  0  0  0  0  0  0  0  0  0  0  0
   10.6225  -16.5095   23.6284 C   0  0  1  0  0  0  0  0  0  0  0  0
   12.0927  -16.4850   23.8215 C   0  0  0  0  0  0  0  0  0  0  0  0
   12.9064  -16.8692   22.6705 C   0  0  0  0  0  0  0  0  0  0  0  0
   13.9650  -16.3145   22.2971 O   0  0  0  0  0  0  0  0  0  0  0  0
    9.9104  -15.9982   24.8505 C   0  0  0  0  0  0  0  0  0  0  0  0
    9.3237  -14.9002   24.9192 O   0  0  0  0  0  0  0  0  0  0  0  0
   12.5108  -17.9616   21.8663 O   0  0  0  0  0  0  0  0  0  0  0  0
    9.8731  -16.7668   26.0234 O   0  0  0  0  0  0  0  0  0  0  0  0
  1  2  1  0
  2  3  2  0
  4  2  1  0
  5  4  1  0
  5  6  1  6
  7  5  1  0
  7  8  2  0
 10  9  1  1
 10 11  1  0
 10 12  1  0
 12 13  1  6
 13  7  1  0
 14 12  1  0
 15 14  2  0
 16 14  1  0
 17 16  1  0
 17 21  1  0
 17 18  1  1
 19 18  1  0
 20 19  2  0
 21 22  2  0
 21 24  1  0
 23 19  1  0
M  END
$$$$
