NVD.pdb
     RDKit          3D

 24 23  0  0  1  0  0  0  0  0999 V2000
    8.0400  -16.8012   13.3338 N   0  0  0  0  0  0  0  0  0  0  0  0
    8.5376  -17.4476   14.4906 C   0  0  0  0  0  0  0  0  0  0  0  0
    8.4192  -18.7089   14.5462 O   0  0  0  0  0  0  0  0  0  0  0  0
    9.1607  -16.6480   15.5625 C   0  0  0  0  0  0  0  0  0  0  0  0
    8.7875  -17.2179   16.8906 C   0  0  2  0  0  0  0  0  0  0  0  0
    7.3380  -17.2487   16.9566 N   0  0  0  0  0  0  0  0  0  0  0  0
    9.2595  -16.3808   18.0246 C   0  0  0  0  0  0  0  0  0  0  0  0
   10.4827  -16.2123   18.2221 O   0  0  0  0  0  0  0  0  0  0  0  0
    7.9567  -13.3608   21.8094 C   0  0  0  0  0  0  0  0  0  0  0  0
    7.6409  -14.0848   20.5310 C   0  0  1  0  0  0  0  0  0  0  0  0
    7.3413  -13.1258   19.4014 C   0  0  0  0  0  0  0  0  0  0  0  0
    8.7285  -15.0402   20.1139 C   0  0  2  0  0  0  0  0  0  0  0  0
    8.3413  -15.7427   18.9242 N   0  0  0  0  0  0  0  0  0  0  0  0
    9.1222  -15.9556   21.2208 C   0  0  0  0  0  0  0  0  0  0  0  0
    8.2710  -16.8239   21.5408 O   0  0  0  0  0  0  0  0  0  0  0  0
   10.3425  -15.8982   21.8935 N   0  0  0  0  0  0  0  0  0  0  0  0
   10.6582  -16.8050   23.0130 C   0  0  1  0  0  0  0  0  0  0  0  0
   12.0144  -17.3853   22.8597 C   0  0  0  0  0  0  0  0  0  0  0  0
   12.2374  -18.2137   21.6771 C   0  0  0  0  0  0  0  0  0  0  0  0
   11.4497  -19.0720   21.2183 O   0  0  0  0  0  0  0  0  0  0  0  0
   10.5502  -16.0194   24.2911 C   0  0  0  0  0  0  0  0  0  0  0  0
   10.4774  -14.7763   24.3527 O   0  0  0  0  0  0  0  0  0  0  0  0
   13.4366  -18.0774   20.9423 O   0  0  0  0  0  0  0  0  0  0  0  0
   10.5272  -16.6786   25.5292 O   0  0  0  0  0  0  0  0  0  0  0  0
  1  2  1  0
  2  3  2  0
  4  2  1  0
  5  4  1  0
  5  6  1  6
  7  5  1  0
  7  8  2  0
 10  9  1  1
 10 11  1  0
 10 12  1  0
 12 13  1  6
 13  7  1  0
 14 12  1  0
 15 14  2  0
 16 14  1  0
 17 16  1  0
 17 21  1  0
 17 18  1  6
 19 18  1  0
 20 19  2  0
 21 22  2  0
 21 24  1  0
 23 19  1  0
M  END
$$$$
