NVD.pdb
     RDKit          3D

 24 23  0  0  1  0  0  0  0  0999 V2000
    7.2789  -17.5157   13.8082 N   0  0  0  0  0  0  0  0  0  0  0  0
    8.4698  -17.5712   14.5713 C   0  0  0  0  0  0  0  0  0  0  0  0
    9.2923  -18.4962   14.2960 O   0  0  0  0  0  0  0  0  0  0  0  0
    8.7034  -16.5739   15.6332 C   0  0  0  0  0  0  0  0  0  0  0  0
    8.8462  -17.2684   16.9467 C   0  0  2  0  0  0  0  0  0  0  0  0
    7.5337  -17.7620   17.3204 N   0  0  0  0  0  0  0  0  0  0  0  0
    9.2952  -16.3551   18.0301 C   0  0  0  0  0  0  0  0  0  0  0  0
   10.5023  -16.0483   18.1410 O   0  0  0  0  0  0  0  0  0  0  0  0
    7.8985  -13.4143   21.8479 C   0  0  0  0  0  0  0  0  0  0  0  0
    7.5786  -14.2189   20.6197 C   0  0  1  0  0  0  0  0  0  0  0  0
    7.0336  -13.3530   19.5068 C   0  0  0  0  0  0  0  0  0  0  0  0
    8.7549  -15.0148   20.1171 C   0  0  2  0  0  0  0  0  0  0  0  0
    8.3723  -15.7982   18.9775 N   0  0  0  0  0  0  0  0  0  0  0  0
    9.3774  -15.8324   21.1952 C   0  0  0  0  0  0  0  0  0  0  0  0
    8.7637  -16.8848   21.5063 O   0  0  0  0  0  0  0  0  0  0  0  0
   10.5623  -15.4997   21.8509 N   0  0  0  0  0  0  0  0  0  0  0  0
   11.1860  -16.4009   22.8379 C   0  0  1  0  0  0  0  0  0  0  0  0
   12.6315  -16.1048   22.9879 C   0  0  0  0  0  0  0  0  0  0  0  0
   13.3697  -16.9329   23.9386 C   0  0  0  0  0  0  0  0  0  0  0  0
   12.9151  -17.9123   24.5725 O   0  0  0  0  0  0  0  0  0  0  0  0
   10.4627  -16.2290   24.1453 C   0  0  0  0  0  0  0  0  0  0  0  0
   10.2286  -17.1518   24.9503 O   0  0  0  0  0  0  0  0  0  0  0  0
   14.7275  -16.6492   24.2080 O   0  0  0  0  0  0  0  0  0  0  0  0
    9.9951  -14.9656   24.5366 O   0  0  0  0  0  0  0  0  0  0  0  0
  1  2  1  0
  2  3  2  0
  4  2  1  0
  5  4  1  0
  5  6  1  1
  7  5  1  0
  7  8  2  0
 10  9  1  1
 10 11  1  0
 10 12  1  0
 12 13  1  6
 13  7  1  0
 14 12  1  0
 15 14  2  0
 16 14  1  0
 17 16  1  0
 17 21  1  0
 17 18  1  1
 19 18  1  0
 20 19  2  0
 21 22  2  0
 21 24  1  0
 23 19  1  0
M  END
$$$$
