NVD.pdb
     RDKit          3D

 24 23  0  0  1  0  0  0  0  0999 V2000
    5.8492  -17.8770   20.8457 N   0  0  0  0  0  0  0  0  0  0  0  0
    7.2642  -17.8680   20.8054 C   0  0  0  0  0  0  0  0  0  0  0  0
    7.8179  -18.3525   19.7727 O   0  0  0  0  0  0  0  0  0  0  0  0
    8.0231  -17.3083   21.9401 C   0  0  0  0  0  0  0  0  0  0  0  0
    7.8828  -15.8224   21.9491 C   0  0  2  0  0  0  0  0  0  0  0  0
    8.5611  -15.3164   20.7700 N   0  0  0  0  0  0  0  0  0  0  0  0
    8.5310  -15.1944   23.1302 C   0  0  0  0  0  0  0  0  0  0  0  0
    9.7727  -15.0530   23.1715 O   0  0  0  0  0  0  0  0  0  0  0  0
    7.8929  -12.6861   27.4067 C   0  0  0  0  0  0  0  0  0  0  0  0
    7.3716  -13.2490   26.1145 C   0  0  1  0  0  0  0  0  0  0  0  0
    6.9888  -12.1583   25.1403 C   0  0  0  0  0  0  0  0  0  0  0  0
    8.3358  -14.2030   25.4590 C   0  0  2  0  0  0  0  0  0  0  0  0
    7.7661  -14.7325   24.2532 N   0  0  0  0  0  0  0  0  0  0  0  0
    8.7923  -15.2671   26.3959 C   0  0  0  0  0  0  0  0  0  0  0  0
    7.9027  -16.0592   26.7983 O   0  0  0  0  0  0  0  0  0  0  0  0
   10.1081  -15.4210   26.8315 N   0  0  0  0  0  0  0  0  0  0  0  0
   10.5197  -16.5536   27.6818 C   0  0  1  0  0  0  0  0  0  0  0  0
   11.9360  -16.9168   27.4331 C   0  0  0  0  0  0  0  0  0  0  0  0
   12.2959  -17.2223   26.0505 C   0  0  0  0  0  0  0  0  0  0  0  0
   11.6025  -17.8696   25.2333 O   0  0  0  0  0  0  0  0  0  0  0  0
   10.3099  -16.1564   29.1172 C   0  0  0  0  0  0  0  0  0  0  0  0
   10.0814  -16.9564   30.0458 O   0  0  0  0  0  0  0  0  0  0  0  0
   13.5303  -16.7708   25.5318 O   0  0  0  0  0  0  0  0  0  0  0  0
   10.3618  -14.8063   29.4946 O   0  0  0  0  0  0  0  0  0  0  0  0
  1  2  1  0
  2  3  2  0
  4  2  1  0
  5  4  1  0
  5  6  1  6
  7  5  1  0
  7  8  2  0
 10  9  1  1
 10 11  1  0
 10 12  1  0
 12 13  1  6
 13  7  1  0
 14 12  1  0
 15 14  2  0
 16 14  1  0
 17 16  1  0
 17 21  1  0
 17 18  1  1
 19 18  1  0
 20 19  2  0
 21 22  2  0
 21 24  1  0
 23 19  1  0
M  END
$$$$
