EAW.pdb
     RDKit          3D

 29 30  0  0  1  0  0  0  0  0999 V2000
    8.4516  -17.9917   20.6211 N   0  0  0  0  0  0  0  0  0  0  0  0
    9.5853  -18.5841   19.9745 C   0  0  1  0  0  0  0  0  0  0  0  0
    9.5516  -18.4451   18.4807 C   0  0  0  0  0  0  0  0  0  0  0  0
   10.7158  -19.0775   17.7729 C   0  0  0  0  0  0  0  0  0  0  0  0
   10.5948  -18.7429   16.3361 C   0  0  0  0  0  0  0  0  0  0  0  0
    9.5778  -19.0629   15.7057 O   0  0  0  0  0  0  0  0  0  0  0  0
   10.8220  -18.1049   20.5931 C   0  0  0  0  0  0  0  0  0  0  0  0
   11.9714  -18.5454   20.2974 O   0  0  0  0  0  0  0  0  0  0  0  0
   11.6144  -18.0729   15.6917 O   0  0  0  0  0  0  0  0  0  0  0  0
   12.4570  -15.3830   21.6250 C   0  0  0  0  0  0  0  0  0  0  0  0
   12.0208  -16.6792   22.2664 C   0  0  2  0  0  0  0  0  0  0  0  0
   10.7815  -17.0889   21.5871 N   0  0  0  0  0  0  0  0  0  0  0  0
   11.7194  -16.4359   23.7030 C   0  0  0  0  0  0  0  0  0  0  0  0
   12.2097  -15.4462   24.3122 O   0  0  0  0  0  0  0  0  0  0  0  0
   10.8814  -17.3072   24.4055 N   0  0  0  0  0  0  0  0  0  0  0  0
    9.8275  -16.8596   25.3447 C   0  0  1  0  0  0  0  0  0  0  0  0
    9.0411  -15.8411   24.6003 C   0  0  0  0  0  0  0  0  0  0  0  0
    7.8611  -15.2776   25.2468 C   0  0  0  0  0  0  0  0  0  0  0  0
    6.6514  -15.9290   25.5400 C   0  0  0  0  0  0  0  0  0  0  0  0
    5.8031  -15.0810   26.1021 N   0  0  0  0  0  0  0  0  0  0  0  0
    6.3685  -13.8674   26.2143 C   0  0  0  0  0  0  0  0  0  0  0  0
    5.9733  -12.6485   26.7173 C   0  0  0  0  0  0  0  0  0  0  0  0
    6.8176  -11.5611   26.7034 C   0  0  0  0  0  0  0  0  0  0  0  0
    8.0893  -11.6518   26.1856 C   0  0  0  0  0  0  0  0  0  0  0  0
    8.4782  -12.8703   25.6842 C   0  0  0  0  0  0  0  0  0  0  0  0
    7.6571  -13.9882   25.6798 C   0  0  0  0  0  0  0  0  0  0  0  0
    9.0880  -18.0530   25.7576 C   0  0  0  0  0  0  0  0  0  0  0  0
    8.3489  -18.0241   26.7890 O   0  0  0  0  0  0  0  0  0  0  0  0
    9.1517  -19.2647   25.0467 O   0  0  0  0  0  0  0  0  0  0  0  0
  2  1  1  1
  3  4  1  0
  3  2  1  0
  4  5  1  0
  5  9  1  0
  5  6  2  0
  7  8  2  0
  7  2  1  0
 11 10  1  6
 11 12  1  0
 11 13  1  0
 12  7  1  0
 13 15  1  0
 14 13  2  0
 15 16  1  0
 16 27  1  0
 16 17  1  6
 18 17  1  0
 19 18  2  0
 20 19  1  0
 21 20  1  0
 21 26  2  0
 22 23  2  0
 22 21  1  0
 23 24  1  0
 24 25  2  0
 26 25  1  0
 26 18  1  0
 27 28  2  0
 27 29  1  0
M  END
$$$$
