EAW.pdb
     RDKit          3D

 29 30  0  0  1  0  0  0  0  0999 V2000
    7.9025  -18.7547   19.3715 N   0  0  0  0  0  0  0  0  0  0  0  0
    9.2158  -18.2263   19.1473 C   0  0  1  0  0  0  0  0  0  0  0  0
    9.6710  -18.3618   17.7238 C   0  0  0  0  0  0  0  0  0  0  0  0
    9.2837  -19.6573   17.0697 C   0  0  0  0  0  0  0  0  0  0  0  0
    9.7695  -19.6100   15.6724 C   0  0  0  0  0  0  0  0  0  0  0  0
   10.6622  -20.3821   15.2970 O   0  0  0  0  0  0  0  0  0  0  0  0
    9.3058  -16.8655   19.6782 C   0  0  0  0  0  0  0  0  0  0  0  0
   10.3450  -16.1473   19.5966 O   0  0  0  0  0  0  0  0  0  0  0  0
    9.2304  -18.7055   14.7809 O   0  0  0  0  0  0  0  0  0  0  0  0
    6.8928  -14.4800   21.2365 C   0  0  0  0  0  0  0  0  0  0  0  0
    8.2931  -14.9051   20.8619 C   0  0  2  0  0  0  0  0  0  0  0  0
    8.1897  -16.2735   20.3308 N   0  0  0  0  0  0  0  0  0  0  0  0
    9.1393  -14.9309   22.0854 C   0  0  0  0  0  0  0  0  0  0  0  0
    9.9678  -14.0099   22.3231 O   0  0  0  0  0  0  0  0  0  0  0  0
    9.0284  -15.9844   22.9979 N   0  0  0  0  0  0  0  0  0  0  0  0
    9.8792  -16.1257   24.2017 C   0  0  1  0  0  0  0  0  0  0  0  0
    9.6237  -14.9057   25.0119 C   0  0  0  0  0  0  0  0  0  0  0  0
    8.2931  -14.7266   25.5824 C   0  0  0  0  0  0  0  0  0  0  0  0
    7.2782  -15.6898   25.7085 C   0  0  0  0  0  0  0  0  0  0  0  0
    6.1985  -15.1443   26.2484 N   0  0  0  0  0  0  0  0  0  0  0  0
    6.4164  -13.8436   26.5048 C   0  0  0  0  0  0  0  0  0  0  0  0
    5.6799  -12.8202   27.0573 C   0  0  0  0  0  0  0  0  0  0  0  0
    6.2086  -11.5578   27.2059 C   0  0  0  0  0  0  0  0  0  0  0  0
    7.4941  -11.2710   26.8073 C   0  0  0  0  0  0  0  0  0  0  0  0
    8.2243  -12.2958   26.2559 C   0  0  0  0  0  0  0  0  0  0  0  0
    7.7273  -13.5800   26.0890 C   0  0  0  0  0  0  0  0  0  0  0  0
    9.5162  -17.3939   24.8353 C   0  0  0  0  0  0  0  0  0  0  0  0
    8.4965  -18.0386   24.4411 O   0  0  0  0  0  0  0  0  0  0  0  0
   10.2639  -17.9545   25.8862 O   0  0  0  0  0  0  0  0  0  0  0  0
  2  1  1  6
  3  4  1  0
  3  2  1  0
  4  5  1  0
  5  9  1  0
  5  6  2  0
  7  8  2  0
  7  2  1  0
 11 10  1  1
 11 12  1  0
 11 13  1  0
 12  7  1  0
 13 15  1  0
 14 13  2  0
 15 16  1  0
 16 27  1  0
 16 17  1  1
 18 17  1  0
 19 18  2  0
 20 19  1  0
 21 20  1  0
 21 26  2  0
 22 23  2  0
 22 21  1  0
 23 24  1  0
 24 25  2  0
 26 25  1  0
 26 18  1  0
 27 28  2  0
 27 29  1  0
M  END
$$$$
