EAW.pdb
     RDKit          3D

 29 30  0  0  1  0  0  0  0  0999 V2000
   11.1281  -16.7292   20.0143 N   0  0  0  0  0  0  0  0  0  0  0  0
    9.7791  -17.2132   20.0330 C   0  0  1  0  0  0  0  0  0  0  0  0
    9.3702  -17.8701   18.7472 C   0  0  0  0  0  0  0  0  0  0  0  0
    8.0163  -17.4579   18.2437 C   0  0  0  0  0  0  0  0  0  0  0  0
    8.0865  -17.4207   16.7657 C   0  0  0  0  0  0  0  0  0  0  0  0
    9.1642  -17.6188   16.1883 O   0  0  0  0  0  0  0  0  0  0  0  0
    9.5585  -18.0362   21.2229 C   0  0  0  0  0  0  0  0  0  0  0  0
    8.4132  -18.2886   21.6994 O   0  0  0  0  0  0  0  0  0  0  0  0
    6.9518  -17.1649   16.0237 O   0  0  0  0  0  0  0  0  0  0  0  0
   11.3208  -20.6491   22.9700 C   0  0  0  0  0  0  0  0  0  0  0  0
   10.4256  -19.4400   23.1062 C   0  0  2  0  0  0  0  0  0  0  0  0
   10.6609  -18.6058   21.9171 N   0  0  0  0  0  0  0  0  0  0  0  0
   10.8250  -18.6706   24.3154 C   0  0  0  0  0  0  0  0  0  0  0  0
   11.7904  -19.0451   25.0356 O   0  0  0  0  0  0  0  0  0  0  0  0
   10.1311  -17.5112   24.6750 N   0  0  0  0  0  0  0  0  0  0  0  0
   10.4306  -16.7131   25.8859 C   0  0  1  0  0  0  0  0  0  0  0  0
   10.0402  -15.3192   25.5472 C   0  0  0  0  0  0  0  0  0  0  0  0
    8.6971  -15.0897   25.0263 C   0  0  0  0  0  0  0  0  0  0  0  0
    7.4749  -15.4405   25.6235 C   0  0  0  0  0  0  0  0  0  0  0  0
    6.4681  -15.0963   24.8344 N   0  0  0  0  0  0  0  0  0  0  0  0
    6.9347  -14.5204   23.7139 C   0  0  0  0  0  0  0  0  0  0  0  0
    6.3646  -13.9730   22.5868 C   0  0  0  0  0  0  0  0  0  0  0  0
    7.1379  -13.4260   21.5877 C   0  0  0  0  0  0  0  0  0  0  0  0
    8.5108  -13.4058   21.6782 C   0  0  0  0  0  0  0  0  0  0  0  0
    9.0745  -13.9541   22.8047 C   0  0  0  0  0  0  0  0  0  0  0  0
    8.3300  -14.5148   23.8320 C   0  0  0  0  0  0  0  0  0  0  0  0
    9.6958  -17.3249   26.9938 C   0  0  0  0  0  0  0  0  0  0  0  0
    8.7768  -18.1697   26.7643 O   0  0  0  0  0  0  0  0  0  0  0  0
    9.9666  -17.0199   28.3396 O   0  0  0  0  0  0  0  0  0  0  0  0
  2  1  1  6
  3  4  1  0
  3  2  1  0
  4  5  1  0
  5  9  1  0
  5  6  2  0
  7  8  2  0
  7  2  1  0
 11 10  1  6
 11 12  1  0
 11 13  1  0
 12  7  1  0
 13 15  1  0
 14 13  2  0
 15 16  1  0
 16 27  1  0
 16 17  1  6
 18 17  1  0
 19 18  2  0
 20 19  1  0
 21 20  1  0
 21 26  2  0
 22 23  2  0
 22 21  1  0
 23 24  1  0
 24 25  2  0
 26 25  1  0
 26 18  1  0
 27 28  2  0
 27 29  1  0
M  END
$$$$
