EAW.pdb
     RDKit          3D

 29 30  0  0  1  0  0  0  0  0999 V2000
    7.9208  -19.4052   21.7340 N   0  0  0  0  0  0  0  0  0  0  0  0
    9.1218  -19.1321   21.0008 C   0  0  1  0  0  0  0  0  0  0  0  0
    9.0244  -19.5033   19.5500 C   0  0  0  0  0  0  0  0  0  0  0  0
    9.9377  -20.6206   19.1334 C   0  0  0  0  0  0  0  0  0  0  0  0
   10.3372  -20.3659   17.7310 C   0  0  0  0  0  0  0  0  0  0  0  0
    9.9987  -19.3159   17.1681 O   0  0  0  0  0  0  0  0  0  0  0  0
    9.5519  -17.7537   21.2391 C   0  0  0  0  0  0  0  0  0  0  0  0
   10.6952  -17.3107   20.9245 O   0  0  0  0  0  0  0  0  0  0  0  0
   11.0885  -21.2970   17.0439 O   0  0  0  0  0  0  0  0  0  0  0  0
    7.8885  -14.5958   22.2382 C   0  0  0  0  0  0  0  0  0  0  0  0
    9.1290  -15.4504   22.1255 C   0  0  2  0  0  0  0  0  0  0  0  0
    8.6717  -16.8228   21.8560 N   0  0  0  0  0  0  0  0  0  0  0  0
    9.8522  -15.4352   23.4256 C   0  0  0  0  0  0  0  0  0  0  0  0
   10.6862  -14.5282   23.6958 O   0  0  0  0  0  0  0  0  0  0  0  0
    9.6169  -16.4336   24.3757 N   0  0  0  0  0  0  0  0  0  0  0  0
   10.3950  -16.5812   25.6270 C   0  0  1  0  0  0  0  0  0  0  0  0
    9.8344  -15.5711   26.5626 C   0  0  0  0  0  0  0  0  0  0  0  0
    8.4230  -15.2256   26.4349 C   0  0  0  0  0  0  0  0  0  0  0  0
    7.3444  -16.0973   26.2107 C   0  0  0  0  0  0  0  0  0  0  0  0
    6.2154  -15.4101   26.1219 N   0  0  0  0  0  0  0  0  0  0  0  0
    6.4595  -14.0978   26.2750 C   0  0  0  0  0  0  0  0  0  0  0  0
    5.6901  -12.9565   26.2906 C   0  0  0  0  0  0  0  0  0  0  0  0
    6.2530  -11.7170   26.4955 C   0  0  0  0  0  0  0  0  0  0  0  0
    7.6072  -11.5721   26.6926 C   0  0  0  0  0  0  0  0  0  0  0  0
    8.3704  -12.7143   26.6753 C   0  0  0  0  0  0  0  0  0  0  0  0
    7.8410  -13.9800   26.4715 C   0  0  0  0  0  0  0  0  0  0  0  0
   10.2650  -17.9763   26.0493 C   0  0  0  0  0  0  0  0  0  0  0  0
   10.8922  -18.3986   27.0686 O   0  0  0  0  0  0  0  0  0  0  0  0
    9.4529  -18.8995   25.3667 O   0  0  0  0  0  0  0  0  0  0  0  0
  2  1  1  6
  3  4  1  0
  3  2  1  0
  4  5  1  0
  5  9  1  0
  5  6  2  0
  7  8  2  0
  7  2  1  0
 11 10  1  1
 11 12  1  0
 11 13  1  0
 12  7  1  0
 13 15  1  0
 14 13  2  0
 15 16  1  0
 16 27  1  0
 16 17  1  1
 18 17  1  0
 19 18  2  0
 20 19  1  0
 21 20  1  0
 21 26  2  0
 22 23  2  0
 22 21  1  0
 23 24  1  0
 24 25  2  0
 26 25  1  0
 26 18  1  0
 27 28  2  0
 27 29  1  0
M  END
$$$$
