EAW.pdb
     RDKit          3D

 29 30  0  0  1  0  0  0  0  0999 V2000
    8.8631  -13.0215   19.8333 N   0  0  0  0  0  0  0  0  0  0  0  0
    7.7983  -13.7662   19.2284 C   0  0  1  0  0  0  0  0  0  0  0  0
    7.8377  -13.7395   17.7285 C   0  0  0  0  0  0  0  0  0  0  0  0
    9.0208  -14.4429   17.1269 C   0  0  0  0  0  0  0  0  0  0  0  0
    8.9303  -14.2836   15.6581 C   0  0  0  0  0  0  0  0  0  0  0  0
    8.0201  -13.6073   15.1601 O   0  0  0  0  0  0  0  0  0  0  0  0
    7.7382  -15.1110   19.8025 C   0  0  0  0  0  0  0  0  0  0  0  0
    6.9331  -16.0061   19.4111 O   0  0  0  0  0  0  0  0  0  0  0  0
    9.8595  -14.8877   14.8364 O   0  0  0  0  0  0  0  0  0  0  0  0
    8.7694  -17.7771   20.2140 C   0  0  0  0  0  0  0  0  0  0  0  0
    8.5807  -16.8518   21.3929 C   0  0  2  0  0  0  0  0  0  0  0  0
    8.6128  -15.4802   20.8610 N   0  0  0  0  0  0  0  0  0  0  0  0
    9.7183  -17.0245   22.3362 C   0  0  0  0  0  0  0  0  0  0  0  0
   10.9116  -16.9973   21.9284 O   0  0  0  0  0  0  0  0  0  0  0  0
    9.4805  -17.2211   23.6999 N   0  0  0  0  0  0  0  0  0  0  0  0
   10.0606  -16.3757   24.7684 C   0  0  1  0  0  0  0  0  0  0  0  0
    9.4644  -15.0279   24.5736 C   0  0  0  0  0  0  0  0  0  0  0  0
    8.1349  -14.7797   25.1203 C   0  0  0  0  0  0  0  0  0  0  0  0
    7.0409  -15.6606   25.1459 C   0  0  0  0  0  0  0  0  0  0  0  0
    5.9923  -15.0671   25.6966 N   0  0  0  0  0  0  0  0  0  0  0  0
    6.3077  -13.8118   26.0566 C   0  0  0  0  0  0  0  0  0  0  0  0
    5.6398  -12.7733   26.6653 C   0  0  0  0  0  0  0  0  0  0  0  0
    6.2650  -11.5742   26.9233 C   0  0  0  0  0  0  0  0  0  0  0  0
    7.5821  -11.3683   26.5821 C   0  0  0  0  0  0  0  0  0  0  0  0
    8.2436  -12.4077   25.9742 C   0  0  0  0  0  0  0  0  0  0  0  0
    7.6487  -13.6297   25.6971 C   0  0  0  0  0  0  0  0  0  0  0  0
    9.7526  -17.0261   26.0426 C   0  0  0  0  0  0  0  0  0  0  0  0
   10.3014  -16.6268   27.1152 O   0  0  0  0  0  0  0  0  0  0  0  0
    8.8494  -18.0992   26.1441 O   0  0  0  0  0  0  0  0  0  0  0  0
  2  1  1  1
  3  4  1  0
  3  2  1  0
  4  5  1  0
  5  9  1  0
  5  6  2  0
  7  8  2  0
  7  2  1  0
 11 10  1  6
 11 12  1  0
 11 13  1  0
 12  7  1  0
 13 15  1  0
 14 13  2  0
 15 16  1  0
 16 27  1  0
 16 17  1  1
 18 17  1  0
 19 18  2  0
 20 19  1  0
 21 20  1  0
 21 26  2  0
 22 23  2  0
 22 21  1  0
 23 24  1  0
 24 25  2  0
 26 25  1  0
 26 18  1  0
 27 28  2  0
 27 29  1  0
M  END
$$$$
