EAW.pdb
     RDKit          3D

 29 30  0  0  1  0  0  0  0  0999 V2000
    8.9643  -19.9193   20.7423 N   0  0  0  0  0  0  0  0  0  0  0  0
   10.3417  -19.5445   20.6139 C   0  0  1  0  0  0  0  0  0  0  0  0
   10.9611  -20.0060   19.3274 C   0  0  0  0  0  0  0  0  0  0  0  0
   10.2430  -19.5424   18.0923 C   0  0  0  0  0  0  0  0  0  0  0  0
   10.9815  -20.0745   16.9251 C   0  0  0  0  0  0  0  0  0  0  0  0
   11.9970  -20.7637   17.0922 O   0  0  0  0  0  0  0  0  0  0  0  0
   10.4979  -18.1129   20.8745 C   0  0  0  0  0  0  0  0  0  0  0  0
   11.6094  -17.5086   20.8315 O   0  0  0  0  0  0  0  0  0  0  0  0
   10.5426  -19.8054   15.6451 O   0  0  0  0  0  0  0  0  0  0  0  0
    8.1465  -15.2651   21.3764 C   0  0  0  0  0  0  0  0  0  0  0  0
    9.5308  -15.8682   21.4184 C   0  0  2  0  0  0  0  0  0  0  0  0
    9.3671  -17.3139   21.1981 N   0  0  0  0  0  0  0  0  0  0  0  0
   10.1156  -15.6547   22.7697 C   0  0  0  0  0  0  0  0  0  0  0  0
   10.9529  -14.7347   22.9784 O   0  0  0  0  0  0  0  0  0  0  0  0
    9.7433  -16.4768   23.8375 N   0  0  0  0  0  0  0  0  0  0  0  0
   10.2240  -16.2933   25.2262 C   0  0  1  0  0  0  0  0  0  0  0  0
    9.7493  -14.9448   25.6339 C   0  0  0  0  0  0  0  0  0  0  0  0
    8.3104  -14.7181   25.7121 C   0  0  0  0  0  0  0  0  0  0  0  0
    7.2835  -15.6592   25.5289 C   0  0  0  0  0  0  0  0  0  0  0  0
    6.1022  -15.0717   25.6474 N   0  0  0  0  0  0  0  0  0  0  0  0
    6.2604  -13.7628   25.9057 C   0  0  0  0  0  0  0  0  0  0  0  0
    5.4123  -12.7022   26.1315 C   0  0  0  0  0  0  0  0  0  0  0  0
    5.8981  -11.4414   26.3953 C   0  0  0  0  0  0  0  0  0  0  0  0
    7.2508  -11.1935   26.4433 C   0  0  0  0  0  0  0  0  0  0  0  0
    8.0926  -12.2553   26.2165 C   0  0  0  0  0  0  0  0  0  0  0  0
    7.6422  -13.5392   25.9471 C   0  0  0  0  0  0  0  0  0  0  0  0
    9.7014  -17.4125   26.0109 C   0  0  0  0  0  0  0  0  0  0  0  0
    8.8653  -18.2188   25.4994 O   0  0  0  0  0  0  0  0  0  0  0  0
   10.0932  -17.6510   27.3403 O   0  0  0  0  0  0  0  0  0  0  0  0
  2  1  1  6
  3  4  1  0
  3  2  1  0
  4  5  1  0
  5  9  1  0
  5  6  2  0
  7  8  2  0
  7  2  1  0
 11 10  1  1
 11 12  1  0
 11 13  1  0
 12  7  1  0
 13 15  1  0
 14 13  2  0
 15 16  1  0
 16 27  1  0
 16 17  1  1
 18 17  1  0
 19 18  2  0
 20 19  1  0
 21 20  1  0
 21 26  2  0
 22 23  2  0
 22 21  1  0
 23 24  1  0
 24 25  2  0
 26 25  1  0
 26 18  1  0
 27 28  2  0
 27 29  1  0
M  END
$$$$
