EAW.pdb
     RDKit          3D

 29 30  0  0  1  0  0  0  0  0999 V2000
    7.9440  -18.7744   19.1883 N   0  0  0  0  0  0  0  0  0  0  0  0
    7.5871  -18.2793   20.4852 C   0  0  1  0  0  0  0  0  0  0  0  0
    7.7341  -19.3062   21.5695 C   0  0  0  0  0  0  0  0  0  0  0  0
    8.8409  -20.2956   21.3405 C   0  0  0  0  0  0  0  0  0  0  0  0
    8.8263  -21.2461   22.4751 C   0  0  0  0  0  0  0  0  0  0  0  0
    8.0296  -21.0876   23.4100 O   0  0  0  0  0  0  0  0  0  0  0  0
    8.2873  -17.0221   20.7516 C   0  0  0  0  0  0  0  0  0  0  0  0
    9.4120  -16.7253   20.2521 O   0  0  0  0  0  0  0  0  0  0  0  0
    9.7003  -22.3135   22.4969 O   0  0  0  0  0  0  0  0  0  0  0  0
    7.2439  -13.7476   22.0686 C   0  0  0  0  0  0  0  0  0  0  0  0
    8.3487  -14.7289   21.7551 C   0  0  2  0  0  0  0  0  0  0  0  0
    7.7123  -16.0481   21.6133 N   0  0  0  0  0  0  0  0  0  0  0  0
    9.2978  -14.7776   22.8998 C   0  0  0  0  0  0  0  0  0  0  0  0
   10.0262  -13.7877   23.1838 O   0  0  0  0  0  0  0  0  0  0  0  0
    9.3979  -15.9302   23.6849 N   0  0  0  0  0  0  0  0  0  0  0  0
   10.3811  -16.0998   24.7792 C   0  0  1  0  0  0  0  0  0  0  0  0
    9.7519  -15.4808   25.9754 C   0  0  0  0  0  0  0  0  0  0  0  0
    8.3135  -15.2398   25.9474 C   0  0  0  0  0  0  0  0  0  0  0  0
    7.2935  -16.1711   25.6907 C   0  0  0  0  0  0  0  0  0  0  0  0
    6.1126  -15.5717   25.7212 N   0  0  0  0  0  0  0  0  0  0  0  0
    6.2645  -14.2639   25.9884 C   0  0  0  0  0  0  0  0  0  0  0  0
    5.4127  -13.1945   26.1496 C   0  0  0  0  0  0  0  0  0  0  0  0
    5.8904  -11.9379   26.4465 C   0  0  0  0  0  0  0  0  0  0  0  0
    7.2383  -11.7033   26.5933 C   0  0  0  0  0  0  0  0  0  0  0  0
    8.0839  -12.7738   26.4306 C   0  0  0  0  0  0  0  0  0  0  0  0
    7.6416  -14.0538   26.1308 C   0  0  0  0  0  0  0  0  0  0  0  0
   10.6635  -17.5320   24.8821 C   0  0  0  0  0  0  0  0  0  0  0  0
    9.9861  -18.3688   24.2098 O   0  0  0  0  0  0  0  0  0  0  0  0
   11.6801  -18.0441   25.7079 O   0  0  0  0  0  0  0  0  0  0  0  0
  2  1  1  6
  3  4  1  0
  3  2  1  0
  4  5  1  0
  5  9  1  0
  5  6  2  0
  7  8  2  0
  7  2  1  0
 11 10  1  1
 11 12  1  0
 11 13  1  0
 12  7  1  0
 13 15  1  0
 14 13  2  0
 15 16  1  0
 16 27  1  0
 16 17  1  1
 18 17  1  0
 19 18  2  0
 20 19  1  0
 21 20  1  0
 21 26  2  0
 22 23  2  0
 22 21  1  0
 23 24  1  0
 24 25  2  0
 26 25  1  0
 26 18  1  0
 27 28  2  0
 27 29  1  0
M  END
$$$$
