EAW.pdb
     RDKit          3D

 29 30  0  0  1  0  0  0  0  0999 V2000
    8.8668  -19.3356   20.7817 N   0  0  0  0  0  0  0  0  0  0  0  0
   10.1370  -18.7252   20.5202 C   0  0  1  0  0  0  0  0  0  0  0  0
   10.6836  -19.0592   19.1632 C   0  0  0  0  0  0  0  0  0  0  0  0
   10.4637  -17.9943   18.1269 C   0  0  0  0  0  0  0  0  0  0  0  0
   11.0387  -18.4885   16.8557 C   0  0  0  0  0  0  0  0  0  0  0  0
   10.6777  -19.5784   16.3911 O   0  0  0  0  0  0  0  0  0  0  0  0
   10.0715  -17.2908   20.8033 C   0  0  0  0  0  0  0  0  0  0  0  0
   11.0490  -16.5005   20.6542 O   0  0  0  0  0  0  0  0  0  0  0  0
   11.9798  -17.7376   16.1818 O   0  0  0  0  0  0  0  0  0  0  0  0
    7.3634  -14.8502   21.4275 C   0  0  0  0  0  0  0  0  0  0  0  0
    8.8109  -15.2625   21.5560 C   0  0  2  0  0  0  0  0  0  0  0  0
    8.8641  -16.7058   21.2745 N   0  0  0  0  0  0  0  0  0  0  0  0
    9.2618  -15.0323   22.9550 C   0  0  0  0  0  0  0  0  0  0  0  0
    9.3889  -13.8643   23.4139 O   0  0  0  0  0  0  0  0  0  0  0  0
    9.5540  -16.1155   23.7894 N   0  0  0  0  0  0  0  0  0  0  0  0
   10.0053  -15.9770   25.1930 C   0  0  1  0  0  0  0  0  0  0  0  0
    8.8548  -16.4197   26.0238 C   0  0  0  0  0  0  0  0  0  0  0  0
    7.6644  -15.5771   26.0529 C   0  0  0  0  0  0  0  0  0  0  0  0
    6.3472  -15.9435   25.7301 C   0  0  0  0  0  0  0  0  0  0  0  0
    5.5429  -14.8973   25.8465 N   0  0  0  0  0  0  0  0  0  0  0  0
    6.2414  -13.8182   26.2370 C   0  0  0  0  0  0  0  0  0  0  0  0
    5.9347  -12.5068   26.5219 C   0  0  0  0  0  0  0  0  0  0  0  0
    6.9038  -11.6178   26.9293 C   0  0  0  0  0  0  0  0  0  0  0  0
    8.2165  -12.0068   27.0670 C   0  0  0  0  0  0  0  0  0  0  0  0
    8.5171  -13.3164   26.7806 C   0  0  0  0  0  0  0  0  0  0  0  0
    7.5699  -14.2415   26.3672 C   0  0  0  0  0  0  0  0  0  0  0  0
   11.2272  -16.7706   25.3295 C   0  0  0  0  0  0  0  0  0  0  0  0
   11.6323  -17.4941   24.3685 O   0  0  0  0  0  0  0  0  0  0  0  0
   12.0018  -16.7692   26.5033 O   0  0  0  0  0  0  0  0  0  0  0  0
  2  1  1  6
  3  4  1  0
  3  2  1  0
  4  5  1  0
  5  9  1  0
  5  6  2  0
  7  8  2  0
  7  2  1  0
 11 10  1  1
 11 12  1  0
 11 13  1  0
 12  7  1  0
 13 15  1  0
 14 13  2  0
 15 16  1  0
 16 27  1  0
 16 17  1  1
 18 17  1  0
 19 18  2  0
 20 19  1  0
 21 20  1  0
 21 26  2  0
 22 23  2  0
 22 21  1  0
 23 24  1  0
 24 25  2  0
 26 25  1  0
 26 18  1  0
 27 28  2  0
 27 29  1  0
M  END
$$$$
