EAW.pdb
     RDKit          3D

 29 30  0  0  1  0  0  0  0  0999 V2000
    7.8745  -18.9452   20.0219 N   0  0  0  0  0  0  0  0  0  0  0  0
    9.0369  -18.3224   19.4605 C   0  0  1  0  0  0  0  0  0  0  0  0
    9.0914  -18.4157   17.9637 C   0  0  0  0  0  0  0  0  0  0  0  0
    9.4592  -19.7748   17.4404 C   0  0  0  0  0  0  0  0  0  0  0  0
    9.5008  -19.6838   15.9636 C   0  0  0  0  0  0  0  0  0  0  0  0
    8.8459  -20.4757   15.2722 O   0  0  0  0  0  0  0  0  0  0  0  0
    9.1775  -16.9620   19.9815 C   0  0  0  0  0  0  0  0  0  0  0  0
   10.1196  -16.1804   19.6587 O   0  0  0  0  0  0  0  0  0  0  0  0
   10.2695  -18.7164   15.3497 O   0  0  0  0  0  0  0  0  0  0  0  0
    6.9050  -14.6244   21.7149 C   0  0  0  0  0  0  0  0  0  0  0  0
    8.3042  -15.0351   21.3209 C   0  0  2  0  0  0  0  0  0  0  0  0
    8.2279  -16.4444   20.9046 N   0  0  0  0  0  0  0  0  0  0  0  0
    9.1949  -14.9360   22.5086 C   0  0  0  0  0  0  0  0  0  0  0  0
    9.8827  -13.9003   22.7216 O   0  0  0  0  0  0  0  0  0  0  0  0
    9.2839  -15.9975   23.4142 N   0  0  0  0  0  0  0  0  0  0  0  0
   10.2518  -16.0472   24.5339 C   0  0  1  0  0  0  0  0  0  0  0  0
    9.8314  -14.9699   25.4681 C   0  0  0  0  0  0  0  0  0  0  0  0
    8.4028  -14.7383   25.6507 C   0  0  0  0  0  0  0  0  0  0  0  0
    7.3661  -15.6840   25.5842 C   0  0  0  0  0  0  0  0  0  0  0  0
    6.1969  -15.0907   25.7731 N   0  0  0  0  0  0  0  0  0  0  0  0
    6.3731  -13.7733   25.9690 C   0  0  0  0  0  0  0  0  0  0  0  0
    5.5438  -12.7038   26.2209 C   0  0  0  0  0  0  0  0  0  0  0  0
    6.0469  -11.4347   26.3983 C   0  0  0  0  0  0  0  0  0  0  0  0
    7.3989  -11.1872   26.3305 C   0  0  0  0  0  0  0  0  0  0  0  0
    8.2218  -12.2580   26.0781 C   0  0  0  0  0  0  0  0  0  0  0  0
    7.7534  -13.5504   25.8932 C   0  0  0  0  0  0  0  0  0  0  0  0
   10.2101  -17.4063   25.0750 C   0  0  0  0  0  0  0  0  0  0  0  0
   10.9701  -17.7371   26.0361 O   0  0  0  0  0  0  0  0  0  0  0  0
    9.3422  -18.3927   24.5736 O   0  0  0  0  0  0  0  0  0  0  0  0
  2  1  1  6
  3  4  1  0
  3  2  1  0
  4  5  1  0
  5  9  1  0
  5  6  2  0
  7  8  2  0
  7  2  1  0
 11 10  1  1
 11 12  1  0
 11 13  1  0
 12  7  1  0
 13 15  1  0
 14 13  2  0
 15 16  1  0
 16 27  1  0
 16 17  1  1
 18 17  1  0
 19 18  2  0
 20 19  1  0
 21 20  1  0
 21 26  2  0
 22 23  2  0
 22 21  1  0
 23 24  1  0
 24 25  2  0
 26 25  1  0
 26 18  1  0
 27 28  2  0
 27 29  1  0
M  END
$$$$
