LWY.pdb
     RDKit          3D

 35 37  0  0  1  0  0  0  0  0999 V2000
    8.0840  -11.8736   19.1652 C   0  0  0  0  0  0  0  0  0  0  0  0
    8.0792  -13.3581   19.4509 C   0  0  1  0  0  0  0  0  0  0  0  0
    6.9620  -14.0535   18.7184 C   0  0  0  0  0  0  0  0  0  0  0  0
    9.4185  -14.0056   19.1033 C   0  0  0  0  0  0  0  0  0  0  0  0
    9.3572  -15.4147   19.6554 C   0  0  2  0  0  0  0  0  0  0  0  0
    8.1580  -16.0574   19.1650 N   0  0  0  0  0  0  0  0  0  0  0  0
    9.4210  -15.4432   21.1329 C   0  0  0  0  0  0  0  0  0  0  0  0
   10.4703  -15.0365   21.6846 O   0  0  0  0  0  0  0  0  0  0  0  0
    8.3774  -15.8997   21.9729 N   0  0  0  0  0  0  0  0  0  0  0  0
    8.4090  -15.8374   23.3862 C   0  0  1  0  0  0  0  0  0  0  0  0
    7.1181  -15.8396   24.1170 C   0  0  0  0  0  0  0  0  0  0  0  0
    7.1865  -15.3059   25.5077 C   0  0  0  0  0  0  0  0  0  0  0  0
    7.2202  -16.0480   26.6773 C   0  0  0  0  0  0  0  0  0  0  0  0
    7.2966  -15.2014   27.7075 N   0  0  0  0  0  0  0  0  0  0  0  0
    7.3148  -13.9202   27.2669 C   0  0  0  0  0  0  0  0  0  0  0  0
    7.3824  -12.7318   27.9636 C   0  0  0  0  0  0  0  0  0  0  0  0
    7.3796  -11.5610   27.2390 C   0  0  0  0  0  0  0  0  0  0  0  0
    7.3108  -11.5696   25.8542 C   0  0  0  0  0  0  0  0  0  0  0  0
    7.2447  -12.7787   25.2023 C   0  0  0  0  0  0  0  0  0  0  0  0
    7.2459  -13.9874   25.8993 C   0  0  0  0  0  0  0  0  0  0  0  0
    9.2704  -16.8942   23.9966 C   0  0  0  0  0  0  0  0  0  0  0  0
    9.0267  -18.1122   23.8115 O   0  0  0  0  0  0  0  0  0  0  0  0
   14.6499  -15.1339   20.6179 O   0  0  0  0  0  0  0  0  0  0  0  0
   13.9410  -15.8511   21.5854 C   0  0  0  0  0  0  0  0  0  0  0  0
   14.0287  -17.2298   21.5302 C   0  0  0  0  0  0  0  0  0  0  0  0
   13.3513  -17.9882   22.4583 C   0  0  0  0  0  0  0  0  0  0  0  0
   12.5887  -17.3781   23.4387 C   0  0  0  0  0  0  0  0  0  0  0  0
   11.8894  -18.2496   24.3917 C   0  0  0  0  0  0  0  0  0  0  0  0
   11.1786  -17.4568   25.4761 C   0  0  2  0  0  0  0  0  0  0  0  0
   10.3642  -16.4823   24.7858 N   0  0  0  0  0  0  0  0  0  0  0  0
   12.1346  -16.7664   26.3882 C   0  0  0  0  0  0  0  0  0  0  0  0
   12.9855  -17.4347   27.0291 O   0  0  0  0  0  0  0  0  0  0  0  0
   12.5047  -16.0163   23.4894 C   0  0  0  0  0  0  0  0  0  0  0  0
   13.1822  -15.2683   22.5619 C   0  0  0  0  0  0  0  0  0  0  0  0
   12.1326  -15.4044   26.5667 O   0  0  0  0  0  0  0  0  0  0  0  0
  2  3  1  6
  2  4  1  0
  2  1  1  0
  4  5  1  0
  5  6  1  1
  7  5  1  0
  8  7  2  0
  9  7  1  0
 10 21  1  0
 10  9  1  0
 10 11  1  1
 12 11  1  0
 13 12  2  0
 14 13  1  0
 15 14  1  0
 15 20  2  0
 16 17  2  0
 16 15  1  0
 17 18  1  0
 18 19  2  0
 20 19  1  0
 20 12  1  0
 21 30  1  0
 22 21  2  0
 23 24  1  0
 24 25  2  0
 25 26  1  0
 27 26  2  0
 27 28  1  0
 29 28  1  6
 29 31  1  0
 30 29  1  0
 31 32  2  0
 31 35  1  0
 33 27  1  0
 34 24  1  0
 34 33  2  0
M  END
$$$$
