LWY.pdb
     RDKit          3D

 35 37  0  0  1  0  0  0  0  0999 V2000
    7.0190  -12.5048   16.9992 C   0  0  0  0  0  0  0  0  0  0  0  0
    7.7612  -13.7046   17.5425 C   0  0  1  0  0  0  0  0  0  0  0  0
    8.9333  -14.0659   16.6684 C   0  0  0  0  0  0  0  0  0  0  0  0
    8.2274  -13.4785   18.9796 C   0  0  0  0  0  0  0  0  0  0  0  0
    8.8687  -14.7780   19.4202 C   0  0  2  0  0  0  0  0  0  0  0  0
    8.0089  -15.8767   19.0389 N   0  0  0  0  0  0  0  0  0  0  0  0
    9.1612  -14.7976   20.8700 C   0  0  0  0  0  0  0  0  0  0  0  0
    9.9581  -13.9420   21.3213 O   0  0  0  0  0  0  0  0  0  0  0  0
    8.6036  -15.7182   21.7891 N   0  0  0  0  0  0  0  0  0  0  0  0
    8.8622  -15.7087   23.1803 C   0  0  1  0  0  0  0  0  0  0  0  0
    7.9193  -16.4255   24.0735 C   0  0  0  0  0  0  0  0  0  0  0  0
    7.1519  -15.5492   25.0043 C   0  0  0  0  0  0  0  0  0  0  0  0
    6.1414  -15.9432   25.8667 C   0  0  0  0  0  0  0  0  0  0  0  0
    5.7222  -14.8677   26.5386 N   0  0  0  0  0  0  0  0  0  0  0  0
    6.4169  -13.7695   26.1550 C   0  0  0  0  0  0  0  0  0  0  0  0
    6.3246  -12.4578   26.5712 C   0  0  0  0  0  0  0  0  0  0  0  0
    7.1710  -11.5389   25.9925 C   0  0  0  0  0  0  0  0  0  0  0  0
    8.0881  -11.9134   25.0223 C   0  0  0  0  0  0  0  0  0  0  0  0
    8.1442  -13.2329   24.6389 C   0  0  0  0  0  0  0  0  0  0  0  0
    7.3048  -14.1952   25.2011 C   0  0  0  0  0  0  0  0  0  0  0  0
   10.2407  -16.1735   23.5197 C   0  0  0  0  0  0  0  0  0  0  0  0
   10.8133  -17.0534   22.8304 O   0  0  0  0  0  0  0  0  0  0  0  0
    9.4686  -16.1408   30.7127 O   0  0  0  0  0  0  0  0  0  0  0  0
   10.2825  -15.9410   29.5944 C   0  0  0  0  0  0  0  0  0  0  0  0
   10.0934  -14.7692   28.8853 C   0  0  0  0  0  0  0  0  0  0  0  0
   10.8670  -14.5186   27.7745 C   0  0  0  0  0  0  0  0  0  0  0  0
   11.8261  -15.4302   27.3692 C   0  0  0  0  0  0  0  0  0  0  0  0
   12.6105  -15.0995   26.1724 C   0  0  0  0  0  0  0  0  0  0  0  0
   12.2314  -15.9661   24.9829 C   0  0  2  0  0  0  0  0  0  0  0  0
   10.8783  -15.5941   24.6363 N   0  0  0  0  0  0  0  0  0  0  0  0
   12.2929  -17.4210   25.3028 C   0  0  0  0  0  0  0  0  0  0  0  0
   13.4058  -17.9779   25.4842 O   0  0  0  0  0  0  0  0  0  0  0  0
   12.0094  -16.5861   28.0721 C   0  0  0  0  0  0  0  0  0  0  0  0
   11.2353  -16.8282   29.1771 C   0  0  0  0  0  0  0  0  0  0  0  0
   11.1678  -18.2013   25.4126 O   0  0  0  0  0  0  0  0  0  0  0  0
  2  3  1  6
  2  4  1  0
  2  1  1  0
  4  5  1  0
  5  6  1  1
  7  5  1  0
  8  7  2  0
  9  7  1  0
 10 21  1  0
 10  9  1  0
 10 11  1  1
 12 11  1  0
 13 12  2  0
 14 13  1  0
 15 14  1  0
 15 20  2  0
 16 17  2  0
 16 15  1  0
 17 18  1  0
 18 19  2  0
 20 19  1  0
 20 12  1  0
 21 30  1  0
 22 21  2  0
 23 24  1  0
 24 25  2  0
 25 26  1  0
 27 26  2  0
 27 28  1  0
 29 28  1  1
 29 31  1  0
 30 29  1  0
 31 32  2  0
 31 35  1  0
 33 27  1  0
 34 24  1  0
 34 33  2  0
M  END
$$$$
