LWY.pdb
     RDKit          3D

 35 37  0  0  1  0  0  0  0  0999 V2000
    9.3176  -19.1065   16.7491 C   0  0  0  0  0  0  0  0  0  0  0  0
    8.5797  -19.3072   18.0532 C   0  0  1  0  0  0  0  0  0  0  0  0
    7.6577  -20.4961   17.9836 C   0  0  0  0  0  0  0  0  0  0  0  0
    9.5417  -19.4565   19.2305 C   0  0  0  0  0  0  0  0  0  0  0  0
    8.6899  -19.3684   20.4799 C   0  0  2  0  0  0  0  0  0  0  0  0
    7.3035  -19.5599   20.1152 N   0  0  0  0  0  0  0  0  0  0  0  0
    8.8875  -18.0954   21.2067 C   0  0  0  0  0  0  0  0  0  0  0  0
   10.0626  -17.7092   21.4086 O   0  0  0  0  0  0  0  0  0  0  0  0
    7.8397  -17.2782   21.6939 N   0  0  0  0  0  0  0  0  0  0  0  0
    8.0269  -16.1835   22.5708 C   0  0  1  0  0  0  0  0  0  0  0  0
    7.0060  -15.1073   22.5764 C   0  0  0  0  0  0  0  0  0  0  0  0
    7.4339  -13.8436   23.2422 C   0  0  0  0  0  0  0  0  0  0  0  0
    8.2643  -12.8695   22.7116 C   0  0  0  0  0  0  0  0  0  0  0  0
    8.3898  -11.8912   23.6121 N   0  0  0  0  0  0  0  0  0  0  0  0
    7.6728  -12.1779   24.7255 C   0  0  0  0  0  0  0  0  0  0  0  0
    7.5115  -11.4684   25.8972 C   0  0  0  0  0  0  0  0  0  0  0  0
    6.7131  -12.0168   26.8758 C   0  0  0  0  0  0  0  0  0  0  0  0
    6.0893  -13.2419   26.6956 C   0  0  0  0  0  0  0  0  0  0  0  0
    6.2792  -13.9134   25.5105 C   0  0  0  0  0  0  0  0  0  0  0  0
    7.0797  -13.3920   24.4936 C   0  0  0  0  0  0  0  0  0  0  0  0
    8.2426  -16.6029   23.9882 C   0  0  0  0  0  0  0  0  0  0  0  0
    7.3519  -17.2225   24.6207 O   0  0  0  0  0  0  0  0  0  0  0  0
   10.6940  -21.1656   30.4735 O   0  0  0  0  0  0  0  0  0  0  0  0
   10.5027  -20.4606   29.2821 C   0  0  0  0  0  0  0  0  0  0  0  0
    9.1954  -20.2241   28.8991 C   0  0  0  0  0  0  0  0  0  0  0  0
    8.9464  -19.5340   27.7342 C   0  0  0  0  0  0  0  0  0  0  0  0
    9.9937  -19.0803   26.9517 C   0  0  0  0  0  0  0  0  0  0  0  0
    9.6536  -18.3565   25.7200 C   0  0  0  0  0  0  0  0  0  0  0  0
    9.8371  -16.8553   25.8698 C   0  0  2  0  0  0  0  0  0  0  0  0
    9.4755  -16.2821   24.5931 N   0  0  0  0  0  0  0  0  0  0  0  0
   11.2415  -16.4903   26.2119 C   0  0  0  0  0  0  0  0  0  0  0  0
   12.0993  -16.3702   25.3001 O   0  0  0  0  0  0  0  0  0  0  0  0
   11.2831  -19.3163   27.3335 C   0  0  0  0  0  0  0  0  0  0  0  0
   11.5228  -20.0039   28.4948 C   0  0  0  0  0  0  0  0  0  0  0  0
   11.6545  -16.2728   27.5037 O   0  0  0  0  0  0  0  0  0  0  0  0
  2  3  1  6
  2  4  1  0
  2  1  1  0
  4  5  1  0
  5  6  1  6
  7  5  1  0
  8  7  2  0
  9  7  1  0
 10 21  1  0
 10  9  1  0
 10 11  1  1
 12 11  1  0
 13 12  2  0
 14 13  1  0
 15 14  1  0
 15 20  2  0
 16 17  2  0
 16 15  1  0
 17 18  1  0
 18 19  2  0
 20 19  1  0
 20 12  1  0
 21 30  1  0
 22 21  2  0
 23 24  1  0
 24 25  2  0
 25 26  1  0
 27 26  2  0
 27 28  1  0
 29 28  1  6
 29 31  1  0
 30 29  1  0
 31 32  2  0
 31 35  1  0
 33 27  1  0
 34 24  1  0
 34 33  2  0
M  END
$$$$
