LWY.pdb
     RDKit          3D

 35 37  0  0  1  0  0  0  0  0999 V2000
   13.4067  -16.0435   17.1010 C   0  0  0  0  0  0  0  0  0  0  0  0
   12.3305  -16.8033   17.8427 C   0  0  1  0  0  0  0  0  0  0  0  0
   12.5987  -18.2853   17.8303 C   0  0  0  0  0  0  0  0  0  0  0  0
   12.1772  -16.3091   19.2800 C   0  0  0  0  0  0  0  0  0  0  0  0
   10.9581  -17.0148   19.8368 C   0  0  2  0  0  0  0  0  0  0  0  0
    9.9287  -17.0414   18.8213 N   0  0  0  0  0  0  0  0  0  0  0  0
   10.4697  -16.3924   21.0865 C   0  0  0  0  0  0  0  0  0  0  0  0
   11.2819  -15.7231   21.7672 O   0  0  0  0  0  0  0  0  0  0  0  0
    9.1446  -16.4993   21.5720 N   0  0  0  0  0  0  0  0  0  0  0  0
    8.6998  -15.9497   22.7978 C   0  0  1  0  0  0  0  0  0  0  0  0
    7.2490  -15.6891   22.9637 C   0  0  0  0  0  0  0  0  0  0  0  0
    6.8694  -15.0769   24.2693 C   0  0  0  0  0  0  0  0  0  0  0  0
    6.3011  -15.7268   25.3531 C   0  0  0  0  0  0  0  0  0  0  0  0
    6.1294  -14.8348   26.3324 N   0  0  0  0  0  0  0  0  0  0  0  0
    6.5627  -13.6123   25.9404 C   0  0  0  0  0  0  0  0  0  0  0  0
    6.5787  -12.4075   26.6115 C   0  0  0  0  0  0  0  0  0  0  0  0
    7.0830  -11.3102   25.9502 C   0  0  0  0  0  0  0  0  0  0  0  0
    7.5602  -11.4064   24.6520 C   0  0  0  0  0  0  0  0  0  0  0  0
    7.5242  -12.6287   24.0225 C   0  0  0  0  0  0  0  0  0  0  0  0
    7.0220  -13.7649   24.6577 C   0  0  0  0  0  0  0  0  0  0  0  0
    9.1522  -16.7341   23.9859 C   0  0  0  0  0  0  0  0  0  0  0  0
    9.1004  -17.9889   23.9888 O   0  0  0  0  0  0  0  0  0  0  0  0
   13.7230  -17.9104   31.3895 O   0  0  0  0  0  0  0  0  0  0  0  0
   13.0358  -17.3464   30.3113 C   0  0  0  0  0  0  0  0  0  0  0  0
   13.6143  -17.4804   29.0627 C   0  0  0  0  0  0  0  0  0  0  0  0
   12.9818  -16.9448   27.9634 C   0  0  0  0  0  0  0  0  0  0  0  0
   11.7777  -16.2776   28.1045 C   0  0  0  0  0  0  0  0  0  0  0  0
   11.1629  -15.7274   26.8895 C   0  0  0  0  0  0  0  0  0  0  0  0
   10.2351  -16.7251   26.2161 C   0  0  2  0  0  0  0  0  0  0  0  0
    9.6386  -16.0229   25.1024 N   0  0  0  0  0  0  0  0  0  0  0  0
    9.1705  -17.2157   27.1373 C   0  0  0  0  0  0  0  0  0  0  0  0
    8.1108  -16.5541   27.2817 O   0  0  0  0  0  0  0  0  0  0  0  0
   11.2101  -16.1473   29.3393 C   0  0  0  0  0  0  0  0  0  0  0  0
   11.8459  -16.6835   30.4289 C   0  0  0  0  0  0  0  0  0  0  0  0
    9.2922  -18.3822   27.8522 O   0  0  0  0  0  0  0  0  0  0  0  0
  2  3  1  1
  2  4  1  0
  2  1  1  0
  4  5  1  0
  5  6  1  6
  7  5  1  0
  8  7  2  0
  9  7  1  0
 10 21  1  0
 10  9  1  0
 10 11  1  6
 12 11  1  0
 13 12  2  0
 14 13  1  0
 15 14  1  0
 15 20  2  0
 16 17  2  0
 16 15  1  0
 17 18  1  0
 18 19  2  0
 20 19  1  0
 20 12  1  0
 21 30  1  0
 22 21  2  0
 23 24  1  0
 24 25  2  0
 25 26  1  0
 27 26  2  0
 27 28  1  0
 29 28  1  1
 29 31  1  0
 30 29  1  0
 31 32  2  0
 31 35  1  0
 33 27  1  0
 34 24  1  0
 34 33  2  0
M  END
$$$$
