LWY.pdb
     RDKit          3D

 35 37  0  0  1  0  0  0  0  0999 V2000
    7.1124  -12.5320   18.4186 C   0  0  0  0  0  0  0  0  0  0  0  0
    7.5763  -13.8827   18.9144 C   0  0  1  0  0  0  0  0  0  0  0  0
    8.3003  -14.6436   17.8349 C   0  0  0  0  0  0  0  0  0  0  0  0
    8.4617  -13.7572   20.1529 C   0  0  0  0  0  0  0  0  0  0  0  0
    8.7771  -15.1739   20.5863 C   0  0  2  0  0  0  0  0  0  0  0  0
    7.5378  -15.9046   20.7341 N   0  0  0  0  0  0  0  0  0  0  0  0
    9.5818  -15.2167   21.8267 C   0  0  0  0  0  0  0  0  0  0  0  0
   10.6919  -14.6348   21.8285 O   0  0  0  0  0  0  0  0  0  0  0  0
    9.1868  -15.8713   23.0178 N   0  0  0  0  0  0  0  0  0  0  0  0
    9.9639  -15.9093   24.1997 C   0  0  1  0  0  0  0  0  0  0  0  0
    9.2611  -16.0736   25.4957 C   0  0  0  0  0  0  0  0  0  0  0  0
    8.0760  -15.1877   25.6806 C   0  0  0  0  0  0  0  0  0  0  0  0
    6.7462  -15.5410   25.5175 C   0  0  0  0  0  0  0  0  0  0  0  0
    5.9932  -14.4723   25.7915 N   0  0  0  0  0  0  0  0  0  0  0  0
    6.7735  -13.4180   26.1313 C   0  0  0  0  0  0  0  0  0  0  0  0
    6.4362  -12.1283   26.4848 C   0  0  0  0  0  0  0  0  0  0  0  0
    7.4586  -11.2546   26.7797 C   0  0  0  0  0  0  0  0  0  0  0  0
    8.7859  -11.6519   26.7246 C   0  0  0  0  0  0  0  0  0  0  0  0
    9.0743  -12.9482   26.3670 C   0  0  0  0  0  0  0  0  0  0  0  0
    8.0678  -13.8647   26.0614 C   0  0  0  0  0  0  0  0  0  0  0  0
   11.0524  -16.9311   24.1484 C   0  0  0  0  0  0  0  0  0  0  0  0
   10.7880  -18.1487   23.9907 O   0  0  0  0  0  0  0  0  0  0  0  0
   13.0384  -13.7445   18.8146 O   0  0  0  0  0  0  0  0  0  0  0  0
   13.4020  -14.4980   19.9340 C   0  0  0  0  0  0  0  0  0  0  0  0
   13.9691  -13.8116   20.9919 C   0  0  0  0  0  0  0  0  0  0  0  0
   14.3467  -14.5023   22.1213 C   0  0  0  0  0  0  0  0  0  0  0  0
   14.1616  -15.8714   22.1994 C   0  0  0  0  0  0  0  0  0  0  0  0
   14.5930  -16.5431   23.4322 C   0  0  0  0  0  0  0  0  0  0  0  0
   13.4864  -17.3896   24.0393 C   0  0  2  0  0  0  0  0  0  0  0  0
   12.3842  -16.4867   24.2822 N   0  0  0  0  0  0  0  0  0  0  0  0
   13.9062  -18.0350   25.3159 C   0  0  0  0  0  0  0  0  0  0  0  0
   14.8568  -18.8583   25.3208 O   0  0  0  0  0  0  0  0  0  0  0  0
   13.6015  -16.5453   21.1524 C   0  0  0  0  0  0  0  0  0  0  0  0
   13.2279  -15.8505   20.0315 C   0  0  0  0  0  0  0  0  0  0  0  0
   13.2923  -17.7681   26.5153 O   0  0  0  0  0  0  0  0  0  0  0  0
  2  3  1  6
  2  4  1  0
  2  1  1  0
  4  5  1  0
  5  6  1  1
  7  5  1  0
  8  7  2  0
  9  7  1  0
 10 21  1  0
 10  9  1  0
 10 11  1  1
 12 11  1  0
 13 12  2  0
 14 13  1  0
 15 14  1  0
 15 20  2  0
 16 17  2  0
 16 15  1  0
 17 18  1  0
 18 19  2  0
 20 19  1  0
 20 12  1  0
 21 30  1  0
 22 21  2  0
 23 24  1  0
 24 25  2  0
 25 26  1  0
 27 26  2  0
 27 28  1  0
 29 28  1  1
 29 31  1  0
 30 29  1  0
 31 32  2  0
 31 35  1  0
 33 27  1  0
 34 24  1  0
 34 33  2  0
M  END
$$$$
