LWY.pdb
     RDKit          3D

 35 37  0  0  1  0  0  0  0  0999 V2000
    6.4381  -12.3306   18.0752 C   0  0  0  0  0  0  0  0  0  0  0  0
    7.1859  -13.6069   18.3873 C   0  0  1  0  0  0  0  0  0  0  0  0
    7.9031  -14.1329   17.1718 C   0  0  0  0  0  0  0  0  0  0  0  0
    8.1721  -13.4178   19.5385 C   0  0  0  0  0  0  0  0  0  0  0  0
    8.7335  -14.7924   19.8379 C   0  0  2  0  0  0  0  0  0  0  0  0
    7.7117  -15.7819   19.5764 N   0  0  0  0  0  0  0  0  0  0  0  0
    9.2504  -14.9001   21.2196 C   0  0  0  0  0  0  0  0  0  0  0  0
   10.1537  -14.1066   21.5736 O   0  0  0  0  0  0  0  0  0  0  0  0
    8.7966  -15.8401   22.1754 N   0  0  0  0  0  0  0  0  0  0  0  0
    9.2115  -15.8624   23.5281 C   0  0  1  0  0  0  0  0  0  0  0  0
    8.2857  -16.4347   24.5359 C   0  0  0  0  0  0  0  0  0  0  0  0
    7.3844  -15.4435   25.1906 C   0  0  0  0  0  0  0  0  0  0  0  0
    6.2681  -15.7241   25.9620 C   0  0  0  0  0  0  0  0  0  0  0  0
    5.7454  -14.5673   26.3773 N   0  0  0  0  0  0  0  0  0  0  0  0
    6.4732  -13.5242   25.9101 C   0  0  0  0  0  0  0  0  0  0  0  0
    6.3070  -12.1656   26.0800 C   0  0  0  0  0  0  0  0  0  0  0  0
    7.2146  -11.3264   25.4736 C   0  0  0  0  0  0  0  0  0  0  0  0
    8.2632  -11.8244   24.7154 C   0  0  0  0  0  0  0  0  0  0  0  0
    8.3890  -13.1866   24.5738 C   0  0  0  0  0  0  0  0  0  0  0  0
    7.4913  -14.0710   25.1725 C   0  0  0  0  0  0  0  0  0  0  0  0
   10.5406  -16.5171   23.7189 C   0  0  0  0  0  0  0  0  0  0  0  0
   10.7505  -17.6844   23.3058 O   0  0  0  0  0  0  0  0  0  0  0  0
   11.7425  -17.0052   32.0221 O   0  0  0  0  0  0  0  0  0  0  0  0
   11.6914  -16.6252   30.6782 C   0  0  0  0  0  0  0  0  0  0  0  0
   10.7849  -15.6367   30.3425 C   0  0  0  0  0  0  0  0  0  0  0  0
   10.6908  -15.2218   29.0331 C   0  0  0  0  0  0  0  0  0  0  0  0
   11.4953  -15.7879   28.0599 C   0  0  0  0  0  0  0  0  0  0  0  0
   11.3370  -15.3002   26.6837 C   0  0  0  0  0  0  0  0  0  0  0  0
   12.0309  -16.2004   25.6748 C   0  0  2  0  0  0  0  0  0  0  0  0
   11.5508  -15.7848   24.3762 N   0  0  0  0  0  0  0  0  0  0  0  0
   11.7178  -17.6412   25.8956 C   0  0  0  0  0  0  0  0  0  0  0  0
   12.6487  -18.4630   26.0950 O   0  0  0  0  0  0  0  0  0  0  0  0
   12.3890  -16.7639   28.3957 C   0  0  0  0  0  0  0  0  0  0  0  0
   12.4768  -17.1713   29.7015 C   0  0  0  0  0  0  0  0  0  0  0  0
   10.4329  -18.1268   25.8927 O   0  0  0  0  0  0  0  0  0  0  0  0
  2  3  1  6
  2  4  1  0
  2  1  1  0
  4  5  1  0
  5  6  1  1
  7  5  1  0
  8  7  2  0
  9  7  1  0
 10 21  1  0
 10  9  1  0
 10 11  1  1
 12 11  1  0
 13 12  2  0
 14 13  1  0
 15 14  1  0
 15 20  2  0
 16 17  2  0
 16 15  1  0
 17 18  1  0
 18 19  2  0
 20 19  1  0
 20 12  1  0
 21 30  1  0
 22 21  2  0
 23 24  1  0
 24 25  2  0
 25 26  1  0
 27 26  2  0
 27 28  1  0
 29 28  1  1
 29 31  1  0
 30 29  1  0
 31 32  2  0
 31 35  1  0
 33 27  1  0
 34 24  1  0
 34 33  2  0
M  END
$$$$
