LWY.pdb
     RDKit          3D

 35 37  0  0  1  0  0  0  0  0999 V2000
    7.3619  -12.4300   17.0316 C   0  0  0  0  0  0  0  0  0  0  0  0
    7.9707  -13.6853   17.6138 C   0  0  1  0  0  0  0  0  0  0  0  0
    9.1509  -14.1496   16.8016 C   0  0  0  0  0  0  0  0  0  0  0  0
    8.3804  -13.4914   19.0727 C   0  0  0  0  0  0  0  0  0  0  0  0
    8.9357  -14.8239   19.5313 C   0  0  2  0  0  0  0  0  0  0  0  0
    8.0100  -15.8701   19.1571 N   0  0  0  0  0  0  0  0  0  0  0  0
    9.2190  -14.8455   20.9829 C   0  0  0  0  0  0  0  0  0  0  0  0
   10.0329  -14.0071   21.4363 O   0  0  0  0  0  0  0  0  0  0  0  0
    8.6348  -15.7499   21.9015 N   0  0  0  0  0  0  0  0  0  0  0  0
    8.8934  -15.7487   23.2927 C   0  0  1  0  0  0  0  0  0  0  0  0
    7.9450  -16.4621   24.1827 C   0  0  0  0  0  0  0  0  0  0  0  0
    7.0628  -15.5756   24.9946 C   0  0  0  0  0  0  0  0  0  0  0  0
    5.9682  -15.9655   25.7495 C   0  0  0  0  0  0  0  0  0  0  0  0
    5.4578  -14.8802   26.3373 N   0  0  0  0  0  0  0  0  0  0  0  0
    6.1728  -13.7795   26.0012 C   0  0  0  0  0  0  0  0  0  0  0  0
    6.0120  -12.4587   26.3646 C   0  0  0  0  0  0  0  0  0  0  0  0
    6.9028  -11.5396   25.8572 C   0  0  0  0  0  0  0  0  0  0  0  0
    7.9297  -11.9226   25.0079 C   0  0  0  0  0  0  0  0  0  0  0  0
    8.0509  -13.2510   24.6732 C   0  0  0  0  0  0  0  0  0  0  0  0
    7.1697  -14.2138   25.1663 C   0  0  0  0  0  0  0  0  0  0  0  0
   10.2683  -16.2257   23.6299 C   0  0  0  0  0  0  0  0  0  0  0  0
   10.8344  -17.1062   22.9360 O   0  0  0  0  0  0  0  0  0  0  0  0
    9.2495  -15.8583   30.7385 O   0  0  0  0  0  0  0  0  0  0  0  0
   10.1236  -15.7547   29.6531 C   0  0  0  0  0  0  0  0  0  0  0  0
    9.9831  -14.6442   28.8415 C   0  0  0  0  0  0  0  0  0  0  0  0
   10.8171  -14.4892   27.7572 C   0  0  0  0  0  0  0  0  0  0  0  0
   11.7881  -15.4354   27.4799 C   0  0  0  0  0  0  0  0  0  0  0  0
   12.6381  -15.2077   26.3041 C   0  0  0  0  0  0  0  0  0  0  0  0
   12.2371  -16.0855   25.1301 C   0  0  2  0  0  0  0  0  0  0  0  0
   10.9099  -15.6574   24.7498 N   0  0  0  0  0  0  0  0  0  0  0  0
   12.2218  -17.5328   25.4876 C   0  0  0  0  0  0  0  0  0  0  0  0
   11.1262  -18.1363   25.6174 O   0  0  0  0  0  0  0  0  0  0  0  0
   11.9232  -16.5306   28.2838 C   0  0  0  0  0  0  0  0  0  0  0  0
   11.0892  -16.6776   29.3615 C   0  0  0  0  0  0  0  0  0  0  0  0
   13.3721  -18.2568   25.6861 O   0  0  0  0  0  0  0  0  0  0  0  0
  2  3  1  6
  2  4  1  0
  2  1  1  0
  4  5  1  0
  5  6  1  1
  7  5  1  0
  8  7  2  0
  9  7  1  0
 10 21  1  0
 10  9  1  0
 10 11  1  1
 12 11  1  0
 13 12  2  0
 14 13  1  0
 15 14  1  0
 15 20  2  0
 16 17  2  0
 16 15  1  0
 17 18  1  0
 18 19  2  0
 20 19  1  0
 20 12  1  0
 21 30  1  0
 22 21  2  0
 23 24  1  0
 24 25  2  0
 25 26  1  0
 27 26  2  0
 27 28  1  0
 29 28  1  1
 29 31  1  0
 30 29  1  0
 31 32  2  0
 31 35  1  0
 33 27  1  0
 34 24  1  0
 34 33  2  0
M  END
$$$$
