LWY.pdb
     RDKit          3D

 35 37  0  0  1  0  0  0  0  0999 V2000
    6.7497  -12.5229   19.0764 C   0  0  0  0  0  0  0  0  0  0  0  0
    7.4144  -13.8256   19.4593 C   0  0  1  0  0  0  0  0  0  0  0  0
    8.4443  -14.2358   18.4397 C   0  0  0  0  0  0  0  0  0  0  0  0
    8.0494  -13.7505   20.8467 C   0  0  0  0  0  0  0  0  0  0  0  0
    8.5466  -15.1476   21.1549 C   0  0  2  0  0  0  0  0  0  0  0  0
    7.4962  -16.0950   20.8533 N   0  0  0  0  0  0  0  0  0  0  0  0
    9.0130  -15.2832   22.5520 C   0  0  0  0  0  0  0  0  0  0  0  0
    9.8374  -14.4425   22.9815 O   0  0  0  0  0  0  0  0  0  0  0  0
    8.5937  -16.2996   23.4433 N   0  0  0  0  0  0  0  0  0  0  0  0
    8.9648  -16.3641   24.8073 C   0  0  1  0  0  0  0  0  0  0  0  0
    7.8969  -16.5752   25.8150 C   0  0  0  0  0  0  0  0  0  0  0  0
    7.0204  -15.3927   26.0536 C   0  0  0  0  0  0  0  0  0  0  0  0
    5.6349  -15.3759   26.0485 C   0  0  0  0  0  0  0  0  0  0  0  0
    5.2309  -14.1321   26.3197 N   0  0  0  0  0  0  0  0  0  0  0  0
    6.2978  -13.3178   26.5054 C   0  0  0  0  0  0  0  0  0  0  0  0
    6.3597  -11.9715   26.7990 C   0  0  0  0  0  0  0  0  0  0  0  0
    7.6050  -11.3987   26.9288 C   0  0  0  0  0  0  0  0  0  0  0  0
    8.7627  -12.1451   26.7705 C   0  0  0  0  0  0  0  0  0  0  0  0
    8.6519  -13.4844   26.4783 C   0  0  0  0  0  0  0  0  0  0  0  0
    7.4091  -14.1032   26.3392 C   0  0  0  0  0  0  0  0  0  0  0  0
   10.0355  -17.3715   25.0726 C   0  0  0  0  0  0  0  0  0  0  0  0
   10.0603  -18.4649   24.4554 O   0  0  0  0  0  0  0  0  0  0  0  0
   14.1704  -16.1234   20.6875 O   0  0  0  0  0  0  0  0  0  0  0  0
   13.9916  -16.4834   22.0260 C   0  0  0  0  0  0  0  0  0  0  0  0
   13.5128  -15.5051   22.8776 C   0  0  0  0  0  0  0  0  0  0  0  0
   13.3168  -15.8029   24.2073 C   0  0  0  0  0  0  0  0  0  0  0  0
   13.5959  -17.0695   24.6896 C   0  0  0  0  0  0  0  0  0  0  0  0
   13.3681  -17.3141   26.1197 C   0  0  0  0  0  0  0  0  0  0  0  0
   12.0440  -18.0145   26.3761 C   0  0  2  0  0  0  0  0  0  0  0  0
   11.0162  -17.0567   26.0360 N   0  0  0  0  0  0  0  0  0  0  0  0
   11.8955  -18.4366   27.7982 C   0  0  0  0  0  0  0  0  0  0  0  0
   10.9937  -17.9294   28.5132 O   0  0  0  0  0  0  0  0  0  0  0  0
   14.0688  -18.0325   23.8453 C   0  0  0  0  0  0  0  0  0  0  0  0
   14.2612  -17.7283   22.5227 C   0  0  0  0  0  0  0  0  0  0  0  0
   12.7134  -19.3746   28.3796 O   0  0  0  0  0  0  0  0  0  0  0  0
  2  3  1  6
  2  4  1  0
  2  1  1  0
  4  5  1  0
  5  6  1  1
  7  5  1  0
  8  7  2  0
  9  7  1  0
 10 21  1  0
 10  9  1  0
 10 11  1  1
 12 11  1  0
 13 12  2  0
 14 13  1  0
 15 14  1  0
 15 20  2  0
 16 17  2  0
 16 15  1  0
 17 18  1  0
 18 19  2  0
 20 19  1  0
 20 12  1  0
 21 30  1  0
 22 21  2  0
 23 24  1  0
 24 25  2  0
 25 26  1  0
 27 26  2  0
 27 28  1  0
 29 28  1  1
 29 31  1  0
 30 29  1  0
 31 32  2  0
 31 35  1  0
 33 27  1  0
 34 24  1  0
 34 33  2  0
M  END
$$$$
