LWY.pdb
     RDKit          3D

 35 37  0  0  1  0  0  0  0  0999 V2000
    6.9867  -11.8026   18.6750 C   0  0  0  0  0  0  0  0  0  0  0  0
    7.3860  -13.2197   19.0183 C   0  0  1  0  0  0  0  0  0  0  0  0
    8.0747  -13.8910   17.8592 C   0  0  0  0  0  0  0  0  0  0  0  0
    8.2748  -13.2723   20.2596 C   0  0  0  0  0  0  0  0  0  0  0  0
    8.5673  -14.7385   20.5023 C   0  0  2  0  0  0  0  0  0  0  0  0
    7.3166  -15.4629   20.5525 N   0  0  0  0  0  0  0  0  0  0  0  0
    9.3689  -14.9571   21.7260 C   0  0  0  0  0  0  0  0  0  0  0  0
   10.4800  -14.3835   21.8121 O   0  0  0  0  0  0  0  0  0  0  0  0
    8.9699  -15.7720   22.8122 N   0  0  0  0  0  0  0  0  0  0  0  0
    9.6842  -15.8816   24.0288 C   0  0  1  0  0  0  0  0  0  0  0  0
    8.9278  -16.2278   25.2570 C   0  0  0  0  0  0  0  0  0  0  0  0
    7.7121  -15.3983   25.4968 C   0  0  0  0  0  0  0  0  0  0  0  0
    6.3953  -15.7894   25.3153 C   0  0  0  0  0  0  0  0  0  0  0  0
    5.6051  -14.7672   25.6541 N   0  0  0  0  0  0  0  0  0  0  0  0
    6.3481  -13.7073   26.0550 C   0  0  0  0  0  0  0  0  0  0  0  0
    5.9656  -12.4542   26.4858 C   0  0  0  0  0  0  0  0  0  0  0  0
    6.9569  -11.5630   26.8306 C   0  0  0  0  0  0  0  0  0  0  0  0
    8.2974  -11.9077   26.7494 C   0  0  0  0  0  0  0  0  0  0  0  0
    8.6312  -13.1688   26.3143 C   0  0  0  0  0  0  0  0  0  0  0  0
    7.6574  -14.1016   25.9562 C   0  0  0  0  0  0  0  0  0  0  0  0
   10.8455  -16.8171   23.9401 C   0  0  0  0  0  0  0  0  0  0  0  0
   10.7018  -17.9847   23.5005 O   0  0  0  0  0  0  0  0  0  0  0  0
   13.8536  -14.4061   18.5670 O   0  0  0  0  0  0  0  0  0  0  0  0
   13.9436  -14.9301   19.8593 C   0  0  0  0  0  0  0  0  0  0  0  0
   14.8419  -14.3241   20.7181 C   0  0  0  0  0  0  0  0  0  0  0  0
   14.9730  -14.7979   22.0041 C   0  0  0  0  0  0  0  0  0  0  0  0
   14.2135  -15.8712   22.4355 C   0  0  0  0  0  0  0  0  0  0  0  0
   14.4097  -16.3263   23.8180 C   0  0  0  0  0  0  0  0  0  0  0  0
   13.2676  -17.2069   24.2975 C   0  0  2  0  0  0  0  0  0  0  0  0
   12.1063  -16.3489   24.3645 N   0  0  0  0  0  0  0  0  0  0  0  0
   13.5386  -17.8018   25.6374 C   0  0  0  0  0  0  0  0  0  0  0  0
   14.5269  -18.5625   25.7989 O   0  0  0  0  0  0  0  0  0  0  0  0
   13.3278  -16.4668   21.5842 C   0  0  0  0  0  0  0  0  0  0  0  0
   13.2030  -15.9892   20.3055 C   0  0  0  0  0  0  0  0  0  0  0  0
   12.7441  -17.5536   26.7301 O   0  0  0  0  0  0  0  0  0  0  0  0
  2  3  1  6
  2  4  1  0
  2  1  1  0
  4  5  1  0
  5  6  1  1
  7  5  1  0
  8  7  2  0
  9  7  1  0
 10 21  1  0
 10  9  1  0
 10 11  1  1
 12 11  1  0
 13 12  2  0
 14 13  1  0
 15 14  1  0
 15 20  2  0
 16 17  2  0
 16 15  1  0
 17 18  1  0
 18 19  2  0
 20 19  1  0
 20 12  1  0
 21 30  1  0
 22 21  2  0
 23 24  1  0
 24 25  2  0
 25 26  1  0
 27 26  2  0
 27 28  1  0
 29 28  1  1
 29 31  1  0
 30 29  1  0
 31 32  2  0
 31 35  1  0
 33 27  1  0
 34 24  1  0
 34 33  2  0
M  END
$$$$
