LWY.pdb
     RDKit          3D

 35 37  0  0  1  0  0  0  0  0999 V2000
    7.0454  -12.1807   18.6853 C   0  0  0  0  0  0  0  0  0  0  0  0
    7.4479  -13.5849   19.0746 C   0  0  1  0  0  0  0  0  0  0  0  0
    8.0735  -14.3167   17.9164 C   0  0  0  0  0  0  0  0  0  0  0  0
    8.3953  -13.5903   20.2730 C   0  0  0  0  0  0  0  0  0  0  0  0
    8.6283  -15.0474   20.6150 C   0  0  2  0  0  0  0  0  0  0  0  0
    7.3506  -15.7212   20.6858 N   0  0  0  0  0  0  0  0  0  0  0  0
    9.3989  -15.2152   21.8663 C   0  0  0  0  0  0  0  0  0  0  0  0
   10.5159  -14.6528   21.9496 O   0  0  0  0  0  0  0  0  0  0  0  0
    8.9638  -15.9695   22.9820 N   0  0  0  0  0  0  0  0  0  0  0  0
    9.6590  -16.0431   24.2123 C   0  0  1  0  0  0  0  0  0  0  0  0
    8.8698  -16.2416   25.4526 C   0  0  0  0  0  0  0  0  0  0  0  0
    7.6945  -15.3354   25.5971 C   0  0  0  0  0  0  0  0  0  0  0  0
    6.3612  -15.6794   25.4426 C   0  0  0  0  0  0  0  0  0  0  0  0
    5.6198  -14.5921   25.6706 N   0  0  0  0  0  0  0  0  0  0  0  0
    6.4111  -13.5342   25.9716 C   0  0  0  0  0  0  0  0  0  0  0  0
    6.0876  -12.2276   26.2722 C   0  0  0  0  0  0  0  0  0  0  0  0
    7.1191  -11.3547   26.5365 C   0  0  0  0  0  0  0  0  0  0  0  0
    8.4418  -11.7693   26.5028 C   0  0  0  0  0  0  0  0  0  0  0  0
    8.7164  -13.0820   26.1983 C   0  0  0  0  0  0  0  0  0  0  0  0
    7.7003  -13.9983   25.9250 C   0  0  0  0  0  0  0  0  0  0  0  0
   10.7473  -17.0664   24.2060 C   0  0  0  0  0  0  0  0  0  0  0  0
   10.5317  -18.2356   23.8015 O   0  0  0  0  0  0  0  0  0  0  0  0
   13.4231  -14.3768   19.1897 O   0  0  0  0  0  0  0  0  0  0  0  0
   13.6869  -14.9134   20.4528 C   0  0  0  0  0  0  0  0  0  0  0  0
   13.1880  -16.1765   20.7118 C   0  0  0  0  0  0  0  0  0  0  0  0
   13.4172  -16.7556   21.9396 C   0  0  0  0  0  0  0  0  0  0  0  0
   14.1402  -16.0810   22.9077 C   0  0  0  0  0  0  0  0  0  0  0  0
   14.3411  -16.7574   24.1957 C   0  0  0  0  0  0  0  0  0  0  0  0
   13.1379  -17.5956   24.5951 C   0  0  2  0  0  0  0  0  0  0  0  0
   12.0225  -16.6792   24.6676 N   0  0  0  0  0  0  0  0  0  0  0  0
   13.3309  -18.2673   25.9120 C   0  0  0  0  0  0  0  0  0  0  0  0
   12.6434  -17.9142   26.9041 O   0  0  0  0  0  0  0  0  0  0  0  0
   14.6309  -14.8337   22.6479 C   0  0  0  0  0  0  0  0  0  0  0  0
   14.3986  -14.2641   21.4230 C   0  0  0  0  0  0  0  0  0  0  0  0
   14.2431  -19.2770   26.0996 O   0  0  0  0  0  0  0  0  0  0  0  0
  2  3  1  6
  2  4  1  0
  2  1  1  0
  4  5  1  0
  5  6  1  1
  7  5  1  0
  8  7  2  0
  9  7  1  0
 10 21  1  0
 10  9  1  0
 10 11  1  1
 12 11  1  0
 13 12  2  0
 14 13  1  0
 15 14  1  0
 15 20  2  0
 16 17  2  0
 16 15  1  0
 17 18  1  0
 18 19  2  0
 20 19  1  0
 20 12  1  0
 21 30  1  0
 22 21  2  0
 23 24  1  0
 24 25  2  0
 25 26  1  0
 27 26  2  0
 27 28  1  0
 29 28  1  1
 29 31  1  0
 30 29  1  0
 31 32  2  0
 31 35  1  0
 33 27  1  0
 34 24  1  0
 34 33  2  0
M  END
$$$$
