LWY.pdb
     RDKit          3D

 35 37  0  0  1  0  0  0  0  0999 V2000
    7.3111  -12.9315   16.4221 C   0  0  0  0  0  0  0  0  0  0  0  0
    8.0051  -14.1379   17.0123 C   0  0  1  0  0  0  0  0  0  0  0  0
    8.8306  -14.8560   15.9773 C   0  0  0  0  0  0  0  0  0  0  0  0
    8.8758  -13.7604   18.2094 C   0  0  0  0  0  0  0  0  0  0  0  0
    9.2688  -15.0663   18.8685 C   0  0  2  0  0  0  0  0  0  0  0  0
    8.3763  -16.1083   18.4110 N   0  0  0  0  0  0  0  0  0  0  0  0
    9.2778  -14.9710   20.3446 C   0  0  0  0  0  0  0  0  0  0  0  0
   10.0639  -14.1525   20.8767 O   0  0  0  0  0  0  0  0  0  0  0  0
    8.4590  -15.7419   21.2039 N   0  0  0  0  0  0  0  0  0  0  0  0
    8.4097  -15.5833   22.6092 C   0  0  1  0  0  0  0  0  0  0  0  0
    7.1619  -15.9656   23.3144 C   0  0  0  0  0  0  0  0  0  0  0  0
    7.0216  -15.4003   24.6870 C   0  0  0  0  0  0  0  0  0  0  0  0
    6.9061  -16.1156   25.8680 C   0  0  0  0  0  0  0  0  0  0  0  0
    6.8178  -15.2451   26.8771 N   0  0  0  0  0  0  0  0  0  0  0  0
    6.8699  -13.9737   26.4114 C   0  0  0  0  0  0  0  0  0  0  0  0
    6.8126  -12.7691   27.0806 C   0  0  0  0  0  0  0  0  0  0  0  0
    6.8864  -11.6149   26.3337 C   0  0  0  0  0  0  0  0  0  0  0  0
    7.0140  -11.6553   24.9536 C   0  0  0  0  0  0  0  0  0  0  0  0
    7.0670  -12.8796   24.3295 C   0  0  0  0  0  0  0  0  0  0  0  0
    6.9963  -14.0724   25.0498 C   0  0  0  0  0  0  0  0  0  0  0  0
    9.5442  -16.2554   23.3112 C   0  0  0  0  0  0  0  0  0  0  0  0
    9.9663  -17.3753   22.9306 O   0  0  0  0  0  0  0  0  0  0  0  0
    9.6590  -16.4556   30.8724 O   0  0  0  0  0  0  0  0  0  0  0  0
   10.1782  -16.0082   29.6545 C   0  0  0  0  0  0  0  0  0  0  0  0
   10.7348  -16.9633   28.8241 C   0  0  0  0  0  0  0  0  0  0  0  0
   11.2616  -16.5805   27.6111 C   0  0  0  0  0  0  0  0  0  0  0  0
   11.2357  -15.2521   27.2245 C   0  0  0  0  0  0  0  0  0  0  0  0
   11.8206  -14.9158   25.9200 C   0  0  0  0  0  0  0  0  0  0  0  0
   11.4599  -15.9349   24.8519 C   0  0  2  0  0  0  0  0  0  0  0  0
   10.1256  -15.5941   24.4129 N   0  0  0  0  0  0  0  0  0  0  0  0
   11.4826  -17.3311   25.3741 C   0  0  0  0  0  0  0  0  0  0  0  0
   12.5798  -17.8830   25.6447 O   0  0  0  0  0  0  0  0  0  0  0  0
   10.6854  -14.3122   28.0477 C   0  0  0  0  0  0  0  0  0  0  0  0
   10.1627  -14.7013   29.2536 C   0  0  0  0  0  0  0  0  0  0  0  0
   10.3376  -18.0614   25.5800 O   0  0  0  0  0  0  0  0  0  0  0  0
  2  3  1  6
  2  4  1  0
  2  1  1  0
  4  5  1  0
  5  6  1  1
  7  5  1  0
  8  7  2  0
  9  7  1  0
 10 21  1  0
 10  9  1  0
 10 11  1  1
 12 11  1  0
 13 12  2  0
 14 13  1  0
 15 14  1  0
 15 20  2  0
 16 17  2  0
 16 15  1  0
 17 18  1  0
 18 19  2  0
 20 19  1  0
 20 12  1  0
 21 30  1  0
 22 21  2  0
 23 24  1  0
 24 25  2  0
 25 26  1  0
 27 26  2  0
 27 28  1  0
 29 28  1  1
 29 31  1  0
 30 29  1  0
 31 32  2  0
 31 35  1  0
 33 27  1  0
 34 24  1  0
 34 33  2  0
M  END
$$$$
