LWY.pdb
     RDKit          3D

 35 37  0  0  1  0  0  0  0  0999 V2000
    6.9939  -12.2930   17.4095 C   0  0  0  0  0  0  0  0  0  0  0  0
    7.5671  -13.6368   17.7984 C   0  0  1  0  0  0  0  0  0  0  0  0
    7.9046  -14.4609   16.5837 C   0  0  0  0  0  0  0  0  0  0  0  0
    8.7972  -13.4901   18.6922 C   0  0  0  0  0  0  0  0  0  0  0  0
    9.0316  -14.8541   19.3077 C   0  0  2  0  0  0  0  0  0  0  0  0
    8.0117  -15.7629   18.8330 N   0  0  0  0  0  0  0  0  0  0  0  0
    9.0680  -14.8055   20.7856 C   0  0  0  0  0  0  0  0  0  0  0  0
    9.8686  -14.0088   21.3288 O   0  0  0  0  0  0  0  0  0  0  0  0
    8.2600  -15.5985   21.6350 N   0  0  0  0  0  0  0  0  0  0  0  0
    8.3271  -15.5727   23.0483 C   0  0  1  0  0  0  0  0  0  0  0  0
    7.0673  -15.7410   23.8131 C   0  0  0  0  0  0  0  0  0  0  0  0
    7.1350  -15.2956   25.2345 C   0  0  0  0  0  0  0  0  0  0  0  0
    7.2153  -16.1094   26.3531 C   0  0  0  0  0  0  0  0  0  0  0  0
    7.2733  -15.3283   27.4350 N   0  0  0  0  0  0  0  0  0  0  0  0
    7.2341  -14.0218   27.0781 C   0  0  0  0  0  0  0  0  0  0  0  0
    7.2648  -12.8789   27.8496 C   0  0  0  0  0  0  0  0  0  0  0  0
    7.2049  -11.6650   27.2025 C   0  0  0  0  0  0  0  0  0  0  0  0
    7.1161  -11.5873   25.8210 C   0  0  0  0  0  0  0  0  0  0  0  0
    7.0884  -12.7537   25.0930 C   0  0  0  0  0  0  0  0  0  0  0  0
    7.1478  -14.0036   25.7100 C   0  0  0  0  0  0  0  0  0  0  0  0
    9.3195  -16.5423   23.6020 C   0  0  0  0  0  0  0  0  0  0  0  0
    9.2826  -17.7565   23.2833 O   0  0  0  0  0  0  0  0  0  0  0  0
   13.5716  -15.6565   19.0851 O   0  0  0  0  0  0  0  0  0  0  0  0
   13.3121  -15.7105   20.4572 C   0  0  0  0  0  0  0  0  0  0  0  0
   13.8065  -16.8038   21.1441 C   0  0  0  0  0  0  0  0  0  0  0  0
   13.5817  -16.9100   22.4981 C   0  0  0  0  0  0  0  0  0  0  0  0
   12.8673  -15.9323   23.1680 C   0  0  0  0  0  0  0  0  0  0  0  0
   12.6613  -16.1139   24.6107 C   0  0  0  0  0  0  0  0  0  0  0  0
   11.3936  -16.8956   24.9133 C   0  0  2  0  0  0  0  0  0  0  0  0
   10.2977  -16.0526   24.4920 N   0  0  0  0  0  0  0  0  0  0  0  0
   11.2611  -17.2155   26.3634 C   0  0  0  0  0  0  0  0  0  0  0  0
   12.1145  -17.9484   26.9256 O   0  0  0  0  0  0  0  0  0  0  0  0
   12.3807  -14.8544   22.4858 C   0  0  0  0  0  0  0  0  0  0  0  0
   12.6089  -14.7558   21.1379 C   0  0  0  0  0  0  0  0  0  0  0  0
   10.2294  -16.7374   27.1340 O   0  0  0  0  0  0  0  0  0  0  0  0
  2  3  1  6
  2  4  1  0
  2  1  1  0
  4  5  1  0
  5  6  1  1
  7  5  1  0
  8  7  2  0
  9  7  1  0
 10 21  1  0
 10  9  1  0
 10 11  1  1
 12 11  1  0
 13 12  2  0
 14 13  1  0
 15 14  1  0
 15 20  2  0
 16 17  2  0
 16 15  1  0
 17 18  1  0
 18 19  2  0
 20 19  1  0
 20 12  1  0
 21 30  1  0
 22 21  2  0
 23 24  1  0
 24 25  2  0
 25 26  1  0
 27 26  2  0
 27 28  1  0
 29 28  1  1
 29 31  1  0
 30 29  1  0
 31 32  2  0
 31 35  1  0
 33 27  1  0
 34 24  1  0
 34 33  2  0
M  END
$$$$
