LWY.pdb
     RDKit          3D

 35 37  0  0  1  0  0  0  0  0999 V2000
    7.2586  -12.8750   18.5708 C   0  0  0  0  0  0  0  0  0  0  0  0
    7.9625  -14.1206   19.0593 C   0  0  1  0  0  0  0  0  0  0  0  0
    8.8751  -14.6845   18.0022 C   0  0  0  0  0  0  0  0  0  0  0  0
    8.7452  -13.8608   20.3452 C   0  0  0  0  0  0  0  0  0  0  0  0
    9.2549  -15.2113   20.8042 C   0  0  2  0  0  0  0  0  0  0  0  0
    8.2198  -16.1987   20.5918 N   0  0  0  0  0  0  0  0  0  0  0  0
    9.7051  -15.1934   22.2130 C   0  0  0  0  0  0  0  0  0  0  0  0
   10.6048  -14.3818   22.5332 O   0  0  0  0  0  0  0  0  0  0  0  0
    9.1907  -16.0316   23.2309 N   0  0  0  0  0  0  0  0  0  0  0  0
    9.3747  -15.8060   24.6156 C   0  0  1  0  0  0  0  0  0  0  0  0
    8.2464  -16.1060   25.5307 C   0  0  0  0  0  0  0  0  0  0  0  0
    7.1222  -15.1278   25.4782 C   0  0  0  0  0  0  0  0  0  0  0  0
    5.7977  -15.4055   25.1808 C   0  0  0  0  0  0  0  0  0  0  0  0
    5.1049  -14.2659   25.2541 N   0  0  0  0  0  0  0  0  0  0  0  0
    5.9204  -13.2371   25.5896 C   0  0  0  0  0  0  0  0  0  0  0  0
    5.6471  -11.8978   25.7736 C   0  0  0  0  0  0  0  0  0  0  0  0
    6.6931  -11.0692   26.1128 C   0  0  0  0  0  0  0  0  0  0  0  0
    7.9813  -11.5587   26.2654 C   0  0  0  0  0  0  0  0  0  0  0  0
    8.2062  -12.9016   26.0717 C   0  0  0  0  0  0  0  0  0  0  0  0
    7.1738  -13.7749   25.7281 C   0  0  0  0  0  0  0  0  0  0  0  0
   10.5865  -16.4884   25.1610 C   0  0  0  0  0  0  0  0  0  0  0  0
   11.0755  -17.4924   24.5863 O   0  0  0  0  0  0  0  0  0  0  0  0
   13.0642  -20.0075   32.5575 O   0  0  0  0  0  0  0  0  0  0  0  0
   12.8487  -19.0650   31.5484 C   0  0  0  0  0  0  0  0  0  0  0  0
   11.5522  -18.6155   31.3796 C   0  0  0  0  0  0  0  0  0  0  0  0
   11.2805  -17.6864   30.4008 C   0  0  0  0  0  0  0  0  0  0  0  0
   12.2947  -17.2052   29.5915 C   0  0  0  0  0  0  0  0  0  0  0  0
   11.9309  -16.2200   28.5649 C   0  0  0  0  0  0  0  0  0  0  0  0
   12.0173  -16.7978   27.1619 C   0  0  2  0  0  0  0  0  0  0  0  0
   11.1635  -15.9710   26.3392 N   0  0  0  0  0  0  0  0  0  0  0  0
   11.5589  -18.2153   27.1067 C   0  0  0  0  0  0  0  0  0  0  0  0
   12.3990  -19.1430   26.9837 O   0  0  0  0  0  0  0  0  0  0  0  0
   13.5736  -17.6520   29.7613 C   0  0  0  0  0  0  0  0  0  0  0  0
   13.8360  -18.5769   30.7382 C   0  0  0  0  0  0  0  0  0  0  0  0
   10.2334  -18.5667   27.1863 O   0  0  0  0  0  0  0  0  0  0  0  0
  2  3  1  6
  2  4  1  0
  2  1  1  0
  4  5  1  0
  5  6  1  1
  7  5  1  0
  8  7  2  0
  9  7  1  0
 10 21  1  0
 10  9  1  0
 10 11  1  1
 12 11  1  0
 13 12  2  0
 14 13  1  0
 15 14  1  0
 15 20  2  0
 16 17  2  0
 16 15  1  0
 17 18  1  0
 18 19  2  0
 20 19  1  0
 20 12  1  0
 21 30  1  0
 22 21  2  0
 23 24  1  0
 24 25  2  0
 25 26  1  0
 27 26  2  0
 27 28  1  0
 29 28  1  1
 29 31  1  0
 30 29  1  0
 31 32  2  0
 31 35  1  0
 33 27  1  0
 34 24  1  0
 34 33  2  0
M  END
$$$$
