LWY.pdb
     RDKit          3D

 35 37  0  0  1  0  0  0  0  0999 V2000
    6.7205  -13.1844   19.0438 C   0  0  0  0  0  0  0  0  0  0  0  0
    7.3268  -14.4982   19.4815 C   0  0  1  0  0  0  0  0  0  0  0  0
    7.4544  -15.4551   18.3254 C   0  0  0  0  0  0  0  0  0  0  0  0
    8.6854  -14.2992   20.1512 C   0  0  0  0  0  0  0  0  0  0  0  0
    8.9402  -15.5540   20.9604 C   0  0  2  0  0  0  0  0  0  0  0  0
    7.6736  -16.1895   21.2493 N   0  0  0  0  0  0  0  0  0  0  0  0
    9.7031  -15.2802   22.1977 C   0  0  0  0  0  0  0  0  0  0  0  0
   10.7977  -14.6786   22.0933 O   0  0  0  0  0  0  0  0  0  0  0  0
    9.2841  -15.6510   23.4978 N   0  0  0  0  0  0  0  0  0  0  0  0
    9.9284  -15.2396   24.6886 C   0  0  1  0  0  0  0  0  0  0  0  0
    9.1595  -15.2932   25.9560 C   0  0  0  0  0  0  0  0  0  0  0  0
    7.8024  -14.6790   25.8901 C   0  0  0  0  0  0  0  0  0  0  0  0
    6.5954  -15.3504   25.7793 C   0  0  0  0  0  0  0  0  0  0  0  0
    5.6131  -14.4454   25.7681 N   0  0  0  0  0  0  0  0  0  0  0  0
    6.1218  -13.1935   25.8671 C   0  0  0  0  0  0  0  0  0  0  0  0
    5.4910  -11.9672   25.8918 C   0  0  0  0  0  0  0  0  0  0  0  0
    6.2775  -10.8420   25.9972 C   0  0  0  0  0  0  0  0  0  0  0  0
    7.6589  -10.9319   26.0760 C   0  0  0  0  0  0  0  0  0  0  0  0
    8.2438  -12.1762   26.0476 C   0  0  0  0  0  0  0  0  0  0  0  0
    7.4828  -13.3409   25.9425 C   0  0  0  0  0  0  0  0  0  0  0  0
   11.2254  -15.9431   24.9220 C   0  0  0  0  0  0  0  0  0  0  0  0
   12.2494  -15.3083   25.2765 O   0  0  0  0  0  0  0  0  0  0  0  0
   10.5812  -16.1619   30.8690 O   0  0  0  0  0  0  0  0  0  0  0  0
   10.8525  -16.8981   29.7125 C   0  0  0  0  0  0  0  0  0  0  0  0
   12.1601  -16.8965   29.2632 C   0  0  0  0  0  0  0  0  0  0  0  0
   12.4860  -17.6048   28.1286 C   0  0  0  0  0  0  0  0  0  0  0  0
   11.5152  -18.3127   27.4420 C   0  0  0  0  0  0  0  0  0  0  0  0
   11.9338  -19.0406   26.2372 C   0  0  0  0  0  0  0  0  0  0  0  0
   12.4201  -18.1041   25.1435 C   0  0  2  0  0  0  0  0  0  0  0  0
   11.2640  -17.3401   24.7324 N   0  0  0  0  0  0  0  0  0  0  0  0
   12.9824  -18.8432   23.9772 C   0  0  0  0  0  0  0  0  0  0  0  0
   14.0452  -19.5033   24.1048 O   0  0  0  0  0  0  0  0  0  0  0  0
   10.2251  -18.3113   27.8891 C   0  0  0  0  0  0  0  0  0  0  0  0
    9.9086  -17.6038   29.0196 C   0  0  0  0  0  0  0  0  0  0  0  0
   12.3827  -18.8394   22.7414 O   0  0  0  0  0  0  0  0  0  0  0  0
  2  3  1  6
  2  4  1  0
  2  1  1  0
  4  5  1  0
  5  6  1  1
  7  5  1  0
  8  7  2  0
  9  7  1  0
 10 21  1  0
 10  9  1  0
 10 11  1  1
 12 11  1  0
 13 12  2  0
 14 13  1  0
 15 14  1  0
 15 20  2  0
 16 17  2  0
 16 15  1  0
 17 18  1  0
 18 19  2  0
 20 19  1  0
 20 12  1  0
 21 30  1  0
 22 21  2  0
 23 24  1  0
 24 25  2  0
 25 26  1  0
 27 26  2  0
 27 28  1  0
 29 28  1  1
 29 31  1  0
 30 29  1  0
 31 32  2  0
 31 35  1  0
 33 27  1  0
 34 24  1  0
 34 33  2  0
M  END
$$$$
