MIA.pdb
     RDKit          3D

 22 21  0  0  1  0  0  0  0  0999 V2000
   34.2146   -6.8444  -18.2377 C   0  0  0  0  0  0  0  0  0  0  0  0
   34.5089   -8.2021  -19.3708 S   0  0  0  0  0  0  0  0  0  0  0  0
   33.8083   -9.7449  -18.7435 C   0  0  0  0  0  0  0  0  0  0  0  0
   32.3124   -9.6974  -18.9621 C   0  0  0  0  0  0  0  0  0  0  0  0
   31.6118  -10.8832  -18.3348 C   0  0  2  0  0  0  0  0  0  0  0  0
   32.0506  -12.1256  -18.8850 N   0  0  0  0  0  0  0  0  0  0  0  0
   30.1417  -10.6609  -18.5473 C   0  0  0  0  0  0  0  0  0  0  0  0
   29.5509  -11.1406  -19.5487 O   0  0  0  0  0  0  0  0  0  0  0  0
   27.1324  -12.4832  -15.0711 C   0  0  0  0  0  0  0  0  0  0  0  0
   27.6481  -11.8771  -16.3735 C   0  0  0  0  0  0  0  0  0  0  0  0
   27.3080  -10.4453  -16.5014 C   0  0  2  0  0  0  0  0  0  0  0  0
   25.8405  -10.1472  -16.3063 C   0  0  0  0  0  0  0  0  0  0  0  0
   27.8911   -9.8280  -17.7443 C   0  0  2  0  0  0  0  0  0  0  0  0
   29.3769   -9.9028  -17.6236 N   0  0  0  0  0  0  0  0  0  0  0  0
   27.5027   -8.4365  -18.0031 C   0  0  0  0  0  0  0  0  0  0  0  0
   27.8903   -7.5021  -17.2097 O   0  0  0  0  0  0  0  0  0  0  0  0
   25.7947   -6.3090  -20.6255 C   0  0  0  0  0  0  0  0  0  0  0  0
   26.3410   -6.5895  -19.2479 C   0  0  2  0  0  0  0  0  0  0  0  0
   26.7134   -7.9933  -19.0878 N   0  0  0  0  0  0  0  0  0  0  0  0
   25.4204   -6.1484  -18.1775 C   0  0  0  0  0  0  0  0  0  0  0  0
   25.4967   -4.8771  -17.6239 O   0  0  0  0  0  0  0  0  0  0  0  0
   24.5227   -6.8970  -17.7127 O   0  0  0  0  0  0  0  0  0  0  0  0
  1  2  1  0
  3  2  1  0
  4  3  1  0
  5  6  1  6
  5  4  1  0
  7  5  1  0
  8  7  2  0
  9 10  1  0
 10 11  1  0
 11 12  1  6
 13 11  1  0
 13 14  1  1
 14  7  1  0
 15 19  1  0
 15 13  1  0
 16 15  2  0
 18 17  1  6
 18 19  1  0
 20 18  1  0
 20 21  1  0
 22 20  2  0
M  END
$$$$
