MIA.pdb
     RDKit          3D

 22 21  0  0  1  0  0  0  0  0999 V2000
   24.8978  -11.3348   10.1122 C   0  0  0  0  0  0  0  0  0  0  0  0
   23.2802  -12.0631    9.8532 S   0  0  0  0  0  0  0  0  0  0  0  0
   22.3028  -11.0931    8.6835 C   0  0  0  0  0  0  0  0  0  0  0  0
   20.9701  -11.7860    8.5062 C   0  0  0  0  0  0  0  0  0  0  0  0
   20.0681  -11.0395    7.5474 C   0  0  2  0  0  0  0  0  0  0  0  0
   19.5027   -9.8678    8.1358 N   0  0  0  0  0  0  0  0  0  0  0  0
   19.0138  -12.0185    7.1166 C   0  0  0  0  0  0  0  0  0  0  0  0
   17.8586  -11.9885    7.6132 O   0  0  0  0  0  0  0  0  0  0  0  0
   19.1566  -13.1044    2.0191 C   0  0  0  0  0  0  0  0  0  0  0  0
   18.5317  -12.9038    3.3970 C   0  0  0  0  0  0  0  0  0  0  0  0
   18.4736  -14.1572    4.1766 C   0  0  2  0  0  0  0  0  0  0  0  0
   17.5791  -15.2118    3.5701 C   0  0  0  0  0  0  0  0  0  0  0  0
   18.2128  -13.9097    5.6383 C   0  0  2  0  0  0  0  0  0  0  0  0
   19.2912  -13.0058    6.1362 N   0  0  0  0  0  0  0  0  0  0  0  0
   18.1650  -15.1074    6.4853 C   0  0  0  0  0  0  0  0  0  0  0  0
   19.2439  -15.7580    6.7411 O   0  0  0  0  0  0  0  0  0  0  0  0
   15.8759  -16.9119    8.8624 C   0  0  0  0  0  0  0  0  0  0  0  0
   17.0462  -16.8450    7.9135 C   0  0  2  0  0  0  0  0  0  0  0  0
   17.0025  -15.6441    7.0823 N   0  0  0  0  0  0  0  0  0  0  0  0
   17.1738  -18.0678    7.0911 C   0  0  0  0  0  0  0  0  0  0  0  0
   17.8326  -19.1982    7.5569 O   0  0  0  0  0  0  0  0  0  0  0  0
   16.6951  -18.1502    5.9308 O   0  0  0  0  0  0  0  0  0  0  0  0
  1  2  1  0
  3  2  1  0
  4  3  1  0
  5  6  1  1
  5  4  1  0
  7  5  1  0
  8  7  2  0
  9 10  1  0
 10 11  1  0
 11 12  1  6
 13 11  1  0
 13 14  1  1
 14  7  1  0
 15 19  1  0
 15 13  1  0
 16 15  2  0
 18 17  1  6
 18 19  1  0
 20 18  1  0
 20 21  1  0
 22 20  2  0
M  END
$$$$
