MIA.pdb
     RDKit          3D

 22 21  0  0  1  0  0  0  0  0999 V2000
   28.2529  -12.2222  -15.4765 C   0  0  0  0  0  0  0  0  0  0  0  0
   27.3501  -13.7707  -15.4393 S   0  0  0  0  0  0  0  0  0  0  0  0
   26.8441  -14.2760  -17.0985 C   0  0  0  0  0  0  0  0  0  0  0  0
   25.7685  -13.3212  -17.5662 C   0  0  0  0  0  0  0  0  0  0  0  0
   24.3814  -13.8963  -17.3777 C   0  0  2  0  0  0  0  0  0  0  0  0
   24.1795  -15.0861  -18.1410 N   0  0  0  0  0  0  0  0  0  0  0  0
   23.4212  -12.8085  -17.7655 C   0  0  0  0  0  0  0  0  0  0  0  0
   23.1110  -12.6153  -18.9690 O   0  0  0  0  0  0  0  0  0  0  0  0
   18.0119  -11.0830  -16.6761 C   0  0  0  0  0  0  0  0  0  0  0  0
   19.3807  -10.5309  -17.0648 C   0  0  0  0  0  0  0  0  0  0  0  0
   20.4652  -11.5099  -16.8468 C   0  0  2  0  0  0  0  0  0  0  0  0
   20.3986  -12.2060  -15.5084 C   0  0  0  0  0  0  0  0  0  0  0  0
   21.8217  -10.9412  -17.1666 C   0  0  2  0  0  0  0  0  0  0  0  0
   22.8361  -11.9672  -16.7843 N   0  0  0  0  0  0  0  0  0  0  0  0
   22.1505   -9.6743  -16.5026 C   0  0  0  0  0  0  0  0  0  0  0  0
   22.5689   -9.6747  -15.2869 O   0  0  0  0  0  0  0  0  0  0  0  0
   22.5809   -5.9943  -17.2287 C   0  0  0  0  0  0  0  0  0  0  0  0
   22.3205   -7.1742  -16.3260 C   0  0  2  0  0  0  0  0  0  0  0  0
   22.0558   -8.3922  -17.0884 N   0  0  0  0  0  0  0  0  0  0  0  0
   21.2462   -6.9054  -15.3454 C   0  0  0  0  0  0  0  0  0  0  0  0
   21.4978   -6.2586  -14.1425 O   0  0  0  0  0  0  0  0  0  0  0  0
   20.0522   -7.2463  -15.5465 O   0  0  0  0  0  0  0  0  0  0  0  0
  1  2  1  0
  3  2  1  0
  4  3  1  0
  5  6  1  6
  5  4  1  0
  7  5  1  0
  8  7  2  0
  9 10  1  0
 10 11  1  0
 11 12  1  1
 13 11  1  0
 13 14  1  1
 14  7  1  0
 15 19  1  0
 15 13  1  0
 16 15  2  0
 18 17  1  6
 18 19  1  0
 20 18  1  0
 20 21  1  0
 22 20  2  0
M  END
$$$$
