MIA.pdb
     RDKit          3D

 22 21  0  0  1  0  0  0  0  0999 V2000
   24.4296  -17.7262  -18.5319 C   0  0  0  0  0  0  0  0  0  0  0  0
   26.0847  -17.5066  -19.1851 S   0  0  0  0  0  0  0  0  0  0  0  0
   27.2452  -18.6738  -18.4400 C   0  0  0  0  0  0  0  0  0  0  0  0
   26.5537  -19.3291  -17.2653 C   0  0  0  0  0  0  0  0  0  0  0  0
   27.4891  -20.2321  -16.4907 C   0  0  2  0  0  0  0  0  0  0  0  0
   28.1249  -21.1993  -17.3269 N   0  0  0  0  0  0  0  0  0  0  0  0
   26.6574  -20.8747  -15.4179 C   0  0  0  0  0  0  0  0  0  0  0  0
   26.3025  -22.0781  -15.5053 O   0  0  0  0  0  0  0  0  0  0  0  0
   26.1330  -21.8429   -9.9087 C   0  0  0  0  0  0  0  0  0  0  0  0
   25.3072  -20.8381  -10.7074 C   0  0  0  0  0  0  0  0  0  0  0  0
   26.0419  -20.3060  -11.8732 C   0  0  2  0  0  0  0  0  0  0  0  0
   26.2495  -18.8108  -11.8328 C   0  0  0  0  0  0  0  0  0  0  0  0
   25.4813  -20.8042  -13.1783 C   0  0  2  0  0  0  0  0  0  0  0  0
   26.2480  -20.1416  -14.2742 N   0  0  0  0  0  0  0  0  0  0  0  0
   24.0483  -20.5640  -13.3856 C   0  0  0  0  0  0  0  0  0  0  0  0
   23.6392  -19.4090  -13.7748 O   0  0  0  0  0  0  0  0  0  0  0  0
   21.1755  -20.1066  -12.3906 C   0  0  0  0  0  0  0  0  0  0  0  0
   21.6110  -21.1723  -13.3651 C   0  0  2  0  0  0  0  0  0  0  0  0
   23.0213  -21.5159  -13.1982 N   0  0  0  0  0  0  0  0  0  0  0  0
   21.3041  -20.8119  -14.7664 C   0  0  0  0  0  0  0  0  0  0  0  0
   20.0153  -20.4953  -15.1757 O   0  0  0  0  0  0  0  0  0  0  0  0
   22.1891  -20.7729  -15.6594 O   0  0  0  0  0  0  0  0  0  0  0  0
  1  2  1  0
  3  2  1  0
  4  3  1  0
  5  6  1  6
  5  4  1  0
  7  5  1  0
  8  7  2  0
  9 10  1  0
 10 11  1  0
 11 12  1  6
 13 11  1  0
 13 14  1  6
 14  7  1  0
 15 19  1  0
 15 13  1  0
 16 15  2  0
 18 17  1  1
 18 19  1  0
 20 18  1  0
 20 21  1  0
 22 20  2  0
M  END
$$$$
