MIA.pdb
     RDKit          3D

 22 21  0  0  1  0  0  0  0  0999 V2000
   30.2561  -21.5950   -7.7019 C   0  0  0  0  0  0  0  0  0  0  0  0
   31.6571  -22.0670   -8.7161 S   0  0  0  0  0  0  0  0  0  0  0  0
   31.1866  -22.2258  -10.4532 C   0  0  0  0  0  0  0  0  0  0  0  0
   29.9680  -21.3602  -10.6846 C   0  0  0  0  0  0  0  0  0  0  0  0
   29.3671  -21.5850  -12.0552 C   0  0  2  0  0  0  0  0  0  0  0  0
   30.3130  -21.3722  -13.1035 N   0  0  0  0  0  0  0  0  0  0  0  0
   28.1948  -20.6517  -12.1563 C   0  0  0  0  0  0  0  0  0  0  0  0
   28.3483  -19.4059  -12.0772 O   0  0  0  0  0  0  0  0  0  0  0  0
   24.7680  -18.9708  -16.2042 C   0  0  0  0  0  0  0  0  0  0  0  0
   24.7248  -19.1621  -14.6906 C   0  0  0  0  0  0  0  0  0  0  0  0
   25.8077  -20.0408  -14.2032 C   0  0  2  0  0  0  0  0  0  0  0  0
   25.9402  -21.3315  -14.9757 C   0  0  0  0  0  0  0  0  0  0  0  0
   25.7618  -20.2304  -12.7107 C   0  0  2  0  0  0  0  0  0  0  0  0
   26.8795  -21.1494  -12.3441 N   0  0  0  0  0  0  0  0  0  0  0  0
   24.5054  -20.7712  -12.1787 C   0  0  0  0  0  0  0  0  0  0  0  0
   24.2354  -22.0211  -12.3118 O   0  0  0  0  0  0  0  0  0  0  0  0
   21.7474  -19.9115   -9.7934 C   0  0  0  0  0  0  0  0  0  0  0  0
   22.2973  -20.6522  -10.9866 C   0  0  2  0  0  0  0  0  0  0  0  0
   23.5153  -20.0278  -11.4982 N   0  0  0  0  0  0  0  0  0  0  0  0
   21.2886  -20.8258  -12.0544 C   0  0  0  0  0  0  0  0  0  0  0  0
   20.2079  -21.6856  -11.9081 O   0  0  0  0  0  0  0  0  0  0  0  0
   21.3543  -20.2072  -13.1477 O   0  0  0  0  0  0  0  0  0  0  0  0
  1  2  1  0
  3  2  1  0
  4  3  1  0
  5  6  1  6
  5  4  1  0
  7  5  1  0
  8  7  2  0
  9 10  1  0
 10 11  1  0
 11 12  1  6
 13 11  1  0
 13 14  1  6
 14  7  1  0
 15 19  1  0
 15 13  1  0
 16 15  2  0
 18 17  1  1
 18 19  1  0
 20 18  1  0
 20 21  1  0
 22 20  2  0
M  END
$$$$
