MIA.pdb
     RDKit          3D

 22 21  0  0  1  0  0  0  0  0999 V2000
   11.2016  -15.9312  -10.2093 C   0  0  0  0  0  0  0  0  0  0  0  0
   10.7611  -14.5740  -11.2948 S   0  0  0  0  0  0  0  0  0  0  0  0
   11.4369  -14.8134  -12.9532 C   0  0  0  0  0  0  0  0  0  0  0  0
   12.9450  -14.8356  -12.8406 C   0  0  0  0  0  0  0  0  0  0  0  0
   13.6101  -15.0013  -14.1898 C   0  0  2  0  0  0  0  0  0  0  0  0
   13.9608  -16.3591  -14.4584 N   0  0  0  0  0  0  0  0  0  0  0  0
   14.8122  -14.1010  -14.1771 C   0  0  0  0  0  0  0  0  0  0  0  0
   15.9210  -14.5049  -13.7419 O   0  0  0  0  0  0  0  0  0  0  0  0
   18.3496  -11.2450  -17.2783 C   0  0  0  0  0  0  0  0  0  0  0  0
   17.2417  -10.6189  -16.4356 C   0  0  0  0  0  0  0  0  0  0  0  0
   16.1112  -11.5437  -16.2153 C   0  0  2  0  0  0  0  0  0  0  0  0
   14.8240  -11.1002  -16.8688 C   0  0  0  0  0  0  0  0  0  0  0  0
   15.9557  -11.9218  -14.7666 C   0  0  2  0  0  0  0  0  0  0  0  0
   14.7311  -12.7680  -14.6562 N   0  0  0  0  0  0  0  0  0  0  0  0
   15.8468  -10.7997  -13.8268 C   0  0  0  0  0  0  0  0  0  0  0  0
   14.7691  -10.1001  -13.7823 O   0  0  0  0  0  0  0  0  0  0  0  0
   17.3001   -9.5343  -10.6582 C   0  0  0  0  0  0  0  0  0  0  0  0
   16.6415   -9.2803  -11.9910 C   0  0  2  0  0  0  0  0  0  0  0  0
   16.8482  -10.3904  -12.9182 N   0  0  0  0  0  0  0  0  0  0  0  0
   17.0579   -7.9924  -12.5874 C   0  0  0  0  0  0  0  0  0  0  0  0
   16.6342   -6.7750  -12.0705 O   0  0  0  0  0  0  0  0  0  0  0  0
   17.8145   -7.9298  -13.5904 O   0  0  0  0  0  0  0  0  0  0  0  0
  1  2  1  0
  3  2  1  0
  4  3  1  0
  5  6  1  1
  5  4  1  0
  7  5  1  0
  8  7  2  0
  9 10  1  0
 10 11  1  0
 11 12  1  1
 13 11  1  0
 13 14  1  6
 14  7  1  0
 15 19  1  0
 15 13  1  0
 16 15  2  0
 18 17  1  1
 18 19  1  0
 20 18  1  0
 20 21  1  0
 22 20  2  0
M  END
$$$$
