MIA.pdb
     RDKit          3D

 22 21  0  0  1  0  0  0  0  0999 V2000
   28.5493  -13.4224  -15.3392 C   0  0  0  0  0  0  0  0  0  0  0  0
   27.4446  -12.1631  -15.9777 S   0  0  0  0  0  0  0  0  0  0  0  0
   25.7703  -12.8067  -16.1945 C   0  0  0  0  0  0  0  0  0  0  0  0
   24.8680  -11.6438  -16.5428 C   0  0  0  0  0  0  0  0  0  0  0  0
   23.4459  -12.0905  -16.8041 C   0  0  2  0  0  0  0  0  0  0  0  0
   23.3486  -12.9557  -17.9359 N   0  0  0  0  0  0  0  0  0  0  0  0
   22.6395  -10.8361  -16.9830 C   0  0  0  0  0  0  0  0  0  0  0  0
   22.5071  -10.3057  -18.1157 O   0  0  0  0  0  0  0  0  0  0  0  0
   18.1056  -11.1043  -15.8108 C   0  0  0  0  0  0  0  0  0  0  0  0
   19.0751  -10.1714  -16.5313 C   0  0  0  0  0  0  0  0  0  0  0  0
   19.7940   -9.2783  -15.5997 C   0  0  2  0  0  0  0  0  0  0  0  0
   19.0069   -8.0532  -15.1996 C   0  0  0  0  0  0  0  0  0  0  0  0
   21.1929   -8.9739  -16.0645 C   0  0  2  0  0  0  0  0  0  0  0  0
   22.0036  -10.2132  -15.8781 N   0  0  0  0  0  0  0  0  0  0  0  0
   21.8600   -7.8599  -15.3803 C   0  0  0  0  0  0  0  0  0  0  0  0
   22.2085   -7.9776  -14.1484 O   0  0  0  0  0  0  0  0  0  0  0  0
   23.3128   -4.4367  -16.1211 C   0  0  0  0  0  0  0  0  0  0  0  0
   22.9111   -5.5834  -15.2275 C   0  0  2  0  0  0  0  0  0  0  0  0
   22.1795   -6.6128  -15.9623 N   0  0  0  0  0  0  0  0  0  0  0  0
   22.1596   -5.1314  -14.0365 C   0  0  0  0  0  0  0  0  0  0  0  0
   22.7985   -4.8098  -12.8460 O   0  0  0  0  0  0  0  0  0  0  0  0
   20.9072   -5.0142  -14.0368 O   0  0  0  0  0  0  0  0  0  0  0  0
  1  2  1  0
  3  2  1  0
  4  3  1  0
  5  6  1  6
  5  4  1  0
  7  5  1  0
  8  7  2  0
  9 10  1  0
 10 11  1  0
 11 12  1  6
 13 11  1  0
 13 14  1  1
 14  7  1  0
 15 19  1  0
 15 13  1  0
 16 15  2  0
 18 17  1  6
 18 19  1  0
 20 18  1  0
 20 21  1  0
 22 20  2  0
M  END
$$$$
