MIA.pdb
     RDKit          3D

 22 21  0  0  1  0  0  0  0  0999 V2000
   18.4081   -7.5980  -21.7655 C   0  0  0  0  0  0  0  0  0  0  0  0
   17.8586   -9.2971  -21.9245 S   0  0  0  0  0  0  0  0  0  0  0  0
   18.8490  -10.4065  -20.8983 C   0  0  0  0  0  0  0  0  0  0  0  0
   18.9435   -9.7990  -19.5165 C   0  0  0  0  0  0  0  0  0  0  0  0
   19.8773  -10.5808  -18.6181 C   0  0  2  0  0  0  0  0  0  0  0  0
   19.4800  -11.9453  -18.4793 N   0  0  0  0  0  0  0  0  0  0  0  0
   19.8900   -9.8610  -17.3000 C   0  0  0  0  0  0  0  0  0  0  0  0
   18.9982  -10.0696  -16.4380 O   0  0  0  0  0  0  0  0  0  0  0  0
   23.5625  -10.4116  -14.0554 C   0  0  0  0  0  0  0  0  0  0  0  0
   22.2319  -10.0103  -14.6862 C   0  0  0  0  0  0  0  0  0  0  0  0
   22.1482   -8.5590  -14.9484 C   0  0  2  0  0  0  0  0  0  0  0  0
   22.4106   -7.7033  -13.7321 C   0  0  0  0  0  0  0  0  0  0  0  0
   20.8953   -8.1839  -15.6936 C   0  0  2  0  0  0  0  0  0  0  0  0
   20.9095   -8.9244  -16.9895 N   0  0  0  0  0  0  0  0  0  0  0  0
   20.7234   -6.7517  -15.9642 C   0  0  0  0  0  0  0  0  0  0  0  0
   21.5713   -6.1305  -16.7045 O   0  0  0  0  0  0  0  0  0  0  0  0
   18.2762   -3.9202  -15.4752 C   0  0  0  0  0  0  0  0  0  0  0  0
   19.6565   -4.4967  -15.6679 C   0  0  2  0  0  0  0  0  0  0  0  0
   19.6705   -5.9453  -15.4772 N   0  0  0  0  0  0  0  0  0  0  0  0
   20.6680   -3.8295  -14.8197 C   0  0  0  0  0  0  0  0  0  0  0  0
   21.1285   -4.4022  -13.6413 O   0  0  0  0  0  0  0  0  0  0  0  0
   21.1637   -2.7125  -15.1179 O   0  0  0  0  0  0  0  0  0  0  0  0
  1  2  1  0
  3  2  1  0
  4  3  1  0
  5  6  1  1
  5  4  1  0
  7  5  1  0
  8  7  2  0
  9 10  1  0
 10 11  1  0
 11 12  1  1
 13 11  1  0
 13 14  1  6
 14  7  1  0
 15 19  1  0
 15 13  1  0
 16 15  2  0
 18 17  1  1
 18 19  1  0
 20 18  1  0
 20 21  1  0
 22 20  2  0
M  END
$$$$
