MIA.pdb
     RDKit          3D

 22 21  0  0  1  0  0  0  0  0999 V2000
   20.8978  -23.5391  -16.8768 C   0  0  0  0  0  0  0  0  0  0  0  0
   19.4913  -22.4280  -16.8389 S   0  0  0  0  0  0  0  0  0  0  0  0
   19.4764  -21.4387  -15.3271 C   0  0  0  0  0  0  0  0  0  0  0  0
   20.8898  -20.9671  -15.0677 C   0  0  0  0  0  0  0  0  0  0  0  0
   21.1101  -20.6159  -13.6122 C   0  0  2  0  0  0  0  0  0  0  0  0
   20.2060  -19.6100  -13.1542 N   0  0  0  0  0  0  0  0  0  0  0  0
   22.5427  -20.1792  -13.4993 C   0  0  0  0  0  0  0  0  0  0  0  0
   22.8751  -18.9840  -13.7063 O   0  0  0  0  0  0  0  0  0  0  0  0
   25.1216  -21.1239   -9.2025 C   0  0  0  0  0  0  0  0  0  0  0  0
   24.6242  -20.6469  -10.5643 C   0  0  0  0  0  0  0  0  0  0  0  0
   25.4701  -21.1319  -11.6740 C   0  0  2  0  0  0  0  0  0  0  0  0
   26.9481  -20.9133  -11.4549 C   0  0  0  0  0  0  0  0  0  0  0  0
   24.9802  -20.6573  -13.0158 C   0  0  2  0  0  0  0  0  0  0  0  0
   23.5628  -21.1035  -13.1558 N   0  0  0  0  0  0  0  0  0  0  0  0
   25.7464  -21.1316  -14.1744 C   0  0  0  0  0  0  0  0  0  0  0  0
   25.9049  -22.3925  -14.3685 O   0  0  0  0  0  0  0  0  0  0  0  0
   27.7326  -19.7838  -17.1158 C   0  0  0  0  0  0  0  0  0  0  0  0
   27.1412  -20.8652  -16.2467 C   0  0  2  0  0  0  0  0  0  0  0  0
   26.3537  -20.3085  -15.1490 N   0  0  0  0  0  0  0  0  0  0  0  0
   28.1646  -21.8118  -15.7526 C   0  0  0  0  0  0  0  0  0  0  0  0
   28.4511  -22.9952  -16.4207 O   0  0  0  0  0  0  0  0  0  0  0  0
   28.8280  -21.5979  -14.7055 O   0  0  0  0  0  0  0  0  0  0  0  0
  1  2  1  0
  3  2  1  0
  4  3  1  0
  5  6  1  6
  5  4  1  0
  7  5  1  0
  8  7  2  0
  9 10  1  0
 10 11  1  0
 11 12  1  1
 13 11  1  0
 13 14  1  6
 14  7  1  0
 15 19  1  0
 15 13  1  0
 16 15  2  0
 18 17  1  1
 18 19  1  0
 20 18  1  0
 20 21  1  0
 22 20  2  0
M  END
$$$$
