MIA.pdb
     RDKit          3D

 22 21  0  0  1  0  0  0  0  0999 V2000
   26.1526  -20.7307   -9.8172 C   0  0  0  0  0  0  0  0  0  0  0  0
   24.4697  -21.3365   -9.6941 S   0  0  0  0  0  0  0  0  0  0  0  0
   23.4265  -20.6475  -10.9985 C   0  0  0  0  0  0  0  0  0  0  0  0
   24.2315  -20.6368  -12.2789 C   0  0  0  0  0  0  0  0  0  0  0  0
   23.4517  -20.0424  -13.4317 C   0  0  2  0  0  0  0  0  0  0  0  0
   22.3012  -20.8193  -13.7659 N   0  0  0  0  0  0  0  0  0  0  0  0
   24.4149  -19.9397  -14.5796 C   0  0  0  0  0  0  0  0  0  0  0  0
   24.3313  -20.7128  -15.5681 O   0  0  0  0  0  0  0  0  0  0  0  0
   26.1046  -15.2173  -14.9144 C   0  0  0  0  0  0  0  0  0  0  0  0
   25.9316  -16.3768  -15.8916 C   0  0  0  0  0  0  0  0  0  0  0  0
   26.9448  -17.4338  -15.6959 C   0  0  2  0  0  0  0  0  0  0  0  0
   28.1776  -17.2629  -16.5510 C   0  0  0  0  0  0  0  0  0  0  0  0
   26.3499  -18.8150  -15.7605 C   0  0  2  0  0  0  0  0  0  0  0  0
   25.4475  -18.9667  -14.5813 N   0  0  0  0  0  0  0  0  0  0  0  0
   27.3147  -19.9210  -15.7685 C   0  0  0  0  0  0  0  0  0  0  0  0
   27.8920  -20.2791  -14.6771 O   0  0  0  0  0  0  0  0  0  0  0  0
   28.0595  -23.0565  -16.4238 C   0  0  0  0  0  0  0  0  0  0  0  0
   28.6828  -21.7433  -16.8260 C   0  0  2  0  0  0  0  0  0  0  0  0
   27.6906  -20.6735  -16.9036 N   0  0  0  0  0  0  0  0  0  0  0  0
   29.4616  -21.8509  -18.0788 C   0  0  0  0  0  0  0  0  0  0  0  0
   29.1822  -21.0592  -19.1851 O   0  0  0  0  0  0  0  0  0  0  0  0
   30.4147  -22.6613  -18.2100 O   0  0  0  0  0  0  0  0  0  0  0  0
  1  2  1  0
  3  2  1  0
  4  3  1  0
  5  6  1  6
  5  4  1  0
  7  5  1  0
  8  7  2  0
  9 10  1  0
 10 11  1  0
 11 12  1  6
 13 11  1  0
 13 14  1  1
 14  7  1  0
 15 19  1  0
 15 13  1  0
 16 15  2  0
 18 17  1  6
 18 19  1  0
 20 18  1  0
 20 21  1  0
 22 20  2  0
M  END
$$$$
