MIA.pdb
     RDKit          3D

 22 21  0  0  1  0  0  0  0  0999 V2000
   24.7786  -20.0116   -7.9438 C   0  0  0  0  0  0  0  0  0  0  0  0
   26.4855  -19.4757   -8.0590 S   0  0  0  0  0  0  0  0  0  0  0  0
   27.4108  -20.4797   -9.2423 C   0  0  0  0  0  0  0  0  0  0  0  0
   26.7479  -20.3322  -10.5937 C   0  0  0  0  0  0  0  0  0  0  0  0
   26.0200  -21.5931  -11.0068 C   0  0  2  0  0  0  0  0  0  0  0  0
   26.8918  -22.7212  -11.0857 N   0  0  0  0  0  0  0  0  0  0  0  0
   25.3719  -21.2886  -12.3270 C   0  0  0  0  0  0  0  0  0  0  0  0
   25.9653  -21.5235  -13.4108 O   0  0  0  0  0  0  0  0  0  0  0  0
   19.9837  -21.9675  -12.6064 C   0  0  0  0  0  0  0  0  0  0  0  0
   21.4908  -21.8867  -12.8335 C   0  0  0  0  0  0  0  0  0  0  0  0
   21.9003  -20.6046  -13.4425 C   0  0  2  0  0  0  0  0  0  0  0  0
   21.0595  -20.1966  -14.6286 C   0  0  0  0  0  0  0  0  0  0  0  0
   23.3820  -20.5416  -13.7004 C   0  0  2  0  0  0  0  0  0  0  0  0
   24.0705  -20.7268  -12.3891 N   0  0  0  0  0  0  0  0  0  0  0  0
   23.8651  -19.3031  -14.3223 C   0  0  0  0  0  0  0  0  0  0  0  0
   23.5051  -18.1630  -13.8498 O   0  0  0  0  0  0  0  0  0  0  0  0
   26.5349  -17.9662  -16.5303 C   0  0  0  0  0  0  0  0  0  0  0  0
   25.1112  -17.9495  -16.0328 C   0  0  2  0  0  0  0  0  0  0  0  0
   24.7301  -19.2280  -15.4369 N   0  0  0  0  0  0  0  0  0  0  0  0
   24.1541  -17.5345  -17.0813 C   0  0  0  0  0  0  0  0  0  0  0  0
   24.1094  -16.2307  -17.5576 O   0  0  0  0  0  0  0  0  0  0  0  0
   23.3325  -18.3358  -17.5963 O   0  0  0  0  0  0  0  0  0  0  0  0
  1  2  1  0
  3  2  1  0
  4  3  1  0
  5  6  1  6
  5  4  1  0
  7  5  1  0
  8  7  2  0
  9 10  1  0
 10 11  1  0
 11 12  1  6
 13 11  1  0
 13 14  1  1
 14  7  1  0
 15 19  1  0
 15 13  1  0
 16 15  2  0
 18 17  1  6
 18 19  1  0
 20 18  1  0
 20 21  1  0
 22 20  2  0
M  END
$$$$
