MIA.pdb
     RDKit          3D

 22 21  0  0  1  0  0  0  0  0999 V2000
   28.0094  -17.9691   -5.8434 C   0  0  0  0  0  0  0  0  0  0  0  0
   27.6359  -19.6273   -5.2733 S   0  0  0  0  0  0  0  0  0  0  0  0
   27.7318  -20.8235   -6.6240 C   0  0  0  0  0  0  0  0  0  0  0  0
   26.9532  -20.2649   -7.7942 C   0  0  0  0  0  0  0  0  0  0  0  0
   26.9707  -21.2010   -8.9831 C   0  0  2  0  0  0  0  0  0  0  0  0
   28.2974  -21.5020   -9.4168 N   0  0  0  0  0  0  0  0  0  0  0  0
   26.1659  -20.5277  -10.0577 C   0  0  0  0  0  0  0  0  0  0  0  0
   26.1739  -19.2766  -10.1868 O   0  0  0  0  0  0  0  0  0  0  0  0
   28.0745  -21.3230  -14.2590 C   0  0  0  0  0  0  0  0  0  0  0  0
   27.1653  -20.7632  -13.1684 C   0  0  0  0  0  0  0  0  0  0  0  0
   25.7581  -21.1784  -13.3406 C   0  0  2  0  0  0  0  0  0  0  0  0
   25.2075  -20.9098  -14.7208 C   0  0  0  0  0  0  0  0  0  0  0  0
   24.8746  -20.6795  -12.2287 C   0  0  2  0  0  0  0  0  0  0  0  0
   25.3730  -21.2845  -10.9585 N   0  0  0  0  0  0  0  0  0  0  0  0
   23.4451  -20.9799  -12.3716 C   0  0  0  0  0  0  0  0  0  0  0  0
   22.9971  -22.1425  -12.0548 O   0  0  0  0  0  0  0  0  0  0  0  0
   20.1419  -19.9865  -12.0266 C   0  0  0  0  0  0  0  0  0  0  0  0
   21.0838  -20.5038  -13.0848 C   0  0  2  0  0  0  0  0  0  0  0  0
   22.4606  -20.0807  -12.8389 N   0  0  0  0  0  0  0  0  0  0  0  0
   20.6443  -20.1478  -14.4514 C   0  0  0  0  0  0  0  0  0  0  0  0
   21.4402  -19.3933  -15.3035 O   0  0  0  0  0  0  0  0  0  0  0  0
   19.5311  -20.5070  -14.9142 O   0  0  0  0  0  0  0  0  0  0  0  0
  1  2  1  0
  3  2  1  0
  4  3  1  0
  5  6  1  6
  5  4  1  0
  7  5  1  0
  8  7  2  0
  9 10  1  0
 10 11  1  0
 11 12  1  6
 13 11  1  0
 13 14  1  1
 14  7  1  0
 15 19  1  0
 15 13  1  0
 16 15  2  0
 18 17  1  1
 18 19  1  0
 20 18  1  0
 20 21  1  0
 22 20  2  0
M  END
$$$$
