MIA.pdb
     RDKit          3D

 22 21  0  0  1  0  0  0  0  0999 V2000
   22.9345  -24.3120  -16.9168 C   0  0  0  0  0  0  0  0  0  0  0  0
   24.6776  -23.9828  -17.1763 S   0  0  0  0  0  0  0  0  0  0  0  0
   25.5093  -23.5841  -15.6226 C   0  0  0  0  0  0  0  0  0  0  0  0
   24.4513  -23.4610  -14.5487 C   0  0  0  0  0  0  0  0  0  0  0  0
   24.2542  -22.0256  -14.1115 C   0  0  2  0  0  0  0  0  0  0  0  0
   25.4519  -21.4481  -13.5910 N   0  0  0  0  0  0  0  0  0  0  0  0
   23.1501  -22.0461  -13.0936 C   0  0  0  0  0  0  0  0  0  0  0  0
   23.3306  -22.5381  -11.9502 O   0  0  0  0  0  0  0  0  0  0  0  0
   21.5120  -19.4812  -10.1957 C   0  0  0  0  0  0  0  0  0  0  0  0
   21.2486  -19.2549  -11.6819 C   0  0  0  0  0  0  0  0  0  0  0  0
   20.2310  -20.1803  -12.2205 C   0  0  2  0  0  0  0  0  0  0  0  0
   18.9077  -20.1208  -11.4954 C   0  0  0  0  0  0  0  0  0  0  0  0
   20.7637  -21.5774  -12.3944 C   0  0  2  0  0  0  0  0  0  0  0  0
   21.8709  -21.5106  -13.3931 N   0  0  0  0  0  0  0  0  0  0  0  0
   19.7848  -22.5790  -12.8335 C   0  0  0  0  0  0  0  0  0  0  0  0
   19.3329  -22.5527  -14.0368 O   0  0  0  0  0  0  0  0  0  0  0  0
   18.1652  -25.8044  -11.7598 C   0  0  0  0  0  0  0  0  0  0  0  0
   18.1945  -24.4966  -12.5105 C   0  0  2  0  0  0  0  0  0  0  0  0
   19.2650  -23.6228  -12.0358 N   0  0  0  0  0  0  0  0  0  0  0  0
   16.8855  -23.8081  -12.4915 C   0  0  0  0  0  0  0  0  0  0  0  0
   15.8877  -24.1065  -13.4103 O   0  0  0  0  0  0  0  0  0  0  0  0
   16.6061  -22.9192  -11.6465 O   0  0  0  0  0  0  0  0  0  0  0  0
  1  2  1  0
  3  2  1  0
  4  3  1  0
  5  6  1  1
  5  4  1  0
  7  5  1  0
  8  7  2  0
  9 10  1  0
 10 11  1  0
 11 12  1  1
 13 11  1  0
 13 14  1  6
 14  7  1  0
 15 19  1  0
 15 13  1  0
 16 15  2  0
 18 17  1  1
 18 19  1  0
 20 18  1  0
 20 21  1  0
 22 20  2  0
M  END
$$$$
