SLL.pdb
     RDKit          3D

 23 22  0  0  1  0  0  0  0  0999 V2000
   15.1160  -22.0154    4.4505 O   0  0  0  0  0  0  0  0  0  0  0  0
   14.1742  -21.2551    3.7895 C   0  0  0  0  0  0  0  0  0  0  0  0
   14.7619  -20.8299    2.4682 C   0  0  2  0  0  0  0  0  0  0  0  0
   15.0676  -22.0018    1.7048 N   0  0  0  0  0  0  0  0  0  0  0  0
   15.9843  -20.0091    2.6923 C   0  0  0  0  0  0  0  0  0  0  0  0
   17.1292  -20.5717    2.6711 O   0  0  0  0  0  0  0  0  0  0  0  0
   17.7434  -13.9925    3.0801 C   0  0  0  0  0  0  0  0  0  0  0  0
   17.9801  -15.4567    3.2626 C   0  0  2  0  0  0  0  0  0  0  0  0
   19.2429  -15.8164    2.5165 C   0  0  0  0  0  0  0  0  0  0  0  0
   16.8350  -16.3454    2.9948 C   0  0  0  0  0  0  0  0  0  0  0  0
   17.0307  -17.8087    3.2711 C   0  0  2  0  0  0  0  0  0  0  0  0
   15.8847  -18.6153    2.9275 N   0  0  0  0  0  0  0  0  0  0  0  0
   17.2419  -17.9273    4.7363 C   0  0  0  0  0  0  0  0  0  0  0  0
   16.2526  -18.1515    5.4710 O   0  0  0  0  0  0  0  0  0  0  0  0
   19.3018  -20.4274    8.1081 C   0  0  0  0  0  0  0  0  0  0  0  0
   20.1816  -19.7829    7.0250 C   0  0  2  0  0  0  0  0  0  0  0  0
   21.5984  -20.2208    7.2595 C   0  0  0  0  0  0  0  0  0  0  0  0
   19.9866  -18.3108    7.1524 C   0  0  0  0  0  0  0  0  0  0  0  0
   18.6204  -17.8070    6.7969 C   0  0  2  0  0  0  0  0  0  0  0  0
   18.5020  -17.8008    5.3512 N   0  0  0  0  0  0  0  0  0  0  0  0
   18.2944  -16.4880    7.3592 C   0  0  0  0  0  0  0  0  0  0  0  0
   17.8500  -16.4194    8.6913 O   0  0  0  0  0  0  0  0  0  0  0  0
   18.4006  -15.4328    6.6900 O   0  0  0  0  0  0  0  0  0  0  0  0
  2  1  1  0
  3  4  1  6
  3  2  1  0
  3  5  1  0
  5 12  1  0
  5  6  2  0
  8  7  1  6
  8  9  1  0
  8 10  1  0
 11 10  1  1
 11 13  1  0
 12 11  1  0
 13 14  2  0
 16 18  1  0
 16 15  1  1
 17 16  1  0
 19 18  1  6
 19 21  1  0
 20 13  1  0
 20 19  1  0
 21 22  1  0
 23 21  2  0
M  END
$$$$
