SLL.pdb
     RDKit          3D

 23 22  0  0  1  0  0  0  0  0999 V2000
   16.1313   -9.5928  -18.1596 O   0  0  0  0  0  0  0  0  0  0  0  0
   16.8179   -9.1362  -17.0540 C   0  0  0  0  0  0  0  0  0  0  0  0
   17.7767  -10.2160  -16.6219 C   0  0  2  0  0  0  0  0  0  0  0  0
   17.0327  -11.2617  -15.9873 N   0  0  0  0  0  0  0  0  0  0  0  0
   18.7970   -9.6531  -15.6944 C   0  0  0  0  0  0  0  0  0  0  0  0
   18.4777   -9.4131  -14.4828 O   0  0  0  0  0  0  0  0  0  0  0  0
   22.6769  -11.0840  -13.7058 C   0  0  0  0  0  0  0  0  0  0  0  0
   22.8135  -10.7929  -15.1652 C   0  0  2  0  0  0  0  0  0  0  0  0
   24.1602  -11.3082  -15.6143 C   0  0  0  0  0  0  0  0  0  0  0  0
   22.5109   -9.4146  -15.5911 C   0  0  0  0  0  0  0  0  0  0  0  0
   21.1427   -8.8873  -15.2661 C   0  0  2  0  0  0  0  0  0  0  0  0
   20.1128   -9.3839  -16.1463 N   0  0  0  0  0  0  0  0  0  0  0  0
   21.2151   -7.4146  -15.4435 C   0  0  0  0  0  0  0  0  0  0  0  0
   21.4174   -6.9556  -16.5912 O   0  0  0  0  0  0  0  0  0  0  0  0
   18.8616   -4.3892  -16.5357 C   0  0  0  0  0  0  0  0  0  0  0  0
   18.5788   -4.9771  -15.1440 C   0  0  2  0  0  0  0  0  0  0  0  0
   17.2396   -4.4707  -14.6919 C   0  0  0  0  0  0  0  0  0  0  0  0
   19.7046   -4.5390  -14.2709 C   0  0  0  0  0  0  0  0  0  0  0  0
   21.0556   -5.0703  -14.6438 C   0  0  2  0  0  0  0  0  0  0  0  0
   21.0681   -6.4976  -14.3854 N   0  0  0  0  0  0  0  0  0  0  0  0
   22.1782   -4.4016  -13.9694 C   0  0  0  0  0  0  0  0  0  0  0  0
   22.4349   -3.0532  -14.2739 O   0  0  0  0  0  0  0  0  0  0  0  0
   22.9061   -4.9949  -13.1383 O   0  0  0  0  0  0  0  0  0  0  0  0
  2  1  1  0
  3  4  1  1
  3  2  1  0
  3  5  1  0
  5 12  1  0
  5  6  2  0
  8  7  1  1
  8  9  1  0
  8 10  1  0
 11 10  1  6
 11 13  1  0
 12 11  1  0
 13 14  2  0
 16 18  1  0
 16 15  1  6
 17 16  1  0
 19 18  1  1
 19 21  1  0
 20 13  1  0
 20 19  1  0
 21 22  1  0
 23 21  2  0
M  END
$$$$
