SLL.pdb
     RDKit          3D

 23 22  0  0  1  0  0  0  0  0999 V2000
   20.6660  -11.4759    5.1892 O   0  0  0  0  0  0  0  0  0  0  0  0
   19.9388  -12.5009    5.7572 C   0  0  0  0  0  0  0  0  0  0  0  0
   18.7944  -12.8288    4.8326 C   0  0  2  0  0  0  0  0  0  0  0  0
   17.7304  -11.9020    5.0748 N   0  0  0  0  0  0  0  0  0  0  0  0
   18.3396  -14.2289    5.0578 C   0  0  0  0  0  0  0  0  0  0  0  0
   17.5975  -14.4928    6.0615 O   0  0  0  0  0  0  0  0  0  0  0  0
   16.0199  -17.9288    2.6917 C   0  0  0  0  0  0  0  0  0  0  0  0
   17.3430  -17.4616    2.1775 C   0  0  2  0  0  0  0  0  0  0  0  0
   17.6129  -18.1809    0.8773 C   0  0  0  0  0  0  0  0  0  0  0  0
   18.4641  -17.4825    3.1343 C   0  0  0  0  0  0  0  0  0  0  0  0
   18.3220  -16.6360    4.3668 C   0  0  2  0  0  0  0  0  0  0  0  0
   18.7235  -15.2642    4.1698 N   0  0  0  0  0  0  0  0  0  0  0  0
   19.2295  -17.2295    5.3818 C   0  0  0  0  0  0  0  0  0  0  0  0
   20.4527  -16.9670    5.3225 O   0  0  0  0  0  0  0  0  0  0  0  0
   20.8241  -17.2570   10.5895 C   0  0  0  0  0  0  0  0  0  0  0  0
   21.1077  -18.1506    9.3714 C   0  0  2  0  0  0  0  0  0  0  0  0
   22.5710  -18.0454    9.0520 C   0  0  0  0  0  0  0  0  0  0  0  0
   20.2244  -17.6556    8.2778 C   0  0  0  0  0  0  0  0  0  0  0  0
   19.7412  -18.6986    7.3158 C   0  0  2  0  0  0  0  0  0  0  0  0
   18.7885  -18.0775    6.4153 N   0  0  0  0  0  0  0  0  0  0  0  0
   19.1652  -19.8920    7.9530 C   0  0  0  0  0  0  0  0  0  0  0  0
   19.9943  -21.0094    8.1547 O   0  0  0  0  0  0  0  0  0  0  0  0
   17.9665  -19.9404    8.3181 O   0  0  0  0  0  0  0  0  0  0  0  0
  2  1  1  0
  3  4  1  1
  3  2  1  0
  3  5  1  0
  5 12  1  0
  5  6  2  0
  8  7  1  1
  8  9  1  0
  8 10  1  0
 11 10  1  6
 11 13  1  0
 12 11  1  0
 13 14  2  0
 16 18  1  0
 16 15  1  1
 17 16  1  0
 19 18  1  1
 19 21  1  0
 20 13  1  0
 20 19  1  0
 21 22  1  0
 23 21  2  0
M  END
$$$$
