SLL.pdb
     RDKit          3D

 23 22  0  0  1  0  0  0  0  0999 V2000
   23.7569  -10.7463  -17.8916 O   0  0  0  0  0  0  0  0  0  0  0  0
   22.5099  -10.1888  -18.0815 C   0  0  0  0  0  0  0  0  0  0  0  0
   21.5416  -11.3039  -18.3834 C   0  0  2  0  0  0  0  0  0  0  0  0
   21.4382  -11.4483  -19.8040 N   0  0  0  0  0  0  0  0  0  0  0  0
   20.2123  -11.0039  -17.7826 C   0  0  0  0  0  0  0  0  0  0  0  0
   19.3990  -10.2455  -18.4079 O   0  0  0  0  0  0  0  0  0  0  0  0
   16.5735  -13.1137  -13.1082 C   0  0  0  0  0  0  0  0  0  0  0  0
   16.8398  -12.2711  -14.3134 C   0  0  2  0  0  0  0  0  0  0  0  0
   15.7431  -12.5403  -15.3161 C   0  0  0  0  0  0  0  0  0  0  0  0
   18.2048  -12.3290  -14.8667 C   0  0  0  0  0  0  0  0  0  0  0  0
   18.5438  -11.3408  -15.9457 C   0  0  2  0  0  0  0  0  0  0  0  0
   19.8468  -11.5523  -16.5282 N   0  0  0  0  0  0  0  0  0  0  0  0
   18.5528  -10.0060  -15.2946 C   0  0  0  0  0  0  0  0  0  0  0  0
   19.5351   -9.6888  -14.5852 O   0  0  0  0  0  0  0  0  0  0  0  0
   16.3615   -5.0222  -14.6818 C   0  0  0  0  0  0  0  0  0  0  0  0
   17.7339   -5.3171  -15.3080 C   0  0  2  0  0  0  0  0  0  0  0  0
   17.9782   -4.3005  -16.3855 C   0  0  0  0  0  0  0  0  0  0  0  0
   17.6669   -6.7165  -15.8165 C   0  0  0  0  0  0  0  0  0  0  0  0
   17.5852   -7.7823  -14.7658 C   0  0  2  0  0  0  0  0  0  0  0  0
   17.5108   -9.0693  -15.4310 N   0  0  0  0  0  0  0  0  0  0  0  0
   16.4758   -7.6141  -13.8154 C   0  0  0  0  0  0  0  0  0  0  0  0
   15.2476   -8.2348  -14.1033 O   0  0  0  0  0  0  0  0  0  0  0  0
   16.5936   -6.9388  -12.7653 O   0  0  0  0  0  0  0  0  0  0  0  0
  2  1  1  0
  3  4  1  6
  3  2  1  0
  3  5  1  0
  5 12  1  0
  5  6  2  0
  8  7  1  1
  8  9  1  0
  8 10  1  0
 11 10  1  1
 11 13  1  0
 12 11  1  0
 13 14  2  0
 16 18  1  0
 16 15  1  6
 17 16  1  0
 19 18  1  6
 19 21  1  0
 20 13  1  0
 20 19  1  0
 21 22  1  0
 23 21  2  0
M  END
$$$$
