SLL.pdb
     RDKit          3D

 23 22  0  0  1  0  0  0  0  0999 V2000
   20.8911  -20.5260  -10.7814 O   0  0  0  0  0  0  0  0  0  0  0  0
   21.5140  -19.5811  -11.5695 C   0  0  0  0  0  0  0  0  0  0  0  0
   22.4278  -20.3018  -12.5274 C   0  0  2  0  0  0  0  0  0  0  0  0
   21.6851  -21.3404  -13.1748 N   0  0  0  0  0  0  0  0  0  0  0  0
   23.5968  -20.8632  -11.7950 C   0  0  0  0  0  0  0  0  0  0  0  0
   23.5778  -22.0847  -11.4271 O   0  0  0  0  0  0  0  0  0  0  0  0
   29.6885  -20.1815  -11.9347 C   0  0  0  0  0  0  0  0  0  0  0  0
   28.4516  -20.7734  -11.3405 C   0  0  2  0  0  0  0  0  0  0  0  0
   28.4814  -22.2609  -11.5999 C   0  0  0  0  0  0  0  0  0  0  0  0
   27.1781  -20.1159  -11.6848 C   0  0  0  0  0  0  0  0  0  0  0  0
   25.9479  -20.6015  -10.9730 C   0  0  2  0  0  0  0  0  0  0  0  0
   24.7237  -20.0543  -11.5057 N   0  0  0  0  0  0  0  0  0  0  0  0
   26.0744  -20.1380   -9.5677 C   0  0  0  0  0  0  0  0  0  0  0  0
   25.8051  -18.9442   -9.3009 O   0  0  0  0  0  0  0  0  0  0  0  0
   26.4529  -20.3398   -4.2679 C   0  0  0  0  0  0  0  0  0  0  0  0
   27.5878  -21.1442   -4.9217 C   0  0  2  0  0  0  0  0  0  0  0  0
   28.8079  -20.2703   -4.9652 C   0  0  0  0  0  0  0  0  0  0  0  0
   27.0931  -21.5404   -6.2706 C   0  0  0  0  0  0  0  0  0  0  0  0
   26.8152  -20.4096   -7.2144 C   0  0  2  0  0  0  0  0  0  0  0  0
   26.4832  -20.9719   -8.5097 N   0  0  0  0  0  0  0  0  0  0  0  0
   27.9069  -19.4310   -7.3275 C   0  0  0  0  0  0  0  0  0  0  0  0
   27.8318  -18.2529   -6.5637 O   0  0  0  0  0  0  0  0  0  0  0  0
   28.8935  -19.6161   -8.0791 O   0  0  0  0  0  0  0  0  0  0  0  0
  2  1  1  0
  3  4  1  1
  3  2  1  0
  3  5  1  0
  5 12  1  0
  5  6  2  0
  8  7  1  6
  8  9  1  0
  8 10  1  0
 11 10  1  6
 11 13  1  0
 12 11  1  0
 13 14  2  0
 16 18  1  0
 16 15  1  6
 17 16  1  0
 19 18  1  1
 19 21  1  0
 20 13  1  0
 20 19  1  0
 21 22  1  0
 23 21  2  0
M  END
$$$$
