SLL.pdb
     RDKit          3D

 23 22  0  0  1  0  0  0  0  0999 V2000
   17.7680  -10.1540  -20.7121 O   0  0  0  0  0  0  0  0  0  0  0  0
   17.7062   -9.7062  -19.4091 C   0  0  0  0  0  0  0  0  0  0  0  0
   18.6847  -10.5111  -18.5926 C   0  0  2  0  0  0  0  0  0  0  0  0
   18.0511  -11.7302  -18.1901 N   0  0  0  0  0  0  0  0  0  0  0  0
   19.1280   -9.7271  -17.4064 C   0  0  0  0  0  0  0  0  0  0  0  0
   18.2997   -9.4940  -16.4644 O   0  0  0  0  0  0  0  0  0  0  0  0
   21.7586  -10.0280  -13.6963 C   0  0  0  0  0  0  0  0  0  0  0  0
   22.5182   -9.9420  -14.9804 C   0  0  2  0  0  0  0  0  0  0  0  0
   23.9640  -10.2620  -14.6834 C   0  0  0  0  0  0  0  0  0  0  0  0
   22.3121   -8.7245  -15.7852 C   0  0  0  0  0  0  0  0  0  0  0  0
   20.9051   -8.4243  -16.2162 C   0  0  2  0  0  0  0  0  0  0  0  0
   20.4560   -9.2412  -17.3175 N   0  0  0  0  0  0  0  0  0  0  0  0
   20.9064   -7.0116  -16.6745 C   0  0  0  0  0  0  0  0  0  0  0  0
   21.4789   -6.7288  -17.7520 O   0  0  0  0  0  0  0  0  0  0  0  0
   17.2798   -2.3932  -17.0216 C   0  0  0  0  0  0  0  0  0  0  0  0
   18.7766   -2.7268  -17.1257 C   0  0  2  0  0  0  0  0  0  0  0  0
   19.1920   -2.5450  -18.5570 C   0  0  0  0  0  0  0  0  0  0  0  0
   18.9254   -4.1272  -16.6379 C   0  0  0  0  0  0  0  0  0  0  0  0
   20.3357   -4.6051  -16.4665 C   0  0  2  0  0  0  0  0  0  0  0  0
   20.2952   -5.9638  -15.9601 N   0  0  0  0  0  0  0  0  0  0  0  0
   21.1677   -3.7468  -15.6101 C   0  0  0  0  0  0  0  0  0  0  0  0
   21.4751   -4.1925  -14.3126 O   0  0  0  0  0  0  0  0  0  0  0  0
   21.6064   -2.6390  -16.0011 O   0  0  0  0  0  0  0  0  0  0  0  0
  2  1  1  0
  3  4  1  1
  3  2  1  0
  3  5  1  0
  5 12  1  0
  5  6  2  0
  8  7  1  1
  8  9  1  0
  8 10  1  0
 11 10  1  6
 11 13  1  0
 12 11  1  0
 13 14  2  0
 16 18  1  0
 16 15  1  6
 17 16  1  0
 19 18  1  1
 19 21  1  0
 20 13  1  0
 20 19  1  0
 21 22  1  0
 23 21  2  0
M  END
$$$$
