SLL.pdb
     RDKit          3D

 23 22  0  0  1  0  0  0  0  0999 V2000
   27.6407  -18.2649  -16.3997 O   0  0  0  0  0  0  0  0  0  0  0  0
   27.1499  -19.5434  -16.2364 C   0  0  0  0  0  0  0  0  0  0  0  0
   27.8747  -20.1765  -15.0763 C   0  0  2  0  0  0  0  0  0  0  0  0
   28.8434  -21.0975  -15.5894 N   0  0  0  0  0  0  0  0  0  0  0  0
   26.9047  -20.8696  -14.1837 C   0  0  0  0  0  0  0  0  0  0  0  0
   26.4967  -22.0390  -14.4899 O   0  0  0  0  0  0  0  0  0  0  0  0
   26.5400  -21.9895   -9.4377 C   0  0  0  0  0  0  0  0  0  0  0  0
   26.3777  -20.5372   -9.7507 C   0  0  2  0  0  0  0  0  0  0  0  0
   26.2117  -19.7993   -8.4435 C   0  0  0  0  0  0  0  0  0  0  0  0
   25.3794  -20.1947  -10.7796 C   0  0  0  0  0  0  0  0  0  0  0  0
   25.5056  -20.8867  -12.1066 C   0  0  2  0  0  0  0  0  0  0  0  0
   26.4346  -20.2425  -13.0033 N   0  0  0  0  0  0  0  0  0  0  0  0
   24.1602  -20.8269  -12.7328 C   0  0  0  0  0  0  0  0  0  0  0  0
   23.7396  -19.7240  -13.1516 O   0  0  0  0  0  0  0  0  0  0  0  0
   20.7526  -22.5892  -16.3484 C   0  0  0  0  0  0  0  0  0  0  0  0
   20.4990  -23.2622  -14.9899 C   0  0  2  0  0  0  0  0  0  0  0  0
   19.3630  -22.5422  -14.3226 C   0  0  0  0  0  0  0  0  0  0  0  0
   21.7819  -23.1741  -14.2363 C   0  0  0  0  0  0  0  0  0  0  0  0
   22.0728  -21.8440  -13.6096 C   0  0  2  0  0  0  0  0  0  0  0  0
   23.3241  -21.9495  -12.8834 N   0  0  0  0  0  0  0  0  0  0  0  0
   21.0003  -21.3339  -12.7425 C   0  0  0  0  0  0  0  0  0  0  0  0
   20.9816  -21.7341  -11.3948 O   0  0  0  0  0  0  0  0  0  0  0  0
   20.1105  -20.5592  -13.1675 O   0  0  0  0  0  0  0  0  0  0  0  0
  2  1  1  0
  3  4  1  6
  3  2  1  0
  3  5  1  0
  5 12  1  0
  5  6  2  0
  8  7  1  1
  8  9  1  0
  8 10  1  0
 11 10  1  1
 11 13  1  0
 12 11  1  0
 13 14  2  0
 16 18  1  0
 16 15  1  6
 17 16  1  0
 19 18  1  1
 19 21  1  0
 20 13  1  0
 20 19  1  0
 21 22  1  0
 23 21  2  0
M  END
$$$$
