SLL.pdb
     RDKit          3D

 23 22  0  0  1  0  0  0  0  0999 V2000
   21.1491  -21.1509  -13.0283 O   0  0  0  0  0  0  0  0  0  0  0  0
   21.6975  -21.9932  -12.0840 C   0  0  0  0  0  0  0  0  0  0  0  0
   22.3186  -21.1431  -11.0053 C   0  0  2  0  0  0  0  0  0  0  0  0
   21.3571  -20.1726  -10.5770 N   0  0  0  0  0  0  0  0  0  0  0  0
   23.5481  -20.4796  -11.5211 C   0  0  0  0  0  0  0  0  0  0  0  0
   23.4854  -19.2711  -11.9251 O   0  0  0  0  0  0  0  0  0  0  0  0
   29.7304  -21.1123  -11.3492 C   0  0  0  0  0  0  0  0  0  0  0  0
   28.5152  -20.7097  -12.1204 C   0  0  2  0  0  0  0  0  0  0  0  0
   28.5109  -19.2028  -12.2210 C   0  0  0  0  0  0  0  0  0  0  0  0
   27.2362  -21.2992  -11.6855 C   0  0  0  0  0  0  0  0  0  0  0  0
   25.9820  -20.5855  -12.1018 C   0  0  2  0  0  0  0  0  0  0  0  0
   24.7803  -21.1778  -11.5660 N   0  0  0  0  0  0  0  0  0  0  0  0
   25.9169  -20.6947  -13.5815 C   0  0  0  0  0  0  0  0  0  0  0  0
   25.8222  -21.8320  -14.0976 O   0  0  0  0  0  0  0  0  0  0  0  0
   23.1262  -20.5237  -16.5727 C   0  0  0  0  0  0  0  0  0  0  0  0
   23.4005  -19.1128  -16.0278 C   0  0  2  0  0  0  0  0  0  0  0  0
   22.4010  -18.1772  -16.6442 C   0  0  0  0  0  0  0  0  0  0  0  0
   24.8115  -18.7951  -16.3878 C   0  0  0  0  0  0  0  0  0  0  0  0
   25.8405  -19.7589  -15.8791 C   0  0  2  0  0  0  0  0  0  0  0  0
   25.9559  -19.5827  -14.4439 N   0  0  0  0  0  0  0  0  0  0  0  0
   27.1531  -19.6464  -16.5323 C   0  0  0  0  0  0  0  0  0  0  0  0
   27.3296  -20.2514  -17.7891 O   0  0  0  0  0  0  0  0  0  0  0  0
   28.1103  -19.0316  -16.0046 O   0  0  0  0  0  0  0  0  0  0  0  0
  2  1  1  0
  3  4  1  6
  3  2  1  0
  3  5  1  0
  5 12  1  0
  5  6  2  0
  8  7  1  1
  8  9  1  0
  8 10  1  0
 11 10  1  1
 11 13  1  0
 12 11  1  0
 13 14  2  0
 16 18  1  0
 16 15  1  6
 17 16  1  0
 19 18  1  6
 19 21  1  0
 20 13  1  0
 20 19  1  0
 21 22  1  0
 23 21  2  0
M  END
$$$$
