SLL.pdb
     RDKit          3D

 23 22  0  0  1  0  0  0  0  0999 V2000
   16.4323  -12.5136  -12.9386 O   0  0  0  0  0  0  0  0  0  0  0  0
   16.4296  -11.1431  -13.0922 C   0  0  0  0  0  0  0  0  0  0  0  0
   15.3474  -10.5769  -12.2088 C   0  0  2  0  0  0  0  0  0  0  0  0
   14.0769  -10.8487  -12.8101 N   0  0  0  0  0  0  0  0  0  0  0  0
   15.5470   -9.1120  -12.0300 C   0  0  0  0  0  0  0  0  0  0  0  0
   15.2882   -8.3217  -12.9975 O   0  0  0  0  0  0  0  0  0  0  0  0
   13.6013   -5.9349   -9.3261 C   0  0  0  0  0  0  0  0  0  0  0  0
   14.5823   -6.7795   -8.5793 C   0  0  2  0  0  0  0  0  0  0  0  0
   14.4758   -6.4247   -7.1151 C   0  0  0  0  0  0  0  0  0  0  0  0
   15.9589   -6.8077   -9.1052 C   0  0  0  0  0  0  0  0  0  0  0  0
   16.1269   -7.1754  -10.5516 C   0  0  2  0  0  0  0  0  0  0  0  0
   16.0199   -8.5928  -10.7992 N   0  0  0  0  0  0  0  0  0  0  0  0
   17.5009   -6.7551  -10.9274 C   0  0  0  0  0  0  0  0  0  0  0  0
   18.4748   -7.3293  -10.3882 O   0  0  0  0  0  0  0  0  0  0  0  0
   21.1413   -7.9625  -14.4482 C   0  0  0  0  0  0  0  0  0  0  0  0
   20.9560   -6.6715  -13.6348 C   0  0  2  0  0  0  0  0  0  0  0  0
   22.0518   -6.6096  -12.6103 C   0  0  0  0  0  0  0  0  0  0  0  0
   19.5913   -6.7468  -13.0403 C   0  0  0  0  0  0  0  0  0  0  0  0
   19.1269   -5.5110  -12.3306 C   0  0  2  0  0  0  0  0  0  0  0  0
   17.7728   -5.7391  -11.8631 N   0  0  0  0  0  0  0  0  0  0  0  0
   19.2083   -4.2824  -13.1344 C   0  0  0  0  0  0  0  0  0  0  0  0
   20.3272   -3.4471  -12.9692 O   0  0  0  0  0  0  0  0  0  0  0  0
   18.3161   -3.9620  -13.9553 O   0  0  0  0  0  0  0  0  0  0  0  0
  2  1  1  0
  3  4  1  6
  3  2  1  0
  3  5  1  0
  5 12  1  0
  5  6  2  0
  8  7  1  6
  8  9  1  0
  8 10  1  0
 11 10  1  1
 11 13  1  0
 12 11  1  0
 13 14  2  0
 16 18  1  0
 16 15  1  1
 17 16  1  0
 19 18  1  6
 19 21  1  0
 20 13  1  0
 20 19  1  0
 21 22  1  0
 23 21  2  0
M  END
$$$$
