SLL.pdb
     RDKit          3D

 23 22  0  0  1  0  0  0  0  0999 V2000
   26.5019  -18.3747  -16.4305 O   0  0  0  0  0  0  0  0  0  0  0  0
   27.3011  -18.1385  -15.3316 C   0  0  0  0  0  0  0  0  0  0  0  0
   27.8688  -19.4583  -14.8756 C   0  0  2  0  0  0  0  0  0  0  0  0
   28.4642  -20.1137  -16.0006 N   0  0  0  0  0  0  0  0  0  0  0  0
   26.7937  -20.2993  -14.2798 C   0  0  0  0  0  0  0  0  0  0  0  0
   26.4238  -21.3620  -14.8811 O   0  0  0  0  0  0  0  0  0  0  0  0
   26.9362  -22.0564  -10.1662 C   0  0  0  0  0  0  0  0  0  0  0  0
   26.3031  -20.7056  -10.0776 C   0  0  2  0  0  0  0  0  0  0  0  0
   26.1180  -20.3779   -8.6150 C   0  0  0  0  0  0  0  0  0  0  0  0
   25.1083  -20.4843  -10.9119 C   0  0  0  0  0  0  0  0  0  0  0  0
   25.2378  -20.7834  -12.3780 C   0  0  2  0  0  0  0  0  0  0  0  0
   26.1822  -19.9290  -13.0564 N   0  0  0  0  0  0  0  0  0  0  0  0
   23.8987  -20.5337  -12.9699 C   0  0  0  0  0  0  0  0  0  0  0  0
   23.5476  -19.3513  -13.1875 O   0  0  0  0  0  0  0  0  0  0  0  0
   22.3949  -21.1245  -16.8170 C   0  0  0  0  0  0  0  0  0  0  0  0
   22.4235  -22.4627  -16.0614 C   0  0  2  0  0  0  0  0  0  0  0  0
   22.0795  -23.5513  -17.0365 C   0  0  0  0  0  0  0  0  0  0  0  0
   21.4423  -22.3321  -14.9471 C   0  0  0  0  0  0  0  0  0  0  0  0
   21.7348  -21.2496  -13.9524 C   0  0  2  0  0  0  0  0  0  0  0  0
   22.9942  -21.5598  -13.3029 N   0  0  0  0  0  0  0  0  0  0  0  0
   20.6697  -21.0308  -12.9625 C   0  0  0  0  0  0  0  0  0  0  0  0
   19.4476  -20.4922  -13.4020 O   0  0  0  0  0  0  0  0  0  0  0  0
   20.8196  -21.3086  -11.7489 O   0  0  0  0  0  0  0  0  0  0  0  0
  2  1  1  0
  3  4  1  6
  3  2  1  0
  3  5  1  0
  5 12  1  0
  5  6  2  0
  8  7  1  1
  8  9  1  0
  8 10  1  0
 11 10  1  1
 11 13  1  0
 12 11  1  0
 13 14  2  0
 16 18  1  0
 16 15  1  6
 17 16  1  0
 19 18  1  6
 19 21  1  0
 20 13  1  0
 20 19  1  0
 21 22  1  0
 23 21  2  0
M  END
$$$$
