SLL.pdb
     RDKit          3D

 23 22  0  0  1  0  0  0  0  0999 V2000
   28.1828  -19.3114  -17.4918 O   0  0  0  0  0  0  0  0  0  0  0  0
   27.1982  -19.9126  -16.7360 C   0  0  0  0  0  0  0  0  0  0  0  0
   27.8560  -20.9241  -15.8326 C   0  0  2  0  0  0  0  0  0  0  0  0
   28.2915  -22.0326  -16.6271 N   0  0  0  0  0  0  0  0  0  0  0  0
   26.9001  -21.3687  -14.7806 C   0  0  0  0  0  0  0  0  0  0  0  0
   26.1977  -22.4159  -14.9746 O   0  0  0  0  0  0  0  0  0  0  0  0
   23.9777  -20.9021  -10.0833 C   0  0  0  0  0  0  0  0  0  0  0  0
   25.4686  -20.9787  -10.0167 C   0  0  2  0  0  0  0  0  0  0  0  0
   25.9015  -20.4009   -8.6902 C   0  0  0  0  0  0  0  0  0  0  0  0
   26.2057  -20.4586  -11.1824 C   0  0  0  0  0  0  0  0  0  0  0  0
   25.8695  -21.0528  -12.5201 C   0  0  2  0  0  0  0  0  0  0  0  0
   26.7663  -20.6404  -13.5725 N   0  0  0  0  0  0  0  0  0  0  0  0
   24.5130  -20.5550  -12.8635 C   0  0  0  0  0  0  0  0  0  0  0  0
   24.3362  -19.3205  -12.9792 O   0  0  0  0  0  0  0  0  0  0  0  0
   22.2207  -19.6241  -16.1665 C   0  0  0  0  0  0  0  0  0  0  0  0
   22.4825  -21.1234  -15.9517 C   0  0  2  0  0  0  0  0  0  0  0  0
   22.0571  -21.8494  -17.1951 C   0  0  0  0  0  0  0  0  0  0  0  0
   21.7040  -21.5122  -14.7417 C   0  0  0  0  0  0  0  0  0  0  0  0
   22.1228  -20.8500  -13.4639 C   0  0  2  0  0  0  0  0  0  0  0  0
   23.4055  -21.3997  -13.0681 N   0  0  0  0  0  0  0  0  0  0  0  0
   21.1422  -20.9594  -12.3737 C   0  0  0  0  0  0  0  0  0  0  0  0
   20.3206  -19.8522  -12.0985 O   0  0  0  0  0  0  0  0  0  0  0  0
   21.0196  -22.0028  -11.6890 O   0  0  0  0  0  0  0  0  0  0  0  0
  2  1  1  0
  3  4  1  6
  3  2  1  0
  3  5  1  0
  5 12  1  0
  5  6  2  0
  8  7  1  6
  8  9  1  0
  8 10  1  0
 11 10  1  1
 11 13  1  0
 12 11  1  0
 13 14  2  0
 16 18  1  0
 16 15  1  6
 17 16  1  0
 19 18  1  6
 19 21  1  0
 20 13  1  0
 20 19  1  0
 21 22  1  0
 23 21  2  0
M  END
$$$$
