SLL.pdb
     RDKit          3D

 23 22  0  0  1  0  0  0  0  0999 V2000
   23.2525  -16.6962  -14.4660 O   0  0  0  0  0  0  0  0  0  0  0  0
   24.6008  -16.4434  -14.3239 C   0  0  0  0  0  0  0  0  0  0  0  0
   25.3143  -17.0378  -15.5111 C   0  0  2  0  0  0  0  0  0  0  0  0
   24.6223  -16.6494  -16.7027 N   0  0  0  0  0  0  0  0  0  0  0  0
   25.3657  -18.5211  -15.3873 C   0  0  0  0  0  0  0  0  0  0  0  0
   24.3783  -19.2184  -15.7954 O   0  0  0  0  0  0  0  0  0  0  0  0
   27.6937  -21.5258  -17.4171 C   0  0  0  0  0  0  0  0  0  0  0  0
   28.5357  -20.9828  -16.3083 C   0  0  2  0  0  0  0  0  0  0  0  0
   29.9335  -21.5281  -16.4809 C   0  0  0  0  0  0  0  0  0  0  0  0
   27.9903  -21.1132  -14.9452 C   0  0  0  0  0  0  0  0  0  0  0  0
   26.5993  -20.5949  -14.7168 C   0  0  2  0  0  0  0  0  0  0  0  0
   26.4976  -19.1595  -14.8225 N   0  0  0  0  0  0  0  0  0  0  0  0
   26.2422  -20.9705  -13.3250 C   0  0  0  0  0  0  0  0  0  0  0  0
   27.0958  -21.5593  -12.6225 O   0  0  0  0  0  0  0  0  0  0  0  0
   26.1746  -18.8964   -8.5029 C   0  0  0  0  0  0  0  0  0  0  0  0
   25.4727  -20.1445   -9.0616 C   0  0  2  0  0  0  0  0  0  0  0  0
   26.0712  -21.3488   -8.3942 C   0  0  0  0  0  0  0  0  0  0  0  0
   25.6855  -20.1161  -10.5365 C   0  0  0  0  0  0  0  0  0  0  0  0
   24.7517  -20.9696  -11.3404 C   0  0  2  0  0  0  0  0  0  0  0  0
   24.9880  -20.6997  -12.7459 N   0  0  0  0  0  0  0  0  0  0  0  0
   23.3309  -20.8003  -11.0016 C   0  0  0  0  0  0  0  0  0  0  0  0
   22.4757  -20.2360  -11.9644 O   0  0  0  0  0  0  0  0  0  0  0  0
   22.8652  -21.1418   -9.8885 O   0  0  0  0  0  0  0  0  0  0  0  0
  2  1  1  0
  3  4  1  6
  3  2  1  0
  3  5  1  0
  5 12  1  0
  5  6  2  0
  8  7  1  6
  8  9  1  0
  8 10  1  0
 11 10  1  1
 11 13  1  0
 12 11  1  0
 13 14  2  0
 16 18  1  0
 16 15  1  1
 17 16  1  0
 19 18  1  1
 19 21  1  0
 20 13  1  0
 20 19  1  0
 21 22  1  0
 23 21  2  0
M  END
$$$$
