SLL.pdb
     RDKit          3D

 23 22  0  0  1  0  0  0  0  0999 V2000
   25.7890  -18.4663  -16.4866 O   0  0  0  0  0  0  0  0  0  0  0  0
   26.6769  -19.4328  -16.9104 C   0  0  0  0  0  0  0  0  0  0  0  0
   27.3571  -20.0067  -15.6939 C   0  0  2  0  0  0  0  0  0  0  0  0
   28.3989  -20.8889  -16.1255 N   0  0  0  0  0  0  0  0  0  0  0  0
   26.3675  -20.7290  -14.8472 C   0  0  0  0  0  0  0  0  0  0  0  0
   25.9186  -21.8589  -15.2339 O   0  0  0  0  0  0  0  0  0  0  0  0
   25.4340  -20.6413   -8.9655 C   0  0  0  0  0  0  0  0  0  0  0  0
   25.4508  -21.1674  -10.3642 C   0  0  2  0  0  0  0  0  0  0  0  0
   26.8519  -21.6473  -10.6598 C   0  0  0  0  0  0  0  0  0  0  0  0
   24.8693  -20.2956  -11.4007 C   0  0  0  0  0  0  0  0  0  0  0  0
   24.9067  -20.8017  -12.8143 C   0  0  2  0  0  0  0  0  0  0  0  0
   25.9236  -20.1728  -13.6219 N   0  0  0  0  0  0  0  0  0  0  0  0
   23.5877  -20.4648  -13.4082 C   0  0  0  0  0  0  0  0  0  0  0  0
   23.2908  -19.2588  -13.5701 O   0  0  0  0  0  0  0  0  0  0  0  0
   19.7926  -22.5939  -17.4682 C   0  0  0  0  0  0  0  0  0  0  0  0
   19.9431  -21.4811  -16.4186 C   0  0  2  0  0  0  0  0  0  0  0  0
   19.9777  -20.1657  -17.1416 C   0  0  0  0  0  0  0  0  0  0  0  0
   21.1975  -21.7809  -15.6717 C   0  0  0  0  0  0  0  0  0  0  0  0
   21.3780  -21.0325  -14.3856 C   0  0  2  0  0  0  0  0  0  0  0  0
   22.6446  -21.4326  -13.8026 N   0  0  0  0  0  0  0  0  0  0  0  0
   20.2776  -21.2017  -13.4251 C   0  0  0  0  0  0  0  0  0  0  0  0
   19.1215  -20.4179  -13.5865 O   0  0  0  0  0  0  0  0  0  0  0  0
   20.3408  -22.0179  -12.4752 O   0  0  0  0  0  0  0  0  0  0  0  0
  2  1  1  0
  3  4  1  6
  3  2  1  0
  3  5  1  0
  5 12  1  0
  5  6  2  0
  8  7  1  1
  8  9  1  0
  8 10  1  0
 11 10  1  1
 11 13  1  0
 12 11  1  0
 13 14  2  0
 16 18  1  0
 16 15  1  6
 17 16  1  0
 19 18  1  6
 19 21  1  0
 20 13  1  0
 20 19  1  0
 21 22  1  0
 23 21  2  0
M  END
$$$$
