SLL.pdb
     RDKit          3D

 23 22  0  0  1  0  0  0  0  0999 V2000
   18.5106   -8.9905  -20.6247 O   0  0  0  0  0  0  0  0  0  0  0  0
   18.2264   -8.8935  -19.2786 C   0  0  0  0  0  0  0  0  0  0  0  0
   18.9593  -10.0015  -18.5663 C   0  0  2  0  0  0  0  0  0  0  0  0
   18.0580  -11.0972  -18.3748 N   0  0  0  0  0  0  0  0  0  0  0  0
   19.4835   -9.5117  -17.2611 C   0  0  0  0  0  0  0  0  0  0  0  0
   18.7160   -9.5005  -16.2421 O   0  0  0  0  0  0  0  0  0  0  0  0
   22.0033  -10.9486  -14.0302 C   0  0  0  0  0  0  0  0  0  0  0  0
   22.8396  -10.5355  -15.1978 C   0  0  2  0  0  0  0  0  0  0  0  0
   24.2473  -11.0249  -14.9532 C   0  0  0  0  0  0  0  0  0  0  0  0
   22.7437   -9.1227  -15.6073 C   0  0  0  0  0  0  0  0  0  0  0  0
   21.3693   -8.5899  -15.8951 C   0  0  2  0  0  0  0  0  0  0  0  0
   20.8217   -9.0607  -17.1442 N   0  0  0  0  0  0  0  0  0  0  0  0
   21.5107   -7.1147  -15.9929 C   0  0  0  0  0  0  0  0  0  0  0  0
   22.1765   -6.6352  -16.9392 O   0  0  0  0  0  0  0  0  0  0  0  0
   19.2596   -3.5595  -17.4469 C   0  0  0  0  0  0  0  0  0  0  0  0
   18.8795   -4.4556  -16.2573 C   0  0  2  0  0  0  0  0  0  0  0  0
   17.4403   -4.1914  -15.9212 C   0  0  0  0  0  0  0  0  0  0  0  0
   19.8202   -4.1052  -15.1555 C   0  0  0  0  0  0  0  0  0  0  0  0
   21.1531   -4.7893  -15.2022 C   0  0  2  0  0  0  0  0  0  0  0  0
   20.9338   -6.2175  -15.0741 N   0  0  0  0  0  0  0  0  0  0  0  0
   22.1165   -4.3108  -14.1997 C   0  0  0  0  0  0  0  0  0  0  0  0
   22.5374   -5.2019  -13.1969 O   0  0  0  0  0  0  0  0  0  0  0  0
   22.5688   -3.1413  -14.2142 O   0  0  0  0  0  0  0  0  0  0  0  0
  2  1  1  0
  3  4  1  1
  3  2  1  0
  3  5  1  0
  5 12  1  0
  5  6  2  0
  8  7  1  1
  8  9  1  0
  8 10  1  0
 11 10  1  6
 11 13  1  0
 12 11  1  0
 13 14  2  0
 16 18  1  0
 16 15  1  6
 17 16  1  0
 19 18  1  1
 19 21  1  0
 20 13  1  0
 20 19  1  0
 21 22  1  0
 23 21  2  0
M  END
$$$$
