SLL.pdb
     RDKit          3D

 23 22  0  0  1  0  0  0  0  0999 V2000
   15.6108   -6.7450  -13.2971 O   0  0  0  0  0  0  0  0  0  0  0  0
   15.4838   -8.0102  -13.8311 C   0  0  0  0  0  0  0  0  0  0  0  0
   16.2251   -8.9705  -12.9365 C   0  0  2  0  0  0  0  0  0  0  0  0
   15.6821   -8.8769  -11.6150 N   0  0  0  0  0  0  0  0  0  0  0  0
   17.6796   -8.6506  -12.9361 C   0  0  0  0  0  0  0  0  0  0  0  0
   18.1614   -7.9257  -12.0032 O   0  0  0  0  0  0  0  0  0  0  0  0
   22.9408  -10.2851  -15.9746 C   0  0  0  0  0  0  0  0  0  0  0  0
   22.1764   -9.4630  -14.9881 C   0  0  2  0  0  0  0  0  0  0  0  0
   22.8992   -9.5410  -13.6643 C   0  0  0  0  0  0  0  0  0  0  0  0
   20.7256   -9.7113  -14.9104 C   0  0  0  0  0  0  0  0  0  0  0  0
   19.9229   -8.7862  -14.0411 C   0  0  2  0  0  0  0  0  0  0  0  0
   18.5273   -9.1432  -13.9591 N   0  0  0  0  0  0  0  0  0  0  0  0
   20.0084   -7.4460  -14.6754 C   0  0  0  0  0  0  0  0  0  0  0  0
   19.3566   -7.2333  -15.7235 O   0  0  0  0  0  0  0  0  0  0  0  0
   19.6395   -2.9535  -16.2936 C   0  0  0  0  0  0  0  0  0  0  0  0
   20.1043   -2.7574  -14.8416 C   0  0  2  0  0  0  0  0  0  0  0  0
   21.4682   -2.1306  -14.8738 C   0  0  0  0  0  0  0  0  0  0  0  0
   20.0868   -4.1088  -14.2133 C   0  0  0  0  0  0  0  0  0  0  0  0
   20.9229   -5.1491  -14.8954 C   0  0  2  0  0  0  0  0  0  0  0  0
   20.7874   -6.3924  -14.1606 N   0  0  0  0  0  0  0  0  0  0  0  0
   22.3377   -4.7817  -15.0555 C   0  0  0  0  0  0  0  0  0  0  0  0
   23.2034   -4.9590  -13.9619 O   0  0  0  0  0  0  0  0  0  0  0  0
   22.7893   -4.3191  -16.1300 O   0  0  0  0  0  0  0  0  0  0  0  0
  2  1  1  0
  3  4  1  1
  3  2  1  0
  3  5  1  0
  5 12  1  0
  5  6  2  0
  8  7  1  6
  8  9  1  0
  8 10  1  0
 11 10  1  6
 11 13  1  0
 12 11  1  0
 13 14  2  0
 16 18  1  0
 16 15  1  6
 17 16  1  0
 19 18  1  1
 19 21  1  0
 20 13  1  0
 20 19  1  0
 21 22  1  0
 23 21  2  0
M  END
$$$$
