KLC.pdb
     RDKit          3D

 24 23  0  0  1  0  0  0  0  0999 V2000
   34.8492  -29.0130  -17.1893 N   0  0  0  0  0  0  0  0  0  0  0  0
   35.2000  -27.6305  -16.9796 C   0  0  1  0  0  0  0  0  0  0  0  0
   35.4758  -26.9100  -18.2752 C   0  0  0  0  0  0  0  0  0  0  0  0
   36.8383  -27.2170  -18.7959 C   0  0  0  0  0  0  0  0  0  0  0  0
   36.9527  -28.5927  -19.3818 C   0  0  0  0  0  0  0  0  0  0  0  0
   38.3725  -28.7300  -19.9575 C   0  0  0  0  0  0  0  0  0  0  0  0
   38.6074  -30.1121  -20.3281 N   0  0  0  0  0  0  0  0  0  0  0  0
   34.1109  -26.9074  -16.2363 C   0  0  0  0  0  0  0  0  0  0  0  0
   32.9064  -27.2021  -16.4058 O   0  0  0  0  0  0  0  0  0  0  0  0
   32.2572  -24.0967  -11.9755 C   0  0  0  0  0  0  0  0  0  0  0  0
   33.3589  -23.3209  -12.7846 C   0  0  1  0  0  0  0  0  0  0  0  0
   34.1296  -22.6127  -11.6897 C   0  0  0  0  0  0  0  0  0  0  0  0
   34.0900  -24.3595  -13.5210 C   0  0  0  0  0  0  0  0  0  0  0  0
   33.4131  -25.1159  -14.5902 C   0  0  2  0  0  0  0  0  0  0  0  0
   34.4638  -25.8821  -15.3356 N   0  0  0  0  0  0  0  0  0  0  0  0
   32.7879  -24.2918  -15.6092 C   0  0  0  0  0  0  0  0  0  0  0  0
   33.4967  -23.8913  -16.5926 O   0  0  0  0  0  0  0  0  0  0  0  0
   31.4246  -23.8969  -15.6138 N   0  0  0  0  0  0  0  0  0  0  0  0
   30.9207  -23.2301  -16.7971 C   0  0  1  0  0  0  0  0  0  0  0  0
   30.9272  -24.2446  -17.9722 C   0  0  0  0  0  0  0  0  0  0  0  0
   29.9965  -23.4833  -19.3093 S   0  0  0  0  0  0  0  0  0  0  0  0
   29.5675  -22.7315  -16.5806 C   0  0  0  0  0  0  0  0  0  0  0  0
   29.0898  -21.8793  -17.3734 O   0  0  0  0  0  0  0  0  0  0  0  0
   28.7892  -23.1606  -15.5402 O   0  0  0  0  0  0  0  0  0  0  0  0
  2  1  1  6
  3  2  1  0
  4  3  1  0
  5  4  1  0
  6  5  1  0
  6  7  1  0
  8  9  2  0
  8  2  1  0
 11 10  1  1
 12 11  1  0
 13 11  1  0
 14 15  1  0
 14 13  1  1
 15  8  1  0
 16 14  1  0
 17 16  2  0
 18 16  1  0
 19 18  1  0
 20 21  1  0
 19 20  1  6
 22 19  1  0
 22 24  1  0
 23 22  2  0
M  END
$$$$
