KLC.pdb
     RDKit          3D

 24 23  0  0  1  0  0  0  0  0999 V2000
   29.7232  -33.7069  -15.4467 N   0  0  0  0  0  0  0  0  0  0  0  0
   28.7986  -32.8062  -16.0888 C   0  0  1  0  0  0  0  0  0  0  0  0
   27.5721  -32.5545  -15.2484 C   0  0  0  0  0  0  0  0  0  0  0  0
   26.6930  -33.7566  -15.1846 C   0  0  0  0  0  0  0  0  0  0  0  0
   25.4334  -33.6127  -15.9857 C   0  0  0  0  0  0  0  0  0  0  0  0
   24.6117  -34.8973  -15.7838 C   0  0  0  0  0  0  0  0  0  0  0  0
   23.3852  -34.8070  -16.5521 N   0  0  0  0  0  0  0  0  0  0  0  0
   29.4593  -31.4921  -16.4016 C   0  0  0  0  0  0  0  0  0  0  0  0
   30.3394  -31.0155  -15.6501 O   0  0  0  0  0  0  0  0  0  0  0  0
   32.2141  -28.2006  -19.2317 C   0  0  0  0  0  0  0  0  0  0  0  0
   30.9307  -28.6166  -20.0380 C   0  0  1  0  0  0  0  0  0  0  0  0
   31.4948  -28.9363  -21.4069 C   0  0  0  0  0  0  0  0  0  0  0  0
   30.3649  -29.7478  -19.2924 C   0  0  0  0  0  0  0  0  0  0  0  0
   29.7635  -29.5250  -17.9649 C   0  0  2  0  0  0  0  0  0  0  0  0
   29.0733  -30.7935  -17.5635 N   0  0  0  0  0  0  0  0  0  0  0  0
   28.7093  -28.5267  -17.9400 C   0  0  0  0  0  0  0  0  0  0  0  0
   27.5407  -28.8606  -18.3309 O   0  0  0  0  0  0  0  0  0  0  0  0
   28.8659  -27.1878  -17.4958 N   0  0  0  0  0  0  0  0  0  0  0  0
   27.6997  -26.3288  -17.5226 C   0  0  1  0  0  0  0  0  0  0  0  0
   27.6978  -25.4637  -16.2335 C   0  0  0  0  0  0  0  0  0  0  0  0
   26.2170  -24.4458  -16.3037 S   0  0  0  0  0  0  0  0  0  0  0  0
   27.7122  -25.4660  -18.6982 C   0  0  0  0  0  0  0  0  0  0  0  0
   28.7931  -24.9350  -19.0624 O   0  0  0  0  0  0  0  0  0  0  0  0
   26.5835  -25.2115  -19.4288 O   0  0  0  0  0  0  0  0  0  0  0  0
  2  1  1  1
  3  2  1  0
  4  3  1  0
  5  4  1  0
  6  5  1  0
  6  7  1  0
  8  9  2  0
  8  2  1  0
 11 10  1  1
 12 11  1  0
 13 11  1  0
 14 15  1  0
 14 13  1  6
 15  8  1  0
 16 14  1  0
 17 16  2  0
 18 16  1  0
 19 18  1  0
 20 21  1  0
 19 20  1  1
 22 19  1  0
 22 24  1  0
 23 22  2  0
M  END
$$$$
