KLC.pdb
     RDKit          3D

 24 23  0  0  1  0  0  0  0  0999 V2000
   25.7188  -24.8984  -15.9343 N   0  0  0  0  0  0  0  0  0  0  0  0
   25.9527  -23.5113  -15.6186 C   0  0  1  0  0  0  0  0  0  0  0  0
   26.0924  -22.6612  -16.8562 C   0  0  0  0  0  0  0  0  0  0  0  0
   27.3022  -23.0317  -17.6442 C   0  0  0  0  0  0  0  0  0  0  0  0
   28.3957  -23.6255  -16.8072 C   0  0  0  0  0  0  0  0  0  0  0  0
   29.7186  -23.4145  -17.5633 C   0  0  0  0  0  0  0  0  0  0  0  0
   30.7882  -24.0902  -16.8546 N   0  0  0  0  0  0  0  0  0  0  0  0
   24.8434  -22.9607  -14.7656 C   0  0  0  0  0  0  0  0  0  0  0  0
   23.7103  -23.4920  -14.7560 O   0  0  0  0  0  0  0  0  0  0  0  0
   25.9947  -20.1285  -10.0314 C   0  0  0  0  0  0  0  0  0  0  0  0
   25.4174  -21.2356  -10.9859 C   0  0  1  0  0  0  0  0  0  0  0  0
   24.5875  -22.0803  -10.0414 C   0  0  0  0  0  0  0  0  0  0  0  0
   24.6741  -20.4984  -12.0153 C   0  0  0  0  0  0  0  0  0  0  0  0
   24.0169  -21.2312  -13.1129 C   0  0  2  0  0  0  0  0  0  0  0  0
   25.0950  -21.8266  -13.9671 N   0  0  0  0  0  0  0  0  0  0  0  0
   23.2619  -20.3953  -14.0293 C   0  0  0  0  0  0  0  0  0  0  0  0
   23.8783  -19.8377  -14.9983 O   0  0  0  0  0  0  0  0  0  0  0  0
   21.8661  -20.1514  -13.9474 N   0  0  0  0  0  0  0  0  0  0  0  0
   21.1509  -19.9110  -15.1840 C   0  0  1  0  0  0  0  0  0  0  0  0
   21.3204  -21.1540  -16.0985 C   0  0  0  0  0  0  0  0  0  0  0  0
   20.3294  -20.8463  -17.5672 S   0  0  0  0  0  0  0  0  0  0  0  0
   19.7348  -19.6710  -14.9314 C   0  0  0  0  0  0  0  0  0  0  0  0
   19.1557  -20.3063  -14.0126 O   0  0  0  0  0  0  0  0  0  0  0  0
   19.0056  -18.7714  -15.6601 O   0  0  0  0  0  0  0  0  0  0  0  0
  2  1  1  6
  3  2  1  0
  4  3  1  0
  5  4  1  0
  6  5  1  0
  6  7  1  0
  8  9  2  0
  8  2  1  0
 11 10  1  1
 12 11  1  0
 13 11  1  0
 14 15  1  0
 14 13  1  1
 15  8  1  0
 16 14  1  0
 17 16  2  0
 18 16  1  0
 19 18  1  0
 20 21  1  0
 19 20  1  6
 22 19  1  0
 22 24  1  0
 23 22  2  0
M  END
$$$$
