KLC.pdb
     RDKit          3D

 24 23  0  0  1  0  0  0  0  0999 V2000
   26.9478  -21.2177  -12.1006 N   0  0  0  0  0  0  0  0  0  0  0  0
   26.0228  -20.5089  -11.2519 C   0  0  1  0  0  0  0  0  0  0  0  0
   24.5934  -20.6775  -11.7015 C   0  0  0  0  0  0  0  0  0  0  0  0
   24.4684  -20.5833  -13.1838 C   0  0  0  0  0  0  0  0  0  0  0  0
   23.6879  -19.3860  -13.6377 C   0  0  0  0  0  0  0  0  0  0  0  0
   23.6437  -19.4226  -15.1750 C   0  0  0  0  0  0  0  0  0  0  0  0
   23.0245  -18.2064  -15.6653 N   0  0  0  0  0  0  0  0  0  0  0  0
   26.1470  -20.9648   -9.8243 C   0  0  0  0  0  0  0  0  0  0  0  0
   26.1602  -22.1819   -9.5328 O   0  0  0  0  0  0  0  0  0  0  0  0
   28.8163  -17.9421   -5.7088 C   0  0  0  0  0  0  0  0  0  0  0  0
   28.5147  -19.1765   -6.6337 C   0  0  1  0  0  0  0  0  0  0  0  0
   29.2497  -20.2986   -5.9301 C   0  0  0  0  0  0  0  0  0  0  0  0
   27.0505  -19.2808   -6.6608 C   0  0  0  0  0  0  0  0  0  0  0  0
   26.4072  -20.4016   -7.3705 C   0  0  2  0  0  0  0  0  0  0  0  0
   26.2498  -19.9966   -8.8050 N   0  0  0  0  0  0  0  0  0  0  0  0
   25.0529  -20.6933   -6.9356 C   0  0  0  0  0  0  0  0  0  0  0  0
   24.1100  -19.9171   -7.3075 O   0  0  0  0  0  0  0  0  0  0  0  0
   24.6770  -21.7982   -6.1279 N   0  0  0  0  0  0  0  0  0  0  0  0
   23.2636  -22.0080   -5.8893 C   0  0  1  0  0  0  0  0  0  0  0  0
   22.9524  -23.5169   -6.0805 C   0  0  0  0  0  0  0  0  0  0  0  0
   24.1729  -24.4166   -5.1138 S   0  0  0  0  0  0  0  0  0  0  0  0
   22.8931  -21.5925   -4.5414 C   0  0  0  0  0  0  0  0  0  0  0  0
   23.7876  -21.1973   -3.7498 O   0  0  0  0  0  0  0  0  0  0  0  0
   21.5977  -21.6137   -4.1013 O   0  0  0  0  0  0  0  0  0  0  0  0
  2  1  1  6
  3  2  1  0
  4  3  1  0
  5  4  1  0
  6  5  1  0
  6  7  1  0
  8  9  2  0
  8  2  1  0
 11 10  1  1
 12 11  1  0
 13 11  1  0
 14 15  1  0
 14 13  1  1
 15  8  1  0
 16 14  1  0
 17 16  2  0
 18 16  1  0
 19 18  1  0
 20 21  1  0
 19 20  1  1
 22 19  1  0
 22 24  1  0
 23 22  2  0
M  END
$$$$
