KLC.pdb
     RDKit          3D

 24 23  0  0  1  0  0  0  0  0999 V2000
   23.7211  -15.3028  -18.9583 N   0  0  0  0  0  0  0  0  0  0  0  0
   23.3297  -13.9181  -19.0459 C   0  0  1  0  0  0  0  0  0  0  0  0
   21.9169  -13.7562  -19.5475 C   0  0  0  0  0  0  0  0  0  0  0  0
   21.6748  -14.5608  -20.7787 C   0  0  0  0  0  0  0  0  0  0  0  0
   20.2960  -14.3830  -21.3411 C   0  0  0  0  0  0  0  0  0  0  0  0
   20.1847  -15.2894  -22.5790 C   0  0  0  0  0  0  0  0  0  0  0  0
   20.1895  -16.6772  -22.1583 N   0  0  0  0  0  0  0  0  0  0  0  0
   23.4591  -13.2384  -17.7107 C   0  0  0  0  0  0  0  0  0  0  0  0
   22.8614  -13.6756  -16.7018 O   0  0  0  0  0  0  0  0  0  0  0  0
   28.2526  -11.8339  -15.8983 C   0  0  0  0  0  0  0  0  0  0  0  0
   26.7929  -12.4121  -15.9713 C   0  0  1  0  0  0  0  0  0  0  0  0
   26.6838  -13.1872  -14.6746 C   0  0  0  0  0  0  0  0  0  0  0  0
   25.9247  -11.2346  -16.0949 C   0  0  0  0  0  0  0  0  0  0  0  0
   24.4732  -11.4093  -16.2854 C   0  0  2  0  0  0  0  0  0  0  0  0
   24.2700  -12.0903  -17.6051 N   0  0  0  0  0  0  0  0  0  0  0  0
   23.7275  -10.1695  -16.4097 C   0  0  0  0  0  0  0  0  0  0  0  0
   23.7482   -9.5521  -17.5268 O   0  0  0  0  0  0  0  0  0  0  0  0
   22.9496   -9.5803  -15.3790 N   0  0  0  0  0  0  0  0  0  0  0  0
   22.1999   -8.3835  -15.7018 C   0  0  1  0  0  0  0  0  0  0  0  0
   21.0136   -8.7807  -16.6211 C   0  0  0  0  0  0  0  0  0  0  0  0
   20.0194   -7.2985  -16.8409 S   0  0  0  0  0  0  0  0  0  0  0  0
   21.6969   -7.7394  -14.4941 C   0  0  0  0  0  0  0  0  0  0  0  0
   21.6152   -8.4038  -13.4288 O   0  0  0  0  0  0  0  0  0  0  0  0
   21.3091   -6.4273  -14.4740 O   0  0  0  0  0  0  0  0  0  0  0  0
  2  1  1  1
  3  2  1  0
  4  3  1  0
  5  4  1  0
  6  5  1  0
  6  7  1  0
  8  9  2  0
  8  2  1  0
 11 10  1  1
 12 11  1  0
 13 11  1  0
 14 15  1  0
 14 13  1  6
 15  8  1  0
 16 14  1  0
 17 16  2  0
 18 16  1  0
 19 18  1  0
 20 21  1  0
 19 20  1  6
 22 19  1  0
 22 24  1  0
 23 22  2  0
M  END
$$$$
