KLC.pdb
     RDKit          3D

 24 23  0  0  1  0  0  0  0  0999 V2000
   31.0073  -23.7640  -19.1724 N   0  0  0  0  0  0  0  0  0  0  0  0
   30.8016  -24.8826  -18.2865 C   0  0  1  0  0  0  0  0  0  0  0  0
   29.7520  -25.8335  -18.8040 C   0  0  0  0  0  0  0  0  0  0  0  0
   28.3754  -25.3051  -18.5855 C   0  0  0  0  0  0  0  0  0  0  0  0
   28.0511  -25.0766  -17.1393 C   0  0  0  0  0  0  0  0  0  0  0  0
   26.6314  -24.4878  -17.0747 C   0  0  0  0  0  0  0  0  0  0  0  0
   26.3091  -24.1649  -15.6982 N   0  0  0  0  0  0  0  0  0  0  0  0
   32.0842  -25.6366  -18.0675 C   0  0  0  0  0  0  0  0  0  0  0  0
   32.8349  -25.9278  -19.0256 O   0  0  0  0  0  0  0  0  0  0  0  0
   34.6972  -25.4712  -13.0112 C   0  0  0  0  0  0  0  0  0  0  0  0
   34.6784  -25.3433  -14.5776 C   0  0  1  0  0  0  0  0  0  0  0  0
   36.1488  -25.1973  -14.9106 C   0  0  0  0  0  0  0  0  0  0  0  0
   34.0280  -26.5717  -15.0504 C   0  0  0  0  0  0  0  0  0  0  0  0
   33.7233  -26.7365  -16.4834 C   0  0  2  0  0  0  0  0  0  0  0  0
   32.4372  -26.0169  -16.7569 N   0  0  0  0  0  0  0  0  0  0  0  0
   33.4554  -28.1045  -16.8898 C   0  0  0  0  0  0  0  0  0  0  0  0
   32.2730  -28.5647  -16.7486 O   0  0  0  0  0  0  0  0  0  0  0  0
   34.4113  -28.9880  -17.4558 N   0  0  0  0  0  0  0  0  0  0  0  0
   33.9285  -30.2346  -18.0138 C   0  0  1  0  0  0  0  0  0  0  0  0
   32.9486  -29.9067  -19.1724 C   0  0  0  0  0  0  0  0  0  0  0  0
   32.3917  -31.4841  -19.8322 S   0  0  0  0  0  0  0  0  0  0  0  0
   35.0321  -31.0467  -18.5131 C   0  0  0  0  0  0  0  0  0  0  0  0
   36.0942  -30.4832  -18.8839 O   0  0  0  0  0  0  0  0  0  0  0  0
   34.9572  -32.4106  -18.5921 O   0  0  0  0  0  0  0  0  0  0  0  0
  2  1  1  6
  3  2  1  0
  4  3  1  0
  5  4  1  0
  6  5  1  0
  6  7  1  0
  8  9  2  0
  8  2  1  0
 11 10  1  1
 12 11  1  0
 13 11  1  0
 14 15  1  0
 14 13  1  1
 15  8  1  0
 16 14  1  0
 17 16  2  0
 18 16  1  0
 19 18  1  0
 20 21  1  0
 19 20  1  6
 22 19  1  0
 22 24  1  0
 23 22  2  0
M  END
$$$$
