KLC.pdb
     RDKit          3D

 24 23  0  0  1  0  0  0  0  0999 V2000
   21.2325  -22.0679   -8.4856 N   0  0  0  0  0  0  0  0  0  0  0  0
   21.4961  -21.7471   -9.8661 C   0  0  1  0  0  0  0  0  0  0  0  0
   20.3544  -20.9969  -10.5045 C   0  0  0  0  0  0  0  0  0  0  0  0
   19.0617  -21.7211  -10.3429 C   0  0  0  0  0  0  0  0  0  0  0  0
   19.1516  -23.1779  -10.6873 C   0  0  0  0  0  0  0  0  0  0  0  0
   17.7270  -23.7545  -10.6193 C   0  0  0  0  0  0  0  0  0  0  0  0
   17.7774  -25.1843  -10.8558 N   0  0  0  0  0  0  0  0  0  0  0  0
   22.7542  -20.9338   -9.9972 C   0  0  0  0  0  0  0  0  0  0  0  0
   22.8133  -19.9546  -10.7744 O   0  0  0  0  0  0  0  0  0  0  0  0
   26.9895  -18.6132   -7.7093 C   0  0  0  0  0  0  0  0  0  0  0  0
   27.2479  -20.1495   -7.9171 C   0  0  1  0  0  0  0  0  0  0  0  0
   27.9937  -20.5286   -6.6544 C   0  0  0  0  0  0  0  0  0  0  0  0
   25.9134  -20.7394   -8.0808 C   0  0  0  0  0  0  0  0  0  0  0  0
   25.1579  -20.5122   -9.3263 C   0  0  2  0  0  0  0  0  0  0  0  0
   23.8801  -21.2892   -9.2271 N   0  0  0  0  0  0  0  0  0  0  0  0
   25.7956  -21.0331  -10.5223 C   0  0  0  0  0  0  0  0  0  0  0  0
   26.3217  -22.1954  -10.4788 O   0  0  0  0  0  0  0  0  0  0  0  0
   25.8733  -20.3531  -11.7657 N   0  0  0  0  0  0  0  0  0  0  0  0
   26.5138  -21.0389  -12.8694 C   0  0  1  0  0  0  0  0  0  0  0  0
   25.4346  -21.8500  -13.6358 C   0  0  0  0  0  0  0  0  0  0  0  0
   26.2341  -22.4976  -15.1106 S   0  0  0  0  0  0  0  0  0  0  0  0
   27.1559  -20.0911  -13.7727 C   0  0  0  0  0  0  0  0  0  0  0  0
   26.7688  -18.8940  -13.7878 O   0  0  0  0  0  0  0  0  0  0  0  0
   28.1742  -20.4563  -14.6105 O   0  0  0  0  0  0  0  0  0  0  0  0
  2  1  1  1
  3  2  1  0
  4  3  1  0
  5  4  1  0
  6  5  1  0
  6  7  1  0
  8  9  2  0
  8  2  1  0
 11 10  1  1
 12 11  1  0
 13 11  1  0
 14 15  1  0
 14 13  1  1
 15  8  1  0
 16 14  1  0
 17 16  2  0
 18 16  1  0
 19 18  1  0
 20 21  1  0
 19 20  1  6
 22 19  1  0
 22 24  1  0
 23 22  2  0
M  END
$$$$
