KLC.pdb
     RDKit          3D

 24 23  0  0  1  0  0  0  0  0999 V2000
   25.0392  -23.1714  -17.1378 N   0  0  0  0  0  0  0  0  0  0  0  0
   25.1418  -24.5590  -16.7607 C   0  0  1  0  0  0  0  0  0  0  0  0
   23.9070  -25.3422  -17.1291 C   0  0  0  0  0  0  0  0  0  0  0  0
   22.7514  -24.9896  -16.2561 C   0  0  0  0  0  0  0  0  0  0  0  0
   21.8611  -23.9378  -16.8477 C   0  0  0  0  0  0  0  0  0  0  0  0
   20.6789  -23.7414  -15.8833 C   0  0  0  0  0  0  0  0  0  0  0  0
   19.8055  -22.7060  -16.4010 N   0  0  0  0  0  0  0  0  0  0  0  0
   26.3416  -25.2016  -17.4003 C   0  0  0  0  0  0  0  0  0  0  0  0
   26.5804  -25.0550  -18.6201 O   0  0  0  0  0  0  0  0  0  0  0  0
   31.3268  -24.4022  -15.8671 C   0  0  0  0  0  0  0  0  0  0  0  0
   30.0483  -24.6212  -16.7547 C   0  0  1  0  0  0  0  0  0  0  0  0
   30.5821  -24.4024  -18.1552 C   0  0  0  0  0  0  0  0  0  0  0  0
   29.5977  -25.9828  -16.4406 C   0  0  0  0  0  0  0  0  0  0  0  0
   28.4604  -26.5674  -17.1743 C   0  0  2  0  0  0  0  0  0  0  0  0
   27.2052  -25.9801  -16.6034 N   0  0  0  0  0  0  0  0  0  0  0  0
   28.2955  -27.9983  -16.9909 C   0  0  0  0  0  0  0  0  0  0  0  0
   28.1551  -28.4514  -15.8057 O   0  0  0  0  0  0  0  0  0  0  0  0
   28.2617  -28.9551  -18.0387 N   0  0  0  0  0  0  0  0  0  0  0  0
   28.0655  -30.3439  -17.6763 C   0  0  1  0  0  0  0  0  0  0  0  0
   27.1077  -30.9909  -18.7127 C   0  0  0  0  0  0  0  0  0  0  0  0
   27.7926  -30.6303  -20.3358 S   0  0  0  0  0  0  0  0  0  0  0  0
   29.3336  -31.0639  -17.6566 C   0  0  0  0  0  0  0  0  0  0  0  0
   29.3670  -32.2428  -17.2182 O   0  0  0  0  0  0  0  0  0  0  0  0
   30.4987  -30.5024  -18.1030 O   0  0  0  0  0  0  0  0  0  0  0  0
  2  1  1  6
  3  2  1  0
  4  3  1  0
  5  4  1  0
  6  5  1  0
  6  7  1  0
  8  9  2  0
  8  2  1  0
 11 10  1  1
 12 11  1  0
 13 11  1  0
 14 15  1  0
 14 13  1  1
 15  8  1  0
 16 14  1  0
 17 16  2  0
 18 16  1  0
 19 18  1  0
 20 21  1  0
 19 20  1  6
 22 19  1  0
 22 24  1  0
 23 22  2  0
M  END
$$$$
