KLC.pdb
     RDKit          3D

 24 23  0  0  1  0  0  0  0  0999 V2000
   14.6093  -10.6483  -16.1861 N   0  0  0  0  0  0  0  0  0  0  0  0
   15.7498  -10.3623  -15.3520 C   0  0  1  0  0  0  0  0  0  0  0  0
   16.8736  -11.3443  -15.5675 C   0  0  0  0  0  0  0  0  0  0  0  0
   16.5025  -12.7138  -15.1107 C   0  0  0  0  0  0  0  0  0  0  0  0
   17.5878  -13.7255  -15.3285 C   0  0  0  0  0  0  0  0  0  0  0  0
   17.0535  -15.0837  -14.8427 C   0  0  0  0  0  0  0  0  0  0  0  0
   18.0970  -16.0825  -14.9710 N   0  0  0  0  0  0  0  0  0  0  0  0
   16.2592   -8.9691  -15.5987 C   0  0  0  0  0  0  0  0  0  0  0  0
   16.2505   -8.4711  -16.7469 O   0  0  0  0  0  0  0  0  0  0  0  0
   14.4792   -4.2821  -13.9764 C   0  0  0  0  0  0  0  0  0  0  0  0
   15.3510   -5.1392  -14.9642 C   0  0  1  0  0  0  0  0  0  0  0  0
   16.0007   -4.0792  -15.8294 C   0  0  0  0  0  0  0  0  0  0  0  0
   16.2538   -5.9107  -14.1008 C   0  0  0  0  0  0  0  0  0  0  0  0
   17.2476   -6.8184  -14.7025 C   0  0  2  0  0  0  0  0  0  0  0  0
   16.7526   -8.2201  -14.5112 N   0  0  0  0  0  0  0  0  0  0  0  0
   18.5449   -6.8103  -14.0502 C   0  0  0  0  0  0  0  0  0  0  0  0
   18.6177   -7.1713  -12.8278 O   0  0  0  0  0  0  0  0  0  0  0  0
   19.7666   -6.4419  -14.6716 N   0  0  0  0  0  0  0  0  0  0  0  0
   20.9808   -6.5550  -13.8895 C   0  0  1  0  0  0  0  0  0  0  0  0
   21.8516   -7.6879  -14.4963 C   0  0  0  0  0  0  0  0  0  0  0  0
   23.3847   -7.7125  -13.5567 S   0  0  0  0  0  0  0  0  0  0  0  0
   21.7253   -5.3010  -13.8946 C   0  0  0  0  0  0  0  0  0  0  0  0
   21.7141   -4.5810  -14.9264 O   0  0  0  0  0  0  0  0  0  0  0  0
   22.4401   -4.8721  -12.8096 O   0  0  0  0  0  0  0  0  0  0  0  0
  2  1  1  6
  3  2  1  0
  4  3  1  0
  5  4  1  0
  6  5  1  0
  6  7  1  0
  8  9  2  0
  8  2  1  0
 11 10  1  1
 12 11  1  0
 13 11  1  0
 14 15  1  0
 14 13  1  1
 15  8  1  0
 16 14  1  0
 17 16  2  0
 18 16  1  0
 19 18  1  0
 20 21  1  0
 19 20  1  6
 22 19  1  0
 22 24  1  0
 23 22  2  0
M  END
$$$$
