TCF.pdb
     RDKit          3D

 25 25  0  0  1  0  0  0  0  0999 V2000
    4.5317  -16.0949   20.2076 C   0  0  0  0  0  0  0  0  0  0  0  0
    5.7165  -16.4505   21.0842 C   0  0  1  0  0  0  0  0  0  0  0  0
    5.4389  -17.6870   21.6649 O   0  0  0  0  0  0  0  0  0  0  0  0
    6.9214  -16.5493   20.1835 C   0  0  2  0  0  0  0  0  0  0  0  0
    6.6571  -17.5505   19.1795 N   0  0  0  0  0  0  0  0  0  0  0  0
    8.1516  -16.9450   20.9205 C   0  0  0  0  0  0  0  0  0  0  0  0
    8.6856  -18.0795   20.7611 O   0  0  0  0  0  0  0  0  0  0  0  0
    8.7938  -16.0721   21.8426 N   0  0  0  0  0  0  0  0  0  0  0  0
    9.9036  -16.4269   22.6669 C   0  0  1  0  0  0  0  0  0  0  0  0
   11.2440  -16.1008   22.0345 C   0  0  0  0  0  0  0  0  0  0  0  0
   12.6289  -16.5385   23.0836 S   0  0  0  0  0  0  0  0  0  0  0  0
    9.7992  -15.9096   24.0499 C   0  0  0  0  0  0  0  0  0  0  0  0
    9.9730  -14.6782   24.2336 O   0  0  0  0  0  0  0  0  0  0  0  0
    9.5179  -16.7098   25.1706 N   0  0  0  0  0  0  0  0  0  0  0  0
    9.3470  -16.2066   26.5219 C   0  0  1  0  0  0  0  0  0  0  0  0
    7.9197  -15.9870   26.8754 C   0  0  0  0  0  0  0  0  0  0  0  0
    7.4859  -14.6350   26.4693 C   0  0  0  0  0  0  0  0  0  0  0  0
    6.3731  -14.4350   25.6398 C   0  0  0  0  0  0  0  0  0  0  0  0
    5.9742  -13.1690   25.2826 C   0  0  0  0  0  0  0  0  0  0  0  0
    6.6550  -12.0696   25.7289 C   0  0  0  0  0  0  0  0  0  0  0  0
    7.7405  -12.2290   26.5364 C   0  0  0  0  0  0  0  0  0  0  0  0
    8.1359  -13.4939   26.8910 C   0  0  0  0  0  0  0  0  0  0  0  0
   10.0872  -17.1008   27.4345 C   0  0  0  0  0  0  0  0  0  0  0  0
   10.3322  -18.3056   27.0812 O   0  0  0  0  0  0  0  0  0  0  0  0
   10.5663  -16.7626   28.6830 O   0  0  0  0  0  0  0  0  0  0  0  0
  2  1  1  6
  2  3  1  0
  4  2  1  0
  4  5  1  6
  6  4  1  0
  6  7  2  0
  8  6  1  0
  9  8  1  0
  9 12  1  0
  9 10  1  6
 11 10  1  0
 12 13  2  0
 12 14  1  0
 14 15  1  0
 15 16  1  1
 16 17  1  0
 17 22  2  0
 18 17  1  0
 18 19  2  0
 19 20  1  0
 20 21  2  0
 22 21  1  0
 23 25  1  0
 23 15  1  0
 24 23  2  0
M  END
$$$$
