TCF.pdb
     RDKit          3D

 25 25  0  0  1  0  0  0  0  0999 V2000
    8.8729  -12.5157   20.0628 C   0  0  0  0  0  0  0  0  0  0  0  0
    8.2386  -13.1551   18.8431 C   0  0  1  0  0  0  0  0  0  0  0  0
    8.7904  -12.5352   17.7231 O   0  0  0  0  0  0  0  0  0  0  0  0
    8.6020  -14.6179   18.8690 C   0  0  2  0  0  0  0  0  0  0  0  0
    8.1156  -15.2284   17.6562 N   0  0  0  0  0  0  0  0  0  0  0  0
    7.9965  -15.3341   20.0237 C   0  0  0  0  0  0  0  0  0  0  0  0
    6.8891  -15.9356   19.9260 O   0  0  0  0  0  0  0  0  0  0  0  0
    8.6274  -15.3821   21.2983 N   0  0  0  0  0  0  0  0  0  0  0  0
    8.1976  -16.1907   22.3931 C   0  0  1  0  0  0  0  0  0  0  0  0
    8.1279  -17.6677   22.0519 C   0  0  0  0  0  0  0  0  0  0  0  0
    9.7413  -18.3839   21.7454 S   0  0  0  0  0  0  0  0  0  0  0  0
    8.9536  -15.9421   23.6413 C   0  0  0  0  0  0  0  0  0  0  0  0
   10.1812  -15.6883   23.5467 O   0  0  0  0  0  0  0  0  0  0  0  0
    8.3840  -15.9721   24.9259 N   0  0  0  0  0  0  0  0  0  0  0  0
    9.0843  -15.6180   26.1476 C   0  0  1  0  0  0  0  0  0  0  0  0
    8.1726  -15.0985   27.2008 C   0  0  0  0  0  0  0  0  0  0  0  0
    7.5270  -13.8463   26.7578 C   0  0  0  0  0  0  0  0  0  0  0  0
    6.2027  -13.8215   26.2974 C   0  0  0  0  0  0  0  0  0  0  0  0
    5.6121  -12.6448   25.9020 C   0  0  0  0  0  0  0  0  0  0  0  0
    6.3039  -11.4655   25.9481 C   0  0  0  0  0  0  0  0  0  0  0  0
    7.5923  -11.4549   26.3904 C   0  0  0  0  0  0  0  0  0  0  0  0
    8.1786  -12.6309   26.7843 C   0  0  0  0  0  0  0  0  0  0  0  0
    9.9082  -16.7759   26.5487 C   0  0  0  0  0  0  0  0  0  0  0  0
    9.6068  -17.9452   26.1263 O   0  0  0  0  0  0  0  0  0  0  0  0
   11.0188  -16.7319   27.3654 O   0  0  0  0  0  0  0  0  0  0  0  0
  2  1  1  1
  2  3  1  0
  4  2  1  0
  4  5  1  6
  6  4  1  0
  6  7  2  0
  8  6  1  0
  9  8  1  0
  9 12  1  0
  9 10  1  6
 11 10  1  0
 12 13  2  0
 12 14  1  0
 14 15  1  0
 15 16  1  1
 16 17  1  0
 17 22  2  0
 18 17  1  0
 18 19  2  0
 19 20  1  0
 20 21  2  0
 22 21  1  0
 23 25  1  0
 23 15  1  0
 24 23  2  0
M  END
$$$$
