TCF.pdb
     RDKit          3D

 25 25  0  0  1  0  0  0  0  0999 V2000
    9.8327  -15.3409   20.6541 C   0  0  0  0  0  0  0  0  0  0  0  0
    8.7004  -15.5140   19.6608 C   0  0  1  0  0  0  0  0  0  0  0  0
    9.2700  -15.5182   18.3885 O   0  0  0  0  0  0  0  0  0  0  0  0
    8.0528  -16.8436   19.9531 C   0  0  2  0  0  0  0  0  0  0  0  0
    7.0376  -17.0832   18.9570 N   0  0  0  0  0  0  0  0  0  0  0  0
    7.4060  -16.8791   21.2923 C   0  0  0  0  0  0  0  0  0  0  0  0
    6.3325  -16.2549   21.5284 O   0  0  0  0  0  0  0  0  0  0  0  0
    7.9571  -17.6147   22.3785 N   0  0  0  0  0  0  0  0  0  0  0  0
    7.4241  -17.6404   23.7023 C   0  0  1  0  0  0  0  0  0  0  0  0
    6.9344  -19.0144   24.1209 C   0  0  0  0  0  0  0  0  0  0  0  0
    8.2693  -20.1072   24.6042 S   0  0  0  0  0  0  0  0  0  0  0  0
    8.3243  -17.0382   24.7114 C   0  0  0  0  0  0  0  0  0  0  0  0
    9.5527  -16.9858   24.4495 O   0  0  0  0  0  0  0  0  0  0  0  0
    7.8908  -16.5212   25.9444 N   0  0  0  0  0  0  0  0  0  0  0  0
    8.7629  -15.9322   26.9448 C   0  0  1  0  0  0  0  0  0  0  0  0
    8.0917  -14.8659   27.7340 C   0  0  0  0  0  0  0  0  0  0  0  0
    7.6165  -13.7846   26.8475 C   0  0  0  0  0  0  0  0  0  0  0  0
    6.2648  -13.6589   26.4958 C   0  0  0  0  0  0  0  0  0  0  0  0
    5.8368  -12.6380   25.6808 C   0  0  0  0  0  0  0  0  0  0  0  0
    6.7216  -11.7167   25.1913 C   0  0  0  0  0  0  0  0  0  0  0  0
    8.0418  -11.8101   25.5138 C   0  0  0  0  0  0  0  0  0  0  0  0
    8.4656  -12.8301   26.3274 C   0  0  0  0  0  0  0  0  0  0  0  0
    9.3420  -17.0310   27.7433 C   0  0  0  0  0  0  0  0  0  0  0  0
    8.7971  -18.1881   27.7189 O   0  0  0  0  0  0  0  0  0  0  0  0
   10.4585  -16.9420   28.5485 O   0  0  0  0  0  0  0  0  0  0  0  0
  2  1  1  1
  2  3  1  0
  4  2  1  0
  4  5  1  6
  6  4  1  0
  6  7  2  0
  8  6  1  0
  9  8  1  0
  9 12  1  0
  9 10  1  1
 11 10  1  0
 12 13  2  0
 12 14  1  0
 14 15  1  0
 15 16  1  1
 16 17  1  0
 17 22  2  0
 18 17  1  0
 18 19  2  0
 19 20  1  0
 20 21  2  0
 22 21  1  0
 23 25  1  0
 23 15  1  0
 24 23  2  0
M  END
$$$$
