TCF.pdb
     RDKit          3D

 25 25  0  0  1  0  0  0  0  0999 V2000
    9.5100  -12.9107   20.5615 C   0  0  0  0  0  0  0  0  0  0  0  0
    8.4185  -12.9583   19.5103 C   0  0  1  0  0  0  0  0  0  0  0  0
    8.9140  -12.3151   18.3771 O   0  0  0  0  0  0  0  0  0  0  0  0
    8.1485  -14.4120   19.2161 C   0  0  2  0  0  0  0  0  0  0  0  0
    7.1966  -14.4875   18.1351 N   0  0  0  0  0  0  0  0  0  0  0  0
    7.5795  -15.1330   20.3862 C   0  0  0  0  0  0  0  0  0  0  0  0
    6.3451  -15.0937   20.6549 O   0  0  0  0  0  0  0  0  0  0  0  0
    8.3897  -15.9046   21.2654 N   0  0  0  0  0  0  0  0  0  0  0  0
    7.9108  -16.6124   22.4086 C   0  0  1  0  0  0  0  0  0  0  0  0
    7.8373  -18.1127   22.1929 C   0  0  0  0  0  0  0  0  0  0  0  0
    7.2191  -18.9887   23.6283 S   0  0  0  0  0  0  0  0  0  0  0  0
    8.6228  -16.2632   23.6585 C   0  0  0  0  0  0  0  0  0  0  0  0
    9.8772  -16.1892   23.6218 O   0  0  0  0  0  0  0  0  0  0  0  0
    7.9833  -16.0091   24.8841 N   0  0  0  0  0  0  0  0  0  0  0  0
    8.6698  -15.6787   26.1202 C   0  0  1  0  0  0  0  0  0  0  0  0
    7.7675  -15.0669   27.1310 C   0  0  0  0  0  0  0  0  0  0  0  0
    7.2586  -13.7654   26.6532 C   0  0  0  0  0  0  0  0  0  0  0  0
    5.9332  -13.6033   26.2252 C   0  0  0  0  0  0  0  0  0  0  0  0
    5.4715  -12.3814   25.7967 C   0  0  0  0  0  0  0  0  0  0  0  0
    6.2963  -11.2902   25.7774 C   0  0  0  0  0  0  0  0  0  0  0  0
    7.5897  -11.4136   26.1868 C   0  0  0  0  0  0  0  0  0  0  0  0
    8.0471  -12.6344   26.6139 C   0  0  0  0  0  0  0  0  0  0  0  0
    9.3908  -16.8849   26.5736 C   0  0  0  0  0  0  0  0  0  0  0  0
    8.9873  -18.0412   26.2040 O   0  0  0  0  0  0  0  0  0  0  0  0
   10.5036  -16.9014   27.3884 O   0  0  0  0  0  0  0  0  0  0  0  0
  2  1  1  1
  2  3  1  0
  4  2  1  0
  4  5  1  6
  6  4  1  0
  6  7  2  0
  8  6  1  0
  9  8  1  0
  9 12  1  0
  9 10  1  6
 11 10  1  0
 12 13  2  0
 12 14  1  0
 14 15  1  0
 15 16  1  1
 16 17  1  0
 17 22  2  0
 18 17  1  0
 18 19  2  0
 19 20  1  0
 20 21  2  0
 22 21  1  0
 23 25  1  0
 23 15  1  0
 24 23  2  0
M  END
$$$$
