TCF.pdb
     RDKit          3D

 25 25  0  0  1  0  0  0  0  0999 V2000
    8.8829  -12.6309   20.6830 C   0  0  0  0  0  0  0  0  0  0  0  0
    8.1344  -12.9195   19.3965 C   0  0  1  0  0  0  0  0  0  0  0  0
    8.6527  -12.0680   18.4221 O   0  0  0  0  0  0  0  0  0  0  0  0
    8.4060  -14.3585   19.0381 C   0  0  2  0  0  0  0  0  0  0  0  0
    7.7042  -14.6623   17.8152 N   0  0  0  0  0  0  0  0  0  0  0  0
    7.9395  -15.3039   20.0876 C   0  0  0  0  0  0  0  0  0  0  0  0
    6.7974  -15.8430   20.0361 O   0  0  0  0  0  0  0  0  0  0  0  0
    8.7496  -15.6531   21.2041 N   0  0  0  0  0  0  0  0  0  0  0  0
    8.3913  -16.6009   22.2094 C   0  0  1  0  0  0  0  0  0  0  0  0
    8.6771  -18.0353   21.8049 C   0  0  0  0  0  0  0  0  0  0  0  0
    8.2799  -19.2110   23.0972 S   0  0  0  0  0  0  0  0  0  0  0  0
    8.9408  -16.2785   23.5455 C   0  0  0  0  0  0  0  0  0  0  0  0
   10.1681  -16.0208   23.6320 O   0  0  0  0  0  0  0  0  0  0  0  0
    8.1753  -16.2425   24.7238 N   0  0  0  0  0  0  0  0  0  0  0  0
    8.6878  -15.8679   26.0297 C   0  0  1  0  0  0  0  0  0  0  0  0
    7.6374  -15.3022   26.9168 C   0  0  0  0  0  0  0  0  0  0  0  0
    7.2621  -13.9434   26.4768 C   0  0  0  0  0  0  0  0  0  0  0  0
    8.2163  -12.9274   26.3232 C   0  0  0  0  0  0  0  0  0  0  0  0
    7.8520  -11.6716   25.8990 C   0  0  0  0  0  0  0  0  0  0  0  0
    6.5457  -11.3813   25.6152 C   0  0  0  0  0  0  0  0  0  0  0  0
    5.5937  -12.3458   25.7538 C   0  0  0  0  0  0  0  0  0  0  0  0
    5.9607  -13.5980   26.1774 C   0  0  0  0  0  0  0  0  0  0  0  0
    9.4136  -17.0295   26.5811 C   0  0  0  0  0  0  0  0  0  0  0  0
   10.0350  -16.9191   27.6938 O   0  0  0  0  0  0  0  0  0  0  0  0
    9.4972  -18.2783   26.0013 O   0  0  0  0  0  0  0  0  0  0  0  0
  2  1  1  1
  2  3  1  0
  4  2  1  0
  4  5  1  6
  6  4  1  0
  6  7  2  0
  8  6  1  0
  9  8  1  0
  9 12  1  0
  9 10  1  6
 11 10  1  0
 12 13  2  0
 12 14  1  0
 14 15  1  0
 15 16  1  1
 16 17  1  0
 17 22  2  0
 18 17  1  0
 18 19  2  0
 19 20  1  0
 20 21  2  0
 22 21  1  0
 23 25  1  0
 23 15  1  0
 24 23  2  0
M  END
$$$$
