TCF.pdb
     RDKit          3D

 25 25  0  0  1  0  0  0  0  0999 V2000
    8.6320  -12.6575   20.5284 C   0  0  0  0  0  0  0  0  0  0  0  0
    8.0002  -13.2534   19.2856 C   0  0  1  0  0  0  0  0  0  0  0  0
    8.7113  -12.7643   18.1909 O   0  0  0  0  0  0  0  0  0  0  0  0
    8.1497  -14.7502   19.3857 C   0  0  2  0  0  0  0  0  0  0  0  0
    7.6291  -15.3405   18.1771 N   0  0  0  0  0  0  0  0  0  0  0  0
    7.4035  -15.3205   20.5392 C   0  0  0  0  0  0  0  0  0  0  0  0
    6.2150  -15.7347   20.4224 O   0  0  0  0  0  0  0  0  0  0  0  0
    7.9832  -15.4315   21.8340 N   0  0  0  0  0  0  0  0  0  0  0  0
    7.6662  -16.4452   22.7874 C   0  0  1  0  0  0  0  0  0  0  0  0
    7.7644  -17.8490   22.2196 C   0  0  0  0  0  0  0  0  0  0  0  0
    7.3267  -19.1108   23.4139 S   0  0  0  0  0  0  0  0  0  0  0  0
    8.4055  -16.3066   24.0623 C   0  0  0  0  0  0  0  0  0  0  0  0
    9.6584  -16.2170   24.0108 O   0  0  0  0  0  0  0  0  0  0  0  0
    7.7937  -16.2690   25.3271 N   0  0  0  0  0  0  0  0  0  0  0  0
    8.4862  -15.9817   26.5706 C   0  0  1  0  0  0  0  0  0  0  0  0
    7.6355  -15.2475   27.5440 C   0  0  0  0  0  0  0  0  0  0  0  0
    7.2660  -13.9198   27.0132 C   0  0  0  0  0  0  0  0  0  0  0  0
    8.2089  -12.8909   26.8771 C   0  0  0  0  0  0  0  0  0  0  0  0
    7.8513  -11.6651   26.3678 C   0  0  0  0  0  0  0  0  0  0  0  0
    6.5629  -11.4182   25.9801 C   0  0  0  0  0  0  0  0  0  0  0  0
    5.6223  -12.3964   26.0990 C   0  0  0  0  0  0  0  0  0  0  0  0
    5.9826  -13.6185   26.6075 C   0  0  0  0  0  0  0  0  0  0  0  0
    9.0607  -17.2466   27.0711 C   0  0  0  0  0  0  0  0  0  0  0  0
    9.7916  -17.2395   28.1209 O   0  0  0  0  0  0  0  0  0  0  0  0
    8.8859  -18.4921   26.5048 O   0  0  0  0  0  0  0  0  0  0  0  0
  2  1  1  1
  2  3  1  0
  4  2  1  0
  4  5  1  6
  6  4  1  0
  6  7  2  0
  8  6  1  0
  9  8  1  0
  9 12  1  0
  9 10  1  6
 11 10  1  0
 12 13  2  0
 12 14  1  0
 14 15  1  0
 15 16  1  1
 16 17  1  0
 17 22  2  0
 18 17  1  0
 18 19  2  0
 19 20  1  0
 20 21  2  0
 22 21  1  0
 23 25  1  0
 23 15  1  0
 24 23  2  0
M  END
$$$$
