TCF.pdb
     RDKit          3D

 25 25  0  0  1  0  0  0  0  0999 V2000
   10.0927  -19.5885   22.4384 C   0  0  0  0  0  0  0  0  0  0  0  0
   11.0373  -19.2694   21.2962 C   0  0  1  0  0  0  0  0  0  0  0  0
   11.3788  -20.4812   20.6976 O   0  0  0  0  0  0  0  0  0  0  0  0
   10.2823  -18.3963   20.3264 C   0  0  2  0  0  0  0  0  0  0  0  0
   11.0301  -18.3333   19.0947 N   0  0  0  0  0  0  0  0  0  0  0  0
   10.1026  -17.0087   20.8313 C   0  0  0  0  0  0  0  0  0  0  0  0
   11.0113  -16.1375   20.7179 O   0  0  0  0  0  0  0  0  0  0  0  0
    8.9023  -16.5856   21.4678 N   0  0  0  0  0  0  0  0  0  0  0  0
    8.6414  -15.2572   21.9201 C   0  0  1  0  0  0  0  0  0  0  0  0
    7.3029  -14.7194   21.4487 C   0  0  0  0  0  0  0  0  0  0  0  0
    5.9283  -15.7593   21.9377 S   0  0  0  0  0  0  0  0  0  0  0  0
    8.8296  -15.0838   23.3781 C   0  0  0  0  0  0  0  0  0  0  0  0
    8.7866  -13.9168   23.8436 O   0  0  0  0  0  0  0  0  0  0  0  0
    9.0534  -16.1430   24.2744 N   0  0  0  0  0  0  0  0  0  0  0  0
    9.0420  -16.0163   25.7209 C   0  0  1  0  0  0  0  0  0  0  0  0
    7.6749  -15.8097   26.2674 C   0  0  0  0  0  0  0  0  0  0  0  0
    7.3637  -14.3689   26.3577 C   0  0  0  0  0  0  0  0  0  0  0  0
    6.0965  -13.8655   26.0305 C   0  0  0  0  0  0  0  0  0  0  0  0
    5.8191  -12.5231   26.1337 C   0  0  0  0  0  0  0  0  0  0  0  0
    6.7755  -11.6425   26.5595 C   0  0  0  0  0  0  0  0  0  0  0  0
    8.0170  -12.0988   26.8854 C   0  0  0  0  0  0  0  0  0  0  0  0
    8.2904  -13.4392   26.7814 C   0  0  0  0  0  0  0  0  0  0  0  0
    9.7722  -17.1707   26.2818 C   0  0  0  0  0  0  0  0  0  0  0  0
   10.0463  -18.1717   25.5340 O   0  0  0  0  0  0  0  0  0  0  0  0
   10.2121  -17.2922   27.5834 O   0  0  0  0  0  0  0  0  0  0  0  0
  2  1  1  1
  2  3  1  0
  4  2  1  0
  4  5  1  6
  6  4  1  0
  6  7  2  0
  8  6  1  0
  9  8  1  0
  9 12  1  0
  9 10  1  1
 11 10  1  0
 12 13  2  0
 12 14  1  0
 14 15  1  0
 15 16  1  1
 16 17  1  0
 17 22  2  0
 18 17  1  0
 18 19  2  0
 19 20  1  0
 20 21  2  0
 22 21  1  0
 23 25  1  0
 23 15  1  0
 24 23  2  0
M  END
$$$$
