TCF.pdb
     RDKit          3D

 25 25  0  0  1  0  0  0  0  0999 V2000
    7.0445  -19.0271   22.0773 C   0  0  0  0  0  0  0  0  0  0  0  0
    7.2948  -19.3376   20.6145 C   0  0  1  0  0  0  0  0  0  0  0  0
    6.4100  -20.3531   20.2550 O   0  0  0  0  0  0  0  0  0  0  0  0
    6.9989  -18.0804   19.8368 C   0  0  2  0  0  0  0  0  0  0  0  0
    6.9492  -18.4147   18.4347 N   0  0  0  0  0  0  0  0  0  0  0  0
    8.0399  -17.0352   20.0278 C   0  0  0  0  0  0  0  0  0  0  0  0
    8.7056  -16.5752   19.0567 O   0  0  0  0  0  0  0  0  0  0  0  0
    8.3438  -16.4964   21.3092 N   0  0  0  0  0  0  0  0  0  0  0  0
    8.6911  -15.1353   21.5623 C   0  0  1  0  0  0  0  0  0  0  0  0
    7.7085  -14.1478   20.9606 C   0  0  0  0  0  0  0  0  0  0  0  0
    8.2419  -12.4465   21.1365 S   0  0  0  0  0  0  0  0  0  0  0  0
    8.9623  -14.8523   22.9898 C   0  0  0  0  0  0  0  0  0  0  0  0
    9.6388  -13.8305   23.2703 O   0  0  0  0  0  0  0  0  0  0  0  0
    8.5103  -15.6551   24.0512 N   0  0  0  0  0  0  0  0  0  0  0  0
    9.0776  -15.6521   25.3878 C   0  0  1  0  0  0  0  0  0  0  0  0
    8.0415  -15.5567   26.4499 C   0  0  0  0  0  0  0  0  0  0  0  0
    7.3277  -14.2666   26.3650 C   0  0  0  0  0  0  0  0  0  0  0  0
    6.0109  -14.1815   25.8905 C   0  0  0  0  0  0  0  0  0  0  0  0
    5.3558  -12.9744   25.8313 C   0  0  0  0  0  0  0  0  0  0  0  0
    5.9743  -11.8230   26.2350 C   0  0  0  0  0  0  0  0  0  0  0  0
    7.2534  -11.8708   26.7012 C   0  0  0  0  0  0  0  0  0  0  0  0
    7.9042  -13.0771   26.7591 C   0  0  0  0  0  0  0  0  0  0  0  0
    9.9816  -16.8143   25.4982 C   0  0  0  0  0  0  0  0  0  0  0  0
   10.6795  -16.9765   26.5580 O   0  0  0  0  0  0  0  0  0  0  0  0
   10.1628  -17.7896   24.5398 O   0  0  0  0  0  0  0  0  0  0  0  0
  2  1  1  1
  2  3  1  0
  4  2  1  0
  4  5  1  6
  6  4  1  0
  6  7  2  0
  8  6  1  0
  9  8  1  0
  9 12  1  0
  9 10  1  1
 11 10  1  0
 12 13  2  0
 12 14  1  0
 14 15  1  0
 15 16  1  1
 16 17  1  0
 17 22  2  0
 18 17  1  0
 18 19  2  0
 19 20  1  0
 20 21  2  0
 22 21  1  0
 23 25  1  0
 23 15  1  0
 24 23  2  0
M  END
$$$$
