TCF.pdb
     RDKit          3D

 25 25  0  0  1  0  0  0  0  0999 V2000
    8.7389  -13.1037   20.8704 C   0  0  0  0  0  0  0  0  0  0  0  0
    7.7287  -13.6061   19.8576 C   0  0  1  0  0  0  0  0  0  0  0  0
    8.1368  -13.1415   18.6083 O   0  0  0  0  0  0  0  0  0  0  0  0
    7.7697  -15.1125   19.8993 C   0  0  2  0  0  0  0  0  0  0  0  0
    6.9244  -15.6194   18.8464 N   0  0  0  0  0  0  0  0  0  0  0  0
    7.2782  -15.6594   21.1924 C   0  0  0  0  0  0  0  0  0  0  0  0
    6.0631  -15.5752   21.5305 O   0  0  0  0  0  0  0  0  0  0  0  0
    8.1446  -16.3055   22.1180 N   0  0  0  0  0  0  0  0  0  0  0  0
    7.7436  -16.8320   23.3826 C   0  0  1  0  0  0  0  0  0  0  0  0
    7.5745  -18.3400   23.3737 C   0  0  0  0  0  0  0  0  0  0  0  0
    9.1350  -19.2120   23.4928 S   0  0  0  0  0  0  0  0  0  0  0  0
    8.5898  -16.3726   24.5069 C   0  0  0  0  0  0  0  0  0  0  0  0
    9.7813  -16.0580   24.2582 O   0  0  0  0  0  0  0  0  0  0  0  0
    8.1439  -16.2663   25.8356 N   0  0  0  0  0  0  0  0  0  0  0  0
    8.9644  -15.8229   26.9485 C   0  0  1  0  0  0  0  0  0  0  0  0
    8.2042  -15.0067   27.9315 C   0  0  0  0  0  0  0  0  0  0  0  0
    7.6158  -13.8206   27.2774 C   0  0  0  0  0  0  0  0  0  0  0  0
    6.3112  -13.8324   26.7632 C   0  0  0  0  0  0  0  0  0  0  0  0
    5.7735  -12.7150   26.1699 C   0  0  0  0  0  0  0  0  0  0  0  0
    6.5000  -11.5605   26.0663 C   0  0  0  0  0  0  0  0  0  0  0  0
    7.7704  -11.5154   26.5558 C   0  0  0  0  0  0  0  0  0  0  0  0
    8.3040  -12.6323   27.1474 C   0  0  0  0  0  0  0  0  0  0  0  0
    9.6429  -17.0078   27.5106 C   0  0  0  0  0  0  0  0  0  0  0  0
    9.2472  -18.1796   27.1838 O   0  0  0  0  0  0  0  0  0  0  0  0
   10.7064  -16.9879   28.3887 O   0  0  0  0  0  0  0  0  0  0  0  0
  2  1  1  1
  2  3  1  0
  4  2  1  0
  4  5  1  6
  6  4  1  0
  6  7  2  0
  8  6  1  0
  9  8  1  0
  9 12  1  0
  9 10  1  6
 11 10  1  0
 12 13  2  0
 12 14  1  0
 14 15  1  0
 15 16  1  1
 16 17  1  0
 17 22  2  0
 18 17  1  0
 18 19  2  0
 19 20  1  0
 20 21  2  0
 22 21  1  0
 23 25  1  0
 23 15  1  0
 24 23  2  0
M  END
$$$$
