TCF.pdb
     RDKit          3D

 25 25  0  0  1  0  0  0  0  0999 V2000
    8.2350  -12.4358   19.2507 C   0  0  0  0  0  0  0  0  0  0  0  0
    8.2298  -13.3424   20.4659 C   0  0  1  0  0  0  0  0  0  0  0  0
    6.9295  -13.3446   20.9686 O   0  0  0  0  0  0  0  0  0  0  0  0
    8.6148  -14.7211   19.9930 C   0  0  2  0  0  0  0  0  0  0  0  0
    7.7234  -15.1004   18.9246 N   0  0  0  0  0  0  0  0  0  0  0  0
    8.5089  -15.7420   21.0698 C   0  0  0  0  0  0  0  0  0  0  0  0
    7.8446  -16.8060   20.9137 O   0  0  0  0  0  0  0  0  0  0  0  0
    9.1469  -15.5790   22.3312 N   0  0  0  0  0  0  0  0  0  0  0  0
    9.1354  -16.5429   23.3837 C   0  0  1  0  0  0  0  0  0  0  0  0
    9.7132  -17.8838   22.9702 C   0  0  0  0  0  0  0  0  0  0  0  0
   11.4156  -17.7649   22.4244 S   0  0  0  0  0  0  0  0  0  0  0  0
    9.7294  -16.0451   24.6449 C   0  0  0  0  0  0  0  0  0  0  0  0
   10.8217  -15.4264   24.5784 O   0  0  0  0  0  0  0  0  0  0  0  0
    9.1479  -16.2212   25.9123 N   0  0  0  0  0  0  0  0  0  0  0  0
    9.6654  -15.6521   27.1439 C   0  0  1  0  0  0  0  0  0  0  0  0
    8.6106  -14.9922   27.9578 C   0  0  0  0  0  0  0  0  0  0  0  0
    8.0065  -13.8689   27.2131 C   0  0  0  0  0  0  0  0  0  0  0  0
    8.6256  -12.6128   27.1419 C   0  0  0  0  0  0  0  0  0  0  0  0
    8.0568  -11.5818   26.4326 C   0  0  0  0  0  0  0  0  0  0  0  0
    6.8691  -11.7564   25.7767 C   0  0  0  0  0  0  0  0  0  0  0  0
    6.2415  -12.9646   25.8256 C   0  0  0  0  0  0  0  0  0  0  0  0
    6.8120  -13.9913   26.5344 C   0  0  0  0  0  0  0  0  0  0  0  0
   10.4281  -16.7053   27.8435 C   0  0  0  0  0  0  0  0  0  0  0  0
   10.3282  -17.9216   27.4597 O   0  0  0  0  0  0  0  0  0  0  0  0
   11.2764  -16.5115   28.9137 O   0  0  0  0  0  0  0  0  0  0  0  0
  2  1  1  6
  2  3  1  0
  4  2  1  0
  4  5  1  6
  6  4  1  0
  6  7  2  0
  8  6  1  0
  9  8  1  0
  9 12  1  0
  9 10  1  6
 11 10  1  0
 12 13  2  0
 12 14  1  0
 14 15  1  0
 15 16  1  1
 16 17  1  0
 17 22  2  0
 18 17  1  0
 18 19  2  0
 19 20  1  0
 20 21  2  0
 22 21  1  0
 23 25  1  0
 23 15  1  0
 24 23  2  0
M  END
$$$$
