TCF.pdb
     RDKit          3D

 25 25  0  0  1  0  0  0  0  0999 V2000
    6.6893  -19.1813   23.8038 C   0  0  0  0  0  0  0  0  0  0  0  0
    7.5399  -19.8503   22.7419 C   0  0  1  0  0  0  0  0  0  0  0  0
    6.9790  -21.1031   22.4984 O   0  0  0  0  0  0  0  0  0  0  0  0
    7.4656  -18.9899   21.5063 C   0  0  2  0  0  0  0  0  0  0  0  0
    8.0502  -19.7201   20.4084 N   0  0  0  0  0  0  0  0  0  0  0  0
    8.2076  -17.7097   21.6591 C   0  0  0  0  0  0  0  0  0  0  0  0
    9.4662  -17.6547   21.5556 O   0  0  0  0  0  0  0  0  0  0  0  0
    7.5450  -16.4798   21.9295 N   0  0  0  0  0  0  0  0  0  0  0  0
    8.1947  -15.2189   22.0882 C   0  0  1  0  0  0  0  0  0  0  0  0
    7.3962  -14.0611   21.5184 C   0  0  0  0  0  0  0  0  0  0  0  0
    6.6367  -14.4530   19.9437 S   0  0  0  0  0  0  0  0  0  0  0  0
    8.6432  -14.9578   23.4746 C   0  0  0  0  0  0  0  0  0  0  0  0
    8.4541  -13.8092   23.9492 O   0  0  0  0  0  0  0  0  0  0  0  0
    9.2675  -15.9145   24.2934 N   0  0  0  0  0  0  0  0  0  0  0  0
    9.3541  -15.8319   25.7405 C   0  0  1  0  0  0  0  0  0  0  0  0
    8.0216  -15.7087   26.3882 C   0  0  0  0  0  0  0  0  0  0  0  0
    7.5707  -14.3024   26.3856 C   0  0  0  0  0  0  0  0  0  0  0  0
    6.2804  -13.9417   25.9715 C   0  0  0  0  0  0  0  0  0  0  0  0
    5.8717  -12.6293   25.9888 C   0  0  0  0  0  0  0  0  0  0  0  0
    6.7163  -11.6398   26.4116 C   0  0  0  0  0  0  0  0  0  0  0  0
    7.9766  -11.9562   26.8206 C   0  0  0  0  0  0  0  0  0  0  0  0
    8.3812  -13.2670   26.8022 C   0  0  0  0  0  0  0  0  0  0  0  0
   10.1756  -16.9655   26.2099 C   0  0  0  0  0  0  0  0  0  0  0  0
   10.4420  -17.0824   27.4557 O   0  0  0  0  0  0  0  0  0  0  0  0
   10.7103  -17.9582   25.4155 O   0  0  0  0  0  0  0  0  0  0  0  0
  2  1  1  1
  2  3  1  0
  4  2  1  0
  4  5  1  6
  6  4  1  0
  6  7  2  0
  8  6  1  0
  9  8  1  0
  9 12  1  0
  9 10  1  1
 11 10  1  0
 12 13  2  0
 12 14  1  0
 14 15  1  0
 15 16  1  1
 16 17  1  0
 17 22  2  0
 18 17  1  0
 18 19  2  0
 19 20  1  0
 20 21  2  0
 22 21  1  0
 23 25  1  0
 23 15  1  0
 24 23  2  0
M  END
$$$$
