TCF.pdb
     RDKit          3D

 25 25  0  0  1  0  0  0  0  0999 V2000
   10.2902  -14.9822   19.3786 C   0  0  0  0  0  0  0  0  0  0  0  0
    9.4580  -13.7171   19.3026 C   0  0  1  0  0  0  0  0  0  0  0  0
    9.5998  -13.2115   18.0113 O   0  0  0  0  0  0  0  0  0  0  0  0
    8.0259  -14.1116   19.5603 C   0  0  2  0  0  0  0  0  0  0  0  0
    7.1872  -12.9646   19.3128 N   0  0  0  0  0  0  0  0  0  0  0  0
    7.8018  -14.5562   20.9620 C   0  0  0  0  0  0  0  0  0  0  0  0
    7.8714  -13.7508   21.9338 O   0  0  0  0  0  0  0  0  0  0  0  0
    7.4975  -15.9078   21.2867 N   0  0  0  0  0  0  0  0  0  0  0  0
    7.3893  -16.4256   22.6123 C   0  0  1  0  0  0  0  0  0  0  0  0
    6.6041  -17.7222   22.6834 C   0  0  0  0  0  0  0  0  0  0  0  0
    5.0391  -17.6318   21.8159 S   0  0  0  0  0  0  0  0  0  0  0  0
    8.6886  -16.5216   23.3151 C   0  0  0  0  0  0  0  0  0  0  0  0
    9.6961  -16.8673   22.6474 O   0  0  0  0  0  0  0  0  0  0  0  0
    8.8659  -16.2502   24.6827 N   0  0  0  0  0  0  0  0  0  0  0  0
   10.1529  -16.1933   25.3527 C   0  0  1  0  0  0  0  0  0  0  0  0
   10.5216  -14.8145   25.7692 C   0  0  0  0  0  0  0  0  0  0  0  0
    9.5019  -14.2568   26.6802 C   0  0  0  0  0  0  0  0  0  0  0  0
    9.6750  -14.2590   28.0718 C   0  0  0  0  0  0  0  0  0  0  0  0
    8.7222  -13.7229   28.9051 C   0  0  0  0  0  0  0  0  0  0  0  0
    7.5782  -13.1723   28.3958 C   0  0  0  0  0  0  0  0  0  0  0  0
    7.3790  -13.1539   27.0483 C   0  0  0  0  0  0  0  0  0  0  0  0
    8.3319  -13.6898   26.2196 C   0  0  0  0  0  0  0  0  0  0  0  0
   10.1419  -17.1932   26.4390 C   0  0  0  0  0  0  0  0  0  0  0  0
    9.0643  -17.8295   26.7044 O   0  0  0  0  0  0  0  0  0  0  0  0
   11.2166  -17.5326   27.2343 O   0  0  0  0  0  0  0  0  0  0  0  0
  2  1  1  6
  2  3  1  0
  4  2  1  0
  4  5  1  1
  6  4  1  0
  6  7  2  0
  8  6  1  0
  9  8  1  0
  9 12  1  0
  9 10  1  6
 11 10  1  0
 12 13  2  0
 12 14  1  0
 14 15  1  0
 15 16  1  1
 16 17  1  0
 17 22  2  0
 18 17  1  0
 18 19  2  0
 19 20  1  0
 20 21  2  0
 22 21  1  0
 23 25  1  0
 23 15  1  0
 24 23  2  0
M  END
$$$$
