TCF.pdb
     RDKit          3D

 25 25  0  0  1  0  0  0  0  0999 V2000
    8.7276  -12.7326   19.5481 C   0  0  0  0  0  0  0  0  0  0  0  0
    8.2007  -13.5203   18.3647 C   0  0  1  0  0  0  0  0  0  0  0  0
    8.9037  -13.0888   17.2409 O   0  0  0  0  0  0  0  0  0  0  0  0
    8.4847  -14.9755   18.6379 C   0  0  2  0  0  0  0  0  0  0  0  0
    8.1052  -15.7386   17.4744 N   0  0  0  0  0  0  0  0  0  0  0  0
    7.7200  -15.4952   19.8032 C   0  0  0  0  0  0  0  0  0  0  0  0
    6.5262  -15.8948   19.6897 O   0  0  0  0  0  0  0  0  0  0  0  0
    8.2870  -15.5715   21.1060 N   0  0  0  0  0  0  0  0  0  0  0  0
    7.6414  -16.1365   22.2467 C   0  0  1  0  0  0  0  0  0  0  0  0
    6.8929  -17.4188   21.9336 C   0  0  0  0  0  0  0  0  0  0  0  0
    6.2966  -18.2490   23.4050 S   0  0  0  0  0  0  0  0  0  0  0  0
    8.5362  -16.2849   23.4166 C   0  0  0  0  0  0  0  0  0  0  0  0
    9.5271  -17.0508   23.3078 O   0  0  0  0  0  0  0  0  0  0  0  0
    8.3467  -15.6225   24.6416 N   0  0  0  0  0  0  0  0  0  0  0  0
    9.3495  -15.5168   25.6865 C   0  0  1  0  0  0  0  0  0  0  0  0
    9.6373  -14.1080   26.0642 C   0  0  0  0  0  0  0  0  0  0  0  0
    8.3828  -13.3722   26.3206 C   0  0  0  0  0  0  0  0  0  0  0  0
    7.5236  -12.9928   25.2793 C   0  0  0  0  0  0  0  0  0  0  0  0
    6.3525  -12.3207   25.5365 C   0  0  0  0  0  0  0  0  0  0  0  0
    5.9952  -12.0043   26.8186 C   0  0  0  0  0  0  0  0  0  0  0  0
    6.8075  -12.3584   27.8532 C   0  0  0  0  0  0  0  0  0  0  0  0
    7.9755  -13.0293   27.5930 C   0  0  0  0  0  0  0  0  0  0  0  0
    8.9349  -16.3915   26.8015 C   0  0  0  0  0  0  0  0  0  0  0  0
    9.6737  -16.4863   27.8416 O   0  0  0  0  0  0  0  0  0  0  0  0
    7.7844  -17.1510   26.8466 O   0  0  0  0  0  0  0  0  0  0  0  0
  2  1  1  1
  2  3  1  0
  4  2  1  0
  4  5  1  6
  6  4  1  0
  6  7  2  0
  8  6  1  0
  9  8  1  0
  9 12  1  0
  9 10  1  6
 11 10  1  0
 12 13  2  0
 12 14  1  0
 14 15  1  0
 15 16  1  1
 16 17  1  0
 17 22  2  0
 18 17  1  0
 18 19  2  0
 19 20  1  0
 20 21  2  0
 22 21  1  0
 23 25  1  0
 23 15  1  0
 24 23  2  0
M  END
$$$$
