TCF.pdb
     RDKit          3D

 25 25  0  0  1  0  0  0  0  0999 V2000
    9.8438  -19.7204   18.1444 C   0  0  0  0  0  0  0  0  0  0  0  0
    9.6387  -18.8089   19.3385 C   0  0  1  0  0  0  0  0  0  0  0  0
   10.6379  -17.8382   19.2882 O   0  0  0  0  0  0  0  0  0  0  0  0
    8.2794  -18.1751   19.1850 C   0  0  2  0  0  0  0  0  0  0  0  0
    8.2568  -17.4441   17.9420 N   0  0  0  0  0  0  0  0  0  0  0  0
    7.9667  -17.2260   20.2870 C   0  0  0  0  0  0  0  0  0  0  0  0
    7.9959  -15.9743   20.1141 O   0  0  0  0  0  0  0  0  0  0  0  0
    7.6183  -17.6721   21.5925 N   0  0  0  0  0  0  0  0  0  0  0  0
    7.3762  -16.8185   22.7105 C   0  0  1  0  0  0  0  0  0  0  0  0
    6.0567  -17.1040   23.4035 C   0  0  0  0  0  0  0  0  0  0  0  0
    6.0395  -18.6927   24.2315 S   0  0  0  0  0  0  0  0  0  0  0  0
    8.5064  -16.7630   23.6649 C   0  0  0  0  0  0  0  0  0  0  0  0
    9.2515  -17.7714   23.7559 O   0  0  0  0  0  0  0  0  0  0  0  0
    8.7982  -15.6527   24.4757 N   0  0  0  0  0  0  0  0  0  0  0  0
    9.0130  -15.7123   25.9106 C   0  0  1  0  0  0  0  0  0  0  0  0
    7.7671  -15.4766   26.6868 C   0  0  0  0  0  0  0  0  0  0  0  0
    7.3528  -14.0625   26.5875 C   0  0  0  0  0  0  0  0  0  0  0  0
    8.2850  -13.0158   26.6275 C   0  0  0  0  0  0  0  0  0  0  0  0
    7.8839  -11.7054   26.5194 C   0  0  0  0  0  0  0  0  0  0  0  0
    6.5614  -11.3893   26.3697 C   0  0  0  0  0  0  0  0  0  0  0  0
    5.6300  -12.3825   26.3269 C   0  0  0  0  0  0  0  0  0  0  0  0
    6.0338  -13.6892   26.4350 C   0  0  0  0  0  0  0  0  0  0  0  0
    9.7073  -16.9802   26.2117 C   0  0  0  0  0  0  0  0  0  0  0  0
   10.8071  -16.9612   26.8648 O   0  0  0  0  0  0  0  0  0  0  0  0
    9.2789  -18.2405   25.8503 O   0  0  0  0  0  0  0  0  0  0  0  0
  2  1  1  6
  2  3  1  0
  4  2  1  0
  4  5  1  6
  6  4  1  0
  6  7  2  0
  8  6  1  0
  9  8  1  0
  9 12  1  0
  9 10  1  1
 11 10  1  0
 12 13  2  0
 12 14  1  0
 14 15  1  0
 15 16  1  1
 16 17  1  0
 17 22  2  0
 18 17  1  0
 18 19  2  0
 19 20  1  0
 20 21  2  0
 22 21  1  0
 23 25  1  0
 23 15  1  0
 24 23  2  0
M  END
$$$$
