IRH.pdb
     RDKit          3D

 30 30  0  0  1  0  0  0  0  0999 V2000
    7.6968  -11.2341   19.6705 C   0  0  0  0  0  0  0  0  0  0  0  0
    8.2265  -12.5385   19.0923 C   0  0  0  0  0  0  0  0  0  0  0  0
    8.2186  -13.6426   20.1135 C   0  0  2  0  0  0  0  0  0  0  0  0
    8.8769  -13.2350   21.3805 C   0  0  0  0  0  0  0  0  0  0  0  0
    8.7835  -14.8903   19.4690 C   0  0  2  0  0  0  0  0  0  0  0  0
    7.8783  -15.2361   18.3717 N   0  0  0  0  0  0  0  0  0  0  0  0
    8.8808  -16.0120   20.4111 C   0  0  0  0  0  0  0  0  0  0  0  0
    7.8750  -16.6526   20.8379 O   0  0  0  0  0  0  0  0  0  0  0  0
    9.7260  -21.0919   19.0810 N   0  0  0  0  0  0  0  0  0  0  0  0
   10.8383  -21.0271   18.1685 C   0  0  0  0  0  0  0  0  0  0  0  0
   10.6706  -21.3017   16.9243 N   0  0  0  0  0  0  0  0  0  0  0  0
   12.1350  -20.6603   18.6129 N   0  0  0  0  0  0  0  0  0  0  0  0
   12.3717  -20.0106   19.8887 C   0  0  0  0  0  0  0  0  0  0  0  0
   11.2065  -19.0809   20.2085 C   0  0  0  0  0  0  0  0  0  0  0  0
   11.4267  -18.3799   21.5105 C   0  0  0  0  0  0  0  0  0  0  0  0
   10.2758  -17.4525   21.9126 C   0  0  2  0  0  0  0  0  0  0  0  0
   10.1599  -16.4164   20.8771 N   0  0  0  0  0  0  0  0  0  0  0  0
   10.4009  -16.8845   23.2457 C   0  0  0  0  0  0  0  0  0  0  0  0
   11.2677  -15.9816   23.5335 O   0  0  0  0  0  0  0  0  0  0  0  0
   11.4116  -21.3286   16.2195 N   0  0  0  0  0  0  0  0  0  0  0  0
    9.5705  -17.2818   24.3270 C   0  0  1  0  0  0  0  0  0  0  0  0
    9.7747  -16.7287   25.6579 C   0  0  0  0  0  0  0  0  0  0  0  0
    8.3499  -16.5059   26.2014 C   0  0  0  0  0  0  0  0  0  0  0  0
    7.7804  -15.2778   25.6430 C   0  0  0  0  0  0  0  0  0  0  0  0
    8.4881  -14.4580   24.7647 N   0  0  0  0  0  0  0  0  0  0  0  0
    7.6457  -13.4402   24.4834 C   0  0  0  0  0  0  0  0  0  0  0  0
    6.4844  -13.6232   25.1508 N   0  0  0  0  0  0  0  0  0  0  0  0
    6.5670  -14.7642   25.8719 C   0  0  0  0  0  0  0  0  0  0  0  0
   10.5610  -17.6295   26.5113 O   0  0  0  0  0  0  0  0  0  0  0  0
   10.8451  -18.8276   26.1737 O   0  0  0  0  0  0  0  0  0  0  0  0
  2  3  1  0
  2  1  1  0
  3  4  1  1
  5  7  1  0
  5  3  1  0
  5  6  1  6
  7  8  2  0
 10 12  1  0
 10  9  1  0
 11 10  2  0
 13 14  1  0
 13 12  1  0
 14 15  1  0
 16 15  1  6
 17 16  1  0
 17  7  1  0
 18 16  1  0
 19 18  2  0
 20 18  1  0
 21 20  1  0
 21 22  1  6
 22 23  1  0
 23 27  1  0
 23 24  2  0
 24 25  1  0
 26 25  1  0
 27 26  2  0
 28 21  1  0
 29 28  2  0
 30 28  1  0
M  END
$$$$
