IRH.pdb
     RDKit          3D

 30 30  0  0  1  0  0  0  0  0999 V2000
    7.3443  -11.3569   19.3331 C   0  0  0  0  0  0  0  0  0  0  0  0
    7.6520  -12.8256   19.0794 C   0  0  0  0  0  0  0  0  0  0  0  0
    7.9084  -13.5690   20.3613 C   0  0  2  0  0  0  0  0  0  0  0  0
    8.9122  -12.8821   21.2130 C   0  0  0  0  0  0  0  0  0  0  0  0
    8.2329  -15.0075   20.0200 C   0  0  2  0  0  0  0  0  0  0  0  0
    7.1022  -15.5135   19.2399 N   0  0  0  0  0  0  0  0  0  0  0  0
    8.4278  -15.8364   21.2159 C   0  0  0  0  0  0  0  0  0  0  0  0
    7.4720  -16.3257   21.8878 O   0  0  0  0  0  0  0  0  0  0  0  0
   10.6000  -23.2881   22.3245 N   0  0  0  0  0  0  0  0  0  0  0  0
   11.2907  -22.0330   22.1763 C   0  0  0  0  0  0  0  0  0  0  0  0
   11.4993  -21.5440   21.0063 N   0  0  0  0  0  0  0  0  0  0  0  0
   11.7529  -21.3091   23.3058 N   0  0  0  0  0  0  0  0  0  0  0  0
   12.3372  -19.9847   23.2026 C   0  0  0  0  0  0  0  0  0  0  0  0
   11.3095  -18.9422   23.6283 C   0  0  0  0  0  0  0  0  0  0  0  0
   10.9644  -18.0386   22.4883 C   0  0  0  0  0  0  0  0  0  0  0  0
    9.9687  -16.9347   22.8576 C   0  0  2  0  0  0  0  0  0  0  0  0
    9.7483  -16.1175   21.6565 N   0  0  0  0  0  0  0  0  0  0  0  0
   10.3625  -16.1306   24.0038 C   0  0  0  0  0  0  0  0  0  0  0  0
   10.7234  -14.9029   23.8952 O   0  0  0  0  0  0  0  0  0  0  0  0
   12.0695  -20.7195   20.8030 N   0  0  0  0  0  0  0  0  0  0  0  0
   10.3719  -16.6412   25.3289 C   0  0  2  0  0  0  0  0  0  0  0  0
    9.5877  -15.9995   26.3739 C   0  0  0  0  0  0  0  0  0  0  0  0
    8.1535  -15.9690   25.8106 C   0  0  0  0  0  0  0  0  0  0  0  0
    7.5839  -14.6267   25.9459 C   0  0  0  0  0  0  0  0  0  0  0  0
    8.2928  -13.5678   26.5123 N   0  0  0  0  0  0  0  0  0  0  0  0
    7.4447  -12.5174   26.4666 C   0  0  0  0  0  0  0  0  0  0  0  0
    6.2793  -12.9075   25.9034 N   0  0  0  0  0  0  0  0  0  0  0  0
    6.3644  -14.2178   25.5800 C   0  0  0  0  0  0  0  0  0  0  0  0
    9.6699  -16.7280   27.6468 O   0  0  0  0  0  0  0  0  0  0  0  0
    9.4645  -16.1697   28.7765 O   0  0  0  0  0  0  0  0  0  0  0  0
  2  3  1  0
  2  1  1  0
  3  4  1  6
  5  7  1  0
  5  3  1  0
  5  6  1  1
  7  8  2  0
 10 12  1  0
 10  9  1  0
 11 10  2  0
 13 14  1  0
 13 12  1  0
 14 15  1  0
 16 15  1  6
 17 16  1  0
 17  7  1  0
 18 16  1  0
 19 18  2  0
 20 18  1  0
 21 20  1  0
 21 22  1  6
 22 23  1  0
 23 27  1  0
 23 24  2  0
 24 25  1  0
 26 25  1  0
 27 26  2  0
 28 21  1  0
 29 28  2  0
 30 28  1  0
M  END
$$$$
