IRH.pdb
     RDKit          3D

 30 30  0  0  1  0  0  0  0  0999 V2000
    5.9261  -10.9386   26.7423 C   0  0  0  0  0  0  0  0  0  0  0  0
    5.4766  -12.3357   26.3394 C   0  0  0  0  0  0  0  0  0  0  0  0
    6.5773  -13.0971   25.6534 C   0  0  2  0  0  0  0  0  0  0  0  0
    7.2325  -12.2937   24.5903 C   0  0  0  0  0  0  0  0  0  0  0  0
    6.0222  -14.4304   25.2004 C   0  0  2  0  0  0  0  0  0  0  0  0
    5.1694  -14.9151   26.2871 N   0  0  0  0  0  0  0  0  0  0  0  0
    7.0787  -15.4097   24.9173 C   0  0  0  0  0  0  0  0  0  0  0  0
    6.9042  -16.6623   24.9861 O   0  0  0  0  0  0  0  0  0  0  0  0
    9.5819  -15.4798   17.7889 N   0  0  0  0  0  0  0  0  0  0  0  0
    8.5190  -14.5095   17.7348 C   0  0  0  0  0  0  0  0  0  0  0  0
    8.4730  -13.6535   16.7773 N   0  0  0  0  0  0  0  0  0  0  0  0
    7.5036  -14.4736   18.7254 N   0  0  0  0  0  0  0  0  0  0  0  0
    7.4299  -15.4376   19.8076 C   0  0  0  0  0  0  0  0  0  0  0  0
    8.5841  -15.2029   20.7755 C   0  0  0  0  0  0  0  0  0  0  0  0
    8.0743  -14.8701   22.1410 C   0  0  0  0  0  0  0  0  0  0  0  0
    8.9692  -15.3822   23.2738 C   0  0  2  0  0  0  0  0  0  0  0  0
    8.3686  -14.9484   24.5428 N   0  0  0  0  0  0  0  0  0  0  0  0
   10.3640  -14.9850   23.1627 C   0  0  0  0  0  0  0  0  0  0  0  0
   10.8849  -14.5944   22.0558 O   0  0  0  0  0  0  0  0  0  0  0  0
    7.7428  -12.9489   16.6485 N   0  0  0  0  0  0  0  0  0  0  0  0
   11.2521  -14.9943   24.2707 C   0  0  2  0  0  0  0  0  0  0  0  0
   12.1220  -16.1363   24.5113 C   0  0  0  0  0  0  0  0  0  0  0  0
   11.2154  -17.1652   25.2145 C   0  0  0  0  0  0  0  0  0  0  0  0
   10.9838  -16.7700   26.6055 C   0  0  0  0  0  0  0  0  0  0  0  0
   11.4717  -15.5754   27.1340 N   0  0  0  0  0  0  0  0  0  0  0  0
   11.0652  -15.5731   28.4222 C   0  0  0  0  0  0  0  0  0  0  0  0
   10.3660  -16.7027   28.6727 N   0  0  0  0  0  0  0  0  0  0  0  0
   10.3152  -17.4472   27.5450 C   0  0  0  0  0  0  0  0  0  0  0  0
   12.6957  -16.6608   23.2648 O   0  0  0  0  0  0  0  0  0  0  0  0
   12.0853  -16.6014   22.1450 O   0  0  0  0  0  0  0  0  0  0  0  0
  2  3  1  0
  2  1  1  0
  3  4  1  6
  5  7  1  0
  5  3  1  0
  5  6  1  1
  7  8  2  0
 10 12  1  0
 10  9  1  0
 11 10  2  0
 13 14  1  0
 13 12  1  0
 14 15  1  0
 16 15  1  6
 17 16  1  0
 17  7  1  0
 18 16  1  0
 19 18  2  0
 20 18  1  0
 21 20  1  0
 21 22  1  1
 22 23  1  0
 23 27  1  0
 23 24  2  0
 24 25  1  0
 26 25  1  0
 27 26  2  0
 28 21  1  0
 29 28  2  0
 30 28  1  0
M  END
$$$$
