IRH.pdb
     RDKit          3D

 30 30  0  0  1  0  0  0  0  0999 V2000
    7.4886  -11.0757   19.8137 C   0  0  0  0  0  0  0  0  0  0  0  0
    8.1615  -12.2941   19.1981 C   0  0  0  0  0  0  0  0  0  0  0  0
    8.1962  -13.4529   20.1563 C   0  0  2  0  0  0  0  0  0  0  0  0
    8.8579  -13.0976   21.4372 C   0  0  0  0  0  0  0  0  0  0  0  0
    8.7878  -14.6465   19.4376 C   0  0  2  0  0  0  0  0  0  0  0  0
    7.9126  -14.9184   18.2960 N   0  0  0  0  0  0  0  0  0  0  0  0
    8.8723  -15.8327   20.2983 C   0  0  0  0  0  0  0  0  0  0  0  0
    7.8651  -16.5242   20.6326 O   0  0  0  0  0  0  0  0  0  0  0  0
   13.4992  -18.6754   16.3923 N   0  0  0  0  0  0  0  0  0  0  0  0
   12.3434  -19.5207   16.5462 C   0  0  0  0  0  0  0  0  0  0  0  0
   11.9655  -20.2811   15.5815 N   0  0  0  0  0  0  0  0  0  0  0  0
   11.5996  -19.5384   17.7545 N   0  0  0  0  0  0  0  0  0  0  0  0
   11.9518  -18.7251   18.9036 C   0  0  0  0  0  0  0  0  0  0  0  0
   11.0470  -19.0855   20.0766 C   0  0  0  0  0  0  0  0  0  0  0  0
   11.3821  -18.2632   21.2794 C   0  0  0  0  0  0  0  0  0  0  0  0
   10.2379  -17.3567   21.7434 C   0  0  2  0  0  0  0  0  0  0  0  0
   10.1401  -16.2437   20.7891 N   0  0  0  0  0  0  0  0  0  0  0  0
   10.3592  -16.8930   23.1167 C   0  0  0  0  0  0  0  0  0  0  0  0
   11.1768  -15.9651   23.4629 O   0  0  0  0  0  0  0  0  0  0  0  0
   11.2019  -20.9601   15.6281 N   0  0  0  0  0  0  0  0  0  0  0  0
    9.5788  -17.4276   24.1759 C   0  0  1  0  0  0  0  0  0  0  0  0
    9.7421  -16.9351   25.5358 C   0  0  0  0  0  0  0  0  0  0  0  0
    8.3018  -16.7894   26.0645 C   0  0  0  0  0  0  0  0  0  0  0  0
    7.7470  -15.4917   25.6739 C   0  0  0  0  0  0  0  0  0  0  0  0
    8.4648  -14.5714   24.9108 N   0  0  0  0  0  0  0  0  0  0  0  0
    7.6345  -13.5155   24.7674 C   0  0  0  0  0  0  0  0  0  0  0  0
    6.4708  -13.7715   25.4060 N   0  0  0  0  0  0  0  0  0  0  0  0
    6.5396  -14.9986   25.9699 C   0  0  0  0  0  0  0  0  0  0  0  0
   10.5463  -17.8495   26.3574 O   0  0  0  0  0  0  0  0  0  0  0  0
   10.7641  -19.0636   26.0277 O   0  0  0  0  0  0  0  0  0  0  0  0
  2  3  1  0
  2  1  1  0
  3  4  1  1
  5  7  1  0
  5  3  1  0
  5  6  1  6
  7  8  2  0
 10 12  1  0
 10  9  1  0
 11 10  2  0
 13 14  1  0
 13 12  1  0
 14 15  1  0
 16 15  1  6
 17 16  1  0
 17  7  1  0
 18 16  1  0
 19 18  2  0
 20 18  1  0
 21 20  1  0
 21 22  1  6
 22 23  1  0
 23 27  1  0
 23 24  2  0
 24 25  1  0
 26 25  1  0
 27 26  2  0
 28 21  1  0
 29 28  2  0
 30 28  1  0
M  END
$$$$
