IRH.pdb
     RDKit          3D

 30 30  0  0  1  0  0  0  0  0999 V2000
    8.7730  -12.4389   27.4273 C   0  0  0  0  0  0  0  0  0  0  0  0
    8.0958  -13.5692   26.6654 C   0  0  0  0  0  0  0  0  0  0  0  0
    7.4652  -13.0802   25.3907 C   0  0  2  0  0  0  0  0  0  0  0  0
    6.4152  -12.0610   25.6432 C   0  0  0  0  0  0  0  0  0  0  0  0
    7.0127  -14.2837   24.5920 C   0  0  2  0  0  0  0  0  0  0  0  0
    6.1732  -15.0827   25.4862 N   0  0  0  0  0  0  0  0  0  0  0  0
    8.1399  -15.0906   24.1084 C   0  0  0  0  0  0  0  0  0  0  0  0
    9.1376  -14.6005   23.5013 O   0  0  0  0  0  0  0  0  0  0  0  0
    9.6188  -19.4297   18.5076 N   0  0  0  0  0  0  0  0  0  0  0  0
   10.9783  -18.9549   18.5269 C   0  0  0  0  0  0  0  0  0  0  0  0
   11.8975  -19.6000   17.9020 N   0  0  0  0  0  0  0  0  0  0  0  0
   11.3359  -17.7736   19.2272 N   0  0  0  0  0  0  0  0  0  0  0  0
   10.3801  -16.9990   19.9968 C   0  0  0  0  0  0  0  0  0  0  0  0
   10.2660  -17.5836   21.4002 C   0  0  0  0  0  0  0  0  0  0  0  0
    9.2720  -16.8204   22.2154 C   0  0  0  0  0  0  0  0  0  0  0  0
    9.1062  -17.3541   23.6416 C   0  0  2  0  0  0  0  0  0  0  0  0
    8.1307  -16.4940   24.3255 N   0  0  0  0  0  0  0  0  0  0  0  0
   10.3501  -17.4729   24.3860 C   0  0  0  0  0  0  0  0  0  0  0  0
   11.3870  -18.0619   23.9094 O   0  0  0  0  0  0  0  0  0  0  0  0
   12.8901  -19.3531   17.8907 N   0  0  0  0  0  0  0  0  0  0  0  0
   10.5126  -16.9416   25.6929 C   0  0  1  0  0  0  0  0  0  0  0  0
   11.7466  -17.1626   26.4325 C   0  0  0  0  0  0  0  0  0  0  0  0
   11.3153  -17.1341   27.9118 C   0  0  0  0  0  0  0  0  0  0  0  0
   10.7263  -15.8351   28.2435 C   0  0  0  0  0  0  0  0  0  0  0  0
   10.9301  -14.7002   27.4593 N   0  0  0  0  0  0  0  0  0  0  0  0
   10.2440  -13.7181   28.0834 C   0  0  0  0  0  0  0  0  0  0  0  0
    9.6509  -14.2202   29.1897 N   0  0  0  0  0  0  0  0  0  0  0  0
    9.9502  -15.5351   29.2904 C   0  0  0  0  0  0  0  0  0  0  0  0
   12.3868  -18.4324   26.0642 O   0  0  0  0  0  0  0  0  0  0  0  0
   11.8903  -19.2311   25.2007 O   0  0  0  0  0  0  0  0  0  0  0  0
  2  3  1  0
  2  1  1  0
  3  4  1  1
  5  7  1  0
  5  3  1  0
  5  6  1  1
  7  8  2  0
 10 12  1  0
 10  9  1  0
 11 10  2  0
 13 14  1  0
 13 12  1  0
 14 15  1  0
 16 15  1  6
 17 16  1  0
 17  7  1  0
 18 16  1  0
 19 18  2  0
 20 18  1  0
 21 20  1  0
 21 22  1  1
 22 23  1  0
 23 27  1  0
 23 24  2  0
 24 25  1  0
 26 25  1  0
 27 26  2  0
 28 21  1  0
 29 28  2  0
 30 28  1  0
M  END
$$$$
