IRH.pdb
     RDKit          3D

 30 30  0  0  1  0  0  0  0  0999 V2000
    5.7264  -10.8788   26.9972 C   0  0  0  0  0  0  0  0  0  0  0  0
    5.9644  -11.2292   25.5353 C   0  0  0  0  0  0  0  0  0  0  0  0
    6.8791  -12.4140   25.3898 C   0  0  2  0  0  0  0  0  0  0  0  0
    8.0842  -12.0925   24.5839 C   0  0  0  0  0  0  0  0  0  0  0  0
    6.0635  -13.5852   24.8858 C   0  0  2  0  0  0  0  0  0  0  0  0
    5.0969  -13.9009   25.9390 N   0  0  0  0  0  0  0  0  0  0  0  0
    6.8926  -14.7619   24.5971 C   0  0  0  0  0  0  0  0  0  0  0  0
    7.2266  -15.6113   25.4754 O   0  0  0  0  0  0  0  0  0  0  0  0
   10.8461  -19.2898   19.2487 N   0  0  0  0  0  0  0  0  0  0  0  0
    9.5367  -19.3135   18.6495 C   0  0  0  0  0  0  0  0  0  0  0  0
    9.3944  -19.6593   17.4200 N   0  0  0  0  0  0  0  0  0  0  0  0
    8.3803  -18.9613   19.3927 N   0  0  0  0  0  0  0  0  0  0  0  0
    8.4299  -18.6097   20.7998 C   0  0  0  0  0  0  0  0  0  0  0  0
    9.2291  -17.3231   20.9734 C   0  0  0  0  0  0  0  0  0  0  0  0
    8.3486  -16.2084   21.4396 C   0  0  0  0  0  0  0  0  0  0  0  0
    8.2075  -16.1315   22.9629 C   0  0  2  0  0  0  0  0  0  0  0  0
    7.3512  -14.9778   23.2705 N   0  0  0  0  0  0  0  0  0  0  0  0
    9.4717  -16.0835   23.6807 C   0  0  0  0  0  0  0  0  0  0  0  0
   10.1164  -14.9894   23.8721 O   0  0  0  0  0  0  0  0  0  0  0  0
    8.4996  -19.7783   16.9388 N   0  0  0  0  0  0  0  0  0  0  0  0
   10.0844  -17.2418   24.2282 C   0  0  2  0  0  0  0  0  0  0  0  0
   10.9402  -17.1407   25.4013 C   0  0  0  0  0  0  0  0  0  0  0  0
    9.9678  -17.2397   26.5929 C   0  0  0  0  0  0  0  0  0  0  0  0
   10.7110  -17.2466   27.8547 C   0  0  0  0  0  0  0  0  0  0  0  0
   12.1017  -17.1575   27.9033 N   0  0  0  0  0  0  0  0  0  0  0  0
   12.4076  -17.2028   29.2182 C   0  0  0  0  0  0  0  0  0  0  0  0
   11.2691  -17.3132   29.9388 N   0  0  0  0  0  0  0  0  0  0  0  0
   10.2145  -17.3410   29.0929 C   0  0  0  0  0  0  0  0  0  0  0  0
   11.9614  -18.1964   25.4277 O   0  0  0  0  0  0  0  0  0  0  0  0
   11.8835  -19.2506   24.7116 O   0  0  0  0  0  0  0  0  0  0  0  0
  2  3  1  0
  2  1  1  0
  3  4  1  6
  5  7  1  0
  5  3  1  0
  5  6  1  1
  7  8  2  0
 10 12  1  0
 10  9  1  0
 11 10  2  0
 13 14  1  0
 13 12  1  0
 14 15  1  0
 16 15  1  6
 17 16  1  0
 17  7  1  0
 18 16  1  0
 19 18  2  0
 20 18  1  0
 21 20  1  0
 21 22  1  1
 22 23  1  0
 23 27  1  0
 23 24  2  0
 24 25  1  0
 26 25  1  0
 27 26  2  0
 28 21  1  0
 29 28  2  0
 30 28  1  0
M  END
$$$$
