IRH.pdb
     RDKit          3D

 30 30  0  0  1  0  0  0  0  0999 V2000
    6.3537  -11.9987   28.4006 C   0  0  0  0  0  0  0  0  0  0  0  0
    5.7384  -13.0898   27.5363 C   0  0  0  0  0  0  0  0  0  0  0  0
    6.6940  -13.5640   26.4762 C   0  0  2  0  0  0  0  0  0  0  0  0
    7.2580  -12.4378   25.6897 C   0  0  0  0  0  0  0  0  0  0  0  0
    6.0044  -14.6356   25.6593 C   0  0  2  0  0  0  0  0  0  0  0  0
    5.6839  -15.7218   26.5869 N   0  0  0  0  0  0  0  0  0  0  0  0
    6.8495  -15.1396   24.5698 C   0  0  0  0  0  0  0  0  0  0  0  0
    7.5423  -16.1963   24.6574 O   0  0  0  0  0  0  0  0  0  0  0  0
   10.2288  -14.4919   15.7982 N   0  0  0  0  0  0  0  0  0  0  0  0
    9.7569  -14.0625   17.0894 C   0  0  0  0  0  0  0  0  0  0  0  0
   10.5932  -13.7035   17.9968 N   0  0  0  0  0  0  0  0  0  0  0  0
    8.3709  -14.0226   17.3910 N   0  0  0  0  0  0  0  0  0  0  0  0
    7.8539  -13.4709   18.6296 C   0  0  0  0  0  0  0  0  0  0  0  0
    8.1495  -14.4321   19.7755 C   0  0  0  0  0  0  0  0  0  0  0  0
    7.4002  -14.0377   21.0077 C   0  0  0  0  0  0  0  0  0  0  0  0
    7.6438  -14.9676   22.2002 C   0  0  2  0  0  0  0  0  0  0  0  0
    6.9041  -14.4210   23.3461 N   0  0  0  0  0  0  0  0  0  0  0  0
    9.0473  -15.1916   22.5094 C   0  0  0  0  0  0  0  0  0  0  0  0
    9.7515  -14.3480   23.1740 O   0  0  0  0  0  0  0  0  0  0  0  0
   10.3559  -13.4901   18.9686 N   0  0  0  0  0  0  0  0  0  0  0  0
    9.7420  -16.3621   22.1042 C   0  0  1  0  0  0  0  0  0  0  0  0
   11.1544  -16.5280   22.4146 C   0  0  0  0  0  0  0  0  0  0  0  0
   11.2223  -17.8627   23.1822 C   0  0  0  0  0  0  0  0  0  0  0  0
   11.0698  -17.6292   24.6199 C   0  0  0  0  0  0  0  0  0  0  0  0
   10.9516  -16.3493   25.1606 N   0  0  0  0  0  0  0  0  0  0  0  0
   10.8386  -16.5433   26.4926 C   0  0  0  0  0  0  0  0  0  0  0  0
   10.8843  -17.8683   26.7572 N   0  0  0  0  0  0  0  0  0  0  0  0
   11.0285  -18.5438   25.5946 C   0  0  0  0  0  0  0  0  0  0  0  0
   11.9844  -16.5407   21.2027 O   0  0  0  0  0  0  0  0  0  0  0  0
   11.4893  -16.5972   20.0272 O   0  0  0  0  0  0  0  0  0  0  0  0
  2  3  1  0
  2  1  1  0
  3  4  1  6
  5  7  1  0
  5  3  1  0
  5  6  1  1
  7  8  2  0
 10 12  1  0
 10  9  1  0
 11 10  2  0
 13 14  1  0
 13 12  1  0
 14 15  1  0
 16 15  1  6
 17 16  1  0
 17  7  1  0
 18 16  1  0
 19 18  2  0
 20 18  1  0
 21 20  1  0
 21 22  1  6
 22 23  1  0
 23 27  1  0
 23 24  2  0
 24 25  1  0
 26 25  1  0
 27 26  2  0
 28 21  1  0
 29 28  2  0
 30 28  1  0
M  END
$$$$
