IRH.pdb
     RDKit          3D

 30 30  0  0  1  0  0  0  0  0999 V2000
    6.5410  -11.2767   27.7959 C   0  0  0  0  0  0  0  0  0  0  0  0
    5.9460  -12.3104   26.8505 C   0  0  0  0  0  0  0  0  0  0  0  0
    7.0151  -13.1016   26.1484 C   0  0  2  0  0  0  0  0  0  0  0  0
    8.0301  -12.2248   25.5114 C   0  0  0  0  0  0  0  0  0  0  0  0
    6.3427  -14.0872   25.2169 C   0  0  2  0  0  0  0  0  0  0  0  0
    5.4464  -14.8953   26.0455 N   0  0  0  0  0  0  0  0  0  0  0  0
    7.3070  -14.9542   24.5286 C   0  0  0  0  0  0  0  0  0  0  0  0
    7.7062  -16.0614   24.9965 O   0  0  0  0  0  0  0  0  0  0  0  0
    9.3543  -15.0061   18.0251 N   0  0  0  0  0  0  0  0  0  0  0  0
    8.2961  -14.1858   17.4945 C   0  0  0  0  0  0  0  0  0  0  0  0
    7.9598  -14.2842   16.2581 N   0  0  0  0  0  0  0  0  0  0  0  0
    7.6022  -13.2582   18.3140 N   0  0  0  0  0  0  0  0  0  0  0  0
    7.8537  -13.1284   19.7373 C   0  0  0  0  0  0  0  0  0  0  0  0
    7.7966  -14.5050   20.3902 C   0  0  0  0  0  0  0  0  0  0  0  0
    9.0355  -14.7693   21.1841 C   0  0  0  0  0  0  0  0  0  0  0  0
    8.7672  -15.4165   22.5462 C   0  0  2  0  0  0  0  0  0  0  0  0
    7.8282  -14.5493   23.2711 N   0  0  0  0  0  0  0  0  0  0  0  0
    9.9644  -15.6990   23.3224 C   0  0  0  0  0  0  0  0  0  0  0  0
   10.6333  -14.7797   23.9197 O   0  0  0  0  0  0  0  0  0  0  0  0
    7.1774  -13.7944   15.8173 N   0  0  0  0  0  0  0  0  0  0  0  0
   10.4796  -17.0126   23.4823 C   0  0  2  0  0  0  0  0  0  0  0  0
   11.7551  -17.2302   24.1491 C   0  0  0  0  0  0  0  0  0  0  0  0
   11.6705  -18.6776   24.6716 C   0  0  0  0  0  0  0  0  0  0  0  0
   10.8014  -18.7420   25.8485 C   0  0  0  0  0  0  0  0  0  0  0  0
   10.3440  -17.5987   26.5029 N   0  0  0  0  0  0  0  0  0  0  0  0
    9.5899  -18.0606   27.5242 C   0  0  0  0  0  0  0  0  0  0  0  0
    9.5833  -19.4122   27.4997 N   0  0  0  0  0  0  0  0  0  0  0  0
   10.3359  -19.8367   26.4595 C   0  0  0  0  0  0  0  0  0  0  0  0
   12.8907  -17.0333   23.2384 O   0  0  0  0  0  0  0  0  0  0  0  0
   12.7443  -16.8198   21.9881 O   0  0  0  0  0  0  0  0  0  0  0  0
  2  3  1  0
  2  1  1  0
  3  4  1  6
  5  7  1  0
  5  3  1  0
  5  6  1  1
  7  8  2  0
 10 12  1  0
 10  9  1  0
 11 10  2  0
 13 14  1  0
 13 12  1  0
 14 15  1  0
 16 15  1  6
 17 16  1  0
 17  7  1  0
 18 16  1  0
 19 18  2  0
 20 18  1  0
 21 20  1  0
 21 22  1  1
 22 23  1  0
 23 27  1  0
 23 24  2  0
 24 25  1  0
 26 25  1  0
 27 26  2  0
 28 21  1  0
 29 28  2  0
 30 28  1  0
M  END
$$$$
