IRH.pdb
     RDKit          3D

 30 30  0  0  1  0  0  0  0  0999 V2000
    6.2923  -11.1480   27.8909 C   0  0  0  0  0  0  0  0  0  0  0  0
    5.7260  -12.2382   26.9926 C   0  0  0  0  0  0  0  0  0  0  0  0
    6.8138  -12.9788   26.2645 C   0  0  2  0  0  0  0  0  0  0  0  0
    7.9243  -12.0807   25.8581 C   0  0  0  0  0  0  0  0  0  0  0  0
    6.1805  -13.7670   25.1380 C   0  0  2  0  0  0  0  0  0  0  0  0
    5.4476  -14.8688   25.7640 N   0  0  0  0  0  0  0  0  0  0  0  0
    7.1753  -14.2969   24.1974 C   0  0  0  0  0  0  0  0  0  0  0  0
    8.0324  -13.5735   23.6088 O   0  0  0  0  0  0  0  0  0  0  0  0
    9.0484  -15.5019   16.4988 N   0  0  0  0  0  0  0  0  0  0  0  0
    8.7861  -14.3347   17.3007 C   0  0  0  0  0  0  0  0  0  0  0  0
    9.2822  -13.1968   16.9681 N   0  0  0  0  0  0  0  0  0  0  0  0
    7.9799  -14.4081   18.4662 N   0  0  0  0  0  0  0  0  0  0  0  0
    7.7318  -15.6524   19.1705 C   0  0  0  0  0  0  0  0  0  0  0  0
    8.4106  -15.6072   20.5349 C   0  0  0  0  0  0  0  0  0  0  0  0
    7.5374  -16.2168   21.5842 C   0  0  0  0  0  0  0  0  0  0  0  0
    8.1751  -16.2427   22.9767 C   0  0  2  0  0  0  0  0  0  0  0  0
    7.1956  -15.6901   23.9224 N   0  0  0  0  0  0  0  0  0  0  0  0
    9.4604  -15.5671   23.0604 C   0  0  0  0  0  0  0  0  0  0  0  0
    9.5888  -14.3018   22.8821 O   0  0  0  0  0  0  0  0  0  0  0  0
    9.2044  -12.3354   17.5142 N   0  0  0  0  0  0  0  0  0  0  0  0
   10.6682  -16.2551   23.3511 C   0  0  1  0  0  0  0  0  0  0  0  0
   11.3088  -16.1075   24.6498 C   0  0  0  0  0  0  0  0  0  0  0  0
   10.2067  -16.4741   25.6629 C   0  0  0  0  0  0  0  0  0  0  0  0
   10.7142  -16.3511   27.0310 C   0  0  0  0  0  0  0  0  0  0  0  0
   11.6384  -15.3743   27.4001 N   0  0  0  0  0  0  0  0  0  0  0  0
   11.8612  -15.5854   28.7156 C   0  0  0  0  0  0  0  0  0  0  0  0
   11.1158  -16.6331   29.1331 N   0  0  0  0  0  0  0  0  0  0  0  0
   10.4032  -17.1099   28.0874 C   0  0  0  0  0  0  0  0  0  0  0  0
   12.4917  -16.9689   24.7790 O   0  0  0  0  0  0  0  0  0  0  0  0
   12.4786  -18.2097   24.4782 O   0  0  0  0  0  0  0  0  0  0  0  0
  2  3  1  0
  2  1  1  0
  3  4  1  6
  5  7  1  0
  5  3  1  0
  5  6  1  1
  7  8  2  0
 10 12  1  0
 10  9  1  0
 11 10  2  0
 13 14  1  0
 13 12  1  0
 14 15  1  0
 16 15  1  6
 17 16  1  0
 17  7  1  0
 18 16  1  0
 19 18  2  0
 20 18  1  0
 21 20  1  0
 21 22  1  1
 22 23  1  0
 23 27  1  0
 23 24  2  0
 24 25  1  0
 26 25  1  0
 27 26  2  0
 28 21  1  0
 29 28  2  0
 30 28  1  0
M  END
$$$$
