IRH.pdb
     RDKit          3D

 30 30  0  0  1  0  0  0  0  0999 V2000
    7.2654  -11.4537   19.1525 C   0  0  0  0  0  0  0  0  0  0  0  0
    7.4852  -12.9334   18.8723 C   0  0  0  0  0  0  0  0  0  0  0  0
    7.8864  -13.6805   20.1144 C   0  0  2  0  0  0  0  0  0  0  0  0
    9.0542  -13.0572   20.7872 C   0  0  0  0  0  0  0  0  0  0  0  0
    8.0561  -15.1414   19.7565 C   0  0  2  0  0  0  0  0  0  0  0  0
    6.7717  -15.5869   19.2133 N   0  0  0  0  0  0  0  0  0  0  0  0
    8.4218  -15.9632   20.9168 C   0  0  0  0  0  0  0  0  0  0  0  0
    7.5801  -16.3893   21.7619 O   0  0  0  0  0  0  0  0  0  0  0  0
   14.8226  -19.6591   24.7793 N   0  0  0  0  0  0  0  0  0  0  0  0
   14.2050  -20.8901   24.3581 C   0  0  0  0  0  0  0  0  0  0  0  0
   14.6160  -22.0135   24.8280 N   0  0  0  0  0  0  0  0  0  0  0  0
   13.1364  -20.8961   23.4246 N   0  0  0  0  0  0  0  0  0  0  0  0
   12.9263  -19.8263   22.4668 C   0  0  0  0  0  0  0  0  0  0  0  0
   11.8201  -18.9054   22.9692 C   0  0  0  0  0  0  0  0  0  0  0  0
   11.3185  -18.0264   21.8688 C   0  0  0  0  0  0  0  0  0  0  0  0
   10.1810  -17.0938   22.2961 C   0  0  2  0  0  0  0  0  0  0  0  0
    9.7840  -16.3111   21.1176 N   0  0  0  0  0  0  0  0  0  0  0  0
   10.4955  -16.2475   23.4365 C   0  0  0  0  0  0  0  0  0  0  0  0
   11.0938  -15.1177   23.3142 O   0  0  0  0  0  0  0  0  0  0  0  0
   14.2652  -22.9338   24.5519 N   0  0  0  0  0  0  0  0  0  0  0  0
   10.1595  -16.6046   24.7693 C   0  0  2  0  0  0  0  0  0  0  0  0
    9.6079  -15.6149   25.6830 C   0  0  0  0  0  0  0  0  0  0  0  0
    8.3114  -15.1426   24.9967 C   0  0  0  0  0  0  0  0  0  0  0  0
    7.6990  -14.0553   25.7630 C   0  0  0  0  0  0  0  0  0  0  0  0
    8.3142  -13.4889   26.8789 N   0  0  0  0  0  0  0  0  0  0  0  0
    7.4525  -12.5411   27.3078 C   0  0  0  0  0  0  0  0  0  0  0  0
    6.3678  -12.5247   26.5011 N   0  0  0  0  0  0  0  0  0  0  0  0
    6.5195  -13.4652   25.5415 C   0  0  0  0  0  0  0  0  0  0  0  0
    9.3578  -16.1786   27.0163 O   0  0  0  0  0  0  0  0  0  0  0  0
    9.2554  -15.4556   28.0636 O   0  0  0  0  0  0  0  0  0  0  0  0
  2  3  1  0
  2  1  1  0
  3  4  1  6
  5  7  1  0
  5  3  1  0
  5  6  1  1
  7  8  2  0
 10 12  1  0
 10  9  1  0
 11 10  2  0
 13 14  1  0
 13 12  1  0
 14 15  1  0
 16 15  1  6
 17 16  1  0
 17  7  1  0
 18 16  1  0
 19 18  2  0
 20 18  1  0
 21 20  1  0
 21 22  1  6
 22 23  1  0
 23 27  1  0
 23 24  2  0
 24 25  1  0
 26 25  1  0
 27 26  2  0
 28 21  1  0
 29 28  2  0
 30 28  1  0
M  END
$$$$
