IRH.pdb
     RDKit          3D

 30 30  0  0  1  0  0  0  0  0999 V2000
    6.8086  -12.1788   19.6423 C   0  0  0  0  0  0  0  0  0  0  0  0
    7.6825  -12.8282   18.5789 C   0  0  0  0  0  0  0  0  0  0  0  0
    8.6047  -13.8583   19.1707 C   0  0  2  0  0  0  0  0  0  0  0  0
    9.4251  -13.3026   20.2766 C   0  0  0  0  0  0  0  0  0  0  0  0
    9.3913  -14.4948   18.0450 C   0  0  2  0  0  0  0  0  0  0  0  0
    8.4077  -15.0656   17.1231 N   0  0  0  0  0  0  0  0  0  0  0  0
   10.3005  -15.5446   18.5211 C   0  0  0  0  0  0  0  0  0  0  0  0
    9.9450  -16.7478   18.6950 O   0  0  0  0  0  0  0  0  0  0  0  0
   16.0570  -18.7298   16.2159 N   0  0  0  0  0  0  0  0  0  0  0  0
   16.9630  -18.9358   17.3163 C   0  0  0  0  0  0  0  0  0  0  0  0
   17.7044  -19.9847   17.3558 N   0  0  0  0  0  0  0  0  0  0  0  0
   17.0621  -17.9955   18.3744 N   0  0  0  0  0  0  0  0  0  0  0  0
   16.2864  -16.7695   18.4087 C   0  0  0  0  0  0  0  0  0  0  0  0
   14.9559  -17.0303   19.1057 C   0  0  0  0  0  0  0  0  0  0  0  0
   13.9313  -16.0237   18.6906 C   0  0  0  0  0  0  0  0  0  0  0  0
   12.5634  -16.2309   19.3480 C   0  0  2  0  0  0  0  0  0  0  0  0
   11.6524  -15.2144   18.8041 N   0  0  0  0  0  0  0  0  0  0  0  0
   12.5893  -16.2228   20.8022 C   0  0  0  0  0  0  0  0  0  0  0  0
   12.9918  -15.2093   21.4804 O   0  0  0  0  0  0  0  0  0  0  0  0
   18.4279  -20.1716   18.0544 N   0  0  0  0  0  0  0  0  0  0  0  0
   12.1663  -17.3327   21.5806 C   0  0  2  0  0  0  0  0  0  0  0  0
   12.2575  -17.2948   23.0328 C   0  0  0  0  0  0  0  0  0  0  0  0
   11.0514  -18.1255   23.5128 C   0  0  0  0  0  0  0  0  0  0  0  0
    9.8040  -17.4013   23.2599 C   0  0  0  0  0  0  0  0  0  0  0  0
    9.7833  -16.0648   22.8627 N   0  0  0  0  0  0  0  0  0  0  0  0
    8.4734  -15.7586   22.7396 C   0  0  0  0  0  0  0  0  0  0  0  0
    7.7293  -16.8456   23.0436 N   0  0  0  0  0  0  0  0  0  0  0  0
    8.5548  -17.8666   23.3674 C   0  0  0  0  0  0  0  0  0  0  0  0
   13.5341  -17.8372   23.5165 O   0  0  0  0  0  0  0  0  0  0  0  0
   14.4155  -18.3298   22.7350 O   0  0  0  0  0  0  0  0  0  0  0  0
  2  3  1  0
  2  1  1  0
  3  4  1  1
  5  7  1  0
  5  3  1  0
  5  6  1  6
  7  8  2  0
 10 12  1  0
 10  9  1  0
 11 10  2  0
 13 14  1  0
 13 12  1  0
 14 15  1  0
 16 15  1  6
 17 16  1  0
 17  7  1  0
 18 16  1  0
 19 18  2  0
 20 18  1  0
 21 20  1  0
 21 22  1  6
 22 23  1  0
 23 27  1  0
 23 24  2  0
 24 25  1  0
 26 25  1  0
 27 26  2  0
 28 21  1  0
 29 28  2  0
 30 28  1  0
M  END
$$$$
