FFG.pdb
     RDKit          3D

 27 28  0  0  1  0  0  0  0  0999 V2000
   10.4214  -16.8682   21.4541 N   0  0  0  0  0  0  0  0  0  0  0  0
    9.6072  -15.9690   22.2376 C   0  0  1  0  0  0  0  0  0  0  0  0
    8.1981  -16.0007   21.7437 C   0  0  0  0  0  0  0  0  0  0  0  0
    7.9186  -14.7033   21.0585 C   0  0  0  0  0  0  0  0  0  0  0  0
    7.6488  -13.5713   21.7978 C   0  0  0  0  0  0  0  0  0  0  0  0
    7.3876  -12.3616   21.1959 C   0  0  0  0  0  0  0  0  0  0  0  0
    7.3893  -12.2506   19.8259 C   0  0  0  0  0  0  0  0  0  0  0  0
    7.6618  -13.3963   19.1072 C   0  0  0  0  0  0  0  0  0  0  0  0
    7.9265  -14.6196   19.6841 C   0  0  0  0  0  0  0  0  0  0  0  0
    9.6314  -16.3196   23.6821 C   0  0  0  0  0  0  0  0  0  0  0  0
   10.7074  -16.7243   24.2142 O   0  0  0  0  0  0  0  0  0  0  0  0
    8.5084  -16.2300   24.5231 N   0  0  0  0  0  0  0  0  0  0  0  0
    8.6381  -16.2906   25.9776 C   0  0  1  0  0  0  0  0  0  0  0  0
    7.3386  -15.6775   26.4861 C   0  0  0  0  0  0  0  0  0  0  0  0
    7.2477  -14.2322   26.3832 C   0  0  0  0  0  0  0  0  0  0  0  0
    8.2608  -13.4203   26.9024 C   0  0  0  0  0  0  0  0  0  0  0  0
    8.2103  -12.0583   26.8248 C   0  0  0  0  0  0  0  0  0  0  0  0
    7.1301  -11.4701   26.2175 C   0  0  0  0  0  0  0  0  0  0  0  0
    6.1145  -12.2509   25.6957 C   0  0  0  0  0  0  0  0  0  0  0  0
    6.1600  -13.6208   25.7710 C   0  0  0  0  0  0  0  0  0  0  0  0
    8.7674  -17.6438   26.4803 C   0  0  0  0  0  0  0  0  0  0  0  0
    8.7509  -17.8705   27.7090 O   0  0  0  0  0  0  0  0  0  0  0  0
    8.9105  -18.7279   25.5870 N   0  0  0  0  0  0  0  0  0  0  0  0
    9.0621  -20.0598   26.1007 C   0  0  0  0  0  0  0  0  0  0  0  0
   10.4947  -20.3308   26.3393 C   0  0  0  0  0  0  0  0  0  0  0  0
   11.3347  -19.3900   26.4025 O   0  0  0  0  0  0  0  0  0  0  0  0
   10.9175  -21.6374   26.4947 O   0  0  0  0  0  0  0  0  0  0  0  0
  2  1  1  6
  3  2  1  0
  4  3  1  0
  5  4  2  0
  6  5  1  0
  7  6  2  0
  7  8  1  0
  8  9  2  0
  9  4  1  0
 10 11  2  0
 10  2  1  0
 12 10  1  0
 13 12  1  0
 13 14  1  1
 15 14  1  0
 15 16  2  0
 17 16  1  0
 18 17  2  0
 19 20  2  0
 19 18  1  0
 20 15  1  0
 21 13  1  0
 22 21  2  0
 23 21  1  0
 24 23  1  0
 25 24  1  0
 25 27  1  0
 26 25  2  0
M  END
$$$$
