FFG.pdb
     RDKit          3D

 27 28  0  0  1  0  0  0  0  0999 V2000
    9.1879  -16.1875   19.1333 N   0  0  0  0  0  0  0  0  0  0  0  0
    8.7475  -16.7731   20.3776 C   0  0  1  0  0  0  0  0  0  0  0  0
    9.4485  -18.0725   20.6023 C   0  0  0  0  0  0  0  0  0  0  0  0
    8.4671  -19.1741   20.3701 C   0  0  0  0  0  0  0  0  0  0  0  0
    8.2309  -20.1125   21.3522 C   0  0  0  0  0  0  0  0  0  0  0  0
    7.3328  -21.1389   21.1684 C   0  0  0  0  0  0  0  0  0  0  0  0
    6.6404  -21.2553   19.9868 C   0  0  0  0  0  0  0  0  0  0  0  0
    6.8931  -20.3051   19.0190 C   0  0  0  0  0  0  0  0  0  0  0  0
    7.7866  -19.2677   19.1767 C   0  0  0  0  0  0  0  0  0  0  0  0
    8.9997  -15.8707   21.5319 C   0  0  0  0  0  0  0  0  0  0  0  0
   10.0406  -15.1491   21.5516 O   0  0  0  0  0  0  0  0  0  0  0  0
    8.1363  -15.7602   22.6358 N   0  0  0  0  0  0  0  0  0  0  0  0
    8.4060  -14.8225   23.7240 C   0  0  1  0  0  0  0  0  0  0  0  0
    7.0373  -14.5889   24.3525 C   0  0  0  0  0  0  0  0  0  0  0  0
    6.9714  -13.5108   25.3227 C   0  0  0  0  0  0  0  0  0  0  0  0
    5.7494  -12.9001   25.6207 C   0  0  0  0  0  0  0  0  0  0  0  0
    5.6481  -11.8838   26.5265 C   0  0  0  0  0  0  0  0  0  0  0  0
    6.7829  -11.4499   27.1633 C   0  0  0  0  0  0  0  0  0  0  0  0
    8.0042  -12.0374   26.8863 C   0  0  0  0  0  0  0  0  0  0  0  0
    8.1120  -13.0595   25.9764 C   0  0  0  0  0  0  0  0  0  0  0  0
    9.3147  -15.3543   24.7199 C   0  0  0  0  0  0  0  0  0  0  0  0
    9.6542  -14.6643   25.7048 O   0  0  0  0  0  0  0  0  0  0  0  0
    9.8274  -16.6639   24.5933 N   0  0  0  0  0  0  0  0  0  0  0  0
   10.6114  -17.2283   25.6553 C   0  0  0  0  0  0  0  0  0  0  0  0
   12.0442  -17.1343   25.3075 C   0  0  0  0  0  0  0  0  0  0  0  0
   12.4261  -16.5064   24.2807 O   0  0  0  0  0  0  0  0  0  0  0  0
   12.9779  -17.7459   26.1224 O   0  0  0  0  0  0  0  0  0  0  0  0
  2  1  1  6
  3  2  1  0
  4  3  1  0
  5  4  2  0
  6  5  1  0
  7  6  2  0
  7  8  1  0
  8  9  2  0
  9  4  1  0
 10 11  2  0
 10  2  1  0
 12 10  1  0
 13 12  1  0
 13 14  1  1
 15 14  1  0
 15 16  2  0
 17 16  1  0
 18 17  2  0
 19 20  2  0
 19 18  1  0
 20 15  1  0
 21 13  1  0
 22 21  2  0
 23 21  1  0
 24 23  1  0
 25 24  1  0
 25 27  1  0
 26 25  2  0
M  END
$$$$
