FFG.pdb
     RDKit          3D

 27 28  0  0  1  0  0  0  0  0999 V2000
   11.3311  -17.3985   21.0369 N   0  0  0  0  0  0  0  0  0  0  0  0
   10.3745  -16.3213   21.1346 C   0  0  1  0  0  0  0  0  0  0  0  0
    9.2586  -16.5452   20.1676 C   0  0  0  0  0  0  0  0  0  0  0  0
    8.4105  -15.3159   20.1469 C   0  0  0  0  0  0  0  0  0  0  0  0
    7.0877  -15.3781   20.5305 C   0  0  0  0  0  0  0  0  0  0  0  0
    6.2809  -14.2632   20.5224 C   0  0  0  0  0  0  0  0  0  0  0  0
    6.7801  -13.0452   20.1269 C   0  0  0  0  0  0  0  0  0  0  0  0
    8.1060  -13.0073   19.7476 C   0  0  0  0  0  0  0  0  0  0  0  0
    8.9357  -14.1078   19.7462 C   0  0  0  0  0  0  0  0  0  0  0  0
    9.8195  -16.1991   22.5084 C   0  0  0  0  0  0  0  0  0  0  0  0
    9.9911  -17.1366   23.3428 O   0  0  0  0  0  0  0  0  0  0  0  0
    9.0956  -15.0810   22.9582 N   0  0  0  0  0  0  0  0  0  0  0  0
    8.6869  -14.9487   24.3551 C   0  0  1  0  0  0  0  0  0  0  0  0
    8.0154  -13.5816   24.4114 C   0  0  0  0  0  0  0  0  0  0  0  0
    7.5106  -13.1869   25.7142 C   0  0  0  0  0  0  0  0  0  0  0  0
    6.1511  -12.9137   25.8937 C   0  0  0  0  0  0  0  0  0  0  0  0
    5.6398  -12.5398   27.1030 C   0  0  0  0  0  0  0  0  0  0  0  0
    6.4890  -12.4296   28.1746 C   0  0  0  0  0  0  0  0  0  0  0  0
    7.8382  -12.6945   28.0235 C   0  0  0  0  0  0  0  0  0  0  0  0
    8.3578  -13.0707   26.8099 C   0  0  0  0  0  0  0  0  0  0  0  0
    7.7467  -15.9703   24.7709 C   0  0  0  0  0  0  0  0  0  0  0  0
    7.3991  -16.0664   25.9673 O   0  0  0  0  0  0  0  0  0  0  0  0
    7.2059  -16.8711   23.8274 N   0  0  0  0  0  0  0  0  0  0  0  0
    6.2057  -17.8163   24.2362 C   0  0  0  0  0  0  0  0  0  0  0  0
    6.8603  -19.0833   24.6224 C   0  0  0  0  0  0  0  0  0  0  0  0
    8.1186  -19.1893   24.6368 O   0  0  0  0  0  0  0  0  0  0  0  0
    6.0782  -20.1676   24.9723 O   0  0  0  0  0  0  0  0  0  0  0  0
  2  1  1  1
  3  2  1  0
  4  3  1  0
  5  4  2  0
  6  5  1  0
  7  6  2  0
  7  8  1  0
  8  9  2  0
  9  4  1  0
 10 11  2  0
 10  2  1  0
 12 10  1  0
 13 12  1  0
 13 14  1  6
 15 14  1  0
 15 16  2  0
 17 16  1  0
 18 17  2  0
 19 20  2  0
 19 18  1  0
 20 15  1  0
 21 13  1  0
 22 21  2  0
 23 21  1  0
 24 23  1  0
 25 24  1  0
 25 27  1  0
 26 25  2  0
M  END
$$$$
