FFG.pdb
     RDKit          3D

 27 28  0  0  1  0  0  0  0  0999 V2000
    6.7893  -16.3790   22.2190 N   0  0  0  0  0  0  0  0  0  0  0  0
    8.2049  -16.6587   22.1654 C   0  0  1  0  0  0  0  0  0  0  0  0
    8.7650  -16.1909   20.8624 C   0  0  0  0  0  0  0  0  0  0  0  0
    8.2804  -14.7985   20.6234 C   0  0  0  0  0  0  0  0  0  0  0  0
    6.9377  -14.5029   20.7267 C   0  0  0  0  0  0  0  0  0  0  0  0
    6.4605  -13.2300   20.5128 C   0  0  0  0  0  0  0  0  0  0  0  0
    7.3212  -12.2092   20.1867 C   0  0  0  0  0  0  0  0  0  0  0  0
    8.6598  -12.5286   20.0890 C   0  0  0  0  0  0  0  0  0  0  0  0
    9.1643  -13.7940   20.2980 C   0  0  0  0  0  0  0  0  0  0  0  0
    8.9391  -16.0052   23.2808 C   0  0  0  0  0  0  0  0  0  0  0  0
    9.7639  -15.0762   23.0332 O   0  0  0  0  0  0  0  0  0  0  0  0
    8.7758  -16.3583   24.6318 N   0  0  0  0  0  0  0  0  0  0  0  0
    9.6306  -15.7961   25.6756 C   0  0  1  0  0  0  0  0  0  0  0  0
    8.6459  -15.3211   26.7376 C   0  0  0  0  0  0  0  0  0  0  0  0
    7.9071  -14.1152   26.4094 C   0  0  0  0  0  0  0  0  0  0  0  0
    6.5944  -14.1963   25.9345 C   0  0  0  0  0  0  0  0  0  0  0  0
    5.8685  -13.0850   25.6154 C   0  0  0  0  0  0  0  0  0  0  0  0
    6.4478  -11.8507   25.7664 C   0  0  0  0  0  0  0  0  0  0  0  0
    7.7450  -11.7433   26.2344 C   0  0  0  0  0  0  0  0  0  0  0  0
    8.4796  -12.8572   26.5567 C   0  0  0  0  0  0  0  0  0  0  0  0
   10.5370  -16.7689   26.2524 C   0  0  0  0  0  0  0  0  0  0  0  0
   11.2196  -16.4839   27.2594 O   0  0  0  0  0  0  0  0  0  0  0  0
   10.6590  -18.0566   25.6858 N   0  0  0  0  0  0  0  0  0  0  0  0
   11.5093  -19.0316   26.3082 C   0  0  0  0  0  0  0  0  0  0  0  0
   12.7274  -19.2094   25.4913 C   0  0  0  0  0  0  0  0  0  0  0  0
   13.5755  -20.1022   25.7708 O   0  0  0  0  0  0  0  0  0  0  0  0
   12.9378  -18.3819   24.4045 O   0  0  0  0  0  0  0  0  0  0  0  0
  2  1  1  6
  3  2  1  0
  4  3  1  0
  5  4  2  0
  6  5  1  0
  7  6  2  0
  7  8  1  0
  8  9  2  0
  9  4  1  0
 10 11  2  0
 10  2  1  0
 12 10  1  0
 13 12  1  0
 13 14  1  1
 15 14  1  0
 15 16  2  0
 17 16  1  0
 18 17  2  0
 19 20  2  0
 19 18  1  0
 20 15  1  0
 21 13  1  0
 22 21  2  0
 23 21  1  0
 24 23  1  0
 25 24  1  0
 25 27  1  0
 26 25  2  0
M  END
$$$$
