FFG.pdb
     RDKit          3D

 27 28  0  0  1  0  0  0  0  0999 V2000
    8.0552  -17.1844   22.0138 N   0  0  0  0  0  0  0  0  0  0  0  0
    9.4175  -16.7065   21.9864 C   0  0  1  0  0  0  0  0  0  0  0  0
    9.5995  -15.7591   20.8463 C   0  0  0  0  0  0  0  0  0  0  0  0
    8.5618  -14.6911   20.9618 C   0  0  0  0  0  0  0  0  0  0  0  0
    8.9342  -13.3808   21.1746 C   0  0  0  0  0  0  0  0  0  0  0  0
    8.0019  -12.3746   21.2853 C   0  0  0  0  0  0  0  0  0  0  0  0
    6.6600  -12.6544   21.1850 C   0  0  0  0  0  0  0  0  0  0  0  0
    6.3113  -13.9721   20.9721 C   0  0  0  0  0  0  0  0  0  0  0  0
    7.2237  -14.9987   20.8576 C   0  0  0  0  0  0  0  0  0  0  0  0
    9.7899  -16.0279   23.2557 C   0  0  0  0  0  0  0  0  0  0  0  0
   10.7988  -15.2626   23.2884 O   0  0  0  0  0  0  0  0  0  0  0  0
    9.0778  -16.1821   24.4580 N   0  0  0  0  0  0  0  0  0  0  0  0
    9.6196  -15.7111   25.7310 C   0  0  1  0  0  0  0  0  0  0  0  0
    8.3813  -15.4397   26.5771 C   0  0  0  0  0  0  0  0  0  0  0  0
    7.7127  -14.1771   26.3186 C   0  0  0  0  0  0  0  0  0  0  0  0
    8.1875  -12.9940   26.8929 C   0  0  0  0  0  0  0  0  0  0  0  0
    7.5854  -11.7885   26.6733 C   0  0  0  0  0  0  0  0  0  0  0  0
    6.4797  -11.7393   25.8629 C   0  0  0  0  0  0  0  0  0  0  0  0
    5.9902  -12.8956   25.2827 C   0  0  0  0  0  0  0  0  0  0  0  0
    6.5914  -14.1104   25.5000 C   0  0  0  0  0  0  0  0  0  0  0  0
   10.4545  -16.6946   26.3915 C   0  0  0  0  0  0  0  0  0  0  0  0
   11.0633  -16.4085   27.4445 O   0  0  0  0  0  0  0  0  0  0  0  0
   10.5892  -17.9940   25.8555 N   0  0  0  0  0  0  0  0  0  0  0  0
   11.4190  -18.9576   26.5218 C   0  0  0  0  0  0  0  0  0  0  0  0
   10.6839  -19.5222   27.6722 C   0  0  0  0  0  0  0  0  0  0  0  0
    9.5373  -20.0312   27.5273 O   0  0  0  0  0  0  0  0  0  0  0  0
   11.2648  -19.4899   28.9259 O   0  0  0  0  0  0  0  0  0  0  0  0
  2  1  1  1
  3  2  1  0
  4  3  1  0
  5  4  2  0
  6  5  1  0
  7  6  2  0
  7  8  1  0
  8  9  2  0
  9  4  1  0
 10 11  2  0
 10  2  1  0
 12 10  1  0
 13 12  1  0
 13 14  1  1
 15 14  1  0
 15 16  2  0
 17 16  1  0
 18 17  2  0
 19 20  2  0
 19 18  1  0
 20 15  1  0
 21 13  1  0
 22 21  2  0
 23 21  1  0
 24 23  1  0
 25 24  1  0
 25 27  1  0
 26 25  2  0
M  END
$$$$
