FFG.pdb
     RDKit          3D

 27 28  0  0  1  0  0  0  0  0999 V2000
    8.2880  -16.0681   21.4125 N   0  0  0  0  0  0  0  0  0  0  0  0
    9.4239  -15.3305   21.9131 C   0  0  1  0  0  0  0  0  0  0  0  0
    9.2611  -13.8783   21.6048 C   0  0  0  0  0  0  0  0  0  0  0  0
    8.6016  -13.7596   20.2700 C   0  0  0  0  0  0  0  0  0  0  0  0
    7.2485  -13.5099   20.1834 C   0  0  0  0  0  0  0  0  0  0  0  0
    6.6122  -13.3950   18.9685 C   0  0  0  0  0  0  0  0  0  0  0  0
    7.3187  -13.5280   17.7970 C   0  0  0  0  0  0  0  0  0  0  0  0
    8.6710  -13.7774   17.9084 C   0  0  0  0  0  0  0  0  0  0  0  0
    9.3329  -13.8971   19.1113 C   0  0  0  0  0  0  0  0  0  0  0  0
    9.5940  -15.5072   23.3794 C   0  0  0  0  0  0  0  0  0  0  0  0
   10.6438  -15.0831   23.9474 O   0  0  0  0  0  0  0  0  0  0  0  0
    8.6411  -16.1314   24.2033 N   0  0  0  0  0  0  0  0  0  0  0  0
    8.7297  -16.0611   25.6604 C   0  0  1  0  0  0  0  0  0  0  0  0
    7.3572  -15.5529   26.0858 C   0  0  0  0  0  0  0  0  0  0  0  0
    7.2436  -14.1135   26.2373 C   0  0  0  0  0  0  0  0  0  0  0  0
    5.9866  -13.5081   26.3291 C   0  0  0  0  0  0  0  0  0  0  0  0
    5.8401  -12.1583   26.4719 C   0  0  0  0  0  0  0  0  0  0  0  0
    6.9636  -11.3733   26.5267 C   0  0  0  0  0  0  0  0  0  0  0  0
    8.2189  -11.9476   26.4382 C   0  0  0  0  0  0  0  0  0  0  0  0
    8.3722  -13.3041   26.2945 C   0  0  0  0  0  0  0  0  0  0  0  0
    8.9848  -17.3479   26.2766 C   0  0  0  0  0  0  0  0  0  0  0  0
    9.2218  -17.4315   27.5006 O   0  0  0  0  0  0  0  0  0  0  0  0
    8.9654  -18.5282   25.5018 N   0  0  0  0  0  0  0  0  0  0  0  0
   10.2014  -19.1494   25.1178 C   0  0  0  0  0  0  0  0  0  0  0  0
   10.9388  -19.5597   26.3305 C   0  0  0  0  0  0  0  0  0  0  0  0
   11.9701  -18.9368   26.7087 O   0  0  0  0  0  0  0  0  0  0  0  0
   10.4887  -20.6443   27.0593 O   0  0  0  0  0  0  0  0  0  0  0  0
  2  1  1  1
  3  2  1  0
  4  3  1  0
  5  4  2  0
  6  5  1  0
  7  6  2  0
  7  8  1  0
  8  9  2  0
  9  4  1  0
 10 11  2  0
 10  2  1  0
 12 10  1  0
 13 12  1  0
 13 14  1  1
 15 14  1  0
 15 16  2  0
 17 16  1  0
 18 17  2  0
 19 20  2  0
 19 18  1  0
 20 15  1  0
 21 13  1  0
 22 21  2  0
 23 21  1  0
 24 23  1  0
 25 24  1  0
 25 27  1  0
 26 25  2  0
M  END
$$$$
