FFG.pdb
     RDKit          3D

 27 28  0  0  1  0  0  0  0  0999 V2000
   10.7507  -16.5225   21.8819 N   0  0  0  0  0  0  0  0  0  0  0  0
    9.5919  -15.8020   22.3541 C   0  0  1  0  0  0  0  0  0  0  0  0
    8.4715  -15.9481   21.3774 C   0  0  0  0  0  0  0  0  0  0  0  0
    8.0737  -14.5825   20.9217 C   0  0  0  0  0  0  0  0  0  0  0  0
    7.0083  -14.4200   20.0618 C   0  0  0  0  0  0  0  0  0  0  0  0
    6.6175  -13.1752   19.6243 C   0  0  0  0  0  0  0  0  0  0  0  0
    7.2878  -12.0491   20.0389 C   0  0  0  0  0  0  0  0  0  0  0  0
    8.3502  -12.2363   20.8990 C   0  0  0  0  0  0  0  0  0  0  0  0
    8.7626  -13.4707   21.3523 C   0  0  0  0  0  0  0  0  0  0  0  0
    9.1485  -16.2840   23.6888 C   0  0  0  0  0  0  0  0  0  0  0  0
    9.9053  -17.0378   24.3696 O   0  0  0  0  0  0  0  0  0  0  0  0
    7.9098  -15.9506   24.2640 N   0  0  0  0  0  0  0  0  0  0  0  0
    7.5870  -16.3128   25.6427 C   0  0  1  0  0  0  0  0  0  0  0  0
    6.4188  -15.4000   25.9963 C   0  0  0  0  0  0  0  0  0  0  0  0
    6.7660  -14.0153   26.2606 C   0  0  0  0  0  0  0  0  0  0  0  0
    5.8146  -13.0035   26.0988 C   0  0  0  0  0  0  0  0  0  0  0  0
    6.1039  -11.6908   26.3373 C   0  0  0  0  0  0  0  0  0  0  0  0
    7.3690  -11.3566   26.7489 C   0  0  0  0  0  0  0  0  0  0  0  0
    8.3285  -12.3388   26.9167 C   0  0  0  0  0  0  0  0  0  0  0  0
    8.0432  -13.6602   26.6782 C   0  0  0  0  0  0  0  0  0  0  0  0
    7.1838  -17.6975   25.7865 C   0  0  0  0  0  0  0  0  0  0  0  0
    6.7557  -18.1254   26.8796 O   0  0  0  0  0  0  0  0  0  0  0  0
    7.2655  -18.5836   24.6901 N   0  0  0  0  0  0  0  0  0  0  0  0
    6.8362  -19.9452   24.8405 C   0  0  0  0  0  0  0  0  0  0  0  0
    7.9830  -20.7745   25.2647 C   0  0  0  0  0  0  0  0  0  0  0  0
    9.1077  -20.2555   25.5105 O   0  0  0  0  0  0  0  0  0  0  0  0
    7.8171  -22.1406   25.3926 O   0  0  0  0  0  0  0  0  0  0  0  0
  2  1  1  6
  3  2  1  0
  4  3  1  0
  5  4  2  0
  6  5  1  0
  7  6  2  0
  7  8  1  0
  8  9  2  0
  9  4  1  0
 10 11  2  0
 10  2  1  0
 12 10  1  0
 13 12  1  0
 13 14  1  6
 15 14  1  0
 15 16  2  0
 17 16  1  0
 18 17  2  0
 19 20  2  0
 19 18  1  0
 20 15  1  0
 21 13  1  0
 22 21  2  0
 23 21  1  0
 24 23  1  0
 25 24  1  0
 25 27  1  0
 26 25  2  0
M  END
$$$$
