FFG.pdb
     RDKit          3D

 27 28  0  0  1  0  0  0  0  0999 V2000
    6.7666  -14.9490   22.0927 N   0  0  0  0  0  0  0  0  0  0  0  0
    8.0919  -15.5158   22.1797 C   0  0  1  0  0  0  0  0  0  0  0  0
    9.0804  -14.5929   21.5460 C   0  0  0  0  0  0  0  0  0  0  0  0
    8.4843  -14.0760   20.2779 C   0  0  0  0  0  0  0  0  0  0  0  0
    8.4162  -14.8835   19.1625 C   0  0  0  0  0  0  0  0  0  0  0  0
    7.8726  -14.4362   17.9800 C   0  0  0  0  0  0  0  0  0  0  0  0
    7.3781  -13.1577   17.8804 C   0  0  0  0  0  0  0  0  0  0  0  0
    7.4570  -12.3682   19.0090 C   0  0  0  0  0  0  0  0  0  0  0  0
    7.9959  -12.7905   20.2051 C   0  0  0  0  0  0  0  0  0  0  0  0
    8.4905  -15.7736   23.5885 C   0  0  0  0  0  0  0  0  0  0  0  0
    9.6122  -15.3636   24.0108 O   0  0  0  0  0  0  0  0  0  0  0  0
    7.6838  -16.4616   24.5117 N   0  0  0  0  0  0  0  0  0  0  0  0
    8.0807  -16.6084   25.9106 C   0  0  1  0  0  0  0  0  0  0  0  0
    7.0060  -15.8466   26.6772 C   0  0  0  0  0  0  0  0  0  0  0  0
    7.0401  -14.4025   26.5316 C   0  0  0  0  0  0  0  0  0  0  0  0
    8.0945  -13.6609   27.0733 C   0  0  0  0  0  0  0  0  0  0  0  0
    8.1607  -12.3023   26.9569 C   0  0  0  0  0  0  0  0  0  0  0  0
    7.1597  -11.6464   26.2865 C   0  0  0  0  0  0  0  0  0  0  0  0
    6.1056  -12.3569   25.7413 C   0  0  0  0  0  0  0  0  0  0  0  0
    6.0338  -13.7229   25.8553 C   0  0  0  0  0  0  0  0  0  0  0  0
    8.1072  -17.9888   26.3515 C   0  0  0  0  0  0  0  0  0  0  0  0
    7.0452  -18.6313   26.4958 O   0  0  0  0  0  0  0  0  0  0  0  0
    9.3361  -18.6299   26.6211 N   0  0  0  0  0  0  0  0  0  0  0  0
    9.3512  -20.0192   26.9823 C   0  0  0  0  0  0  0  0  0  0  0  0
    9.9459  -20.1676   28.3266 C   0  0  0  0  0  0  0  0  0  0  0  0
    9.3934  -19.6624   29.3436 O   0  0  0  0  0  0  0  0  0  0  0  0
   11.1268  -20.8715   28.4681 O   0  0  0  0  0  0  0  0  0  0  0  0
  2  1  1  1
  3  2  1  0
  4  3  1  0
  5  4  2  0
  6  5  1  0
  7  6  2  0
  7  8  1  0
  8  9  2  0
  9  4  1  0
 10 11  2  0
 10  2  1  0
 12 10  1  0
 13 12  1  0
 13 14  1  1
 15 14  1  0
 15 16  2  0
 17 16  1  0
 18 17  2  0
 19 20  2  0
 19 18  1  0
 20 15  1  0
 21 13  1  0
 22 21  2  0
 23 21  1  0
 24 23  1  0
 25 24  1  0
 25 27  1  0
 26 25  2  0
M  END
$$$$
