FFG.pdb
     RDKit          3D

 27 28  0  0  1  0  0  0  0  0999 V2000
    6.1370  -18.0693   24.9156 N   0  0  0  0  0  0  0  0  0  0  0  0
    6.7212  -16.7502   24.9764 C   0  0  1  0  0  0  0  0  0  0  0  0
    7.0699  -16.4150   26.3894 C   0  0  0  0  0  0  0  0  0  0  0  0
    7.2881  -14.9400   26.4750 C   0  0  0  0  0  0  0  0  0  0  0  0
    8.5253  -14.4396   26.8212 C   0  0  0  0  0  0  0  0  0  0  0  0
    8.7577  -13.0860   26.9082 C   0  0  0  0  0  0  0  0  0  0  0  0
    7.7497  -12.1883   26.6489 C   0  0  0  0  0  0  0  0  0  0  0  0
    6.5207  -12.7120   26.3045 C   0  0  0  0  0  0  0  0  0  0  0  0
    6.2608  -14.0622   26.2100 C   0  0  0  0  0  0  0  0  0  0  0  0
    7.9390  -16.6464   24.1300 C   0  0  0  0  0  0  0  0  0  0  0  0
    8.6083  -17.6872   23.8590 O   0  0  0  0  0  0  0  0  0  0  0  0
    8.4128  -15.4362   23.5939 N   0  0  0  0  0  0  0  0  0  0  0  0
    9.5050  -15.4079   22.6232 C   0  0  1  0  0  0  0  0  0  0  0  0
    9.4352  -14.0033   22.0357 C   0  0  0  0  0  0  0  0  0  0  0  0
    8.3253  -13.7587   21.1323 C   0  0  0  0  0  0  0  0  0  0  0  0
    8.0289  -12.4589   20.7105 C   0  0  0  0  0  0  0  0  0  0  0  0
    6.9936  -12.1899   19.8622 C   0  0  0  0  0  0  0  0  0  0  0  0
    6.2213  -13.2297   19.4107 C   0  0  0  0  0  0  0  0  0  0  0  0
    6.4937  -14.5248   19.8130 C   0  0  0  0  0  0  0  0  0  0  0  0
    7.5332  -14.8012   20.6658 C   0  0  0  0  0  0  0  0  0  0  0  0
   10.8060  -15.6194   23.2259 C   0  0  0  0  0  0  0  0  0  0  0  0
   11.8451  -15.5582   22.5347 O   0  0  0  0  0  0  0  0  0  0  0  0
   10.9184  -15.8945   24.6063 N   0  0  0  0  0  0  0  0  0  0  0  0
   12.2170  -16.0388   25.2010 C   0  0  0  0  0  0  0  0  0  0  0  0
   12.6984  -17.4200   24.9929 C   0  0  0  0  0  0  0  0  0  0  0  0
   13.7779  -17.8196   25.5122 O   0  0  0  0  0  0  0  0  0  0  0  0
   11.9515  -18.2850   24.2158 O   0  0  0  0  0  0  0  0  0  0  0  0
  2  1  1  1
  3  2  1  0
  4  3  1  0
  5  4  2  0
  6  5  1  0
  7  6  2  0
  7  8  1  0
  8  9  2  0
  9  4  1  0
 10 11  2  0
 10  2  1  0
 12 10  1  0
 13 12  1  0
 13 14  1  1
 15 14  1  0
 15 16  2  0
 17 16  1  0
 18 17  2  0
 19 20  2  0
 19 18  1  0
 20 15  1  0
 21 13  1  0
 22 21  2  0
 23 21  1  0
 24 23  1  0
 25 24  1  0
 25 27  1  0
 26 25  2  0
M  END
$$$$
