FFG.pdb
     RDKit          3D

 27 28  0  0  1  0  0  0  0  0999 V2000
    7.8566  -13.0251   21.5326 N   0  0  0  0  0  0  0  0  0  0  0  0
    8.3877  -14.3590   21.6869 C   0  0  1  0  0  0  0  0  0  0  0  0
    9.0681  -14.7825   20.4266 C   0  0  0  0  0  0  0  0  0  0  0  0
    8.0546  -14.7783   19.3295 C   0  0  0  0  0  0  0  0  0  0  0  0
    7.1868  -15.8393   19.1815 C   0  0  0  0  0  0  0  0  0  0  0  0
    6.2422  -15.8647   18.1810 C   0  0  0  0  0  0  0  0  0  0  0  0
    6.1392  -14.8201   17.2937 C   0  0  0  0  0  0  0  0  0  0  0  0
    7.0179  -13.7697   17.4614 C   0  0  0  0  0  0  0  0  0  0  0  0
    7.9728  -13.7187   18.4539 C   0  0  0  0  0  0  0  0  0  0  0  0
    9.3485  -14.4430   22.8182 C   0  0  0  0  0  0  0  0  0  0  0  0
   10.2703  -13.5809   22.9271 O   0  0  0  0  0  0  0  0  0  0  0  0
    9.3028  -15.4434   23.8048 N   0  0  0  0  0  0  0  0  0  0  0  0
   10.1342  -15.3699   25.0046 C   0  0  1  0  0  0  0  0  0  0  0  0
    9.1308  -15.4435   26.1495 C   0  0  0  0  0  0  0  0  0  0  0  0
    9.6557  -15.1131   27.4621 C   0  0  0  0  0  0  0  0  0  0  0  0
    9.9558  -16.1244   28.3799 C   0  0  0  0  0  0  0  0  0  0  0  0
   10.4505  -15.8526   29.6229 C   0  0  0  0  0  0  0  0  0  0  0  0
   10.6588  -14.5448   29.9804 C   0  0  0  0  0  0  0  0  0  0  0  0
   10.3700  -13.5256   29.0908 C   0  0  0  0  0  0  0  0  0  0  0  0
    9.8725  -13.7930   27.8397 C   0  0  0  0  0  0  0  0  0  0  0  0
   11.0757  -16.4666   25.1111 C   0  0  0  0  0  0  0  0  0  0  0  0
   12.0396  -16.4031   25.9037 O   0  0  0  0  0  0  0  0  0  0  0  0
   10.9148  -17.6264   24.3220 N   0  0  0  0  0  0  0  0  0  0  0  0
   10.7196  -18.8992   24.9568 C   0  0  0  0  0  0  0  0  0  0  0  0
   11.9789  -19.3194   25.6052 C   0  0  0  0  0  0  0  0  0  0  0  0
   12.3935  -18.7515   26.6541 O   0  0  0  0  0  0  0  0  0  0  0  0
   12.7119  -20.3513   25.0503 O   0  0  0  0  0  0  0  0  0  0  0  0
  2  1  1  6
  3  2  1  0
  4  3  1  0
  5  4  2  0
  6  5  1  0
  7  6  2  0
  7  8  1  0
  8  9  2  0
  9  4  1  0
 10 11  2  0
 10  2  1  0
 12 10  1  0
 13 12  1  0
 13 14  1  1
 15 14  1  0
 15 16  2  0
 17 16  1  0
 18 17  2  0
 19 20  2  0
 19 18  1  0
 20 15  1  0
 21 13  1  0
 22 21  2  0
 23 21  1  0
 24 23  1  0
 25 24  1  0
 25 27  1  0
 26 25  2  0
M  END
$$$$
