FFG.pdb
     RDKit          3D

 27 28  0  0  1  0  0  0  0  0999 V2000
   10.2973  -16.8732   21.5200 N   0  0  0  0  0  0  0  0  0  0  0  0
    9.4519  -15.9435   22.2314 C   0  0  1  0  0  0  0  0  0  0  0  0
    8.1085  -15.8808   21.5818 C   0  0  0  0  0  0  0  0  0  0  0  0
    7.8992  -14.4880   21.0849 C   0  0  0  0  0  0  0  0  0  0  0  0
    8.8864  -13.5385   21.2425 C   0  0  0  0  0  0  0  0  0  0  0  0
    8.7236  -12.2472   20.7954 C   0  0  0  0  0  0  0  0  0  0  0  0
    7.5585  -11.8675   20.1728 C   0  0  0  0  0  0  0  0  0  0  0  0
    6.5852  -12.8343   20.0264 C   0  0  0  0  0  0  0  0  0  0  0  0
    6.7221  -14.1338   20.4645 C   0  0  0  0  0  0  0  0  0  0  0  0
    9.2917  -16.3248   23.6594 C   0  0  0  0  0  0  0  0  0  0  0  0
   10.3116  -16.6175   24.3515 O   0  0  0  0  0  0  0  0  0  0  0  0
    8.0489  -16.3845   24.3138 N   0  0  0  0  0  0  0  0  0  0  0  0
    7.9566  -16.4503   25.7709 C   0  0  1  0  0  0  0  0  0  0  0  0
    6.6524  -15.7279   26.0874 C   0  0  0  0  0  0  0  0  0  0  0  0
    6.7503  -14.2840   26.2024 C   0  0  0  0  0  0  0  0  0  0  0  0
    7.9579  -13.6833   26.5707 C   0  0  0  0  0  0  0  0  0  0  0  0
    8.0883  -12.3295   26.6893 C   0  0  0  0  0  0  0  0  0  0  0  0
    6.9981  -11.5356   26.4386 C   0  0  0  0  0  0  0  0  0  0  0  0
    5.7919  -12.1052   26.0725 C   0  0  0  0  0  0  0  0  0  0  0  0
    5.6550  -13.4657   25.9517 C   0  0  0  0  0  0  0  0  0  0  0  0
    7.8961  -17.8077   26.2754 C   0  0  0  0  0  0  0  0  0  0  0  0
    7.6686  -18.0278   27.4842 O   0  0  0  0  0  0  0  0  0  0  0  0
    8.0901  -18.9031   25.4058 N   0  0  0  0  0  0  0  0  0  0  0  0
    9.4221  -19.3326   25.0862 C   0  0  0  0  0  0  0  0  0  0  0  0
    9.9231  -20.2115   26.1629 C   0  0  0  0  0  0  0  0  0  0  0  0
    9.2206  -20.4590   27.1827 O   0  0  0  0  0  0  0  0  0  0  0  0
   11.1823  -20.7693   26.0476 O   0  0  0  0  0  0  0  0  0  0  0  0
  2  1  1  6
  3  2  1  0
  4  3  1  0
  5  4  2  0
  6  5  1  0
  7  6  2  0
  7  8  1  0
  8  9  2  0
  9  4  1  0
 10 11  2  0
 10  2  1  0
 12 10  1  0
 13 12  1  0
 13 14  1  6
 15 14  1  0
 15 16  2  0
 17 16  1  0
 18 17  2  0
 19 20  2  0
 19 18  1  0
 20 15  1  0
 21 13  1  0
 22 21  2  0
 23 21  1  0
 24 23  1  0
 25 24  1  0
 25 27  1  0
 26 25  2  0
M  END
$$$$
