FFG.pdb
     RDKit          3D

 27 28  0  0  1  0  0  0  0  0999 V2000
    9.9464  -18.1190   20.2085 N   0  0  0  0  0  0  0  0  0  0  0  0
    9.4790  -16.8926   20.8107 C   0  0  1  0  0  0  0  0  0  0  0  0
    8.1010  -16.5828   20.3255 C   0  0  0  0  0  0  0  0  0  0  0  0
    7.7857  -15.1711   20.6976 C   0  0  0  0  0  0  0  0  0  0  0  0
    6.9070  -14.9034   21.7257 C   0  0  0  0  0  0  0  0  0  0  0  0
    6.5965  -13.6137   22.0921 C   0  0  0  0  0  0  0  0  0  0  0  0
    7.1618  -12.5475   21.4342 C   0  0  0  0  0  0  0  0  0  0  0  0
    8.0378  -12.8398   20.4092 C   0  0  0  0  0  0  0  0  0  0  0  0
    8.3661  -14.1210   20.0218 C   0  0  0  0  0  0  0  0  0  0  0  0
    9.4724  -16.9743   22.2951 C   0  0  0  0  0  0  0  0  0  0  0  0
    9.7542  -18.0689   22.8670 O   0  0  0  0  0  0  0  0  0  0  0  0
    9.1656  -15.8875   23.1325 N   0  0  0  0  0  0  0  0  0  0  0  0
    9.4494  -15.9251   24.5657 C   0  0  1  0  0  0  0  0  0  0  0  0
    9.2386  -14.4850   25.0179 C   0  0  0  0  0  0  0  0  0  0  0  0
    9.3304  -14.2600   26.4492 C   0  0  0  0  0  0  0  0  0  0  0  0
   10.5123  -14.5510   27.1373 C   0  0  0  0  0  0  0  0  0  0  0  0
   10.6362  -14.3530   28.4824 C   0  0  0  0  0  0  0  0  0  0  0  0
    9.5655  -13.8525   29.1786 C   0  0  0  0  0  0  0  0  0  0  0  0
    8.3850  -13.5564   28.5213 C   0  0  0  0  0  0  0  0  0  0  0  0
    8.2547  -13.7535   27.1691 C   0  0  0  0  0  0  0  0  0  0  0  0
    8.5570  -16.8011   25.2985 C   0  0  0  0  0  0  0  0  0  0  0  0
    8.7214  -16.9986   26.5213 O   0  0  0  0  0  0  0  0  0  0  0  0
    7.4845  -17.4421   24.6405 N   0  0  0  0  0  0  0  0  0  0  0  0
    6.5789  -18.2663   25.3898 C   0  0  0  0  0  0  0  0  0  0  0  0
    7.1947  -19.5908   25.6122 C   0  0  0  0  0  0  0  0  0  0  0  0
    8.4244  -19.7021   25.8765 O   0  0  0  0  0  0  0  0  0  0  0  0
    6.4075  -20.7236   25.5278 O   0  0  0  0  0  0  0  0  0  0  0  0
  2  1  1  6
  3  2  1  0
  4  3  1  0
  5  4  2  0
  6  5  1  0
  7  6  2  0
  7  8  1  0
  8  9  2  0
  9  4  1  0
 10 11  2  0
 10  2  1  0
 12 10  1  0
 13 12  1  0
 13 14  1  1
 15 14  1  0
 15 16  2  0
 17 16  1  0
 18 17  2  0
 19 20  2  0
 19 18  1  0
 20 15  1  0
 21 13  1  0
 22 21  2  0
 23 21  1  0
 24 23  1  0
 25 24  1  0
 25 27  1  0
 26 25  2  0
M  END
$$$$
