TKV.pdb
     RDKit          3D

 24 23  0  0  1  0  0  0  0  0999 V2000
    8.7028  -12.6998   19.9904 C   0  0  0  0  0  0  0  0  0  0  0  0
    8.0970  -13.5654   18.9104 C   0  0  1  0  0  0  0  0  0  0  0  0
    8.7219  -13.2427   17.7037 O   0  0  0  0  0  0  0  0  0  0  0  0
    8.3122  -15.0314   19.2232 C   0  0  2  0  0  0  0  0  0  0  0  0
    7.7961  -15.7878   18.1129 N   0  0  0  0  0  0  0  0  0  0  0  0
    7.6742  -15.4102   20.5079 C   0  0  0  0  0  0  0  0  0  0  0  0
    6.4227  -15.4309   20.5707 O   0  0  0  0  0  0  0  0  0  0  0  0
    8.4228  -15.7446   21.6503 N   0  0  0  0  0  0  0  0  0  0  0  0
    7.8701  -16.0671   22.9379 C   0  0  1  0  0  0  0  0  0  0  0  0
    8.3496  -17.4220   23.4356 C   0  0  0  0  0  0  0  0  0  0  0  0
    7.8064  -17.7907   24.7745 C   0  0  0  0  0  0  0  0  0  0  0  0
    8.2774  -19.1292   25.2651 C   0  0  0  0  0  0  0  0  0  0  0  0
    7.5007  -19.4193   26.5561 C   0  0  0  0  0  0  0  0  0  0  0  0
    7.9421  -20.6216   27.1940 N   0  0  0  0  0  0  0  0  0  0  0  0
    8.3356  -15.0780   23.9410 C   0  0  0  0  0  0  0  0  0  0  0  0
    9.5537  -14.7813   23.9548 O   0  0  0  0  0  0  0  0  0  0  0  0
    7.2140  -11.3944   27.0997 C   0  0  0  0  0  0  0  0  0  0  0  0
    6.7619  -12.5114   26.1918 C   0  0  2  0  0  0  0  0  0  0  0  0
    5.5694  -13.2535   26.7288 C   0  0  0  0  0  0  0  0  0  0  0  0
    7.8913  -13.4399   25.8130 C   0  0  2  0  0  0  0  0  0  0  0  0
    7.4847  -14.4535   24.8790 N   0  0  0  0  0  0  0  0  0  0  0  0
    8.3802  -14.0917   27.0390 C   0  0  0  0  0  0  0  0  0  0  0  0
    9.1230  -13.3867   27.9613 O   0  0  0  0  0  0  0  0  0  0  0  0
    8.1305  -15.2909   27.2626 O   0  0  0  0  0  0  0  0  0  0  0  0
  2  1  1  1
  2  3  1  0
  4  2  1  0
  4  5  1  6
  6  7  2  0
  6  4  1  0
  8  6  1  0
  9 10  1  1
  9  8  1  0
 10 11  1  0
 11 12  1  0
 13 14  1  0
 13 12  1  0
 15  9  1  0
 16 15  2  0
 18 20  1  0
 18 17  1  1
 19 18  1  0
 20 21  1  6
 21 15  1  0
 22 23  1  0
 22 20  1  0
 24 22  2  0
M  END
$$$$
