TKV.pdb
     RDKit          3D

 24 23  0  0  1  0  0  0  0  0999 V2000
    8.6728  -12.5778   20.2709 C   0  0  0  0  0  0  0  0  0  0  0  0
    7.8942  -13.3598   19.2391 C   0  0  1  0  0  0  0  0  0  0  0  0
    8.3903  -13.0167   17.9793 O   0  0  0  0  0  0  0  0  0  0  0  0
    8.0585  -14.8479   19.4670 C   0  0  2  0  0  0  0  0  0  0  0  0
    7.4030  -15.5240   18.3786 N   0  0  0  0  0  0  0  0  0  0  0  0
    7.5216  -15.2558   20.7885 C   0  0  0  0  0  0  0  0  0  0  0  0
    6.2802  -15.2430   20.9593 O   0  0  0  0  0  0  0  0  0  0  0  0
    8.3547  -15.6537   21.8491 N   0  0  0  0  0  0  0  0  0  0  0  0
    7.8994  -16.0985   23.1384 C   0  0  1  0  0  0  0  0  0  0  0  0
    8.3893  -17.5027   23.4573 C   0  0  0  0  0  0  0  0  0  0  0  0
    7.9700  -17.9880   24.8035 C   0  0  0  0  0  0  0  0  0  0  0  0
    8.4343  -19.3826   25.1099 C   0  0  0  0  0  0  0  0  0  0  0  0
    7.3713  -20.0060   26.0238 C   0  0  0  0  0  0  0  0  0  0  0  0
    6.3887  -20.7405   25.2874 N   0  0  0  0  0  0  0  0  0  0  0  0
    8.4628  -15.2221   24.1946 C   0  0  0  0  0  0  0  0  0  0  0  0
    9.6930  -14.9817   24.1667 O   0  0  0  0  0  0  0  0  0  0  0  0
    5.9232  -13.3840   27.2157 C   0  0  0  0  0  0  0  0  0  0  0  0
    7.2059  -12.7615   26.7222 C   0  0  2  0  0  0  0  0  0  0  0  0
    6.9764  -11.6916   25.6909 C   0  0  0  0  0  0  0  0  0  0  0  0
    8.2088  -13.7935   26.2633 C   0  0  2  0  0  0  0  0  0  0  0  0
    7.6920  -14.6449   25.2274 N   0  0  0  0  0  0  0  0  0  0  0  0
    8.5756  -14.6238   27.4222 C   0  0  0  0  0  0  0  0  0  0  0  0
    9.2773  -14.0847   28.4789 O   0  0  0  0  0  0  0  0  0  0  0  0
    8.2579  -15.8269   27.4665 O   0  0  0  0  0  0  0  0  0  0  0  0
  2  1  1  1
  2  3  1  0
  4  2  1  0
  4  5  1  6
  6  7  2  0
  6  4  1  0
  8  6  1  0
  9 10  1  1
  9  8  1  0
 10 11  1  0
 11 12  1  0
 13 14  1  0
 13 12  1  0
 15  9  1  0
 16 15  2  0
 18 20  1  0
 18 17  1  6
 19 18  1  0
 20 21  1  6
 21 15  1  0
 22 23  1  0
 22 20  1  0
 24 22  2  0
M  END
$$$$
