TKV.pdb
     RDKit          3D

 24 23  0  0  1  0  0  0  0  0999 V2000
   10.6953  -13.9004   20.6198 C   0  0  0  0  0  0  0  0  0  0  0  0
    9.6521  -13.1483   19.8269 C   0  0  1  0  0  0  0  0  0  0  0  0
   10.2144  -12.8103   18.5939 O   0  0  0  0  0  0  0  0  0  0  0  0
    8.4260  -14.0107   19.6122 C   0  0  2  0  0  0  0  0  0  0  0  0
    7.5360  -13.2839   18.7455 N   0  0  0  0  0  0  0  0  0  0  0  0
    7.7862  -14.3727   20.9009 C   0  0  0  0  0  0  0  0  0  0  0  0
    6.9226  -13.5998   21.3776 O   0  0  0  0  0  0  0  0  0  0  0  0
    8.1149  -15.5473   21.6006 N   0  0  0  0  0  0  0  0  0  0  0  0
    7.5538  -15.9437   22.8638 C   0  0  1  0  0  0  0  0  0  0  0  0
    7.7856  -17.4201   23.1467 C   0  0  0  0  0  0  0  0  0  0  0  0
    7.2873  -17.8554   24.4831 C   0  0  0  0  0  0  0  0  0  0  0  0
    7.6203  -19.2820   24.8119 C   0  0  0  0  0  0  0  0  0  0  0  0
    7.0483  -19.5531   26.2095 C   0  0  0  0  0  0  0  0  0  0  0  0
    7.1988  -20.9216   26.5991 N   0  0  0  0  0  0  0  0  0  0  0  0
    8.2297  -15.2088   23.9610 C   0  0  0  0  0  0  0  0  0  0  0  0
    9.4833  -15.2058   23.9836 O   0  0  0  0  0  0  0  0  0  0  0  0
    6.0077  -13.0369   27.0848 C   0  0  0  0  0  0  0  0  0  0  0  0
    7.3320  -12.6048   26.5054 C   0  0  2  0  0  0  0  0  0  0  0  0
    7.1882  -11.5489   25.4445 C   0  0  0  0  0  0  0  0  0  0  0  0
    8.1673  -13.7740   26.0401 C   0  0  2  0  0  0  0  0  0  0  0  0
    7.5411  -14.5141   24.9794 N   0  0  0  0  0  0  0  0  0  0  0  0
    8.3777  -14.6727   27.1869 C   0  0  0  0  0  0  0  0  0  0  0  0
    9.1497  -14.2765   28.2577 O   0  0  0  0  0  0  0  0  0  0  0  0
    7.8615  -15.8056   27.2080 O   0  0  0  0  0  0  0  0  0  0  0  0
  2  1  1  1
  2  3  1  0
  4  2  1  0
  4  5  1  6
  6  7  2  0
  6  4  1  0
  8  6  1  0
  9 10  1  1
  9  8  1  0
 10 11  1  0
 11 12  1  0
 13 14  1  0
 13 12  1  0
 15  9  1  0
 16 15  2  0
 18 20  1  0
 18 17  1  6
 19 18  1  0
 20 21  1  6
 21 15  1  0
 22 23  1  0
 22 20  1  0
 24 22  2  0
M  END
$$$$
