TKV.pdb
     RDKit          3D

 24 23  0  0  1  0  0  0  0  0999 V2000
    8.3902  -13.0774   20.6625 C   0  0  0  0  0  0  0  0  0  0  0  0
    7.6001  -13.8116   19.6045 C   0  0  1  0  0  0  0  0  0  0  0  0
    8.2085  -13.5679   18.3711 O   0  0  0  0  0  0  0  0  0  0  0  0
    7.5912  -15.2994   19.8868 C   0  0  2  0  0  0  0  0  0  0  0  0
    6.8702  -15.9355   18.8158 N   0  0  0  0  0  0  0  0  0  0  0  0
    7.0018  -15.5948   21.2158 C   0  0  0  0  0  0  0  0  0  0  0  0
    5.8181  -15.2468   21.4356 O   0  0  0  0  0  0  0  0  0  0  0  0
    7.7231  -16.2482   22.2307 N   0  0  0  0  0  0  0  0  0  0  0  0
    7.2495  -16.4751   23.5693 C   0  0  1  0  0  0  0  0  0  0  0  0
    7.5282  -17.8963   24.0341 C   0  0  0  0  0  0  0  0  0  0  0  0
    6.6213  -18.9106   23.4240 C   0  0  0  0  0  0  0  0  0  0  0  0
    6.9479  -20.3219   23.8189 C   0  0  0  0  0  0  0  0  0  0  0  0
    5.8853  -21.2153   23.1657 C   0  0  0  0  0  0  0  0  0  0  0  0
    6.1079  -22.6034   23.4321 N   0  0  0  0  0  0  0  0  0  0  0  0
    7.9773  -15.5896   24.5112 C   0  0  0  0  0  0  0  0  0  0  0  0
    9.2214  -15.4940   24.3885 O   0  0  0  0  0  0  0  0  0  0  0  0
    6.2656  -12.1959   25.9757 C   0  0  0  0  0  0  0  0  0  0  0  0
    7.0780  -12.9172   27.0227 C   0  0  2  0  0  0  0  0  0  0  0  0
    7.7820  -11.9791   27.9637 C   0  0  0  0  0  0  0  0  0  0  0  0
    8.0161  -13.9379   26.4231 C   0  0  2  0  0  0  0  0  0  0  0  0
    7.3479  -14.8500   25.5363 N   0  0  0  0  0  0  0  0  0  0  0  0
    8.6243  -14.7039   27.5232 C   0  0  0  0  0  0  0  0  0  0  0  0
    9.6034  -14.1418   28.3137 O   0  0  0  0  0  0  0  0  0  0  0  0
    8.2639  -15.8726   27.7574 O   0  0  0  0  0  0  0  0  0  0  0  0
  2  1  1  1
  2  3  1  0
  4  2  1  0
  4  5  1  6
  6  7  2  0
  6  4  1  0
  8  6  1  0
  9 10  1  1
  9  8  1  0
 10 11  1  0
 11 12  1  0
 13 14  1  0
 13 12  1  0
 15  9  1  0
 16 15  2  0
 18 20  1  0
 18 17  1  6
 19 18  1  0
 20 21  1  6
 21 15  1  0
 22 23  1  0
 22 20  1  0
 24 22  2  0
M  END
$$$$
