TKV.pdb
     RDKit          3D

 24 23  0  0  1  0  0  0  0  0999 V2000
    6.5074  -19.5334   25.9102 C   0  0  0  0  0  0  0  0  0  0  0  0
    7.9047  -20.0573   25.6742 C   0  0  1  0  0  0  0  0  0  0  0  0
    7.8652  -21.4483   25.7936 O   0  0  0  0  0  0  0  0  0  0  0  0
    8.3875  -19.6750   24.2907 C   0  0  2  0  0  0  0  0  0  0  0  0
    9.6359  -20.3556   24.0681 N   0  0  0  0  0  0  0  0  0  0  0  0
    8.5150  -18.2037   24.1492 C   0  0  0  0  0  0  0  0  0  0  0  0
    9.4083  -17.6154   24.8024 O   0  0  0  0  0  0  0  0  0  0  0  0
    7.6719  -17.4521   23.3116 N   0  0  0  0  0  0  0  0  0  0  0  0
    7.6853  -16.0192   23.1929 C   0  0  1  0  0  0  0  0  0  0  0  0
    6.9072  -15.5457   21.9747 C   0  0  0  0  0  0  0  0  0  0  0  0
    7.0977  -14.0980   21.6726 C   0  0  0  0  0  0  0  0  0  0  0  0
    7.8443  -13.8450   20.3947 C   0  0  0  0  0  0  0  0  0  0  0  0
    7.8941  -12.3226   20.2119 C   0  0  0  0  0  0  0  0  0  0  0  0
    8.6171  -11.9424   19.0371 N   0  0  0  0  0  0  0  0  0  0  0  0
    7.0077  -15.4164   24.3670 C   0  0  0  0  0  0  0  0  0  0  0  0
    5.8716  -15.8467   24.6770 O   0  0  0  0  0  0  0  0  0  0  0  0
    7.9798  -11.5517   26.2530 C   0  0  0  0  0  0  0  0  0  0  0  0
    7.8748  -12.8395   27.0321 C   0  0  2  0  0  0  0  0  0  0  0  0
    9.2166  -13.4116   27.3974 C   0  0  0  0  0  0  0  0  0  0  0  0
    6.9855  -13.8540   26.3528 C   0  0  2  0  0  0  0  0  0  0  0  0
    7.5701  -14.3871   25.1532 N   0  0  0  0  0  0  0  0  0  0  0  0
    5.7152  -13.1939   26.0099 C   0  0  0  0  0  0  0  0  0  0  0  0
    4.8203  -12.8371   26.9955 O   0  0  0  0  0  0  0  0  0  0  0  0
    5.4286  -12.9471   24.8236 O   0  0  0  0  0  0  0  0  0  0  0  0
  2  1  1  6
  2  3  1  0
  4  2  1  0
  4  5  1  1
  6  7  2  0
  6  4  1  0
  8  6  1  0
  9 10  1  6
  9  8  1  0
 10 11  1  0
 11 12  1  0
 13 14  1  0
 13 12  1  0
 15  9  1  0
 16 15  2  0
 18 20  1  0
 18 17  1  6
 19 18  1  0
 20 21  1  6
 21 15  1  0
 22 23  1  0
 22 20  1  0
 24 22  2  0
M  END
$$$$
