TKV.pdb
     RDKit          3D

 24 23  0  0  1  0  0  0  0  0999 V2000
   10.0088  -13.9834   18.3416 C   0  0  0  0  0  0  0  0  0  0  0  0
    9.4479  -14.1546   19.7339 C   0  0  1  0  0  0  0  0  0  0  0  0
    9.7775  -13.0145   20.4704 O   0  0  0  0  0  0  0  0  0  0  0  0
    7.9429  -14.3147   19.6831 C   0  0  2  0  0  0  0  0  0  0  0  0
    7.4088  -13.1493   19.0288 N   0  0  0  0  0  0  0  0  0  0  0  0
    7.3731  -14.5102   21.0389 C   0  0  0  0  0  0  0  0  0  0  0  0
    6.6905  -13.5861   21.5396 O   0  0  0  0  0  0  0  0  0  0  0  0
    7.5725  -15.6910   21.7760 N   0  0  0  0  0  0  0  0  0  0  0  0
    7.0128  -15.9629   23.0723 C   0  0  1  0  0  0  0  0  0  0  0  0
    6.9934  -17.4527   23.3783 C   0  0  0  0  0  0  0  0  0  0  0  0
    6.0139  -18.2170   22.5536 C   0  0  0  0  0  0  0  0  0  0  0  0
    6.0643  -19.6999   22.7833 C   0  0  0  0  0  0  0  0  0  0  0  0
    4.9906  -20.3187   21.8788 C   0  0  0  0  0  0  0  0  0  0  0  0
    5.0463  -21.7485   21.8739 N   0  0  0  0  0  0  0  0  0  0  0  0
    7.8613  -15.3441   24.1203 C   0  0  0  0  0  0  0  0  0  0  0  0
    9.1006  -15.5227   24.0567 O   0  0  0  0  0  0  0  0  0  0  0  0
    6.2190  -13.0299   27.5156 C   0  0  0  0  0  0  0  0  0  0  0  0
    7.4579  -12.6689   26.7338 C   0  0  2  0  0  0  0  0  0  0  0  0
    7.2048  -11.6120   25.6944 C   0  0  0  0  0  0  0  0  0  0  0  0
    8.1521  -13.8815   26.1602 C   0  0  2  0  0  0  0  0  0  0  0  0
    7.3515  -14.5669   25.1832 N   0  0  0  0  0  0  0  0  0  0  0  0
    8.4479  -14.8067   27.2662 C   0  0  0  0  0  0  0  0  0  0  0  0
    9.3765  -14.4762   28.2295 O   0  0  0  0  0  0  0  0  0  0  0  0
    7.8639  -15.9033   27.3493 O   0  0  0  0  0  0  0  0  0  0  0  0
  2  1  1  6
  2  3  1  0
  4  2  1  0
  4  5  1  1
  6  7  2  0
  6  4  1  0
  8  6  1  0
  9 10  1  1
  9  8  1  0
 10 11  1  0
 11 12  1  0
 13 14  1  0
 13 12  1  0
 15  9  1  0
 16 15  2  0
 18 20  1  0
 18 17  1  6
 19 18  1  0
 20 21  1  6
 21 15  1  0
 22 23  1  0
 22 20  1  0
 24 22  2  0
M  END
$$$$
