TKV.pdb
     RDKit          3D

 24 23  0  0  1  0  0  0  0  0999 V2000
    8.9555  -12.6246   20.0904 C   0  0  0  0  0  0  0  0  0  0  0  0
    8.2770  -13.4683   19.0367 C   0  0  1  0  0  0  0  0  0  0  0  0
    8.9767  -13.3007   17.8396 O   0  0  0  0  0  0  0  0  0  0  0  0
    8.2896  -14.9285   19.4378 C   0  0  2  0  0  0  0  0  0  0  0  0
    7.7585  -15.6822   18.3328 N   0  0  0  0  0  0  0  0  0  0  0  0
    7.5271  -15.1525   20.6906 C   0  0  0  0  0  0  0  0  0  0  0  0
    6.2921  -14.9396   20.6850 O   0  0  0  0  0  0  0  0  0  0  0  0
    8.1407  -15.5929   21.8767 N   0  0  0  0  0  0  0  0  0  0  0  0
    7.4642  -15.8174   23.1256 C   0  0  1  0  0  0  0  0  0  0  0  0
    7.5481  -17.2725   23.5602 C   0  0  0  0  0  0  0  0  0  0  0  0
    6.8610  -18.2125   22.6286 C   0  0  0  0  0  0  0  0  0  0  0  0
    6.0923  -19.2959   23.3284 C   0  0  0  0  0  0  0  0  0  0  0  0
    5.5993  -20.2559   22.2380 C   0  0  0  0  0  0  0  0  0  0  0  0
    6.2763  -21.5157   22.2802 N   0  0  0  0  0  0  0  0  0  0  0  0
    8.1264  -15.0344   24.1977 C   0  0  0  0  0  0  0  0  0  0  0  0
    9.3791  -15.0483   24.2497 O   0  0  0  0  0  0  0  0  0  0  0  0
    5.9121  -13.0230   27.4273 C   0  0  0  0  0  0  0  0  0  0  0  0
    7.0957  -12.4108   26.7197 C   0  0  2  0  0  0  0  0  0  0  0  0
    6.6958  -11.3961   25.6844 C   0  0  0  0  0  0  0  0  0  0  0  0
    8.0390  -13.4524   26.1661 C   0  0  2  0  0  0  0  0  0  0  0  0
    7.4257  -14.2761   25.1609 N   0  0  0  0  0  0  0  0  0  0  0  0
    8.4803  -14.3093   27.2787 C   0  0  0  0  0  0  0  0  0  0  0  0
    9.3451  -13.8265   28.2372 O   0  0  0  0  0  0  0  0  0  0  0  0
    8.0793  -15.4844   27.3719 O   0  0  0  0  0  0  0  0  0  0  0  0
  2  1  1  1
  2  3  1  0
  4  2  1  0
  4  5  1  6
  6  7  2  0
  6  4  1  0
  8  6  1  0
  9 10  1  1
  9  8  1  0
 10 11  1  0
 11 12  1  0
 13 14  1  0
 13 12  1  0
 15  9  1  0
 16 15  2  0
 18 20  1  0
 18 17  1  6
 19 18  1  0
 20 21  1  6
 21 15  1  0
 22 23  1  0
 22 20  1  0
 24 22  2  0
M  END
$$$$
