TKV.pdb
     RDKit          3D

 24 23  0  0  1  0  0  0  0  0999 V2000
   10.5535  -13.6870   20.5185 C   0  0  0  0  0  0  0  0  0  0  0  0
    9.4120  -13.0920   19.7276 C   0  0  1  0  0  0  0  0  0  0  0  0
    9.8913  -12.7828   18.4526 O   0  0  0  0  0  0  0  0  0  0  0  0
    8.2697  -14.0804   19.6201 C   0  0  2  0  0  0  0  0  0  0  0  0
    7.2815  -13.5017   18.7484 N   0  0  0  0  0  0  0  0  0  0  0  0
    7.7162  -14.4153   20.9552 C   0  0  0  0  0  0  0  0  0  0  0  0
    6.9235  -13.6075   21.4936 O   0  0  0  0  0  0  0  0  0  0  0  0
    8.0495  -15.6018   21.6322 N   0  0  0  0  0  0  0  0  0  0  0  0
    7.5471  -15.9884   22.9228 C   0  0  1  0  0  0  0  0  0  0  0  0
    7.8566  -17.4442   23.2369 C   0  0  0  0  0  0  0  0  0  0  0  0
    7.4054  -17.8694   24.5930 C   0  0  0  0  0  0  0  0  0  0  0  0
    7.7596  -19.2902   24.9249 C   0  0  0  0  0  0  0  0  0  0  0  0
    7.0669  -19.6138   26.2551 C   0  0  0  0  0  0  0  0  0  0  0  0
    7.3615  -20.9381   26.7099 N   0  0  0  0  0  0  0  0  0  0  0  0
    8.2217  -15.1931   23.9780 C   0  0  0  0  0  0  0  0  0  0  0  0
    9.4695  -15.0828   23.9258 O   0  0  0  0  0  0  0  0  0  0  0  0
    5.9668  -13.0173   27.0421 C   0  0  0  0  0  0  0  0  0  0  0  0
    7.2720  -12.5601   26.4390 C   0  0  2  0  0  0  0  0  0  0  0  0
    7.0846  -11.5621   25.3300 C   0  0  0  0  0  0  0  0  0  0  0  0
    8.1532  -13.7155   26.0267 C   0  0  2  0  0  0  0  0  0  0  0  0
    7.5378  -14.5546   25.0356 N   0  0  0  0  0  0  0  0  0  0  0  0
    8.4392  -14.5241   27.2230 C   0  0  0  0  0  0  0  0  0  0  0  0
    7.9920  -15.8244   27.3157 O   0  0  0  0  0  0  0  0  0  0  0  0
    9.0900  -14.0461   28.1710 O   0  0  0  0  0  0  0  0  0  0  0  0
  2  1  1  1
  2  3  1  0
  4  2  1  0
  4  5  1  6
  6  7  2  0
  6  4  1  0
  8  6  1  0
  9 10  1  1
  9  8  1  0
 10 11  1  0
 11 12  1  0
 13 14  1  0
 13 12  1  0
 15  9  1  0
 16 15  2  0
 18 20  1  0
 18 17  1  6
 19 18  1  0
 20 21  1  6
 21 15  1  0
 22 23  1  0
 22 20  1  0
 24 22  2  0
M  END
$$$$
