TKV.pdb
     RDKit          3D

 24 23  0  0  1  0  0  0  0  0999 V2000
    9.9359  -13.8190   18.2704 C   0  0  0  0  0  0  0  0  0  0  0  0
    9.6006  -14.2310   19.6847 C   0  0  1  0  0  0  0  0  0  0  0  0
   10.2234  -13.3298   20.5511 O   0  0  0  0  0  0  0  0  0  0  0  0
    8.1025  -14.2013   19.9043 C   0  0  2  0  0  0  0  0  0  0  0  0
    7.6508  -12.8680   19.6053 N   0  0  0  0  0  0  0  0  0  0  0  0
    7.7491  -14.6198   21.2831 C   0  0  0  0  0  0  0  0  0  0  0  0
    7.2690  -13.7644   22.0631 O   0  0  0  0  0  0  0  0  0  0  0  0
    7.9338  -15.9365   21.7407 N   0  0  0  0  0  0  0  0  0  0  0  0
    7.5023  -16.4383   23.0173 C   0  0  1  0  0  0  0  0  0  0  0  0
    7.5502  -17.9575   23.0730 C   0  0  0  0  0  0  0  0  0  0  0  0
    7.1699  -18.5166   24.4020 C   0  0  0  0  0  0  0  0  0  0  0  0
    7.1149  -20.0168   24.4282 C   0  0  0  0  0  0  0  0  0  0  0  0
    6.6974  -20.4139   25.8501 C   0  0  0  0  0  0  0  0  0  0  0  0
    6.6720  -21.8332   26.0297 N   0  0  0  0  0  0  0  0  0  0  0  0
    8.4262  -15.9637   24.0766 C   0  0  0  0  0  0  0  0  0  0  0  0
    9.6587  -16.0281   23.8558 O   0  0  0  0  0  0  0  0  0  0  0  0
    7.4154  -12.7590   26.2443 C   0  0  0  0  0  0  0  0  0  0  0  0
    8.1300  -13.7709   27.1056 C   0  0  2  0  0  0  0  0  0  0  0  0
    9.0256  -13.1346   28.1324 C   0  0  0  0  0  0  0  0  0  0  0  0
    8.8490  -14.8185   26.2891 C   0  0  2  0  0  0  0  0  0  0  0  0
    7.9955  -15.4445   25.3171 N   0  0  0  0  0  0  0  0  0  0  0  0
    9.3568  -15.8490   27.2096 C   0  0  0  0  0  0  0  0  0  0  0  0
   10.5274  -15.6507   27.9094 O   0  0  0  0  0  0  0  0  0  0  0  0
    8.7366  -16.9166   27.3708 O   0  0  0  0  0  0  0  0  0  0  0  0
  2  1  1  6
  2  3  1  0
  4  2  1  0
  4  5  1  1
  6  7  2  0
  6  4  1  0
  8  6  1  0
  9 10  1  6
  9  8  1  0
 10 11  1  0
 11 12  1  0
 13 14  1  0
 13 12  1  0
 15  9  1  0
 16 15  2  0
 18 20  1  0
 18 17  1  6
 19 18  1  0
 20 21  1  6
 21 15  1  0
 22 23  1  0
 22 20  1  0
 24 22  2  0
M  END
$$$$
