TKV.pdb
     RDKit          3D

 24 23  0  0  1  0  0  0  0  0999 V2000
    9.6132  -15.2302   18.5606 C   0  0  0  0  0  0  0  0  0  0  0  0
    8.9723  -15.0170   19.9120 C   0  0  1  0  0  0  0  0  0  0  0  0
    8.6472  -13.6631   20.0217 O   0  0  0  0  0  0  0  0  0  0  0  0
    7.7193  -15.8573   20.0428 C   0  0  2  0  0  0  0  0  0  0  0  0
    6.7841  -15.3910   19.0532 N   0  0  0  0  0  0  0  0  0  0  0  0
    7.1644  -15.7917   21.4172 C   0  0  0  0  0  0  0  0  0  0  0  0
    6.3660  -14.8669   21.6961 O   0  0  0  0  0  0  0  0  0  0  0  0
    7.5028  -16.7272   22.4110 N   0  0  0  0  0  0  0  0  0  0  0  0
    7.0071  -16.7181   23.7607 C   0  0  1  0  0  0  0  0  0  0  0  0
    7.2063  -18.0618   24.4450 C   0  0  0  0  0  0  0  0  0  0  0  0
    6.2676  -19.1177   23.9679 C   0  0  0  0  0  0  0  0  0  0  0  0
    6.5769  -20.4840   24.5081 C   0  0  0  0  0  0  0  0  0  0  0  0
    5.6003  -21.4534   23.8295 C   0  0  0  0  0  0  0  0  0  0  0  0
    5.7670  -22.7983   24.2886 N   0  0  0  0  0  0  0  0  0  0  0  0
    7.7732  -15.7350   24.5655 C   0  0  0  0  0  0  0  0  0  0  0  0
    9.0235  -15.7438   24.4725 O   0  0  0  0  0  0  0  0  0  0  0  0
    7.8247  -11.4271   27.0489 C   0  0  0  0  0  0  0  0  0  0  0  0
    7.0773  -12.4986   26.2943 C   0  0  2  0  0  0  0  0  0  0  0  0
    5.7029  -12.7525   26.8492 C   0  0  0  0  0  0  0  0  0  0  0  0
    7.8803  -13.7697   26.1501 C   0  0  2  0  0  0  0  0  0  0  0  0
    7.1736  -14.7919   25.4286 N   0  0  0  0  0  0  0  0  0  0  0  0
    8.1936  -14.2699   27.4987 C   0  0  0  0  0  0  0  0  0  0  0  0
    7.7218  -15.4939   27.9213 O   0  0  0  0  0  0  0  0  0  0  0  0
    8.8901  -13.5950   28.2796 O   0  0  0  0  0  0  0  0  0  0  0  0
  2  1  1  6
  2  3  1  0
  4  2  1  0
  4  5  1  6
  6  7  2  0
  6  4  1  0
  8  6  1  0
  9 10  1  1
  9  8  1  0
 10 11  1  0
 11 12  1  0
 13 14  1  0
 13 12  1  0
 15  9  1  0
 16 15  2  0
 18 20  1  0
 18 17  1  1
 19 18  1  0
 20 21  1  6
 21 15  1  0
 22 23  1  0
 22 20  1  0
 24 22  2  0
M  END
$$$$
