TKV.pdb
     RDKit          3D

 24 23  0  0  1  0  0  0  0  0999 V2000
    8.5626  -12.9469   20.2761 C   0  0  0  0  0  0  0  0  0  0  0  0
    7.7969  -13.8183   19.3081 C   0  0  1  0  0  0  0  0  0  0  0  0
    8.3469  -13.6312   18.0380 O   0  0  0  0  0  0  0  0  0  0  0  0
    7.9075  -15.2755   19.7052 C   0  0  2  0  0  0  0  0  0  0  0  0
    7.2903  -16.0528   18.6630 N   0  0  0  0  0  0  0  0  0  0  0  0
    7.2922  -15.5232   21.0323 C   0  0  0  0  0  0  0  0  0  0  0  0
    6.0930  -15.2025   21.2045 O   0  0  0  0  0  0  0  0  0  0  0  0
    8.0058  -16.1024   22.0965 N   0  0  0  0  0  0  0  0  0  0  0  0
    7.4905  -16.3125   23.4224 C   0  0  1  0  0  0  0  0  0  0  0  0
    7.8437  -17.6932   23.9538 C   0  0  0  0  0  0  0  0  0  0  0  0
    7.0095  -18.7851   23.3745 C   0  0  0  0  0  0  0  0  0  0  0  0
    7.4449  -20.1595   23.7939 C   0  0  0  0  0  0  0  0  0  0  0  0
    6.5914  -21.1515   22.9932 C   0  0  0  0  0  0  0  0  0  0  0  0
    6.9777  -22.5091   23.2275 N   0  0  0  0  0  0  0  0  0  0  0  0
    8.1153  -15.3453   24.3579 C   0  0  0  0  0  0  0  0  0  0  0  0
    9.3444  -15.1253   24.2444 O   0  0  0  0  0  0  0  0  0  0  0  0
    6.4365  -11.8793   25.3310 C   0  0  0  0  0  0  0  0  0  0  0  0
    6.9762  -12.5617   26.5636 C   0  0  2  0  0  0  0  0  0  0  0  0
    7.5207  -11.5924   27.5761 C   0  0  0  0  0  0  0  0  0  0  0  0
    7.9618  -13.6571   26.2319 C   0  0  2  0  0  0  0  0  0  0  0  0
    7.4039  -14.6601   25.3671 N   0  0  0  0  0  0  0  0  0  0  0  0
    8.3804  -14.2944   27.4910 C   0  0  0  0  0  0  0  0  0  0  0  0
    8.0744  -15.6137   27.7465 O   0  0  0  0  0  0  0  0  0  0  0  0
    9.0179  -13.6516   28.3459 O   0  0  0  0  0  0  0  0  0  0  0  0
  2  1  1  1
  2  3  1  0
  4  2  1  0
  4  5  1  6
  6  7  2  0
  6  4  1  0
  8  6  1  0
  9 10  1  1
  9  8  1  0
 10 11  1  0
 11 12  1  0
 13 14  1  0
 13 12  1  0
 15  9  1  0
 16 15  2  0
 18 20  1  0
 18 17  1  6
 19 18  1  0
 20 21  1  6
 21 15  1  0
 22 23  1  0
 22 20  1  0
 24 22  2  0
M  END
$$$$
