TKV.pdb
     RDKit          3D

 24 23  0  0  1  0  0  0  0  0999 V2000
    9.6144  -13.5634   18.5327 C   0  0  0  0  0  0  0  0  0  0  0  0
    8.9777  -13.6843   19.8974 C   0  0  1  0  0  0  0  0  0  0  0  0
    8.4811  -12.4273   20.2500 O   0  0  0  0  0  0  0  0  0  0  0  0
    7.8477  -14.6920   19.8677 C   0  0  2  0  0  0  0  0  0  0  0  0
    6.8388  -14.1800   18.9781 N   0  0  0  0  0  0  0  0  0  0  0  0
    7.3186  -14.9526   21.2290 C   0  0  0  0  0  0  0  0  0  0  0  0
    6.1907  -14.4964   21.5295 O   0  0  0  0  0  0  0  0  0  0  0  0
    8.0365  -15.6899   22.1872 N   0  0  0  0  0  0  0  0  0  0  0  0
    7.5640  -16.0174   23.5052 C   0  0  1  0  0  0  0  0  0  0  0  0
    7.9591  -17.4285   23.9129 C   0  0  0  0  0  0  0  0  0  0  0  0
    7.5358  -17.7888   25.2965 C   0  0  0  0  0  0  0  0  0  0  0  0
    7.8833  -19.1976   25.6824 C   0  0  0  0  0  0  0  0  0  0  0  0
    7.2091  -19.4587   27.0356 C   0  0  0  0  0  0  0  0  0  0  0  0
    7.3025  -20.8309   27.4303 N   0  0  0  0  0  0  0  0  0  0  0  0
    8.1966  -15.1154   24.4988 C   0  0  0  0  0  0  0  0  0  0  0  0
    9.4372  -14.9460   24.4352 O   0  0  0  0  0  0  0  0  0  0  0  0
    5.8808  -12.9440   27.5646 C   0  0  0  0  0  0  0  0  0  0  0  0
    7.0990  -12.4173   26.8470 C   0  0  2  0  0  0  0  0  0  0  0  0
    6.7529  -11.5190   25.6918 C   0  0  0  0  0  0  0  0  0  0  0  0
    8.0557  -13.5168   26.4507 C   0  0  2  0  0  0  0  0  0  0  0  0
    7.4804  -14.4385   25.5101 N   0  0  0  0  0  0  0  0  0  0  0  0
    8.4363  -14.2541   27.6666 C   0  0  0  0  0  0  0  0  0  0  0  0
    9.2209  -13.6603   28.6317 O   0  0  0  0  0  0  0  0  0  0  0  0
    8.0555  -15.4264   27.8429 O   0  0  0  0  0  0  0  0  0  0  0  0
  2  1  1  6
  2  3  1  0
  4  2  1  0
  4  5  1  6
  6  7  2  0
  6  4  1  0
  8  6  1  0
  9 10  1  1
  9  8  1  0
 10 11  1  0
 11 12  1  0
 13 14  1  0
 13 12  1  0
 15  9  1  0
 16 15  2  0
 18 20  1  0
 18 17  1  6
 19 18  1  0
 20 21  1  6
 21 15  1  0
 22 23  1  0
 22 20  1  0
 24 22  2  0
M  END
$$$$
