TKV.pdb
     RDKit          3D

 24 23  0  0  1  0  0  0  0  0999 V2000
    8.6202  -12.7161   20.1272 C   0  0  0  0  0  0  0  0  0  0  0  0
    7.9437  -13.6389   19.1407 C   0  0  1  0  0  0  0  0  0  0  0  0
    8.5241  -13.4249   17.8884 O   0  0  0  0  0  0  0  0  0  0  0  0
    8.1311  -15.0841   19.5523 C   0  0  2  0  0  0  0  0  0  0  0  0
    7.5789  -15.9038   18.5062 N   0  0  0  0  0  0  0  0  0  0  0  0
    7.5070  -15.3569   20.8703 C   0  0  0  0  0  0  0  0  0  0  0  0
    6.2579  -15.4341   20.9359 O   0  0  0  0  0  0  0  0  0  0  0  0
    8.2662  -15.5307   22.0411 N   0  0  0  0  0  0  0  0  0  0  0  0
    7.7343  -15.8899   23.3278 C   0  0  1  0  0  0  0  0  0  0  0  0
    8.1236  -17.3055   23.7251 C   0  0  0  0  0  0  0  0  0  0  0  0
    7.6973  -17.6749   25.1055 C   0  0  0  0  0  0  0  0  0  0  0  0
    8.0199  -19.0943   25.4734 C   0  0  0  0  0  0  0  0  0  0  0  0
    7.3693  -19.3503   26.8390 C   0  0  0  0  0  0  0  0  0  0  0  0
    7.6859  -20.6472   27.3542 N   0  0  0  0  0  0  0  0  0  0  0  0
    8.3093  -15.0032   24.3690 C   0  0  0  0  0  0  0  0  0  0  0  0
    9.5539  -14.8547   24.3950 O   0  0  0  0  0  0  0  0  0  0  0  0
    5.8070  -12.8351   27.2608 C   0  0  0  0  0  0  0  0  0  0  0  0
    7.1231  -12.3368   26.7168 C   0  0  2  0  0  0  0  0  0  0  0  0
    6.9548  -11.3540   25.5912 C   0  0  0  0  0  0  0  0  0  0  0  0
    8.0626  -13.4636   26.3575 C   0  0  2  0  0  0  0  0  0  0  0  0
    7.5341  -14.3186   25.3305 N   0  0  0  0  0  0  0  0  0  0  0  0
    8.3007  -14.2661   27.5683 C   0  0  0  0  0  0  0  0  0  0  0  0
    9.0521  -13.7630   28.6084 O   0  0  0  0  0  0  0  0  0  0  0  0
    7.8268  -15.4129   27.6725 O   0  0  0  0  0  0  0  0  0  0  0  0
  2  1  1  1
  2  3  1  0
  4  2  1  0
  4  5  1  6
  6  7  2  0
  6  4  1  0
  8  6  1  0
  9 10  1  1
  9  8  1  0
 10 11  1  0
 11 12  1  0
 13 14  1  0
 13 12  1  0
 15  9  1  0
 16 15  2  0
 18 20  1  0
 18 17  1  6
 19 18  1  0
 20 21  1  6
 21 15  1  0
 22 23  1  0
 22 20  1  0
 24 22  2  0
M  END
$$$$
