TKV.pdb
     RDKit          3D

 24 23  0  0  1  0  0  0  0  0999 V2000
    9.7964  -13.6953   18.2768 C   0  0  0  0  0  0  0  0  0  0  0  0
    9.2206  -13.9145   19.6562 C   0  0  1  0  0  0  0  0  0  0  0  0
    9.1222  -12.6691   20.2809 O   0  0  0  0  0  0  0  0  0  0  0  0
    7.8498  -14.5512   19.5634 C   0  0  2  0  0  0  0  0  0  0  0  0
    6.9935  -13.6278   18.8667 N   0  0  0  0  0  0  0  0  0  0  0  0
    7.3245  -14.9037   20.9054 C   0  0  0  0  0  0  0  0  0  0  0  0
    6.5057  -14.1267   21.4499 O   0  0  0  0  0  0  0  0  0  0  0  0
    7.7125  -16.0736   21.5822 N   0  0  0  0  0  0  0  0  0  0  0  0
    7.2964  -16.4400   22.9088 C   0  0  1  0  0  0  0  0  0  0  0  0
    7.6772  -17.8737   23.2448 C   0  0  0  0  0  0  0  0  0  0  0  0
    7.2478  -18.2998   24.6078 C   0  0  0  0  0  0  0  0  0  0  0  0
    7.5792  -19.7302   24.9214 C   0  0  0  0  0  0  0  0  0  0  0  0
    7.0739  -19.9935   26.3459 C   0  0  0  0  0  0  0  0  0  0  0  0
    6.1908  -21.1177   26.4071 N   0  0  0  0  0  0  0  0  0  0  0  0
    7.9972  -15.5901   23.9026 C   0  0  0  0  0  0  0  0  0  0  0  0
    9.2491  -15.6438   23.9455 O   0  0  0  0  0  0  0  0  0  0  0  0
    7.8063  -11.6012   26.8925 C   0  0  0  0  0  0  0  0  0  0  0  0
    7.0882  -12.6360   26.0618 C   0  0  2  0  0  0  0  0  0  0  0  0
    5.8035  -13.1000   26.6906 C   0  0  0  0  0  0  0  0  0  0  0  0
    7.9847  -13.7879   25.6738 C   0  0  2  0  0  0  0  0  0  0  0  0
    7.3339  -14.7259   24.8010 N   0  0  0  0  0  0  0  0  0  0  0  0
    8.3920  -14.4867   26.9037 C   0  0  0  0  0  0  0  0  0  0  0  0
    7.9674  -15.7738   27.1542 O   0  0  0  0  0  0  0  0  0  0  0  0
    9.1271  -13.9261   27.7380 O   0  0  0  0  0  0  0  0  0  0  0  0
  2  1  1  6
  2  3  1  0
  4  2  1  0
  4  5  1  1
  6  7  2  0
  6  4  1  0
  8  6  1  0
  9 10  1  1
  9  8  1  0
 10 11  1  0
 11 12  1  0
 13 14  1  0
 13 12  1  0
 15  9  1  0
 16 15  2  0
 18 20  1  0
 18 17  1  1
 19 18  1  0
 20 21  1  6
 21 15  1  0
 22 23  1  0
 22 20  1  0
 24 22  2  0
M  END
$$$$
