RCT.pdb
     RDKit          3D

 25 24  0  0  1  0  0  0  0  0999 V2000
    8.4789  -17.4493   17.0119 N   0  0  0  0  0  0  0  0  0  0  0  0
    8.1971  -16.3351   16.1663 C   0  0  0  0  0  0  0  0  0  0  0  0
    8.0089  -16.5706   14.9053 N   0  0  0  0  0  0  0  0  0  0  0  0
    8.1279  -15.0196   16.6986 N   0  0  0  0  0  0  0  0  0  0  0  0
    8.3209  -14.8898   18.1332 C   0  0  0  0  0  0  0  0  0  0  0  0
    7.0569  -14.6251   18.8670 C   0  0  0  0  0  0  0  0  0  0  0  0
    7.2920  -14.7840   20.3426 C   0  0  0  0  0  0  0  0  0  0  0  0
    7.3909  -13.4384   20.9775 C   0  0  2  0  0  0  0  0  0  0  0  0
    8.3345  -12.6538   20.1715 N   0  0  0  0  0  0  0  0  0  0  0  0
    8.0074  -13.5379   22.3590 C   0  0  0  0  0  0  0  0  0  0  0  0
    9.2467  -13.6705   22.5243 O   0  0  0  0  0  0  0  0  0  0  0  0
    7.7107  -15.8294   14.2370 N   0  0  0  0  0  0  0  0  0  0  0  0
    7.1917  -13.4832   23.5187 C   0  0  2  0  0  0  0  0  0  0  0  0
    7.7006  -13.6013   24.8697 C   0  0  0  0  0  0  0  0  0  0  0  0
    6.9327  -12.7571   25.8466 S   0  0  0  0  0  0  0  0  0  0  0  0
    7.5367  -12.9950   27.5393 C   0  0  0  0  0  0  0  0  0  0  0  0
    7.8641  -14.9958   25.2725 O   0  0  0  0  0  0  0  0  0  0  0  0
    6.8307  -15.7147   25.3495 C   0  0  0  0  0  0  0  0  0  0  0  0
    9.2053  -17.8220   23.7269 C   0  0  2  0  0  0  0  0  0  0  0  0
    9.9966  -17.7404   25.0017 O   0  0  0  0  0  0  0  0  0  0  0  0
   11.1624  -17.0098   24.7393 C   0  0  2  0  0  0  0  0  0  0  0  0
    9.2292  -16.9664   26.0783 N   0  0  0  0  0  0  0  0  0  0  0  0
    9.0943  -15.6104   25.5854 C   0  0  0  0  0  0  0  0  0  0  0  0
   10.0914  -16.9515   27.2979 O   0  0  0  0  0  0  0  0  0  0  0  0
   10.3565  -18.1364   27.9542 O   0  0  0  0  0  0  0  0  0  0  0  0
  2  3  2  0
  2  1  1  0
  4  2  1  0
  5  4  1  0
  6  5  1  0
  7  8  1  0
  7  6  1  0
  8  9  1  6
 10  8  1  0
 10 12  1  0
 11 10  2  0
 13 16  1  0
 13 12  1  0
 13 14  1  1
 14 15  1  0
 16 17  2  0
 19 18  1  6
 19 21  1  0
 20 19  1  0
 21 23  1  0
 21 22  1  1
 22 16  1  0
 23 25  2  0
 23 24  1  0
M  END
$$$$
