RCT.pdb
     RDKit          3D

 25 24  0  0  1  0  0  0  0  0999 V2000
    8.9919  -15.1295   17.1583 N   0  0  0  0  0  0  0  0  0  0  0  0
    8.3141  -14.0176   16.5748 C   0  0  0  0  0  0  0  0  0  0  0  0
    7.8199  -14.1719   15.3862 N   0  0  0  0  0  0  0  0  0  0  0  0
    8.1919  -12.7907   17.2808 N   0  0  0  0  0  0  0  0  0  0  0  0
    8.5071  -12.8246   18.6991 C   0  0  0  0  0  0  0  0  0  0  0  0
    8.1457  -14.1135   19.3430 C   0  0  0  0  0  0  0  0  0  0  0  0
    8.8869  -14.2487   20.6431 C   0  0  0  0  0  0  0  0  0  0  0  0
    8.3486  -15.4135   21.4028 C   0  0  2  0  0  0  0  0  0  0  0  0
    6.8881  -15.3809   21.2569 N   0  0  0  0  0  0  0  0  0  0  0  0
    8.6213  -15.2623   22.8865 C   0  0  0  0  0  0  0  0  0  0  0  0
    9.7908  -15.1857   23.3415 O   0  0  0  0  0  0  0  0  0  0  0  0
    7.3115  -13.4105   14.8894 N   0  0  0  0  0  0  0  0  0  0  0  0
    7.5496  -15.2023   23.8146 C   0  0  1  0  0  0  0  0  0  0  0  0
    7.7284  -15.1148   25.2493 C   0  0  0  0  0  0  0  0  0  0  0  0
    6.6395  -14.3222   25.9147 S   0  0  0  0  0  0  0  0  0  0  0  0
    6.4688  -12.6802   25.1655 C   0  0  0  0  0  0  0  0  0  0  0  0
    7.9785  -16.4226   25.8500 O   0  0  0  0  0  0  0  0  0  0  0  0
    6.9834  -17.1433   26.1346 C   0  0  0  0  0  0  0  0  0  0  0  0
    9.8197  -19.2866   24.4724 C   0  0  2  0  0  0  0  0  0  0  0  0
   10.4614  -18.9791   25.7960 O   0  0  0  0  0  0  0  0  0  0  0  0
   11.5224  -18.0944   25.5654 C   0  0  2  0  0  0  0  0  0  0  0  0
    9.4840  -18.2554   26.7277 N   0  0  0  0  0  0  0  0  0  0  0  0
    9.2535  -16.9508   26.1406 C   0  0  0  0  0  0  0  0  0  0  0  0
   10.1837  -18.0778   28.0353 O   0  0  0  0  0  0  0  0  0  0  0  0
   10.3709  -19.1708   28.8570 O   0  0  0  0  0  0  0  0  0  0  0  0
  2  3  2  0
  2  1  1  0
  4  2  1  0
  5  4  1  0
  6  5  1  0
  7  8  1  0
  7  6  1  0
  8  9  1  1
 10  8  1  0
 10 12  1  0
 11 10  2  0
 13 16  1  0
 13 12  1  0
 13 14  1  1
 14 15  1  0
 16 17  2  0
 19 18  1  6
 19 21  1  0
 20 19  1  0
 21 23  1  0
 21 22  1  1
 22 16  1  0
 23 25  2  0
 23 24  1  0
M  END
$$$$
