RCT.pdb
     RDKit          3D

 25 24  0  0  1  0  0  0  0  0999 V2000
    7.4849  -15.0487   16.3704 N   0  0  0  0  0  0  0  0  0  0  0  0
    7.8681  -13.6991   16.1102 C   0  0  0  0  0  0  0  0  0  0  0  0
    8.1211  -13.3730   14.8811 N   0  0  0  0  0  0  0  0  0  0  0  0
    7.9656  -12.7558   17.1681 N   0  0  0  0  0  0  0  0  0  0  0  0
    7.4060  -13.1570   18.4480 C   0  0  0  0  0  0  0  0  0  0  0  0
    7.9478  -14.4502   18.9382 C   0  0  0  0  0  0  0  0  0  0  0  0
    8.7117  -14.2222   20.2120 C   0  0  0  0  0  0  0  0  0  0  0  0
    8.3207  -15.2524   21.2167 C   0  0  2  0  0  0  0  0  0  0  0  0
    6.8555  -15.3422   21.1890 N   0  0  0  0  0  0  0  0  0  0  0  0
    8.6827  -14.8033   22.6187 C   0  0  0  0  0  0  0  0  0  0  0  0
    9.8766  -14.6253   22.9706 O   0  0  0  0  0  0  0  0  0  0  0  0
    8.4360  -12.4178   14.6101 N   0  0  0  0  0  0  0  0  0  0  0  0
    7.6706  -14.5684   23.5851 C   0  0  1  0  0  0  0  0  0  0  0  0
    7.9378  -14.2069   24.9620 C   0  0  0  0  0  0  0  0  0  0  0  0
    6.9449  -13.2140   25.4963 S   0  0  0  0  0  0  0  0  0  0  0  0
    7.2021  -12.9126   27.2653 C   0  0  0  0  0  0  0  0  0  0  0  0
    8.1339  -15.3816   25.8077 O   0  0  0  0  0  0  0  0  0  0  0  0
    7.1176  -16.0552   26.1300 C   0  0  0  0  0  0  0  0  0  0  0  0
   11.6097  -17.4696   25.8162 C   0  0  2  0  0  0  0  0  0  0  0  0
   10.3094  -18.0252   26.3247 O   0  0  0  0  0  0  0  0  0  0  0  0
   10.6032  -19.0880   27.1882 C   0  0  1  0  0  0  0  0  0  0  0  0
    9.5522  -16.9841   27.1553 N   0  0  0  0  0  0  0  0  0  0  0  0
    9.3783  -15.8288   26.2981 C   0  0  0  0  0  0  0  0  0  0  0  0
   10.4426  -16.6086   28.2943 O   0  0  0  0  0  0  0  0  0  0  0  0
   10.6955  -17.5315   29.2888 O   0  0  0  0  0  0  0  0  0  0  0  0
  2  3  2  0
  2  1  1  0
  4  2  1  0
  5  4  1  0
  6  5  1  0
  7  8  1  0
  7  6  1  0
  8  9  1  1
 10  8  1  0
 10 12  1  0
 11 10  2  0
 13 16  1  0
 13 12  1  0
 13 14  1  1
 14 15  1  0
 16 17  2  0
 19 18  1  6
 19 21  1  0
 20 19  1  0
 21 23  1  0
 21 22  1  6
 22 16  1  0
 23 25  2  0
 23 24  1  0
M  END
$$$$
