RCT.pdb
     RDKit          3D

 25 24  0  0  1  0  0  0  0  0999 V2000
    7.4845  -15.0231   16.4434 N   0  0  0  0  0  0  0  0  0  0  0  0
    7.9351  -13.7023   16.1461 C   0  0  0  0  0  0  0  0  0  0  0  0
    8.4250  -13.4864   14.9653 N   0  0  0  0  0  0  0  0  0  0  0  0
    7.8451  -12.6693   17.1174 N   0  0  0  0  0  0  0  0  0  0  0  0
    7.3347  -13.0504   18.4237 C   0  0  0  0  0  0  0  0  0  0  0  0
    8.3599  -13.6994   19.2803 C   0  0  0  0  0  0  0  0  0  0  0  0
    7.7332  -14.1198   20.5797 C   0  0  0  0  0  0  0  0  0  0  0  0
    8.3354  -15.4084   21.0275 C   0  0  2  0  0  0  0  0  0  0  0  0
    7.2347  -16.3706   21.1625 N   0  0  0  0  0  0  0  0  0  0  0  0
    8.9380  -15.2700   22.4118 C   0  0  0  0  0  0  0  0  0  0  0  0
   10.1458  -14.9650   22.5818 O   0  0  0  0  0  0  0  0  0  0  0  0
    8.8115  -12.5619   14.6813 N   0  0  0  0  0  0  0  0  0  0  0  0
    8.1448  -15.4837   23.5687 C   0  0  1  0  0  0  0  0  0  0  0  0
    8.6424  -15.3569   24.9231 C   0  0  0  0  0  0  0  0  0  0  0  0
    7.9149  -14.2994   25.7037 S   0  0  0  0  0  0  0  0  0  0  0  0
    6.1251  -14.3942   25.4307 C   0  0  0  0  0  0  0  0  0  0  0  0
    8.7337  -16.6503   25.5956 O   0  0  0  0  0  0  0  0  0  0  0  0
    7.6651  -17.2889   25.7980 C   0  0  0  0  0  0  0  0  0  0  0  0
   10.4078  -19.7618   24.5603 C   0  0  2  0  0  0  0  0  0  0  0  0
   10.9893  -19.3821   25.8929 O   0  0  0  0  0  0  0  0  0  0  0  0
   12.1098  -18.5747   25.6599 C   0  0  2  0  0  0  0  0  0  0  0  0
   10.0027  -18.5363   26.7042 N   0  0  0  0  0  0  0  0  0  0  0  0
    9.9300  -17.2496   26.0415 C   0  0  0  0  0  0  0  0  0  0  0  0
   10.6058  -18.3471   28.0575 O   0  0  0  0  0  0  0  0  0  0  0  0
   10.6953  -19.4245   28.9155 O   0  0  0  0  0  0  0  0  0  0  0  0
  2  3  2  0
  2  1  1  0
  4  2  1  0
  5  4  1  0
  6  5  1  0
  7  8  1  0
  7  6  1  0
  8  9  1  1
 10  8  1  0
 10 12  1  0
 11 10  2  0
 13 16  1  0
 13 12  1  0
 13 14  1  1
 14 15  1  0
 16 17  2  0
 19 18  1  6
 19 21  1  0
 20 19  1  0
 21 23  1  0
 21 22  1  1
 22 16  1  0
 23 25  2  0
 23 24  1  0
M  END
$$$$
