RCT.pdb
     RDKit          3D

 25 24  0  0  1  0  0  0  0  0999 V2000
    9.1934  -13.7946   17.3029 N   0  0  0  0  0  0  0  0  0  0  0  0
    8.3093  -13.1371   18.2096 C   0  0  0  0  0  0  0  0  0  0  0  0
    8.6836  -11.9922   18.6894 N   0  0  0  0  0  0  0  0  0  0  0  0
    7.0665  -13.7258   18.5664 N   0  0  0  0  0  0  0  0  0  0  0  0
    7.1197  -15.0714   19.1130 C   0  0  0  0  0  0  0  0  0  0  0  0
    8.3415  -15.3218   19.9198 C   0  0  0  0  0  0  0  0  0  0  0  0
    7.9960  -16.1936   21.0939 C   0  0  0  0  0  0  0  0  0  0  0  0
    7.2791  -15.3834   22.1202 C   0  0  2  0  0  0  0  0  0  0  0  0
    6.9959  -14.0773   21.5124 N   0  0  0  0  0  0  0  0  0  0  0  0
    8.1767  -15.1023   23.3091 C   0  0  0  0  0  0  0  0  0  0  0  0
    9.3884  -14.7977   23.1681 O   0  0  0  0  0  0  0  0  0  0  0  0
    8.0877  -11.4367   19.3384 N   0  0  0  0  0  0  0  0  0  0  0  0
    7.6671  -15.1764   24.6314 C   0  0  1  0  0  0  0  0  0  0  0  0
    8.4631  -14.9366   25.8176 C   0  0  0  0  0  0  0  0  0  0  0  0
    8.0180  -13.7136   26.5680 S   0  0  0  0  0  0  0  0  0  0  0  0
    9.0780  -13.4012   28.0052 C   0  0  0  0  0  0  0  0  0  0  0  0
    8.5946  -16.1368   26.6397 O   0  0  0  0  0  0  0  0  0  0  0  0
    7.5432  -16.6485   27.1124 C   0  0  0  0  0  0  0  0  0  0  0  0
    9.7697  -19.5612   25.9504 C   0  0  2  0  0  0  0  0  0  0  0  0
   10.6558  -19.0067   27.0299 O   0  0  0  0  0  0  0  0  0  0  0  0
   11.7495  -18.3861   26.4132 C   0  0  2  0  0  0  0  0  0  0  0  0
    9.9329  -17.9205   27.8327 N   0  0  0  0  0  0  0  0  0  0  0  0
    9.8122  -16.7765   26.9515 C   0  0  0  0  0  0  0  0  0  0  0  0
   10.8272  -17.5575   28.9727 O   0  0  0  0  0  0  0  0  0  0  0  0
   11.0526  -18.4780   29.9761 O   0  0  0  0  0  0  0  0  0  0  0  0
  2  3  2  0
  2  1  1  0
  4  2  1  0
  5  4  1  0
  6  5  1  0
  7  8  1  0
  7  6  1  0
  8  9  1  6
 10  8  1  0
 10 12  1  0
 11 10  2  0
 13 16  1  0
 13 12  1  0
 13 14  1  6
 14 15  1  0
 16 17  2  0
 19 18  1  1
 19 21  1  0
 20 19  1  0
 21 23  1  0
 21 22  1  1
 22 16  1  0
 23 25  2  0
 23 24  1  0
M  END
$$$$
