RCT.pdb
     RDKit          3D

 25 24  0  0  1  0  0  0  0  0999 V2000
   11.9757  -26.4685   24.1867 N   0  0  0  0  0  0  0  0  0  0  0  0
   13.2600  -25.8642   24.3325 C   0  0  0  0  0  0  0  0  0  0  0  0
   13.9007  -25.5470   23.2509 N   0  0  0  0  0  0  0  0  0  0  0  0
   13.8066  -25.6240   25.6217 N   0  0  0  0  0  0  0  0  0  0  0  0
   12.9532  -25.9358   26.7560 C   0  0  0  0  0  0  0  0  0  0  0  0
   12.4548  -24.7249   27.4571 C   0  0  0  0  0  0  0  0  0  0  0  0
   11.6773  -25.1363   28.6755 C   0  0  0  0  0  0  0  0  0  0  0  0
   11.1608  -23.9213   29.3686 C   0  0  2  0  0  0  0  0  0  0  0  0
   10.4245  -23.1388   28.3680 N   0  0  0  0  0  0  0  0  0  0  0  0
   12.3025  -23.0368   29.8295 C   0  0  0  0  0  0  0  0  0  0  0  0
   13.1348  -22.5529   29.0208 O   0  0  0  0  0  0  0  0  0  0  0  0
   14.8337  -25.0841   23.2696 N   0  0  0  0  0  0  0  0  0  0  0  0
   12.4652  -22.7266   31.2046 C   0  0  1  0  0  0  0  0  0  0  0  0
   13.5605  -21.9376   31.7298 C   0  0  0  0  0  0  0  0  0  0  0  0
   13.1259  -20.5616   32.1478 S   0  0  0  0  0  0  0  0  0  0  0  0
   14.4756  -19.6630   32.9587 C   0  0  0  0  0  0  0  0  0  0  0  0
   14.3227  -22.6651   32.7414 O   0  0  0  0  0  0  0  0  0  0  0  0
   13.7008  -23.1111   33.7439 C   0  0  0  0  0  0  0  0  0  0  0  0
   18.0382  -24.4849   31.9821 C   0  0  2  0  0  0  0  0  0  0  0  0
   17.9089  -23.6617   33.2327 O   0  0  0  0  0  0  0  0  0  0  0  0
   18.2689  -22.3446   32.9208 C   0  0  2  0  0  0  0  0  0  0  0  0
   16.4553  -23.6148   33.7141 N   0  0  0  0  0  0  0  0  0  0  0  0
   15.7103  -22.9121   32.6890 C   0  0  0  0  0  0  0  0  0  0  0  0
   16.4399  -22.7986   34.9650 O   0  0  0  0  0  0  0  0  0  0  0  0
   17.0758  -23.2763   36.0930 O   0  0  0  0  0  0  0  0  0  0  0  0
  2  3  2  0
  2  1  1  0
  4  2  1  0
  5  4  1  0
  6  5  1  0
  7  8  1  0
  7  6  1  0
  8  9  1  6
 10  8  1  0
 10 12  1  0
 11 10  2  0
 13 16  1  0
 13 12  1  0
 13 14  1  1
 14 15  1  0
 16 17  2  0
 19 18  1  1
 19 21  1  0
 20 19  1  0
 21 23  1  0
 21 22  1  1
 22 16  1  0
 23 25  2  0
 23 24  1  0
M  END
$$$$
