RCT.pdb
     RDKit          3D

 25 24  0  0  1  0  0  0  0  0999 V2000
    7.2265  -14.7924   16.2326 N   0  0  0  0  0  0  0  0  0  0  0  0
    7.8784  -13.5589   15.9332 C   0  0  0  0  0  0  0  0  0  0  0  0
    8.2042  -13.3362   14.6982 N   0  0  0  0  0  0  0  0  0  0  0  0
    8.1552  -12.6168   16.9600 N   0  0  0  0  0  0  0  0  0  0  0  0
    7.7110  -12.9675   18.2986 C   0  0  0  0  0  0  0  0  0  0  0  0
    8.6001  -13.9531   18.9652 C   0  0  0  0  0  0  0  0  0  0  0  0
    7.8108  -15.1829   19.3151 C   0  0  0  0  0  0  0  0  0  0  0  0
    8.7150  -16.1935   19.9353 C   0  0  2  0  0  0  0  0  0  0  0  0
    7.8966  -17.3766   20.2286 N   0  0  0  0  0  0  0  0  0  0  0  0
    9.2328  -15.7046   21.2737 C   0  0  0  0  0  0  0  0  0  0  0  0
   10.1748  -14.8761   21.3580 O   0  0  0  0  0  0  0  0  0  0  0  0
    8.6222  -12.4352   14.3845 N   0  0  0  0  0  0  0  0  0  0  0  0
    8.6609  -16.1751   22.4841 C   0  0  1  0  0  0  0  0  0  0  0  0
    9.2246  -15.9232   23.7944 C   0  0  0  0  0  0  0  0  0  0  0  0
    8.2563  -15.2306   24.7107 S   0  0  0  0  0  0  0  0  0  0  0  0
    6.7426  -16.2046   24.9266 C   0  0  0  0  0  0  0  0  0  0  0  0
    9.8458  -17.1175   24.3613 O   0  0  0  0  0  0  0  0  0  0  0  0
    9.1982  -18.1989   24.3180 C   0  0  0  0  0  0  0  0  0  0  0  0
   14.0148  -19.3571   25.8303 C   0  0  2  0  0  0  0  0  0  0  0  0
   13.2566  -18.1673   25.3130 O   0  0  0  0  0  0  0  0  0  0  0  0
   13.5050  -18.0623   23.9386 C   0  0  1  0  0  0  0  0  0  0  0  0
   11.7456  -18.3657   25.4697 N   0  0  0  0  0  0  0  0  0  0  0  0
   11.1225  -17.1613   24.9589 C   0  0  0  0  0  0  0  0  0  0  0  0
   11.4719  -18.4649   26.9348 O   0  0  0  0  0  0  0  0  0  0  0  0
   11.7888  -19.6288   27.6055 O   0  0  0  0  0  0  0  0  0  0  0  0
  2  3  2  0
  2  1  1  0
  4  2  1  0
  5  4  1  0
  6  5  1  0
  7  8  1  0
  7  6  1  0
  8  9  1  1
 10  8  1  0
 10 12  1  0
 11 10  2  0
 13 16  1  0
 13 12  1  0
 13 14  1  1
 14 15  1  0
 16 17  2  0
 19 18  1  1
 19 21  1  0
 20 19  1  0
 21 23  1  0
 21 22  1  1
 22 16  1  0
 23 25  2  0
 23 24  1  0
M  END
$$$$
