RCT.pdb
     RDKit          3D

 25 24  0  0  1  0  0  0  0  0999 V2000
    7.3928  -21.0719   20.0438 N   0  0  0  0  0  0  0  0  0  0  0  0
    8.0022  -20.5131   18.8809 C   0  0  0  0  0  0  0  0  0  0  0  0
    7.8792  -21.1643   17.7666 N   0  0  0  0  0  0  0  0  0  0  0  0
    8.7157  -19.2866   18.9541 N   0  0  0  0  0  0  0  0  0  0  0  0
    8.8295  -18.6803   20.2700 C   0  0  0  0  0  0  0  0  0  0  0  0
    9.5648  -17.3899   20.2525 C   0  0  0  0  0  0  0  0  0  0  0  0
    9.5974  -16.8134   21.6398 C   0  0  0  0  0  0  0  0  0  0  0  0
    8.7139  -15.6137   21.7000 C   0  0  2  0  0  0  0  0  0  0  0  0
    9.1230  -14.7261   20.6043 N   0  0  0  0  0  0  0  0  0  0  0  0
    8.9511  -14.8327   22.9776 C   0  0  0  0  0  0  0  0  0  0  0  0
   10.0014  -14.1669   23.1627 O   0  0  0  0  0  0  0  0  0  0  0  0
    8.3425  -20.8570   16.8858 N   0  0  0  0  0  0  0  0  0  0  0  0
    7.9811  -14.8319   24.0133 C   0  0  2  0  0  0  0  0  0  0  0  0
    8.1656  -14.1753   25.2912 C   0  0  0  0  0  0  0  0  0  0  0  0
    7.0752  -13.1857   25.5890 S   0  0  0  0  0  0  0  0  0  0  0  0
    7.2298  -12.5216   27.2688 C   0  0  0  0  0  0  0  0  0  0  0  0
    8.4253  -15.1311   26.3647 O   0  0  0  0  0  0  0  0  0  0  0  0
    7.4479  -15.7782   26.8303 C   0  0  0  0  0  0  0  0  0  0  0  0
   10.6265  -18.0608   26.3295 C   0  0  2  0  0  0  0  0  0  0  0  0
   11.0560  -17.2566   27.5240 O   0  0  0  0  0  0  0  0  0  0  0  0
   12.1101  -16.4243   27.1268 C   0  0  2  0  0  0  0  0  0  0  0  0
    9.9290  -16.3358   28.0028 N   0  0  0  0  0  0  0  0  0  0  0  0
    9.6911  -15.3925   26.9288 C   0  0  0  0  0  0  0  0  0  0  0  0
   10.4516  -15.5931   29.1887 O   0  0  0  0  0  0  0  0  0  0  0  0
   10.7155  -16.2807   30.3559 O   0  0  0  0  0  0  0  0  0  0  0  0
  2  3  2  0
  2  1  1  0
  4  2  1  0
  5  4  1  0
  6  5  1  0
  7  8  1  0
  7  6  1  0
  8  9  1  6
 10  8  1  0
 10 12  1  0
 11 10  2  0
 13 16  1  0
 13 12  1  0
 13 14  1  6
 14 15  1  0
 16 17  2  0
 19 18  1  1
 19 21  1  0
 20 19  1  0
 21 23  1  0
 21 22  1  1
 22 16  1  0
 23 25  2  0
 23 24  1  0
M  END
$$$$
