RCT.pdb
     RDKit          3D

 25 24  0  0  1  0  0  0  0  0999 V2000
    8.8893  -18.4290   17.8028 N   0  0  0  0  0  0  0  0  0  0  0  0
    7.5027  -18.3577   17.4739 C   0  0  0  0  0  0  0  0  0  0  0  0
    7.1257  -18.8736   16.3458 N   0  0  0  0  0  0  0  0  0  0  0  0
    6.5780  -17.7408   18.3588 N   0  0  0  0  0  0  0  0  0  0  0  0
    7.0880  -17.3560   19.6642 C   0  0  0  0  0  0  0  0  0  0  0  0
    8.0149  -16.1968   19.6062 C   0  0  0  0  0  0  0  0  0  0  0  0
    8.4878  -15.8641   20.9931 C   0  0  0  0  0  0  0  0  0  0  0  0
    7.4997  -14.9620   21.6516 C   0  0  2  0  0  0  0  0  0  0  0  0
    7.3338  -13.7966   20.7742 N   0  0  0  0  0  0  0  0  0  0  0  0
    8.0483  -14.4233   22.9582 C   0  0  0  0  0  0  0  0  0  0  0  0
    9.2375  -14.6262   23.3122 O   0  0  0  0  0  0  0  0  0  0  0  0
    6.1325  -18.8662   16.0322 N   0  0  0  0  0  0  0  0  0  0  0  0
    7.2235  -13.6652   23.8291 C   0  0  2  0  0  0  0  0  0  0  0  0
    7.5671  -13.3583   25.2024 C   0  0  0  0  0  0  0  0  0  0  0  0
    6.5263  -12.5109   25.8773 S   0  0  0  0  0  0  0  0  0  0  0  0
    7.0122  -12.0991   27.5747 C   0  0  0  0  0  0  0  0  0  0  0  0
    7.9530  -14.5526   25.9495 O   0  0  0  0  0  0  0  0  0  0  0  0
    7.0997  -15.4727   26.0766 C   0  0  0  0  0  0  0  0  0  0  0  0
   11.9329  -15.5076   26.6442 C   0  0  2  0  0  0  0  0  0  0  0  0
   10.8226  -16.5196   26.6805 O   0  0  0  0  0  0  0  0  0  0  0  0
   11.2334  -17.5808   27.4972 C   0  0  1  0  0  0  0  0  0  0  0  0
    9.5632  -15.9335   27.3266 N   0  0  0  0  0  0  0  0  0  0  0  0
    9.2133  -14.7636   26.5464 C   0  0  0  0  0  0  0  0  0  0  0  0
    9.9460  -15.4972   28.7029 O   0  0  0  0  0  0  0  0  0  0  0  0
   10.2227  -16.4496   29.6627 O   0  0  0  0  0  0  0  0  0  0  0  0
  2  3  2  0
  2  1  1  0
  4  2  1  0
  5  4  1  0
  6  5  1  0
  7  8  1  0
  7  6  1  0
  8  9  1  6
 10  8  1  0
 10 12  1  0
 11 10  2  0
 13 16  1  0
 13 12  1  0
 13 14  1  6
 14 15  1  0
 16 17  2  0
 19 18  1  6
 19 21  1  0
 20 19  1  0
 21 23  1  0
 21 22  1  6
 22 16  1  0
 23 25  2  0
 23 24  1  0
M  END
$$$$
