RCT.pdb
     RDKit          3D

 25 24  0  0  1  0  0  0  0  0999 V2000
    8.9959  -12.7239   17.1956 N   0  0  0  0  0  0  0  0  0  0  0  0
    8.1721  -13.7811   16.7061 C   0  0  0  0  0  0  0  0  0  0  0  0
    8.5019  -14.3257   15.5766 N   0  0  0  0  0  0  0  0  0  0  0  0
    7.0340  -14.2127   17.4389 N   0  0  0  0  0  0  0  0  0  0  0  0
    7.0362  -13.9315   18.8648 C   0  0  0  0  0  0  0  0  0  0  0  0
    8.4020  -13.8992   19.4475 C   0  0  0  0  0  0  0  0  0  0  0  0
    8.3081  -13.6831   20.9316 C   0  0  0  0  0  0  0  0  0  0  0  0
    8.1706  -15.0000   21.6175 C   0  0  2  0  0  0  0  0  0  0  0  0
    6.7593  -15.3910   21.5134 N   0  0  0  0  0  0  0  0  0  0  0  0
    8.4568  -14.8682   23.1005 C   0  0  0  0  0  0  0  0  0  0  0  0
    9.5960  -14.5559   23.5310 O   0  0  0  0  0  0  0  0  0  0  0  0
    7.9641  -15.1134   15.1581 N   0  0  0  0  0  0  0  0  0  0  0  0
    7.4329  -15.0968   24.0559 C   0  0  1  0  0  0  0  0  0  0  0  0
    7.6050  -14.9142   25.4825 C   0  0  0  0  0  0  0  0  0  0  0  0
    6.5294  -14.0548   26.0836 S   0  0  0  0  0  0  0  0  0  0  0  0
    7.2373  -12.6867   27.0394 C   0  0  0  0  0  0  0  0  0  0  0  0
    7.8234  -16.1824   26.1737 O   0  0  0  0  0  0  0  0  0  0  0  0
    6.8146  -16.8871   26.4502 C   0  0  0  0  0  0  0  0  0  0  0  0
    9.6789  -19.2194   25.2208 C   0  0  2  0  0  0  0  0  0  0  0  0
   10.2760  -18.7531   26.5186 O   0  0  0  0  0  0  0  0  0  0  0  0
   11.3555  -17.9125   26.2189 C   0  0  2  0  0  0  0  0  0  0  0  0
    9.2745  -17.9107   27.3151 N   0  0  0  0  0  0  0  0  0  0  0  0
    9.0815  -16.6884   26.5611 C   0  0  0  0  0  0  0  0  0  0  0  0
    9.9287  -17.5757   28.6155 O   0  0  0  0  0  0  0  0  0  0  0  0
   10.3137  -16.2738   28.8642 O   0  0  0  0  0  0  0  0  0  0  0  0
  2  3  2  0
  2  1  1  0
  4  2  1  0
  5  4  1  0
  6  5  1  0
  7  8  1  0
  7  6  1  0
  8  9  1  1
 10  8  1  0
 10 12  1  0
 11 10  2  0
 13 16  1  0
 13 12  1  0
 13 14  1  1
 14 15  1  0
 16 17  2  0
 19 18  1  1
 19 21  1  0
 20 19  1  0
 21 23  1  0
 21 22  1  1
 22 16  1  0
 23 25  2  0
 23 24  1  0
M  END
$$$$
