RCT.pdb
     RDKit          3D

 25 24  0  0  1  0  0  0  0  0999 V2000
    8.1323  -12.9504   17.1786 N   0  0  0  0  0  0  0  0  0  0  0  0
    8.0359  -13.0750   18.5968 C   0  0  0  0  0  0  0  0  0  0  0  0
    8.2467  -12.0122   19.3087 N   0  0  0  0  0  0  0  0  0  0  0  0
    7.7197  -14.3241   19.1954 N   0  0  0  0  0  0  0  0  0  0  0  0
    7.6221  -14.3419   20.6454 C   0  0  0  0  0  0  0  0  0  0  0  0
    8.9384  -14.5080   21.3134 C   0  0  0  0  0  0  0  0  0  0  0  0
    9.4785  -15.8794   21.0211 C   0  0  0  0  0  0  0  0  0  0  0  0
    9.1612  -16.7907   22.1579 C   0  0  2  0  0  0  0  0  0  0  0  0
    7.6989  -16.8229   22.2848 N   0  0  0  0  0  0  0  0  0  0  0  0
    9.6791  -16.2232   23.4649 C   0  0  0  0  0  0  0  0  0  0  0  0
   10.8580  -15.8029   23.5847 O   0  0  0  0  0  0  0  0  0  0  0  0
    8.2624  -12.0314   20.3500 N   0  0  0  0  0  0  0  0  0  0  0  0
    8.8362  -16.1500   24.6040 C   0  0  1  0  0  0  0  0  0  0  0  0
    9.2790  -15.7012   25.9081 C   0  0  0  0  0  0  0  0  0  0  0  0
    8.5164  -14.4996   26.3894 S   0  0  0  0  0  0  0  0  0  0  0  0
    9.1581  -13.9054   27.9774 C   0  0  0  0  0  0  0  0  0  0  0  0
    9.3489  -16.7986   26.8695 O   0  0  0  0  0  0  0  0  0  0  0  0
    8.2717  -17.3649   27.2007 C   0  0  0  0  0  0  0  0  0  0  0  0
   10.7155  -20.0947   26.6449 C   0  0  2  0  0  0  0  0  0  0  0  0
   11.4270  -19.4665   27.8099 O   0  0  0  0  0  0  0  0  0  0  0  0
   12.5920  -18.8580   27.3262 C   0  0  2  0  0  0  0  0  0  0  0  0
   10.5814  -18.3538   28.4374 N   0  0  0  0  0  0  0  0  0  0  0  0
   10.5332  -17.2818   27.4636 C   0  0  0  0  0  0  0  0  0  0  0  0
   11.3218  -17.8755   29.6433 O   0  0  0  0  0  0  0  0  0  0  0  0
   11.4339  -18.7037   30.7416 O   0  0  0  0  0  0  0  0  0  0  0  0
  2  3  2  0
  2  1  1  0
  4  2  1  0
  5  4  1  0
  6  5  1  0
  7  8  1  0
  7  6  1  0
  8  9  1  1
 10  8  1  0
 10 12  1  0
 11 10  2  0
 13 16  1  0
 13 12  1  0
 13 14  1  6
 14 15  1  0
 16 17  2  0
 19 18  1  1
 19 21  1  0
 20 19  1  0
 21 23  1  0
 21 22  1  1
 22 16  1  0
 23 25  2  0
 23 24  1  0
M  END
$$$$
