RCT.pdb
     RDKit          3D

 25 24  0  0  1  0  0  0  0  0999 V2000
    9.5453  -14.4529   17.8397 N   0  0  0  0  0  0  0  0  0  0  0  0
    8.3816  -13.6347   17.9514 C   0  0  0  0  0  0  0  0  0  0  0  0
    8.1950  -12.7289   17.0427 N   0  0  0  0  0  0  0  0  0  0  0  0
    7.4678  -13.8155   19.0241 N   0  0  0  0  0  0  0  0  0  0  0  0
    6.9601  -15.1627   19.2232 C   0  0  0  0  0  0  0  0  0  0  0  0
    8.0195  -16.2003   19.1378 C   0  0  0  0  0  0  0  0  0  0  0  0
    8.9365  -16.0780   20.3219 C   0  0  0  0  0  0  0  0  0  0  0  0
    9.0804  -17.4092   20.9782 C   0  0  2  0  0  0  0  0  0  0  0  0
    8.2291  -18.3465   20.2351 N   0  0  0  0  0  0  0  0  0  0  0  0
    8.5287  -17.3769   22.3900 C   0  0  0  0  0  0  0  0  0  0  0  0
    7.5383  -18.0722   22.7311 O   0  0  0  0  0  0  0  0  0  0  0  0
    7.3529  -12.1160   17.0295 N   0  0  0  0  0  0  0  0  0  0  0  0
    9.1231  -16.5501   23.3782 C   0  0  2  0  0  0  0  0  0  0  0  0
    8.7112  -16.5285   24.7667 C   0  0  0  0  0  0  0  0  0  0  0  0
    9.2270  -17.7118   25.5353 S   0  0  0  0  0  0  0  0  0  0  0  0
   11.0181  -17.5996   25.7926 C   0  0  0  0  0  0  0  0  0  0  0  0
    8.9750  -15.2367   25.3954 O   0  0  0  0  0  0  0  0  0  0  0  0
   10.0245  -14.6205   25.0642 C   0  0  0  0  0  0  0  0  0  0  0  0
    6.6998  -12.0852   25.6742 C   0  0  2  0  0  0  0  0  0  0  0  0
    7.0985  -12.5834   27.0347 O   0  0  0  0  0  0  0  0  0  0  0  0
    6.1328  -13.5064   27.4557 C   0  0  2  0  0  0  0  0  0  0  0  0
    8.4295  -13.3398   26.9766 N   0  0  0  0  0  0  0  0  0  0  0  0
    8.1448  -14.6157   26.3515 C   0  0  0  0  0  0  0  0  0  0  0  0
    8.8528  -13.5797   28.3888 O   0  0  0  0  0  0  0  0  0  0  0  0
    9.2409  -12.5102   29.1702 O   0  0  0  0  0  0  0  0  0  0  0  0
  2  3  2  0
  2  1  1  0
  4  2  1  0
  5  4  1  0
  6  5  1  0
  7  8  1  0
  7  6  1  0
  8  9  1  6
 10  8  1  0
 10 12  1  0
 11 10  2  0
 13 16  1  0
 13 12  1  0
 13 14  1  6
 14 15  1  0
 16 17  2  0
 19 18  1  1
 19 21  1  0
 20 19  1  0
 21 23  1  0
 21 22  1  1
 22 16  1  0
 23 25  2  0
 23 24  1  0
M  END
$$$$
