RCT.pdb
     RDKit          3D

 25 24  0  0  1  0  0  0  0  0999 V2000
    9.5491  -13.7904   16.4920 N   0  0  0  0  0  0  0  0  0  0  0  0
    8.1786  -13.7137   16.1023 C   0  0  0  0  0  0  0  0  0  0  0  0
    7.8931  -13.9519   14.8603 N   0  0  0  0  0  0  0  0  0  0  0  0
    7.1720  -13.3870   17.0503 N   0  0  0  0  0  0  0  0  0  0  0  0
    7.5542  -13.4543   18.4509 C   0  0  0  0  0  0  0  0  0  0  0  0
    7.8534  -14.8366   18.9048 C   0  0  0  0  0  0  0  0  0  0  0  0
    8.1852  -14.8214   20.3703 C   0  0  0  0  0  0  0  0  0  0  0  0
    7.8688  -16.1518   20.9648 C   0  0  2  0  0  0  0  0  0  0  0  0
    6.7142  -16.6845   20.2309 N   0  0  0  0  0  0  0  0  0  0  0  0
    7.4145  -16.0053   22.4038 C   0  0  0  0  0  0  0  0  0  0  0  0
    6.4168  -15.3071   22.7165 O   0  0  0  0  0  0  0  0  0  0  0  0
    6.9139  -13.9713   14.5059 N   0  0  0  0  0  0  0  0  0  0  0  0
    8.1124  -16.6608   23.4510 C   0  0  1  0  0  0  0  0  0  0  0  0
    7.7868  -16.5119   24.8546 C   0  0  0  0  0  0  0  0  0  0  0  0
    6.8972  -17.6138   25.3560 S   0  0  0  0  0  0  0  0  0  0  0  0
    7.8490  -19.1123   25.7237 C   0  0  0  0  0  0  0  0  0  0  0  0
    8.9757  -16.2757   25.6697 O   0  0  0  0  0  0  0  0  0  0  0  0
   10.0800  -16.7142   25.2467 C   0  0  0  0  0  0  0  0  0  0  0  0
    9.8509  -12.9532   27.8723 C   0  0  2  0  0  0  0  0  0  0  0  0
    9.8834  -14.2372   28.6523 O   0  0  0  0  0  0  0  0  0  0  0  0
    8.6094  -14.4433   29.1964 C   0  0  2  0  0  0  0  0  0  0  0  0
   10.1654  -15.4320   27.7358 N   0  0  0  0  0  0  0  0  0  0  0  0
    8.9905  -15.5910   26.9025 C   0  0  0  0  0  0  0  0  0  0  0  0
   10.2966  -16.6314   28.6164 O   0  0  0  0  0  0  0  0  0  0  0  0
   11.4044  -16.7559   29.4301 O   0  0  0  0  0  0  0  0  0  0  0  0
  2  3  2  0
  2  1  1  0
  4  2  1  0
  5  4  1  0
  6  5  1  0
  7  8  1  0
  7  6  1  0
  8  9  1  6
 10  8  1  0
 10 12  1  0
 11 10  2  0
 13 16  1  0
 13 12  1  0
 13 14  1  1
 14 15  1  0
 16 17  2  0
 19 18  1  1
 19 21  1  0
 20 19  1  0
 21 23  1  0
 21 22  1  1
 22 16  1  0
 23 25  2  0
 23 24  1  0
M  END
$$$$
