RCT.pdb
     RDKit          3D

 25 24  0  0  1  0  0  0  0  0999 V2000
    4.7808  -19.0270   17.3526 N   0  0  0  0  0  0  0  0  0  0  0  0
    6.0554  -18.6154   17.8446 C   0  0  0  0  0  0  0  0  0  0  0  0
    6.7804  -17.8622   17.0778 N   0  0  0  0  0  0  0  0  0  0  0  0
    6.5030  -19.0230   19.1299 N   0  0  0  0  0  0  0  0  0  0  0  0
    7.7160  -18.3929   19.6239 C   0  0  0  0  0  0  0  0  0  0  0  0
    7.5817  -16.9225   19.7848 C   0  0  0  0  0  0  0  0  0  0  0  0
    8.0251  -16.5274   21.1651 C   0  0  0  0  0  0  0  0  0  0  0  0
    7.6995  -15.0912   21.3993 C   0  0  2  0  0  0  0  0  0  0  0  0
    8.4137  -14.3185   20.3754 N   0  0  0  0  0  0  0  0  0  0  0  0
    8.2504  -14.6236   22.7320 C   0  0  0  0  0  0  0  0  0  0  0  0
    9.4860  -14.5150   22.9376 O   0  0  0  0  0  0  0  0  0  0  0  0
    7.7553  -17.5895   17.3229 N   0  0  0  0  0  0  0  0  0  0  0  0
    7.3749  -14.2913   23.7981 C   0  0  2  0  0  0  0  0  0  0  0  0
    7.8222  -13.9423   25.1309 C   0  0  0  0  0  0  0  0  0  0  0  0
    6.9096  -12.9547   25.8008 S   0  0  0  0  0  0  0  0  0  0  0  0
    7.3514  -12.7278   27.5443 C   0  0  0  0  0  0  0  0  0  0  0  0
    8.1274  -15.1247   25.9324 O   0  0  0  0  0  0  0  0  0  0  0  0
    7.1640  -15.8341   26.3315 C   0  0  0  0  0  0  0  0  0  0  0  0
    9.7309  -18.2593   25.2557 C   0  0  2  0  0  0  0  0  0  0  0  0
   10.5419  -17.6485   26.3636 O   0  0  0  0  0  0  0  0  0  0  0  0
   11.5784  -16.9081   25.7812 C   0  0  2  0  0  0  0  0  0  0  0  0
    9.7038  -16.6594   27.1797 N   0  0  0  0  0  0  0  0  0  0  0  0
    9.4233  -15.5423   26.3003 C   0  0  0  0  0  0  0  0  0  0  0  0
   10.5672  -16.1835   28.3018 O   0  0  0  0  0  0  0  0  0  0  0  0
   10.9868  -17.0823   29.2615 O   0  0  0  0  0  0  0  0  0  0  0  0
  2  3  2  0
  2  1  1  0
  4  2  1  0
  5  4  1  0
  6  5  1  0
  7  8  1  0
  7  6  1  0
  8  9  1  6
 10  8  1  0
 10 12  1  0
 11 10  2  0
 13 16  1  0
 13 12  1  0
 13 14  1  1
 14 15  1  0
 16 17  2  0
 19 18  1  1
 19 21  1  0
 20 19  1  0
 21 23  1  0
 21 22  1  1
 22 16  1  0
 23 25  2  0
 23 24  1  0
M  END
$$$$
