RCT.pdb
     RDKit          3D

 25 24  0  0  1  0  0  0  0  0999 V2000
    9.6603  -17.6218   18.1614 N   0  0  0  0  0  0  0  0  0  0  0  0
    8.9625  -17.1690   17.0019 C   0  0  0  0  0  0  0  0  0  0  0  0
    9.6709  -16.8013   15.9802 N   0  0  0  0  0  0  0  0  0  0  0  0
    7.5426  -17.1271   16.9801 N   0  0  0  0  0  0  0  0  0  0  0  0
    6.8836  -16.8190   18.2383 C   0  0  0  0  0  0  0  0  0  0  0  0
    7.1659  -15.4423   18.7191 C   0  0  0  0  0  0  0  0  0  0  0  0
    7.0716  -15.4066   20.2184 C   0  0  0  0  0  0  0  0  0  0  0  0
    7.1238  -13.9915   20.6857 C   0  0  2  0  0  0  0  0  0  0  0  0
    7.9779  -13.2606   19.7413 N   0  0  0  0  0  0  0  0  0  0  0  0
    7.8143  -13.8931   22.0318 C   0  0  0  0  0  0  0  0  0  0  0  0
    9.0670  -13.8635   22.1341 O   0  0  0  0  0  0  0  0  0  0  0  0
    9.2416  -16.4227   15.1100 N   0  0  0  0  0  0  0  0  0  0  0  0
    7.0553  -13.8308   23.2291 C   0  0  1  0  0  0  0  0  0  0  0  0
    7.6387  -13.8218   24.5549 C   0  0  0  0  0  0  0  0  0  0  0  0
    6.9099  -12.9041   25.4949 S   0  0  0  0  0  0  0  0  0  0  0  0
    7.6100  -12.9816   27.1653 C   0  0  0  0  0  0  0  0  0  0  0  0
    7.8486  -15.1727   25.0692 O   0  0  0  0  0  0  0  0  0  0  0  0
    6.8390  -15.9151   25.2123 C   0  0  0  0  0  0  0  0  0  0  0  0
    9.6088  -17.9130   23.5740 C   0  0  2  0  0  0  0  0  0  0  0  0
   10.2486  -17.7509   24.9240 O   0  0  0  0  0  0  0  0  0  0  0  0
   11.3478  -16.8949   24.7800 C   0  0  2  0  0  0  0  0  0  0  0  0
    9.2922  -17.0716   25.9094 N   0  0  0  0  0  0  0  0  0  0  0  0
    9.0992  -15.7206   25.4224 C   0  0  0  0  0  0  0  0  0  0  0  0
    9.9967  -17.0128   27.2252 O   0  0  0  0  0  0  0  0  0  0  0  0
   10.3045  -18.1873   27.8815 O   0  0  0  0  0  0  0  0  0  0  0  0
  2  3  2  0
  2  1  1  0
  4  2  1  0
  5  4  1  0
  6  5  1  0
  7  8  1  0
  7  6  1  0
  8  9  1  6
 10  8  1  0
 10 12  1  0
 11 10  2  0
 13 16  1  0
 13 12  1  0
 13 14  1  1
 14 15  1  0
 16 17  2  0
 19 18  1  6
 19 21  1  0
 20 19  1  0
 21 23  1  0
 21 22  1  1
 22 16  1  0
 23 25  2  0
 23 24  1  0
M  END
$$$$
