AEN.pdb
     RDKit          3D

 23 22  0  0  1  0  0  0  0  0999 V2000
   28.6113  -19.8618  -15.7235 C   0  0  0  0  0  0  0  0  0  0  0  0
   27.3996  -20.7446  -15.5747 C   0  0  2  0  0  0  0  0  0  0  0  0
   27.1892  -21.5195  -16.7722 N   0  0  0  0  0  0  0  0  0  0  0  0
   26.2153  -19.9175  -15.2348 C   0  0  0  0  0  0  0  0  0  0  0  0
   26.1877  -19.2368  -14.1782 O   0  0  0  0  0  0  0  0  0  0  0  0
   25.0788  -19.8620  -16.0786 N   0  0  0  0  0  0  0  0  0  0  0  0
   23.9829  -19.0125  -15.7503 C   0  0  1  0  0  0  0  0  0  0  0  0
   23.7690  -18.0179  -16.8506 C   0  0  0  0  0  0  0  0  0  0  0  0
   24.7810  -16.9101  -16.8605 C   0  0  0  0  0  0  0  0  0  0  0  0
   24.4494  -15.9593  -17.9456 C   0  0  0  0  0  0  0  0  0  0  0  0
   24.7448  -16.2161  -19.1351 O   0  0  0  0  0  0  0  0  0  0  0  0
   22.7179  -19.7625  -15.5187 C   0  0  0  0  0  0  0  0  0  0  0  0
   22.6107  -20.8815  -16.0812 O   0  0  0  0  0  0  0  0  0  0  0  0
   23.8056  -14.7694  -17.6576 O   0  0  0  0  0  0  0  0  0  0  0  0
   19.3152  -22.5577  -14.5861 N   0  0  0  0  0  0  0  0  0  0  0  0
   20.3571  -22.4132  -13.5791 C   0  0  0  0  0  0  0  0  0  0  0  0
   20.6894  -23.4102  -12.9124 O   0  0  0  0  0  0  0  0  0  0  0  0
   20.9924  -21.1074  -13.3686 C   0  0  0  0  0  0  0  0  0  0  0  0
   20.5230  -20.1079  -14.3848 C   0  0  2  0  0  0  0  0  0  0  0  0
   21.6790  -19.2547  -14.7083 N   0  0  0  0  0  0  0  0  0  0  0  0
   19.3692  -19.3199  -14.0173 C   0  0  0  0  0  0  0  0  0  0  0  0
   19.3839  -18.3373  -13.2773 O   0  0  0  0  0  0  0  0  0  0  0  0
   18.1100  -19.6860  -14.5357 O   0  0  0  0  0  0  0  0  0  0  0  0
  2  4  1  0
  2  1  1  6
  2  3  1  0
  4  5  2  0
  6  7  1  0
  6  4  1  0
  7 12  1  0
  7  8  1  6
  9  8  1  0
 10  9  1  0
 11 10  2  0
 12 13  2  0
 12 20  1  0
 14 10  1  0
 16 15  1  0
 17 16  2  0
 18 16  1  0
 19 18  1  1
 19 21  1  0
 20 19  1  0
 21 22  2  0
 21 23  1  0
M  END
$$$$
