AEN.pdb
     RDKit          3D

 23 22  0  0  1  0  0  0  0  0999 V2000
   17.2206  -13.1564  -14.4518 C   0  0  0  0  0  0  0  0  0  0  0  0
   16.2812  -11.9847  -14.3328 C   0  0  2  0  0  0  0  0  0  0  0  0
   16.1642  -11.3008  -15.5966 N   0  0  0  0  0  0  0  0  0  0  0  0
   16.7445  -11.0781  -13.2532 C   0  0  0  0  0  0  0  0  0  0  0  0
   16.8455  -11.4871  -12.0686 O   0  0  0  0  0  0  0  0  0  0  0  0
   17.0882   -9.7282  -13.5106 N   0  0  0  0  0  0  0  0  0  0  0  0
   17.6168   -8.9118  -12.4692 C   0  0  1  0  0  0  0  0  0  0  0  0
   18.6491   -7.9827  -13.0319 C   0  0  0  0  0  0  0  0  0  0  0  0
   20.0582   -8.4439  -12.8011 C   0  0  0  0  0  0  0  0  0  0  0  0
   20.9943   -7.3922  -13.2584 C   0  0  0  0  0  0  0  0  0  0  0  0
   21.6326   -6.6995  -12.4333 O   0  0  0  0  0  0  0  0  0  0  0  0
   16.5714   -8.1137  -11.7718 C   0  0  0  0  0  0  0  0  0  0  0  0
   15.7105   -7.5513  -12.4949 O   0  0  0  0  0  0  0  0  0  0  0  0
   21.1767   -7.1606  -14.6099 O   0  0  0  0  0  0  0  0  0  0  0  0
   13.5682   -5.8069   -8.3412 N   0  0  0  0  0  0  0  0  0  0  0  0
   13.9202   -7.1412   -7.8763 C   0  0  0  0  0  0  0  0  0  0  0  0
   13.3192   -7.6120   -6.8934 O   0  0  0  0  0  0  0  0  0  0  0  0
   14.9676   -7.9019   -8.5674 C   0  0  0  0  0  0  0  0  0  0  0  0
   15.5097   -7.1349   -9.7378 C   0  0  2  0  0  0  0  0  0  0  0  0
   16.5348   -7.9854  -10.3661 N   0  0  0  0  0  0  0  0  0  0  0  0
   16.0195   -5.8137   -9.4523 C   0  0  0  0  0  0  0  0  0  0  0  0
   17.2056   -5.5254   -9.2991 O   0  0  0  0  0  0  0  0  0  0  0  0
   15.1031   -4.7485   -9.3339 O   0  0  0  0  0  0  0  0  0  0  0  0
  2  4  1  0
  2  1  1  6
  2  3  1  0
  4  5  2  0
  6  7  1  0
  6  4  1  0
  7 12  1  0
  7  8  1  6
  9  8  1  0
 10  9  1  0
 11 10  2  0
 12 13  2  0
 12 20  1  0
 14 10  1  0
 16 15  1  0
 17 16  2  0
 18 16  1  0
 19 18  1  1
 19 21  1  0
 20 19  1  0
 21 22  2  0
 21 23  1  0
M  END
$$$$
