AEN.pdb
     RDKit          3D

 23 22  0  0  1  0  0  0  0  0999 V2000
   12.6796  -11.9015  -13.2082 C   0  0  0  0  0  0  0  0  0  0  0  0
   14.1167  -12.1245  -13.6015 C   0  0  2  0  0  0  0  0  0  0  0  0
   14.4745  -13.5120  -13.4415 N   0  0  0  0  0  0  0  0  0  0  0  0
   14.9977  -11.2304  -12.8101 C   0  0  0  0  0  0  0  0  0  0  0  0
   15.2031  -11.4459  -11.5886 O   0  0  0  0  0  0  0  0  0  0  0  0
   15.6369  -10.1084  -13.3928 N   0  0  0  0  0  0  0  0  0  0  0  0
   16.4566   -9.2568  -12.5971 C   0  0  1  0  0  0  0  0  0  0  0  0
   17.3294   -8.4235  -13.4854 C   0  0  0  0  0  0  0  0  0  0  0  0
   18.4010   -9.2111  -14.1804 C   0  0  0  0  0  0  0  0  0  0  0  0
   19.2415   -8.2893  -14.9774 C   0  0  0  0  0  0  0  0  0  0  0  0
   19.1379   -8.2441  -16.2245 O   0  0  0  0  0  0  0  0  0  0  0  0
   15.6684   -8.3598  -11.7081 C   0  0  0  0  0  0  0  0  0  0  0  0
   14.6555   -7.8105  -12.2104 O   0  0  0  0  0  0  0  0  0  0  0  0
   20.1563   -7.4621  -14.3511 O   0  0  0  0  0  0  0  0  0  0  0  0
   12.8137   -6.8831   -7.2737 N   0  0  0  0  0  0  0  0  0  0  0  0
   14.2682   -6.9189   -7.3335 C   0  0  0  0  0  0  0  0  0  0  0  0
   14.9180   -6.1599   -6.5914 O   0  0  0  0  0  0  0  0  0  0  0  0
   14.9379   -7.8403   -8.2585 C   0  0  0  0  0  0  0  0  0  0  0  0
   15.2594   -7.1625   -9.5582 C   0  0  2  0  0  0  0  0  0  0  0  0
   16.0283   -8.1272  -10.3626 N   0  0  0  0  0  0  0  0  0  0  0  0
   15.9393   -5.8914   -9.4625 C   0  0  0  0  0  0  0  0  0  0  0  0
   15.4126   -4.8231   -9.1549 O   0  0  0  0  0  0  0  0  0  0  0  0
   17.3211   -5.8434   -9.7399 O   0  0  0  0  0  0  0  0  0  0  0  0
  2  4  1  0
  2  1  1  1
  2  3  1  0
  4  5  2  0
  6  7  1  0
  6  4  1  0
  7 12  1  0
  7  8  1  6
  9  8  1  0
 10  9  1  0
 11 10  2  0
 12 13  2  0
 12 20  1  0
 14 10  1  0
 16 15  1  0
 17 16  2  0
 18 16  1  0
 19 18  1  1
 19 21  1  0
 20 19  1  0
 21 22  2  0
 21 23  1  0
M  END
$$$$
