AEN.pdb
     RDKit          3D

 23 22  0  0  1  0  0  0  0  0999 V2000
   14.6256  -10.1011  -15.0811 C   0  0  0  0  0  0  0  0  0  0  0  0
   15.9470  -10.8114  -14.9449 C   0  0  2  0  0  0  0  0  0  0  0  0
   15.7420  -12.2041  -14.6333 N   0  0  0  0  0  0  0  0  0  0  0  0
   16.7788  -10.1314  -13.9213 C   0  0  0  0  0  0  0  0  0  0  0  0
   16.7849  -10.5297  -12.7288 O   0  0  0  0  0  0  0  0  0  0  0  0
   17.5915   -9.0165  -14.2426 N   0  0  0  0  0  0  0  0  0  0  0  0
   18.3276   -8.3478  -13.2221 C   0  0  1  0  0  0  0  0  0  0  0  0
   19.4860   -7.6185  -13.8317 C   0  0  0  0  0  0  0  0  0  0  0  0
   20.5895   -8.5259  -14.2904 C   0  0  0  0  0  0  0  0  0  0  0  0
   21.6923   -7.7079  -14.8437 C   0  0  0  0  0  0  0  0  0  0  0  0
   22.3743   -6.9652  -14.1011 O   0  0  0  0  0  0  0  0  0  0  0  0
   17.4986   -7.3844  -12.4469 C   0  0  0  0  0  0  0  0  0  0  0  0
   16.6467   -6.7220  -13.0917 O   0  0  0  0  0  0  0  0  0  0  0  0
   21.9847   -7.7541  -16.1950 O   0  0  0  0  0  0  0  0  0  0  0  0
   13.8810   -4.8578   -9.7540 N   0  0  0  0  0  0  0  0  0  0  0  0
   14.7491   -5.8775   -9.1822 C   0  0  0  0  0  0  0  0  0  0  0  0
   14.8148   -5.9840   -7.9440 O   0  0  0  0  0  0  0  0  0  0  0  0
   15.5250   -6.7547  -10.0664 C   0  0  0  0  0  0  0  0  0  0  0  0
   16.8752   -6.1690  -10.3596 C   0  0  2  0  0  0  0  0  0  0  0  0
   17.6499   -7.2116  -11.0537 N   0  0  0  0  0  0  0  0  0  0  0  0
   17.5981   -5.6369   -9.2276 C   0  0  0  0  0  0  0  0  0  0  0  0
   18.5271   -6.1976   -8.6481 O   0  0  0  0  0  0  0  0  0  0  0  0
   17.2281   -4.3722   -8.7255 O   0  0  0  0  0  0  0  0  0  0  0  0
  2  4  1  0
  2  1  1  1
  2  3  1  0
  4  5  2  0
  6  7  1  0
  6  4  1  0
  7 12  1  0
  7  8  1  6
  9  8  1  0
 10  9  1  0
 11 10  2  0
 12 13  2  0
 12 20  1  0
 14 10  1  0
 16 15  1  0
 17 16  2  0
 18 16  1  0
 19 18  1  1
 19 21  1  0
 20 19  1  0
 21 22  2  0
 21 23  1  0
M  END
$$$$
