AEN.pdb
     RDKit          3D

 23 22  0  0  1  0  0  0  0  0999 V2000
   23.5265  -12.0301  -19.4042 C   0  0  0  0  0  0  0  0  0  0  0  0
   23.6472  -11.4309  -18.0273 C   0  0  2  0  0  0  0  0  0  0  0  0
   23.7986  -12.4677  -17.0369 N   0  0  0  0  0  0  0  0  0  0  0  0
   22.4718  -10.5683  -17.7511 C   0  0  0  0  0  0  0  0  0  0  0  0
   22.3162   -9.4786  -18.3587 O   0  0  0  0  0  0  0  0  0  0  0  0
   21.4869  -10.9336  -16.8007 N   0  0  0  0  0  0  0  0  0  0  0  0
   20.3390  -10.1121  -16.6056 C   0  0  1  0  0  0  0  0  0  0  0  0
   19.1847  -10.9567  -16.1588 C   0  0  0  0  0  0  0  0  0  0  0  0
   17.9255  -10.1743  -15.9271 C   0  0  0  0  0  0  0  0  0  0  0  0
   16.8390  -11.1047  -15.5461 C   0  0  0  0  0  0  0  0  0  0  0  0
   16.4401  -11.1733  -14.3610 O   0  0  0  0  0  0  0  0  0  0  0  0
   20.5647   -9.0290  -15.6095 C   0  0  0  0  0  0  0  0  0  0  0  0
   21.2988   -9.3055  -14.6273 O   0  0  0  0  0  0  0  0  0  0  0  0
   16.2476  -11.9140  -16.4994 O   0  0  0  0  0  0  0  0  0  0  0  0
   22.3396   -5.4730  -12.6171 N   0  0  0  0  0  0  0  0  0  0  0  0
   22.3081   -5.3958  -14.0709 C   0  0  0  0  0  0  0  0  0  0  0  0
   22.6738   -4.3424  -14.6238 O   0  0  0  0  0  0  0  0  0  0  0  0
   21.8503   -6.5498  -14.8531 C   0  0  0  0  0  0  0  0  0  0  0  0
   20.3559   -6.6772  -14.8044 C   0  0  2  0  0  0  0  0  0  0  0  0
   19.9889   -7.7471  -15.7476 N   0  0  0  0  0  0  0  0  0  0  0  0
   19.6051   -5.4688  -15.0555 C   0  0  0  0  0  0  0  0  0  0  0  0
   19.0565   -5.1786  -16.1177 O   0  0  0  0  0  0  0  0  0  0  0  0
   19.4753   -4.5270  -14.0140 O   0  0  0  0  0  0  0  0  0  0  0  0
  2  4  1  0
  2  1  1  6
  2  3  1  0
  4  5  2  0
  6  7  1  0
  6  4  1  0
  7 12  1  0
  7  8  1  1
  9  8  1  0
 10  9  1  0
 11 10  2  0
 12 13  2  0
 12 20  1  0
 14 10  1  0
 16 15  1  0
 17 16  2  0
 18 16  1  0
 19 18  1  6
 19 21  1  0
 20 19  1  0
 21 22  2  0
 21 23  1  0
M  END
$$$$
