AEN.pdb
     RDKit          3D

 23 22  0  0  1  0  0  0  0  0999 V2000
   17.3572  -11.9749  -15.2942 C   0  0  0  0  0  0  0  0  0  0  0  0
   17.4726  -10.6793  -16.0541 C   0  0  2  0  0  0  0  0  0  0  0  0
   17.4379  -10.9223  -17.4749 N   0  0  0  0  0  0  0  0  0  0  0  0
   18.7076   -9.9659  -15.6443 C   0  0  0  0  0  0  0  0  0  0  0  0
   18.8890   -9.6295  -14.4465 O   0  0  0  0  0  0  0  0  0  0  0  0
   19.7224   -9.6377  -16.5766 N   0  0  0  0  0  0  0  0  0  0  0  0
   20.8863   -8.9341  -16.1516 C   0  0  1  0  0  0  0  0  0  0  0  0
   22.0427   -9.2930  -17.0344 C   0  0  0  0  0  0  0  0  0  0  0  0
   23.3314   -8.6413  -16.6266 C   0  0  0  0  0  0  0  0  0  0  0  0
   24.4046   -9.0654  -17.5538 C   0  0  0  0  0  0  0  0  0  0  0  0
   24.7467   -8.3377  -18.5138 O   0  0  0  0  0  0  0  0  0  0  0  0
   20.7057   -7.4564  -16.1619 C   0  0  0  0  0  0  0  0  0  0  0  0
   20.3774   -6.9326  -17.2564 O   0  0  0  0  0  0  0  0  0  0  0  0
   25.0463  -10.2770  -17.3703 O   0  0  0  0  0  0  0  0  0  0  0  0
   20.1881   -2.5266  -14.9977 N   0  0  0  0  0  0  0  0  0  0  0  0
   19.1543   -3.4292  -14.5109 C   0  0  0  0  0  0  0  0  0  0  0  0
   18.0902   -2.9469  -14.0819 O   0  0  0  0  0  0  0  0  0  0  0  0
   19.3812   -4.8787  -14.5340 C   0  0  0  0  0  0  0  0  0  0  0  0
   20.7370   -5.2048  -15.0886 C   0  0  2  0  0  0  0  0  0  0  0  0
   20.8904   -6.6672  -15.0056 N   0  0  0  0  0  0  0  0  0  0  0  0
   21.8548   -4.5194  -14.4821 C   0  0  0  0  0  0  0  0  0  0  0  0
   22.8092   -5.0639  -13.9288 O   0  0  0  0  0  0  0  0  0  0  0  0
   21.8785   -3.1098  -14.5128 O   0  0  0  0  0  0  0  0  0  0  0  0
  2  4  1  0
  2  1  1  1
  2  3  1  0
  4  5  2  0
  6  7  1  0
  6  4  1  0
  7 12  1  0
  7  8  1  6
  9  8  1  0
 10  9  1  0
 11 10  2  0
 12 13  2  0
 12 20  1  0
 14 10  1  0
 16 15  1  0
 17 16  2  0
 18 16  1  0
 19 18  1  1
 19 21  1  0
 20 19  1  0
 21 22  2  0
 21 23  1  0
M  END
$$$$
