AEN.pdb
     RDKit          3D

 23 22  0  0  1  0  0  0  0  0999 V2000
   17.8905  -12.0907  -15.0632 C   0  0  0  0  0  0  0  0  0  0  0  0
   18.0546  -10.6434  -15.4480 C   0  0  2  0  0  0  0  0  0  0  0  0
   19.0046  -10.5116  -16.5245 N   0  0  0  0  0  0  0  0  0  0  0  0
   18.4519   -9.8502  -14.2584 C   0  0  0  0  0  0  0  0  0  0  0  0
   18.4263  -10.3581  -13.1085 O   0  0  0  0  0  0  0  0  0  0  0  0
   18.8717   -8.5018  -14.3687 N   0  0  0  0  0  0  0  0  0  0  0  0
   19.2338   -7.7660  -13.2034 C   0  0  1  0  0  0  0  0  0  0  0  0
   20.1738   -6.6605  -13.5773 C   0  0  0  0  0  0  0  0  0  0  0  0
   20.6588   -5.8645  -12.4014 C   0  0  0  0  0  0  0  0  0  0  0  0
   21.5349   -4.7724  -12.8824 C   0  0  0  0  0  0  0  0  0  0  0  0
   22.7661   -4.9530  -13.0221 O   0  0  0  0  0  0  0  0  0  0  0  0
   18.0589   -7.1880  -12.4951 C   0  0  0  0  0  0  0  0  0  0  0  0
   17.2167   -6.5757  -13.1994 O   0  0  0  0  0  0  0  0  0  0  0  0
   21.0014   -3.5326  -13.1854 O   0  0  0  0  0  0  0  0  0  0  0  0
   14.3795   -7.2259   -8.2485 N   0  0  0  0  0  0  0  0  0  0  0  0
   15.6400   -6.4970   -8.2642 C   0  0  0  0  0  0  0  0  0  0  0  0
   15.7160   -5.4168   -7.6507 O   0  0  0  0  0  0  0  0  0  0  0  0
   16.7892   -7.0423   -8.9958 C   0  0  0  0  0  0  0  0  0  0  0  0
   16.7360   -6.6625  -10.4466 C   0  0  2  0  0  0  0  0  0  0  0  0
   17.8845   -7.3133  -11.0995 N   0  0  0  0  0  0  0  0  0  0  0  0
   16.6955   -5.2471  -10.7333 C   0  0  0  0  0  0  0  0  0  0  0  0
   17.6519   -4.4772  -10.6574 O   0  0  0  0  0  0  0  0  0  0  0  0
   15.4707   -4.6754  -11.1353 O   0  0  0  0  0  0  0  0  0  0  0  0
  2  4  1  0
  2  1  1  1
  2  3  1  0
  4  5  2  0
  6  7  1  0
  6  4  1  0
  7 12  1  0
  7  8  1  6
  9  8  1  0
 10  9  1  0
 11 10  2  0
 12 13  2  0
 12 20  1  0
 14 10  1  0
 16 15  1  0
 17 16  2  0
 18 16  1  0
 19 18  1  1
 19 21  1  0
 20 19  1  0
 21 22  2  0
 21 23  1  0
M  END
$$$$
