AEN.pdb
     RDKit          3D

 23 22  0  0  1  0  0  0  0  0999 V2000
   16.2915  -12.7290  -14.5126 C   0  0  0  0  0  0  0  0  0  0  0  0
   16.1588  -11.5178  -15.3985 C   0  0  2  0  0  0  0  0  0  0  0  0
   16.3097  -11.8867  -16.7842 N   0  0  0  0  0  0  0  0  0  0  0  0
   17.1443  -10.4867  -14.9893 C   0  0  0  0  0  0  0  0  0  0  0  0
   17.1267  -10.0045  -13.8283 O   0  0  0  0  0  0  0  0  0  0  0  0
   18.1353  -10.0081  -15.8813 N   0  0  0  0  0  0  0  0  0  0  0  0
   19.0877   -9.0426  -15.4440 C   0  0  1  0  0  0  0  0  0  0  0  0
   20.4319   -9.3620  -16.0238 C   0  0  0  0  0  0  0  0  0  0  0  0
   21.5027   -8.3904  -15.6225 C   0  0  0  0  0  0  0  0  0  0  0  0
   22.7829   -8.7935  -16.2469 C   0  0  0  0  0  0  0  0  0  0  0  0
   23.1907   -8.2349  -17.2908 O   0  0  0  0  0  0  0  0  0  0  0  0
   18.7143   -7.6506  -15.8171 C   0  0  0  0  0  0  0  0  0  0  0  0
   18.2285   -7.4817  -16.9641 O   0  0  0  0  0  0  0  0  0  0  0  0
   23.5487   -9.7974  -15.6818 O   0  0  0  0  0  0  0  0  0  0  0  0
   17.5364   -2.6847  -15.8018 N   0  0  0  0  0  0  0  0  0  0  0  0
   16.6318   -3.6340  -15.1687 C   0  0  0  0  0  0  0  0  0  0  0  0
   15.4878   -3.2560  -14.8566 O   0  0  0  0  0  0  0  0  0  0  0  0
   17.0789   -5.0077  -14.9112 C   0  0  0  0  0  0  0  0  0  0  0  0
   18.4966   -5.2079  -15.3610 C   0  0  2  0  0  0  0  0  0  0  0  0
   18.8910   -6.5616  -14.9358 N   0  0  0  0  0  0  0  0  0  0  0  0
   19.4502   -4.2156  -14.9216 C   0  0  0  0  0  0  0  0  0  0  0  0
   19.3615   -3.0049  -15.1208 O   0  0  0  0  0  0  0  0  0  0  0  0
   20.5858   -4.6434  -14.2032 O   0  0  0  0  0  0  0  0  0  0  0  0
  2  4  1  0
  2  1  1  1
  2  3  1  0
  4  5  2  0
  6  7  1  0
  6  4  1  0
  7 12  1  0
  7  8  1  6
  9  8  1  0
 10  9  1  0
 11 10  2  0
 12 13  2  0
 12 20  1  0
 14 10  1  0
 16 15  1  0
 17 16  2  0
 18 16  1  0
 19 18  1  1
 19 21  1  0
 20 19  1  0
 21 22  2  0
 21 23  1  0
M  END
$$$$
