AEN.pdb
     RDKit          3D

 23 22  0  0  1  0  0  0  0  0999 V2000
   18.6549  -12.3232  -15.5676 C   0  0  0  0  0  0  0  0  0  0  0  0
   18.5938  -10.9256  -16.1265 C   0  0  2  0  0  0  0  0  0  0  0  0
   18.4303  -10.9611  -17.5586 N   0  0  0  0  0  0  0  0  0  0  0  0
   19.8077  -10.1719  -15.7262 C   0  0  0  0  0  0  0  0  0  0  0  0
   20.0223   -9.8916  -14.5194 O   0  0  0  0  0  0  0  0  0  0  0  0
   20.7647   -9.7414  -16.6778 N   0  0  0  0  0  0  0  0  0  0  0  0
   21.8763   -8.9492  -16.2689 C   0  0  1  0  0  0  0  0  0  0  0  0
   22.9806   -9.0732  -17.2742 C   0  0  0  0  0  0  0  0  0  0  0  0
   24.2221   -8.3207  -16.8949 C   0  0  0  0  0  0  0  0  0  0  0  0
   25.2345   -8.4849  -17.9623 C   0  0  0  0  0  0  0  0  0  0  0  0
   25.8845   -9.5497  -18.0708 O   0  0  0  0  0  0  0  0  0  0  0  0
   21.5312   -7.5110  -16.0990 C   0  0  0  0  0  0  0  0  0  0  0  0
   21.1057   -6.9059  -17.1153 O   0  0  0  0  0  0  0  0  0  0  0  0
   25.4762   -7.4588  -18.8580 O   0  0  0  0  0  0  0  0  0  0  0  0
   17.9431   -3.6532  -14.6024 N   0  0  0  0  0  0  0  0  0  0  0  0
   19.3645   -3.9433  -14.7282 C   0  0  0  0  0  0  0  0  0  0  0  0
   20.1697   -2.9949  -14.7619 O   0  0  0  0  0  0  0  0  0  0  0  0
   19.8204   -5.3355  -14.8124 C   0  0  0  0  0  0  0  0  0  0  0  0
   21.3179   -5.4181  -14.7586 C   0  0  2  0  0  0  0  0  0  0  0  0
   21.6696   -6.8445  -14.8619 N   0  0  0  0  0  0  0  0  0  0  0  0
   21.9493   -4.7980  -13.6168 C   0  0  0  0  0  0  0  0  0  0  0  0
   22.5561   -5.3934  -12.7276 O   0  0  0  0  0  0  0  0  0  0  0  0
   21.8787   -3.3956  -13.4864 O   0  0  0  0  0  0  0  0  0  0  0  0
  2  4  1  0
  2  1  1  6
  2  3  1  0
  4  5  2  0
  6  7  1  0
  6  4  1  0
  7 12  1  0
  7  8  1  6
  9  8  1  0
 10  9  1  0
 11 10  2  0
 12 13  2  0
 12 20  1  0
 14 10  1  0
 16 15  1  0
 17 16  2  0
 18 16  1  0
 19 18  1  1
 19 21  1  0
 20 19  1  0
 21 22  2  0
 21 23  1  0
M  END
$$$$
