AEN.pdb
     RDKit          3D

 23 22  0  0  1  0  0  0  0  0999 V2000
   21.1499  -13.4244  -19.0543 C   0  0  0  0  0  0  0  0  0  0  0  0
   21.6521  -12.6652  -17.8539 C   0  0  2  0  0  0  0  0  0  0  0  0
   21.4736  -13.4434  -16.6533 N   0  0  0  0  0  0  0  0  0  0  0  0
   20.9677  -11.3513  -17.7692 C   0  0  0  0  0  0  0  0  0  0  0  0
   21.1786  -10.4592  -18.6297 O   0  0  0  0  0  0  0  0  0  0  0  0
   20.0580  -11.0513  -16.7255 N   0  0  0  0  0  0  0  0  0  0  0  0
   19.3904   -9.7927  -16.6959 C   0  0  1  0  0  0  0  0  0  0  0  0
   17.9463   -9.9961  -16.3517 C   0  0  0  0  0  0  0  0  0  0  0  0
   17.0934  -10.3485  -17.5349 C   0  0  0  0  0  0  0  0  0  0  0  0
   15.6827  -10.4606  -17.1004 C   0  0  0  0  0  0  0  0  0  0  0  0
   14.8821   -9.5132  -17.2719 O   0  0  0  0  0  0  0  0  0  0  0  0
   19.9935   -8.8401  -15.7237 C   0  0  0  0  0  0  0  0  0  0  0  0
   20.1884   -9.2670  -14.5575 O   0  0  0  0  0  0  0  0  0  0  0  0
   15.2291  -11.6195  -16.4965 O   0  0  0  0  0  0  0  0  0  0  0  0
   22.2255   -4.7318  -13.5659 N   0  0  0  0  0  0  0  0  0  0  0  0
   22.6876   -4.8880  -14.9379 C   0  0  0  0  0  0  0  0  0  0  0  0
   23.6547   -4.2077  -15.3264 O   0  0  0  0  0  0  0  0  0  0  0  0
   22.0124   -5.8358  -15.8318 C   0  0  0  0  0  0  0  0  0  0  0  0
   20.9860   -6.6410  -15.0901 C   0  0  2  0  0  0  0  0  0  0  0  0
   20.3361   -7.5172  -16.0794 N   0  0  0  0  0  0  0  0  0  0  0  0
   20.0150   -5.8891  -14.3292 C   0  0  0  0  0  0  0  0  0  0  0  0
   18.9438   -5.4660  -14.7616 O   0  0  0  0  0  0  0  0  0  0  0  0
   20.2935   -5.6027  -12.9768 O   0  0  0  0  0  0  0  0  0  0  0  0
  2  4  1  0
  2  1  1  6
  2  3  1  0
  4  5  2  0
  6  7  1  0
  6  4  1  0
  7 12  1  0
  7  8  1  1
  9  8  1  0
 10  9  1  0
 11 10  2  0
 12 13  2  0
 12 20  1  0
 14 10  1  0
 16 15  1  0
 17 16  2  0
 18 16  1  0
 19 18  1  6
 19 21  1  0
 20 19  1  0
 21 22  2  0
 21 23  1  0
M  END
$$$$
