LKW.pdb
     RDKit          3D

 32 33  0  0  1  0  0  0  0  0999 V2000
    6.7841  -12.2801   20.4615 C   0  0  0  0  0  0  0  0  0  0  0  0
    7.2924  -13.6190   19.9653 C   0  0  1  0  0  0  0  0  0  0  0  0
    8.4678  -13.3906   19.0122 C   0  0  0  0  0  0  0  0  0  0  0  0
    7.8248  -14.4447   21.0950 C   0  0  0  0  0  0  0  0  0  0  0  0
    8.2430  -15.8159   20.6362 C   0  0  2  0  0  0  0  0  0  0  0  0
    7.0173  -16.4908   20.1586 N   0  0  0  0  0  0  0  0  0  0  0  0
    8.7602  -16.6158   21.7969 C   0  0  0  0  0  0  0  0  0  0  0  0
    7.9875  -17.2752   22.5401 O   0  0  0  0  0  0  0  0  0  0  0  0
   10.1409  -16.6478   22.0834 N   0  0  0  0  0  0  0  0  0  0  0  0
   10.6046  -17.6585   23.1105 C   0  0  1  0  0  0  0  0  0  0  0  0
   12.0023  -17.9975   22.7733 C   0  0  0  0  0  0  0  0  0  0  0  0
   12.4119  -18.9875   21.7964 C   0  0  0  0  0  0  0  0  0  0  0  0
   13.5882  -18.7742   20.9338 C   0  0  0  0  0  0  0  0  0  0  0  0
   13.7348  -20.0023   19.9905 C   0  0  0  0  0  0  0  0  0  0  0  0
   14.9221  -19.7745   19.1972 N   0  0  0  0  0  0  0  0  0  0  0  0
   10.5477  -16.8222   24.3467 C   0  0  0  0  0  0  0  0  0  0  0  0
   11.1405  -15.7418   24.3808 O   0  0  0  0  0  0  0  0  0  0  0  0
    9.8335  -17.1904   25.5370 N   0  0  0  0  0  0  0  0  0  0  0  0
   10.1181  -16.5995   26.8334 C   0  0  1  0  0  0  0  0  0  0  0  0
    8.9108  -16.1325   27.5336 C   0  0  0  0  0  0  0  0  0  0  0  0
    7.9834  -15.2985   26.7384 C   0  0  0  0  0  0  0  0  0  0  0  0
    6.9214  -15.8267   25.9847 C   0  0  0  0  0  0  0  0  0  0  0  0
    6.3123  -14.8319   25.3658 N   0  0  0  0  0  0  0  0  0  0  0  0
    6.9117  -13.6743   25.6691 C   0  0  0  0  0  0  0  0  0  0  0  0
    6.6584  -12.3526   25.2996 C   0  0  0  0  0  0  0  0  0  0  0  0
    7.4636  -11.3668   25.8078 C   0  0  0  0  0  0  0  0  0  0  0  0
    8.5156  -11.6460   26.6730 C   0  0  0  0  0  0  0  0  0  0  0  0
    8.7583  -12.9388   27.0292 C   0  0  0  0  0  0  0  0  0  0  0  0
    7.9546  -13.9456   26.5236 C   0  0  0  0  0  0  0  0  0  0  0  0
   11.0618  -17.4537   27.5630 C   0  0  0  0  0  0  0  0  0  0  0  0
   11.4934  -18.7004   27.1287 O   0  0  0  0  0  0  0  0  0  0  0  0
   11.5357  -17.0701   28.6703 O   0  0  0  0  0  0  0  0  0  0  0  0
  2  3  1  6
  2  1  1  0
  4  2  1  0
  5  6  1  1
  5  4  1  0
  7  5  1  0
  8  7  2  0
  9  7  1  0
 10 16  1  0
 10  9  1  0
 10 11  1  6
 12 11  1  0
 13 14  1  0
 13 12  1  0
 15 14  1  0
 16 18  1  0
 17 16  2  0
 18 19  1  0
 19 20  1  1
 20 21  1  0
 21 29  1  0
 21 22  2  0
 22 23  1  0
 24 25  2  0
 24 23  1  0
 26 25  1  0
 27 26  2  0
 28 27  1  0
 28 29  2  0
 29 24  1  0
 30 31  1  0
 30 19  1  0
 32 30  2  0
M  END
$$$$
