LKW.pdb
     RDKit          3D

 32 33  0  0  1  0  0  0  0  0999 V2000
    6.6707  -12.6546   18.3730 C   0  0  0  0  0  0  0  0  0  0  0  0
    7.9885  -13.3400   18.6743 C   0  0  1  0  0  0  0  0  0  0  0  0
    8.9720  -12.3146   19.2433 C   0  0  0  0  0  0  0  0  0  0  0  0
    7.8208  -14.3885   19.7295 C   0  0  0  0  0  0  0  0  0  0  0  0
    9.1461  -14.8532   20.2712 C   0  0  2  0  0  0  0  0  0  0  0  0
    9.8764  -15.4546   19.1350 N   0  0  0  0  0  0  0  0  0  0  0  0
    8.9392  -15.9414   21.2849 C   0  0  0  0  0  0  0  0  0  0  0  0
    8.0237  -15.8754   22.1461 O   0  0  0  0  0  0  0  0  0  0  0  0
    9.7759  -17.0769   21.2942 N   0  0  0  0  0  0  0  0  0  0  0  0
    9.5835  -18.0608   22.4285 C   0  0  1  0  0  0  0  0  0  0  0  0
   10.4234  -19.2361   22.1196 C   0  0  0  0  0  0  0  0  0  0  0  0
   10.3184  -20.5326   22.7601 C   0  0  0  0  0  0  0  0  0  0  0  0
   11.1717  -21.6628   22.3505 C   0  0  0  0  0  0  0  0  0  0  0  0
   10.8371  -22.8837   23.2544 C   0  0  0  0  0  0  0  0  0  0  0  0
   11.8391  -23.8890   22.9782 N   0  0  0  0  0  0  0  0  0  0  0  0
   10.1670  -17.2771   23.5581 C   0  0  0  0  0  0  0  0  0  0  0  0
   11.0407  -16.4373   23.3315 O   0  0  0  0  0  0  0  0  0  0  0  0
    9.7773  -17.4305   24.9318 N   0  0  0  0  0  0  0  0  0  0  0  0
   10.2860  -16.5734   25.9888 C   0  0  1  0  0  0  0  0  0  0  0  0
    9.9814  -15.1494   25.7756 C   0  0  0  0  0  0  0  0  0  0  0  0
    8.5709  -14.7522   25.9770 C   0  0  0  0  0  0  0  0  0  0  0  0
    7.4959  -15.6547   25.9064 C   0  0  0  0  0  0  0  0  0  0  0  0
    6.3738  -14.9839   26.0926 N   0  0  0  0  0  0  0  0  0  0  0  0
    6.6467  -13.6878   26.2838 C   0  0  0  0  0  0  0  0  0  0  0  0
    5.8385  -12.5777   26.5337 C   0  0  0  0  0  0  0  0  0  0  0  0
    6.4395  -11.3580   26.7052 C   0  0  0  0  0  0  0  0  0  0  0  0
    7.8191  -11.1988   26.6373 C   0  0  0  0  0  0  0  0  0  0  0  0
    8.6025  -12.2865   26.3920 C   0  0  0  0  0  0  0  0  0  0  0  0
    8.0105  -13.5249   26.2157 C   0  0  0  0  0  0  0  0  0  0  0  0
    9.9710  -17.1669   27.2931 C   0  0  0  0  0  0  0  0  0  0  0  0
    9.1681  -18.2855   27.4760 O   0  0  0  0  0  0  0  0  0  0  0  0
   10.4369  -16.6539   28.3503 O   0  0  0  0  0  0  0  0  0  0  0  0
  2  3  1  1
  2  1  1  0
  4  2  1  0
  5  6  1  6
  5  4  1  0
  7  5  1  0
  8  7  2  0
  9  7  1  0
 10 16  1  0
 10  9  1  0
 10 11  1  6
 12 11  1  0
 13 14  1  0
 13 12  1  0
 15 14  1  0
 16 18  1  0
 17 16  2  0
 18 19  1  0
 19 20  1  1
 20 21  1  0
 21 29  1  0
 21 22  2  0
 22 23  1  0
 24 25  2  0
 24 23  1  0
 26 25  1  0
 27 26  2  0
 28 27  1  0
 28 29  2  0
 29 24  1  0
 30 31  1  0
 30 19  1  0
 32 30  2  0
M  END
$$$$
