LKW.pdb
     RDKit          3D

 32 33  0  0  1  0  0  0  0  0999 V2000
    5.6004  -21.2093   19.2730 C   0  0  0  0  0  0  0  0  0  0  0  0
    6.0756  -20.7855   20.6484 C   0  0  1  0  0  0  0  0  0  0  0  0
    5.9585  -21.9704   21.6100 C   0  0  0  0  0  0  0  0  0  0  0  0
    7.5241  -20.4082   20.6246 C   0  0  0  0  0  0  0  0  0  0  0  0
    7.8558  -19.3968   21.6889 C   0  0  2  0  0  0  0  0  0  0  0  0
    6.6010  -19.1370   22.4266 N   0  0  0  0  0  0  0  0  0  0  0  0
    8.2712  -18.0986   21.0594 C   0  0  0  0  0  0  0  0  0  0  0  0
    9.2164  -18.0401   20.2303 O   0  0  0  0  0  0  0  0  0  0  0  0
    7.6024  -16.9004   21.3858 N   0  0  0  0  0  0  0  0  0  0  0  0
    8.4155  -15.6247   21.3311 C   0  0  1  0  0  0  0  0  0  0  0  0
    7.5378  -14.5849   20.7560 C   0  0  0  0  0  0  0  0  0  0  0  0
    7.9887  -13.4285   20.0066 C   0  0  0  0  0  0  0  0  0  0  0  0
    7.6559  -13.2602   18.5804 C   0  0  0  0  0  0  0  0  0  0  0  0
    8.9783  -13.0487   17.7890 C   0  0  0  0  0  0  0  0  0  0  0  0
    8.6201  -13.0120   16.3885 N   0  0  0  0  0  0  0  0  0  0  0  0
    8.6300  -15.3868   22.7899 C   0  0  0  0  0  0  0  0  0  0  0  0
    8.0168  -14.4802   23.3574 O   0  0  0  0  0  0  0  0  0  0  0  0
    9.5236  -16.1564   23.6094 N   0  0  0  0  0  0  0  0  0  0  0  0
   10.1710  -15.6075   24.7885 C   0  0  1  0  0  0  0  0  0  0  0  0
    9.3770  -15.7769   26.0160 C   0  0  0  0  0  0  0  0  0  0  0  0
    7.9944  -15.2534   25.9697 C   0  0  0  0  0  0  0  0  0  0  0  0
    6.8839  -16.0336   25.6046 C   0  0  0  0  0  0  0  0  0  0  0  0
    5.8089  -15.2670   25.6259 N   0  0  0  0  0  0  0  0  0  0  0  0
    6.1462  -14.0229   25.9860 C   0  0  0  0  0  0  0  0  0  0  0  0
    5.4017  -12.8573   26.1720 C   0  0  0  0  0  0  0  0  0  0  0  0
    6.0563  -11.7211   26.5708 C   0  0  0  0  0  0  0  0  0  0  0  0
    7.4287  -11.6994   26.7926 C   0  0  0  0  0  0  0  0  0  0  0  0
    8.1501  -12.8407   26.6082 C   0  0  0  0  0  0  0  0  0  0  0  0
    7.5037  -13.9959   26.2047 C   0  0  0  0  0  0  0  0  0  0  0  0
   11.5801  -16.0157   24.8068 C   0  0  0  0  0  0  0  0  0  0  0  0
   12.5138  -15.5811   25.7388 O   0  0  0  0  0  0  0  0  0  0  0  0
   12.0190  -16.8125   23.9291 O   0  0  0  0  0  0  0  0  0  0  0  0
  2  3  1  1
  2  1  1  0
  4  2  1  0
  5  6  1  1
  5  4  1  0
  7  5  1  0
  8  7  2  0
  9  7  1  0
 10 16  1  0
 10  9  1  0
 10 11  1  1
 12 11  1  0
 13 14  1  0
 13 12  1  0
 15 14  1  0
 16 18  1  0
 17 16  2  0
 18 19  1  0
 19 20  1  1
 20 21  1  0
 21 29  1  0
 21 22  2  0
 22 23  1  0
 24 25  2  0
 24 23  1  0
 26 25  1  0
 27 26  2  0
 28 27  1  0
 28 29  2  0
 29 24  1  0
 30 31  1  0
 30 19  1  0
 32 30  2  0
M  END
$$$$
