LKW.pdb
     RDKit          3D

 32 33  0  0  1  0  0  0  0  0999 V2000
    5.3382  -21.8721   20.5263 C   0  0  0  0  0  0  0  0  0  0  0  0
    6.8292  -21.9680   20.7811 C   0  0  1  0  0  0  0  0  0  0  0  0
    7.4536  -22.9291   19.7669 C   0  0  0  0  0  0  0  0  0  0  0  0
    7.4974  -20.6452   20.5695 C   0  0  0  0  0  0  0  0  0  0  0  0
    7.0980  -19.6431   21.6193 C   0  0  2  0  0  0  0  0  0  0  0  0
    5.6641  -19.3557   21.4012 N   0  0  0  0  0  0  0  0  0  0  0  0
    7.8397  -18.3538   21.4144 C   0  0  0  0  0  0  0  0  0  0  0  0
    8.9998  -18.3305   20.9268 O   0  0  0  0  0  0  0  0  0  0  0  0
    7.2453  -17.1243   21.7671 N   0  0  0  0  0  0  0  0  0  0  0  0
    8.0514  -15.8713   21.4991 C   0  0  1  0  0  0  0  0  0  0  0  0
    7.0997  -14.8462   21.0242 C   0  0  0  0  0  0  0  0  0  0  0  0
    7.4357  -13.7205   20.1746 C   0  0  0  0  0  0  0  0  0  0  0  0
    7.7632  -13.9052   18.7491 C   0  0  0  0  0  0  0  0  0  0  0  0
    8.0256  -12.5068   18.1202 C   0  0  0  0  0  0  0  0  0  0  0  0
    8.4265  -12.7387   16.7504 N   0  0  0  0  0  0  0  0  0  0  0  0
    8.5181  -15.5579   22.8828 C   0  0  0  0  0  0  0  0  0  0  0  0
    7.8526  -14.8033   23.5954 O   0  0  0  0  0  0  0  0  0  0  0  0
    9.7201  -16.0837   23.4668 N   0  0  0  0  0  0  0  0  0  0  0  0
   10.2582  -15.5922   24.7236 C   0  0  1  0  0  0  0  0  0  0  0  0
    9.4075  -15.9114   25.8813 C   0  0  0  0  0  0  0  0  0  0  0  0
    8.1169  -15.1926   25.9535 C   0  0  0  0  0  0  0  0  0  0  0  0
    6.8794  -15.7944   25.6679 C   0  0  0  0  0  0  0  0  0  0  0  0
    5.9329  -14.8814   25.7863 N   0  0  0  0  0  0  0  0  0  0  0  0
    6.4752  -13.7088   26.1357 C   0  0  0  0  0  0  0  0  0  0  0  0
    5.9256  -12.4529   26.3974 C   0  0  0  0  0  0  0  0  0  0  0  0
    6.7680  -11.4339   26.7583 C   0  0  0  0  0  0  0  0  0  0  0  0
    8.1419  -11.6164   26.8694 C   0  0  0  0  0  0  0  0  0  0  0  0
    8.6724  -12.8449   26.6116 C   0  0  0  0  0  0  0  0  0  0  0  0
    7.8348  -13.8838   26.2450 C   0  0  0  0  0  0  0  0  0  0  0  0
   11.6886  -15.9095   24.7999 C   0  0  0  0  0  0  0  0  0  0  0  0
   12.5413  -15.4656   25.8025 O   0  0  0  0  0  0  0  0  0  0  0  0
   12.2250  -16.6291   23.9098 O   0  0  0  0  0  0  0  0  0  0  0  0
  2  3  1  6
  2  1  1  0
  4  2  1  0
  5  6  1  6
  5  4  1  0
  7  5  1  0
  8  7  2  0
  9  7  1  0
 10 16  1  0
 10  9  1  0
 10 11  1  1
 12 11  1  0
 13 14  1  0
 13 12  1  0
 15 14  1  0
 16 18  1  0
 17 16  2  0
 18 19  1  0
 19 20  1  1
 20 21  1  0
 21 29  1  0
 21 22  2  0
 22 23  1  0
 24 25  2  0
 24 23  1  0
 26 25  1  0
 27 26  2  0
 28 27  1  0
 28 29  2  0
 29 24  1  0
 30 31  1  0
 30 19  1  0
 32 30  2  0
M  END
$$$$
