LKW.pdb
     RDKit          3D

 32 33  0  0  1  0  0  0  0  0999 V2000
    6.2851  -12.9852   18.5356 C   0  0  0  0  0  0  0  0  0  0  0  0
    7.6692  -13.4564   18.9350 C   0  0  1  0  0  0  0  0  0  0  0  0
    8.5504  -12.2405   19.2304 C   0  0  0  0  0  0  0  0  0  0  0  0
    7.6213  -14.2551   20.2003 C   0  0  0  0  0  0  0  0  0  0  0  0
    8.9999  -14.6076   20.6911 C   0  0  2  0  0  0  0  0  0  0  0  0
    9.7125  -15.2100   19.5442 N   0  0  0  0  0  0  0  0  0  0  0  0
    8.9170  -15.6608   21.7580 C   0  0  0  0  0  0  0  0  0  0  0  0
    7.9473  -15.7139   22.5586 O   0  0  0  0  0  0  0  0  0  0  0  0
    9.9361  -16.6272   21.8881 N   0  0  0  0  0  0  0  0  0  0  0  0
    9.8283  -17.5842   23.0561 C   0  0  1  0  0  0  0  0  0  0  0  0
   10.8769  -18.6073   22.8664 C   0  0  0  0  0  0  0  0  0  0  0  0
   11.0402  -19.7996   23.6750 C   0  0  0  0  0  0  0  0  0  0  0  0
   12.0941  -20.7878   23.3817 C   0  0  0  0  0  0  0  0  0  0  0  0
   12.0849  -21.8637   24.5051 C   0  0  0  0  0  0  0  0  0  0  0  0
   12.4283  -23.1200   23.8766 N   0  0  0  0  0  0  0  0  0  0  0  0
   10.1823  -16.6675   24.1807 C   0  0  0  0  0  0  0  0  0  0  0  0
   10.0957  -15.4476   24.0245 O   0  0  0  0  0  0  0  0  0  0  0  0
   10.6302  -17.1103   25.4713 N   0  0  0  0  0  0  0  0  0  0  0  0
   10.0138  -16.6628   26.7084 C   0  0  1  0  0  0  0  0  0  0  0  0
    8.5514  -16.8279   26.7187 C   0  0  0  0  0  0  0  0  0  0  0  0
    7.7651  -15.6589   26.2683 C   0  0  0  0  0  0  0  0  0  0  0  0
    6.7179  -15.7445   25.3349 C   0  0  0  0  0  0  0  0  0  0  0  0
    6.2493  -14.5289   25.1193 N   0  0  0  0  0  0  0  0  0  0  0  0
    6.9275  -13.6437   25.8592 C   0  0  0  0  0  0  0  0  0  0  0  0
    6.8236  -12.2601   26.0103 C   0  0  0  0  0  0  0  0  0  0  0  0
    7.6754  -11.6327   26.8816 C   0  0  0  0  0  0  0  0  0  0  0  0
    8.6309  -12.3310   27.6114 C   0  0  0  0  0  0  0  0  0  0  0  0
    8.7279  -13.6817   27.4586 C   0  0  0  0  0  0  0  0  0  0  0  0
    7.8754  -14.3297   26.5818 C   0  0  0  0  0  0  0  0  0  0  0  0
   10.7819  -17.1731   27.8495 C   0  0  0  0  0  0  0  0  0  0  0  0
   11.8525  -18.0523   27.7481 O   0  0  0  0  0  0  0  0  0  0  0  0
   10.4795  -16.8186   29.0245 O   0  0  0  0  0  0  0  0  0  0  0  0
  2  3  1  1
  2  1  1  0
  4  2  1  0
  5  6  1  6
  5  4  1  0
  7  5  1  0
  8  7  2  0
  9  7  1  0
 10 16  1  0
 10  9  1  0
 10 11  1  6
 12 11  1  0
 13 14  1  0
 13 12  1  0
 15 14  1  0
 16 18  1  0
 17 16  2  0
 18 19  1  0
 19 20  1  1
 20 21  1  0
 21 29  1  0
 21 22  2  0
 22 23  1  0
 24 25  2  0
 24 23  1  0
 26 25  1  0
 27 26  2  0
 28 27  1  0
 28 29  2  0
 29 24  1  0
 30 31  1  0
 30 19  1  0
 32 30  2  0
M  END
$$$$
