LKW.pdb
     RDKit          3D

 32 33  0  0  1  0  0  0  0  0999 V2000
    6.3932  -22.0146   25.6805 C   0  0  0  0  0  0  0  0  0  0  0  0
    6.0133  -21.4240   24.3373 C   0  0  1  0  0  0  0  0  0  0  0  0
    4.5453  -20.9926   24.3729 C   0  0  0  0  0  0  0  0  0  0  0  0
    6.8056  -20.1867   24.0501 C   0  0  0  0  0  0  0  0  0  0  0  0
    6.3709  -19.5299   22.7674 C   0  0  2  0  0  0  0  0  0  0  0  0
    6.3709  -20.5870   21.7336 N   0  0  0  0  0  0  0  0  0  0  0  0
    7.3797  -18.5019   22.3433 C   0  0  0  0  0  0  0  0  0  0  0  0
    8.6133  -18.7518   22.3361 O   0  0  0  0  0  0  0  0  0  0  0  0
    6.9625  -17.2172   21.9371 N   0  0  0  0  0  0  0  0  0  0  0  0
    8.0472  -16.2342   21.5515 C   0  0  1  0  0  0  0  0  0  0  0  0
    7.3958  -15.1700   20.7607 C   0  0  0  0  0  0  0  0  0  0  0  0
    8.0781  -14.2497   19.8720 C   0  0  0  0  0  0  0  0  0  0  0  0
    7.3734  -13.5979   18.7531 C   0  0  0  0  0  0  0  0  0  0  0  0
    8.4164  -12.8160   17.9045 C   0  0  0  0  0  0  0  0  0  0  0  0
    7.7319  -12.3803   16.7076 N   0  0  0  0  0  0  0  0  0  0  0  0
    8.4343  -15.7267   22.9018 C   0  0  0  0  0  0  0  0  0  0  0  0
    7.9366  -14.6822   23.3272 O   0  0  0  0  0  0  0  0  0  0  0  0
    9.3713  -16.3816   23.7710 N   0  0  0  0  0  0  0  0  0  0  0  0
   10.1120  -15.6710   24.7992 C   0  0  1  0  0  0  0  0  0  0  0  0
    9.4624  -15.7210   26.1189 C   0  0  0  0  0  0  0  0  0  0  0  0
    8.1553  -15.0366   26.2230 C   0  0  0  0  0  0  0  0  0  0  0  0
    6.9231  -15.7100   26.1649 C   0  0  0  0  0  0  0  0  0  0  0  0
    5.9540  -14.8169   26.2485 N   0  0  0  0  0  0  0  0  0  0  0  0
    6.4766  -13.5899   26.3600 C   0  0  0  0  0  0  0  0  0  0  0  0
    5.9014  -12.3250   26.4909 C   0  0  0  0  0  0  0  0  0  0  0  0
    6.7303  -11.2394   26.6041 C   0  0  0  0  0  0  0  0  0  0  0  0
    8.1151  -11.3636   26.5919 C   0  0  0  0  0  0  0  0  0  0  0  0
    8.6704  -12.6014   26.4627 C   0  0  0  0  0  0  0  0  0  0  0  0
    7.8467  -13.7074   26.3465 C   0  0  0  0  0  0  0  0  0  0  0  0
   11.5338  -16.0211   24.7073 C   0  0  0  0  0  0  0  0  0  0  0  0
   12.0670  -16.9136   23.7861 O   0  0  0  0  0  0  0  0  0  0  0  0
   12.3655  -15.5024   25.5053 O   0  0  0  0  0  0  0  0  0  0  0  0
  2  3  1  1
  2  1  1  0
  4  2  1  0
  5  6  1  6
  5  4  1  0
  7  5  1  0
  8  7  2  0
  9  7  1  0
 10 16  1  0
 10  9  1  0
 10 11  1  6
 12 11  1  0
 13 14  1  0
 13 12  1  0
 15 14  1  0
 16 18  1  0
 17 16  2  0
 18 19  1  0
 19 20  1  1
 20 21  1  0
 21 29  1  0
 21 22  2  0
 22 23  1  0
 24 25  2  0
 24 23  1  0
 26 25  1  0
 27 26  2  0
 28 27  1  0
 28 29  2  0
 29 24  1  0
 30 31  1  0
 30 19  1  0
 32 30  2  0
M  END
$$$$
