LKW.pdb
     RDKit          3D

 32 33  0  0  1  0  0  0  0  0999 V2000
    7.7822  -11.6411   20.3734 C   0  0  0  0  0  0  0  0  0  0  0  0
    7.8097  -13.0672   19.8608 C   0  0  1  0  0  0  0  0  0  0  0  0
    8.8909  -13.1960   18.7854 C   0  0  0  0  0  0  0  0  0  0  0  0
    8.1871  -14.0230   20.9494 C   0  0  0  0  0  0  0  0  0  0  0  0
    8.1640  -15.4506   20.4725 C   0  0  2  0  0  0  0  0  0  0  0  0
    6.7499  -15.7751   20.1877 N   0  0  0  0  0  0  0  0  0  0  0  0
    8.6128  -16.3714   21.5702 C   0  0  0  0  0  0  0  0  0  0  0  0
    7.8003  -16.8473   22.4055 O   0  0  0  0  0  0  0  0  0  0  0  0
    9.9717  -16.7296   21.6909 N   0  0  0  0  0  0  0  0  0  0  0  0
   10.3092  -17.8101   22.6960 C   0  0  1  0  0  0  0  0  0  0  0  0
   11.6427  -18.3300   22.3304 C   0  0  0  0  0  0  0  0  0  0  0  0
   11.8942  -19.4043   21.3897 C   0  0  0  0  0  0  0  0  0  0  0  0
   13.0112  -19.3387   20.4299 C   0  0  0  0  0  0  0  0  0  0  0  0
   12.8983  -20.5506   19.4613 C   0  0  0  0  0  0  0  0  0  0  0  0
   14.0137  -20.4533   18.5462 N   0  0  0  0  0  0  0  0  0  0  0  0
   10.3847  -16.9938   23.9443 C   0  0  0  0  0  0  0  0  0  0  0  0
   10.9907  -15.9202   23.9361 O   0  0  0  0  0  0  0  0  0  0  0  0
    9.7876  -17.3742   25.1938 N   0  0  0  0  0  0  0  0  0  0  0  0
   10.1523  -16.7530   26.4555 C   0  0  1  0  0  0  0  0  0  0  0  0
    8.9884  -16.4014   27.2848 C   0  0  0  0  0  0  0  0  0  0  0  0
    7.9043  -15.6649   26.5992 C   0  0  0  0  0  0  0  0  0  0  0  0
    6.8520  -16.2975   25.9154 C   0  0  0  0  0  0  0  0  0  0  0  0
    6.0787  -15.3676   25.3854 N   0  0  0  0  0  0  0  0  0  0  0  0
    6.5602  -14.1545   25.6815 C   0  0  0  0  0  0  0  0  0  0  0  0
    6.1212  -12.8638   25.3830 C   0  0  0  0  0  0  0  0  0  0  0  0
    6.8442  -11.8017   25.8601 C   0  0  0  0  0  0  0  0  0  0  0  0
    7.9918  -11.9744   26.6259 C   0  0  0  0  0  0  0  0  0  0  0  0
    8.4156  -13.2373   26.9130 C   0  0  0  0  0  0  0  0  0  0  0  0
    7.6969  -14.3202   26.4376 C   0  0  0  0  0  0  0  0  0  0  0  0
   11.2470  -17.5092   27.0738 C   0  0  0  0  0  0  0  0  0  0  0  0
   11.7646  -18.6970   26.5732 O   0  0  0  0  0  0  0  0  0  0  0  0
   11.7819  -17.0901   28.1396 O   0  0  0  0  0  0  0  0  0  0  0  0
  2  3  1  6
  2  1  1  0
  4  2  1  0
  5  6  1  1
  5  4  1  0
  7  5  1  0
  8  7  2  0
  9  7  1  0
 10 16  1  0
 10  9  1  0
 10 11  1  6
 12 11  1  0
 13 14  1  0
 13 12  1  0
 15 14  1  0
 16 18  1  0
 17 16  2  0
 18 19  1  0
 19 20  1  1
 20 21  1  0
 21 29  1  0
 21 22  2  0
 22 23  1  0
 24 25  2  0
 24 23  1  0
 26 25  1  0
 27 26  2  0
 28 27  1  0
 28 29  2  0
 29 24  1  0
 30 31  1  0
 30 19  1  0
 32 30  2  0
M  END
$$$$
