LKW.pdb
     RDKit          3D

 32 33  0  0  1  0  0  0  0  0999 V2000
    6.4353  -12.5595   18.7683 C   0  0  0  0  0  0  0  0  0  0  0  0
    7.7403  -13.3077   18.9536 C   0  0  1  0  0  0  0  0  0  0  0  0
    8.8682  -12.3022   19.1972 C   0  0  0  0  0  0  0  0  0  0  0  0
    7.6912  -14.1827   20.1674 C   0  0  0  0  0  0  0  0  0  0  0  0
    9.0557  -14.6962   20.5418 C   0  0  2  0  0  0  0  0  0  0  0  0
    9.6511  -15.2461   19.3051 N   0  0  0  0  0  0  0  0  0  0  0  0
    8.9329  -15.8345   21.5131 C   0  0  0  0  0  0  0  0  0  0  0  0
    8.0046  -15.8802   22.3619 O   0  0  0  0  0  0  0  0  0  0  0  0
    9.8660  -16.8921   21.4955 N   0  0  0  0  0  0  0  0  0  0  0  0
    9.6389  -18.0231   22.4756 C   0  0  1  0  0  0  0  0  0  0  0  0
   10.4723  -19.1547   22.0204 C   0  0  0  0  0  0  0  0  0  0  0  0
   10.3530  -19.8203   20.7379 C   0  0  0  0  0  0  0  0  0  0  0  0
   11.3539  -20.8046   20.2876 C   0  0  0  0  0  0  0  0  0  0  0  0
   10.9887  -21.2506   18.8428 C   0  0  0  0  0  0  0  0  0  0  0  0
   12.0309  -22.1570   18.4146 N   0  0  0  0  0  0  0  0  0  0  0  0
   10.2068  -17.4144   23.7157 C   0  0  0  0  0  0  0  0  0  0  0  0
   11.3256  -16.8974   23.6849 O   0  0  0  0  0  0  0  0  0  0  0  0
    9.5296  -17.3836   24.9817 N   0  0  0  0  0  0  0  0  0  0  0  0
   10.1022  -16.7538   26.1591 C   0  0  1  0  0  0  0  0  0  0  0  0
    9.8960  -15.2970   26.1938 C   0  0  0  0  0  0  0  0  0  0  0  0
    8.4999  -14.8371   26.0289 C   0  0  0  0  0  0  0  0  0  0  0  0
    7.4323  -15.6994   25.7256 C   0  0  0  0  0  0  0  0  0  0  0  0
    6.3325  -14.9782   25.6081 N   0  0  0  0  0  0  0  0  0  0  0  0
    6.6127  -13.6865   25.8180 C   0  0  0  0  0  0  0  0  0  0  0  0
    5.8225  -12.5361   25.8250 C   0  0  0  0  0  0  0  0  0  0  0  0
    6.4215  -11.3342   26.0990 C   0  0  0  0  0  0  0  0  0  0  0  0
    7.7819  -11.2318   26.3675 C   0  0  0  0  0  0  0  0  0  0  0  0
    8.5481  -12.3587   26.3581 C   0  0  0  0  0  0  0  0  0  0  0  0
    7.9581  -13.5798   26.0822 C   0  0  0  0  0  0  0  0  0  0  0  0
    9.7538  -17.5367   27.3501 C   0  0  0  0  0  0  0  0  0  0  0  0
   10.3413  -17.3749   28.5983 O   0  0  0  0  0  0  0  0  0  0  0  0
    8.8670  -18.4346   27.2793 O   0  0  0  0  0  0  0  0  0  0  0  0
  2  3  1  1
  2  1  1  0
  4  2  1  0
  5  6  1  6
  5  4  1  0
  7  5  1  0
  8  7  2  0
  9  7  1  0
 10 16  1  0
 10  9  1  0
 10 11  1  6
 12 11  1  0
 13 14  1  0
 13 12  1  0
 15 14  1  0
 16 18  1  0
 17 16  2  0
 18 19  1  0
 19 20  1  1
 20 21  1  0
 21 29  1  0
 21 22  2  0
 22 23  1  0
 24 25  2  0
 24 23  1  0
 26 25  1  0
 27 26  2  0
 28 27  1  0
 28 29  2  0
 29 24  1  0
 30 31  1  0
 30 19  1  0
 32 30  2  0
M  END
$$$$
