LKW.pdb
     RDKit          3D

 32 33  0  0  1  0  0  0  0  0999 V2000
    7.0934  -12.2548   19.7243 C   0  0  0  0  0  0  0  0  0  0  0  0
    7.7525  -13.4648   19.0929 C   0  0  1  0  0  0  0  0  0  0  0  0
    9.1369  -13.0712   18.5725 C   0  0  0  0  0  0  0  0  0  0  0  0
    7.9781  -14.5443   20.1053 C   0  0  0  0  0  0  0  0  0  0  0  0
    8.6633  -15.7414   19.5027 C   0  0  2  0  0  0  0  0  0  0  0  0
    7.6182  -16.5103   18.7936 N   0  0  0  0  0  0  0  0  0  0  0  0
    9.2026  -16.6302   20.5860 C   0  0  0  0  0  0  0  0  0  0  0  0
    8.4406  -17.3083   21.3234 O   0  0  0  0  0  0  0  0  0  0  0  0
   10.5928  -16.7275   20.8036 N   0  0  0  0  0  0  0  0  0  0  0  0
   11.0482  -17.6199   21.9385 C   0  0  1  0  0  0  0  0  0  0  0  0
   12.4311  -18.0343   21.6255 C   0  0  0  0  0  0  0  0  0  0  0  0
   13.2370  -18.9358   22.4256 C   0  0  0  0  0  0  0  0  0  0  0  0
   14.5814  -19.3556   21.9900 C   0  0  0  0  0  0  0  0  0  0  0  0
   15.1912  -20.2698   23.0908 C   0  0  0  0  0  0  0  0  0  0  0  0
   16.5755  -20.4825   22.7309 N   0  0  0  0  0  0  0  0  0  0  0  0
   11.0328  -16.6403   23.0658 C   0  0  0  0  0  0  0  0  0  0  0  0
   11.2597  -15.4492   22.8427 O   0  0  0  0  0  0  0  0  0  0  0  0
   10.7659  -16.9887   24.4331 N   0  0  0  0  0  0  0  0  0  0  0  0
    9.8337  -16.2438   25.2618 C   0  0  1  0  0  0  0  0  0  0  0  0
    8.6012  -15.8675   24.5510 C   0  0  0  0  0  0  0  0  0  0  0  0
    7.6250  -15.0709   25.3258 C   0  0  0  0  0  0  0  0  0  0  0  0
    6.3531  -15.5463   25.6883 C   0  0  0  0  0  0  0  0  0  0  0  0
    5.7169  -14.5871   26.3355 N   0  0  0  0  0  0  0  0  0  0  0  0
    6.4976  -13.5036   26.4224 C   0  0  0  0  0  0  0  0  0  0  0  0
    6.3137  -12.2494   27.0063 C   0  0  0  0  0  0  0  0  0  0  0  0
    7.3376  -11.3409   26.9381 C   0  0  0  0  0  0  0  0  0  0  0  0
    8.5426  -11.6328   26.3087 C   0  0  0  0  0  0  0  0  0  0  0  0
    8.7155  -12.8589   25.7396 C   0  0  0  0  0  0  0  0  0  0  0  0
    7.6904  -13.7868   25.7993 C   0  0  0  0  0  0  0  0  0  0  0  0
    9.7133  -16.8970   26.5700 C   0  0  0  0  0  0  0  0  0  0  0  0
    9.4892  -18.2554   26.7543 O   0  0  0  0  0  0  0  0  0  0  0  0
    9.8083  -16.2135   27.6291 O   0  0  0  0  0  0  0  0  0  0  0  0
  2  3  1  1
  2  1  1  0
  4  2  1  0
  5  6  1  1
  5  4  1  0
  7  5  1  0
  8  7  2  0
  9  7  1  0
 10 16  1  0
 10  9  1  0
 10 11  1  6
 12 11  1  0
 13 14  1  0
 13 12  1  0
 15 14  1  0
 16 18  1  0
 17 16  2  0
 18 19  1  0
 19 20  1  6
 20 21  1  0
 21 29  1  0
 21 22  2  0
 22 23  1  0
 24 25  2  0
 24 23  1  0
 26 25  1  0
 27 26  2  0
 28 27  1  0
 28 29  2  0
 29 24  1  0
 30 31  1  0
 30 19  1  0
 32 30  2  0
M  END
$$$$
