PRC.pdb
     RDKit          3D

 25 25  0  0  1  0  0  0  0  0999 V2000
    7.8258  -15.1400   18.7829 N   0  0  0  0  0  0  0  0  0  0  0  0
    7.6838  -14.2168   17.7040 C   0  0  0  0  0  0  0  0  0  0  0  0
    7.7047  -12.8252   18.2582 C   0  0  0  0  0  0  0  0  0  0  0  0
    8.0274  -13.0311   19.7004 C   0  0  0  0  0  0  0  0  0  0  0  0
    8.3179  -14.4668   19.9397 C   0  0  1  0  0  0  0  0  0  0  0  0
    7.7909  -14.9833   21.2195 C   0  0  0  0  0  0  0  0  0  0  0  0
    6.5274  -15.0788   21.2989 O   0  0  0  0  0  0  0  0  0  0  0  0
    7.8908  -22.0351   27.3850 N   0  0  0  0  0  0  0  0  0  0  0  0
    7.6095  -20.6933   26.9219 C   0  0  0  0  0  0  0  0  0  0  0  0
    6.4130  -20.3714   26.8170 N   0  0  0  0  0  0  0  0  0  0  0  0
    8.6572  -19.8019   26.6051 N   0  0  0  0  0  0  0  0  0  0  0  0
    8.8329  -19.0780   25.4117 C   0  0  0  0  0  0  0  0  0  0  0  0
    8.1672  -17.7718   25.2221 C   0  0  0  0  0  0  0  0  0  0  0  0
    8.6072  -17.1801   23.8911 C   0  0  0  0  0  0  0  0  0  0  0  0
    8.0154  -15.8592   23.5902 C   0  0  2  0  0  0  0  0  0  0  0  0
    8.5553  -15.3670   22.3260 N   0  0  0  0  0  0  0  0  0  0  0  0
    8.4624  -14.9008   24.6694 C   0  0  0  0  0  0  0  0  0  0  0  0
    9.6418  -14.5528   24.7485 O   0  0  0  0  0  0  0  0  0  0  0  0
    6.0152  -19.5269   26.4698 N   0  0  0  0  0  0  0  0  0  0  0  0
    7.5072  -14.4226   25.5700 C   0  0  2  0  0  0  0  0  0  0  0  0
    7.7931  -13.5451   26.6820 C   0  0  0  0  0  0  0  0  0  0  0  0
    6.5924  -12.8470   27.2148 S   0  0  0  0  0  0  0  0  0  0  0  0
    5.8308  -11.9105   25.8576 C   0  0  0  0  0  0  0  0  0  0  0  0
    8.4232  -14.3201   27.7594 O   0  0  0  0  0  0  0  0  0  0  0  0
    8.8607  -13.7255   28.9118 O   0  0  0  0  0  0  0  0  0  0  0  0
  1  2  1  0
  3  2  1  0
  4  3  1  0
  5  4  1  0
  5  1  1  0
  6 16  1  0
  5  6  1  1
  7  6  2  0
  9  8  1  0
  9 11  1  0
 10  9  2  0
 12 11  1  0
 13 12  1  0
 14 13  1  0
 15 14  1  1
 15 16  1  0
 17 18  2  0
 17 15  1  0
 19 17  1  0
 20 23  1  0
 20 19  1  0
 20 21  1  6
 22 21  1  0
 23 24  1  0
 25 23  2  0
M  END
$$$$
