PRC.pdb
     RDKit          3D

 25 25  0  0  1  0  0  0  0  0999 V2000
    8.7932  -15.1493   19.5968 N   0  0  0  0  0  0  0  0  0  0  0  0
    8.5670  -14.9052   18.2091 C   0  0  0  0  0  0  0  0  0  0  0  0
    7.7238  -13.6748   18.0702 C   0  0  0  0  0  0  0  0  0  0  0  0
    7.6286  -13.1602   19.4676 C   0  0  0  0  0  0  0  0  0  0  0  0
    8.4939  -13.9782   20.3535 C   0  0  1  0  0  0  0  0  0  0  0  0
    7.9139  -14.2419   21.6864 C   0  0  0  0  0  0  0  0  0  0  0  0
    7.6454  -13.2165   22.3852 O   0  0  0  0  0  0  0  0  0  0  0  0
    7.7870  -21.3028   28.1405 N   0  0  0  0  0  0  0  0  0  0  0  0
    7.6649  -20.7493   26.8090 C   0  0  0  0  0  0  0  0  0  0  0  0
    8.4100  -21.2196   25.9315 N   0  0  0  0  0  0  0  0  0  0  0  0
    6.7384  -19.7203   26.5346 N   0  0  0  0  0  0  0  0  0  0  0  0
    6.5334  -19.0580   25.3105 C   0  0  0  0  0  0  0  0  0  0  0  0
    6.6471  -17.5867   25.2256 C   0  0  0  0  0  0  0  0  0  0  0  0
    7.0949  -17.2044   23.8225 C   0  0  0  0  0  0  0  0  0  0  0  0
    7.1445  -15.7472   23.5785 C   0  0  2  0  0  0  0  0  0  0  0  0
    7.6429  -15.5025   22.2280 N   0  0  0  0  0  0  0  0  0  0  0  0
    8.1501  -15.1562   24.5390 C   0  0  0  0  0  0  0  0  0  0  0  0
    9.3585  -15.2537   24.3187 O   0  0  0  0  0  0  0  0  0  0  0  0
    8.4700  -20.9881   24.9647 N   0  0  0  0  0  0  0  0  0  0  0  0
    7.6747  -14.4998   25.6771 C   0  0  2  0  0  0  0  0  0  0  0  0
    8.5131  -13.9226   26.7029 C   0  0  0  0  0  0  0  0  0  0  0  0
    7.8013  -12.9545   27.5799 S   0  0  0  0  0  0  0  0  0  0  0  0
    6.8294  -11.8404   26.5250 C   0  0  0  0  0  0  0  0  0  0  0  0
    9.0798  -14.9993   27.5263 O   0  0  0  0  0  0  0  0  0  0  0  0
    9.9810  -14.7433   28.5239 O   0  0  0  0  0  0  0  0  0  0  0  0
  1  2  1  0
  3  2  1  0
  4  3  1  0
  5  4  1  0
  5  1  1  0
  6 16  1  0
  5  6  1  1
  7  6  2  0
  9  8  1  0
  9 11  1  0
 10  9  2  0
 12 11  1  0
 13 12  1  0
 14 13  1  0
 15 14  1  1
 15 16  1  0
 17 18  2  0
 17 15  1  0
 19 17  1  0
 20 23  1  0
 20 19  1  0
 20 21  1  6
 22 21  1  0
 23 24  1  0
 25 23  2  0
M  END
$$$$
