PRC.pdb
     RDKit          3D

 25 25  0  0  1  0  0  0  0  0999 V2000
    8.9314  -14.7861   19.4305 N   0  0  0  0  0  0  0  0  0  0  0  0
    8.5376  -14.4955   18.0900 C   0  0  0  0  0  0  0  0  0  0  0  0
    7.5071  -13.4087   18.1182 C   0  0  0  0  0  0  0  0  0  0  0  0
    7.4698  -13.0034   19.5537 C   0  0  0  0  0  0  0  0  0  0  0  0
    8.5312  -13.7267   20.2973 C   0  0  1  0  0  0  0  0  0  0  0  0
    8.1298  -14.1614   21.6509 C   0  0  0  0  0  0  0  0  0  0  0  0
    7.7541  -13.2396   22.4389 O   0  0  0  0  0  0  0  0  0  0  0  0
    7.2292  -20.5049   27.2531 N   0  0  0  0  0  0  0  0  0  0  0  0
    7.2761  -20.9693   25.8834 C   0  0  0  0  0  0  0  0  0  0  0  0
    7.8327  -22.0619   25.6764 N   0  0  0  0  0  0  0  0  0  0  0  0
    6.7129  -20.2041   24.8395 N   0  0  0  0  0  0  0  0  0  0  0  0
    6.4630  -18.8197   24.8325 C   0  0  0  0  0  0  0  0  0  0  0  0
    7.5702  -17.8569   25.0119 C   0  0  0  0  0  0  0  0  0  0  0  0
    7.9834  -17.3179   23.6503 C   0  0  0  0  0  0  0  0  0  0  0  0
    7.6141  -15.9049   23.4206 C   0  0  2  0  0  0  0  0  0  0  0  0
    8.1305  -15.4777   22.1234 N   0  0  0  0  0  0  0  0  0  0  0  0
    8.3092  -15.0732   24.4733 C   0  0  0  0  0  0  0  0  0  0  0  0
    9.5326  -14.9280   24.4494 O   0  0  0  0  0  0  0  0  0  0  0  0
    7.9262  -22.5708   24.8254 N   0  0  0  0  0  0  0  0  0  0  0  0
    7.5311  -14.4767   25.4687 C   0  0  2  0  0  0  0  0  0  0  0  0
    8.0561  -13.6856   26.5582 C   0  0  0  0  0  0  0  0  0  0  0  0
    7.0221  -12.8816   27.2635 S   0  0  0  0  0  0  0  0  0  0  0  0
    6.0848  -11.9457   26.0209 C   0  0  0  0  0  0  0  0  0  0  0  0
    8.7235  -14.5721   27.5211 O   0  0  0  0  0  0  0  0  0  0  0  0
    9.4193  -14.0779   28.5910 O   0  0  0  0  0  0  0  0  0  0  0  0
  1  2  1  0
  3  2  1  0
  4  3  1  0
  5  4  1  0
  5  1  1  0
  6 16  1  0
  5  6  1  1
  7  6  2  0
  9  8  1  0
  9 11  1  0
 10  9  2  0
 12 11  1  0
 13 12  1  0
 14 13  1  0
 15 14  1  1
 15 16  1  0
 17 18  2  0
 17 15  1  0
 19 17  1  0
 20 23  1  0
 20 19  1  0
 20 21  1  6
 22 21  1  0
 23 24  1  0
 25 23  2  0
M  END
$$$$
