PRC.pdb
     RDKit          3D

 25 25  0  0  1  0  0  0  0  0999 V2000
    8.8702  -14.6213   19.4921 N   0  0  0  0  0  0  0  0  0  0  0  0
    8.4766  -14.2766   18.1643 C   0  0  0  0  0  0  0  0  0  0  0  0
    7.3607  -13.2798   18.2389 C   0  0  0  0  0  0  0  0  0  0  0  0
    7.2665  -12.9731   19.6961 C   0  0  0  0  0  0  0  0  0  0  0  0
    8.3707  -13.6560   20.4154 C   0  0  1  0  0  0  0  0  0  0  0  0
    7.9833  -14.2086   21.7295 C   0  0  0  0  0  0  0  0  0  0  0  0
    7.4361  -13.3921   22.5331 O   0  0  0  0  0  0  0  0  0  0  0  0
    5.2458  -20.3746   24.7207 N   0  0  0  0  0  0  0  0  0  0  0  0
    6.4091  -20.6692   25.5295 C   0  0  0  0  0  0  0  0  0  0  0  0
    6.2059  -21.0062   26.7091 N   0  0  0  0  0  0  0  0  0  0  0  0
    7.7098  -20.5717   24.9901 N   0  0  0  0  0  0  0  0  0  0  0  0
    8.5432  -19.4385   24.9663 C   0  0  0  0  0  0  0  0  0  0  0  0
    7.9611  -18.0800   24.9360 C   0  0  0  0  0  0  0  0  0  0  0  0
    8.2419  -17.4509   23.5794 C   0  0  0  0  0  0  0  0  0  0  0  0
    7.7320  -16.0708   23.4345 C   0  0  2  0  0  0  0  0  0  0  0  0
    8.1670  -15.5297   22.1500 N   0  0  0  0  0  0  0  0  0  0  0  0
    8.3743  -15.2299   24.5132 C   0  0  0  0  0  0  0  0  0  0  0  0
    9.5899  -15.0282   24.5091 O   0  0  0  0  0  0  0  0  0  0  0  0
    6.8537  -21.3288   27.3933 N   0  0  0  0  0  0  0  0  0  0  0  0
    7.5567  -14.6903   25.5094 C   0  0  2  0  0  0  0  0  0  0  0  0
    7.9989  -13.7537   26.5172 C   0  0  0  0  0  0  0  0  0  0  0  0
    6.8893  -12.9924   27.1515 S   0  0  0  0  0  0  0  0  0  0  0  0
    5.8607  -12.2832   25.8333 C   0  0  0  0  0  0  0  0  0  0  0  0
    8.7473  -14.4772   27.5540 O   0  0  0  0  0  0  0  0  0  0  0  0
    9.3460  -13.8237   28.5968 O   0  0  0  0  0  0  0  0  0  0  0  0
  1  2  1  0
  3  2  1  0
  4  3  1  0
  5  4  1  0
  5  1  1  0
  6 16  1  0
  5  6  1  1
  7  6  2  0
  9  8  1  0
  9 11  1  0
 10  9  2  0
 12 11  1  0
 13 12  1  0
 14 13  1  0
 15 14  1  1
 15 16  1  0
 17 18  2  0
 17 15  1  0
 19 17  1  0
 20 23  1  0
 20 19  1  0
 20 21  1  6
 22 21  1  0
 23 24  1  0
 25 23  2  0
M  END
$$$$
