PRC.pdb
     RDKit          3D

 25 25  0  0  1  0  0  0  0  0999 V2000
    8.8928  -14.5398   19.3561 N   0  0  0  0  0  0  0  0  0  0  0  0
    8.5173  -14.2250   18.0157 C   0  0  0  0  0  0  0  0  0  0  0  0
    7.4893  -13.1358   18.0494 C   0  0  0  0  0  0  0  0  0  0  0  0
    7.4344  -12.7553   19.4911 C   0  0  0  0  0  0  0  0  0  0  0  0
    8.4841  -13.4945   20.2358 C   0  0  1  0  0  0  0  0  0  0  0  0
    8.0639  -13.9513   21.5763 C   0  0  0  0  0  0  0  0  0  0  0  0
    7.5990  -13.0546   22.3455 O   0  0  0  0  0  0  0  0  0  0  0  0
    8.8103  -20.9010   21.3524 N   0  0  0  0  0  0  0  0  0  0  0  0
    7.5242  -20.6843   20.7255 C   0  0  0  0  0  0  0  0  0  0  0  0
    7.3802  -21.1160   19.5682 N   0  0  0  0  0  0  0  0  0  0  0  0
    6.4898  -20.0095   21.4090 N   0  0  0  0  0  0  0  0  0  0  0  0
    6.5978  -19.2481   22.5871 C   0  0  0  0  0  0  0  0  0  0  0  0
    6.5081  -17.7735   22.5379 C   0  0  0  0  0  0  0  0  0  0  0  0
    7.6170  -17.1808   23.3947 C   0  0  0  0  0  0  0  0  0  0  0  0
    7.6778  -15.7039   23.3700 C   0  0  2  0  0  0  0  0  0  0  0  0
    8.1355  -15.2633   22.0553 N   0  0  0  0  0  0  0  0  0  0  0  0
    8.7215  -15.2719   24.3736 C   0  0  0  0  0  0  0  0  0  0  0  0
    9.9199  -15.4421   24.1432 O   0  0  0  0  0  0  0  0  0  0  0  0
    6.5825  -21.0724   18.9735 N   0  0  0  0  0  0  0  0  0  0  0  0
    8.2928  -14.6774   25.5631 C   0  0  2  0  0  0  0  0  0  0  0  0
    9.1720  -14.1866   26.5997 C   0  0  0  0  0  0  0  0  0  0  0  0
    8.8200  -12.8252   27.0849 S   0  0  0  0  0  0  0  0  0  0  0  0
    7.0263  -12.7679   27.3649 C   0  0  0  0  0  0  0  0  0  0  0  0
    9.1572  -15.1249   27.7301 O   0  0  0  0  0  0  0  0  0  0  0  0
   10.0330  -15.0058   28.7750 O   0  0  0  0  0  0  0  0  0  0  0  0
  1  2  1  0
  3  2  1  0
  4  3  1  0
  5  4  1  0
  5  1  1  0
  6 16  1  0
  5  6  1  1
  7  6  2  0
  9  8  1  0
  9 11  1  0
 10  9  2  0
 12 11  1  0
 13 12  1  0
 14 13  1  0
 15 14  1  6
 15 16  1  0
 17 18  2  0
 17 15  1  0
 19 17  1  0
 20 23  1  0
 20 19  1  0
 20 21  1  6
 22 21  1  0
 23 24  1  0
 25 23  2  0
M  END
$$$$
