PRC.pdb
     RDKit          3D

 25 25  0  0  1  0  0  0  0  0999 V2000
    9.3453  -14.6825   19.0873 N   0  0  0  0  0  0  0  0  0  0  0  0
    9.1093  -14.4548   17.6984 C   0  0  0  0  0  0  0  0  0  0  0  0
    7.9209  -13.5541   17.5556 C   0  0  0  0  0  0  0  0  0  0  0  0
    7.6077  -13.1675   18.9624 C   0  0  0  0  0  0  0  0  0  0  0  0
    8.6536  -13.7084   19.8660 C   0  0  1  0  0  0  0  0  0  0  0  0
    8.1356  -14.2102   21.1554 C   0  0  0  0  0  0  0  0  0  0  0  0
    7.4540  -13.3837   21.8367 O   0  0  0  0  0  0  0  0  0  0  0  0
    7.4896  -18.6011   27.9102 N   0  0  0  0  0  0  0  0  0  0  0  0
    8.5696  -19.4058   27.3809 C   0  0  0  0  0  0  0  0  0  0  0  0
    9.4984  -19.6863   28.1587 N   0  0  0  0  0  0  0  0  0  0  0  0
    8.5562  -19.8435   26.0390 N   0  0  0  0  0  0  0  0  0  0  0  0
    8.8052  -19.0760   24.8865 C   0  0  0  0  0  0  0  0  0  0  0  0
    8.0737  -17.8126   24.6543 C   0  0  0  0  0  0  0  0  0  0  0  0
    8.5123  -17.2239   23.3216 C   0  0  0  0  0  0  0  0  0  0  0  0
    7.8213  -15.9688   22.9570 C   0  0  2  0  0  0  0  0  0  0  0  0
    8.3316  -15.4941   21.6740 N   0  0  0  0  0  0  0  0  0  0  0  0
    8.1827  -14.9298   23.9929 C   0  0  0  0  0  0  0  0  0  0  0  0
    9.3212  -14.4609   24.0386 O   0  0  0  0  0  0  0  0  0  0  0  0
   10.2965  -20.2622   28.0062 N   0  0  0  0  0  0  0  0  0  0  0  0
    7.1959  -14.5177   24.8921 C   0  0  2  0  0  0  0  0  0  0  0  0
    7.3944  -13.5412   25.9388 C   0  0  0  0  0  0  0  0  0  0  0  0
    6.1513  -12.8222   26.3269 S   0  0  0  0  0  0  0  0  0  0  0  0
    6.5664  -11.6372   27.6392 C   0  0  0  0  0  0  0  0  0  0  0  0
    7.9601  -14.2071   27.1199 O   0  0  0  0  0  0  0  0  0  0  0  0
    8.8934  -13.5954   27.9122 O   0  0  0  0  0  0  0  0  0  0  0  0
  1  2  1  0
  3  2  1  0
  4  3  1  0
  5  4  1  0
  5  1  1  0
  6 16  1  0
  5  6  1  1
  7  6  2  0
  9  8  1  0
  9 11  1  0
 10  9  2  0
 12 11  1  0
 13 12  1  0
 14 13  1  0
 15 14  1  1
 15 16  1  0
 17 18  2  0
 17 15  1  0
 19 17  1  0
 20 23  1  0
 20 19  1  0
 20 21  1  1
 22 21  1  0
 23 24  1  0
 25 23  2  0
M  END
$$$$
