PRC.pdb
     RDKit          3D

 25 25  0  0  1  0  0  0  0  0999 V2000
    8.1242  -14.8815   19.4973 N   0  0  0  0  0  0  0  0  0  0  0  0
    7.7313  -14.3753   18.2221 C   0  0  0  0  0  0  0  0  0  0  0  0
    7.1306  -13.0160   18.4105 C   0  0  0  0  0  0  0  0  0  0  0  0
    7.3602  -12.7329   19.8574 C   0  0  0  0  0  0  0  0  0  0  0  0
    8.1810  -13.8196   20.4475 C   0  0  1  0  0  0  0  0  0  0  0  0
    7.7807  -14.2015   21.8173 C   0  0  0  0  0  0  0  0  0  0  0  0
    7.1379  -13.3229   22.4706 O   0  0  0  0  0  0  0  0  0  0  0  0
    8.9535  -21.1732   24.9933 N   0  0  0  0  0  0  0  0  0  0  0  0
    9.2156  -20.9448   23.5886 C   0  0  0  0  0  0  0  0  0  0  0  0
   10.2002  -21.5235   23.0965 N   0  0  0  0  0  0  0  0  0  0  0  0
    8.3832  -20.0986   22.8247 N   0  0  0  0  0  0  0  0  0  0  0  0
    7.1362  -19.5635   23.1959 C   0  0  0  0  0  0  0  0  0  0  0  0
    6.8381  -18.1327   22.9741 C   0  0  0  0  0  0  0  0  0  0  0  0
    7.7108  -17.2958   23.8976 C   0  0  0  0  0  0  0  0  0  0  0  0
    7.5326  -15.8365   23.7416 C   0  0  2  0  0  0  0  0  0  0  0  0
    8.0472  -15.4259   22.4383 N   0  0  0  0  0  0  0  0  0  0  0  0
    8.3816  -15.1569   24.7906 C   0  0  0  0  0  0  0  0  0  0  0  0
    9.6082  -15.1235   24.6781 O   0  0  0  0  0  0  0  0  0  0  0  0
   10.5774  -21.4553   22.1773 N   0  0  0  0  0  0  0  0  0  0  0  0
    7.7412  -14.5707   25.8854 C   0  0  1  0  0  0  0  0  0  0  0  0
    8.4149  -13.8557   26.9451 C   0  0  0  0  0  0  0  0  0  0  0  0
    7.5388  -12.8934   27.6658 S   0  0  0  0  0  0  0  0  0  0  0  0
    6.6597  -11.8915   26.4321 C   0  0  0  0  0  0  0  0  0  0  0  0
    8.9685  -14.8216   27.9038 O   0  0  0  0  0  0  0  0  0  0  0  0
    9.8279  -14.4371   28.8970 O   0  0  0  0  0  0  0  0  0  0  0  0
  1  2  1  0
  3  2  1  0
  4  3  1  0
  5  4  1  0
  5  1  1  0
  6 16  1  0
  5  6  1  1
  7  6  2  0
  9  8  1  0
  9 11  1  0
 10  9  2  0
 12 11  1  0
 13 12  1  0
 14 13  1  0
 15 14  1  1
 15 16  1  0
 17 18  2  0
 17 15  1  0
 19 17  1  0
 20 23  1  0
 20 19  1  0
 20 21  1  1
 22 21  1  0
 23 24  1  0
 25 23  2  0
M  END
$$$$
