PRC.pdb
     RDKit          3D

 25 25  0  0  1  0  0  0  0  0999 V2000
    8.7046  -14.9458   19.5525 N   0  0  0  0  0  0  0  0  0  0  0  0
    8.5008  -14.7074   18.1603 C   0  0  0  0  0  0  0  0  0  0  0  0
    7.5525  -13.5582   18.0047 C   0  0  0  0  0  0  0  0  0  0  0  0
    7.3661  -13.0708   19.4026 C   0  0  0  0  0  0  0  0  0  0  0  0
    8.2747  -13.8160   20.3092 C   0  0  1  0  0  0  0  0  0  0  0  0
    7.6796  -14.1474   21.6201 C   0  0  0  0  0  0  0  0  0  0  0  0
    7.2566  -13.1623   22.3001 O   0  0  0  0  0  0  0  0  0  0  0  0
    7.7681  -21.7597   26.2758 N   0  0  0  0  0  0  0  0  0  0  0  0
    7.0488  -20.7774   27.0581 C   0  0  0  0  0  0  0  0  0  0  0  0
    7.0571  -20.9230   28.2930 N   0  0  0  0  0  0  0  0  0  0  0  0
    6.3712  -19.7087   26.4327 N   0  0  0  0  0  0  0  0  0  0  0  0
    6.7170  -19.0624   25.2319 C   0  0  0  0  0  0  0  0  0  0  0  0
    6.8859  -17.5944   25.1921 C   0  0  0  0  0  0  0  0  0  0  0  0
    7.2429  -17.1751   23.7737 C   0  0  0  0  0  0  0  0  0  0  0  0
    7.0757  -15.7303   23.5089 C   0  0  2  0  0  0  0  0  0  0  0  0
    7.5480  -15.4307   22.1601 N   0  0  0  0  0  0  0  0  0  0  0  0
    7.9690  -14.9822   24.4708 C   0  0  0  0  0  0  0  0  0  0  0  0
    9.1894  -14.9584   24.3023 O   0  0  0  0  0  0  0  0  0  0  0  0
    6.6959  -20.3230   29.0012 N   0  0  0  0  0  0  0  0  0  0  0  0
    7.3767  -14.3218   25.5503 C   0  0  2  0  0  0  0  0  0  0  0  0
    8.1032  -13.6100   26.5768 C   0  0  0  0  0  0  0  0  0  0  0  0
    7.2617  -12.6598   27.3528 S   0  0  0  0  0  0  0  0  0  0  0  0
    6.2846  -11.6769   26.1790 C   0  0  0  0  0  0  0  0  0  0  0  0
    8.7159  -14.5791   27.4954 O   0  0  0  0  0  0  0  0  0  0  0  0
    9.5824  -14.1883   28.4799 O   0  0  0  0  0  0  0  0  0  0  0  0
  1  2  1  0
  3  2  1  0
  4  3  1  0
  5  4  1  0
  5  1  1  0
  6 16  1  0
  5  6  1  1
  7  6  2  0
  9  8  1  0
  9 11  1  0
 10  9  2  0
 12 11  1  0
 13 12  1  0
 14 13  1  0
 15 14  1  1
 15 16  1  0
 17 18  2  0
 17 15  1  0
 19 17  1  0
 20 23  1  0
 20 19  1  0
 20 21  1  6
 22 21  1  0
 23 24  1  0
 25 23  2  0
M  END
$$$$
