PRC.pdb
     RDKit          3D

 25 25  0  0  1  0  0  0  0  0999 V2000
    9.1636  -14.6074   19.5204 N   0  0  0  0  0  0  0  0  0  0  0  0
    8.4856  -14.1772   18.3405 C   0  0  0  0  0  0  0  0  0  0  0  0
    7.3750  -13.2530   18.7361 C   0  0  0  0  0  0  0  0  0  0  0  0
    7.5800  -13.0724   20.2030 C   0  0  0  0  0  0  0  0  0  0  0  0
    8.8356  -13.7500   20.6117 C   0  0  1  0  0  0  0  0  0  0  0  0
    8.7555  -14.4290   21.9213 C   0  0  0  0  0  0  0  0  0  0  0  0
    8.1775  -13.7795   22.8464 O   0  0  0  0  0  0  0  0  0  0  0  0
    9.0444  -21.9931   18.9851 N   0  0  0  0  0  0  0  0  0  0  0  0
    9.5953  -20.9740   19.8524 C   0  0  0  0  0  0  0  0  0  0  0  0
   10.4423  -20.2094   19.3580 N   0  0  0  0  0  0  0  0  0  0  0  0
    9.1815  -20.8666   21.1976 N   0  0  0  0  0  0  0  0  0  0  0  0
    9.5978  -19.9159   22.1473 C   0  0  0  0  0  0  0  0  0  0  0  0
    8.9654  -18.5809   22.1990 C   0  0  0  0  0  0  0  0  0  0  0  0
    9.5719  -17.7895   23.3483 C   0  0  0  0  0  0  0  0  0  0  0  0
    9.0510  -16.4119   23.4765 C   0  0  2  0  0  0  0  0  0  0  0  0
    9.2543  -15.7016   22.2171 N   0  0  0  0  0  0  0  0  0  0  0  0
    9.8780  -15.7055   24.5255 C   0  0  0  0  0  0  0  0  0  0  0  0
   10.9858  -15.2454   24.2441 O   0  0  0  0  0  0  0  0  0  0  0  0
   10.9888  -19.5036   19.7996 N   0  0  0  0  0  0  0  0  0  0  0  0
    9.3549  -15.5891   25.8158 C   0  0  1  0  0  0  0  0  0  0  0  0
    9.9962  -14.8834   26.9017 C   0  0  0  0  0  0  0  0  0  0  0  0
    9.1393  -13.8371   27.5213 S   0  0  0  0  0  0  0  0  0  0  0  0
   10.0709  -13.0704   28.8789 C   0  0  0  0  0  0  0  0  0  0  0  0
   10.4055  -15.8491   27.9305 O   0  0  0  0  0  0  0  0  0  0  0  0
   11.4448  -15.5939   28.7834 O   0  0  0  0  0  0  0  0  0  0  0  0
  1  2  1  0
  3  2  1  0
  4  3  1  0
  5  4  1  0
  5  1  1  0
  6 16  1  0
  5  6  1  1
  7  6  2  0
  9  8  1  0
  9 11  1  0
 10  9  2  0
 12 11  1  0
 13 12  1  0
 14 13  1  0
 15 14  1  6
 15 16  1  0
 17 18  2  0
 17 15  1  0
 19 17  1  0
 20 23  1  0
 20 19  1  0
 20 21  1  1
 22 21  1  0
 23 24  1  0
 25 23  2  0
M  END
$$$$
