PRC.pdb
     RDKit          3D

 25 25  0  0  1  0  0  0  0  0999 V2000
    8.6957  -14.8992   18.9664 N   0  0  0  0  0  0  0  0  0  0  0  0
    8.4425  -14.5845   17.5976 C   0  0  0  0  0  0  0  0  0  0  0  0
    7.5920  -13.3527   17.5384 C   0  0  0  0  0  0  0  0  0  0  0  0
    7.5210  -12.9117   18.9621 C   0  0  0  0  0  0  0  0  0  0  0  0
    8.4059  -13.7704   19.7882 C   0  0  1  0  0  0  0  0  0  0  0  0
    7.8520  -14.1057   21.1161 C   0  0  0  0  0  0  0  0  0  0  0  0
    7.5812  -13.1188   21.8675 O   0  0  0  0  0  0  0  0  0  0  0  0
   10.7244  -20.5869   23.1922 N   0  0  0  0  0  0  0  0  0  0  0  0
    9.7389  -20.6403   24.2504 C   0  0  0  0  0  0  0  0  0  0  0  0
   10.0785  -21.1940   25.3109 N   0  0  0  0  0  0  0  0  0  0  0  0
    8.4531  -20.0862   24.0712 N   0  0  0  0  0  0  0  0  0  0  0  0
    7.9697  -19.3927   22.9467 C   0  0  0  0  0  0  0  0  0  0  0  0
    8.2357  -17.9476   22.7854 C   0  0  0  0  0  0  0  0  0  0  0  0
    6.9562  -17.1738   23.0670 C   0  0  0  0  0  0  0  0  0  0  0  0
    7.0923  -15.7081   22.9308 C   0  0  2  0  0  0  0  0  0  0  0  0
    7.6075  -15.3944   21.6010 N   0  0  0  0  0  0  0  0  0  0  0  0
    8.1287  -15.2497   23.9302 C   0  0  0  0  0  0  0  0  0  0  0  0
    9.3262  -15.2613   23.6403 O   0  0  0  0  0  0  0  0  0  0  0  0
    9.5610  -21.3144   26.1532 N   0  0  0  0  0  0  0  0  0  0  0  0
    7.6942  -14.8148   25.1850 C   0  0  2  0  0  0  0  0  0  0  0  0
    8.5569  -14.2771   26.2121 C   0  0  0  0  0  0  0  0  0  0  0  0
    7.8757  -13.3151   27.1195 S   0  0  0  0  0  0  0  0  0  0  0  0
    9.0968  -12.6990   28.3145 C   0  0  0  0  0  0  0  0  0  0  0  0
    9.1127  -15.3828   27.0039 O   0  0  0  0  0  0  0  0  0  0  0  0
   10.3671  -15.3186   27.5473 O   0  0  0  0  0  0  0  0  0  0  0  0
  1  2  1  0
  3  2  1  0
  4  3  1  0
  5  4  1  0
  5  1  1  0
  6 16  1  0
  5  6  1  1
  7  6  2  0
  9  8  1  0
  9 11  1  0
 10  9  2  0
 12 11  1  0
 13 12  1  0
 14 13  1  0
 15 14  1  6
 15 16  1  0
 17 18  2  0
 17 15  1  0
 19 17  1  0
 20 23  1  0
 20 19  1  0
 20 21  1  1
 22 21  1  0
 23 24  1  0
 25 23  2  0
M  END
$$$$
