PRC.pdb
     RDKit          3D

 25 25  0  0  1  0  0  0  0  0999 V2000
    9.2957  -14.5433   19.4496 N   0  0  0  0  0  0  0  0  0  0  0  0
    8.7435  -14.1051   18.2088 C   0  0  0  0  0  0  0  0  0  0  0  0
    7.5217  -13.2854   18.4909 C   0  0  0  0  0  0  0  0  0  0  0  0
    7.5213  -13.1642   19.9781 C   0  0  0  0  0  0  0  0  0  0  0  0
    8.7634  -13.7681   20.5216 C   0  0  1  0  0  0  0  0  0  0  0  0
    8.5692  -14.5161   21.7808 C   0  0  0  0  0  0  0  0  0  0  0  0
    7.8911  -13.9244   22.6763 O   0  0  0  0  0  0  0  0  0  0  0  0
    8.9642  -18.8585   19.5174 N   0  0  0  0  0  0  0  0  0  0  0  0
    9.7219  -20.0742   19.7223 C   0  0  0  0  0  0  0  0  0  0  0  0
   10.2254  -20.6022   18.7153 N   0  0  0  0  0  0  0  0  0  0  0  0
    9.8720  -20.6251   21.0132 N   0  0  0  0  0  0  0  0  0  0  0  0
    9.3987  -20.0978   22.2285 C   0  0  0  0  0  0  0  0  0  0  0  0
    8.7159  -18.7872   22.2620 C   0  0  0  0  0  0  0  0  0  0  0  0
    9.4698  -17.8597   23.2036 C   0  0  0  0  0  0  0  0  0  0  0  0
    8.8830  -16.5079   23.3208 C   0  0  2  0  0  0  0  0  0  0  0  0
    9.0615  -15.7951   22.0590 N   0  0  0  0  0  0  0  0  0  0  0  0
    9.6678  -15.7577   24.3717 C   0  0  0  0  0  0  0  0  0  0  0  0
   10.7928  -15.3222   24.1209 O   0  0  0  0  0  0  0  0  0  0  0  0
   10.7603  -21.4392   18.6428 N   0  0  0  0  0  0  0  0  0  0  0  0
    9.0861  -15.5725   25.6285 C   0  0  2  0  0  0  0  0  0  0  0  0
    9.7025  -14.8558   26.7215 C   0  0  0  0  0  0  0  0  0  0  0  0
    8.7484  -14.0227   27.5017 S   0  0  0  0  0  0  0  0  0  0  0  0
    9.6669  -13.2117   28.8423 C   0  0  0  0  0  0  0  0  0  0  0  0
   10.3576  -15.8158   27.6203 O   0  0  0  0  0  0  0  0  0  0  0  0
   11.4236  -15.4584   28.4006 O   0  0  0  0  0  0  0  0  0  0  0  0
  1  2  1  0
  3  2  1  0
  4  3  1  0
  5  4  1  0
  5  1  1  0
  6 16  1  0
  5  6  1  1
  7  6  2  0
  9  8  1  0
  9 11  1  0
 10  9  2  0
 12 11  1  0
 13 12  1  0
 14 13  1  0
 15 14  1  6
 15 16  1  0
 17 18  2  0
 17 15  1  0
 19 17  1  0
 20 23  1  0
 20 19  1  0
 20 21  1  1
 22 21  1  0
 23 24  1  0
 25 23  2  0
M  END
$$$$
