PRC.pdb
     RDKit          3D

 25 25  0  0  1  0  0  0  0  0999 V2000
    8.7329  -14.7842   19.4802 N   0  0  0  0  0  0  0  0  0  0  0  0
    8.4590  -14.5388   18.1012 C   0  0  0  0  0  0  0  0  0  0  0  0
    7.4777  -13.4113   18.0009 C   0  0  0  0  0  0  0  0  0  0  0  0
    7.3452  -12.9405   19.4105 C   0  0  0  0  0  0  0  0  0  0  0  0
    8.3122  -13.6716   20.2668 C   0  0  1  0  0  0  0  0  0  0  0  0
    7.7867  -14.0282   21.6006 C   0  0  0  0  0  0  0  0  0  0  0  0
    7.3631  -13.0606   22.3049 O   0  0  0  0  0  0  0  0  0  0  0  0
   10.5897  -20.1568   26.0724 N   0  0  0  0  0  0  0  0  0  0  0  0
   10.9221  -19.8784   24.6918 C   0  0  0  0  0  0  0  0  0  0  0  0
   12.1223  -19.6900   24.4269 N   0  0  0  0  0  0  0  0  0  0  0  0
    9.9174  -19.8243   23.7017 N   0  0  0  0  0  0  0  0  0  0  0  0
    8.7145  -19.0959   23.7427 C   0  0  0  0  0  0  0  0  0  0  0  0
    8.7244  -17.6236   23.6110 C   0  0  0  0  0  0  0  0  0  0  0  0
    7.2927  -17.1115   23.6673 C   0  0  0  0  0  0  0  0  0  0  0  0
    7.1607  -15.6562   23.4434 C   0  0  2  0  0  0  0  0  0  0  0  0
    7.7201  -15.3178   22.1378 N   0  0  0  0  0  0  0  0  0  0  0  0
    8.0018  -14.9547   24.4844 C   0  0  0  0  0  0  0  0  0  0  0  0
    9.2273  -14.9024   24.3677 O   0  0  0  0  0  0  0  0  0  0  0  0
   12.5549  -19.5217   23.5457 N   0  0  0  0  0  0  0  0  0  0  0  0
    7.3554  -14.3704   25.5766 C   0  0  1  0  0  0  0  0  0  0  0  0
    8.0169  -13.6102   26.6123 C   0  0  0  0  0  0  0  0  0  0  0  0
    7.1026  -12.7146   27.3707 S   0  0  0  0  0  0  0  0  0  0  0  0
    6.0499  -11.8365   26.1793 C   0  0  0  0  0  0  0  0  0  0  0  0
    8.6758  -14.5350   27.5445 O   0  0  0  0  0  0  0  0  0  0  0  0
    9.5011  -14.0862   28.5397 O   0  0  0  0  0  0  0  0  0  0  0  0
  1  2  1  0
  3  2  1  0
  4  3  1  0
  5  4  1  0
  5  1  1  0
  6 16  1  0
  5  6  1  1
  7  6  2  0
  9  8  1  0
  9 11  1  0
 10  9  2  0
 12 11  1  0
 13 12  1  0
 14 13  1  0
 15 14  1  1
 15 16  1  0
 17 18  2  0
 17 15  1  0
 19 17  1  0
 20 23  1  0
 20 19  1  0
 20 21  1  1
 22 21  1  0
 23 24  1  0
 25 23  2  0
M  END
$$$$
