PRC.pdb
     RDKit          3D

 25 25  0  0  1  0  0  0  0  0999 V2000
    8.5730  -14.8125   19.4096 N   0  0  0  0  0  0  0  0  0  0  0  0
    8.1276  -14.3417   18.1381 C   0  0  0  0  0  0  0  0  0  0  0  0
    7.4258  -13.0324   18.3310 C   0  0  0  0  0  0  0  0  0  0  0  0
    7.6494  -12.7285   19.7746 C   0  0  0  0  0  0  0  0  0  0  0  0
    8.5584  -13.7469   20.3571 C   0  0  1  0  0  0  0  0  0  0  0  0
    8.2045  -14.1549   21.7322 C   0  0  0  0  0  0  0  0  0  0  0  0
    8.1690  -13.2229   22.5936 O   0  0  0  0  0  0  0  0  0  0  0  0
    2.6650  -19.8913   23.2261 N   0  0  0  0  0  0  0  0  0  0  0  0
    3.1932  -19.3705   21.9836 C   0  0  0  0  0  0  0  0  0  0  0  0
    2.3701  -18.9432   21.1552 N   0  0  0  0  0  0  0  0  0  0  0  0
    4.5829  -19.3570   21.7366 N   0  0  0  0  0  0  0  0  0  0  0  0
    5.5981  -18.8812   22.5864 C   0  0  0  0  0  0  0  0  0  0  0  0
    5.9299  -17.4413   22.6255 C   0  0  0  0  0  0  0  0  0  0  0  0
    7.1190  -17.2318   23.5514 C   0  0  0  0  0  0  0  0  0  0  0  0
    7.6658  -15.8584   23.5337 C   0  0  2  0  0  0  0  0  0  0  0  0
    7.9121  -15.4565   22.1518 N   0  0  0  0  0  0  0  0  0  0  0  0
    9.0042  -15.8895   24.2344 C   0  0  0  0  0  0  0  0  0  0  0  0
   10.0210  -15.4967   23.6598 O   0  0  0  0  0  0  0  0  0  0  0  0
    2.5277  -18.5607   20.2493 N   0  0  0  0  0  0  0  0  0  0  0  0
    9.0568  -16.3731   25.5442 C   0  0  2  0  0  0  0  0  0  0  0  0
    9.4338  -15.5860   26.6960 C   0  0  0  0  0  0  0  0  0  0  0  0
    8.5788  -14.3865   26.9042 S   0  0  0  0  0  0  0  0  0  0  0  0
    9.3155  -13.3869   28.2297 C   0  0  0  0  0  0  0  0  0  0  0  0
    9.3854  -16.4320   27.8962 O   0  0  0  0  0  0  0  0  0  0  0  0
    8.4515  -17.4218   28.0412 O   0  0  0  0  0  0  0  0  0  0  0  0
  1  2  1  0
  3  2  1  0
  4  3  1  0
  5  4  1  0
  5  1  1  0
  6 16  1  0
  5  6  1  1
  7  6  2  0
  9  8  1  0
  9 11  1  0
 10  9  2  0
 12 11  1  0
 13 12  1  0
 14 13  1  0
 15 14  1  6
 15 16  1  0
 17 18  2  0
 17 15  1  0
 19 17  1  0
 20 23  1  0
 20 19  1  0
 20 21  1  6
 22 21  1  0
 23 24  1  0
 25 23  2  0
M  END
$$$$
