PRC.pdb
     RDKit          3D

 25 25  0  0  1  0  0  0  0  0999 V2000
    8.9893  -15.0515   19.6066 N   0  0  0  0  0  0  0  0  0  0  0  0
    8.7561  -14.9662   18.2012 C   0  0  0  0  0  0  0  0  0  0  0  0
    7.5913  -14.0547   17.9632 C   0  0  0  0  0  0  0  0  0  0  0  0
    7.2918  -13.5130   19.3209 C   0  0  0  0  0  0  0  0  0  0  0  0
    8.3253  -13.9824   20.2772 C   0  0  1  0  0  0  0  0  0  0  0  0
    7.7974  -14.3308   21.6123 C   0  0  0  0  0  0  0  0  0  0  0  0
    7.1919  -13.3998   22.2277 O   0  0  0  0  0  0  0  0  0  0  0  0
    5.9454  -20.1256   24.8813 N   0  0  0  0  0  0  0  0  0  0  0  0
    6.5444  -20.2266   26.1947 C   0  0  0  0  0  0  0  0  0  0  0  0
    5.8381  -20.6992   27.1026 N   0  0  0  0  0  0  0  0  0  0  0  0
    7.8714  -19.8016   26.4201 N   0  0  0  0  0  0  0  0  0  0  0  0
    8.5927  -18.8314   25.7007 C   0  0  0  0  0  0  0  0  0  0  0  0
    8.0194  -17.4884   25.4707 C   0  0  0  0  0  0  0  0  0  0  0  0
    7.9519  -17.2283   23.9731 C   0  0  0  0  0  0  0  0  0  0  0  0
    7.5127  -15.8630   23.6146 C   0  0  2  0  0  0  0  0  0  0  0  0
    7.9087  -15.5762   22.2387 N   0  0  0  0  0  0  0  0  0  0  0  0
    8.2569  -14.8944   24.5040 C   0  0  0  0  0  0  0  0  0  0  0  0
    9.4831  -14.7955   24.4340 O   0  0  0  0  0  0  0  0  0  0  0  0
    6.0775  -20.8997   28.0483 N   0  0  0  0  0  0  0  0  0  0  0  0
    7.5206  -14.1183   25.4028 C   0  0  2  0  0  0  0  0  0  0  0  0
    8.0701  -13.0534   26.2105 C   0  0  0  0  0  0  0  0  0  0  0  0
    7.1858  -11.8610   26.3067 S   0  0  0  0  0  0  0  0  0  0  0  0
    5.5770  -12.3977   26.9565 C   0  0  0  0  0  0  0  0  0  0  0  0
    8.3466  -13.5640   27.5600 O   0  0  0  0  0  0  0  0  0  0  0  0
    9.0670  -12.8385   28.4698 O   0  0  0  0  0  0  0  0  0  0  0  0
  1  2  1  0
  3  2  1  0
  4  3  1  0
  5  4  1  0
  5  1  1  0
  6 16  1  0
  5  6  1  1
  7  6  2  0
  9  8  1  0
  9 11  1  0
 10  9  2  0
 12 11  1  0
 13 12  1  0
 14 13  1  0
 15 14  1  1
 15 16  1  0
 17 18  2  0
 17 15  1  0
 19 17  1  0
 20 23  1  0
 20 19  1  0
 20 21  1  6
 22 21  1  0
 23 24  1  0
 25 23  2  0
M  END
$$$$
