YRV.pdb
     RDKit          3D

 31 31  0  0  1  0  0  0  0  0999 V2000
    9.4787  -12.9797   15.7361 O   0  0  0  0  0  0  0  0  0  0  0  0
    8.8729  -13.2975   16.9441 C   0  0  0  0  0  0  0  0  0  0  0  0
    7.5239  -13.6386   16.9212 C   0  0  0  0  0  0  0  0  0  0  0  0
    6.9073  -13.9570   18.1151 C   0  0  0  0  0  0  0  0  0  0  0  0
    7.5702  -13.9504   19.3184 C   0  0  0  0  0  0  0  0  0  0  0  0
    6.8937  -14.2907   20.5853 C   0  0  0  0  0  0  0  0  0  0  0  0
    7.2592  -15.7379   20.9253 C   0  0  2  0  0  0  0  0  0  0  0  0
    6.4812  -16.5799   20.0506 N   0  0  0  0  0  0  0  0  0  0  0  0
    7.0667  -16.0035   22.3557 C   0  0  0  0  0  0  0  0  0  0  0  0
    5.9012  -15.8620   22.8280 O   0  0  0  0  0  0  0  0  0  0  0  0
    8.9103  -13.6066   19.3030 C   0  0  0  0  0  0  0  0  0  0  0  0
    9.5563  -13.2829   18.1276 C   0  0  0  0  0  0  0  0  0  0  0  0
   12.6024  -19.2514   26.4626 N   0  0  0  0  0  0  0  0  0  0  0  0
   12.6761  -19.6423   25.0925 C   0  0  0  0  0  0  0  0  0  0  0  0
   13.8053  -19.6932   24.5000 N   0  0  0  0  0  0  0  0  0  0  0  0
   11.4855  -19.9693   24.4129 N   0  0  0  0  0  0  0  0  0  0  0  0
   10.2109  -19.5930   24.9405 C   0  0  0  0  0  0  0  0  0  0  0  0
    9.7438  -18.2291   24.4803 C   0  0  0  0  0  0  0  0  0  0  0  0
    8.3722  -17.9542   25.0341 C   0  0  0  0  0  0  0  0  0  0  0  0
    7.8427  -16.6004   24.6400 C   0  0  2  0  0  0  0  0  0  0  0  0
    8.0898  -16.4017   23.2227 N   0  0  0  0  0  0  0  0  0  0  0  0
    8.4425  -15.4951   25.3810 C   0  0  0  0  0  0  0  0  0  0  0  0
    9.5894  -15.0723   25.0894 O   0  0  0  0  0  0  0  0  0  0  0  0
   13.8665  -19.9624   23.5011 C   0  0  0  0  0  0  0  0  0  0  0  0
    6.2115  -12.8074   27.6720 C   0  0  1  0  0  0  0  0  0  0  0  0
    7.6589  -12.5232   27.3069 C   0  0  0  0  0  0  0  0  0  0  0  0
    7.6593  -11.9128   25.9211 C   0  0  1  0  0  0  0  0  0  0  0  0
    8.4681  -13.7992   27.2466 N   0  0  0  0  0  0  0  0  0  0  0  0
    7.7906  -14.8236   26.4678 C   0  0  0  0  0  0  0  0  0  0  0  0
    8.7352  -14.2751   28.6064 O   0  0  0  0  0  0  0  0  0  0  0  0
    9.4903  -13.4777   29.4824 O   0  0  0  0  0  0  0  0  0  0  0  0
  2 12  2  0
  2  1  1  0
  3  2  1  0
  4  5  1  0
  4  3  2  0
  5 11  2  0
  6  7  1  0
  6  5  1  0
  7  8  1  6
  9  7  1  0
  9 21  1  0
 10  9  2  0
 11 12  1  0
 14 13  1  0
 14 16  1  0
 15 14  2  0
 17 16  1  0
 18 19  1  0
 18 17  1  0
 20 19  1  1
 20 21  1  0
 22 23  2  0
 22 20  1  0
 25 24  1  1
 26 25  1  0
 27 28  1  6
 27 25  1  0
 28 22  1  0
 29 27  1  0
 30 29  1  0
 31 29  2  0
M  END
$$$$
