YRV.pdb
     RDKit          3D

 31 31  0  0  1  0  0  0  0  0999 V2000
    9.0819  -13.2745   15.7517 O   0  0  0  0  0  0  0  0  0  0  0  0
    8.6244  -13.4483   17.0508 C   0  0  0  0  0  0  0  0  0  0  0  0
    9.3540  -14.2884   17.8866 C   0  0  0  0  0  0  0  0  0  0  0  0
    8.9112  -14.4713   19.1817 C   0  0  0  0  0  0  0  0  0  0  0  0
    7.7844  -13.8594   19.6749 C   0  0  0  0  0  0  0  0  0  0  0  0
    7.3244  -14.0694   21.0615 C   0  0  0  0  0  0  0  0  0  0  0  0
    6.8933  -15.5332   21.1844 C   0  0  2  0  0  0  0  0  0  0  0  0
    5.5997  -15.6399   20.5561 N   0  0  0  0  0  0  0  0  0  0  0  0
    6.9283  -15.9728   22.5841 C   0  0  0  0  0  0  0  0  0  0  0  0
    5.9589  -15.6433   23.3279 O   0  0  0  0  0  0  0  0  0  0  0  0
    7.0843  -13.0311   18.8158 C   0  0  0  0  0  0  0  0  0  0  0  0
    7.4994  -12.8270   17.5159 C   0  0  0  0  0  0  0  0  0  0  0  0
    6.2955  -22.5908   27.0826 N   0  0  0  0  0  0  0  0  0  0  0  0
    7.1165  -21.9197   28.0371 C   0  0  0  0  0  0  0  0  0  0  0  0
    7.2747  -22.4104   29.2046 N   0  0  0  0  0  0  0  0  0  0  0  0
    7.7449  -20.7139   27.6664 N   0  0  0  0  0  0  0  0  0  0  0  0
    7.7281  -20.2632   26.3094 C   0  0  0  0  0  0  0  0  0  0  0  0
    8.5347  -19.0034   26.0800 C   0  0  0  0  0  0  0  0  0  0  0  0
    8.3671  -18.5518   24.6547 C   0  0  0  0  0  0  0  0  0  0  0  0
    7.9522  -17.1082   24.5433 C   0  0  2  0  0  0  0  0  0  0  0  0
    7.9640  -16.7305   23.1410 N   0  0  0  0  0  0  0  0  0  0  0  0
    8.8111  -16.1899   25.2847 C   0  0  0  0  0  0  0  0  0  0  0  0
    9.9848  -15.9557   24.9014 O   0  0  0  0  0  0  0  0  0  0  0  0
    7.8654  -21.9271   29.9056 C   0  0  0  0  0  0  0  0  0  0  0  0
    7.2649  -13.5483   28.2569 C   0  0  1  0  0  0  0  0  0  0  0  0
    8.5406  -13.2709   27.4795 C   0  0  0  0  0  0  0  0  0  0  0  0
    8.1361  -12.6211   26.1728 C   0  0  1  0  0  0  0  0  0  0  0  0
    9.2687  -14.5540   27.1477 N   0  0  0  0  0  0  0  0  0  0  0  0
    8.3967  -15.5025   26.4732 C   0  0  0  0  0  0  0  0  0  0  0  0
    9.8172  -15.1376   28.3748 O   0  0  0  0  0  0  0  0  0  0  0  0
   10.7802  -14.4256   29.1089 O   0  0  0  0  0  0  0  0  0  0  0  0
  2 12  2  0
  2  1  1  0
  3  2  1  0
  4  5  1  0
  4  3  2  0
  5 11  2  0
  6  7  1  0
  6  5  1  0
  7  8  1  1
  9  7  1  0
  9 21  1  0
 10  9  2  0
 11 12  1  0
 14 13  1  0
 14 16  1  0
 15 14  2  0
 17 16  1  0
 18 19  1  0
 18 17  1  0
 20 19  1  6
 20 21  1  0
 22 23  2  0
 22 20  1  0
 25 24  1  1
 26 25  1  0
 27 28  1  6
 27 25  1  0
 28 22  1  0
 29 27  1  0
 30 29  1  0
 31 29  2  0
M  END
$$$$
