YRV.pdb
     RDKit          3D

 31 31  0  0  1  0  0  0  0  0999 V2000
   15.0825  -22.9546   19.8118 O   0  0  0  0  0  0  0  0  0  0  0  0
   14.6800  -21.8175   20.4989 C   0  0  0  0  0  0  0  0  0  0  0  0
   15.5809  -20.7603   20.5838 C   0  0  0  0  0  0  0  0  0  0  0  0
   15.1948  -19.6223   21.2643 C   0  0  0  0  0  0  0  0  0  0  0  0
   13.9624  -19.4937   21.8574 C   0  0  0  0  0  0  0  0  0  0  0  0
   13.5682  -18.2706   22.5835 C   0  0  0  0  0  0  0  0  0  0  0  0
   12.4179  -17.6266   21.8051 C   0  0  2  0  0  0  0  0  0  0  0  0
   12.9997  -17.0066   20.6404 N   0  0  0  0  0  0  0  0  0  0  0  0
   11.6529  -16.7139   22.6626 C   0  0  0  0  0  0  0  0  0  0  0  0
   12.2533  -15.7003   23.1248 O   0  0  0  0  0  0  0  0  0  0  0  0
   13.0925  -20.5646   21.7525 C   0  0  0  0  0  0  0  0  0  0  0  0
   13.4472  -21.7160   21.0800 C   0  0  0  0  0  0  0  0  0  0  0  0
    9.8225  -14.4467   19.9761 N   0  0  0  0  0  0  0  0  0  0  0  0
    8.5446  -13.8644   19.7244 C   0  0  0  0  0  0  0  0  0  0  0  0
    8.1687  -13.6360   18.5263 N   0  0  0  0  0  0  0  0  0  0  0  0
    7.7124  -13.5502   20.8175 N   0  0  0  0  0  0  0  0  0  0  0  0
    7.9701  -14.0896   22.1165 C   0  0  0  0  0  0  0  0  0  0  0  0
    7.7482  -15.5839   22.2064 C   0  0  0  0  0  0  0  0  0  0  0  0
    8.1293  -16.0670   23.5793 C   0  0  0  0  0  0  0  0  0  0  0  0
    9.6065  -15.9538   23.8503 C   0  0  2  0  0  0  0  0  0  0  0  0
   10.3070  -16.8972   22.9967 N   0  0  0  0  0  0  0  0  0  0  0  0
    9.9721  -16.2153   25.2390 C   0  0  0  0  0  0  0  0  0  0  0  0
   10.3798  -17.3497   25.5942 O   0  0  0  0  0  0  0  0  0  0  0  0
    7.2901  -13.1201   18.3372 C   0  0  0  0  0  0  0  0  0  0  0  0
    8.5254  -13.8918   28.4543 C   0  0  1  0  0  0  0  0  0  0  0  0
    9.9603  -14.3768   28.5759 C   0  0  0  0  0  0  0  0  0  0  0  0
   10.8562  -13.2394   28.1324 C   0  0  1  0  0  0  0  0  0  0  0  0
   10.2203  -15.5503   27.6583 N   0  0  0  0  0  0  0  0  0  0  0  0
    9.8977  -15.2286   26.2772 C   0  0  0  0  0  0  0  0  0  0  0  0
    9.4477  -16.7091   28.1136 O   0  0  0  0  0  0  0  0  0  0  0  0
    9.8657  -17.4140   29.2544 O   0  0  0  0  0  0  0  0  0  0  0  0
  2 12  2  0
  2  1  1  0
  3  2  1  0
  4  5  1  0
  4  3  2  0
  5 11  2  0
  6  7  1  0
  6  5  1  0
  7  8  1  6
  9  7  1  0
  9 21  1  0
 10  9  2  0
 11 12  1  0
 14 13  1  0
 14 16  1  0
 15 14  2  0
 17 16  1  0
 18 19  1  0
 18 17  1  0
 20 19  1  1
 20 21  1  0
 22 23  2  0
 22 20  1  0
 25 24  1  1
 26 25  1  0
 27 28  1  6
 27 25  1  0
 28 22  1  0
 29 27  1  0
 30 29  1  0
 31 29  2  0
M  END
$$$$
