YRV.pdb
     RDKit          3D

 31 31  0  0  1  0  0  0  0  0999 V2000
    5.6345  -10.0043   27.2059 O   0  0  0  0  0  0  0  0  0  0  0  0
    6.1763  -11.2356   26.8634 C   0  0  0  0  0  0  0  0  0  0  0  0
    6.3557  -12.1687   27.8803 C   0  0  0  0  0  0  0  0  0  0  0  0
    6.8938  -13.3982   27.5550 C   0  0  0  0  0  0  0  0  0  0  0  0
    7.2569  -13.7346   26.2735 C   0  0  0  0  0  0  0  0  0  0  0  0
    7.8335  -15.0529   25.9451 C   0  0  0  0  0  0  0  0  0  0  0  0
    6.8079  -15.8013   25.0897 C   0  0  2  0  0  0  0  0  0  0  0  0
    6.4427  -16.9886   25.8220 N   0  0  0  0  0  0  0  0  0  0  0  0
    7.3349  -16.0543   23.7436 C   0  0  0  0  0  0  0  0  0  0  0  0
    8.0055  -17.1124   23.5644 O   0  0  0  0  0  0  0  0  0  0  0  0
    7.0640  -12.7824   25.2883 C   0  0  0  0  0  0  0  0  0  0  0  0
    6.5291  -11.5444   25.5796 C   0  0  0  0  0  0  0  0  0  0  0  0
    8.1956  -13.2677   16.4946 N   0  0  0  0  0  0  0  0  0  0  0  0
    8.8068  -14.5426   16.3034 C   0  0  0  0  0  0  0  0  0  0  0  0
    9.6981  -14.6980   15.4033 N   0  0  0  0  0  0  0  0  0  0  0  0
    8.4095  -15.6178   17.1234 N   0  0  0  0  0  0  0  0  0  0  0  0
    7.7081  -15.3882   18.3482 C   0  0  0  0  0  0  0  0  0  0  0  0
    8.3144  -14.2915   19.1965 C   0  0  0  0  0  0  0  0  0  0  0  0
    7.5848  -14.2103   20.5098 C   0  0  0  0  0  0  0  0  0  0  0  0
    7.8743  -15.3802   21.4132 C   0  0  2  0  0  0  0  0  0  0  0  0
    7.1403  -15.1997   22.6533 N   0  0  0  0  0  0  0  0  0  0  0  0
    9.2904  -15.5468   21.7252 C   0  0  0  0  0  0  0  0  0  0  0  0
    9.9773  -14.5774   22.1348 O   0  0  0  0  0  0  0  0  0  0  0  0
   10.1631  -15.6148   15.2725 C   0  0  0  0  0  0  0  0  0  0  0  0
   11.2129  -19.3736   21.6800 C   0  0  1  0  0  0  0  0  0  0  0  0
   11.8124  -18.1996   22.4358 C   0  0  0  0  0  0  0  0  0  0  0  0
   11.2282  -18.2215   23.8328 C   0  0  1  0  0  0  0  0  0  0  0  0
   11.4266  -16.8842   21.7977 N   0  0  0  0  0  0  0  0  0  0  0  0
    9.9896  -16.7921   21.5934 C   0  0  0  0  0  0  0  0  0  0  0  0
   12.1407  -16.7272   20.5279 O   0  0  0  0  0  0  0  0  0  0  0  0
   13.5190  -16.4562   20.5385 O   0  0  0  0  0  0  0  0  0  0  0  0
  2 12  2  0
  2  1  1  0
  3  2  1  0
  4  5  1  0
  4  3  2  0
  5 11  2  0
  6  7  1  0
  6  5  1  0
  7  8  1  1
  9  7  1  0
  9 21  1  0
 10  9  2  0
 11 12  1  0
 14 13  1  0
 14 16  1  0
 15 14  2  0
 17 16  1  0
 18 19  1  0
 18 17  1  0
 20 19  1  6
 20 21  1  0
 22 23  2  0
 22 20  1  0
 25 24  1  1
 26 25  1  0
 27 28  1  1
 27 25  1  0
 28 22  1  0
 29 27  1  0
 30 29  1  0
 31 29  2  0
M  END
$$$$
