YRV.pdb
     RDKit          3D

 31 31  0  0  1  0  0  0  0  0999 V2000
    6.0887  -10.1629   26.5199 O   0  0  0  0  0  0  0  0  0  0  0  0
    6.3317  -11.5289   26.4709 C   0  0  0  0  0  0  0  0  0  0  0  0
    7.5873  -11.9474   26.0408 C   0  0  0  0  0  0  0  0  0  0  0  0
    7.8439  -13.3033   25.9866 C   0  0  0  0  0  0  0  0  0  0  0  0
    6.9130  -14.2502   26.3391 C   0  0  0  0  0  0  0  0  0  0  0  0
    7.2043  -15.6955   26.2718 C   0  0  0  0  0  0  0  0  0  0  0  0
    6.5132  -16.2442   25.0207 C   0  0  2  0  0  0  0  0  0  0  0  0
    5.8269  -17.4483   25.4190 N   0  0  0  0  0  0  0  0  0  0  0  0
    7.4764  -16.4254   23.9284 C   0  0  0  0  0  0  0  0  0  0  0  0
    8.1375  -17.5041   23.9008 O   0  0  0  0  0  0  0  0  0  0  0  0
    5.6759  -13.7975   26.7620 C   0  0  0  0  0  0  0  0  0  0  0  0
    5.3870  -12.4499   26.8274 C   0  0  0  0  0  0  0  0  0  0  0  0
    7.9740  -12.7116   16.1538 N   0  0  0  0  0  0  0  0  0  0  0  0
    7.7553  -14.1080   16.3475 C   0  0  0  0  0  0  0  0  0  0  0  0
    7.1889  -14.8008   15.4375 N   0  0  0  0  0  0  0  0  0  0  0  0
    8.1752  -14.7018   17.5547 N   0  0  0  0  0  0  0  0  0  0  0  0
    8.9884  -13.9814   18.4844 C   0  0  0  0  0  0  0  0  0  0  0  0
    9.4524  -14.8174   19.6575 C   0  0  0  0  0  0  0  0  0  0  0  0
    8.4733  -14.6795   20.7915 C   0  0  0  0  0  0  0  0  0  0  0  0
    8.6519  -15.7357   21.8503 C   0  0  2  0  0  0  0  0  0  0  0  0
    7.7051  -15.4813   22.9217 N   0  0  0  0  0  0  0  0  0  0  0  0
    9.9976  -15.7829   22.4136 C   0  0  0  0  0  0  0  0  0  0  0  0
   10.4452  -14.8242   23.0917 O   0  0  0  0  0  0  0  0  0  0  0  0
    7.0985  -15.8285   15.5347 C   0  0  0  0  0  0  0  0  0  0  0  0
   12.2783  -19.3688   22.3971 C   0  0  1  0  0  0  0  0  0  0  0  0
   12.5424  -18.2735   23.4165 C   0  0  0  0  0  0  0  0  0  0  0  0
   11.6194  -18.5231   24.5908 C   0  0  1  0  0  0  0  0  0  0  0  0
   12.2096  -16.9103   22.8530 N   0  0  0  0  0  0  0  0  0  0  0  0
   10.8892  -16.8934   22.2436 C   0  0  0  0  0  0  0  0  0  0  0  0
   13.2332  -16.5187   21.8804 O   0  0  0  0  0  0  0  0  0  0  0  0
   14.5419  -16.2593   22.3202 O   0  0  0  0  0  0  0  0  0  0  0  0
  2 12  2  0
  2  1  1  0
  3  2  1  0
  4  5  1  0
  4  3  2  0
  5 11  2  0
  6  7  1  0
  6  5  1  0
  7  8  1  1
  9  7  1  0
  9 21  1  0
 10  9  2  0
 11 12  1  0
 14 13  1  0
 14 16  1  0
 15 14  2  0
 17 16  1  0
 18 19  1  0
 18 17  1  0
 20 19  1  6
 20 21  1  0
 22 23  2  0
 22 20  1  0
 25 24  1  1
 26 25  1  0
 27 28  1  6
 27 25  1  0
 28 22  1  0
 29 27  1  0
 30 29  1  0
 31 29  2  0
M  END
$$$$
