YRV.pdb
     RDKit          3D

 31 31  0  0  1  0  0  0  0  0999 V2000
    8.4969  -13.2525   15.6905 O   0  0  0  0  0  0  0  0  0  0  0  0
    8.2265  -13.4750   17.0338 C   0  0  0  0  0  0  0  0  0  0  0  0
    9.1570  -14.2034   17.7689 C   0  0  0  0  0  0  0  0  0  0  0  0
    8.9018  -14.4330   19.1065 C   0  0  0  0  0  0  0  0  0  0  0  0
    7.7712  -13.9728   19.7367 C   0  0  0  0  0  0  0  0  0  0  0  0
    7.5137  -14.2306   21.1669 C   0  0  0  0  0  0  0  0  0  0  0  0
    7.5104  -15.7487   21.3652 C   0  0  2  0  0  0  0  0  0  0  0  0
    6.2871  -16.2416   20.7822 N   0  0  0  0  0  0  0  0  0  0  0  0
    7.6915  -16.0914   22.7807 C   0  0  0  0  0  0  0  0  0  0  0  0
    6.7779  -15.7535   23.5886 O   0  0  0  0  0  0  0  0  0  0  0  0
    6.8685  -13.2523   18.9748 C   0  0  0  0  0  0  0  0  0  0  0  0
    7.0931  -13.0054   17.6360 C   0  0  0  0  0  0  0  0  0  0  0  0
   12.9792  -21.8080   25.5047 N   0  0  0  0  0  0  0  0  0  0  0  0
   13.3056  -20.5616   26.1173 C   0  0  0  0  0  0  0  0  0  0  0  0
   14.4649  -20.3773   26.6182 N   0  0  0  0  0  0  0  0  0  0  0  0
   12.3292  -19.5461   26.1567 N   0  0  0  0  0  0  0  0  0  0  0  0
   10.9504  -19.8598   26.3695 C   0  0  0  0  0  0  0  0  0  0  0  0
   10.0374  -18.6550   26.2982 C   0  0  0  0  0  0  0  0  0  0  0  0
    9.8247  -18.2700   24.8594 C   0  0  0  0  0  0  0  0  0  0  0  0
    8.9284  -17.0699   24.7012 C   0  0  2  0  0  0  0  0  0  0  0  0
    8.8079  -16.7660   23.2862 N   0  0  0  0  0  0  0  0  0  0  0  0
    9.4085  -15.8807   25.3982 C   0  0  0  0  0  0  0  0  0  0  0  0
   10.4876  -15.3305   25.0633 O   0  0  0  0  0  0  0  0  0  0  0  0
   14.7095  -19.4761   27.0674 C   0  0  0  0  0  0  0  0  0  0  0  0
    6.9538  -13.3445   27.6764 C   0  0  1  0  0  0  0  0  0  0  0  0
    8.3523  -12.9537   27.2287 C   0  0  0  0  0  0  0  0  0  0  0  0
    8.2426  -12.4535   25.8036 C   0  0  1  0  0  0  0  0  0  0  0  0
    9.2792  -14.1484   27.2256 N   0  0  0  0  0  0  0  0  0  0  0  0
    8.7084  -15.2639   26.4873 C   0  0  0  0  0  0  0  0  0  0  0  0
    9.5783  -14.5403   28.6055 O   0  0  0  0  0  0  0  0  0  0  0  0
   10.2620  -13.6460   29.4456 O   0  0  0  0  0  0  0  0  0  0  0  0
  2 12  2  0
  2  1  1  0
  3  2  1  0
  4  5  1  0
  4  3  2  0
  5 11  2  0
  6  7  1  0
  6  5  1  0
  7  8  1  1
  9  7  1  0
  9 21  1  0
 10  9  2  0
 11 12  1  0
 14 13  1  0
 14 16  1  0
 15 14  2  0
 17 16  1  0
 18 19  1  0
 18 17  1  0
 20 19  1  6
 20 21  1  0
 22 23  2  0
 22 20  1  0
 25 24  1  1
 26 25  1  0
 27 28  1  6
 27 25  1  0
 28 22  1  0
 29 27  1  0
 30 29  1  0
 31 29  2  0
M  END
$$$$
