YRV.pdb
     RDKit          3D

 31 31  0  0  1  0  0  0  0  0999 V2000
   17.8306  -19.8191   19.5158 O   0  0  0  0  0  0  0  0  0  0  0  0
   16.8865  -19.0504   20.1828 C   0  0  0  0  0  0  0  0  0  0  0  0
   16.9210  -17.6726   19.9899 C   0  0  0  0  0  0  0  0  0  0  0  0
   15.9882  -16.8946   20.6468 C   0  0  0  0  0  0  0  0  0  0  0  0
   15.0322  -17.4248   21.4789 C   0  0  0  0  0  0  0  0  0  0  0  0
   14.0449  -16.5771   22.1753 C   0  0  0  0  0  0  0  0  0  0  0  0
   12.6877  -16.8110   21.5066 C   0  0  2  0  0  0  0  0  0  0  0  0
   12.6883  -16.0445   20.2852 N   0  0  0  0  0  0  0  0  0  0  0  0
   11.5898  -16.4904   22.4260 C   0  0  0  0  0  0  0  0  0  0  0  0
   11.1804  -15.2933   22.4576 O   0  0  0  0  0  0  0  0  0  0  0  0
   15.0278  -18.7982   21.6467 C   0  0  0  0  0  0  0  0  0  0  0  0
   15.9459  -19.6041   21.0054 C   0  0  0  0  0  0  0  0  0  0  0  0
    6.1038  -21.2304   27.0360 N   0  0  0  0  0  0  0  0  0  0  0  0
    5.7909  -21.0330   25.6582 C   0  0  0  0  0  0  0  0  0  0  0  0
    5.0658  -21.8802   25.0374 N   0  0  0  0  0  0  0  0  0  0  0  0
    6.2945  -19.8917   25.0024 N   0  0  0  0  0  0  0  0  0  0  0  0
    7.2247  -19.0212   25.6518 C   0  0  0  0  0  0  0  0  0  0  0  0
    7.5755  -17.7945   24.8380 C   0  0  0  0  0  0  0  0  0  0  0  0
    8.7773  -18.0865   23.9812 C   0  0  0  0  0  0  0  0  0  0  0  0
    9.8617  -17.0508   24.1218 C   0  0  2  0  0  0  0  0  0  0  0  0
   10.9725  -17.4248   23.2643 N   0  0  0  0  0  0  0  0  0  0  0  0
   10.3536  -16.8951   25.4872 C   0  0  0  0  0  0  0  0  0  0  0  0
   11.1544  -17.7281   25.9814 O   0  0  0  0  0  0  0  0  0  0  0  0
    4.8916  -21.7825   24.0206 C   0  0  0  0  0  0  0  0  0  0  0  0
    8.7708  -13.8954   28.1158 C   0  0  1  0  0  0  0  0  0  0  0  0
   10.1936  -14.3843   28.3290 C   0  0  0  0  0  0  0  0  0  0  0  0
   11.1097  -13.4318   27.5896 C   0  0  1  0  0  0  0  0  0  0  0  0
   10.3923  -15.7625   27.7395 N   0  0  0  0  0  0  0  0  0  0  0  0
    9.9742  -15.8121   26.3475 C   0  0  0  0  0  0  0  0  0  0  0  0
    9.6559  -16.7473   28.5362 O   0  0  0  0  0  0  0  0  0  0  0  0
   10.1085  -17.0714   29.8260 O   0  0  0  0  0  0  0  0  0  0  0  0
  2 12  2  0
  2  1  1  0
  3  2  1  0
  4  5  1  0
  4  3  2  0
  5 11  2  0
  6  7  1  0
  6  5  1  0
  7  8  1  6
  9  7  1  0
  9 21  1  0
 10  9  2  0
 11 12  1  0
 14 13  1  0
 14 16  1  0
 15 14  2  0
 17 16  1  0
 18 19  1  0
 18 17  1  0
 20 19  1  1
 20 21  1  0
 22 23  2  0
 22 20  1  0
 25 24  1  1
 26 25  1  0
 27 28  1  6
 27 25  1  0
 28 22  1  0
 29 27  1  0
 30 29  1  0
 31 29  2  0
M  END
$$$$
