YRV.pdb
     RDKit          3D

 31 31  0  0  1  0  0  0  0  0999 V2000
    7.9449  -11.8575   17.1672 O   0  0  0  0  0  0  0  0  0  0  0  0
    7.8344  -12.5973   18.3367 C   0  0  0  0  0  0  0  0  0  0  0  0
    6.8321  -13.5605   18.4005 C   0  0  0  0  0  0  0  0  0  0  0  0
    6.7097  -14.3044   19.5575 C   0  0  0  0  0  0  0  0  0  0  0  0
    7.5347  -14.1317   20.6424 C   0  0  0  0  0  0  0  0  0  0  0  0
    7.3869  -14.9342   21.8723 C   0  0  0  0  0  0  0  0  0  0  0  0
    8.2653  -16.1782   21.7157 C   0  0  2  0  0  0  0  0  0  0  0  0
    7.5007  -17.1338   20.9530 N   0  0  0  0  0  0  0  0  0  0  0  0
    8.7186  -16.6661   23.0234 C   0  0  0  0  0  0  0  0  0  0  0  0
    7.8529  -17.1760   23.7927 O   0  0  0  0  0  0  0  0  0  0  0  0
    8.5199  -13.1653   20.5432 C   0  0  0  0  0  0  0  0  0  0  0  0
    8.6690  -12.4048   19.4017 C   0  0  0  0  0  0  0  0  0  0  0  0
   11.4387  -20.8002   21.3469 N   0  0  0  0  0  0  0  0  0  0  0  0
   11.6366  -21.8885   22.2479 C   0  0  0  0  0  0  0  0  0  0  0  0
   11.3177  -23.0745   21.9007 N   0  0  0  0  0  0  0  0  0  0  0  0
   12.1879  -21.6287   23.5186 N   0  0  0  0  0  0  0  0  0  0  0  0
   12.4653  -20.2908   23.9400 C   0  0  0  0  0  0  0  0  0  0  0  0
   11.2230  -19.4522   24.1491 C   0  0  0  0  0  0  0  0  0  0  0  0
   11.6198  -18.0567   24.5477 C   0  0  0  0  0  0  0  0  0  0  0  0
   10.4362  -17.1482   24.7536 C   0  0  2  0  0  0  0  0  0  0  0  0
   10.0438  -16.6011   23.4668 N   0  0  0  0  0  0  0  0  0  0  0  0
   10.6938  -16.0453   25.6744 C   0  0  0  0  0  0  0  0  0  0  0  0
   11.6838  -15.2887   25.5110 O   0  0  0  0  0  0  0  0  0  0  0  0
   11.5203  -23.8795   22.5211 C   0  0  0  0  0  0  0  0  0  0  0  0
    7.8311  -14.1163   28.0272 C   0  0  1  0  0  0  0  0  0  0  0  0
    9.2457  -13.6014   27.8207 C   0  0  0  0  0  0  0  0  0  0  0  0
    9.2798  -12.9157   26.4710 C   0  0  1  0  0  0  0  0  0  0  0  0
   10.2413  -14.7389   27.7828 N   0  0  0  0  0  0  0  0  0  0  0  0
    9.8628  -15.7461   26.8044 C   0  0  0  0  0  0  0  0  0  0  0  0
   10.3586  -15.3324   29.1174 O   0  0  0  0  0  0  0  0  0  0  0  0
   10.8999  -14.5721   30.1672 O   0  0  0  0  0  0  0  0  0  0  0  0
  2 12  2  0
  2  1  1  0
  3  2  1  0
  4  5  1  0
  4  3  2  0
  5 11  2  0
  6  7  1  0
  6  5  1  0
  7  8  1  1
  9  7  1  0
  9 21  1  0
 10  9  2  0
 11 12  1  0
 14 13  1  0
 14 16  1  0
 15 14  2  0
 17 16  1  0
 18 19  1  0
 18 17  1  0
 20 19  1  6
 20 21  1  0
 22 23  2  0
 22 20  1  0
 25 24  1  1
 26 25  1  0
 27 28  1  6
 27 25  1  0
 28 22  1  0
 29 27  1  0
 30 29  1  0
 31 29  2  0
M  END
$$$$
