YRV.pdb
     RDKit          3D

 31 31  0  0  1  0  0  0  0  0999 V2000
    6.4140  -10.2738   26.8380 O   0  0  0  0  0  0  0  0  0  0  0  0
    6.4014  -11.6537   26.6873 C   0  0  0  0  0  0  0  0  0  0  0  0
    5.2171  -12.3252   26.9760 C   0  0  0  0  0  0  0  0  0  0  0  0
    5.1893  -13.6982   26.8310 C   0  0  0  0  0  0  0  0  0  0  0  0
    6.2793  -14.4235   26.4148 C   0  0  0  0  0  0  0  0  0  0  0  0
    6.2317  -15.8914   26.2685 C   0  0  0  0  0  0  0  0  0  0  0  0
    6.2341  -16.2025   24.7695 C   0  0  2  0  0  0  0  0  0  0  0  0
    5.2995  -17.2819   24.5673 N   0  0  0  0  0  0  0  0  0  0  0  0
    7.5951  -16.4788   24.2951 C   0  0  0  0  0  0  0  0  0  0  0  0
    8.1397  -17.5585   24.6683 O   0  0  0  0  0  0  0  0  0  0  0  0
    7.4394  -13.7227   26.1365 C   0  0  0  0  0  0  0  0  0  0  0  0
    7.5009  -12.3509   26.2714 C   0  0  0  0  0  0  0  0  0  0  0  0
    9.9903  -15.1702   17.6781 N   0  0  0  0  0  0  0  0  0  0  0  0
    8.7186  -14.5235   17.6836 C   0  0  0  0  0  0  0  0  0  0  0  0
    7.9546  -14.6024   16.6644 N   0  0  0  0  0  0  0  0  0  0  0  0
    8.3266  -13.8023   18.8292 N   0  0  0  0  0  0  0  0  0  0  0  0
    9.1770  -13.7256   19.9762 C   0  0  0  0  0  0  0  0  0  0  0  0
    8.7702  -14.6599   21.0950 C   0  0  0  0  0  0  0  0  0  0  0  0
    9.9993  -15.1610   21.8035 C   0  0  0  0  0  0  0  0  0  0  0  0
    9.6782  -15.9423   23.0504 C   0  0  2  0  0  0  0  0  0  0  0  0
    8.3214  -15.6240   23.4592 N   0  0  0  0  0  0  0  0  0  0  0  0
   10.5809  -15.6698   24.1647 C   0  0  0  0  0  0  0  0  0  0  0  0
   11.5471  -14.8775   24.0309 O   0  0  0  0  0  0  0  0  0  0  0  0
    7.0115  -14.1730   16.6761 C   0  0  0  0  0  0  0  0  0  0  0  0
    9.5096  -15.9149   28.1800 C   0  0  1  0  0  0  0  0  0  0  0  0
   10.7477  -15.2091   27.6528 C   0  0  0  0  0  0  0  0  0  0  0  0
   10.2970  -13.8799   27.0842 C   0  0  1  0  0  0  0  0  0  0  0  0
   11.3887  -15.9945   26.5309 N   0  0  0  0  0  0  0  0  0  0  0  0
   10.4412  -16.2662   25.4615 C   0  0  0  0  0  0  0  0  0  0  0  0
   11.9428  -17.2431   27.0609 O   0  0  0  0  0  0  0  0  0  0  0  0
   12.9547  -17.1927   28.0339 O   0  0  0  0  0  0  0  0  0  0  0  0
  2 12  2  0
  2  1  1  0
  3  2  1  0
  4  5  1  0
  4  3  2  0
  5 11  2  0
  6  7  1  0
  6  5  1  0
  7  8  1  1
  9  7  1  0
  9 21  1  0
 10  9  2  0
 11 12  1  0
 14 13  1  0
 14 16  1  0
 15 14  2  0
 17 16  1  0
 18 19  1  0
 18 17  1  0
 20 19  1  6
 20 21  1  0
 22 23  2  0
 22 20  1  0
 25 24  1  1
 26 25  1  0
 27 28  1  6
 27 25  1  0
 28 22  1  0
 29 27  1  0
 30 29  1  0
 31 29  2  0
M  END
$$$$
