YRV.pdb
     RDKit          3D

 31 31  0  0  1  0  0  0  0  0999 V2000
    9.4631  -13.0327   17.2741 O   0  0  0  0  0  0  0  0  0  0  0  0
    8.5375  -13.5579   18.1656 C   0  0  0  0  0  0  0  0  0  0  0  0
    8.4644  -12.9874   19.4329 C   0  0  0  0  0  0  0  0  0  0  0  0
    7.5485  -13.4992   20.3308 C   0  0  0  0  0  0  0  0  0  0  0  0
    6.7109  -14.5439   20.0236 C   0  0  0  0  0  0  0  0  0  0  0  0
    5.7401  -15.0798   20.9975 C   0  0  0  0  0  0  0  0  0  0  0  0
    6.1537  -16.5200   21.3113 C   0  0  2  0  0  0  0  0  0  0  0  0
    5.1636  -17.3778   20.7086 N   0  0  0  0  0  0  0  0  0  0  0  0
    6.3265  -16.7113   22.7561 C   0  0  0  0  0  0  0  0  0  0  0  0
    5.2873  -16.7035   23.4783 O   0  0  0  0  0  0  0  0  0  0  0  0
    6.8114  -15.0859   18.7545 C   0  0  0  0  0  0  0  0  0  0  0  0
    7.7159  -14.5984   17.8337 C   0  0  0  0  0  0  0  0  0  0  0  0
    9.4594  -19.6281   29.5159 N   0  0  0  0  0  0  0  0  0  0  0  0
    9.2993  -20.8463   28.7909 C   0  0  0  0  0  0  0  0  0  0  0  0
    9.6964  -21.9496   29.2949 N   0  0  0  0  0  0  0  0  0  0  0  0
    8.6976  -20.8063   27.5170 N   0  0  0  0  0  0  0  0  0  0  0  0
    7.8971  -19.6911   27.1168 C   0  0  0  0  0  0  0  0  0  0  0  0
    8.7026  -18.5347   26.5655 C   0  0  0  0  0  0  0  0  0  0  0  0
    8.3877  -18.3536   25.1054 C   0  0  0  0  0  0  0  0  0  0  0  0
    7.6693  -17.0615   24.8177 C   0  0  2  0  0  0  0  0  0  0  0  0
    7.5651  -16.9010   23.3781 N   0  0  0  0  0  0  0  0  0  0  0  0
    8.3285  -15.8846   25.3753 C   0  0  0  0  0  0  0  0  0  0  0  0
    9.3975  -15.4498   24.8779 O   0  0  0  0  0  0  0  0  0  0  0  0
    9.5419  -22.8446   28.7961 C   0  0  0  0  0  0  0  0  0  0  0  0
    6.4822  -13.3734   28.3479 C   0  0  1  0  0  0  0  0  0  0  0  0
    7.5372  -12.8787   27.3726 C   0  0  0  0  0  0  0  0  0  0  0  0
    6.8180  -12.4728   26.1033 C   0  0  1  0  0  0  0  0  0  0  0  0
    8.5112  -13.9792   27.0163 N   0  0  0  0  0  0  0  0  0  0  0  0
    7.8241  -15.1527   26.5009 C   0  0  0  0  0  0  0  0  0  0  0  0
    9.3128  -14.3243   28.1933 O   0  0  0  0  0  0  0  0  0  0  0  0
   10.1812  -13.3671   28.7435 O   0  0  0  0  0  0  0  0  0  0  0  0
  2 12  2  0
  2  1  1  0
  3  2  1  0
  4  5  1  0
  4  3  2  0
  5 11  2  0
  6  7  1  0
  6  5  1  0
  7  8  1  1
  9  7  1  0
  9 21  1  0
 10  9  2  0
 11 12  1  0
 14 13  1  0
 14 16  1  0
 15 14  2  0
 17 16  1  0
 18 19  1  0
 18 17  1  0
 20 19  1  6
 20 21  1  0
 22 23  2  0
 22 20  1  0
 25 24  1  1
 26 25  1  0
 27 28  1  6
 27 25  1  0
 28 22  1  0
 29 27  1  0
 30 29  1  0
 31 29  2  0
M  END
$$$$
