YRV.pdb
     RDKit          3D

 31 31  0  0  1  0  0  0  0  0999 V2000
    8.5635  -13.6611   14.8603 O   0  0  0  0  0  0  0  0  0  0  0  0
    8.0891  -13.9880   16.1233 C   0  0  0  0  0  0  0  0  0  0  0  0
    8.1615  -13.0131   17.1137 C   0  0  0  0  0  0  0  0  0  0  0  0
    7.6935  -13.3235   18.3754 C   0  0  0  0  0  0  0  0  0  0  0  0
    7.1619  -14.5507   18.6894 C   0  0  0  0  0  0  0  0  0  0  0  0
    6.6694  -14.8656   20.0446 C   0  0  0  0  0  0  0  0  0  0  0  0
    7.8933  -15.0445   20.9466 C   0  0  2  0  0  0  0  0  0  0  0  0
    8.7271  -16.0424   20.3233 N   0  0  0  0  0  0  0  0  0  0  0  0
    7.4881  -15.3618   22.3209 C   0  0  0  0  0  0  0  0  0  0  0  0
    6.6236  -14.6154   22.8658 O   0  0  0  0  0  0  0  0  0  0  0  0
    7.1056  -15.4952   17.6798 C   0  0  0  0  0  0  0  0  0  0  0  0
    7.5648  -15.2175   16.4087 C   0  0  0  0  0  0  0  0  0  0  0  0
    7.4701  -21.7913   23.1045 N   0  0  0  0  0  0  0  0  0  0  0  0
    6.1806  -21.8876   23.7072 C   0  0  0  0  0  0  0  0  0  0  0  0
    5.3129  -22.6981   23.2393 N   0  0  0  0  0  0  0  0  0  0  0  0
    5.8878  -21.0762   24.8217 N   0  0  0  0  0  0  0  0  0  0  0  0
    6.8239  -20.1006   25.2870 C   0  0  0  0  0  0  0  0  0  0  0  0
    7.1331  -19.0244   24.2689 C   0  0  0  0  0  0  0  0  0  0  0  0
    8.0416  -17.9956   24.8851 C   0  0  0  0  0  0  0  0  0  0  0  0
    7.6976  -16.5887   24.4719 C   0  0  2  0  0  0  0  0  0  0  0  0
    7.9980  -16.4349   23.0594 N   0  0  0  0  0  0  0  0  0  0  0  0
    8.4175  -15.5627   25.2200 C   0  0  0  0  0  0  0  0  0  0  0  0
    9.6605  -15.4276   25.0937 O   0  0  0  0  0  0  0  0  0  0  0  0
    4.3409  -22.6974   23.5986 C   0  0  0  0  0  0  0  0  0  0  0  0
    6.4290  -12.7694   27.8644 C   0  0  1  0  0  0  0  0  0  0  0  0
    7.7105  -12.4155   27.1285 C   0  0  0  0  0  0  0  0  0  0  0  0
    7.3109  -11.8262   25.7920 C   0  0  1  0  0  0  0  0  0  0  0  0
    8.5426  -13.6483   26.8560 N   0  0  0  0  0  0  0  0  0  0  0  0
    7.7831  -14.6545   26.1308 C   0  0  0  0  0  0  0  0  0  0  0  0
    9.0438  -14.1910   28.1214 O   0  0  0  0  0  0  0  0  0  0  0  0
    8.6579  -15.4809   28.5219 O   0  0  0  0  0  0  0  0  0  0  0  0
  2 12  2  0
  2  1  1  0
  3  2  1  0
  4  5  1  0
  4  3  2  0
  5 11  2  0
  6  7  1  0
  6  5  1  0
  7  8  1  6
  9  7  1  0
  9 21  1  0
 10  9  2  0
 11 12  1  0
 14 13  1  0
 14 16  1  0
 15 14  2  0
 17 16  1  0
 18 19  1  0
 18 17  1  0
 20 19  1  1
 20 21  1  0
 22 23  2  0
 22 20  1  0
 25 24  1  1
 26 25  1  0
 27 28  1  6
 27 25  1  0
 28 22  1  0
 29 27  1  0
 30 29  1  0
 31 29  2  0
M  END
$$$$
