YRV.pdb
     RDKit          3D

 31 31  0  0  1  0  0  0  0  0999 V2000
    8.8897  -12.4888   15.9608 O   0  0  0  0  0  0  0  0  0  0  0  0
    8.3823  -12.9767   17.1573 C   0  0  0  0  0  0  0  0  0  0  0  0
    7.1310  -13.5851   17.1289 C   0  0  0  0  0  0  0  0  0  0  0  0
    6.6129  -14.0754   18.3114 C   0  0  0  0  0  0  0  0  0  0  0  0
    7.2811  -13.9865   19.5085 C   0  0  0  0  0  0  0  0  0  0  0  0
    6.7101  -14.5136   20.7633 C   0  0  0  0  0  0  0  0  0  0  0  0
    7.2605  -15.9288   20.9580 C   0  0  2  0  0  0  0  0  0  0  0  0
    6.3971  -16.8162   20.2188 N   0  0  0  0  0  0  0  0  0  0  0  0
    7.3853  -16.2495   22.3847 C   0  0  0  0  0  0  0  0  0  0  0  0
    6.3191  -16.4352   23.0406 O   0  0  0  0  0  0  0  0  0  0  0  0
    8.5225  -13.3756   19.4988 C   0  0  0  0  0  0  0  0  0  0  0  0
    9.0686  -12.8750   18.3348 C   0  0  0  0  0  0  0  0  0  0  0  0
   10.0242  -22.6475   25.3690 N   0  0  0  0  0  0  0  0  0  0  0  0
    9.8482  -22.5436   23.9571 C   0  0  0  0  0  0  0  0  0  0  0  0
    9.5090  -23.5682   23.2759 N   0  0  0  0  0  0  0  0  0  0  0  0
   10.0544  -21.2957   23.3353 N   0  0  0  0  0  0  0  0  0  0  0  0
   10.2802  -20.1161   24.1114 C   0  0  0  0  0  0  0  0  0  0  0  0
    9.2770  -19.0149   23.8449 C   0  0  0  0  0  0  0  0  0  0  0  0
    9.6146  -17.8132   24.6850 C   0  0  0  0  0  0  0  0  0  0  0  0
    8.6600  -16.6670   24.4768 C   0  0  2  0  0  0  0  0  0  0  0  0
    8.6064  -16.3616   23.0579 N   0  0  0  0  0  0  0  0  0  0  0  0
    9.0266  -15.4560   25.2046 C   0  0  0  0  0  0  0  0  0  0  0  0
   10.0870  -14.8386   24.9335 O   0  0  0  0  0  0  0  0  0  0  0  0
    9.3955  -23.5056   22.2478 C   0  0  0  0  0  0  0  0  0  0  0  0
    6.3172  -13.2974   27.7482 C   0  0  1  0  0  0  0  0  0  0  0  0
    7.5567  -12.6935   27.1096 C   0  0  0  0  0  0  0  0  0  0  0  0
    7.1751  -12.2671   25.7075 C   0  0  1  0  0  0  0  0  0  0  0  0
    8.6648  -13.7157   26.9927 N   0  0  0  0  0  0  0  0  0  0  0  0
    8.2299  -14.8911   26.2550 C   0  0  0  0  0  0  0  0  0  0  0  0
    9.1312  -14.0881   28.3309 O   0  0  0  0  0  0  0  0  0  0  0  0
    9.0185  -15.4221   28.7563 O   0  0  0  0  0  0  0  0  0  0  0  0
  2 12  2  0
  2  1  1  0
  3  2  1  0
  4  5  1  0
  4  3  2  0
  5 11  2  0
  6  7  1  0
  6  5  1  0
  7  8  1  1
  9  7  1  0
  9 21  1  0
 10  9  2  0
 11 12  1  0
 14 13  1  0
 14 16  1  0
 15 14  2  0
 17 16  1  0
 18 19  1  0
 18 17  1  0
 20 19  1  6
 20 21  1  0
 22 23  2  0
 22 20  1  0
 25 24  1  1
 26 25  1  0
 27 28  1  6
 27 25  1  0
 28 22  1  0
 29 27  1  0
 30 29  1  0
 31 29  2  0
M  END
$$$$
