YRV.pdb
     RDKit          3D

 31 31  0  0  1  0  0  0  0  0999 V2000
    9.5976  -13.2489   16.4027 O   0  0  0  0  0  0  0  0  0  0  0  0
    8.9143  -13.4524   17.5938 C   0  0  0  0  0  0  0  0  0  0  0  0
    9.5331  -14.2273   18.5702 C   0  0  0  0  0  0  0  0  0  0  0  0
    8.8656  -14.4387   19.7605 C   0  0  0  0  0  0  0  0  0  0  0  0
    7.6212  -13.9165   20.0173 C   0  0  0  0  0  0  0  0  0  0  0  0
    6.9215  -14.1557   21.2946 C   0  0  0  0  0  0  0  0  0  0  0  0
    6.6847  -15.6637   21.4116 C   0  0  2  0  0  0  0  0  0  0  0  0
    5.4812  -15.9543   20.6723 N   0  0  0  0  0  0  0  0  0  0  0  0
    6.6503  -16.0799   22.8185 C   0  0  0  0  0  0  0  0  0  0  0  0
    5.6319  -15.7639   23.5000 O   0  0  0  0  0  0  0  0  0  0  0  0
    7.0366  -13.1510   19.0239 C   0  0  0  0  0  0  0  0  0  0  0  0
    7.6763  -12.9208   17.8232 C   0  0  0  0  0  0  0  0  0  0  0  0
    8.4190  -23.2406   27.1457 N   0  0  0  0  0  0  0  0  0  0  0  0
    8.1329  -22.3493   28.2223 C   0  0  0  0  0  0  0  0  0  0  0  0
    7.9963  -22.7997   29.4086 N   0  0  0  0  0  0  0  0  0  0  0  0
    8.0063  -20.9722   27.9508 N   0  0  0  0  0  0  0  0  0  0  0  0
    8.0257  -20.4830   26.6073 C   0  0  0  0  0  0  0  0  0  0  0  0
    7.8258  -18.9864   26.5050 C   0  0  0  0  0  0  0  0  0  0  0  0
    7.8349  -18.5758   25.0576 C   0  0  0  0  0  0  0  0  0  0  0  0
    7.6211  -17.0971   24.8676 C   0  0  2  0  0  0  0  0  0  0  0  0
    7.6710  -16.8013   23.4467 N   0  0  0  0  0  0  0  0  0  0  0  0
    8.6050  -16.2668   25.5554 C   0  0  0  0  0  0  0  0  0  0  0  0
    9.8049  -16.2487   25.1823 O   0  0  0  0  0  0  0  0  0  0  0  0
    7.7730  -22.1615   30.1940 C   0  0  0  0  0  0  0  0  0  0  0  0
    7.5225  -13.3561   28.5530 C   0  0  1  0  0  0  0  0  0  0  0  0
    8.7644  -13.2456   27.6845 C   0  0  0  0  0  0  0  0  0  0  0  0
    8.3517  -12.5611   26.3983 C   0  0  1  0  0  0  0  0  0  0  0  0
    9.3033  -14.6119   27.3248 N   0  0  0  0  0  0  0  0  0  0  0  0
    8.2906  -15.4307   26.6775 C   0  0  0  0  0  0  0  0  0  0  0  0
    9.8093  -15.2724   28.5309 O   0  0  0  0  0  0  0  0  0  0  0  0
   10.8817  -14.6999   29.2347 O   0  0  0  0  0  0  0  0  0  0  0  0
  2 12  2  0
  2  1  1  0
  3  2  1  0
  4  5  1  0
  4  3  2  0
  5 11  2  0
  6  7  1  0
  6  5  1  0
  7  8  1  1
  9  7  1  0
  9 21  1  0
 10  9  2  0
 11 12  1  0
 14 13  1  0
 14 16  1  0
 15 14  2  0
 17 16  1  0
 18 19  1  0
 18 17  1  0
 20 19  1  6
 20 21  1  0
 22 23  2  0
 22 20  1  0
 25 24  1  1
 26 25  1  0
 27 28  1  6
 27 25  1  0
 28 22  1  0
 29 27  1  0
 30 29  1  0
 31 29  2  0
M  END
$$$$
