YRV.pdb
     RDKit          3D

 31 31  0  0  1  0  0  0  0  0999 V2000
    7.5974  -12.9569   15.6368 O   0  0  0  0  0  0  0  0  0  0  0  0
    7.5070  -13.3384   16.9686 C   0  0  0  0  0  0  0  0  0  0  0  0
    7.2023  -14.6686   17.2410 C   0  0  0  0  0  0  0  0  0  0  0  0
    7.1088  -15.0631   18.5611 C   0  0  0  0  0  0  0  0  0  0  0  0
    7.3041  -14.1983   19.6105 C   0  0  0  0  0  0  0  0  0  0  0  0
    7.1970  -14.6374   21.0155 C   0  0  0  0  0  0  0  0  0  0  0  0
    8.6201  -14.7634   21.5657 C   0  0  2  0  0  0  0  0  0  0  0  0
    9.3929  -15.4572   20.5652 N   0  0  0  0  0  0  0  0  0  0  0  0
    8.6155  -15.4059   22.8851 C   0  0  0  0  0  0  0  0  0  0  0  0
    7.8722  -14.9065   23.7793 O   0  0  0  0  0  0  0  0  0  0  0  0
    7.6056  -12.8837   19.3020 C   0  0  0  0  0  0  0  0  0  0  0  0
    7.7061  -12.4568   17.9938 C   0  0  0  0  0  0  0  0  0  0  0  0
   11.1898  -21.0234   21.5340 N   0  0  0  0  0  0  0  0  0  0  0  0
    9.8640  -21.3852   21.1508 C   0  0  0  0  0  0  0  0  0  0  0  0
    9.6636  -22.4246   20.4379 N   0  0  0  0  0  0  0  0  0  0  0  0
    8.7889  -20.5778   21.5735 N   0  0  0  0  0  0  0  0  0  0  0  0
    8.8000  -19.9532   22.8597 C   0  0  0  0  0  0  0  0  0  0  0  0
    9.9932  -19.0497   23.0836 C   0  0  0  0  0  0  0  0  0  0  0  0
    9.9457  -18.4910   24.4797 C   0  0  0  0  0  0  0  0  0  0  0  0
    9.3341  -17.1159   24.5391 C   0  0  2  0  0  0  0  0  0  0  0  0
    9.3798  -16.5316   23.2104 N   0  0  0  0  0  0  0  0  0  0  0  0
   10.0024  -16.2141   25.4723 C   0  0  0  0  0  0  0  0  0  0  0  0
   11.2096  -15.9033   25.3136 O   0  0  0  0  0  0  0  0  0  0  0  0
    8.7040  -22.6947   20.1551 C   0  0  0  0  0  0  0  0  0  0  0  0
    7.9436  -13.8720   28.4123 C   0  0  1  0  0  0  0  0  0  0  0  0
    9.3628  -13.5786   27.9555 C   0  0  0  0  0  0  0  0  0  0  0  0
    9.2641  -12.7312   26.7044 C   0  0  1  0  0  0  0  0  0  0  0  0
   10.0940  -14.8511   27.5914 N   0  0  0  0  0  0  0  0  0  0  0  0
    9.3543  -15.6286   26.6099 C   0  0  0  0  0  0  0  0  0  0  0  0
   10.3356  -15.6411   28.8017 O   0  0  0  0  0  0  0  0  0  0  0  0
   11.2361  -15.1659   29.7694 O   0  0  0  0  0  0  0  0  0  0  0  0
  2 12  2  0
  2  1  1  0
  3  2  1  0
  4  5  1  0
  4  3  2  0
  5 11  2  0
  6  7  1  0
  6  5  1  0
  7  8  1  6
  9  7  1  0
  9 21  1  0
 10  9  2  0
 11 12  1  0
 14 13  1  0
 14 16  1  0
 15 14  2  0
 17 16  1  0
 18 19  1  0
 18 17  1  0
 20 19  1  6
 20 21  1  0
 22 23  2  0
 22 20  1  0
 25 24  1  1
 26 25  1  0
 27 28  1  6
 27 25  1  0
 28 22  1  0
 29 27  1  0
 30 29  1  0
 31 29  2  0
M  END
$$$$
