AQN.pdb
     RDKit          3D

 23 22  0  0  1  0  0  0  0  0999 V2000
   14.8606  -12.6741  -15.0416 C   0  0  0  0  0  0  0  0  0  0  0  0
   16.3462  -12.4945  -15.3289 C   0  0  2  0  0  0  0  0  0  0  0  0
   16.9311  -13.8297  -15.2026 N   0  0  0  0  0  0  0  0  0  0  0  0
   16.9725  -11.5815  -14.3110 C   0  0  0  0  0  0  0  0  0  0  0  0
   17.0926  -11.9171  -13.1116 O   0  0  0  0  0  0  0  0  0  0  0  0
   21.6091   -9.3620  -13.5979 N   0  0  0  0  0  0  0  0  0  0  0  0
   21.1246   -8.2533  -12.8931 C   0  0  0  0  0  0  0  0  0  0  0  0
   21.8225   -7.7039  -12.0145 O   0  0  0  0  0  0  0  0  0  0  0  0
   19.7585   -7.7402  -13.2108 C   0  0  0  0  0  0  0  0  0  0  0  0
   19.1007   -8.5703  -14.2736 C   0  0  0  0  0  0  0  0  0  0  0  0
   18.0165   -9.4040  -13.6986 C   0  0  2  0  0  0  0  0  0  0  0  0
   17.4455  -10.3065  -14.6936 N   0  0  0  0  0  0  0  0  0  0  0  0
   16.9741   -8.6299  -13.0427 C   0  0  0  0  0  0  0  0  0  0  0  0
   16.0195   -8.0810  -13.6151 O   0  0  0  0  0  0  0  0  0  0  0  0
   14.1640   -6.3490   -9.2603 N   0  0  0  0  0  0  0  0  0  0  0  0
   14.9501   -7.3766   -8.6806 C   0  0  0  0  0  0  0  0  0  0  0  0
   14.8115   -7.6394   -7.4574 O   0  0  0  0  0  0  0  0  0  0  0  0
   15.9371   -8.1614   -9.4584 C   0  0  0  0  0  0  0  0  0  0  0  0
   15.9885   -7.7382  -10.9169 C   0  0  2  0  0  0  0  0  0  0  0  0
   17.0181   -8.4631  -11.6061 N   0  0  0  0  0  0  0  0  0  0  0  0
   16.1951   -6.2732  -11.0430 C   0  0  0  0  0  0  0  0  0  0  0  0
   15.1905   -5.5179  -10.9993 O   0  0  0  0  0  0  0  0  0  0  0  0
   17.4455   -5.7135  -11.2060 O   0  0  0  0  0  0  0  0  0  0  0  0
  2  1  1  1
  2  4  1  0
  3  2  1  0
  4  5  2  0
  6  7  1  0
  7  9  1  0
  8  7  2  0
  9 10  1  0
 11 10  1  6
 11 13  1  0
 12  4  1  0
 12 11  1  0
 13 14  2  0
 16 15  1  0
 16 18  1  0
 17 16  2  0
 19 18  1  1
 19 21  1  0
 20 13  1  0
 20 19  1  0
 21 22  2  0
 21 23  1  0
M  END
$$$$
