AQN.pdb
     RDKit          3D

 23 22  0  0  1  0  0  0  0  0999 V2000
   12.1931  -11.3402  -14.0856 C   0  0  0  0  0  0  0  0  0  0  0  0
   13.3981  -12.2272  -14.3739 C   0  0  2  0  0  0  0  0  0  0  0  0
   13.0570  -13.5384  -13.8213 N   0  0  0  0  0  0  0  0  0  0  0  0
   14.6202  -11.6983  -13.6750 C   0  0  0  0  0  0  0  0  0  0  0  0
   14.7783  -11.8244  -12.4401 O   0  0  0  0  0  0  0  0  0  0  0  0
   20.1386  -11.3842  -16.2403 N   0  0  0  0  0  0  0  0  0  0  0  0
   18.8927  -11.8476  -16.6802 C   0  0  0  0  0  0  0  0  0  0  0  0
   18.7842  -12.4355  -17.7773 O   0  0  0  0  0  0  0  0  0  0  0  0
   17.6963  -11.6258  -15.8142 C   0  0  0  0  0  0  0  0  0  0  0  0
   18.0489  -10.8219  -14.5974 C   0  0  0  0  0  0  0  0  0  0  0  0
   16.8544  -10.5985  -13.7461 C   0  0  2  0  0  0  0  0  0  0  0  0
   15.6306  -11.0380  -14.4091 N   0  0  0  0  0  0  0  0  0  0  0  0
   16.7248   -9.2283  -13.2750 C   0  0  0  0  0  0  0  0  0  0  0  0
   15.9948   -8.3612  -13.7804 O   0  0  0  0  0  0  0  0  0  0  0  0
   17.5834   -4.8732  -10.4933 N   0  0  0  0  0  0  0  0  0  0  0  0
   17.4583   -6.0012   -9.6436 C   0  0  0  0  0  0  0  0  0  0  0  0
   17.4211   -5.8297   -8.3972 O   0  0  0  0  0  0  0  0  0  0  0  0
   17.3692   -7.3859  -10.1632 C   0  0  0  0  0  0  0  0  0  0  0  0
   17.4572   -7.4386  -11.6794 C   0  0  2  0  0  0  0  0  0  0  0  0
   17.4933   -8.8025  -12.1253 N   0  0  0  0  0  0  0  0  0  0  0  0
   18.6379   -6.6865  -12.1743 C   0  0  0  0  0  0  0  0  0  0  0  0
   19.6624   -7.3312  -12.5151 O   0  0  0  0  0  0  0  0  0  0  0  0
   18.6507   -5.3104  -12.2727 O   0  0  0  0  0  0  0  0  0  0  0  0
  2  1  1  1
  2  4  1  0
  3  2  1  0
  4  5  2  0
  6  7  1  0
  7  9  1  0
  8  7  2  0
  9 10  1  0
 11 10  1  6
 11 13  1  0
 12  4  1  0
 12 11  1  0
 13 14  2  0
 16 15  1  0
 16 18  1  0
 17 16  2  0
 19 18  1  1
 19 21  1  0
 20 13  1  0
 20 19  1  0
 21 22  2  0
 21 23  1  0
M  END
$$$$
