AQN.pdb
     RDKit          3D

 23 22  0  0  1  0  0  0  0  0999 V2000
   18.3838  -13.2975  -17.1215 C   0  0  0  0  0  0  0  0  0  0  0  0
   18.7924  -11.8667  -17.4501 C   0  0  2  0  0  0  0  0  0  0  0  0
   19.2392  -11.8999  -18.8430 N   0  0  0  0  0  0  0  0  0  0  0  0
   19.9347  -11.4313  -16.5741 C   0  0  0  0  0  0  0  0  0  0  0  0
   19.8157  -11.3463  -15.3314 O   0  0  0  0  0  0  0  0  0  0  0  0
   26.0191  -12.2855  -17.3005 N   0  0  0  0  0  0  0  0  0  0  0  0
   25.9781  -11.4656  -16.1661 C   0  0  0  0  0  0  0  0  0  0  0  0
   27.0079  -11.2682  -15.4868 O   0  0  0  0  0  0  0  0  0  0  0  0
   24.6810  -10.8319  -15.7834 C   0  0  0  0  0  0  0  0  0  0  0  0
   23.5687  -11.2877  -16.6814 C   0  0  0  0  0  0  0  0  0  0  0  0
   22.2845  -10.6511  -16.2983 C   0  0  2  0  0  0  0  0  0  0  0  0
   21.1850  -11.1040  -17.1447 N   0  0  0  0  0  0  0  0  0  0  0  0
   22.3449   -9.1981  -16.2611 C   0  0  0  0  0  0  0  0  0  0  0  0
   22.6910   -8.4693  -17.2041 O   0  0  0  0  0  0  0  0  0  0  0  0
   21.7512   -4.2551  -15.0107 N   0  0  0  0  0  0  0  0  0  0  0  0
   20.7993   -5.0215  -15.7293 C   0  0  0  0  0  0  0  0  0  0  0  0
   19.8603   -4.4318  -16.3252 O   0  0  0  0  0  0  0  0  0  0  0  0
   20.8614   -6.4996  -15.8099 C   0  0  0  0  0  0  0  0  0  0  0  0
   21.9938   -7.0746  -14.9754 C   0  0  2  0  0  0  0  0  0  0  0  0
   21.9789   -8.5083  -15.0429 N   0  0  0  0  0  0  0  0  0  0  0  0
   21.9128   -6.6081  -13.5681 C   0  0  0  0  0  0  0  0  0  0  0  0
   21.5443   -7.4234  -12.6843 O   0  0  0  0  0  0  0  0  0  0  0  0
   22.2262   -5.3167  -13.1973 O   0  0  0  0  0  0  0  0  0  0  0  0
  2  1  1  1
  2  4  1  0
  3  2  1  0
  4  5  2  0
  6  7  1  0
  7  9  1  0
  8  7  2  0
  9 10  1  0
 11 10  1  6
 11 13  1  0
 12  4  1  0
 12 11  1  0
 13 14  2  0
 16 15  1  0
 16 18  1  0
 17 16  2  0
 19 18  1  6
 19 21  1  0
 20 13  1  0
 20 19  1  0
 21 22  2  0
 21 23  1  0
M  END
$$$$
