AQN.pdb
     RDKit          3D

 23 22  0  0  1  0  0  0  0  0999 V2000
   27.7489  -21.2385  -18.6878 C   0  0  0  0  0  0  0  0  0  0  0  0
   28.7503  -21.3787  -17.5478 C   0  0  2  0  0  0  0  0  0  0  0  0
   29.5948  -22.5175  -17.9098 N   0  0  0  0  0  0  0  0  0  0  0  0
   28.0397  -21.6800  -16.2570 C   0  0  0  0  0  0  0  0  0  0  0  0
   27.4339  -22.7599  -16.0759 O   0  0  0  0  0  0  0  0  0  0  0  0
   30.0788  -20.0486  -10.7708 N   0  0  0  0  0  0  0  0  0  0  0  0
   29.8823  -21.4168  -10.9944 C   0  0  0  0  0  0  0  0  0  0  0  0
   30.4806  -22.2667  -10.3011 O   0  0  0  0  0  0  0  0  0  0  0  0
   28.9450  -21.8412  -12.0769 C   0  0  0  0  0  0  0  0  0  0  0  0
   28.3726  -20.6545  -12.7949 C   0  0  0  0  0  0  0  0  0  0  0  0
   27.4841  -21.0842  -13.9028 C   0  0  2  0  0  0  0  0  0  0  0  0
   28.0411  -20.7358  -15.2062 N   0  0  0  0  0  0  0  0  0  0  0  0
   26.1195  -20.5963  -13.7756 C   0  0  0  0  0  0  0  0  0  0  0  0
   25.7290  -19.4633  -14.0980 O   0  0  0  0  0  0  0  0  0  0  0  0
   22.5652  -23.0126  -15.9226 N   0  0  0  0  0  0  0  0  0  0  0  0
   22.3371  -22.0201  -14.9363 C   0  0  0  0  0  0  0  0  0  0  0  0
   21.7167  -20.9715  -15.2526 O   0  0  0  0  0  0  0  0  0  0  0  0
   22.8019  -22.1640  -13.5368 C   0  0  0  0  0  0  0  0  0  0  0  0
   23.7402  -21.0424  -13.1235 C   0  0  2  0  0  0  0  0  0  0  0  0
   25.1048  -21.4738  -13.2333 N   0  0  0  0  0  0  0  0  0  0  0  0
   23.4406  -20.5728  -11.7472 C   0  0  0  0  0  0  0  0  0  0  0  0
   24.3030  -20.7514  -10.8494 O   0  0  0  0  0  0  0  0  0  0  0  0
   22.2539  -19.9499  -11.4196 O   0  0  0  0  0  0  0  0  0  0  0  0
  2  1  1  6
  2  4  1  0
  3  2  1  0
  4  5  2  0
  6  7  1  0
  7  9  1  0
  8  7  2  0
  9 10  1  0
 11 10  1  1
 11 13  1  0
 12  4  1  0
 12 11  1  0
 13 14  2  0
 16 15  1  0
 16 18  1  0
 17 16  2  0
 19 18  1  1
 19 21  1  0
 20 13  1  0
 20 19  1  0
 21 22  2  0
 21 23  1  0
M  END
$$$$
