AQN.pdb
     RDKit          3D

 23 22  0  0  1  0  0  0  0  0999 V2000
   18.3243  -12.2027  -16.4309 C   0  0  0  0  0  0  0  0  0  0  0  0
   17.7550  -11.5921  -15.1561 C   0  0  2  0  0  0  0  0  0  0  0  0
   16.3256  -11.9040  -15.1800 N   0  0  0  0  0  0  0  0  0  0  0  0
   17.9360  -10.0991  -15.1612 C   0  0  0  0  0  0  0  0  0  0  0  0
   17.6699   -9.4074  -16.1695 O   0  0  0  0  0  0  0  0  0  0  0  0
   16.1549   -6.5560  -10.6916 N   0  0  0  0  0  0  0  0  0  0  0  0
   17.3446   -7.2284  -10.3865 C   0  0  0  0  0  0  0  0  0  0  0  0
   17.7359   -7.3234   -9.2037 O   0  0  0  0  0  0  0  0  0  0  0  0
   18.1370   -7.8292  -11.5007 C   0  0  0  0  0  0  0  0  0  0  0  0
   17.5385   -7.4930  -12.8349 C   0  0  0  0  0  0  0  0  0  0  0  0
   18.4017   -7.9784  -13.9397 C   0  0  2  0  0  0  0  0  0  0  0  0
   18.4175   -9.4362  -14.0103 N   0  0  0  0  0  0  0  0  0  0  0  0
   19.7553   -7.4472  -13.8956 C   0  0  0  0  0  0  0  0  0  0  0  0
   20.7195   -7.9849  -13.3287 O   0  0  0  0  0  0  0  0  0  0  0  0
   23.9789   -4.6324  -15.0042 N   0  0  0  0  0  0  0  0  0  0  0  0
   23.1350   -4.7895  -16.1325 C   0  0  0  0  0  0  0  0  0  0  0  0
   23.5694   -4.4779  -17.2721 O   0  0  0  0  0  0  0  0  0  0  0  0
   21.7513   -5.3088  -16.0280 C   0  0  0  0  0  0  0  0  0  0  0  0
   21.3787   -5.6715  -14.6001 C   0  0  2  0  0  0  0  0  0  0  0  0
   20.0416   -6.1915  -14.5550 N   0  0  0  0  0  0  0  0  0  0  0  0
   21.5254   -4.5037  -13.6949 C   0  0  0  0  0  0  0  0  0  0  0  0
   22.6699   -4.0087  -13.5319 O   0  0  0  0  0  0  0  0  0  0  0  0
   20.4543   -3.9449  -13.0284 O   0  0  0  0  0  0  0  0  0  0  0  0
  2  1  1  6
  2  4  1  0
  3  2  1  0
  4  5  2  0
  6  7  1  0
  7  9  1  0
  8  7  2  0
  9 10  1  0
 11 10  1  1
 11 13  1  0
 12  4  1  0
 12 11  1  0
 13 14  2  0
 16 15  1  0
 16 18  1  0
 17 16  2  0
 19 18  1  6
 19 21  1  0
 20 13  1  0
 20 19  1  0
 21 22  2  0
 21 23  1  0
M  END
$$$$
