AQN.pdb
     RDKit          3D

 23 22  0  0  1  0  0  0  0  0999 V2000
   16.8814  -12.3447  -18.4542 C   0  0  0  0  0  0  0  0  0  0  0  0
   17.6759  -11.2308  -19.1252 C   0  0  2  0  0  0  0  0  0  0  0  0
   18.8855  -11.8723  -19.6411 N   0  0  0  0  0  0  0  0  0  0  0  0
   18.0626  -10.1811  -18.1200 C   0  0  0  0  0  0  0  0  0  0  0  0
   17.2032   -9.5156  -17.4999 O   0  0  0  0  0  0  0  0  0  0  0  0
   22.8319  -10.0074  -14.2128 N   0  0  0  0  0  0  0  0  0  0  0  0
   22.1596   -8.8110  -13.9345 C   0  0  0  0  0  0  0  0  0  0  0  0
   22.4366   -8.1492  -12.9116 O   0  0  0  0  0  0  0  0  0  0  0  0
   21.1057   -8.3411  -14.8826 C   0  0  0  0  0  0  0  0  0  0  0  0
   20.8331   -9.3673  -15.9428 C   0  0  0  0  0  0  0  0  0  0  0  0
   19.8007   -8.8851  -16.8931 C   0  0  2  0  0  0  0  0  0  0  0  0
   19.4246   -9.9203  -17.8509 N   0  0  0  0  0  0  0  0  0  0  0  0
   20.1701   -7.6558  -17.5775 C   0  0  0  0  0  0  0  0  0  0  0  0
   20.6919   -7.5886  -18.7015 O   0  0  0  0  0  0  0  0  0  0  0  0
   20.4064   -2.9795  -19.4296 N   0  0  0  0  0  0  0  0  0  0  0  0
   19.3782   -3.9202  -19.6900 C   0  0  0  0  0  0  0  0  0  0  0  0
   18.6090   -3.7336  -20.6688 O   0  0  0  0  0  0  0  0  0  0  0  0
   19.1669   -5.1240  -18.8525 C   0  0  0  0  0  0  0  0  0  0  0  0
   20.0843   -5.1510  -17.6413 C   0  0  2  0  0  0  0  0  0  0  0  0
   19.9250   -6.3863  -16.9279 N   0  0  0  0  0  0  0  0  0  0  0  0
   19.8333   -3.9882  -16.7528 C   0  0  0  0  0  0  0  0  0  0  0  0
   18.8384   -4.0219  -15.9843 O   0  0  0  0  0  0  0  0  0  0  0  0
   20.6497   -2.8761  -16.7408 O   0  0  0  0  0  0  0  0  0  0  0  0
  2  1  1  1
  2  4  1  0
  3  2  1  0
  4  5  2  0
  6  7  1  0
  7  9  1  0
  8  7  2  0
  9 10  1  0
 11 10  1  6
 11 13  1  0
 12  4  1  0
 12 11  1  0
 13 14  2  0
 16 15  1  0
 16 18  1  0
 17 16  2  0
 19 18  1  6
 19 21  1  0
 20 13  1  0
 20 19  1  0
 21 22  2  0
 21 23  1  0
M  END
$$$$
