AQN.pdb
     RDKit          3D

 23 22  0  0  1  0  0  0  0  0999 V2000
   14.5990   -8.1236  -11.0916 C   0  0  0  0  0  0  0  0  0  0  0  0
   15.2290   -9.3440  -11.7518 C   0  0  2  0  0  0  0  0  0  0  0  0
   15.1152  -10.4207  -10.7676 N   0  0  0  0  0  0  0  0  0  0  0  0
   16.6826   -9.0925  -12.0444 C   0  0  0  0  0  0  0  0  0  0  0  0
   17.5461   -9.0945  -11.1388 O   0  0  0  0  0  0  0  0  0  0  0  0
   19.7513  -10.1430  -17.3920 N   0  0  0  0  0  0  0  0  0  0  0  0
   20.7676   -9.7937  -16.4943 C   0  0  0  0  0  0  0  0  0  0  0  0
   21.9687   -9.9397  -16.8056 O   0  0  0  0  0  0  0  0  0  0  0  0
   20.3893   -9.2440  -15.1582 C   0  0  0  0  0  0  0  0  0  0  0  0
   18.9027   -9.2806  -14.9576 C   0  0  0  0  0  0  0  0  0  0  0  0
   18.5281   -8.6628  -13.6617 C   0  0  2  0  0  0  0  0  0  0  0  0
   17.1100   -8.8450  -13.3680 N   0  0  0  0  0  0  0  0  0  0  0  0
   18.9030   -7.2612  -13.5565 C   0  0  0  0  0  0  0  0  0  0  0  0
   18.2769   -6.3112  -14.0523 O   0  0  0  0  0  0  0  0  0  0  0  0
   19.7974   -5.9947   -9.1335 N   0  0  0  0  0  0  0  0  0  0  0  0
   19.8833   -5.1702  -10.2836 C   0  0  0  0  0  0  0  0  0  0  0  0
   18.9881   -4.3098  -10.4902 O   0  0  0  0  0  0  0  0  0  0  0  0
   20.9904   -5.2783  -11.2622 C   0  0  0  0  0  0  0  0  0  0  0  0
   20.4882   -5.5309  -12.6741 C   0  0  2  0  0  0  0  0  0  0  0  0
   20.0971   -6.9041  -12.8214 N   0  0  0  0  0  0  0  0  0  0  0  0
   21.5132   -5.1595  -13.6820 C   0  0  0  0  0  0  0  0  0  0  0  0
   22.2396   -6.0661  -14.1638 O   0  0  0  0  0  0  0  0  0  0  0  0
   21.6965   -3.8597  -14.1069 O   0  0  0  0  0  0  0  0  0  0  0  0
  2  1  1  1
  2  4  1  0
  3  2  1  0
  4  5  2  0
  6  7  1  0
  7  9  1  0
  8  7  2  0
  9 10  1  0
 11 10  1  6
 11 13  1  0
 12  4  1  0
 12 11  1  0
 13 14  2  0
 16 15  1  0
 16 18  1  0
 17 16  2  0
 19 18  1  1
 19 21  1  0
 20 13  1  0
 20 19  1  0
 21 22  2  0
 21 23  1  0
M  END
$$$$
