AQN.pdb
     RDKit          3D

 23 22  0  0  1  0  0  0  0  0999 V2000
   25.4707  -21.0425  -10.5204 C   0  0  0  0  0  0  0  0  0  0  0  0
   24.9781  -21.6550  -11.8259 C   0  0  2  0  0  0  0  0  0  0  0  0
   26.1862  -22.0537  -12.5487 N   0  0  0  0  0  0  0  0  0  0  0  0
   24.2303  -20.6332  -12.6374 C   0  0  0  0  0  0  0  0  0  0  0  0
   23.6527  -19.6613  -12.1009 O   0  0  0  0  0  0  0  0  0  0  0  0
   25.8947  -18.3359  -18.0377 N   0  0  0  0  0  0  0  0  0  0  0  0
   24.7143  -17.6264  -17.7843 C   0  0  0  0  0  0  0  0  0  0  0  0
   24.3780  -16.6703  -18.5148 O   0  0  0  0  0  0  0  0  0  0  0  0
   23.8655  -18.0335  -16.6249 C   0  0  0  0  0  0  0  0  0  0  0  0
   24.4695  -19.1949  -15.8916 C   0  0  0  0  0  0  0  0  0  0  0  0
   23.5479  -19.6955  -14.8423 C   0  0  2  0  0  0  0  0  0  0  0  0
   24.1632  -20.7510  -14.0436 N   0  0  0  0  0  0  0  0  0  0  0  0
   22.2568  -20.1228  -15.3588 C   0  0  0  0  0  0  0  0  0  0  0  0
   21.9935  -21.2588  -15.7835 O   0  0  0  0  0  0  0  0  0  0  0  0
   17.2033  -20.7081  -15.6941 N   0  0  0  0  0  0  0  0  0  0  0  0
   17.9212  -20.8047  -14.4754 C   0  0  0  0  0  0  0  0  0  0  0  0
   17.3767  -21.3578  -13.4845 O   0  0  0  0  0  0  0  0  0  0  0  0
   19.2967  -20.2778  -14.3155 C   0  0  0  0  0  0  0  0  0  0  0  0
   19.8114  -19.6176  -15.5838 C   0  0  2  0  0  0  0  0  0  0  0  0
   21.1640  -19.1750  -15.3968 N   0  0  0  0  0  0  0  0  0  0  0  0
   18.9360  -18.4910  -15.9948 C   0  0  0  0  0  0  0  0  0  0  0  0
   18.8055  -17.5142  -15.2135 O   0  0  0  0  0  0  0  0  0  0  0  0
   18.2628  -18.4781  -17.1991 O   0  0  0  0  0  0  0  0  0  0  0  0
  2  1  1  1
  2  4  1  0
  3  2  1  0
  4  5  2  0
  6  7  1  0
  7  9  1  0
  8  7  2  0
  9 10  1  0
 11 10  1  6
 11 13  1  0
 12  4  1  0
 12 11  1  0
 13 14  2  0
 16 15  1  0
 16 18  1  0
 17 16  2  0
 19 18  1  1
 19 21  1  0
 20 13  1  0
 20 19  1  0
 21 22  2  0
 21 23  1  0
M  END
$$$$
