AQN.pdb
     RDKit          3D

 23 22  0  0  1  0  0  0  0  0999 V2000
   17.0984  -15.8947  -17.3804 C   0  0  0  0  0  0  0  0  0  0  0  0
   17.8783  -15.0453  -16.3842 C   0  0  2  0  0  0  0  0  0  0  0  0
   17.3515  -15.4075  -15.0680 N   0  0  0  0  0  0  0  0  0  0  0  0
   17.6297  -13.5828  -16.6315 C   0  0  0  0  0  0  0  0  0  0  0  0
   17.9804  -13.0266  -17.6961 O   0  0  0  0  0  0  0  0  0  0  0  0
   13.0273   -9.9261  -14.7181 N   0  0  0  0  0  0  0  0  0  0  0  0
   13.9230   -8.9848  -15.2399 C   0  0  0  0  0  0  0  0  0  0  0  0
   13.5938   -7.7841  -15.3451 O   0  0  0  0  0  0  0  0  0  0  0  0
   15.2784   -9.4425  -15.6687 C   0  0  0  0  0  0  0  0  0  0  0  0
   15.4473  -10.9173  -15.4500 C   0  0  0  0  0  0  0  0  0  0  0  0
   16.8005  -11.3623  -15.8647 C   0  0  2  0  0  0  0  0  0  0  0  0
   16.9854  -12.7945  -15.6521 N   0  0  0  0  0  0  0  0  0  0  0  0
   17.8765  -10.6036  -15.2459 C   0  0  0  0  0  0  0  0  0  0  0  0
   18.2732  -10.7419  -14.0781 O   0  0  0  0  0  0  0  0  0  0  0  0
   22.9384   -7.3818  -16.5551 N   0  0  0  0  0  0  0  0  0  0  0  0
   21.9341   -7.9815  -15.7540 C   0  0  0  0  0  0  0  0  0  0  0  0
   21.9754   -7.8330  -14.5048 O   0  0  0  0  0  0  0  0  0  0  0  0
   20.8282   -8.7832  -16.3281 C   0  0  0  0  0  0  0  0  0  0  0  0
   19.5993   -8.7920  -15.4343 C   0  0  2  0  0  0  0  0  0  0  0  0
   18.5660   -9.5961  -16.0226 N   0  0  0  0  0  0  0  0  0  0  0  0
   19.1156   -7.4125  -15.1744 C   0  0  0  0  0  0  0  0  0  0  0  0
   18.3398   -6.8797  -16.0086 O   0  0  0  0  0  0  0  0  0  0  0  0
   19.4861   -6.6972  -14.0543 O   0  0  0  0  0  0  0  0  0  0  0  0
  2  1  1  6
  2  4  1  0
  3  2  1  0
  4  5  2  0
  6  7  1  0
  7  9  1  0
  8  7  2  0
  9 10  1  0
 11 10  1  1
 11 13  1  0
 12  4  1  0
 12 11  1  0
 13 14  2  0
 16 15  1  0
 16 18  1  0
 17 16  2  0
 19 18  1  6
 19 21  1  0
 20 13  1  0
 20 19  1  0
 21 22  2  0
 21 23  1  0
M  END
$$$$
