AQN.pdb
     RDKit          3D

 23 22  0  0  1  0  0  0  0  0999 V2000
   27.5700  -18.7051  -16.0739 C   0  0  0  0  0  0  0  0  0  0  0  0
   27.8018  -19.9443  -15.2179 C   0  0  2  0  0  0  0  0  0  0  0  0
   28.4075  -20.9289  -16.1148 N   0  0  0  0  0  0  0  0  0  0  0  0
   26.4943  -20.4812  -14.7041 C   0  0  0  0  0  0  0  0  0  0  0  0
   25.7542  -21.1999  -15.4123 O   0  0  0  0  0  0  0  0  0  0  0  0
   24.7769  -20.7188   -8.6792 N   0  0  0  0  0  0  0  0  0  0  0  0
   25.9596  -21.1376   -9.3009 C   0  0  0  0  0  0  0  0  0  0  0  0
   26.9712  -21.4145   -8.6219 O   0  0  0  0  0  0  0  0  0  0  0  0
   25.9894  -21.2469  -10.7900 C   0  0  0  0  0  0  0  0  0  0  0  0
   24.7492  -20.6644  -11.4017 C   0  0  0  0  0  0  0  0  0  0  0  0
   24.8117  -20.7234  -12.8829 C   0  0  2  0  0  0  0  0  0  0  0  0
   26.0678  -20.1807  -13.3912 N   0  0  0  0  0  0  0  0  0  0  0  0
   23.6740  -20.0964  -13.5377 C   0  0  0  0  0  0  0  0  0  0  0  0
   23.5596  -18.8832  -13.7727 O   0  0  0  0  0  0  0  0  0  0  0  0
   20.4864  -19.6838  -18.1657 N   0  0  0  0  0  0  0  0  0  0  0  0
   20.3087  -20.2505  -16.8783 C   0  0  0  0  0  0  0  0  0  0  0  0
   19.1595  -20.2596  -16.3650 O   0  0  0  0  0  0  0  0  0  0  0  0
   21.4269  -20.8374  -16.1034 C   0  0  0  0  0  0  0  0  0  0  0  0
   21.4487  -20.3493  -14.6645 C   0  0  2  0  0  0  0  0  0  0  0  0
   22.5645  -20.9209  -13.9654 N   0  0  0  0  0  0  0  0  0  0  0  0
   20.1723  -20.6615  -13.9732 C   0  0  0  0  0  0  0  0  0  0  0  0
   20.0194  -21.8088  -13.4813 O   0  0  0  0  0  0  0  0  0  0  0  0
   19.1518  -19.7409  -13.8521 O   0  0  0  0  0  0  0  0  0  0  0  0
  2  1  1  6
  2  4  1  0
  3  2  1  0
  4  5  2  0
  6  7  1  0
  7  9  1  0
  8  7  2  0
  9 10  1  0
 11 10  1  1
 11 13  1  0
 12  4  1  0
 12 11  1  0
 13 14  2  0
 16 15  1  0
 16 18  1  0
 17 16  2  0
 19 18  1  6
 19 21  1  0
 20 13  1  0
 20 19  1  0
 21 22  2  0
 21 23  1  0
M  END
$$$$
