AQN.pdb
     RDKit          3D

 23 22  0  0  1  0  0  0  0  0999 V2000
   20.0578  -12.3991  -19.6802 C   0  0  0  0  0  0  0  0  0  0  0  0
   20.7243  -11.6910  -18.5070 C   0  0  2  0  0  0  0  0  0  0  0  0
   20.7180  -12.6618  -17.4122 N   0  0  0  0  0  0  0  0  0  0  0  0
   19.9279  -10.4817  -18.1008 C   0  0  0  0  0  0  0  0  0  0  0  0
   19.8189   -9.4840  -18.8483 O   0  0  0  0  0  0  0  0  0  0  0  0
   14.7538   -9.9439  -14.8228 N   0  0  0  0  0  0  0  0  0  0  0  0
   15.1440   -8.6053  -14.9517 C   0  0  0  0  0  0  0  0  0  0  0  0
   14.3585   -7.6821  -14.6490 O   0  0  0  0  0  0  0  0  0  0  0  0
   16.5159   -8.3017  -15.4580 C   0  0  0  0  0  0  0  0  0  0  0  0
   17.2286   -9.5536  -15.8777 C   0  0  0  0  0  0  0  0  0  0  0  0
   18.5750   -9.2408  -16.4167 C   0  0  2  0  0  0  0  0  0  0  0  0
   19.2762  -10.4461  -16.8478 N   0  0  0  0  0  0  0  0  0  0  0  0
   19.3984   -8.4604  -15.5060 C   0  0  0  0  0  0  0  0  0  0  0  0
   20.3028   -8.9144  -14.7876 O   0  0  0  0  0  0  0  0  0  0  0  0
   22.2613   -4.5390  -13.8441 N   0  0  0  0  0  0  0  0  0  0  0  0
   22.4937   -5.3551  -14.9799 C   0  0  0  0  0  0  0  0  0  0  0  0
   23.5950   -5.2680  -15.5833 O   0  0  0  0  0  0  0  0  0  0  0  0
   21.4878   -6.3144  -15.4927 C   0  0  0  0  0  0  0  0  0  0  0  0
   20.1506   -6.1807  -14.7832 C   0  0  2  0  0  0  0  0  0  0  0  0
   19.1759   -7.0345  -15.4005 N   0  0  0  0  0  0  0  0  0  0  0  0
   19.6890   -4.7695  -14.7710 C   0  0  0  0  0  0  0  0  0  0  0  0
   19.8867   -4.0806  -13.7375 O   0  0  0  0  0  0  0  0  0  0  0  0
   19.0530   -4.1896  -15.8493 O   0  0  0  0  0  0  0  0  0  0  0  0
  2  1  1  6
  2  4  1  0
  3  2  1  0
  4  5  2  0
  6  7  1  0
  7  9  1  0
  8  7  2  0
  9 10  1  0
 11 10  1  1
 11 13  1  0
 12  4  1  0
 12 11  1  0
 13 14  2  0
 16 15  1  0
 16 18  1  0
 17 16  2  0
 19 18  1  6
 19 21  1  0
 20 13  1  0
 20 19  1  0
 21 22  2  0
 21 23  1  0
M  END
$$$$
