AQN.pdb
     RDKit          3D

 23 22  0  0  1  0  0  0  0  0999 V2000
   28.3767  -23.5905  -16.3798 C   0  0  0  0  0  0  0  0  0  0  0  0
   27.5496  -22.3144  -16.4769 C   0  0  2  0  0  0  0  0  0  0  0  0
   28.4607  -21.2312  -16.1057 N   0  0  0  0  0  0  0  0  0  0  0  0
   26.4046  -22.3538  -15.5026 C   0  0  0  0  0  0  0  0  0  0  0  0
   25.4400  -23.1367  -15.6522 O   0  0  0  0  0  0  0  0  0  0  0  0
   26.3223  -20.6262   -9.4795 N   0  0  0  0  0  0  0  0  0  0  0  0
   25.0152  -21.0786   -9.6972 C   0  0  0  0  0  0  0  0  0  0  0  0
   24.2360  -21.2570   -8.7369 O   0  0  0  0  0  0  0  0  0  0  0  0
   24.5700  -21.3442  -11.0978 C   0  0  0  0  0  0  0  0  0  0  0  0
   25.7024  -21.1769  -12.0679 C   0  0  0  0  0  0  0  0  0  0  0  0
   25.2732  -21.5182  -13.4464 C   0  0  2  0  0  0  0  0  0  0  0  0
   26.3940  -21.4948  -14.3811 N   0  0  0  0  0  0  0  0  0  0  0  0
   24.1756  -20.6968  -13.9332 C   0  0  0  0  0  0  0  0  0  0  0  0
   24.2586  -19.4979  -14.2431 O   0  0  0  0  0  0  0  0  0  0  0  0
   20.2645  -20.1454  -18.1470 N   0  0  0  0  0  0  0  0  0  0  0  0
   20.6622  -19.9556  -16.7996 C   0  0  0  0  0  0  0  0  0  0  0  0
   20.1262  -19.0381  -16.1248 O   0  0  0  0  0  0  0  0  0  0  0  0
   21.6910  -20.7972  -16.1450 C   0  0  0  0  0  0  0  0  0  0  0  0
   21.7781  -20.5412  -14.6496 C   0  0  2  0  0  0  0  0  0  0  0  0
   22.8640  -21.2893  -14.0825 N   0  0  0  0  0  0  0  0  0  0  0  0
   20.4972  -20.8692  -13.9741 C   0  0  0  0  0  0  0  0  0  0  0  0
   20.2262  -22.0770  -13.7518 O   0  0  0  0  0  0  0  0  0  0  0  0
   19.5970  -19.8993  -13.5835 O   0  0  0  0  0  0  0  0  0  0  0  0
  2  1  1  1
  2  4  1  0
  3  2  1  0
  4  5  2  0
  6  7  1  0
  7  9  1  0
  8  7  2  0
  9 10  1  0
 11 10  1  1
 11 13  1  0
 12  4  1  0
 12 11  1  0
 13 14  2  0
 16 15  1  0
 16 18  1  0
 17 16  2  0
 19 18  1  6
 19 21  1  0
 20 13  1  0
 20 19  1  0
 21 22  2  0
 21 23  1  0
M  END
$$$$
