AQN.pdb
     RDKit          3D

 23 22  0  0  1  0  0  0  0  0999 V2000
   16.1318  -11.8282  -11.3880 C   0  0  0  0  0  0  0  0  0  0  0  0
   15.2621  -10.9881  -10.4607 C   0  0  2  0  0  0  0  0  0  0  0  0
   13.8822  -11.2895  -10.8426 N   0  0  0  0  0  0  0  0  0  0  0  0
   15.5263   -9.5231  -10.6751 C   0  0  0  0  0  0  0  0  0  0  0  0
   15.2156   -8.9478  -11.7420 O   0  0  0  0  0  0  0  0  0  0  0  0
   14.9000   -5.1034   -6.6215 N   0  0  0  0  0  0  0  0  0  0  0  0
   13.9475   -5.6959   -7.4596 C   0  0  0  0  0  0  0  0  0  0  0  0
   12.7269   -5.5607   -7.2302 O   0  0  0  0  0  0  0  0  0  0  0  0
   14.4177   -6.4926   -8.6320 C   0  0  0  0  0  0  0  0  0  0  0  0
   15.9163   -6.5293   -8.6972 C   0  0  0  0  0  0  0  0  0  0  0  0
   16.3762   -7.3278   -9.8600 C   0  0  2  0  0  0  0  0  0  0  0  0
   16.1401   -8.7544   -9.6612 N   0  0  0  0  0  0  0  0  0  0  0  0
   17.7621   -7.0780  -10.2246 C   0  0  0  0  0  0  0  0  0  0  0  0
   18.7495   -7.6309   -9.7152 O   0  0  0  0  0  0  0  0  0  0  0  0
   21.8992   -5.8122  -13.0517 N   0  0  0  0  0  0  0  0  0  0  0  0
   21.3244   -7.0837  -12.8011 C   0  0  0  0  0  0  0  0  0  0  0  0
   21.9583   -8.1198  -13.1317 O   0  0  0  0  0  0  0  0  0  0  0  0
   19.9980   -7.2480  -12.1617 C   0  0  0  0  0  0  0  0  0  0  0  0
   19.3983   -5.9200  -11.7305 C   0  0  2  0  0  0  0  0  0  0  0  0
   18.0552   -6.1129  -11.2622 N   0  0  0  0  0  0  0  0  0  0  0  0
   19.4382   -4.9297  -12.8361 C   0  0  0  0  0  0  0  0  0  0  0  0
   18.4102   -4.7765  -13.5441 O   0  0  0  0  0  0  0  0  0  0  0  0
   20.5592   -4.1746  -13.1131 O   0  0  0  0  0  0  0  0  0  0  0  0
  2  1  1  6
  2  4  1  0
  3  2  1  0
  4  5  2  0
  6  7  1  0
  7  9  1  0
  8  7  2  0
  9 10  1  0
 11 10  1  1
 11 13  1  0
 12  4  1  0
 12 11  1  0
 13 14  2  0
 16 15  1  0
 16 18  1  0
 17 16  2  0
 19 18  1  6
 19 21  1  0
 20 13  1  0
 20 19  1  0
 21 22  2  0
 21 23  1  0
M  END
$$$$
