CHH.pdb
     RDKit          3D

 27 28  0  0  1  0  0  0  0  0999 V2000
   20.2638  -16.2761  -16.7707 N   0  0  0  0  0  0  0  0  0  0  0  0
   19.9314  -14.9345  -17.2080 C   0  0  1  0  0  0  0  0  0  0  0  0
   18.4125  -14.8545  -17.3073 C   0  0  0  0  0  0  0  0  0  0  0  0
   17.8107  -15.8691  -18.6663 S   0  0  0  0  0  0  0  0  0  0  0  0
   20.4427  -13.9269  -16.2491 C   0  0  0  0  0  0  0  0  0  0  0  0
   20.3091  -14.0247  -15.0105 O   0  0  0  0  0  0  0  0  0  0  0  0
   21.1199  -12.7868  -16.7284 N   0  0  0  0  0  0  0  0  0  0  0  0
   21.6346  -11.7348  -15.9112 C   0  0  1  0  0  0  0  0  0  0  0  0
   23.0745  -11.4182  -16.0729 C   0  0  0  0  0  0  0  0  0  0  0  0
   23.8843  -12.5828  -15.6403 C   0  0  0  0  0  0  0  0  0  0  0  0
   23.6101  -13.3757  -14.5468 C   0  0  0  0  0  0  0  0  0  0  0  0
   24.5394  -14.3452  -14.4365 N   0  0  0  0  0  0  0  0  0  0  0  0
   25.3929  -14.1596  -15.4582 C   0  0  0  0  0  0  0  0  0  0  0  0
   24.9975  -13.1039  -16.1765 N   0  0  0  0  0  0  0  0  0  0  0  0
   20.8356  -10.5220  -16.2120 C   0  0  0  0  0  0  0  0  0  0  0  0
   20.6490  -10.2246  -17.4116 O   0  0  0  0  0  0  0  0  0  0  0  0
   20.2786   -9.6916  -15.2146 N   0  0  0  0  0  0  0  0  0  0  0  0
   19.4435   -8.5170  -15.5713 C   0  0  1  0  0  0  0  0  0  0  0  0
   18.4870   -8.2304  -14.4638 C   0  0  0  0  0  0  0  0  0  0  0  0
   17.6101   -7.0746  -14.7059 C   0  0  0  0  0  0  0  0  0  0  0  0
   17.2748   -6.5933  -15.9826 C   0  0  0  0  0  0  0  0  0  0  0  0
   16.4625   -5.5344  -15.8521 N   0  0  0  0  0  0  0  0  0  0  0  0
   16.2642   -5.3184  -14.5415 C   0  0  0  0  0  0  0  0  0  0  0  0
   16.9601   -6.2517  -13.8636 N   0  0  0  0  0  0  0  0  0  0  0  0
   20.3993   -7.4065  -15.7523 C   0  0  0  0  0  0  0  0  0  0  0  0
   20.1569   -6.4389  -16.7460 O   0  0  0  0  0  0  0  0  0  0  0  0
   21.4226   -7.3093  -15.0376 O   0  0  0  0  0  0  0  0  0  0  0  0
  2  1  1  1
  2  5  1  0
  3  4  1  0
  3  2  1  0
  5  6  2  0
  5  7  1  0
  7  8  1  0
  8 15  1  0
  8  9  1  6
 10  9  1  0
 10 11  2  0
 12 11  1  0
 13 14  2  0
 13 12  1  0
 14 10  1  0
 15 16  2  0
 17 18  1  0
 17 15  1  0
 19 20  1  0
 18 19  1  1
 20 24  1  0
 21 20  2  0
 21 22  1  0
 22 23  1  0
 24 23  2  0
 25 26  1  0
 25 18  1  0
 27 25  2  0
M  END
$$$$
