CHH.pdb
     RDKit          3D

 27 28  0  0  1  0  0  0  0  0999 V2000
   25.2328  -21.9918  -13.4036 N   0  0  0  0  0  0  0  0  0  0  0  0
   24.7399  -21.0135  -12.4539 C   0  0  1  0  0  0  0  0  0  0  0  0
   25.8778  -20.7098  -11.4861 C   0  0  0  0  0  0  0  0  0  0  0  0
   26.7966  -22.2072  -11.0963 S   0  0  0  0  0  0  0  0  0  0  0  0
   24.3057  -19.7785  -13.1485 C   0  0  0  0  0  0  0  0  0  0  0  0
   23.9295  -18.7478  -12.5504 O   0  0  0  0  0  0  0  0  0  0  0  0
   24.3057  -19.7328  -14.5577 N   0  0  0  0  0  0  0  0  0  0  0  0
   24.0180  -18.5736  -15.3405 C   0  0  1  0  0  0  0  0  0  0  0  0
   24.7265  -18.4616  -16.6387 C   0  0  0  0  0  0  0  0  0  0  0  0
   26.1778  -18.2826  -16.3913 C   0  0  0  0  0  0  0  0  0  0  0  0
   26.7277  -17.7835  -15.2302 C   0  0  0  0  0  0  0  0  0  0  0  0
   28.0709  -17.7535  -15.3328 N   0  0  0  0  0  0  0  0  0  0  0  0
   28.3609  -18.2326  -16.5548 C   0  0  0  0  0  0  0  0  0  0  0  0
   27.2253  -18.5482  -17.1853 N   0  0  0  0  0  0  0  0  0  0  0  0
   22.5552  -18.5683  -15.5855 C   0  0  0  0  0  0  0  0  0  0  0  0
   21.9715  -19.6696  -15.6779 O   0  0  0  0  0  0  0  0  0  0  0  0
   21.7941  -17.3860  -15.7188 N   0  0  0  0  0  0  0  0  0  0  0  0
   20.3110  -17.4291  -15.7707 C   0  0  1  0  0  0  0  0  0  0  0  0
   19.7512  -16.8614  -14.5106 C   0  0  0  0  0  0  0  0  0  0  0  0
   19.5831  -17.8424  -13.4275 C   0  0  0  0  0  0  0  0  0  0  0  0
   19.9466  -19.1960  -13.5268 C   0  0  0  0  0  0  0  0  0  0  0  0
   19.6628  -19.8117  -12.3698 N   0  0  0  0  0  0  0  0  0  0  0  0
   19.1316  -18.9053  -11.5331 C   0  0  0  0  0  0  0  0  0  0  0  0
   19.0895  -17.7255  -12.1819 N   0  0  0  0  0  0  0  0  0  0  0  0
   19.9431  -16.6036  -16.9380 C   0  0  0  0  0  0  0  0  0  0  0  0
   18.6818  -16.7769  -17.5393 O   0  0  0  0  0  0  0  0  0  0  0  0
   20.7330  -15.7512  -17.4038 O   0  0  0  0  0  0  0  0  0  0  0  0
  2  1  1  6
  2  5  1  0
  3  4  1  0
  3  2  1  0
  5  6  2  0
  5  7  1  0
  7  8  1  0
  8 15  1  0
  8  9  1  6
 10  9  1  0
 10 11  2  0
 12 11  1  0
 13 14  2  0
 13 12  1  0
 14 10  1  0
 15 16  2  0
 17 18  1  0
 17 15  1  0
 19 20  1  0
 18 19  1  1
 20 24  1  0
 21 20  2  0
 21 22  1  0
 22 23  1  0
 24 23  2  0
 25 26  1  0
 25 18  1  0
 27 25  2  0
M  END
$$$$
