CHH.pdb
     RDKit          3D

 27 28  0  0  1  0  0  0  0  0999 V2000
   22.1685  -11.4799  -16.9480 N   0  0  0  0  0  0  0  0  0  0  0  0
   21.5926  -11.9109  -18.2068 C   0  0  1  0  0  0  0  0  0  0  0  0
   22.3507  -13.1578  -18.6473 C   0  0  0  0  0  0  0  0  0  0  0  0
   24.1252  -12.9185  -18.4685 S   0  0  0  0  0  0  0  0  0  0  0  0
   20.1494  -12.2089  -18.0503 C   0  0  0  0  0  0  0  0  0  0  0  0
   19.4348  -12.6575  -18.9720 O   0  0  0  0  0  0  0  0  0  0  0  0
   19.5205  -11.9852  -16.8084 N   0  0  0  0  0  0  0  0  0  0  0  0
   18.1390  -12.2215  -16.5344 C   0  0  1  0  0  0  0  0  0  0  0  0
   17.8340  -13.3034  -15.5668 C   0  0  0  0  0  0  0  0  0  0  0  0
   17.9131  -14.6142  -16.2559 C   0  0  0  0  0  0  0  0  0  0  0  0
   18.1309  -14.7874  -17.6058 C   0  0  0  0  0  0  0  0  0  0  0  0
   18.1472  -16.1012  -17.9046 N   0  0  0  0  0  0  0  0  0  0  0  0
   17.9402  -16.7485  -16.7449 C   0  0  0  0  0  0  0  0  0  0  0  0
   17.8006  -15.8552  -15.7604 N   0  0  0  0  0  0  0  0  0  0  0  0
   17.5732  -10.9469  -16.0295 C   0  0  0  0  0  0  0  0  0  0  0  0
   17.8196  -10.6227  -14.8478 O   0  0  0  0  0  0  0  0  0  0  0  0
   16.7741  -10.0867  -16.8144 N   0  0  0  0  0  0  0  0  0  0  0  0
   16.2094   -8.8350  -16.2499 C   0  0  1  0  0  0  0  0  0  0  0  0
   15.5531   -9.1288  -14.9436 C   0  0  0  0  0  0  0  0  0  0  0  0
   14.2731   -9.8445  -15.0571 C   0  0  0  0  0  0  0  0  0  0  0  0
   14.1389  -11.1411  -15.5814 C   0  0  0  0  0  0  0  0  0  0  0  0
   12.8468  -11.4976  -15.5426 N   0  0  0  0  0  0  0  0  0  0  0  0
   12.1478  -10.4800  -15.0139 C   0  0  0  0  0  0  0  0  0  0  0  0
   13.0178   -9.4924  -14.7266 N   0  0  0  0  0  0  0  0  0  0  0  0
   17.3668   -7.9353  -16.0758 C   0  0  0  0  0  0  0  0  0  0  0  0
   17.1726   -6.6561  -15.5206 O   0  0  0  0  0  0  0  0  0  0  0  0
   18.5194   -8.2894  -16.4132 O   0  0  0  0  0  0  0  0  0  0  0  0
  2  1  1  1
  2  5  1  0
  3  4  1  0
  3  2  1  0
  5  6  2  0
  5  7  1  0
  7  8  1  0
  8 15  1  0
  8  9  1  1
 10  9  1  0
 10 11  2  0
 12 11  1  0
 13 14  2  0
 13 12  1  0
 14 10  1  0
 15 16  2  0
 17 18  1  0
 17 15  1  0
 19 20  1  0
 18 19  1  1
 20 24  1  0
 21 20  2  0
 21 22  1  0
 22 23  1  0
 24 23  2  0
 25 26  1  0
 25 18  1  0
 27 25  2  0
M  END
$$$$
