CHH.pdb
     RDKit          3D

 27 28  0  0  1  0  0  0  0  0999 V2000
   27.9291  -19.2442   -6.5840 N   0  0  0  0  0  0  0  0  0  0  0  0
   27.1614  -20.3381   -7.1458 C   0  0  1  0  0  0  0  0  0  0  0  0
   25.9416  -20.5392   -6.2541 C   0  0  0  0  0  0  0  0  0  0  0  0
   26.4395  -20.7765   -4.5412 S   0  0  0  0  0  0  0  0  0  0  0  0
   26.7443  -20.0295   -8.5341 C   0  0  0  0  0  0  0  0  0  0  0  0
   26.1209  -18.9942   -8.8519 O   0  0  0  0  0  0  0  0  0  0  0  0
   27.0524  -20.9316   -9.5729 N   0  0  0  0  0  0  0  0  0  0  0  0
   26.8747  -20.6701  -10.9656 C   0  0  1  0  0  0  0  0  0  0  0  0
   27.8219  -21.3409  -11.8889 C   0  0  0  0  0  0  0  0  0  0  0  0
   27.4863  -20.9753  -13.2864 C   0  0  0  0  0  0  0  0  0  0  0  0
   27.7276  -19.7471  -13.8635 C   0  0  0  0  0  0  0  0  0  0  0  0
   27.3037  -19.7482  -15.1425 N   0  0  0  0  0  0  0  0  0  0  0  0
   26.7985  -20.9737  -15.3654 C   0  0  0  0  0  0  0  0  0  0  0  0
   26.9095  -21.7053  -14.2522 N   0  0  0  0  0  0  0  0  0  0  0  0
   25.4913  -21.0790  -11.3102 C   0  0  0  0  0  0  0  0  0  0  0  0
   24.9743  -22.0100  -10.6560 O   0  0  0  0  0  0  0  0  0  0  0  0
   24.7342  -20.4710  -12.3358 N   0  0  0  0  0  0  0  0  0  0  0  0
   23.3427  -20.9022  -12.6220 C   0  0  1  0  0  0  0  0  0  0  0  0
   22.4251  -20.3451  -11.5870 C   0  0  0  0  0  0  0  0  0  0  0  0
   20.9985  -20.5892  -11.8490 C   0  0  0  0  0  0  0  0  0  0  0  0
   20.3924  -21.8555  -11.7936 C   0  0  0  0  0  0  0  0  0  0  0  0
   19.0890  -21.7303  -12.0829 N   0  0  0  0  0  0  0  0  0  0  0  0
   18.8363  -20.4330  -12.3215 C   0  0  0  0  0  0  0  0  0  0  0  0
   19.9932  -19.7581  -12.1775 N   0  0  0  0  0  0  0  0  0  0  0  0
   23.0372  -20.3532  -13.9579 C   0  0  0  0  0  0  0  0  0  0  0  0
   22.0400  -20.9604  -14.7450 O   0  0  0  0  0  0  0  0  0  0  0  0
   23.6492  -19.3564  -14.4044 O   0  0  0  0  0  0  0  0  0  0  0  0
  2  1  1  1
  2  5  1  0
  3  4  1  0
  3  2  1  0
  5  6  2  0
  5  7  1  0
  7  8  1  0
  8 15  1  0
  8  9  1  6
 10  9  1  0
 10 11  2  0
 12 11  1  0
 13 14  2  0
 13 12  1  0
 14 10  1  0
 15 16  2  0
 17 18  1  0
 17 15  1  0
 19 20  1  0
 18 19  1  1
 20 24  1  0
 21 20  2  0
 21 22  1  0
 22 23  1  0
 24 23  2  0
 25 26  1  0
 25 18  1  0
 27 25  2  0
M  END
$$$$
