CHH.pdb
     RDKit          3D

 27 28  0  0  1  0  0  0  0  0999 V2000
   19.6445  -11.8469  -17.6688 N   0  0  0  0  0  0  0  0  0  0  0  0
   20.6930  -10.8937  -17.3627 C   0  0  1  0  0  0  0  0  0  0  0  0
   21.4561  -10.6303  -18.6557 C   0  0  0  0  0  0  0  0  0  0  0  0
   22.3117  -12.1162  -19.2020 S   0  0  0  0  0  0  0  0  0  0  0  0
   20.1203   -9.6340  -16.8322 C   0  0  0  0  0  0  0  0  0  0  0  0
   19.0557   -9.1313  -17.2511 O   0  0  0  0  0  0  0  0  0  0  0  0
   20.7881   -8.9430  -15.8004 N   0  0  0  0  0  0  0  0  0  0  0  0
   20.3662   -7.6992  -15.2399 C   0  0  1  0  0  0  0  0  0  0  0  0
   20.6358   -7.5015  -13.7949 C   0  0  0  0  0  0  0  0  0  0  0  0
   19.6038   -8.2125  -13.0019 C   0  0  0  0  0  0  0  0  0  0  0  0
   18.5366   -8.9057  -13.5311 C   0  0  0  0  0  0  0  0  0  0  0  0
   17.7928   -9.4332  -12.5391 N   0  0  0  0  0  0  0  0  0  0  0  0
   18.3928   -9.0712  -11.3921 C   0  0  0  0  0  0  0  0  0  0  0  0
   19.4764   -8.3407  -11.6731 N   0  0  0  0  0  0  0  0  0  0  0  0
   21.0415   -6.6259  -16.0093 C   0  0  0  0  0  0  0  0  0  0  0  0
   22.1341   -6.8929  -16.5544 O   0  0  0  0  0  0  0  0  0  0  0  0
   20.5129   -5.3244  -16.1552 N   0  0  0  0  0  0  0  0  0  0  0  0
   21.1351   -4.3416  -17.0778 C   0  0  1  0  0  0  0  0  0  0  0  0
   21.1758   -4.9083  -18.4565 C   0  0  0  0  0  0  0  0  0  0  0  0
   21.6988   -3.9847  -19.4749 C   0  0  0  0  0  0  0  0  0  0  0  0
   22.4544   -2.8365  -19.1838 C   0  0  0  0  0  0  0  0  0  0  0  0
   22.7724   -2.2191  -20.3310 N   0  0  0  0  0  0  0  0  0  0  0  0
   22.2501   -2.9271  -21.3457 C   0  0  0  0  0  0  0  0  0  0  0  0
   21.6071   -3.9861  -20.8167 N   0  0  0  0  0  0  0  0  0  0  0  0
   20.2645   -3.1510  -17.0153 C   0  0  0  0  0  0  0  0  0  0  0  0
   20.8043   -1.8823  -17.3005 O   0  0  0  0  0  0  0  0  0  0  0  0
   19.0535   -3.2489  -16.7130 O   0  0  0  0  0  0  0  0  0  0  0  0
  2  1  1  6
  2  5  1  0
  3  4  1  0
  3  2  1  0
  5  6  2  0
  5  7  1  0
  7  8  1  0
  8 15  1  0
  8  9  1  1
 10  9  1  0
 10 11  2  0
 12 11  1  0
 13 14  2  0
 13 12  1  0
 14 10  1  0
 15 16  2  0
 17 18  1  0
 17 15  1  0
 19 20  1  0
 18 19  1  6
 20 24  1  0
 21 20  2  0
 21 22  1  0
 22 23  1  0
 24 23  2  0
 25 26  1  0
 25 18  1  0
 27 25  2  0
M  END
$$$$
