CHH.pdb
     RDKit          3D

 27 28  0  0  1  0  0  0  0  0999 V2000
   16.7929  -11.6441  -12.5568 N   0  0  0  0  0  0  0  0  0  0  0  0
   15.9797  -10.7683  -13.3775 C   0  0  1  0  0  0  0  0  0  0  0  0
   14.7928  -11.5864  -13.8731 C   0  0  0  0  0  0  0  0  0  0  0  0
   15.3487  -13.1368  -14.5980 S   0  0  0  0  0  0  0  0  0  0  0  0
   15.5137   -9.5983  -12.5962 C   0  0  0  0  0  0  0  0  0  0  0  0
   14.8096   -8.6850  -13.0774 O   0  0  0  0  0  0  0  0  0  0  0  0
   15.8668   -9.4809  -11.2363 N   0  0  0  0  0  0  0  0  0  0  0  0
   15.3915   -8.4667  -10.3503 C   0  0  1  0  0  0  0  0  0  0  0  0
   14.8180   -8.9305   -9.0636 C   0  0  0  0  0  0  0  0  0  0  0  0
   13.4319   -9.4075   -9.2881 C   0  0  0  0  0  0  0  0  0  0  0  0
   12.4372   -8.6857   -9.9121 C   0  0  0  0  0  0  0  0  0  0  0  0
   11.3009   -9.4086   -9.9536 N   0  0  0  0  0  0  0  0  0  0  0  0
   11.5835  -10.5796   -9.3572 C   0  0  0  0  0  0  0  0  0  0  0  0
   12.8599  -10.5752   -8.9603 N   0  0  0  0  0  0  0  0  0  0  0  0
   16.5345   -7.5631  -10.0730 C   0  0  0  0  0  0  0  0  0  0  0  0
   17.4815   -8.0075   -9.3890 O   0  0  0  0  0  0  0  0  0  0  0  0
   16.6045   -6.2326  -10.5417 N   0  0  0  0  0  0  0  0  0  0  0  0
   17.7551   -5.3581  -10.2018 C   0  0  1  0  0  0  0  0  0  0  0  0
   18.5392   -5.0637  -11.4355 C   0  0  0  0  0  0  0  0  0  0  0  0
   19.4339   -6.1522  -11.8577 C   0  0  0  0  0  0  0  0  0  0  0  0
   19.6475   -7.3281  -11.1191 C   0  0  0  0  0  0  0  0  0  0  0  0
   20.5148   -8.1088  -11.7797 N   0  0  0  0  0  0  0  0  0  0  0  0
   20.8653   -7.4789  -12.9129 C   0  0  0  0  0  0  0  0  0  0  0  0
   20.2081   -6.3035  -12.9471 N   0  0  0  0  0  0  0  0  0  0  0  0
   17.1534   -4.1300   -9.6456 C   0  0  0  0  0  0  0  0  0  0  0  0
   17.9708   -3.2010   -8.9739 O   0  0  0  0  0  0  0  0  0  0  0  0
   15.9282   -3.8993   -9.7603 O   0  0  0  0  0  0  0  0  0  0  0  0
  2  1  1  1
  2  5  1  0
  3  4  1  0
  3  2  1  0
  5  6  2  0
  5  7  1  0
  7  8  1  0
  8 15  1  0
  8  9  1  1
 10  9  1  0
 10 11  2  0
 12 11  1  0
 13 14  2  0
 13 12  1  0
 14 10  1  0
 15 16  2  0
 17 18  1  0
 17 15  1  0
 19 20  1  0
 18 19  1  6
 20 24  1  0
 21 20  2  0
 21 22  1  0
 22 23  1  0
 24 23  2  0
 25 26  1  0
 25 18  1  0
 27 25  2  0
M  END
$$$$
