CHH.pdb
     RDKit          3D

 27 28  0  0  1  0  0  0  0  0999 V2000
   25.2461  -12.7259  -16.9578 N   0  0  0  0  0  0  0  0  0  0  0  0
   24.9997  -11.6146  -16.0599 C   0  0  1  0  0  0  0  0  0  0  0  0
   26.2406  -10.7297  -16.0846 C   0  0  0  0  0  0  0  0  0  0  0  0
   27.6436  -11.5826  -15.3481 S   0  0  0  0  0  0  0  0  0  0  0  0
   23.8063  -10.8473  -16.4877 C   0  0  0  0  0  0  0  0  0  0  0  0
   23.4638  -10.7157  -17.6822 O   0  0  0  0  0  0  0  0  0  0  0  0
   22.9944  -10.2212  -15.5198 N   0  0  0  0  0  0  0  0  0  0  0  0
   21.7960   -9.4965  -15.7993 C   0  0  1  0  0  0  0  0  0  0  0  0
   20.5678   -9.9616  -15.1102 C   0  0  0  0  0  0  0  0  0  0  0  0
   20.1441  -11.2605  -15.6869 C   0  0  0  0  0  0  0  0  0  0  0  0
   20.0852  -11.5476  -17.0336 C   0  0  0  0  0  0  0  0  0  0  0  0
   19.6628  -12.8141  -17.2163 N   0  0  0  0  0  0  0  0  0  0  0  0
   19.4580  -13.3183  -15.9872 C   0  0  0  0  0  0  0  0  0  0  0  0
   19.7471  -12.3855  -15.0744 N   0  0  0  0  0  0  0  0  0  0  0  0
   22.0499   -8.0817  -15.4335 C   0  0  0  0  0  0  0  0  0  0  0  0
   22.5847   -7.8481  -14.3282 O   0  0  0  0  0  0  0  0  0  0  0  0
   21.7186   -6.9919  -16.2685 N   0  0  0  0  0  0  0  0  0  0  0  0
   22.0510   -5.5980  -15.8803 C   0  0  1  0  0  0  0  0  0  0  0  0
   21.8506   -4.6937  -17.0489 C   0  0  0  0  0  0  0  0  0  0  0  0
   22.1803   -3.2843  -16.7866 C   0  0  0  0  0  0  0  0  0  0  0  0
   22.8277   -2.8293  -15.6257 C   0  0  0  0  0  0  0  0  0  0  0  0
   22.9770   -1.4987  -15.7004 N   0  0  0  0  0  0  0  0  0  0  0  0
   22.4503   -1.0835  -16.8640 C   0  0  0  0  0  0  0  0  0  0  0  0
   21.9748   -2.1674  -17.5072 N   0  0  0  0  0  0  0  0  0  0  0  0
   21.1166   -5.2707  -14.7853 C   0  0  0  0  0  0  0  0  0  0  0  0
   21.6058   -4.6531  -13.6184 O   0  0  0  0  0  0  0  0  0  0  0  0
   19.8955   -5.5325  -14.8753 O   0  0  0  0  0  0  0  0  0  0  0  0
  2  1  1  6
  2  5  1  0
  3  4  1  0
  3  2  1  0
  5  6  2  0
  5  7  1  0
  7  8  1  0
  8 15  1  0
  8  9  1  1
 10  9  1  0
 10 11  2  0
 12 11  1  0
 13 14  2  0
 13 12  1  0
 14 10  1  0
 15 16  2  0
 17 18  1  0
 17 15  1  0
 19 20  1  0
 18 19  1  6
 20 24  1  0
 21 20  2  0
 21 22  1  0
 22 23  1  0
 24 23  2  0
 25 26  1  0
 25 18  1  0
 27 25  2  0
M  END
$$$$
