CHH.pdb
     RDKit          3D

 27 28  0  0  1  0  0  0  0  0999 V2000
   43.8191   -9.3250   -8.4471 N   0  0  0  0  0  0  0  0  0  0  0  0
   43.0855   -8.1177   -8.1215 C   0  0  1  0  0  0  0  0  0  0  0  0
   43.8557   -6.9457   -8.7187 C   0  0  0  0  0  0  0  0  0  0  0  0
   45.4461   -6.7479   -7.9002 S   0  0  0  0  0  0  0  0  0  0  0  0
   41.7116   -8.1718   -8.6746 C   0  0  0  0  0  0  0  0  0  0  0  0
   41.4311   -8.6999   -9.7718 O   0  0  0  0  0  0  0  0  0  0  0  0
   40.6435   -7.6064   -7.9484 N   0  0  0  0  0  0  0  0  0  0  0  0
   39.2928   -7.5265   -8.4053 C   0  0  1  0  0  0  0  0  0  0  0  0
   38.2377   -7.6574   -7.3712 C   0  0  0  0  0  0  0  0  0  0  0  0
   38.1009   -9.0836   -6.9881 C   0  0  0  0  0  0  0  0  0  0  0  0
   38.7931  -10.1278   -7.5626 C   0  0  0  0  0  0  0  0  0  0  0  0
   38.4362  -11.2908   -6.9832 N   0  0  0  0  0  0  0  0  0  0  0  0
   37.5231  -10.9753   -6.0486 C   0  0  0  0  0  0  0  0  0  0  0  0
   37.3250   -9.6533   -6.0545 N   0  0  0  0  0  0  0  0  0  0  0  0
   39.1427   -6.2177   -9.0868 C   0  0  0  0  0  0  0  0  0  0  0  0
   39.8038   -5.2502   -8.6519 O   0  0  0  0  0  0  0  0  0  0  0  0
   38.2939   -6.0127  -10.1968 N   0  0  0  0  0  0  0  0  0  0  0  0
   38.2133   -4.6911  -10.8684 C   0  0  1  0  0  0  0  0  0  0  0  0
   37.3872   -4.8093  -12.1042 C   0  0  0  0  0  0  0  0  0  0  0  0
   37.2929   -3.5691  -12.8896 C   0  0  0  0  0  0  0  0  0  0  0  0
   38.0121   -2.3971  -12.6013 C   0  0  0  0  0  0  0  0  0  0  0  0
   37.6985   -1.4574  -13.5051 N   0  0  0  0  0  0  0  0  0  0  0  0
   36.8064   -1.9817  -14.3612 C   0  0  0  0  0  0  0  0  0  0  0  0
   36.5714   -3.2520  -13.9794 N   0  0  0  0  0  0  0  0  0  0  0  0
   37.5744   -3.7971   -9.8824 C   0  0  0  0  0  0  0  0  0  0  0  0
   38.1383   -2.5327   -9.6262 O   0  0  0  0  0  0  0  0  0  0  0  0
   36.5392   -4.1432   -9.2691 O   0  0  0  0  0  0  0  0  0  0  0  0
  2  1  1  6
  2  5  1  0
  3  4  1  0
  3  2  1  0
  5  6  2  0
  5  7  1  0
  7  8  1  0
  8 15  1  0
  8  9  1  1
 10  9  1  0
 10 11  2  0
 12 11  1  0
 13 14  2  0
 13 12  1  0
 14 10  1  0
 15 16  2  0
 17 18  1  0
 17 15  1  0
 19 20  1  0
 18 19  1  6
 20 24  1  0
 21 20  2  0
 21 22  1  0
 22 23  1  0
 24 23  2  0
 25 26  1  0
 25 18  1  0
 27 25  2  0
M  END
$$$$
