YDK.pdb
     RDKit          3D

 30 30  0  0  1  0  0  0  0  0999 V2000
   19.7115  -29.4609  -10.2356 O   0  0  0  0  0  0  0  0  0  0  0  0
   20.0141  -28.2965  -10.9508 C   0  0  0  0  0  0  0  0  0  0  0  0
   21.3249  -27.8939  -11.1122 C   0  0  0  0  0  0  0  0  0  0  0  0
   21.6387  -26.7480  -11.8148 C   0  0  0  0  0  0  0  0  0  0  0  0
   20.6633  -25.9566  -12.3850 C   0  0  0  0  0  0  0  0  0  0  0  0
   20.9439  -24.7295  -13.1409 C   0  0  0  0  0  0  0  0  0  0  0  0
   21.2728  -24.9848  -14.5891 C   0  0  2  0  0  0  0  0  0  0  0  0
   22.4851  -25.7125  -14.7770 N   0  0  0  0  0  0  0  0  0  0  0  0
   21.3979  -23.6784  -15.2857 C   0  0  0  0  0  0  0  0  0  0  0  0
   22.5175  -23.0778  -15.1686 O   0  0  0  0  0  0  0  0  0  0  0  0
   19.3469  -26.3779  -12.2122 C   0  0  0  0  0  0  0  0  0  0  0  0
   19.0275  -27.5155  -11.5153 C   0  0  0  0  0  0  0  0  0  0  0  0
   20.3493  -23.0967  -16.0504 N   0  0  0  0  0  0  0  0  0  0  0  0
   20.5554  -21.8720  -16.7853 C   0  0  1  0  0  0  0  0  0  0  0  0
   20.7044  -22.0704  -18.2676 C   0  0  0  0  0  0  0  0  0  0  0  0
   20.9397  -20.8380  -19.0200 C   0  0  0  0  0  0  0  0  0  0  0  0
   20.8071  -20.7941  -20.2656 O   0  0  0  0  0  0  0  0  0  0  0  0
   19.3823  -20.9638  -16.5736 C   0  0  0  0  0  0  0  0  0  0  0  0
   18.1956  -21.4057  -16.5428 O   0  0  0  0  0  0  0  0  0  0  0  0
   21.3187  -19.6823  -18.3624 O   0  0  0  0  0  0  0  0  0  0  0  0
   19.5420  -19.5632  -16.3969 N   0  0  0  0  0  0  0  0  0  0  0  0
   18.4028  -18.6670  -16.2303 C   0  0  1  0  0  0  0  0  0  0  0  0
   18.8480  -17.2200  -16.2270 C   0  0  0  0  0  0  0  0  0  0  0  0
   17.6720  -16.2768  -16.0883 C   0  0  0  0  0  0  0  0  0  0  0  0
   18.2214  -14.8608  -16.2050 C   0  0  0  0  0  0  0  0  0  0  0  0
   17.0617  -13.9047  -16.0193 C   0  0  0  0  0  0  0  0  0  0  0  0
   17.6104  -12.5630  -16.1331 N   0  0  0  0  0  0  0  0  0  0  0  0
   17.5436  -18.8618  -17.4259 C   0  0  0  0  0  0  0  0  0  0  0  0
   18.1060  -19.1326  -18.5151 O   0  0  0  0  0  0  0  0  0  0  0  0
   16.1616  -18.7625  -17.4095 O   0  0  0  0  0  0  0  0  0  0  0  0
  1  2  1  0
  2 12  2  0
  3  2  1  0
  3  4  2  0
  4  5  1  0
  5 11  2  0
  5  6  1  0
  6  7  1  0
  7  8  1  1
  9 10  2  0
  9  7  1  0
 12 11  1  0
 13  9  1  0
 14 13  1  0
 14 15  1  6
 16 15  1  0
 16 20  1  0
 17 16  2  0
 18 14  1  0
 19 18  2  0
 21 18  1  0
 22 21  1  0
 23 24  1  0
 22 23  1  6
 25 24  1  0
 26 25  1  0
 27 26  1  0
 28 30  1  0
 28 22  1  0
 29 28  2  0
M  END
$$$$
