YDK.pdb
     RDKit          3D

 30 30  0  0  1  0  0  0  0  0999 V2000
   20.6944  -19.7304  -12.3190 O   0  0  0  0  0  0  0  0  0  0  0  0
   20.2484  -18.5388  -12.9024 C   0  0  0  0  0  0  0  0  0  0  0  0
   20.0790  -17.4035  -12.1353 C   0  0  0  0  0  0  0  0  0  0  0  0
   19.6398  -16.2214  -12.6964 C   0  0  0  0  0  0  0  0  0  0  0  0
   19.3515  -16.1199  -14.0415 C   0  0  0  0  0  0  0  0  0  0  0  0
   18.8816  -14.8875  -14.6868 C   0  0  0  0  0  0  0  0  0  0  0  0
   17.3862  -14.7148  -14.6220 C   0  0  2  0  0  0  0  0  0  0  0  0
   16.6676  -15.6981  -15.3646 N   0  0  0  0  0  0  0  0  0  0  0  0
   17.0386  -13.3744  -15.1607 C   0  0  0  0  0  0  0  0  0  0  0  0
   16.8094  -13.3086  -16.4141 O   0  0  0  0  0  0  0  0  0  0  0  0
   19.5281  -17.2749  -14.8000 C   0  0  0  0  0  0  0  0  0  0  0  0
   19.9642  -18.4531  -14.2491 C   0  0  0  0  0  0  0  0  0  0  0  0
   16.9561  -12.2054  -14.3549 N   0  0  0  0  0  0  0  0  0  0  0  0
   16.5045  -10.9511  -14.9074 C   0  0  1  0  0  0  0  0  0  0  0  0
   15.6846  -10.1273  -13.9547 C   0  0  0  0  0  0  0  0  0  0  0  0
   15.1590   -8.8881  -14.5278 C   0  0  0  0  0  0  0  0  0  0  0  0
   15.1627   -7.8134  -13.8828 O   0  0  0  0  0  0  0  0  0  0  0  0
   17.6926  -10.1264  -15.3001 C   0  0  0  0  0  0  0  0  0  0  0  0
   18.7146  -10.0359  -14.5573 O   0  0  0  0  0  0  0  0  0  0  0  0
   14.6404   -8.8788  -15.8095 O   0  0  0  0  0  0  0  0  0  0  0  0
   17.7324   -9.4056  -16.5237 N   0  0  0  0  0  0  0  0  0  0  0  0
   18.9361   -8.7203  -16.9822 C   0  0  1  0  0  0  0  0  0  0  0  0
   18.8538   -8.4128  -18.4622 C   0  0  0  0  0  0  0  0  0  0  0  0
   20.1062   -7.7208  -18.9567 C   0  0  0  0  0  0  0  0  0  0  0  0
   19.9641   -7.5694  -20.4659 C   0  0  0  0  0  0  0  0  0  0  0  0
   21.2137   -6.8817  -20.9750 C   0  0  0  0  0  0  0  0  0  0  0  0
   21.0206   -6.6778  -22.4016 N   0  0  0  0  0  0  0  0  0  0  0  0
   18.9734   -7.4216  -16.2628 C   0  0  0  0  0  0  0  0  0  0  0  0
   20.0413   -6.7625  -16.2964 O   0  0  0  0  0  0  0  0  0  0  0  0
   17.9016   -6.8964  -15.5588 O   0  0  0  0  0  0  0  0  0  0  0  0
  1  2  1  0
  2 12  2  0
  3  2  1  0
  3  4  2  0
  4  5  1  0
  5 11  2  0
  5  6  1  0
  6  7  1  0
  7  8  1  6
  9 10  2  0
  9  7  1  0
 12 11  1  0
 13  9  1  0
 14 13  1  0
 14 15  1  1
 16 15  1  0
 16 20  1  0
 17 16  2  0
 18 14  1  0
 19 18  2  0
 21 18  1  0
 22 21  1  0
 23 24  1  0
 22 23  1  6
 25 24  1  0
 26 25  1  0
 27 26  1  0
 28 30  1  0
 28 22  1  0
 29 28  2  0
M  END
$$$$
