YDK.pdb
     RDKit          3D

 30 30  0  0  1  0  0  0  0  0999 V2000
   23.2161  -17.1085  -22.6231 O   0  0  0  0  0  0  0  0  0  0  0  0
   22.9452  -17.8024  -21.4381 C   0  0  0  0  0  0  0  0  0  0  0  0
   21.9866  -17.3400  -20.5587 C   0  0  0  0  0  0  0  0  0  0  0  0
   21.7086  -18.0135  -19.3864 C   0  0  0  0  0  0  0  0  0  0  0  0
   22.3715  -19.1728  -19.0410 C   0  0  0  0  0  0  0  0  0  0  0  0
   22.1137  -19.9260  -17.8073 C   0  0  0  0  0  0  0  0  0  0  0  0
   23.0318  -19.5452  -16.6748 C   0  0  2  0  0  0  0  0  0  0  0  0
   24.3836  -19.9530  -16.8771 N   0  0  0  0  0  0  0  0  0  0  0  0
   22.5337  -20.1773  -15.4258 C   0  0  0  0  0  0  0  0  0  0  0  0
   23.1223  -21.2479  -15.0580 O   0  0  0  0  0  0  0  0  0  0  0  0
   23.3349  -19.6247  -19.9398 C   0  0  0  0  0  0  0  0  0  0  0  0
   23.6165  -18.9606  -21.1067 C   0  0  0  0  0  0  0  0  0  0  0  0
   21.4619  -19.6478  -14.6553 N   0  0  0  0  0  0  0  0  0  0  0  0
   21.0981  -20.2316  -13.3868 C   0  0  1  0  0  0  0  0  0  0  0  0
   20.6338  -19.2297  -12.3674 C   0  0  0  0  0  0  0  0  0  0  0  0
   20.3768  -19.7931  -11.0420 C   0  0  0  0  0  0  0  0  0  0  0  0
   19.8691  -19.1068  -10.1242 O   0  0  0  0  0  0  0  0  0  0  0  0
   19.9797  -21.2075  -13.5931 C   0  0  0  0  0  0  0  0  0  0  0  0
   18.9820  -20.9316  -14.3232 O   0  0  0  0  0  0  0  0  0  0  0  0
   20.6940  -21.1117  -10.7725 O   0  0  0  0  0  0  0  0  0  0  0  0
   19.9820  -22.4896  -12.9810 N   0  0  0  0  0  0  0  0  0  0  0  0
   18.8723  -23.4244  -13.1331 C   0  0  1  0  0  0  0  0  0  0  0  0
   19.2468  -24.7981  -12.6186 C   0  0  0  0  0  0  0  0  0  0  0  0
   19.1506  -25.8450  -13.7078 C   0  0  0  0  0  0  0  0  0  0  0  0
   20.5223  -26.4982  -13.8192 C   0  0  0  0  0  0  0  0  0  0  0  0
   20.4318  -27.5705  -14.8847 C   0  0  0  0  0  0  0  0  0  0  0  0
   21.7792  -28.0855  -15.0676 N   0  0  0  0  0  0  0  0  0  0  0  0
   17.7777  -22.9127  -12.2694 C   0  0  0  0  0  0  0  0  0  0  0  0
   18.0201  -21.9189  -11.5417 O   0  0  0  0  0  0  0  0  0  0  0  0
   16.5085  -23.4665  -12.2201 O   0  0  0  0  0  0  0  0  0  0  0  0
  1  2  1  0
  2 12  2  0
  3  2  1  0
  3  4  2  0
  4  5  1  0
  5 11  2  0
  5  6  1  0
  6  7  1  0
  7  8  1  6
  9 10  2  0
  9  7  1  0
 12 11  1  0
 13  9  1  0
 14 13  1  0
 14 15  1  1
 16 15  1  0
 16 20  1  0
 17 16  2  0
 18 14  1  0
 19 18  2  0
 21 18  1  0
 22 21  1  0
 23 24  1  0
 22 23  1  1
 25 24  1  0
 26 25  1  0
 27 26  1  0
 28 30  1  0
 28 22  1  0
 29 28  2  0
M  END
$$$$
