YDK.pdb
     RDKit          3D

 30 30  0  0  1  0  0  0  0  0999 V2000
   30.3308  -16.7024  -19.5300 O   0  0  0  0  0  0  0  0  0  0  0  0
   29.1144  -17.1464  -18.9987 C   0  0  0  0  0  0  0  0  0  0  0  0
   28.9420  -17.2488  -17.6327 C   0  0  0  0  0  0  0  0  0  0  0  0
   27.7483  -17.6851  -17.0942 C   0  0  0  0  0  0  0  0  0  0  0  0
   26.6786  -18.0370  -17.8909 C   0  0  0  0  0  0  0  0  0  0  0  0
   25.3893  -18.5068  -17.3687 C   0  0  0  0  0  0  0  0  0  0  0  0
   25.4974  -19.7856  -16.5791 C   0  0  2  0  0  0  0  0  0  0  0  0
   26.0104  -20.8799  -17.3366 N   0  0  0  0  0  0  0  0  0  0  0  0
   24.1464  -20.1528  -16.0816 C   0  0  0  0  0  0  0  0  0  0  0  0
   23.4065  -20.8136  -16.8839 O   0  0  0  0  0  0  0  0  0  0  0  0
   26.8704  -17.9275  -19.2663 C   0  0  0  0  0  0  0  0  0  0  0  0
   28.0538  -17.4947  -19.8085 C   0  0  0  0  0  0  0  0  0  0  0  0
   23.6684  -19.8047  -14.7881 N   0  0  0  0  0  0  0  0  0  0  0  0
   22.3550  -20.2078  -14.3468 C   0  0  1  0  0  0  0  0  0  0  0  0
   22.1663  -20.1388  -12.8574 C   0  0  0  0  0  0  0  0  0  0  0  0
   20.9232  -20.7435  -12.3786 C   0  0  0  0  0  0  0  0  0  0  0  0
   20.6420  -20.7866  -11.1578 O   0  0  0  0  0  0  0  0  0  0  0  0
   21.3270  -19.3114  -14.9676 C   0  0  0  0  0  0  0  0  0  0  0  0
   21.4574  -18.0514  -14.9705 O   0  0  0  0  0  0  0  0  0  0  0  0
   20.0226  -21.2871  -13.2759 O   0  0  0  0  0  0  0  0  0  0  0  0
   20.1559  -19.8289  -15.5834 N   0  0  0  0  0  0  0  0  0  0  0  0
   19.2033  -18.9728  -16.2821 C   0  0  1  0  0  0  0  0  0  0  0  0
   18.9299  -19.4927  -17.6774 C   0  0  0  0  0  0  0  0  0  0  0  0
   18.0324  -18.5536  -18.4548 C   0  0  0  0  0  0  0  0  0  0  0  0
   17.9120  -19.1185  -19.8644 C   0  0  0  0  0  0  0  0  0  0  0  0
   17.1392  -18.1145  -20.6938 C   0  0  0  0  0  0  0  0  0  0  0  0
   17.0536  -18.6666  -22.0362 N   0  0  0  0  0  0  0  0  0  0  0  0
   17.9310  -19.0606  -15.5211 C   0  0  0  0  0  0  0  0  0  0  0  0
   17.7377  -20.0816  -14.8166 O   0  0  0  0  0  0  0  0  0  0  0  0
   16.9478  -18.0845  -15.5430 O   0  0  0  0  0  0  0  0  0  0  0  0
  1  2  1  0
  2 12  2  0
  3  2  1  0
  3  4  2  0
  4  5  1  0
  5 11  2  0
  5  6  1  0
  6  7  1  0
  7  8  1  6
  9 10  2  0
  9  7  1  0
 12 11  1  0
 13  9  1  0
 14 13  1  0
 14 15  1  1
 16 15  1  0
 16 20  1  0
 17 16  2  0
 18 14  1  0
 19 18  2  0
 21 18  1  0
 22 21  1  0
 23 24  1  0
 22 23  1  6
 25 24  1  0
 26 25  1  0
 27 26  1  0
 28 30  1  0
 28 22  1  0
 29 28  2  0
M  END
$$$$
