YDK.pdb
     RDKit          3D

 30 30  0  0  1  0  0  0  0  0999 V2000
   19.5851  -12.2534  -15.2008 O   0  0  0  0  0  0  0  0  0  0  0  0
   18.8286  -11.3309  -14.4689 C   0  0  0  0  0  0  0  0  0  0  0  0
   19.4027  -10.6156  -13.4370 C   0  0  0  0  0  0  0  0  0  0  0  0
   18.6693   -9.7025  -12.7064 C   0  0  0  0  0  0  0  0  0  0  0  0
   17.3369   -9.4638  -12.9716 C   0  0  0  0  0  0  0  0  0  0  0  0
   16.5132   -8.5047  -12.2248 C   0  0  0  0  0  0  0  0  0  0  0  0
   16.1152   -8.9994  -10.8584 C   0  0  2  0  0  0  0  0  0  0  0  0
   15.3795  -10.2210  -10.8880 N   0  0  0  0  0  0  0  0  0  0  0  0
   15.2760   -7.9629  -10.2033 C   0  0  0  0  0  0  0  0  0  0  0  0
   14.0135   -8.0838  -10.3424 O   0  0  0  0  0  0  0  0  0  0  0  0
   16.7744  -10.1941  -14.0158 C   0  0  0  0  0  0  0  0  0  0  0  0
   17.4971  -11.1031  -14.7462 C   0  0  0  0  0  0  0  0  0  0  0  0
   15.8139   -6.8803   -9.4541 N   0  0  0  0  0  0  0  0  0  0  0  0
   14.9616   -5.8364   -8.9381 C   0  0  1  0  0  0  0  0  0  0  0  0
   15.2449   -5.4717   -7.5079 C   0  0  0  0  0  0  0  0  0  0  0  0
   14.3427   -4.4625   -6.9531 C   0  0  0  0  0  0  0  0  0  0  0  0
   13.3109   -4.0975   -7.5642 O   0  0  0  0  0  0  0  0  0  0  0  0
   15.1456   -4.5959   -9.7585 C   0  0  0  0  0  0  0  0  0  0  0  0
   16.2846   -4.0637   -9.9138 O   0  0  0  0  0  0  0  0  0  0  0  0
   14.6149   -3.8836   -5.7273 O   0  0  0  0  0  0  0  0  0  0  0  0
   14.0534   -3.9551  -10.4025 N   0  0  0  0  0  0  0  0  0  0  0  0
   14.2266   -2.7565  -11.2162 C   0  0  1  0  0  0  0  0  0  0  0  0
   12.9228   -2.3538  -11.8717 C   0  0  0  0  0  0  0  0  0  0  0  0
   13.1092   -1.1736  -12.8013 C   0  0  0  0  0  0  0  0  0  0  0  0
   11.7583   -0.9012  -13.4506 C   0  0  0  0  0  0  0  0  0  0  0  0
   11.9342    0.2685  -14.3963 C   0  0  0  0  0  0  0  0  0  0  0  0
   10.6497    0.4701  -15.0470 N   0  0  0  0  0  0  0  0  0  0  0  0
   14.6033   -1.6689  -10.2775 C   0  0  0  0  0  0  0  0  0  0  0  0
   14.0988   -1.6848   -9.1281 O   0  0  0  0  0  0  0  0  0  0  0  0
   15.4763   -0.6409  -10.5953 O   0  0  0  0  0  0  0  0  0  0  0  0
  1  2  1  0
  2 12  2  0
  3  2  1  0
  3  4  2  0
  4  5  1  0
  5 11  2  0
  5  6  1  0
  6  7  1  0
  7  8  1  6
  9 10  2  0
  9  7  1  0
 12 11  1  0
 13  9  1  0
 14 13  1  0
 14 15  1  1
 16 15  1  0
 16 20  1  0
 17 16  2  0
 18 14  1  0
 19 18  2  0
 21 18  1  0
 22 21  1  0
 23 24  1  0
 22 23  1  1
 25 24  1  0
 26 25  1  0
 27 26  1  0
 28 30  1  0
 28 22  1  0
 29 28  2  0
M  END
$$$$
