YDK.pdb
     RDKit          3D

 30 30  0  0  1  0  0  0  0  0999 V2000
   29.0213  -19.9569   -3.8357 O   0  0  0  0  0  0  0  0  0  0  0  0
   28.4937  -19.8689   -5.1291 C   0  0  0  0  0  0  0  0  0  0  0  0
   29.1793  -19.1972   -6.1215 C   0  0  0  0  0  0  0  0  0  0  0  0
   28.6716  -19.1021   -7.4015 C   0  0  0  0  0  0  0  0  0  0  0  0
   27.4629  -19.6701   -7.7467 C   0  0  0  0  0  0  0  0  0  0  0  0
   26.8793  -19.5974   -9.0920 C   0  0  0  0  0  0  0  0  0  0  0  0
   27.0991  -20.8472   -9.9044 C   0  0  2  0  0  0  0  0  0  0  0  0
   28.4758  -21.1387  -10.1379 N   0  0  0  0  0  0  0  0  0  0  0  0
   26.4253  -20.6847  -11.2186 C   0  0  0  0  0  0  0  0  0  0  0  0
   27.0265  -19.9589  -12.0786 O   0  0  0  0  0  0  0  0  0  0  0  0
   26.7851  -20.3437   -6.7332 C   0  0  0  0  0  0  0  0  0  0  0  0
   27.2836  -20.4423   -5.4589 C   0  0  0  0  0  0  0  0  0  0  0  0
   25.1781  -21.2893  -11.5376 N   0  0  0  0  0  0  0  0  0  0  0  0
   24.5592  -21.0837  -12.8249 C   0  0  1  0  0  0  0  0  0  0  0  0
   24.4391  -22.3351  -13.6485 C   0  0  0  0  0  0  0  0  0  0  0  0
   25.6925  -22.7766  -14.2604 C   0  0  0  0  0  0  0  0  0  0  0  0
   26.0876  -23.9623  -14.1647 O   0  0  0  0  0  0  0  0  0  0  0  0
   23.1744  -20.5456  -12.6286 C   0  0  0  0  0  0  0  0  0  0  0  0
   22.5580  -20.6797  -11.5302 O   0  0  0  0  0  0  0  0  0  0  0  0
   26.4763  -21.8818  -14.9653 O   0  0  0  0  0  0  0  0  0  0  0  0
   22.4841  -19.8589  -13.6632 N   0  0  0  0  0  0  0  0  0  0  0  0
   21.1244  -19.3592  -13.4902 C   0  0  1  0  0  0  0  0  0  0  0  0
   20.6928  -18.5380  -14.6866 C   0  0  0  0  0  0  0  0  0  0  0  0
   20.0515  -17.2336  -14.2634 C   0  0  0  0  0  0  0  0  0  0  0  0
   19.7021  -16.4757  -15.5378 C   0  0  0  0  0  0  0  0  0  0  0  0
   20.9554  -15.7649  -16.0040 C   0  0  0  0  0  0  0  0  0  0  0  0
   20.5937  -15.0390  -17.2108 N   0  0  0  0  0  0  0  0  0  0  0  0
   20.2465  -20.5560  -13.4364 C   0  0  0  0  0  0  0  0  0  0  0  0
   20.5562  -21.5435  -14.1469 O   0  0  0  0  0  0  0  0  0  0  0  0
   19.1091  -20.6459  -12.6501 O   0  0  0  0  0  0  0  0  0  0  0  0
  1  2  1  0
  2 12  2  0
  3  2  1  0
  3  4  2  0
  4  5  1  0
  5 11  2  0
  5  6  1  0
  6  7  1  0
  7  8  1  6
  9 10  2  0
  9  7  1  0
 12 11  1  0
 13  9  1  0
 14 13  1  0
 14 15  1  1
 16 15  1  0
 16 20  1  0
 17 16  2  0
 18 14  1  0
 19 18  2  0
 21 18  1  0
 22 21  1  0
 23 24  1  0
 22 23  1  6
 25 24  1  0
 26 25  1  0
 27 26  1  0
 28 30  1  0
 28 22  1  0
 29 28  2  0
M  END
$$$$
