YDK.pdb
     RDKit          3D

 30 30  0  0  1  0  0  0  0  0999 V2000
   16.3594  -14.5510  -18.0300 O   0  0  0  0  0  0  0  0  0  0  0  0
   16.6953  -13.4639  -17.2148 C   0  0  0  0  0  0  0  0  0  0  0  0
   16.4898  -12.1704  -17.6517 C   0  0  0  0  0  0  0  0  0  0  0  0
   16.8161  -11.0885  -16.8592 C   0  0  0  0  0  0  0  0  0  0  0  0
   17.3594  -11.2483  -15.6014 C   0  0  0  0  0  0  0  0  0  0  0  0
   17.7240  -10.1320  -14.7199 C   0  0  0  0  0  0  0  0  0  0  0  0
   19.0523   -9.5102  -15.0654 C   0  0  2  0  0  0  0  0  0  0  0  0
   20.1688  -10.3339  -14.7344 N   0  0  0  0  0  0  0  0  0  0  0  0
   19.1824   -8.2266  -14.3284 C   0  0  0  0  0  0  0  0  0  0  0  0
   19.4145   -8.3119  -13.0768 O   0  0  0  0  0  0  0  0  0  0  0  0
   17.5598  -12.5598  -15.1770 C   0  0  0  0  0  0  0  0  0  0  0  0
   17.2378  -13.6398  -15.9592 C   0  0  0  0  0  0  0  0  0  0  0  0
   19.0610   -6.9529  -14.9496 N   0  0  0  0  0  0  0  0  0  0  0  0
   19.2451   -5.7366  -14.1951 C   0  0  1  0  0  0  0  0  0  0  0  0
   19.9912   -4.6659  -14.9405 C   0  0  0  0  0  0  0  0  0  0  0  0
   21.3864   -4.9952  -15.2324 C   0  0  0  0  0  0  0  0  0  0  0  0
   22.2455   -5.0769  -14.3232 O   0  0  0  0  0  0  0  0  0  0  0  0
   17.9056   -5.1730  -13.8293 C   0  0  0  0  0  0  0  0  0  0  0  0
   16.9412   -5.1626  -14.6506 O   0  0  0  0  0  0  0  0  0  0  0  0
   21.7898   -5.2252  -16.5348 O   0  0  0  0  0  0  0  0  0  0  0  0
   17.6501   -4.6229  -12.5446 N   0  0  0  0  0  0  0  0  0  0  0  0
   16.3575   -4.0467  -12.1900 C   0  0  1  0  0  0  0  0  0  0  0  0
   16.2398   -3.8609  -10.6921 C   0  0  0  0  0  0  0  0  0  0  0  0
   14.9420   -3.1779  -10.3168 C   0  0  0  0  0  0  0  0  0  0  0  0
   15.0279   -2.8444   -8.8328 C   0  0  0  0  0  0  0  0  0  0  0  0
   13.6998   -2.2432   -8.4228 C   0  0  0  0  0  0  0  0  0  0  0  0
   13.8459   -1.8253   -7.0378 N   0  0  0  0  0  0  0  0  0  0  0  0
   16.3224   -2.6960  -12.8064 C   0  0  0  0  0  0  0  0  0  0  0  0
   17.3924   -2.0405  -12.8451 O   0  0  0  0  0  0  0  0  0  0  0  0
   15.1812   -2.1187  -13.3398 O   0  0  0  0  0  0  0  0  0  0  0  0
  1  2  1  0
  2 12  2  0
  3  2  1  0
  3  4  2  0
  4  5  1  0
  5 11  2  0
  5  6  1  0
  6  7  1  0
  7  8  1  1
  9 10  2  0
  9  7  1  0
 12 11  1  0
 13  9  1  0
 14 13  1  0
 14 15  1  6
 16 15  1  0
 16 20  1  0
 17 16  2  0
 18 14  1  0
 19 18  2  0
 21 18  1  0
 22 21  1  0
 23 24  1  0
 22 23  1  1
 25 24  1  0
 26 25  1  0
 27 26  1  0
 28 30  1  0
 28 22  1  0
 29 28  2  0
M  END
$$$$
