YDK.pdb
     RDKit          3D

 30 30  0  0  1  0  0  0  0  0999 V2000
   30.7127  -16.2908  -18.8520 O   0  0  0  0  0  0  0  0  0  0  0  0
   29.7112  -16.9857  -18.1641 C   0  0  0  0  0  0  0  0  0  0  0  0
   29.3438  -16.6054  -16.8888 C   0  0  0  0  0  0  0  0  0  0  0  0
   28.3581  -17.2811  -16.1981 C   0  0  0  0  0  0  0  0  0  0  0  0
   27.6983  -18.3611  -16.7465 C   0  0  0  0  0  0  0  0  0  0  0  0
   26.6441  -19.1133  -16.0545 C   0  0  0  0  0  0  0  0  0  0  0  0
   27.1799  -20.1801  -15.1351 C   0  0  2  0  0  0  0  0  0  0  0  0
   27.8509  -21.2362  -15.8199 N   0  0  0  0  0  0  0  0  0  0  0  0
   26.0464  -20.7628  -14.3714 C   0  0  0  0  0  0  0  0  0  0  0  0
   25.4798  -21.7831  -14.8869 O   0  0  0  0  0  0  0  0  0  0  0  0
   28.0817  -18.7307  -18.0336 C   0  0  0  0  0  0  0  0  0  0  0  0
   29.0604  -18.0639  -18.7261 C   0  0  0  0  0  0  0  0  0  0  0  0
   25.5890  -20.2398  -13.1304 N   0  0  0  0  0  0  0  0  0  0  0  0
   24.5569  -20.9091  -12.3760 C   0  0  1  0  0  0  0  0  0  0  0  0
   24.6010  -20.6250  -10.9009 C   0  0  0  0  0  0  0  0  0  0  0  0
   25.7084  -21.2704  -10.1956 C   0  0  0  0  0  0  0  0  0  0  0  0
   26.3554  -22.2118  -10.7115 O   0  0  0  0  0  0  0  0  0  0  0  0
   23.2141  -20.4678  -12.8742 C   0  0  0  0  0  0  0  0  0  0  0  0
   22.9483  -19.2461  -13.0772 O   0  0  0  0  0  0  0  0  0  0  0  0
   26.0672  -20.8485   -8.9287 O   0  0  0  0  0  0  0  0  0  0  0  0
   22.1732  -21.3964  -13.1435 N   0  0  0  0  0  0  0  0  0  0  0  0
   20.9096  -20.9915  -13.7502 C   0  0  1  0  0  0  0  0  0  0  0  0
   20.3848  -22.0671  -14.6775 C   0  0  0  0  0  0  0  0  0  0  0  0
   19.0066  -21.7248  -15.2022 C   0  0  0  0  0  0  0  0  0  0  0  0
   18.6139  -22.8298  -16.1744 C   0  0  0  0  0  0  0  0  0  0  0  0
   17.2879  -22.4418  -16.7946 C   0  0  0  0  0  0  0  0  0  0  0  0
   16.9821  -23.4603  -17.7863 N   0  0  0  0  0  0  0  0  0  0  0  0
   19.9381  -20.8575  -12.6349 C   0  0  0  0  0  0  0  0  0  0  0  0
   20.0356  -21.6575  -11.6724 O   0  0  0  0  0  0  0  0  0  0  0  0
   18.9335  -19.9040  -12.5948 O   0  0  0  0  0  0  0  0  0  0  0  0
  1  2  1  0
  2 12  2  0
  3  2  1  0
  3  4  2  0
  4  5  1  0
  5 11  2  0
  5  6  1  0
  6  7  1  0
  7  8  1  6
  9 10  2  0
  9  7  1  0
 12 11  1  0
 13  9  1  0
 14 13  1  0
 14 15  1  1
 16 15  1  0
 16 20  1  0
 17 16  2  0
 18 14  1  0
 19 18  2  0
 21 18  1  0
 22 21  1  0
 23 24  1  0
 22 23  1  6
 25 24  1  0
 26 25  1  0
 27 26  1  0
 28 30  1  0
 28 22  1  0
 29 28  2  0
M  END
$$$$
