YDK.pdb
     RDKit          3D

 30 30  0  0  1  0  0  0  0  0999 V2000
   29.4226  -11.7521  -16.7540 O   0  0  0  0  0  0  0  0  0  0  0  0
   28.2440  -10.9973  -16.7619 C   0  0  0  0  0  0  0  0  0  0  0  0
   27.6186  -10.6619  -15.5775 C   0  0  0  0  0  0  0  0  0  0  0  0
   26.4558   -9.9182  -15.5695 C   0  0  0  0  0  0  0  0  0  0  0  0
   25.8681   -9.4781  -16.7372 C   0  0  0  0  0  0  0  0  0  0  0  0
   24.6329   -8.6856  -16.7832 C   0  0  0  0  0  0  0  0  0  0  0  0
   23.3954   -9.4949  -16.4929 C   0  0  2  0  0  0  0  0  0  0  0  0
   23.2634  -10.6486  -17.3212 N   0  0  0  0  0  0  0  0  0  0  0  0
   22.2037   -8.6317  -16.6987 C   0  0  0  0  0  0  0  0  0  0  0  0
   21.5070   -8.8654  -17.7416 O   0  0  0  0  0  0  0  0  0  0  0  0
   26.5125   -9.8256  -17.9223 C   0  0  0  0  0  0  0  0  0  0  0  0
   27.6683  -10.5644  -17.9379 C   0  0  0  0  0  0  0  0  0  0  0  0
   21.8280   -7.5916  -15.8042 N   0  0  0  0  0  0  0  0  0  0  0  0
   20.6055   -6.8497  -15.9973 C   0  0  1  0  0  0  0  0  0  0  0  0
   19.8106   -6.6495  -14.7376 C   0  0  0  0  0  0  0  0  0  0  0  0
   19.1759   -7.8642  -14.2259 C   0  0  0  0  0  0  0  0  0  0  0  0
   19.4745   -8.3383  -13.1046 O   0  0  0  0  0  0  0  0  0  0  0  0
   20.9310   -5.4907  -16.5387 C   0  0  0  0  0  0  0  0  0  0  0  0
   21.8980   -4.8085  -16.0870 O   0  0  0  0  0  0  0  0  0  0  0  0
   18.2217   -8.5220  -14.9800 O   0  0  0  0  0  0  0  0  0  0  0  0
   20.1723   -4.8999  -17.5846 N   0  0  0  0  0  0  0  0  0  0  0  0
   20.4832   -3.5779  -18.1178 C   0  0  1  0  0  0  0  0  0  0  0  0
   19.5521   -3.2206  -19.2567 C   0  0  0  0  0  0  0  0  0  0  0  0
   19.8674   -1.8530  -19.8244 C   0  0  0  0  0  0  0  0  0  0  0  0
   18.9448   -1.6436  -21.0184 C   0  0  0  0  0  0  0  0  0  0  0  0
   17.5299   -1.5391  -20.4888 C   0  0  0  0  0  0  0  0  0  0  0  0
   16.6809   -1.2505  -21.6334 N   0  0  0  0  0  0  0  0  0  0  0  0
   20.2240   -2.6153  -17.0169 C   0  0  0  0  0  0  0  0  0  0  0  0
   19.2846   -2.8697  -16.2240 O   0  0  0  0  0  0  0  0  0  0  0  0
   20.9561   -1.4564  -16.8145 O   0  0  0  0  0  0  0  0  0  0  0  0
  1  2  1  0
  2 12  2  0
  3  2  1  0
  3  4  2  0
  4  5  1  0
  5 11  2  0
  5  6  1  0
  6  7  1  0
  7  8  1  6
  9 10  2  0
  9  7  1  0
 12 11  1  0
 13  9  1  0
 14 13  1  0
 14 15  1  1
 16 15  1  0
 16 20  1  0
 17 16  2  0
 18 14  1  0
 19 18  2  0
 21 18  1  0
 22 21  1  0
 23 24  1  0
 22 23  1  6
 25 24  1  0
 26 25  1  0
 27 26  1  0
 28 30  1  0
 28 22  1  0
 29 28  2  0
M  END
$$$$
