YDK.pdb
     RDKit          3D

 30 30  0  0  1  0  0  0  0  0999 V2000
   28.6267  -19.5706   -5.4945 O   0  0  0  0  0  0  0  0  0  0  0  0
   28.2268  -19.7154   -6.8280 C   0  0  0  0  0  0  0  0  0  0  0  0
   26.9465  -19.3746   -7.2166 C   0  0  0  0  0  0  0  0  0  0  0  0
   26.5379  -19.5120   -8.5278 C   0  0  0  0  0  0  0  0  0  0  0  0
   27.3843  -19.9931   -9.5050 C   0  0  0  0  0  0  0  0  0  0  0  0
   26.9990  -20.1584  -10.9122 C   0  0  0  0  0  0  0  0  0  0  0  0
   26.4127  -21.5134  -11.2134 C   0  0  2  0  0  0  0  0  0  0  0  0
   27.3304  -22.4014  -11.8489 N   0  0  0  0  0  0  0  0  0  0  0  0
   25.2384  -21.3355  -12.1061 C   0  0  0  0  0  0  0  0  0  0  0  0
   25.4534  -21.4582  -13.3578 O   0  0  0  0  0  0  0  0  0  0  0  0
   28.6717  -20.3318   -9.0950 C   0  0  0  0  0  0  0  0  0  0  0  0
   29.0849  -20.1979   -7.7937 C   0  0  0  0  0  0  0  0  0  0  0  0
   23.9308  -21.0436  -11.6290 N   0  0  0  0  0  0  0  0  0  0  0  0
   22.7650  -21.3332  -12.4286 C   0  0  1  0  0  0  0  0  0  0  0  0
   21.6256  -21.9274  -11.6493 C   0  0  0  0  0  0  0  0  0  0  0  0
   20.4282  -22.1989  -12.4447 C   0  0  0  0  0  0  0  0  0  0  0  0
   19.3045  -21.7539  -12.1122 O   0  0  0  0  0  0  0  0  0  0  0  0
   22.2646  -20.0657  -13.0521 C   0  0  0  0  0  0  0  0  0  0  0  0
   22.0129  -19.0367  -12.3575 O   0  0  0  0  0  0  0  0  0  0  0  0
   20.5142  -22.9627  -13.5941 O   0  0  0  0  0  0  0  0  0  0  0  0
   22.0475  -19.9544  -14.4517 N   0  0  0  0  0  0  0  0  0  0  0  0
   21.4974  -18.7469  -15.0583 C   0  0  1  0  0  0  0  0  0  0  0  0
   21.9076  -18.6356  -16.5114 C   0  0  0  0  0  0  0  0  0  0  0  0
   22.5021  -17.2778  -16.8188 C   0  0  0  0  0  0  0  0  0  0  0  0
   22.9779  -17.3178  -18.2654 C   0  0  0  0  0  0  0  0  0  0  0  0
   23.5337  -15.9496  -18.6009 C   0  0  0  0  0  0  0  0  0  0  0  0
   24.0431  -16.0328  -19.9602 N   0  0  0  0  0  0  0  0  0  0  0  0
   20.0208  -18.9028  -15.0271 C   0  0  0  0  0  0  0  0  0  0  0  0
   19.5300  -19.9454  -15.5252 O   0  0  0  0  0  0  0  0  0  0  0  0
   19.1558  -17.9676  -14.4818 O   0  0  0  0  0  0  0  0  0  0  0  0
  1  2  1  0
  2 12  2  0
  3  2  1  0
  3  4  2  0
  4  5  1  0
  5 11  2  0
  5  6  1  0
  6  7  1  0
  7  8  1  6
  9 10  2  0
  9  7  1  0
 12 11  1  0
 13  9  1  0
 14 13  1  0
 14 15  1  1
 16 15  1  0
 16 20  1  0
 17 16  2  0
 18 14  1  0
 19 18  2  0
 21 18  1  0
 22 21  1  0
 23 24  1  0
 22 23  1  6
 25 24  1  0
 26 25  1  0
 27 26  1  0
 28 30  1  0
 28 22  1  0
 29 28  2  0
M  END
$$$$
