YDK.pdb
     RDKit          3D

 30 30  0  0  1  0  0  0  0  0999 V2000
   19.6008  -25.4608  -11.8869 O   0  0  0  0  0  0  0  0  0  0  0  0
   20.4966  -25.7942  -12.9094 C   0  0  0  0  0  0  0  0  0  0  0  0
   20.9302  -24.8343  -13.8019 C   0  0  0  0  0  0  0  0  0  0  0  0
   21.8133  -25.1482  -14.8153 C   0  0  0  0  0  0  0  0  0  0  0  0
   22.3007  -26.4277  -14.9824 C   0  0  0  0  0  0  0  0  0  0  0  0
   23.2402  -26.8133  -16.0428 C   0  0  0  0  0  0  0  0  0  0  0  0
   22.5841  -26.9735  -17.3898 C   0  0  2  0  0  0  0  0  0  0  0  0
   21.6935  -28.0855  -17.4597 N   0  0  0  0  0  0  0  0  0  0  0  0
   23.6432  -27.1563  -18.4158 C   0  0  0  0  0  0  0  0  0  0  0  0
   23.8190  -28.3452  -18.8442 O   0  0  0  0  0  0  0  0  0  0  0  0
   21.8527  -27.3831  -14.0731 C   0  0  0  0  0  0  0  0  0  0  0  0
   20.9752  -27.0784  -13.0635 C   0  0  0  0  0  0  0  0  0  0  0  0
   24.4382  -26.0890  -18.9174 N   0  0  0  0  0  0  0  0  0  0  0  0
   25.3359  -26.2888  -20.0294 C   0  0  1  0  0  0  0  0  0  0  0  0
   25.4096  -25.1182  -20.9690 C   0  0  0  0  0  0  0  0  0  0  0  0
   24.1212  -24.7167  -21.5340 C   0  0  0  0  0  0  0  0  0  0  0  0
   23.8421  -23.5124  -21.7414 O   0  0  0  0  0  0  0  0  0  0  0  0
   26.7209  -26.5309  -19.5107 C   0  0  0  0  0  0  0  0  0  0  0  0
   27.2950  -25.7083  -18.7373 O   0  0  0  0  0  0  0  0  0  0  0  0
   23.1733  -25.6712  -21.8539 O   0  0  0  0  0  0  0  0  0  0  0  0
   27.4587  -27.6937  -19.8599 N   0  0  0  0  0  0  0  0  0  0  0  0
   28.7476  -28.0067  -19.2522 C   0  0  1  0  0  0  0  0  0  0  0  0
   29.0600  -29.4830  -19.3748 C   0  0  0  0  0  0  0  0  0  0  0  0
   30.3913  -29.8241  -18.7400 C   0  0  0  0  0  0  0  0  0  0  0  0
   30.6606  -31.2944  -19.0343 C   0  0  0  0  0  0  0  0  0  0  0  0
   31.9925  -31.6488  -18.4066 C   0  0  0  0  0  0  0  0  0  0  0  0
   32.1998  -33.0670  -18.6513 N   0  0  0  0  0  0  0  0  0  0  0  0
   29.7681  -27.2723  -20.0428 C   0  0  0  0  0  0  0  0  0  0  0  0
   29.5692  -27.1351  -21.2747 O   0  0  0  0  0  0  0  0  0  0  0  0
   30.9234  -26.7313  -19.5017 O   0  0  0  0  0  0  0  0  0  0  0  0
  1  2  1  0
  2 12  2  0
  3  2  1  0
  3  4  2  0
  4  5  1  0
  5 11  2  0
  5  6  1  0
  6  7  1  0
  7  8  1  1
  9 10  2  0
  9  7  1  0
 12 11  1  0
 13  9  1  0
 14 13  1  0
 14 15  1  6
 16 15  1  0
 16 20  1  0
 17 16  2  0
 18 14  1  0
 19 18  2  0
 21 18  1  0
 22 21  1  0
 23 24  1  0
 22 23  1  6
 25 24  1  0
 26 25  1  0
 27 26  1  0
 28 30  1  0
 28 22  1  0
 29 28  2  0
M  END
$$$$
