YDK.pdb
     RDKit          3D

 30 30  0  0  1  0  0  0  0  0999 V2000
   20.8047  -22.3653   -6.7963 O   0  0  0  0  0  0  0  0  0  0  0  0
   21.5346  -21.7993   -7.8479 C   0  0  0  0  0  0  0  0  0  0  0  0
   22.6834  -21.0765   -7.5944 C   0  0  0  0  0  0  0  0  0  0  0  0
   23.4135  -20.5125   -8.6210 C   0  0  0  0  0  0  0  0  0  0  0  0
   23.0317  -20.6438   -9.9401 C   0  0  0  0  0  0  0  0  0  0  0  0
   23.7721  -20.0639  -11.0676 C   0  0  0  0  0  0  0  0  0  0  0  0
   24.6135  -21.0710  -11.8081 C   0  0  2  0  0  0  0  0  0  0  0  0
   25.7400  -21.5286  -11.0624 N   0  0  0  0  0  0  0  0  0  0  0  0
   25.1049  -20.4481  -13.0643 C   0  0  0  0  0  0  0  0  0  0  0  0
   25.5769  -19.2669  -12.9652 O   0  0  0  0  0  0  0  0  0  0  0  0
   21.8707  -21.3760  -10.1771 C   0  0  0  0  0  0  0  0  0  0  0  0
   21.1401  -21.9394   -9.1619 C   0  0  0  0  0  0  0  0  0  0  0  0
   25.0677  -21.1012  -14.3272 N   0  0  0  0  0  0  0  0  0  0  0  0
   25.5177  -20.4325  -15.5242 C   0  0  1  0  0  0  0  0  0  0  0  0
   26.1821  -21.3446  -16.5168 C   0  0  0  0  0  0  0  0  0  0  0  0
   26.7574  -20.6593  -17.6742 C   0  0  0  0  0  0  0  0  0  0  0  0
   26.3147  -19.5555  -18.0703 O   0  0  0  0  0  0  0  0  0  0  0  0
   24.3434  -19.8056  -16.2126 C   0  0  0  0  0  0  0  0  0  0  0  0
   23.1871  -20.3197  -16.1570 O   0  0  0  0  0  0  0  0  0  0  0  0
   27.8148  -21.2241  -18.3632 O   0  0  0  0  0  0  0  0  0  0  0  0
   24.4678  -18.6045  -16.9612 N   0  0  0  0  0  0  0  0  0  0  0  0
   23.3248  -17.9741  -17.6129 C   0  0  1  0  0  0  0  0  0  0  0  0
   23.5547  -16.4884  -17.7915 C   0  0  0  0  0  0  0  0  0  0  0  0
   22.3321  -15.8012  -18.3614 C   0  0  0  0  0  0  0  0  0  0  0  0
   22.6421  -14.3106  -18.4104 C   0  0  0  0  0  0  0  0  0  0  0  0
   21.3889  -13.5990  -18.8759 C   0  0  0  0  0  0  0  0  0  0  0  0
   21.7007  -12.1789  -18.8876 N   0  0  0  0  0  0  0  0  0  0  0  0
   23.2379  -18.5736  -18.9689 C   0  0  0  0  0  0  0  0  0  0  0  0
   24.2127  -18.4157  -19.7440 O   0  0  0  0  0  0  0  0  0  0  0  0
   22.1470  -19.2948  -19.4271 O   0  0  0  0  0  0  0  0  0  0  0  0
  1  2  1  0
  2 12  2  0
  3  2  1  0
  3  4  2  0
  4  5  1  0
  5 11  2  0
  5  6  1  0
  6  7  1  0
  7  8  1  1
  9 10  2  0
  9  7  1  0
 12 11  1  0
 13  9  1  0
 14 13  1  0
 14 15  1  6
 16 15  1  0
 16 20  1  0
 17 16  2  0
 18 14  1  0
 19 18  2  0
 21 18  1  0
 22 21  1  0
 23 24  1  0
 22 23  1  6
 25 24  1  0
 26 25  1  0
 27 26  1  0
 28 30  1  0
 28 22  1  0
 29 28  2  0
M  END
$$$$
