YDK.pdb
     RDKit          3D

 30 30  0  0  1  0  0  0  0  0999 V2000
   21.6078   -9.9514    5.8517 O   0  0  0  0  0  0  0  0  0  0  0  0
   21.1352  -11.1907    6.2988 C   0  0  0  0  0  0  0  0  0  0  0  0
   20.0255  -11.7693    5.7158 C   0  0  0  0  0  0  0  0  0  0  0  0
   19.5478  -12.9907    6.1460 C   0  0  0  0  0  0  0  0  0  0  0  0
   20.1533  -13.6860    7.1720 C   0  0  0  0  0  0  0  0  0  0  0  0
   19.6851  -14.9868    7.6666 C   0  0  0  0  0  0  0  0  0  0  0  0
   18.1860  -15.1336    7.6281 C   0  0  2  0  0  0  0  0  0  0  0  0
   17.5035  -14.2264    8.4918 N   0  0  0  0  0  0  0  0  0  0  0  0
   17.8335  -16.5194    8.0315 C   0  0  0  0  0  0  0  0  0  0  0  0
   17.4403  -16.6775    9.2350 O   0  0  0  0  0  0  0  0  0  0  0  0
   21.2713  -13.0875    7.7483 C   0  0  0  0  0  0  0  0  0  0  0  0
   21.7516  -11.8739    7.3260 C   0  0  0  0  0  0  0  0  0  0  0  0
   17.9168  -17.6346    7.1527 N   0  0  0  0  0  0  0  0  0  0  0  0
   17.6372  -18.9715    7.6184 C   0  0  1  0  0  0  0  0  0  0  0  0
   17.2847  -19.9361    6.5212 C   0  0  0  0  0  0  0  0  0  0  0  0
   16.9089  -21.2703    6.9892 C   0  0  0  0  0  0  0  0  0  0  0  0
   17.4961  -22.2991    6.5796 O   0  0  0  0  0  0  0  0  0  0  0  0
   18.8459  -19.5154    8.3177 C   0  0  0  0  0  0  0  0  0  0  0  0
   20.0029  -19.4323    7.8086 O   0  0  0  0  0  0  0  0  0  0  0  0
   15.8841  -21.4240    7.9047 O   0  0  0  0  0  0  0  0  0  0  0  0
   18.7552  -20.1508    9.5852 N   0  0  0  0  0  0  0  0  0  0  0  0
   19.9272  -20.6818   10.2730 C   0  0  1  0  0  0  0  0  0  0  0  0
   20.2135  -19.9002   11.5375 C   0  0  0  0  0  0  0  0  0  0  0  0
   21.3831  -18.9566   11.3550 C   0  0  0  0  0  0  0  0  0  0  0  0
   21.6082  -18.2635   12.6928 C   0  0  0  0  0  0  0  0  0  0  0  0
   22.7579  -17.2936   12.5164 C   0  0  0  0  0  0  0  0  0  0  0  0
   22.9862  -16.6831   13.8161 N   0  0  0  0  0  0  0  0  0  0  0  0
   19.5773  -22.0667   10.6795 C   0  0  0  0  0  0  0  0  0  0  0  0
   18.3941  -22.4483   10.5056 O   0  0  0  0  0  0  0  0  0  0  0  0
   20.4779  -22.9596   11.2379 O   0  0  0  0  0  0  0  0  0  0  0  0
  1  2  1  0
  2 12  2  0
  3  2  1  0
  3  4  2  0
  4  5  1  0
  5 11  2  0
  5  6  1  0
  6  7  1  0
  7  8  1  1
  9 10  2  0
  9  7  1  0
 12 11  1  0
 13  9  1  0
 14 13  1  0
 14 15  1  6
 16 15  1  0
 16 20  1  0
 17 16  2  0
 18 14  1  0
 19 18  2  0
 21 18  1  0
 22 21  1  0
 23 24  1  0
 22 23  1  1
 25 24  1  0
 26 25  1  0
 27 26  1  0
 28 30  1  0
 28 22  1  0
 29 28  2  0
M  END
$$$$
