YDK.pdb
     RDKit          3D

 30 30  0  0  1  0  0  0  0  0999 V2000
   26.8511  -15.9925  -21.8506 O   0  0  0  0  0  0  0  0  0  0  0  0
   25.8487  -16.5796  -21.0698 C   0  0  0  0  0  0  0  0  0  0  0  0
   25.3434  -17.8222  -21.3965 C   0  0  0  0  0  0  0  0  0  0  0  0
   24.3548  -18.4136  -20.6362 C   0  0  0  0  0  0  0  0  0  0  0  0
   23.8289  -17.7944  -19.5214 C   0  0  0  0  0  0  0  0  0  0  0  0
   22.7775  -18.3798  -18.6800 C   0  0  0  0  0  0  0  0  0  0  0  0
   23.3105  -19.0410  -17.4354 C   0  0  2  0  0  0  0  0  0  0  0  0
   24.1667  -20.1500  -17.7030 N   0  0  0  0  0  0  0  0  0  0  0  0
   22.1626  -19.5208  -16.6232 C   0  0  0  0  0  0  0  0  0  0  0  0
   21.8034  -20.7311  -16.8077 O   0  0  0  0  0  0  0  0  0  0  0  0
   24.3504  -16.5417  -19.2068 C   0  0  0  0  0  0  0  0  0  0  0  0
   25.3329  -15.9478  -19.9577 C   0  0  0  0  0  0  0  0  0  0  0  0
   21.4763  -18.7053  -15.6815 N   0  0  0  0  0  0  0  0  0  0  0  0
   20.4617  -19.2591  -14.8176 C   0  0  1  0  0  0  0  0  0  0  0  0
   20.4819  -18.7025  -13.4217 C   0  0  0  0  0  0  0  0  0  0  0  0
   19.5397  -19.3427  -12.5038 C   0  0  0  0  0  0  0  0  0  0  0  0
   19.4063  -18.9503  -11.3209 O   0  0  0  0  0  0  0  0  0  0  0  0
   19.1088  -18.9686  -15.3929 C   0  0  0  0  0  0  0  0  0  0  0  0
   18.8075  -17.8218  -15.8386 O   0  0  0  0  0  0  0  0  0  0  0  0
   18.7679  -20.4081  -12.9294 O   0  0  0  0  0  0  0  0  0  0  0  0
   18.0973  -19.9635  -15.4673 N   0  0  0  0  0  0  0  0  0  0  0  0
   16.8132  -19.7180  -16.1148 C   0  0  1  0  0  0  0  0  0  0  0  0
   16.1733  -21.0164  -16.5584 C   0  0  0  0  0  0  0  0  0  0  0  0
   14.8758  -20.7721  -17.2990 C   0  0  0  0  0  0  0  0  0  0  0  0
   14.3650  -22.1308  -17.7614 C   0  0  0  0  0  0  0  0  0  0  0  0
   13.1043  -21.8944  -18.5665 C   0  0  0  0  0  0  0  0  0  0  0  0
   12.6621  -23.1985  -19.0334 N   0  0  0  0  0  0  0  0  0  0  0  0
   15.9324  -19.1237  -15.0771 C   0  0  0  0  0  0  0  0  0  0  0  0
   16.0146  -19.5752  -13.9086 O   0  0  0  0  0  0  0  0  0  0  0  0
   15.0280  -18.1030  -15.3226 O   0  0  0  0  0  0  0  0  0  0  0  0
  1  2  1  0
  2 12  2  0
  3  2  1  0
  3  4  2  0
  4  5  1  0
  5 11  2  0
  5  6  1  0
  6  7  1  0
  7  8  1  6
  9 10  2  0
  9  7  1  0
 12 11  1  0
 13  9  1  0
 14 13  1  0
 14 15  1  1
 16 15  1  0
 16 20  1  0
 17 16  2  0
 18 14  1  0
 19 18  2  0
 21 18  1  0
 22 21  1  0
 23 24  1  0
 22 23  1  1
 25 24  1  0
 26 25  1  0
 27 26  1  0
 28 30  1  0
 28 22  1  0
 29 28  2  0
M  END
$$$$
