AHT.pdb
     RDKit          3D

 23 23  0  0  1  0  0  0  0  0999 V2000
   19.2539  -18.9094  -12.9992 C   0  0  0  0  0  0  0  0  0  0  0  0
   19.9617  -19.3055  -14.2862 C   0  0  2  0  0  0  0  0  0  0  0  0
   19.7100  -20.7284  -14.5521 N   0  0  0  0  0  0  0  0  0  0  0  0
   21.4279  -19.1146  -14.1671 C   0  0  0  0  0  0  0  0  0  0  0  0
   21.8507  -17.9718  -13.8768 O   0  0  0  0  0  0  0  0  0  0  0  0
   22.3504  -20.1484  -14.3638 N   0  0  0  0  0  0  0  0  0  0  0  0
   23.7838  -19.8916  -14.3258 C   0  0  1  0  0  0  0  0  0  0  0  0
   24.4746  -20.8847  -13.4709 C   0  0  0  0  0  0  0  0  0  0  0  0
   25.9334  -20.8427  -13.5982 C   0  0  0  0  0  0  0  0  0  0  0  0
   26.7023  -21.2235  -14.7068 C   0  0  0  0  0  0  0  0  0  0  0  0
   28.0090  -21.0849  -14.4244 N   0  0  0  0  0  0  0  0  0  0  0  0
   28.1103  -20.6254  -13.1652 C   0  0  0  0  0  0  0  0  0  0  0  0
   26.8657  -20.4836  -12.6791 N   0  0  0  0  0  0  0  0  0  0  0  0
   24.2253  -19.7599  -15.7147 C   0  0  0  0  0  0  0  0  0  0  0  0
   23.7317  -20.5661  -16.5814 O   0  0  0  0  0  0  0  0  0  0  0  0
   25.1547  -16.3173  -17.5255 C   0  0  0  0  0  0  0  0  0  0  0  0
   26.1659  -17.4023  -17.8864 C   0  0  1  0  0  0  0  0  0  0  0  0
   27.3094  -17.3057  -17.1259 O   0  0  0  0  0  0  0  0  0  0  0  0
   25.4606  -18.7442  -17.6563 C   0  0  2  0  0  0  0  0  0  0  0  0
   25.1488  -18.8260  -16.2425 N   0  0  0  0  0  0  0  0  0  0  0  0
   26.2879  -19.8100  -18.1848 C   0  0  0  0  0  0  0  0  0  0  0  0
   26.5256  -19.9360  -19.5351 O   0  0  0  0  0  0  0  0  0  0  0  0
   26.7979  -20.6362  -17.3903 O   0  0  0  0  0  0  0  0  0  0  0  0
  2  1  1  1
  3  2  1  0
  4  5  2  0
  4  2  1  0
  6  4  1  0
  7 14  1  0
  7  6  1  0
  7  8  1  6
  9  8  1  0
 10  9  2  0
 11 10  1  0
 12 11  1  0
 12 13  2  0
 13  9  1  0
 14 20  1  0
 15 14  2  0
 17 18  1  0
 17 19  1  0
 17 16  1  1
 19 21  1  0
 19 20  1  1
 21 23  2  0
 21 22  1  0
M  END
$$$$
