AHT.pdb
     RDKit          3D

 23 23  0  0  1  0  0  0  0  0999 V2000
   19.9965  -11.8830  -18.8480 C   0  0  0  0  0  0  0  0  0  0  0  0
   21.4373  -11.5126  -18.5303 C   0  0  2  0  0  0  0  0  0  0  0  0
   22.1690  -12.7264  -18.1428 N   0  0  0  0  0  0  0  0  0  0  0  0
   21.5033  -10.5572  -17.3975 C   0  0  0  0  0  0  0  0  0  0  0  0
   21.0865  -10.9401  -16.2800 O   0  0  0  0  0  0  0  0  0  0  0  0
   22.0071   -9.2577  -17.5236 N   0  0  0  0  0  0  0  0  0  0  0  0
   22.0529   -8.3569  -16.3797 C   0  0  1  0  0  0  0  0  0  0  0  0
   23.4366   -7.8898  -16.1319 C   0  0  0  0  0  0  0  0  0  0  0  0
   24.3375   -8.9575  -15.6908 C   0  0  0  0  0  0  0  0  0  0  0  0
   24.1820   -9.7971  -14.5789 C   0  0  0  0  0  0  0  0  0  0  0  0
   25.2407  -10.6188  -14.4767 N   0  0  0  0  0  0  0  0  0  0  0  0
   26.0783  -10.3369  -15.4896 C   0  0  0  0  0  0  0  0  0  0  0  0
   25.5310   -9.3434  -16.2098 N   0  0  0  0  0  0  0  0  0  0  0  0
   21.0184   -7.3453  -16.5981 C   0  0  0  0  0  0  0  0  0  0  0  0
   21.0624   -6.6653  -17.6847 O   0  0  0  0  0  0  0  0  0  0  0  0
   17.3164   -7.5995  -16.8540 C   0  0  0  0  0  0  0  0  0  0  0  0
   17.5832   -6.5554  -15.7730 C   0  0  1  0  0  0  0  0  0  0  0  0
   17.5246   -7.1027  -14.5111 O   0  0  0  0  0  0  0  0  0  0  0  0
   18.9748   -5.9801  -16.0620 C   0  0  2  0  0  0  0  0  0  0  0  0
   19.9394   -7.0148  -15.7435 N   0  0  0  0  0  0  0  0  0  0  0  0
   19.1277   -4.7299  -15.3455 C   0  0  0  0  0  0  0  0  0  0  0  0
   18.3815   -3.6184  -15.6675 O   0  0  0  0  0  0  0  0  0  0  0  0
   19.9611   -4.6618  -14.4103 O   0  0  0  0  0  0  0  0  0  0  0  0
  2  1  1  1
  3  2  1  0
  4  5  2  0
  4  2  1  0
  6  4  1  0
  7 14  1  0
  7  6  1  0
  7  8  1  6
  9  8  1  0
 10  9  2  0
 11 10  1  0
 12 11  1  0
 12 13  2  0
 13  9  1  0
 14 20  1  0
 15 14  2  0
 17 18  1  0
 17 19  1  0
 17 16  1  6
 19 21  1  0
 19 20  1  1
 21 23  2  0
 21 22  1  0
M  END
$$$$
