AHT.pdb
     RDKit          3D

 23 23  0  0  1  0  0  0  0  0999 V2000
   26.4428  -27.5631  -17.3351 C   0  0  0  0  0  0  0  0  0  0  0  0
   25.8995  -26.5571  -16.3317 C   0  0  2  0  0  0  0  0  0  0  0  0
   26.4979  -26.8226  -15.0163 N   0  0  0  0  0  0  0  0  0  0  0  0
   24.4273  -26.6814  -16.1980 C   0  0  0  0  0  0  0  0  0  0  0  0
   23.7238  -26.4578  -17.2100 O   0  0  0  0  0  0  0  0  0  0  0  0
   23.7971  -27.0348  -14.9996 N   0  0  0  0  0  0  0  0  0  0  0  0
   22.3565  -27.2432  -14.9430 C   0  0  1  0  0  0  0  0  0  0  0  0
   22.0405  -28.6286  -14.5246 C   0  0  0  0  0  0  0  0  0  0  0  0
   21.9511  -29.5659  -15.6468 C   0  0  0  0  0  0  0  0  0  0  0  0
   22.8285  -30.6165  -15.9502 C   0  0  0  0  0  0  0  0  0  0  0  0
   22.4393  -31.2218  -17.0853 N   0  0  0  0  0  0  0  0  0  0  0  0
   21.3354  -30.5948  -17.5272 C   0  0  0  0  0  0  0  0  0  0  0  0
   21.0508  -29.6071  -16.6619 N   0  0  0  0  0  0  0  0  0  0  0  0
   21.8027  -26.1459  -14.1491 C   0  0  0  0  0  0  0  0  0  0  0  0
   22.3690  -25.8658  -13.0330 O   0  0  0  0  0  0  0  0  0  0  0  0
   21.8243  -22.6798  -14.6956 C   0  0  0  0  0  0  0  0  0  0  0  0
   20.3405  -22.9499  -14.4608 C   0  0  1  0  0  0  0  0  0  0  0  0
   19.6553  -23.0925  -15.6463 O   0  0  0  0  0  0  0  0  0  0  0  0
   20.2620  -24.2293  -13.6194 C   0  0  2  0  0  0  0  0  0  0  0  0
   20.6942  -25.3244  -14.4659 N   0  0  0  0  0  0  0  0  0  0  0  0
   18.9296  -24.3477  -13.0621 C   0  0  0  0  0  0  0  0  0  0  0  0
   18.4769  -23.4873  -12.0872 O   0  0  0  0  0  0  0  0  0  0  0  0
   18.1733  -25.2573  -13.4799 O   0  0  0  0  0  0  0  0  0  0  0  0
  2  1  1  6
  3  2  1  0
  4  5  2  0
  4  2  1  0
  6  4  1  0
  7 14  1  0
  7  6  1  0
  7  8  1  1
  9  8  1  0
 10  9  2  0
 11 10  1  0
 12 11  1  0
 12 13  2  0
 13  9  1  0
 14 20  1  0
 15 14  2  0
 17 18  1  0
 17 19  1  0
 17 16  1  6
 19 21  1  0
 19 20  1  6
 21 23  2  0
 21 22  1  0
M  END
$$$$
