AHT.pdb
     RDKit          3D

 23 23  0  0  1  0  0  0  0  0999 V2000
   15.5540   -7.2643  -16.4341 C   0  0  0  0  0  0  0  0  0  0  0  0
   16.4624   -8.2105  -17.2045 C   0  0  2  0  0  0  0  0  0  0  0  0
   16.0559   -9.5951  -16.9279 N   0  0  0  0  0  0  0  0  0  0  0  0
   17.8752   -8.0549  -16.7799 C   0  0  0  0  0  0  0  0  0  0  0  0
   18.1527   -8.2553  -15.5749 O   0  0  0  0  0  0  0  0  0  0  0  0
   18.9017   -7.6968  -17.6609 N   0  0  0  0  0  0  0  0  0  0  0  0
   20.2936   -7.6981  -17.2308 C   0  0  1  0  0  0  0  0  0  0  0  0
   21.1921   -8.0504  -18.3545 C   0  0  0  0  0  0  0  0  0  0  0  0
   21.3103   -9.4945  -18.5701 C   0  0  0  0  0  0  0  0  0  0  0  0
   20.8572  -10.5204  -17.7289 C   0  0  0  0  0  0  0  0  0  0  0  0
   21.1931  -11.7150  -18.2454 N   0  0  0  0  0  0  0  0  0  0  0  0
   21.8507  -11.4940  -19.3968 C   0  0  0  0  0  0  0  0  0  0  0  0
   21.9162  -10.1650  -19.5830 N   0  0  0  0  0  0  0  0  0  0  0  0
   20.5235   -6.4266  -16.5439 C   0  0  0  0  0  0  0  0  0  0  0  0
   20.1964   -5.3465  -17.1531 O   0  0  0  0  0  0  0  0  0  0  0  0
   21.4022   -6.0930  -12.5544 C   0  0  0  0  0  0  0  0  0  0  0  0
   20.7544   -4.9114  -13.2712 C   0  0  1  0  0  0  0  0  0  0  0  0
   21.0210   -3.7208  -12.6334 O   0  0  0  0  0  0  0  0  0  0  0  0
   21.3149   -4.9116  -14.6984 C   0  0  2  0  0  0  0  0  0  0  0  0
   21.0702   -6.2287  -15.2532 N   0  0  0  0  0  0  0  0  0  0  0  0
   22.6999   -4.4872  -14.6625 C   0  0  0  0  0  0  0  0  0  0  0  0
   23.7328   -5.3821  -14.8297 O   0  0  0  0  0  0  0  0  0  0  0  0
   22.9607   -3.2746  -14.4739 O   0  0  0  0  0  0  0  0  0  0  0  0
  2  1  1  1
  3  2  1  0
  4  5  2  0
  4  2  1  0
  6  4  1  0
  7 14  1  0
  7  6  1  0
  7  8  1  6
  9  8  1  0
 10  9  2  0
 11 10  1  0
 12 11  1  0
 12 13  2  0
 13  9  1  0
 14 20  1  0
 15 14  2  0
 17 18  1  0
 17 19  1  0
 17 16  1  1
 19 21  1  0
 19 20  1  1
 21 23  2  0
 21 22  1  0
M  END
$$$$
