AHT.pdb
     RDKit          3D

 23 23  0  0  1  0  0  0  0  0999 V2000
   18.3941   -8.9569  -18.9348 C   0  0  0  0  0  0  0  0  0  0  0  0
   19.8969   -9.1710  -19.0343 C   0  0  2  0  0  0  0  0  0  0  0  0
   20.1567  -10.5619  -19.4304 N   0  0  0  0  0  0  0  0  0  0  0  0
   20.5550   -8.9374  -17.7256 C   0  0  0  0  0  0  0  0  0  0  0  0
   19.9077   -9.2012  -16.6862 O   0  0  0  0  0  0  0  0  0  0  0  0
   21.8571   -8.4390  -17.6046 N   0  0  0  0  0  0  0  0  0  0  0  0
   22.4667   -8.2440  -16.2960 C   0  0  1  0  0  0  0  0  0  0  0  0
   23.7901   -8.9060  -16.2272 C   0  0  0  0  0  0  0  0  0  0  0  0
   23.7031  -10.3661  -16.1454 C   0  0  0  0  0  0  0  0  0  0  0  0
   22.5406  -11.1476  -16.0895 C   0  0  0  0  0  0  0  0  0  0  0  0
   22.8693  -12.4456  -15.9724 N   0  0  0  0  0  0  0  0  0  0  0  0
   24.2108  -12.5290  -15.9506 C   0  0  0  0  0  0  0  0  0  0  0  0
   24.7008  -11.2822  -16.0544 N   0  0  0  0  0  0  0  0  0  0  0  0
   22.4037   -6.8101  -16.0111 C   0  0  0  0  0  0  0  0  0  0  0  0
   23.0408   -6.0140  -16.7891 O   0  0  0  0  0  0  0  0  0  0  0  0
   19.8372   -4.4731  -16.2252 C   0  0  0  0  0  0  0  0  0  0  0  0
   20.3282   -4.2071  -14.8047 C   0  0  1  0  0  0  0  0  0  0  0  0
   19.5291   -4.8210  -13.8666 O   0  0  0  0  0  0  0  0  0  0  0  0
   21.7657   -4.7365  -14.7380 C   0  0  2  0  0  0  0  0  0  0  0  0
   21.7044   -6.1680  -14.9611 N   0  0  0  0  0  0  0  0  0  0  0  0
   22.3671   -4.3157  -13.4886 C   0  0  0  0  0  0  0  0  0  0  0  0
   22.6985   -5.2221  -12.5066 O   0  0  0  0  0  0  0  0  0  0  0  0
   22.5894   -3.0954  -13.3002 O   0  0  0  0  0  0  0  0  0  0  0  0
  2  1  1  1
  3  2  1  0
  4  5  2  0
  4  2  1  0
  6  4  1  0
  7 14  1  0
  7  6  1  0
  7  8  1  6
  9  8  1  0
 10  9  2  0
 11 10  1  0
 12 11  1  0
 12 13  2  0
 13  9  1  0
 14 20  1  0
 15 14  2  0
 17 18  1  0
 17 19  1  0
 17 16  1  6
 19 21  1  0
 19 20  1  1
 21 23  2  0
 21 22  1  0
M  END
$$$$
