AHT.pdb
     RDKit          3D

 23 23  0  0  1  0  0  0  0  0999 V2000
   14.3029   -8.4764   -9.7621 C   0  0  0  0  0  0  0  0  0  0  0  0
   14.3683   -9.2051  -11.0958 C   0  0  2  0  0  0  0  0  0  0  0  0
   13.9571  -10.6019  -10.8985 N   0  0  0  0  0  0  0  0  0  0  0  0
   15.7507   -9.2068  -11.6337 C   0  0  0  0  0  0  0  0  0  0  0  0
   16.6292   -9.8322  -10.9963 O   0  0  0  0  0  0  0  0  0  0  0  0
   16.1115   -8.5448  -12.8127 N   0  0  0  0  0  0  0  0  0  0  0  0
   17.4477   -8.6889  -13.3747 C   0  0  1  0  0  0  0  0  0  0  0  0
   17.3825   -9.1918  -14.7665 C   0  0  0  0  0  0  0  0  0  0  0  0
   17.2374  -10.6471  -14.8498 C   0  0  0  0  0  0  0  0  0  0  0  0
   17.2825  -11.5687  -13.7944 C   0  0  0  0  0  0  0  0  0  0  0  0
   17.1568  -12.8178  -14.2743 N   0  0  0  0  0  0  0  0  0  0  0  0
   17.0313  -12.7336  -15.6101 C   0  0  0  0  0  0  0  0  0  0  0  0
   17.0805  -11.4334  -15.9453 N   0  0  0  0  0  0  0  0  0  0  0  0
   18.1440   -7.4242  -13.1364 C   0  0  0  0  0  0  0  0  0  0  0  0
   17.4807   -6.3361  -13.2820 O   0  0  0  0  0  0  0  0  0  0  0  0
   20.2511   -6.1643  -10.2155 C   0  0  0  0  0  0  0  0  0  0  0  0
   21.0939   -5.9834  -11.4752 C   0  0  1  0  0  0  0  0  0  0  0  0
   22.0010   -7.0071  -11.6320 O   0  0  0  0  0  0  0  0  0  0  0  0
   20.1097   -5.9320  -12.6499 C   0  0  2  0  0  0  0  0  0  0  0  0
   19.4927   -7.2405  -12.7478 N   0  0  0  0  0  0  0  0  0  0  0  0
   20.8089   -5.4717  -13.8327 C   0  0  0  0  0  0  0  0  0  0  0  0
   21.2750   -4.1804  -13.9378 O   0  0  0  0  0  0  0  0  0  0  0  0
   20.9918   -6.2713  -14.7819 O   0  0  0  0  0  0  0  0  0  0  0  0
  2  1  1  1
  3  2  1  0
  4  5  2  0
  4  2  1  0
  6  4  1  0
  7 14  1  0
  7  6  1  0
  7  8  1  6
  9  8  1  0
 10  9  2  0
 11 10  1  0
 12 11  1  0
 12 13  2  0
 13  9  1  0
 14 20  1  0
 15 14  2  0
 17 18  1  0
 17 19  1  0
 17 16  1  1
 19 21  1  0
 19 20  1  6
 21 23  2  0
 21 22  1  0
M  END
$$$$
