AHT.pdb
     RDKit          3D

 23 23  0  0  1  0  0  0  0  0999 V2000
   34.4748  -35.7407   -4.6482 C   0  0  0  0  0  0  0  0  0  0  0  0
   33.3044  -35.5791   -5.6064 C   0  0  2  0  0  0  0  0  0  0  0  0
   33.7315  -34.7607   -6.7495 N   0  0  0  0  0  0  0  0  0  0  0  0
   32.1693  -34.8878   -4.9474 C   0  0  0  0  0  0  0  0  0  0  0  0
   32.3173  -33.6850   -4.6302 O   0  0  0  0  0  0  0  0  0  0  0  0
   30.9511  -35.5172   -4.6678 N   0  0  0  0  0  0  0  0  0  0  0  0
   29.8536  -34.7855   -4.0496 C   0  0  1  0  0  0  0  0  0  0  0  0
   28.7799  -34.5154   -5.0337 C   0  0  0  0  0  0  0  0  0  0  0  0
   27.6256  -33.8233   -4.4554 C   0  0  0  0  0  0  0  0  0  0  0  0
   27.4669  -33.3937   -3.1304 C   0  0  0  0  0  0  0  0  0  0  0  0
   26.2516  -32.8417   -2.9728 N   0  0  0  0  0  0  0  0  0  0  0  0
   25.6174  -32.9005   -4.1566 C   0  0  0  0  0  0  0  0  0  0  0  0
   26.4453  -33.4884   -5.0365 N   0  0  0  0  0  0  0  0  0  0  0  0
   29.4969  -35.5116   -2.8302 C   0  0  0  0  0  0  0  0  0  0  0  0
   29.1714  -36.7473   -2.9399 O   0  0  0  0  0  0  0  0  0  0  0  0
   31.3626  -35.3930    0.5800 C   0  0  0  0  0  0  0  0  0  0  0  0
   29.8678  -35.2446    0.8511 C   0  0  1  0  0  0  0  0  0  0  0  0
   29.5127  -33.9276    1.0379 O   0  0  0  0  0  0  0  0  0  0  0  0
   29.1469  -35.8449   -0.3617 C   0  0  2  0  0  0  0  0  0  0  0  0
   29.4704  -35.0141   -1.5052 N   0  0  0  0  0  0  0  0  0  0  0  0
   27.7370  -35.9788   -0.0551 C   0  0  0  0  0  0  0  0  0  0  0  0
   27.2913  -36.8298    0.9313 O   0  0  0  0  0  0  0  0  0  0  0  0
   26.9051  -35.3020   -0.7061 O   0  0  0  0  0  0  0  0  0  0  0  0
  2  1  1  1
  3  2  1  0
  4  5  2  0
  4  2  1  0
  6  4  1  0
  7 14  1  0
  7  6  1  0
  7  8  1  6
  9  8  1  0
 10  9  2  0
 11 10  1  0
 12 11  1  0
 12 13  2  0
 13  9  1  0
 14 20  1  0
 15 14  2  0
 17 18  1  0
 17 19  1  0
 17 16  1  6
 19 21  1  0
 19 20  1  6
 21 23  2  0
 21 22  1  0
M  END
$$$$
