AHT.pdb
     RDKit          3D

 23 23  0  0  1  0  0  0  0  0999 V2000
   23.0493  -14.1552  -19.7670 C   0  0  0  0  0  0  0  0  0  0  0  0
   24.0381  -14.4738  -18.6557 C   0  0  2  0  0  0  0  0  0  0  0  0
   25.4042  -14.3691  -19.1865 N   0  0  0  0  0  0  0  0  0  0  0  0
   23.8470  -15.8566  -18.1541 C   0  0  0  0  0  0  0  0  0  0  0  0
   23.7618  -16.7810  -18.9952 O   0  0  0  0  0  0  0  0  0  0  0  0
   23.7584  -16.1691  -16.7929 N   0  0  0  0  0  0  0  0  0  0  0  0
   23.5819  -17.5455  -16.3494 C   0  0  1  0  0  0  0  0  0  0  0  0
   24.5886  -17.9016  -15.3229 C   0  0  0  0  0  0  0  0  0  0  0  0
   25.9024  -18.2204  -15.8869 C   0  0  0  0  0  0  0  0  0  0  0  0
   26.2540  -18.2837  -17.2426 C   0  0  0  0  0  0  0  0  0  0  0  0
   27.5404  -18.6540  -17.3630 N   0  0  0  0  0  0  0  0  0  0  0  0
   28.0336  -18.8329  -16.1253 C   0  0  0  0  0  0  0  0  0  0  0  0
   27.0485  -18.5718  -15.2498 N   0  0  0  0  0  0  0  0  0  0  0  0
   22.1684  -17.6987  -16.0033 C   0  0  0  0  0  0  0  0  0  0  0  0
   21.6924  -16.9524  -15.0751 O   0  0  0  0  0  0  0  0  0  0  0  0
   19.2199  -17.6292  -18.3814 C   0  0  0  0  0  0  0  0  0  0  0  0
   19.0237  -18.8543  -17.4924 C   0  0  1  0  0  0  0  0  0  0  0  0
   19.4445  -20.0078  -18.1152 O   0  0  0  0  0  0  0  0  0  0  0  0
   19.8265  -18.5926  -16.2125 C   0  0  2  0  0  0  0  0  0  0  0  0
   21.2287  -18.5853  -16.5818 N   0  0  0  0  0  0  0  0  0  0  0  0
   19.4418  -19.5621  -15.2066 C   0  0  0  0  0  0  0  0  0  0  0  0
   18.2063  -19.5204  -14.6003 O   0  0  0  0  0  0  0  0  0  0  0  0
   20.2566  -20.4592  -14.8823 O   0  0  0  0  0  0  0  0  0  0  0  0
  2  1  1  6
  3  2  1  0
  4  5  2  0
  4  2  1  0
  6  4  1  0
  7 14  1  0
  7  6  1  0
  7  8  1  1
  9  8  1  0
 10  9  2  0
 11 10  1  0
 12 11  1  0
 12 13  2  0
 13  9  1  0
 14 20  1  0
 15 14  2  0
 17 18  1  0
 17 19  1  0
 17 16  1  6
 19 21  1  0
 19 20  1  6
 21 23  2  0
 21 22  1  0
M  END
$$$$
