AHT.pdb
     RDKit          3D

 23 23  0  0  1  0  0  0  0  0999 V2000
   26.1781  -21.0090  -20.5668 C   0  0  0  0  0  0  0  0  0  0  0  0
   25.4697  -19.9909  -19.6860 C   0  0  2  0  0  0  0  0  0  0  0  0
   26.4113  -18.9155  -19.3456 N   0  0  0  0  0  0  0  0  0  0  0  0
   25.0081  -20.6124  -18.4207 C   0  0  0  0  0  0  0  0  0  0  0  0
   24.2773  -21.6270  -18.4960 O   0  0  0  0  0  0  0  0  0  0  0  0
   25.3516  -20.1172  -17.1576 N   0  0  0  0  0  0  0  0  0  0  0  0
   24.9637  -20.8239  -15.9442 C   0  0  1  0  0  0  0  0  0  0  0  0
   26.1294  -21.0156  -15.0506 C   0  0  0  0  0  0  0  0  0  0  0  0
   27.1375  -21.9246  -15.6013 C   0  0  0  0  0  0  0  0  0  0  0  0
   27.1435  -23.3253  -15.5420 C   0  0  0  0  0  0  0  0  0  0  0  0
   28.2602  -23.8010  -16.1193 N   0  0  0  0  0  0  0  0  0  0  0  0
   28.9786  -22.7502  -16.5513 C   0  0  0  0  0  0  0  0  0  0  0  0
   28.3006  -21.6333  -16.2378 N   0  0  0  0  0  0  0  0  0  0  0  0
   23.7960  -20.1261  -15.4051 C   0  0  0  0  0  0  0  0  0  0  0  0
   23.9875  -19.0096  -14.8037 O   0  0  0  0  0  0  0  0  0  0  0  0
   21.0516  -18.5591  -17.0144 C   0  0  0  0  0  0  0  0  0  0  0  0
   20.3531  -19.4848  -16.0219 C   0  0  1  0  0  0  0  0  0  0  0  0
   19.9506  -20.6589  -16.6175 O   0  0  0  0  0  0  0  0  0  0  0  0
   21.3608  -19.7523  -14.8976 C   0  0  2  0  0  0  0  0  0  0  0  0
   22.4414  -20.5321  -15.4691 N   0  0  0  0  0  0  0  0  0  0  0  0
   20.6690  -20.3555  -13.7763 C   0  0  0  0  0  0  0  0  0  0  0  0
   19.7868  -19.6360  -13.0018 O   0  0  0  0  0  0  0  0  0  0  0  0
   20.8817  -21.5623  -13.5072 O   0  0  0  0  0  0  0  0  0  0  0  0
  2  1  1  6
  3  2  1  0
  4  5  2  0
  4  2  1  0
  6  4  1  0
  7 14  1  0
  7  6  1  0
  7  8  1  1
  9  8  1  0
 10  9  2  0
 11 10  1  0
 12 11  1  0
 12 13  2  0
 13  9  1  0
 14 20  1  0
 15 14  2  0
 17 18  1  0
 17 19  1  0
 17 16  1  6
 19 21  1  0
 19 20  1  6
 21 23  2  0
 21 22  1  0
M  END
$$$$
