QKQ.pdb
     RDKit          3D

 28 27  0  0  1  0  0  0  0  0999 V2000
   15.5621  -22.2342   15.4504 N   0  0  0  0  0  0  0  0  0  0  0  0
   15.8202  -21.0917   16.2634 C   0  0  0  0  0  0  0  0  0  0  0  0
   16.2803  -21.2807   17.4072 O   0  0  0  0  0  0  0  0  0  0  0  0
   15.5501  -19.7237   15.7623 C   0  0  0  0  0  0  0  0  0  0  0  0
   14.9212  -18.8158   16.7840 C   0  0  0  0  0  0  0  0  0  0  0  0
   13.4229  -18.9537   16.8658 C   0  0  2  0  0  0  0  0  0  0  0  0
   12.8431  -18.0765   15.8871 N   0  0  0  0  0  0  0  0  0  0  0  0
   13.0287  -18.5805   18.2536 C   0  0  0  0  0  0  0  0  0  0  0  0
   13.2188  -17.4187   18.6937 O   0  0  0  0  0  0  0  0  0  0  0  0
   12.4270  -19.5226   19.1221 N   0  0  0  0  0  0  0  0  0  0  0  0
   12.0187  -19.1101   20.4698 C   0  0  1  0  0  0  0  0  0  0  0  0
   10.8449  -20.0434   20.7928 C   0  0  0  0  0  0  0  0  0  0  0  0
   10.3365  -19.8768   22.1929 C   0  0  0  0  0  0  0  0  0  0  0  0
    9.1655  -20.8032   22.4074 C   0  0  0  0  0  0  0  0  0  0  0  0
    8.6063  -20.5974   23.7843 C   0  0  0  0  0  0  0  0  0  0  0  0
    7.4495  -21.4721   23.9346 N   0  0  0  0  0  0  0  0  0  0  0  0
   13.1355  -19.2326   21.4201 C   0  0  0  0  0  0  0  0  0  0  0  0
   13.7516  -20.3191   21.4987 O   0  0  0  0  0  0  0  0  0  0  0  0
   17.2601  -14.7606   23.2380 N   0  0  0  0  0  0  0  0  0  0  0  0
   16.8435  -15.3996   22.0529 C   0  0  0  0  0  0  0  0  0  0  0  0
   17.2893  -14.9223   20.9781 O   0  0  0  0  0  0  0  0  0  0  0  0
   15.9470  -16.5540   21.9955 C   0  0  0  0  0  0  0  0  0  0  0  0
   15.4604  -17.0877   23.2856 C   0  0  0  0  0  0  0  0  0  0  0  0
   14.6044  -18.2850   23.2672 C   0  0  2  0  0  0  0  0  0  0  0  0
   13.5661  -18.1708   22.2717 N   0  0  0  0  0  0  0  0  0  0  0  0
   14.0343  -18.6618   24.5756 C   0  0  0  0  0  0  0  0  0  0  0  0
   12.8059  -18.5120   24.7559 O   0  0  0  0  0  0  0  0  0  0  0  0
   14.7791  -19.1728   25.6196 O   0  0  0  0  0  0  0  0  0  0  0  0
  1  2  1  0
  2  3  2  0
  4  2  1  0
  4  5  1  0
  5  6  1  0
  6  8  1  0
  6  7  1  6
  8  9  2  0
 10 11  1  0
 10  8  1  0
 11 12  1  1
 13 14  1  0
 13 12  1  0
 14 15  1  0
 16 15  1  0
 17 25  1  0
 17 11  1  0
 18 17  2  0
 19 20  1  0
 20 22  1  0
 21 20  2  0
 22 23  1  0
 24 23  1  1
 24 26  1  0
 24 25  1  0
 26 28  1  0
 27 26  2  0
M  END
$$$$
