QKQ.pdb
     RDKit          3D

 28 27  0  0  1  0  0  0  0  0999 V2000
    8.9905  -12.0082   19.1588 N   0  0  0  0  0  0  0  0  0  0  0  0
    8.2023  -12.8565   18.3269 C   0  0  0  0  0  0  0  0  0  0  0  0
    8.1365  -12.5850   17.1113 O   0  0  0  0  0  0  0  0  0  0  0  0
    7.4855  -14.0239   18.8914 C   0  0  0  0  0  0  0  0  0  0  0  0
    7.6180  -14.1543   20.3844 C   0  0  0  0  0  0  0  0  0  0  0  0
    8.4025  -15.3677   20.8121 C   0  0  2  0  0  0  0  0  0  0  0  0
    8.2596  -16.3697   19.7927 N   0  0  0  0  0  0  0  0  0  0  0  0
    7.8351  -15.8128   22.1162 C   0  0  0  0  0  0  0  0  0  0  0  0
    7.5185  -14.9827   23.0051 O   0  0  0  0  0  0  0  0  0  0  0  0
    7.6339  -17.1857   22.3967 N   0  0  0  0  0  0  0  0  0  0  0  0
    7.2052  -17.5973   23.7383 C   0  0  1  0  0  0  0  0  0  0  0  0
    6.5728  -18.9757   23.5080 C   0  0  0  0  0  0  0  0  0  0  0  0
    5.2389  -18.8984   22.8287 C   0  0  0  0  0  0  0  0  0  0  0  0
    4.8127  -20.2855   22.4165 C   0  0  0  0  0  0  0  0  0  0  0  0
    3.5673  -20.2029   21.5840 C   0  0  0  0  0  0  0  0  0  0  0  0
    3.2301  -21.5520   21.1454 N   0  0  0  0  0  0  0  0  0  0  0  0
    8.3443  -17.6300   24.6694 C   0  0  0  0  0  0  0  0  0  0  0  0
    9.5077  -17.6325   24.2081 O   0  0  0  0  0  0  0  0  0  0  0  0
    9.0032  -13.0480   28.2310 N   0  0  0  0  0  0  0  0  0  0  0  0
    9.8481  -13.9731   28.8765 C   0  0  0  0  0  0  0  0  0  0  0  0
   10.4900  -13.5414   29.8682 O   0  0  0  0  0  0  0  0  0  0  0  0
   10.0218  -15.3690   28.4753 C   0  0  0  0  0  0  0  0  0  0  0  0
    9.1238  -15.8772   27.4164 C   0  0  0  0  0  0  0  0  0  0  0  0
    9.2343  -17.2926   27.0276 C   0  0  2  0  0  0  0  0  0  0  0  0
    8.2012  -17.6596   26.0894 N   0  0  0  0  0  0  0  0  0  0  0  0
    9.2792  -18.2452   28.1542 C   0  0  0  0  0  0  0  0  0  0  0  0
   10.3528  -18.3751   28.7824 O   0  0  0  0  0  0  0  0  0  0  0  0
    8.2016  -19.0067   28.5598 O   0  0  0  0  0  0  0  0  0  0  0  0
  1  2  1  0
  2  3  2  0
  4  2  1  0
  4  5  1  0
  5  6  1  0
  6  8  1  0
  6  7  1  6
  8  9  2  0
 10 11  1  0
 10  8  1  0
 11 12  1  6
 13 14  1  0
 13 12  1  0
 14 15  1  0
 16 15  1  0
 17 25  1  0
 17 11  1  0
 18 17  2  0
 19 20  1  0
 20 22  1  0
 21 20  2  0
 22 23  1  0
 24 23  1  1
 24 26  1  0
 24 25  1  0
 26 28  1  0
 27 26  2  0
M  END
$$$$
