QKQ.pdb
     RDKit          3D

 28 27  0  0  1  0  0  0  0  0999 V2000
    7.5400  -12.1286   17.5932 N   0  0  0  0  0  0  0  0  0  0  0  0
    8.2468  -13.1775   16.9352 C   0  0  0  0  0  0  0  0  0  0  0  0
    8.4477  -13.0669   15.7092 O   0  0  0  0  0  0  0  0  0  0  0  0
    8.7272  -14.3605   17.6870 C   0  0  0  0  0  0  0  0  0  0  0  0
    8.2723  -14.3948   19.1207 C   0  0  0  0  0  0  0  0  0  0  0  0
    8.7013  -15.6387   19.8552 C   0  0  2  0  0  0  0  0  0  0  0  0
    8.6251  -16.7427   18.9393 N   0  0  0  0  0  0  0  0  0  0  0  0
    7.7710  -15.8039   21.0075 C   0  0  0  0  0  0  0  0  0  0  0  0
    7.5224  -14.8482   21.7851 O   0  0  0  0  0  0  0  0  0  0  0  0
    7.1365  -17.0429   21.2645 N   0  0  0  0  0  0  0  0  0  0  0  0
    6.3165  -17.2023   22.4708 C   0  0  1  0  0  0  0  0  0  0  0  0
    5.3050  -18.2869   22.0790 C   0  0  0  0  0  0  0  0  0  0  0  0
    4.4686  -18.7479   23.2343 C   0  0  0  0  0  0  0  0  0  0  0  0
    3.5225  -19.8236   22.7617 C   0  0  0  0  0  0  0  0  0  0  0  0
    2.6642  -20.2773   23.9056 C   0  0  0  0  0  0  0  0  0  0  0  0
    1.8962  -21.4337   23.4597 N   0  0  0  0  0  0  0  0  0  0  0  0
    7.1466  -17.5739   23.6277 C   0  0  0  0  0  0  0  0  0  0  0  0
    7.8870  -18.5797   23.5477 O   0  0  0  0  0  0  0  0  0  0  0  0
    9.0483  -13.2679   28.0254 N   0  0  0  0  0  0  0  0  0  0  0  0
    9.6076  -14.5035   28.4084 C   0  0  0  0  0  0  0  0  0  0  0  0
   10.4178  -14.4726   29.3699 O   0  0  0  0  0  0  0  0  0  0  0  0
    9.3132  -15.7879   27.7732 C   0  0  0  0  0  0  0  0  0  0  0  0
    8.3670  -15.7708   26.6374 C   0  0  0  0  0  0  0  0  0  0  0  0
    8.1277  -17.0277   25.9094 C   0  0  2  0  0  0  0  0  0  0  0  0
    7.1590  -16.8457   24.8555 N   0  0  0  0  0  0  0  0  0  0  0  0
    7.7651  -18.1789   26.7591 C   0  0  0  0  0  0  0  0  0  0  0  0
    8.6801  -18.8010   27.3421 O   0  0  0  0  0  0  0  0  0  0  0  0
    6.4691  -18.6140   26.9511 O   0  0  0  0  0  0  0  0  0  0  0  0
  1  2  1  0
  2  3  2  0
  4  2  1  0
  4  5  1  0
  5  6  1  0
  6  8  1  0
  6  7  1  6
  8  9  2  0
 10 11  1  0
 10  8  1  0
 11 12  1  6
 13 14  1  0
 13 12  1  0
 14 15  1  0
 16 15  1  0
 17 25  1  0
 17 11  1  0
 18 17  2  0
 19 20  1  0
 20 22  1  0
 21 20  2  0
 22 23  1  0
 24 23  1  1
 24 26  1  0
 24 25  1  0
 26 28  1  0
 27 26  2  0
M  END
$$$$
