QKQ.pdb
     RDKit          3D

 28 27  0  0  1  0  0  0  0  0999 V2000
    8.0507  -12.7616   14.9383 N   0  0  0  0  0  0  0  0  0  0  0  0
    7.8151  -13.4859   13.7330 C   0  0  0  0  0  0  0  0  0  0  0  0
    7.4496  -12.8441   12.7279 O   0  0  0  0  0  0  0  0  0  0  0  0
    8.0004  -14.9549   13.6788 C   0  0  0  0  0  0  0  0  0  0  0  0
    8.3818  -15.5681   14.9987 C   0  0  0  0  0  0  0  0  0  0  0  0
    8.6486  -17.0489   14.9160 C   0  0  2  0  0  0  0  0  0  0  0  0
    7.5726  -17.6526   14.1804 N   0  0  0  0  0  0  0  0  0  0  0  0
    8.7211  -17.5548   16.3158 C   0  0  0  0  0  0  0  0  0  0  0  0
    8.8515  -16.7669   17.2863 O   0  0  0  0  0  0  0  0  0  0  0  0
    8.6455  -18.9398   16.5986 N   0  0  0  0  0  0  0  0  0  0  0  0
    8.7819  -19.4066   17.9830 C   0  0  1  0  0  0  0  0  0  0  0  0
    7.7724  -20.5577   18.0769 C   0  0  0  0  0  0  0  0  0  0  0  0
    7.7706  -21.2226   19.4202 C   0  0  0  0  0  0  0  0  0  0  0  0
    6.7147  -22.2999   19.4374 C   0  0  0  0  0  0  0  0  0  0  0  0
    6.7403  -23.0089   20.7593 C   0  0  0  0  0  0  0  0  0  0  0  0
    5.7941  -24.1163   20.6933 N   0  0  0  0  0  0  0  0  0  0  0  0
   10.1647  -19.8232   18.2654 C   0  0  0  0  0  0  0  0  0  0  0  0
   10.7930  -20.4741   17.4007 O   0  0  0  0  0  0  0  0  0  0  0  0
   14.9864  -17.5804   17.1477 N   0  0  0  0  0  0  0  0  0  0  0  0
   15.4421  -18.5294   18.0847 C   0  0  0  0  0  0  0  0  0  0  0  0
   16.6867  -18.7020   18.1405 O   0  0  0  0  0  0  0  0  0  0  0  0
   14.5801  -19.3078   18.9740 C   0  0  0  0  0  0  0  0  0  0  0  0
   13.1267  -19.0498   18.8909 C   0  0  0  0  0  0  0  0  0  0  0  0
   12.2280  -19.8358   19.7520 C   0  0  2  0  0  0  0  0  0  0  0  0
   10.8442  -19.5258   19.4852 N   0  0  0  0  0  0  0  0  0  0  0  0
   12.5145  -19.7444   21.1970 C   0  0  0  0  0  0  0  0  0  0  0  0
   13.6445  -20.0933   21.6039 O   0  0  0  0  0  0  0  0  0  0  0  0
   11.6056  -19.2945   22.1336 O   0  0  0  0  0  0  0  0  0  0  0  0
  1  2  1  0
  2  3  2  0
  4  2  1  0
  4  5  1  0
  5  6  1  0
  6  8  1  0
  6  7  1  6
  8  9  2  0
 10 11  1  0
 10  8  1  0
 11 12  1  6
 13 14  1  0
 13 12  1  0
 14 15  1  0
 16 15  1  0
 17 25  1  0
 17 11  1  0
 18 17  2  0
 19 20  1  0
 20 22  1  0
 21 20  2  0
 22 23  1  0
 24 23  1  6
 24 26  1  0
 24 25  1  0
 26 28  1  0
 27 26  2  0
M  END
$$$$
