QKQ.pdb
     RDKit          3D

 28 27  0  0  1  0  0  0  0  0999 V2000
   12.0113  -21.0241   18.9418 N   0  0  0  0  0  0  0  0  0  0  0  0
   12.0948  -21.4501   17.5837 C   0  0  0  0  0  0  0  0  0  0  0  0
   11.6715  -22.5890   17.3018 O   0  0  0  0  0  0  0  0  0  0  0  0
   12.6662  -20.5652   16.5417 C   0  0  0  0  0  0  0  0  0  0  0  0
   13.0381  -19.1967   17.0443 C   0  0  0  0  0  0  0  0  0  0  0  0
   11.8815  -18.2308   17.0619 C   0  0  2  0  0  0  0  0  0  0  0  0
   11.9213  -17.4696   15.8443 N   0  0  0  0  0  0  0  0  0  0  0  0
   12.0553  -17.3690   18.2652 C   0  0  0  0  0  0  0  0  0  0  0  0
   13.1991  -17.0676   18.6899 O   0  0  0  0  0  0  0  0  0  0  0  0
   10.9373  -16.8613   18.9697 N   0  0  0  0  0  0  0  0  0  0  0  0
   11.1455  -15.9696   20.1163 C   0  0  1  0  0  0  0  0  0  0  0  0
    9.7452  -15.4103   20.3975 C   0  0  0  0  0  0  0  0  0  0  0  0
    9.2928  -14.4250   19.3625 C   0  0  0  0  0  0  0  0  0  0  0  0
    7.8981  -13.9591   19.6993 C   0  0  0  0  0  0  0  0  0  0  0  0
    7.4502  -12.9416   18.6919 C   0  0  0  0  0  0  0  0  0  0  0  0
    6.0838  -12.5543   19.0220 N   0  0  0  0  0  0  0  0  0  0  0  0
   11.7175  -16.7021   21.2572 C   0  0  0  0  0  0  0  0  0  0  0  0
   11.3286  -17.8690   21.4882 O   0  0  0  0  0  0  0  0  0  0  0  0
   17.6112  -16.2103   25.5747 N   0  0  0  0  0  0  0  0  0  0  0  0
   17.0133  -16.7368   24.4121 C   0  0  0  0  0  0  0  0  0  0  0  0
   17.7544  -16.8320   23.4005 O   0  0  0  0  0  0  0  0  0  0  0  0
   15.6193  -17.1681   24.3102 C   0  0  0  0  0  0  0  0  0  0  0  0
   14.7805  -16.4867   23.3012 C   0  0  0  0  0  0  0  0  0  0  0  0
   13.3686  -16.8858   23.1826 C   0  0  2  0  0  0  0  0  0  0  0  0
   12.7046  -16.1542   22.1310 N   0  0  0  0  0  0  0  0  0  0  0  0
   12.5949  -16.8144   24.4376 C   0  0  0  0  0  0  0  0  0  0  0  0
   11.7566  -15.8957   24.5695 O   0  0  0  0  0  0  0  0  0  0  0  0
   12.7407  -17.7055   25.4818 O   0  0  0  0  0  0  0  0  0  0  0  0
  1  2  1  0
  2  3  2  0
  4  2  1  0
  4  5  1  0
  5  6  1  0
  6  8  1  0
  6  7  1  6
  8  9  2  0
 10 11  1  0
 10  8  1  0
 11 12  1  1
 13 14  1  0
 13 12  1  0
 14 15  1  0
 16 15  1  0
 17 25  1  0
 17 11  1  0
 18 17  2  0
 19 20  1  0
 20 22  1  0
 21 20  2  0
 22 23  1  0
 24 23  1  1
 24 26  1  0
 24 25  1  0
 26 28  1  0
 27 26  2  0
M  END
$$$$
