QKQ.pdb
     RDKit          3D

 28 27  0  0  1  0  0  0  0  0999 V2000
   10.1636  -21.6538   19.2736 N   0  0  0  0  0  0  0  0  0  0  0  0
    9.4999  -21.1613   18.1117 C   0  0  0  0  0  0  0  0  0  0  0  0
   10.1882  -20.9416   17.0950 O   0  0  0  0  0  0  0  0  0  0  0  0
    8.0381  -20.9199   18.1146 C   0  0  0  0  0  0  0  0  0  0  0  0
    7.5911  -19.9113   19.1376 C   0  0  0  0  0  0  0  0  0  0  0  0
    7.5309  -18.5034   18.6036 C   0  0  2  0  0  0  0  0  0  0  0  0
    8.1021  -18.5046   17.2856 N   0  0  0  0  0  0  0  0  0  0  0  0
    8.3054  -17.6488   19.5472 C   0  0  0  0  0  0  0  0  0  0  0  0
    9.5618  -17.6749   19.5670 O   0  0  0  0  0  0  0  0  0  0  0  0
    7.6513  -16.7792   20.4527 N   0  0  0  0  0  0  0  0  0  0  0  0
    8.4464  -15.9027   21.3202 C   0  0  1  0  0  0  0  0  0  0  0  0
    7.4507  -14.8161   21.7455 C   0  0  0  0  0  0  0  0  0  0  0  0
    7.7856  -13.4673   21.1841 C   0  0  0  0  0  0  0  0  0  0  0  0
    7.6677  -13.5141   19.6809 C   0  0  0  0  0  0  0  0  0  0  0  0
    8.0616  -12.1867   19.1034 C   0  0  0  0  0  0  0  0  0  0  0  0
    7.9454  -12.2757   17.6527 N   0  0  0  0  0  0  0  0  0  0  0  0
    9.0071  -16.6522   22.4558 C   0  0  0  0  0  0  0  0  0  0  0  0
    8.4414  -17.7039   22.8298 O   0  0  0  0  0  0  0  0  0  0  0  0
   13.0995  -18.4572   19.8600 N   0  0  0  0  0  0  0  0  0  0  0  0
   13.0755  -19.2772   21.0061 C   0  0  0  0  0  0  0  0  0  0  0  0
   13.4939  -20.4538   20.8564 O   0  0  0  0  0  0  0  0  0  0  0  0
   12.6056  -18.8567   22.3260 C   0  0  0  0  0  0  0  0  0  0  0  0
   12.1224  -17.4650   22.4517 C   0  0  0  0  0  0  0  0  0  0  0  0
   11.2371  -17.1329   23.5798 C   0  0  2  0  0  0  0  0  0  0  0  0
   10.1756  -16.2462   23.1684 N   0  0  0  0  0  0  0  0  0  0  0  0
   11.9242  -16.6058   24.7751 C   0  0  0  0  0  0  0  0  0  0  0  0
   12.0351  -15.3665   24.9008 O   0  0  0  0  0  0  0  0  0  0  0  0
   12.4556  -17.4023   25.7695 O   0  0  0  0  0  0  0  0  0  0  0  0
  1  2  1  0
  2  3  2  0
  4  2  1  0
  4  5  1  0
  5  6  1  0
  6  8  1  0
  6  7  1  6
  8  9  2  0
 10 11  1  0
 10  8  1  0
 11 12  1  1
 13 14  1  0
 13 12  1  0
 14 15  1  0
 16 15  1  0
 17 25  1  0
 17 11  1  0
 18 17  2  0
 19 20  1  0
 20 22  1  0
 21 20  2  0
 22 23  1  0
 24 23  1  6
 24 26  1  0
 24 25  1  0
 26 28  1  0
 27 26  2  0
M  END
$$$$
