QKQ.pdb
     RDKit          3D

 28 27  0  0  1  0  0  0  0  0999 V2000
   11.1672  -14.9335   20.8113 N   0  0  0  0  0  0  0  0  0  0  0  0
   11.6402  -14.0507   19.7964 C   0  0  0  0  0  0  0  0  0  0  0  0
   12.7814  -14.2503   19.3343 O   0  0  0  0  0  0  0  0  0  0  0  0
   10.7999  -12.9327   19.3074 C   0  0  0  0  0  0  0  0  0  0  0  0
    9.4663  -12.8290   19.9960 C   0  0  0  0  0  0  0  0  0  0  0  0
    8.4767  -13.8719   19.5444 C   0  0  2  0  0  0  0  0  0  0  0  0
    7.4024  -13.1999   18.8679 N   0  0  0  0  0  0  0  0  0  0  0  0
    8.0086  -14.5830   20.7674 C   0  0  0  0  0  0  0  0  0  0  0  0
    7.3529  -13.9846   21.6571 O   0  0  0  0  0  0  0  0  0  0  0  0
    8.2870  -15.9565   20.9675 N   0  0  0  0  0  0  0  0  0  0  0  0
    7.8660  -16.6087   22.2127 C   0  0  1  0  0  0  0  0  0  0  0  0
    7.5363  -18.0417   21.7759 C   0  0  0  0  0  0  0  0  0  0  0  0
    7.2591  -18.9539   22.9326 C   0  0  0  0  0  0  0  0  0  0  0  0
    7.0272  -20.3519   22.4154 C   0  0  0  0  0  0  0  0  0  0  0  0
    6.7810  -21.2806   23.5676 C   0  0  0  0  0  0  0  0  0  0  0  0
    6.4680  -22.5970   23.0244 N   0  0  0  0  0  0  0  0  0  0  0  0
    8.9286  -16.5419   23.2286 C   0  0  0  0  0  0  0  0  0  0  0  0
   10.1217  -16.6608   22.8703 O   0  0  0  0  0  0  0  0  0  0  0  0
    8.4892  -14.3294   29.5370 N   0  0  0  0  0  0  0  0  0  0  0  0
    9.7239  -14.1532   28.8808 C   0  0  0  0  0  0  0  0  0  0  0  0
   10.4327  -13.1934   29.2787 O   0  0  0  0  0  0  0  0  0  0  0  0
   10.2205  -14.9949   27.7924 C   0  0  0  0  0  0  0  0  0  0  0  0
    9.3056  -15.2248   26.6540 C   0  0  0  0  0  0  0  0  0  0  0  0
    9.7004  -16.2037   25.6280 C   0  0  2  0  0  0  0  0  0  0  0  0
    8.6775  -16.3469   24.6203 N   0  0  0  0  0  0  0  0  0  0  0  0
   10.1067  -17.5228   26.1509 C   0  0  0  0  0  0  0  0  0  0  0  0
    9.2493  -18.4315   26.2074 O   0  0  0  0  0  0  0  0  0  0  0  0
   11.3838  -17.8171   26.5846 O   0  0  0  0  0  0  0  0  0  0  0  0
  1  2  1  0
  2  3  2  0
  4  2  1  0
  4  5  1  0
  5  6  1  0
  6  8  1  0
  6  7  1  1
  8  9  2  0
 10 11  1  0
 10  8  1  0
 11 12  1  6
 13 14  1  0
 13 12  1  0
 14 15  1  0
 16 15  1  0
 17 25  1  0
 17 11  1  0
 18 17  2  0
 19 20  1  0
 20 22  1  0
 21 20  2  0
 22 23  1  0
 24 23  1  1
 24 26  1  0
 24 25  1  0
 26 28  1  0
 27 26  2  0
M  END
$$$$
