QKQ.pdb
     RDKit          3D

 28 27  0  0  1  0  0  0  0  0999 V2000
    7.4758  -12.4081   17.5617 N   0  0  0  0  0  0  0  0  0  0  0  0
    7.8821  -13.6012   16.8951 C   0  0  0  0  0  0  0  0  0  0  0  0
    7.7489  -13.6521   15.6560 O   0  0  0  0  0  0  0  0  0  0  0  0
    8.4453  -14.7429   17.6530 C   0  0  0  0  0  0  0  0  0  0  0  0
    8.4368  -14.5452   19.1445 C   0  0  0  0  0  0  0  0  0  0  0  0
    9.0261  -15.7048   19.9054 C   0  0  2  0  0  0  0  0  0  0  0  0
    8.6434  -16.9157   19.2341 N   0  0  0  0  0  0  0  0  0  0  0  0
    8.4793  -15.6370   21.2900 C   0  0  0  0  0  0  0  0  0  0  0  0
    8.6368  -14.6136   22.0023 O   0  0  0  0  0  0  0  0  0  0  0  0
    7.7641  -16.7234   21.8487 N   0  0  0  0  0  0  0  0  0  0  0  0
    7.3612  -16.6790   23.2589 C   0  0  1  0  0  0  0  0  0  0  0  0
    6.3039  -17.7850   23.3673 C   0  0  0  0  0  0  0  0  0  0  0  0
    6.1028  -18.5267   22.0804 C   0  0  0  0  0  0  0  0  0  0  0  0
    5.0688  -19.6053   22.2875 C   0  0  0  0  0  0  0  0  0  0  0  0
    4.8860  -20.3786   21.0150 C   0  0  0  0  0  0  0  0  0  0  0  0
    3.9350  -21.4529   21.2749 N   0  0  0  0  0  0  0  0  0  0  0  0
    8.5168  -16.8924   24.1447 C   0  0  0  0  0  0  0  0  0  0  0  0
    9.5074  -17.5230   23.7118 O   0  0  0  0  0  0  0  0  0  0  0  0
   10.2807  -13.3182   29.2336 N   0  0  0  0  0  0  0  0  0  0  0  0
   10.9543  -14.5498   29.3590 C   0  0  0  0  0  0  0  0  0  0  0  0
   11.7001  -14.6754   30.3638 O   0  0  0  0  0  0  0  0  0  0  0  0
   10.8439  -15.6635   28.4170 C   0  0  0  0  0  0  0  0  0  0  0  0
    9.7765  -15.5740   27.3979 C   0  0  0  0  0  0  0  0  0  0  0  0
    9.6799  -16.6450   26.3926 C   0  0  2  0  0  0  0  0  0  0  0  0
    8.5780  -16.4168   25.4893 N   0  0  0  0  0  0  0  0  0  0  0  0
    9.6281  -18.0129   26.9446 C   0  0  0  0  0  0  0  0  0  0  0  0
    8.5093  -18.5122   27.1961 O   0  0  0  0  0  0  0  0  0  0  0  0
   10.7463  -18.7803   27.2022 O   0  0  0  0  0  0  0  0  0  0  0  0
  1  2  1  0
  2  3  2  0
  4  2  1  0
  4  5  1  0
  5  6  1  0
  6  8  1  0
  6  7  1  6
  8  9  2  0
 10 11  1  0
 10  8  1  0
 11 12  1  6
 13 14  1  0
 13 12  1  0
 14 15  1  0
 16 15  1  0
 17 25  1  0
 17 11  1  0
 18 17  2  0
 19 20  1  0
 20 22  1  0
 21 20  2  0
 22 23  1  0
 24 23  1  1
 24 26  1  0
 24 25  1  0
 26 28  1  0
 27 26  2  0
M  END
$$$$
