QKQ.pdb
     RDKit          3D

 28 27  0  0  1  0  0  0  0  0999 V2000
   15.1538  -13.1729   18.7388 N   0  0  0  0  0  0  0  0  0  0  0  0
   15.3950  -14.5277   18.3657 C   0  0  0  0  0  0  0  0  0  0  0  0
   16.3338  -14.7582   17.5775 O   0  0  0  0  0  0  0  0  0  0  0  0
   14.5556  -15.6257   18.8998 C   0  0  0  0  0  0  0  0  0  0  0  0
   13.5308  -15.1732   19.9042 C   0  0  0  0  0  0  0  0  0  0  0  0
   12.1119  -15.4431   19.4746 C   0  0  2  0  0  0  0  0  0  0  0  0
   11.7016  -14.3759   18.6050 N   0  0  0  0  0  0  0  0  0  0  0  0
   11.2875  -15.5013   20.7147 C   0  0  0  0  0  0  0  0  0  0  0  0
   11.0856  -14.4742   21.4103 O   0  0  0  0  0  0  0  0  0  0  0  0
   10.7046  -16.7156   21.1500 N   0  0  0  0  0  0  0  0  0  0  0  0
    9.7491  -16.7040   22.2635 C   0  0  1  0  0  0  0  0  0  0  0  0
    8.9903  -18.0272   22.1018 C   0  0  0  0  0  0  0  0  0  0  0  0
    8.0525  -18.3035   23.2380 C   0  0  0  0  0  0  0  0  0  0  0  0
    7.3785  -19.6338   23.0107 C   0  0  0  0  0  0  0  0  0  0  0  0
    6.2945  -19.8295   24.0292 C   0  0  0  0  0  0  0  0  0  0  0  0
    5.7373  -21.1638   23.8413 N   0  0  0  0  0  0  0  0  0  0  0  0
   10.4452  -16.5886   23.5549 C   0  0  0  0  0  0  0  0  0  0  0  0
   11.5528  -17.1525   23.7019 O   0  0  0  0  0  0  0  0  0  0  0  0
   10.1008  -15.3748   30.3697 N   0  0  0  0  0  0  0  0  0  0  0  0
    9.6990  -14.6515   29.2288 C   0  0  0  0  0  0  0  0  0  0  0  0
    8.5118  -14.2364   29.2238 O   0  0  0  0  0  0  0  0  0  0  0  0
   10.5542  -14.3610   28.0782 C   0  0  0  0  0  0  0  0  0  0  0  0
    9.9914  -14.6388   26.7396 C   0  0  0  0  0  0  0  0  0  0  0  0
   10.5928  -15.7184   25.9399 C   0  0  2  0  0  0  0  0  0  0  0  0
    9.9260  -15.8614   24.6683 N   0  0  0  0  0  0  0  0  0  0  0  0
   10.6910  -17.0208   26.6276 C   0  0  0  0  0  0  0  0  0  0  0  0
    9.6894  -17.7698   26.6313 O   0  0  0  0  0  0  0  0  0  0  0  0
   11.8281  -17.4659   27.2713 O   0  0  0  0  0  0  0  0  0  0  0  0
  1  2  1  0
  2  3  2  0
  4  2  1  0
  4  5  1  0
  5  6  1  0
  6  8  1  0
  6  7  1  6
  8  9  2  0
 10 11  1  0
 10  8  1  0
 11 12  1  1
 13 14  1  0
 13 12  1  0
 14 15  1  0
 16 15  1  0
 17 25  1  0
 17 11  1  0
 18 17  2  0
 19 20  1  0
 20 22  1  0
 21 20  2  0
 22 23  1  0
 24 23  1  1
 24 26  1  0
 24 25  1  0
 26 28  1  0
 27 26  2  0
M  END
$$$$
