QKQ.pdb
     RDKit          3D

 28 27  0  0  1  0  0  0  0  0999 V2000
    9.4529  -13.0728   18.4062 N   0  0  0  0  0  0  0  0  0  0  0  0
    8.1127  -13.1710   17.9296 C   0  0  0  0  0  0  0  0  0  0  0  0
    7.9102  -12.9835   16.7132 O   0  0  0  0  0  0  0  0  0  0  0  0
    6.9975  -13.4867   18.8525 C   0  0  0  0  0  0  0  0  0  0  0  0
    7.4298  -13.6958   20.2784 C   0  0  0  0  0  0  0  0  0  0  0  0
    8.4001  -14.8361   20.4486 C   0  0  2  0  0  0  0  0  0  0  0  0
    8.2368  -15.7271   19.3337 N   0  0  0  0  0  0  0  0  0  0  0  0
    8.0706  -15.4956   21.7436 C   0  0  0  0  0  0  0  0  0  0  0  0
    7.5771  -14.8441   22.6984 O   0  0  0  0  0  0  0  0  0  0  0  0
    8.3026  -16.8781   21.9411 N   0  0  0  0  0  0  0  0  0  0  0  0
    8.1038  -17.4648   23.2712 C   0  0  1  0  0  0  0  0  0  0  0  0
    8.2395  -18.9727   23.0246 C   0  0  0  0  0  0  0  0  0  0  0  0
    6.9207  -19.6457   22.7912 C   0  0  0  0  0  0  0  0  0  0  0  0
    7.1622  -21.0706   22.3589 C   0  0  0  0  0  0  0  0  0  0  0  0
    5.8478  -21.7625   22.1484 C   0  0  0  0  0  0  0  0  0  0  0  0
    5.1770  -21.8548   23.4397 N   0  0  0  0  0  0  0  0  0  0  0  0
    9.0899  -16.9429   24.2308 C   0  0  0  0  0  0  0  0  0  0  0  0
   10.2069  -16.5656   23.8112 O   0  0  0  0  0  0  0  0  0  0  0  0
    7.5764  -12.0861   25.8112 N   0  0  0  0  0  0  0  0  0  0  0  0
    7.5417  -12.7296   27.0646 C   0  0  0  0  0  0  0  0  0  0  0  0
    6.7671  -12.2337   27.9225 O   0  0  0  0  0  0  0  0  0  0  0  0
    8.3308  -13.9082   27.4221 C   0  0  0  0  0  0  0  0  0  0  0  0
    9.1005  -14.5521   26.3364 C   0  0  0  0  0  0  0  0  0  0  0  0
    9.5431  -15.9433   26.5248 C   0  0  2  0  0  0  0  0  0  0  0  0
    8.8465  -16.8393   25.6336 N   0  0  0  0  0  0  0  0  0  0  0  0
    9.4770  -16.4338   27.9154 C   0  0  0  0  0  0  0  0  0  0  0  0
    8.5761  -17.2467   28.2185 O   0  0  0  0  0  0  0  0  0  0  0  0
   10.3543  -16.0476   28.9088 O   0  0  0  0  0  0  0  0  0  0  0  0
  1  2  1  0
  2  3  2  0
  4  2  1  0
  4  5  1  0
  5  6  1  0
  6  8  1  0
  6  7  1  6
  8  9  2  0
 10 11  1  0
 10  8  1  0
 11 12  1  6
 13 14  1  0
 13 12  1  0
 14 15  1  0
 16 15  1  0
 17 25  1  0
 17 11  1  0
 18 17  2  0
 19 20  1  0
 20 22  1  0
 21 20  2  0
 22 23  1  0
 24 23  1  1
 24 26  1  0
 24 25  1  0
 26 28  1  0
 27 26  2  0
M  END
$$$$
