QKQ.pdb
     RDKit          3D

 28 27  0  0  1  0  0  0  0  0999 V2000
    8.1646  -21.0776   16.6651 N   0  0  0  0  0  0  0  0  0  0  0  0
    7.1838  -21.5979   17.5595 C   0  0  0  0  0  0  0  0  0  0  0  0
    6.2827  -22.3173   17.0838 O   0  0  0  0  0  0  0  0  0  0  0  0
    7.2362  -21.2928   19.0084 C   0  0  0  0  0  0  0  0  0  0  0  0
    8.4514  -20.5070   19.4201 C   0  0  0  0  0  0  0  0  0  0  0  0
    8.2974  -19.8207   20.7528 C   0  0  2  0  0  0  0  0  0  0  0  0
    6.9020  -19.8234   21.0939 N   0  0  0  0  0  0  0  0  0  0  0  0
    8.8305  -18.4384   20.5922 C   0  0  0  0  0  0  0  0  0  0  0  0
    9.9856  -18.2350   20.1408 O   0  0  0  0  0  0  0  0  0  0  0  0
    8.0531  -17.3086   20.9430 N   0  0  0  0  0  0  0  0  0  0  0  0
    8.6482  -15.9690   20.8768 C   0  0  1  0  0  0  0  0  0  0  0  0
    7.4369  -15.0315   20.9604 C   0  0  0  0  0  0  0  0  0  0  0  0
    7.7910  -13.5981   20.7020 C   0  0  0  0  0  0  0  0  0  0  0  0
    8.2532  -13.4526   19.2734 C   0  0  0  0  0  0  0  0  0  0  0  0
    8.5593  -12.0120   18.9876 C   0  0  0  0  0  0  0  0  0  0  0  0
    8.9649  -11.9077   17.5909 N   0  0  0  0  0  0  0  0  0  0  0  0
    9.6148  -15.7665   21.9677 C   0  0  0  0  0  0  0  0  0  0  0  0
    9.2634  -16.0063   23.1446 O   0  0  0  0  0  0  0  0  0  0  0  0
   11.9237  -19.4967   24.7353 N   0  0  0  0  0  0  0  0  0  0  0  0
   12.8899  -18.4725   24.7971 C   0  0  0  0  0  0  0  0  0  0  0  0
   13.4641  -18.3164   25.9051 O   0  0  0  0  0  0  0  0  0  0  0  0
   13.2574  -17.6006   23.6815 C   0  0  0  0  0  0  0  0  0  0  0  0
   12.1538  -17.0874   22.8422 C   0  0  0  0  0  0  0  0  0  0  0  0
   12.0730  -15.6367   22.6061 C   0  0  2  0  0  0  0  0  0  0  0  0
   10.9503  -15.3057   21.7623 N   0  0  0  0  0  0  0  0  0  0  0  0
   13.3120  -15.0205   22.0926 C   0  0  0  0  0  0  0  0  0  0  0  0
   14.3175  -14.9949   22.8359 O   0  0  0  0  0  0  0  0  0  0  0  0
   13.4300  -14.4667   20.8335 O   0  0  0  0  0  0  0  0  0  0  0  0
  1  2  1  0
  2  3  2  0
  4  2  1  0
  4  5  1  0
  5  6  1  0
  6  8  1  0
  6  7  1  6
  8  9  2  0
 10 11  1  0
 10  8  1  0
 11 12  1  1
 13 14  1  0
 13 12  1  0
 14 15  1  0
 16 15  1  0
 17 25  1  0
 17 11  1  0
 18 17  2  0
 19 20  1  0
 20 22  1  0
 21 20  2  0
 22 23  1  0
 24 23  1  6
 24 26  1  0
 24 25  1  0
 26 28  1  0
 27 26  2  0
M  END
$$$$
