YLY.pdb
     RDKit          3D

 33 34  0  0  1  0  0  0  0  0999 V2000
   28.8657  -14.8685  -20.4913 O   0  0  0  0  0  0  0  0  0  0  0  0
   28.2692  -15.7941  -19.6267 C   0  0  0  0  0  0  0  0  0  0  0  0
   28.3878  -15.6967  -18.2521 C   0  0  0  0  0  0  0  0  0  0  0  0
   27.7874  -16.6260  -17.4263 C   0  0  0  0  0  0  0  0  0  0  0  0
   27.0541  -17.6760  -17.9314 C   0  0  0  0  0  0  0  0  0  0  0  0
   26.4392  -18.6318  -17.0116 C   0  0  0  0  0  0  0  0  0  0  0  0
   27.4438  -19.5742  -16.3739 C   0  0  2  0  0  0  0  0  0  0  0  0
   28.0325  -20.4672  -17.3334 N   0  0  0  0  0  0  0  0  0  0  0  0
   26.7020  -20.3830  -15.3780 C   0  0  0  0  0  0  0  0  0  0  0  0
   25.9707  -21.3089  -15.7962 O   0  0  0  0  0  0  0  0  0  0  0  0
   26.9262  -17.7876  -19.2973 C   0  0  0  0  0  0  0  0  0  0  0  0
   27.5292  -16.8554  -20.1075 C   0  0  0  0  0  0  0  0  0  0  0  0
   25.9442  -20.2493   -9.1932 C   0  0  0  0  0  0  0  0  0  0  0  0
   25.4488  -20.8658  -10.5327 C   0  0  2  0  0  0  0  0  0  0  0  0
   25.4846  -22.3613  -10.3142 C   0  0  0  0  0  0  0  0  0  0  0  0
   26.3326  -20.4017  -11.6421 C   0  0  0  0  0  0  0  0  0  0  0  0
   25.9106  -20.8167  -13.0093 C   0  0  2  0  0  0  0  0  0  0  0  0
   26.8048  -20.1312  -13.9920 N   0  0  0  0  0  0  0  0  0  0  0  0
   24.5334  -20.4434  -13.3684 C   0  0  0  0  0  0  0  0  0  0  0  0
   24.2096  -19.1888  -13.3582 O   0  0  0  0  0  0  0  0  0  0  0  0
   16.1717  -21.2252  -16.2745 O   0  0  0  0  0  0  0  0  0  0  0  0
   17.5347  -21.3548  -15.9971 C   0  0  0  0  0  0  0  0  0  0  0  0
   18.4946  -20.5502  -16.5683 C   0  0  0  0  0  0  0  0  0  0  0  0
   19.8288  -20.6937  -16.2823 C   0  0  0  0  0  0  0  0  0  0  0  0
   20.2204  -21.6793  -15.3912 C   0  0  0  0  0  0  0  0  0  0  0  0
   21.6233  -21.9169  -15.0235 C   0  0  0  0  0  0  0  0  0  0  0  0
   22.1536  -20.9390  -13.9879 C   0  0  2  0  0  0  0  0  0  0  0  0
   23.5369  -21.3724  -13.7334 N   0  0  0  0  0  0  0  0  0  0  0  0
   21.4015  -21.0302  -12.7350 C   0  0  0  0  0  0  0  0  0  0  0  0
   21.6460  -21.9592  -11.9290 O   0  0  0  0  0  0  0  0  0  0  0  0
   19.2457  -22.4771  -14.8278 C   0  0  0  0  0  0  0  0  0  0  0  0
   17.8987  -22.3432  -15.1070 C   0  0  0  0  0  0  0  0  0  0  0  0
   20.4276  -20.1083  -12.4275 O   0  0  0  0  0  0  0  0  0  0  0  0
  2  1  1  0
  3  2  2  0
  4  3  1  0
  5  4  2  0
  5 11  1  0
  6  5  1  0
  7  8  1  6
  7  6  1  0
  9  7  1  0
 10  9  2  0
 11 12  2  0
 12  2  1  0
 14 13  1  1
 14 16  1  0
 15 14  1  0
 17 16  1  1
 17 19  1  0
 17 18  1  0
 18  9  1  0
 19 28  1  0
 20 19  2  0
 22 32  2  0
 22 21  1  0
 23 22  1  0
 24 25  1  0
 24 23  2  0
 25 31  2  0
 26 25  1  0
 27 26  1  6
 27 29  1  0
 28 27  1  0
 29 30  2  0
 29 33  1  0
 31 32  1  0
M  END
$$$$
