YLY.pdb
     RDKit          3D

 33 34  0  0  1  0  0  0  0  0999 V2000
   20.2932  -12.7429  -26.1530 O   0  0  0  0  0  0  0  0  0  0  0  0
   20.4070  -12.2692  -24.8405 C   0  0  0  0  0  0  0  0  0  0  0  0
   21.6351  -12.0629  -24.2385 C   0  0  0  0  0  0  0  0  0  0  0  0
   21.7136  -11.5947  -22.9422 C   0  0  0  0  0  0  0  0  0  0  0  0
   20.5854  -11.3170  -22.2035 C   0  0  0  0  0  0  0  0  0  0  0  0
   20.7257  -10.8232  -20.8346 C   0  0  0  0  0  0  0  0  0  0  0  0
   20.9843  -11.9286  -19.8271 C   0  0  2  0  0  0  0  0  0  0  0  0
   19.8256  -12.7525  -19.6189 N   0  0  0  0  0  0  0  0  0  0  0  0
   21.3244  -11.2696  -18.5440 C   0  0  0  0  0  0  0  0  0  0  0  0
   20.4041  -10.7123  -17.9044 O   0  0  0  0  0  0  0  0  0  0  0  0
   19.3553  -11.5169  -22.7877 C   0  0  0  0  0  0  0  0  0  0  0  0
   19.2919  -11.9834  -24.0790 C   0  0  0  0  0  0  0  0  0  0  0  0
   26.4089  -10.6862  -14.9861 C   0  0  0  0  0  0  0  0  0  0  0  0
   24.9424  -10.2205  -15.2147 C   0  0  2  0  0  0  0  0  0  0  0  0
   24.2244  -10.5339  -13.9217 C   0  0  0  0  0  0  0  0  0  0  0  0
   24.3809  -10.9339  -16.3992 C   0  0  0  0  0  0  0  0  0  0  0  0
   22.9831  -10.5666  -16.7609 C   0  0  2  0  0  0  0  0  0  0  0  0
   22.6442  -11.2605  -18.0411 N   0  0  0  0  0  0  0  0  0  0  0  0
   22.7650   -9.1304  -16.9952 C   0  0  0  0  0  0  0  0  0  0  0  0
   23.3965   -8.5599  -17.9724 O   0  0  0  0  0  0  0  0  0  0  0  0
   18.9231   -1.6911  -19.0171 O   0  0  0  0  0  0  0  0  0  0  0  0
   19.4279   -2.9550  -18.7018 C   0  0  0  0  0  0  0  0  0  0  0  0
   20.7437   -3.3066  -18.9013 C   0  0  0  0  0  0  0  0  0  0  0  0
   21.2198   -4.5537  -18.5846 C   0  0  0  0  0  0  0  0  0  0  0  0
   20.3482   -5.4869  -18.0476 C   0  0  0  0  0  0  0  0  0  0  0  0
   20.7582   -6.8495  -17.6805 C   0  0  0  0  0  0  0  0  0  0  0  0
   21.7289   -6.8975  -16.5120 C   0  0  2  0  0  0  0  0  0  0  0  0
   21.8988   -8.3303  -16.2214 N   0  0  0  0  0  0  0  0  0  0  0  0
   21.1675   -6.2476  -15.3261 C   0  0  0  0  0  0  0  0  0  0  0  0
   21.0317   -5.0012  -15.3055 O   0  0  0  0  0  0  0  0  0  0  0  0
   19.0326   -5.1182  -17.8542 C   0  0  0  0  0  0  0  0  0  0  0  0
   18.5401   -3.8657  -18.1686 C   0  0  0  0  0  0  0  0  0  0  0  0
   20.7849   -6.9867  -14.2306 O   0  0  0  0  0  0  0  0  0  0  0  0
  2  1  1  0
  3  2  2  0
  4  3  1  0
  5  4  2  0
  5 11  1  0
  6  5  1  0
  7  8  1  1
  7  6  1  0
  9  7  1  0
 10  9  2  0
 11 12  2  0
 12  2  1  0
 14 13  1  1
 14 16  1  0
 15 14  1  0
 17 16  1  6
 17 19  1  0
 17 18  1  0
 18  9  1  0
 19 28  1  0
 20 19  2  0
 22 32  2  0
 22 21  1  0
 23 22  1  0
 24 25  1  0
 24 23  2  0
 25 31  2  0
 26 25  1  0
 27 26  1  6
 27 29  1  0
 28 27  1  0
 29 30  2  0
 29 33  1  0
 31 32  1  0
M  END
$$$$
