YLY.pdb
     RDKit          3D

 33 34  0  0  1  0  0  0  0  0999 V2000
   26.8254  -14.4194  -20.7183 O   0  0  0  0  0  0  0  0  0  0  0  0
   26.2471  -15.4338  -19.9459 C   0  0  0  0  0  0  0  0  0  0  0  0
   25.4509  -15.1578  -18.8491 C   0  0  0  0  0  0  0  0  0  0  0  0
   24.8951  -16.1811  -18.1076 C   0  0  0  0  0  0  0  0  0  0  0  0
   25.1080  -17.5035  -18.4257 C   0  0  0  0  0  0  0  0  0  0  0  0
   24.4951  -18.5479  -17.6064 C   0  0  0  0  0  0  0  0  0  0  0  0
   25.4504  -19.1414  -16.5870 C   0  0  2  0  0  0  0  0  0  0  0  0
   26.5166  -19.8768  -17.2089 N   0  0  0  0  0  0  0  0  0  0  0  0
   24.6613  -20.0791  -15.7538 C   0  0  0  0  0  0  0  0  0  0  0  0
   24.2376  -21.1294  -16.2870 O   0  0  0  0  0  0  0  0  0  0  0  0
   25.8980  -17.7956  -19.5143 C   0  0  0  0  0  0  0  0  0  0  0  0
   26.4450  -16.7670  -20.2436 C   0  0  0  0  0  0  0  0  0  0  0  0
   25.7718  -22.4468  -12.1401 C   0  0  0  0  0  0  0  0  0  0  0  0
   25.5330  -20.9322  -11.8780 C   0  0  2  0  0  0  0  0  0  0  0  0
   25.9553  -20.7102  -10.4435 C   0  0  0  0  0  0  0  0  0  0  0  0
   24.0988  -20.6104  -12.1363 C   0  0  0  0  0  0  0  0  0  0  0  0
   23.6475  -20.7961  -13.5439 C   0  0  2  0  0  0  0  0  0  0  0  0
   24.3850  -19.8124  -14.3946 N   0  0  0  0  0  0  0  0  0  0  0  0
   22.2144  -20.5491  -13.7687 C   0  0  0  0  0  0  0  0  0  0  0  0
   21.7436  -19.3678  -13.5196 O   0  0  0  0  0  0  0  0  0  0  0  0
   13.9390  -21.7914  -16.7327 O   0  0  0  0  0  0  0  0  0  0  0  0
   15.3146  -21.8079  -16.4898 C   0  0  0  0  0  0  0  0  0  0  0  0
   16.1775  -20.8691  -17.0082 C   0  0  0  0  0  0  0  0  0  0  0  0
   17.5260  -20.9031  -16.7575 C   0  0  0  0  0  0  0  0  0  0  0  0
   18.0332  -21.9140  -15.9578 C   0  0  0  0  0  0  0  0  0  0  0  0
   19.4612  -22.0411  -15.6345 C   0  0  0  0  0  0  0  0  0  0  0  0
   19.8884  -21.2112  -14.4350 C   0  0  2  0  0  0  0  0  0  0  0  0
   21.3148  -21.5231  -14.2494 N   0  0  0  0  0  0  0  0  0  0  0  0
   19.1655  -21.6109  -13.2261 C   0  0  0  0  0  0  0  0  0  0  0  0
   19.5755  -22.5836  -12.5493 O   0  0  0  0  0  0  0  0  0  0  0  0
   17.1546  -22.8470  -15.4463 C   0  0  0  0  0  0  0  0  0  0  0  0
   15.7945  -22.8244  -15.6909 C   0  0  0  0  0  0  0  0  0  0  0  0
   18.0397  -20.9323  -12.8200 O   0  0  0  0  0  0  0  0  0  0  0  0
  2  1  1  0
  3  2  2  0
  4  3  1  0
  5  4  2  0
  5 11  1  0
  6  5  1  0
  7  8  1  6
  7  6  1  0
  9  7  1  0
 10  9  2  0
 11 12  2  0
 12  2  1  0
 14 13  1  1
 14 16  1  0
 15 14  1  0
 17 16  1  1
 17 19  1  0
 17 18  1  0
 18  9  1  0
 19 28  1  0
 20 19  2  0
 22 32  2  0
 22 21  1  0
 23 22  1  0
 24 25  1  0
 24 23  2  0
 25 31  2  0
 26 25  1  0
 27 26  1  6
 27 29  1  0
 28 27  1  0
 29 30  2  0
 29 33  1  0
 31 32  1  0
M  END
$$$$
