YLY.pdb
     RDKit          3D

 33 34  0  0  1  0  0  0  0  0999 V2000
   20.1399  -27.6822  -10.7932 O   0  0  0  0  0  0  0  0  0  0  0  0
   20.1342  -26.6058  -11.6882 C   0  0  0  0  0  0  0  0  0  0  0  0
   19.3115  -25.5081  -11.5109 C   0  0  0  0  0  0  0  0  0  0  0  0
   19.3295  -24.4622  -12.4119 C   0  0  0  0  0  0  0  0  0  0  0  0
   20.1578  -24.4687  -13.5116 C   0  0  0  0  0  0  0  0  0  0  0  0
   20.1368  -23.3348  -14.4343 C   0  0  0  0  0  0  0  0  0  0  0  0
   21.3302  -22.4115  -14.2692 C   0  0  2  0  0  0  0  0  0  0  0  0
   21.4334  -21.8947  -12.9325 N   0  0  0  0  0  0  0  0  0  0  0  0
   21.1236  -21.2726  -15.1948 C   0  0  0  0  0  0  0  0  0  0  0  0
   20.8172  -20.1621  -14.7051 O   0  0  0  0  0  0  0  0  0  0  0  0
   20.9829  -25.5536  -13.7028 C   0  0  0  0  0  0  0  0  0  0  0  0
   20.9546  -26.5878  -12.7980 C   0  0  0  0  0  0  0  0  0  0  0  0
   24.3230  -21.7769  -18.2303 C   0  0  0  0  0  0  0  0  0  0  0  0
   22.9046  -21.5156  -18.8131 C   0  0  2  0  0  0  0  0  0  0  0  0
   23.0775  -21.5834  -20.3134 C   0  0  0  0  0  0  0  0  0  0  0  0
   22.4109  -20.1939  -18.3267 C   0  0  0  0  0  0  0  0  0  0  0  0
   21.1663  -20.2399  -17.5092 C   0  0  2  0  0  0  0  0  0  0  0  0
   21.2640  -21.4171  -16.5927 N   0  0  0  0  0  0  0  0  0  0  0  0
   19.9274  -20.4165  -18.2833 C   0  0  0  0  0  0  0  0  0  0  0  0
   19.6044  -19.5087  -19.1497 O   0  0  0  0  0  0  0  0  0  0  0  0
   12.4737  -24.1358  -21.3660 O   0  0  0  0  0  0  0  0  0  0  0  0
   13.7428  -23.8586  -20.8519 C   0  0  0  0  0  0  0  0  0  0  0  0
   14.8284  -23.5767  -21.6498 C   0  0  0  0  0  0  0  0  0  0  0  0
   16.0670  -23.3069  -21.1247 C   0  0  0  0  0  0  0  0  0  0  0  0
   16.2283  -23.3190  -19.7490 C   0  0  0  0  0  0  0  0  0  0  0  0
   17.5135  -23.0487  -19.0896 C   0  0  0  0  0  0  0  0  0  0  0  0
   17.7729  -21.5708  -18.8476 C   0  0  2  0  0  0  0  0  0  0  0  0
   19.0658  -21.5247  -18.1460 N   0  0  0  0  0  0  0  0  0  0  0  0
   16.7517  -20.9865  -17.9760 C   0  0  0  0  0  0  0  0  0  0  0  0
   16.9688  -20.8842  -16.7453 O   0  0  0  0  0  0  0  0  0  0  0  0
   15.1299  -23.6035  -18.9638 C   0  0  0  0  0  0  0  0  0  0  0  0
   13.8771  -23.8769  -19.4795 C   0  0  0  0  0  0  0  0  0  0  0  0
   15.5535  -20.5460  -18.4892 O   0  0  0  0  0  0  0  0  0  0  0  0
  2  1  1  0
  3  2  2  0
  4  3  1  0
  5  4  2  0
  5 11  1  0
  6  5  1  0
  7  8  1  1
  7  6  1  0
  9  7  1  0
 10  9  2  0
 11 12  2  0
 12  2  1  0
 14 13  1  1
 14 16  1  0
 15 14  1  0
 17 16  1  6
 17 19  1  0
 17 18  1  0
 18  9  1  0
 19 28  1  0
 20 19  2  0
 22 32  2  0
 22 21  1  0
 23 22  1  0
 24 25  1  0
 24 23  2  0
 25 31  2  0
 26 25  1  0
 27 26  1  1
 27 29  1  0
 28 27  1  0
 29 30  2  0
 29 33  1  0
 31 32  1  0
M  END
$$$$
