YLY.pdb
     RDKit          3D

 33 34  0  0  1  0  0  0  0  0999 V2000
   17.5692  -13.9270  -15.8513 O   0  0  0  0  0  0  0  0  0  0  0  0
   18.8061  -14.5773  -15.9353 C   0  0  0  0  0  0  0  0  0  0  0  0
   19.9989  -13.8802  -16.0018 C   0  0  0  0  0  0  0  0  0  0  0  0
   21.2026  -14.5512  -16.0839 C   0  0  0  0  0  0  0  0  0  0  0  0
   21.2646  -15.9264  -16.1029 C   0  0  0  0  0  0  0  0  0  0  0  0
   22.5662  -16.5864  -16.1910 C   0  0  0  0  0  0  0  0  0  0  0  0
   23.1533  -16.5593  -17.5905 C   0  0  2  0  0  0  0  0  0  0  0  0
   22.3019  -17.2113  -18.5468 N   0  0  0  0  0  0  0  0  0  0  0  0
   24.4381  -17.2956  -17.5317 C   0  0  0  0  0  0  0  0  0  0  0  0
   24.4229  -18.5279  -17.7510 O   0  0  0  0  0  0  0  0  0  0  0  0
   20.0867  -16.6354  -16.0375 C   0  0  0  0  0  0  0  0  0  0  0  0
   18.8956  -15.9545  -15.9560 C   0  0  0  0  0  0  0  0  0  0  0  0
   28.2633  -17.0722  -19.9399 C   0  0  0  0  0  0  0  0  0  0  0  0
   28.0316  -15.8902  -18.9555 C   0  0  2  0  0  0  0  0  0  0  0  0
   29.1501  -14.9146  -19.2427 C   0  0  0  0  0  0  0  0  0  0  0  0
   28.0352  -16.4099  -17.5566 C   0  0  0  0  0  0  0  0  0  0  0  0
   26.9540  -17.3833  -17.2355 C   0  0  2  0  0  0  0  0  0  0  0  0
   25.6555  -16.6423  -17.2382 N   0  0  0  0  0  0  0  0  0  0  0  0
   27.0690  -18.0170  -15.9125 C   0  0  0  0  0  0  0  0  0  0  0  0
   27.1110  -17.2570  -14.8638 O   0  0  0  0  0  0  0  0  0  0  0  0
   25.4112  -21.2363   -8.3495 O   0  0  0  0  0  0  0  0  0  0  0  0
   25.4974  -20.8407   -9.6866 C   0  0  0  0  0  0  0  0  0  0  0  0
   24.8090  -21.4697  -10.6991 C   0  0  0  0  0  0  0  0  0  0  0  0
   24.9074  -21.0654  -12.0065 C   0  0  0  0  0  0  0  0  0  0  0  0
   25.7252  -19.9909  -12.3155 C   0  0  0  0  0  0  0  0  0  0  0  0
   25.9024  -19.4850  -13.6838 C   0  0  0  0  0  0  0  0  0  0  0  0
   27.1729  -19.9806  -14.3548 C   0  0  2  0  0  0  0  0  0  0  0  0
   27.1295  -19.4117  -15.7115 N   0  0  0  0  0  0  0  0  0  0  0  0
   27.1825  -21.4406  -14.4646 C   0  0  0  0  0  0  0  0  0  0  0  0
   26.5984  -21.9959  -15.4252 O   0  0  0  0  0  0  0  0  0  0  0  0
   26.4082  -19.3718  -11.2887 C   0  0  0  0  0  0  0  0  0  0  0  0
   26.3181  -19.7687   -9.9679 C   0  0  0  0  0  0  0  0  0  0  0  0
   27.8256  -22.2148  -13.5266 O   0  0  0  0  0  0  0  0  0  0  0  0
  2  1  1  0
  3  2  2  0
  4  3  1  0
  5  4  2  0
  5 11  1  0
  6  5  1  0
  7  8  1  6
  7  6  1  0
  9  7  1  0
 10  9  2  0
 11 12  2  0
 12  2  1  0
 14 13  1  6
 14 16  1  0
 15 14  1  0
 17 16  1  1
 17 19  1  0
 17 18  1  0
 18  9  1  0
 19 28  1  0
 20 19  2  0
 22 32  2  0
 22 21  1  0
 23 22  1  0
 24 25  1  0
 24 23  2  0
 25 31  2  0
 26 25  1  0
 27 26  1  1
 27 29  1  0
 28 27  1  0
 29 30  2  0
 29 33  1  0
 31 32  1  0
M  END
$$$$
