YLY.pdb
     RDKit          3D

 33 34  0  0  1  0  0  0  0  0999 V2000
   22.5409  -18.1354  -18.7962 O   0  0  0  0  0  0  0  0  0  0  0  0
   22.7422  -18.6865  -17.5251 C   0  0  0  0  0  0  0  0  0  0  0  0
   22.9515  -20.0407  -17.3369 C   0  0  0  0  0  0  0  0  0  0  0  0
   23.1469  -20.5533  -16.0700 C   0  0  0  0  0  0  0  0  0  0  0  0
   23.1416  -19.7467  -14.9543 C   0  0  0  0  0  0  0  0  0  0  0  0
   23.3536  -20.3418  -13.6358 C   0  0  0  0  0  0  0  0  0  0  0  0
   24.7996  -20.2752  -13.1789 C   0  0  2  0  0  0  0  0  0  0  0  0
   25.6608  -21.0920  -13.9886 N   0  0  0  0  0  0  0  0  0  0  0  0
   24.8357  -20.7929  -11.7907 C   0  0  0  0  0  0  0  0  0  0  0  0
   24.5749  -22.0030  -11.6050 O   0  0  0  0  0  0  0  0  0  0  0  0
   22.9346  -18.3966  -15.1240 C   0  0  0  0  0  0  0  0  0  0  0  0
   22.7415  -17.8999  -16.3909 C   0  0  0  0  0  0  0  0  0  0  0  0
   26.8351  -18.8013   -6.2570 C   0  0  0  0  0  0  0  0  0  0  0  0
   26.1774  -19.9684   -7.0475 C   0  0  2  0  0  0  0  0  0  0  0  0
   27.1380  -21.1275   -6.9089 C   0  0  0  0  0  0  0  0  0  0  0  0
   25.9560  -19.5401   -8.4598 C   0  0  0  0  0  0  0  0  0  0  0  0
   25.1653  -20.4860   -9.2963 C   0  0  2  0  0  0  0  0  0  0  0  0
   25.1535  -19.9596  -10.6955 N   0  0  0  0  0  0  0  0  0  0  0  0
   23.7574  -20.6338   -8.8950 C   0  0  0  0  0  0  0  0  0  0  0  0
   22.9253  -19.6875   -9.1969 O   0  0  0  0  0  0  0  0  0  0  0  0
   15.6614  -23.3897   -7.6913 O   0  0  0  0  0  0  0  0  0  0  0  0
   17.0250  -23.2379   -7.9542 C   0  0  0  0  0  0  0  0  0  0  0  0
   17.9619  -24.1899   -7.6218 C   0  0  0  0  0  0  0  0  0  0  0  0
   19.2971  -24.0215   -7.8889 C   0  0  0  0  0  0  0  0  0  0  0  0
   19.7136  -22.8567   -8.5123 C   0  0  0  0  0  0  0  0  0  0  0  0
   21.1198  -22.5789   -8.8364 C   0  0  0  0  0  0  0  0  0  0  0  0
   21.8489  -21.7971   -7.7560 C   0  0  2  0  0  0  0  0  0  0  0  0
   23.2505  -21.7533   -8.2030 N   0  0  0  0  0  0  0  0  0  0  0  0
   21.7948  -22.4911   -6.4679 C   0  0  0  0  0  0  0  0  0  0  0  0
   22.6524  -23.3643   -6.1954 O   0  0  0  0  0  0  0  0  0  0  0  0
   18.7616  -21.9126   -8.8386 C   0  0  0  0  0  0  0  0  0  0  0  0
   17.4139  -22.0696   -8.5754 C   0  0  0  0  0  0  0  0  0  0  0  0
   20.8139  -22.1979   -5.5488 O   0  0  0  0  0  0  0  0  0  0  0  0
  2  1  1  0
  3  2  2  0
  4  3  1  0
  5  4  2  0
  5 11  1  0
  6  5  1  0
  7  8  1  6
  7  6  1  0
  9  7  1  0
 10  9  2  0
 11 12  2  0
 12  2  1  0
 14 13  1  1
 14 16  1  0
 15 14  1  0
 17 16  1  1
 17 19  1  0
 17 18  1  0
 18  9  1  0
 19 28  1  0
 20 19  2  0
 22 32  2  0
 22 21  1  0
 23 22  1  0
 24 25  1  0
 24 23  2  0
 25 31  2  0
 26 25  1  0
 27 26  1  6
 27 29  1  0
 28 27  1  0
 29 30  2  0
 29 33  1  0
 31 32  1  0
M  END
$$$$
