YLY.pdb
     RDKit          3D

 33 34  0  0  1  0  0  0  0  0999 V2000
   21.0102  -14.7738  -24.2376 O   0  0  0  0  0  0  0  0  0  0  0  0
   21.3323  -15.5953  -23.1507 C   0  0  0  0  0  0  0  0  0  0  0  0
   21.8760  -15.0893  -21.9839 C   0  0  0  0  0  0  0  0  0  0  0  0
   22.1827  -15.9261  -20.9297 C   0  0  0  0  0  0  0  0  0  0  0  0
   21.9625  -17.2835  -20.9955 C   0  0  0  0  0  0  0  0  0  0  0  0
   22.3057  -18.1241  -19.8495 C   0  0  0  0  0  0  0  0  0  0  0  0
   23.7501  -18.5903  -19.8653 C   0  0  2  0  0  0  0  0  0  0  0  0
   24.0157  -19.4919  -20.9521 N   0  0  0  0  0  0  0  0  0  0  0  0
   23.9822  -19.3131  -18.5925 C   0  0  0  0  0  0  0  0  0  0  0  0
   23.6010  -20.5026  -18.5111 O   0  0  0  0  0  0  0  0  0  0  0  0
   21.4219  -17.8034  -22.1496 C   0  0  0  0  0  0  0  0  0  0  0  0
   21.1214  -16.9588  -23.1913 C   0  0  0  0  0  0  0  0  0  0  0  0
   27.3807  -20.8456  -16.5441 C   0  0  0  0  0  0  0  0  0  0  0  0
   27.3157  -19.3018  -16.3642 C   0  0  2  0  0  0  0  0  0  0  0  0
   28.5988  -18.9345  -15.6542 C   0  0  0  0  0  0  0  0  0  0  0  0
   26.0851  -18.9494  -15.5970 C   0  0  0  0  0  0  0  0  0  0  0  0
   24.8042  -19.4171  -16.1969 C   0  0  2  0  0  0  0  0  0  0  0  0
   24.6142  -18.6939  -17.4916 N   0  0  0  0  0  0  0  0  0  0  0  0
   23.6076  -19.1412  -15.3862 C   0  0  0  0  0  0  0  0  0  0  0  0
   23.4309  -17.9403  -14.9326 O   0  0  0  0  0  0  0  0  0  0  0  0
   17.8519  -21.3711  -19.1891 O   0  0  0  0  0  0  0  0  0  0  0  0
   18.5774  -20.7191  -18.1891 C   0  0  0  0  0  0  0  0  0  0  0  0
   19.7095  -19.9796  -18.4469 C   0  0  0  0  0  0  0  0  0  0  0  0
   20.4079  -19.3465  -17.4500 C   0  0  0  0  0  0  0  0  0  0  0  0
   19.9587  -19.4559  -16.1442 C   0  0  0  0  0  0  0  0  0  0  0  0
   20.6382  -18.8208  -15.0063 C   0  0  0  0  0  0  0  0  0  0  0  0
   21.4938  -19.7814  -14.1968 C   0  0  2  0  0  0  0  0  0  0  0  0
   22.6286  -20.1077  -15.0754 N   0  0  0  0  0  0  0  0  0  0  0  0
   20.7688  -21.0178  -13.8978 C   0  0  0  0  0  0  0  0  0  0  0  0
   19.7765  -20.9873  -13.1319 O   0  0  0  0  0  0  0  0  0  0  0  0
   18.8226  -20.2009  -15.9031 C   0  0  0  0  0  0  0  0  0  0  0  0
   18.1097  -20.8434  -16.8977 C   0  0  0  0  0  0  0  0  0  0  0  0
   21.1613  -22.2167  -14.4470 O   0  0  0  0  0  0  0  0  0  0  0  0
  2  1  1  0
  3  2  2  0
  4  3  1  0
  5  4  2  0
  5 11  1  0
  6  5  1  0
  7  8  1  6
  7  6  1  0
  9  7  1  0
 10  9  2  0
 11 12  2  0
 12  2  1  0
 14 13  1  1
 14 16  1  0
 15 14  1  0
 17 16  1  1
 17 19  1  0
 17 18  1  0
 18  9  1  0
 19 28  1  0
 20 19  2  0
 22 32  2  0
 22 21  1  0
 23 22  1  0
 24 25  1  0
 24 23  2  0
 25 31  2  0
 26 25  1  0
 27 26  1  6
 27 29  1  0
 28 27  1  0
 29 30  2  0
 29 33  1  0
 31 32  1  0
M  END
$$$$
