YLY.pdb
     RDKit          3D

 33 34  0  0  1  0  0  0  0  0999 V2000
   28.5185  -14.6798  -19.9817 O   0  0  0  0  0  0  0  0  0  0  0  0
   27.7713  -15.5662  -19.1970 C   0  0  0  0  0  0  0  0  0  0  0  0
   27.8648  -15.5827  -17.8171 C   0  0  0  0  0  0  0  0  0  0  0  0
   27.1142  -16.4695  -17.0714 C   0  0  0  0  0  0  0  0  0  0  0  0
   26.2515  -17.3639  -17.6639 C   0  0  0  0  0  0  0  0  0  0  0  0
   25.4801  -18.2814  -16.8266 C   0  0  0  0  0  0  0  0  0  0  0  0
   26.1810  -19.6078  -16.5958 C   0  0  2  0  0  0  0  0  0  0  0  0
   26.1957  -20.4247  -17.7777 N   0  0  0  0  0  0  0  0  0  0  0  0
   25.4162  -20.3208  -15.5456 C   0  0  0  0  0  0  0  0  0  0  0  0
   24.6087  -21.2080  -15.9029 O   0  0  0  0  0  0  0  0  0  0  0  0
   26.1465  -17.3607  -19.0363 C   0  0  0  0  0  0  0  0  0  0  0  0
   26.8996  -16.4724  -19.7662 C   0  0  0  0  0  0  0  0  0  0  0  0
   23.4579  -20.7762  -10.4189 C   0  0  0  0  0  0  0  0  0  0  0  0
   24.9063  -21.2862  -10.6670 C   0  0  2  0  0  0  0  0  0  0  0  0
   25.6345  -21.0515   -9.3631 C   0  0  0  0  0  0  0  0  0  0  0  0
   25.4947  -20.5473  -11.8225 C   0  0  0  0  0  0  0  0  0  0  0  0
   24.7947  -20.7375  -13.1238 C   0  0  2  0  0  0  0  0  0  0  0  0
   25.5804  -20.0215  -14.1751 N   0  0  0  0  0  0  0  0  0  0  0  0
   23.4311  -20.1867  -13.1756 C   0  0  0  0  0  0  0  0  0  0  0  0
   23.2671  -18.9193  -12.9619 O   0  0  0  0  0  0  0  0  0  0  0  0
   19.5860  -24.7175  -17.8941 O   0  0  0  0  0  0  0  0  0  0  0  0
   19.8976  -23.5581  -17.1797 C   0  0  0  0  0  0  0  0  0  0  0  0
   21.1003  -22.9008  -17.3072 C   0  0  0  0  0  0  0  0  0  0  0  0
   21.3869  -21.7630  -16.5962 C   0  0  0  0  0  0  0  0  0  0  0  0
   20.4353  -21.2613  -15.7234 C   0  0  0  0  0  0  0  0  0  0  0  0
   20.6472  -20.0535  -14.9135 C   0  0  0  0  0  0  0  0  0  0  0  0
   20.9430  -20.3466  -13.4518 C   0  0  2  0  0  0  0  0  0  0  0  0
   22.2824  -20.9566  -13.4529 N   0  0  0  0  0  0  0  0  0  0  0  0
   19.9933  -21.3148  -12.9000 C   0  0  0  0  0  0  0  0  0  0  0  0
   20.3781  -22.4762  -12.6252 O   0  0  0  0  0  0  0  0  0  0  0  0
   19.2352  -21.9323  -15.6074 C   0  0  0  0  0  0  0  0  0  0  0  0
   18.9338  -23.0790  -16.3175 C   0  0  0  0  0  0  0  0  0  0  0  0
   18.6807  -20.9680  -12.6772 O   0  0  0  0  0  0  0  0  0  0  0  0
  2  1  1  0
  3  2  2  0
  4  3  1  0
  5  4  2  0
  5 11  1  0
  6  5  1  0
  7  8  1  6
  7  6  1  0
  9  7  1  0
 10  9  2  0
 11 12  2  0
 12  2  1  0
 14 13  1  1
 14 16  1  0
 15 14  1  0
 17 16  1  1
 17 19  1  0
 17 18  1  0
 18  9  1  0
 19 28  1  0
 20 19  2  0
 22 32  2  0
 22 21  1  0
 23 22  1  0
 24 25  1  0
 24 23  2  0
 25 31  2  0
 26 25  1  0
 27 26  1  6
 27 29  1  0
 28 27  1  0
 29 30  2  0
 29 33  1  0
 31 32  1  0
M  END
$$$$
