YLY.pdb
     RDKit          3D

 33 34  0  0  1  0  0  0  0  0999 V2000
   28.3625  -15.2879  -18.0860 O   0  0  0  0  0  0  0  0  0  0  0  0
   27.7662  -16.1767  -17.1836 C   0  0  0  0  0  0  0  0  0  0  0  0
   27.7442  -15.9355  -15.8218 C   0  0  0  0  0  0  0  0  0  0  0  0
   27.1481  -16.8321  -14.9578 C   0  0  0  0  0  0  0  0  0  0  0  0
   26.5575  -17.9902  -15.4109 C   0  0  0  0  0  0  0  0  0  0  0  0
   25.9402  -18.9054  -14.4523 C   0  0  0  0  0  0  0  0  0  0  0  0
   26.9383  -19.8428  -13.7974 C   0  0  2  0  0  0  0  0  0  0  0  0
   27.5285  -20.7503  -14.7422 N   0  0  0  0  0  0  0  0  0  0  0  0
   26.1889  -20.6360  -12.7946 C   0  0  0  0  0  0  0  0  0  0  0  0
   25.6636  -21.7103  -13.1645 O   0  0  0  0  0  0  0  0  0  0  0  0
   26.5706  -18.2455  -16.7634 C   0  0  0  0  0  0  0  0  0  0  0  0
   27.1676  -17.3443  -17.6121 C   0  0  0  0  0  0  0  0  0  0  0  0
   28.0002  -21.7685   -9.4843 C   0  0  0  0  0  0  0  0  0  0  0  0
   27.2322  -20.4780   -9.0787 C   0  0  2  0  0  0  0  0  0  0  0  0
   27.7446  -20.1330   -7.6989 C   0  0  0  0  0  0  0  0  0  0  0  0
   25.7649  -20.7470   -9.1223 C   0  0  0  0  0  0  0  0  0  0  0  0
   25.1931  -20.9433  -10.4840 C   0  0  2  0  0  0  0  0  0  0  0  0
   26.0602  -20.2079  -11.4548 N   0  0  0  0  0  0  0  0  0  0  0  0
   23.8304  -20.4172  -10.6613 C   0  0  0  0  0  0  0  0  0  0  0  0
   23.6868  -19.1938  -11.0632 O   0  0  0  0  0  0  0  0  0  0  0  0
   17.6615  -21.7518  -16.3769 O   0  0  0  0  0  0  0  0  0  0  0  0
   18.6708  -21.7757  -15.4114 C   0  0  0  0  0  0  0  0  0  0  0  0
   18.6562  -22.6329  -14.3344 C   0  0  0  0  0  0  0  0  0  0  0  0
   19.6578  -22.6406  -13.3968 C   0  0  0  0  0  0  0  0  0  0  0  0
   20.7158  -21.7579  -13.5397 C   0  0  0  0  0  0  0  0  0  0  0  0
   21.8333  -21.6844  -12.5881 C   0  0  0  0  0  0  0  0  0  0  0  0
   21.4710  -21.0058  -11.2773 C   0  0  2  0  0  0  0  0  0  0  0  0
   22.6607  -21.1694  -10.4264 N   0  0  0  0  0  0  0  0  0  0  0  0
   20.3410  -21.6722  -10.6270 C   0  0  0  0  0  0  0  0  0  0  0  0
   19.1924  -21.1771  -10.7153 O   0  0  0  0  0  0  0  0  0  0  0  0
   20.7149  -20.9055  -14.6248 C   0  0  0  0  0  0  0  0  0  0  0  0
   19.7127  -20.8874  -15.5763 C   0  0  0  0  0  0  0  0  0  0  0  0
   20.5213  -22.8378   -9.9187 O   0  0  0  0  0  0  0  0  0  0  0  0
  2  1  1  0
  3  2  2  0
  4  3  1  0
  5  4  2  0
  5 11  1  0
  6  5  1  0
  7  8  1  6
  7  6  1  0
  9  7  1  0
 10  9  2  0
 11 12  2  0
 12  2  1  0
 14 13  1  1
 14 16  1  0
 15 14  1  0
 17 16  1  1
 17 19  1  0
 17 18  1  0
 18  9  1  0
 19 28  1  0
 20 19  2  0
 22 32  2  0
 22 21  1  0
 23 22  1  0
 24 25  1  0
 24 23  2  0
 25 31  2  0
 26 25  1  0
 27 26  1  6
 27 29  1  0
 28 27  1  0
 29 30  2  0
 29 33  1  0
 31 32  1  0
M  END
$$$$
