YLY.pdb
     RDKit          3D

 33 34  0  0  1  0  0  0  0  0999 V2000
   18.3975  -15.8559  -18.8268 O   0  0  0  0  0  0  0  0  0  0  0  0
   19.3313  -16.6805  -18.1881 C   0  0  0  0  0  0  0  0  0  0  0  0
   19.2214  -18.0593  -18.1984 C   0  0  0  0  0  0  0  0  0  0  0  0
   20.1593  -18.8449  -17.5588 C   0  0  0  0  0  0  0  0  0  0  0  0
   21.2306  -18.2945  -16.8919 C   0  0  0  0  0  0  0  0  0  0  0  0
   22.1947  -19.1730  -16.2313 C   0  0  0  0  0  0  0  0  0  0  0  0
   23.4694  -19.3663  -17.0323 C   0  0  2  0  0  0  0  0  0  0  0  0
   23.2432  -20.1183  -18.2356 N   0  0  0  0  0  0  0  0  0  0  0  0
   24.4047  -20.1306  -16.1737 C   0  0  0  0  0  0  0  0  0  0  0  0
   24.0564  -21.2697  -15.7893 O   0  0  0  0  0  0  0  0  0  0  0  0
   21.3548  -16.9239  -16.8719 C   0  0  0  0  0  0  0  0  0  0  0  0
   20.4139  -16.1539  -17.5128 C   0  0  0  0  0  0  0  0  0  0  0  0
   28.2609  -22.4604  -16.4015 C   0  0  0  0  0  0  0  0  0  0  0  0
   28.2735  -20.9310  -16.6857 C   0  0  2  0  0  0  0  0  0  0  0  0
   29.6523  -20.6448  -17.2356 C   0  0  0  0  0  0  0  0  0  0  0  0
   27.9680  -20.1957  -15.4236 C   0  0  0  0  0  0  0  0  0  0  0  0
   26.5839  -20.3729  -14.9017 C   0  0  2  0  0  0  0  0  0  0  0  0
   25.6582  -19.6048  -15.7897 N   0  0  0  0  0  0  0  0  0  0  0  0
   26.3702  -19.8641  -13.5377 C   0  0  0  0  0  0  0  0  0  0  0  0
   26.3492  -18.5819  -13.3517 O   0  0  0  0  0  0  0  0  0  0  0  0
   20.0603  -22.3635  -11.9372 O   0  0  0  0  0  0  0  0  0  0  0  0
   21.2275  -21.6086  -11.7991 C   0  0  0  0  0  0  0  0  0  0  0  0
   22.0951  -21.3743  -12.8418 C   0  0  0  0  0  0  0  0  0  0  0  0
   23.2368  -20.6297  -12.6854 C   0  0  0  0  0  0  0  0  0  0  0  0
   23.5240  -20.0979  -11.4389 C   0  0  0  0  0  0  0  0  0  0  0  0
   24.7225  -19.2920  -11.1673 C   0  0  0  0  0  0  0  0  0  0  0  0
   25.9974  -20.1137  -11.0696 C   0  0  2  0  0  0  0  0  0  0  0  0
   26.1779  -20.6909  -12.4114 N   0  0  0  0  0  0  0  0  0  0  0  0
   25.8525  -21.2095  -10.1094 C   0  0  0  0  0  0  0  0  0  0  0  0
   25.9252  -22.3970  -10.5053 O   0  0  0  0  0  0  0  0  0  0  0  0
   22.6439  -20.3423  -10.4046 C   0  0  0  0  0  0  0  0  0  0  0  0
   21.4907  -21.0904  -10.5485 C   0  0  0  0  0  0  0  0  0  0  0  0
   25.6377  -20.9546   -8.7745 O   0  0  0  0  0  0  0  0  0  0  0  0
  2  1  1  0
  3  2  2  0
  4  3  1  0
  5  4  2  0
  5 11  1  0
  6  5  1  0
  7  8  1  6
  7  6  1  0
  9  7  1  0
 10  9  2  0
 11 12  2  0
 12  2  1  0
 14 13  1  1
 14 16  1  0
 15 14  1  0
 17 16  1  6
 17 19  1  0
 17 18  1  0
 18  9  1  0
 19 28  1  0
 20 19  2  0
 22 32  2  0
 22 21  1  0
 23 22  1  0
 24 25  1  0
 24 23  2  0
 25 31  2  0
 26 25  1  0
 27 26  1  6
 27 29  1  0
 28 27  1  0
 29 30  2  0
 29 33  1  0
 31 32  1  0
M  END
$$$$
