YLY.pdb
     RDKit          3D

 33 34  0  0  1  0  0  0  0  0999 V2000
   26.8715  -16.4003  -21.5381 O   0  0  0  0  0  0  0  0  0  0  0  0
   26.4262  -17.1853  -20.4679 C   0  0  0  0  0  0  0  0  0  0  0  0
   25.9444  -16.6261  -19.2980 C   0  0  0  0  0  0  0  0  0  0  0  0
   25.5126  -17.4280  -18.2605 C   0  0  0  0  0  0  0  0  0  0  0  0
   25.5432  -18.8017  -18.3465 C   0  0  0  0  0  0  0  0  0  0  0  0
   25.0736  -19.6035  -17.2178 C   0  0  0  0  0  0  0  0  0  0  0  0
   26.1889  -20.0085  -16.2711 C   0  0  2  0  0  0  0  0  0  0  0  0
   27.0952  -20.9470  -16.8731 N   0  0  0  0  0  0  0  0  0  0  0  0
   25.5473  -20.6618  -15.1058 C   0  0  0  0  0  0  0  0  0  0  0  0
   25.1074  -21.8248  -15.2493 O   0  0  0  0  0  0  0  0  0  0  0  0
   26.0197  -19.3743  -19.5039 C   0  0  0  0  0  0  0  0  0  0  0  0
   26.4464  -18.5640  -20.5289 C   0  0  0  0  0  0  0  0  0  0  0  0
   24.9784  -22.1940  -10.2500 C   0  0  0  0  0  0  0  0  0  0  0  0
   24.8357  -20.6470  -10.1721 C   0  0  2  0  0  0  0  0  0  0  0  0
   23.3695  -20.4009   -9.8978 C   0  0  0  0  0  0  0  0  0  0  0  0
   25.3144  -20.0458  -11.4514 C   0  0  0  0  0  0  0  0  0  0  0  0
   24.7768  -20.6735  -12.6910 C   0  0  2  0  0  0  0  0  0  0  0  0
   25.4265  -20.0062  -13.8606 N   0  0  0  0  0  0  0  0  0  0  0  0
   23.3253  -20.5218  -12.8784 C   0  0  0  0  0  0  0  0  0  0  0  0
   22.8441  -19.3303  -13.0455 O   0  0  0  0  0  0  0  0  0  0  0  0
   20.8905  -18.4712  -18.6990 O   0  0  0  0  0  0  0  0  0  0  0  0
   20.7620  -19.3154  -17.5934 C   0  0  0  0  0  0  0  0  0  0  0  0
   19.7702  -19.1680  -16.6503 C   0  0  0  0  0  0  0  0  0  0  0  0
   19.6613  -20.0083  -15.5712 C   0  0  0  0  0  0  0  0  0  0  0  0
   20.5785  -21.0364  -15.4277 C   0  0  0  0  0  0  0  0  0  0  0  0
   20.5509  -21.9853  -14.3059 C   0  0  0  0  0  0  0  0  0  0  0  0
   20.9667  -21.3701  -12.9798 C   0  0  2  0  0  0  0  0  0  0  0  0
   22.4177  -21.6013  -12.8952 N   0  0  0  0  0  0  0  0  0  0  0  0
   20.3230  -22.0481  -11.8530 C   0  0  0  0  0  0  0  0  0  0  0  0
   20.9243  -22.9738  -11.2583 O   0  0  0  0  0  0  0  0  0  0  0  0
   21.5663  -21.1700  -16.3819 C   0  0  0  0  0  0  0  0  0  0  0  0
   21.6874  -20.3308  -17.4734 C   0  0  0  0  0  0  0  0  0  0  0  0
   19.0640  -21.6828  -11.4351 O   0  0  0  0  0  0  0  0  0  0  0  0
  2  1  1  0
  3  2  2  0
  4  3  1  0
  5  4  2  0
  5 11  1  0
  6  5  1  0
  7  8  1  6
  7  6  1  0
  9  7  1  0
 10  9  2  0
 11 12  2  0
 12  2  1  0
 14 13  1  6
 14 16  1  0
 15 14  1  0
 17 16  1  1
 17 19  1  0
 17 18  1  0
 18  9  1  0
 19 28  1  0
 20 19  2  0
 22 32  2  0
 22 21  1  0
 23 22  1  0
 24 25  1  0
 24 23  2  0
 25 31  2  0
 26 25  1  0
 27 26  1  6
 27 29  1  0
 28 27  1  0
 29 30  2  0
 29 33  1  0
 31 32  1  0
M  END
$$$$
