YLY.pdb
     RDKit          3D

 33 34  0  0  1  0  0  0  0  0999 V2000
   26.6647  -16.6471  -25.4681 O   0  0  0  0  0  0  0  0  0  0  0  0
   26.5706  -17.2657  -24.2158 C   0  0  0  0  0  0  0  0  0  0  0  0
   25.5900  -18.1983  -23.9296 C   0  0  0  0  0  0  0  0  0  0  0  0
   25.5241  -18.7907  -22.6844 C   0  0  0  0  0  0  0  0  0  0  0  0
   26.4216  -18.4811  -21.6874 C   0  0  0  0  0  0  0  0  0  0  0  0
   26.3063  -19.1384  -20.3865 C   0  0  0  0  0  0  0  0  0  0  0  0
   25.0783  -18.7038  -19.6074 C   0  0  2  0  0  0  0  0  0  0  0  0
   25.0501  -17.2837  -19.3902 N   0  0  0  0  0  0  0  0  0  0  0  0
   25.1461  -19.3760  -18.2884 C   0  0  0  0  0  0  0  0  0  0  0  0
   25.2512  -20.6231  -18.2661 O   0  0  0  0  0  0  0  0  0  0  0  0
   27.4038  -17.5549  -21.9557 C   0  0  0  0  0  0  0  0  0  0  0  0
   27.4577  -16.9730  -23.1997 C   0  0  0  0  0  0  0  0  0  0  0  0
   28.1676  -18.4608  -16.3844 C   0  0  0  0  0  0  0  0  0  0  0  0
   27.0870  -17.5904  -15.6811 C   0  0  2  0  0  0  0  0  0  0  0  0
   27.8625  -16.6332  -14.8049 C   0  0  0  0  0  0  0  0  0  0  0  0
   26.1597  -18.4796  -14.9218 C   0  0  0  0  0  0  0  0  0  0  0  0
   25.2591  -19.3230  -15.7566 C   0  0  2  0  0  0  0  0  0  0  0  0
   25.0953  -18.6467  -17.0799 N   0  0  0  0  0  0  0  0  0  0  0  0
   23.9046  -19.5042  -15.2111 C   0  0  0  0  0  0  0  0  0  0  0  0
   23.7718  -20.1080  -14.0723 O   0  0  0  0  0  0  0  0  0  0  0  0
   15.4193  -18.3428  -13.3158 O   0  0  0  0  0  0  0  0  0  0  0  0
   16.7881  -18.3345  -13.5950 C   0  0  0  0  0  0  0  0  0  0  0  0
   17.7194  -18.9549  -12.7933 C   0  0  0  0  0  0  0  0  0  0  0  0
   19.0598  -18.9351  -13.0854 C   0  0  0  0  0  0  0  0  0  0  0  0
   19.4876  -18.2698  -14.2226 C   0  0  0  0  0  0  0  0  0  0  0  0
   20.9002  -18.1863  -14.6195 C   0  0  0  0  0  0  0  0  0  0  0  0
   21.4009  -19.4239  -15.3458 C   0  0  2  0  0  0  0  0  0  0  0  0
   22.7322  -19.0517  -15.8513 N   0  0  0  0  0  0  0  0  0  0  0  0
   20.5468  -19.7530  -16.4886 C   0  0  0  0  0  0  0  0  0  0  0  0
   19.5955  -20.5568  -16.3429 O   0  0  0  0  0  0  0  0  0  0  0  0
   18.5412  -17.6532  -15.0151 C   0  0  0  0  0  0  0  0  0  0  0  0
   17.1884  -17.6655  -14.7326 C   0  0  0  0  0  0  0  0  0  0  0  0
   20.7728  -19.1910  -17.7239 O   0  0  0  0  0  0  0  0  0  0  0  0
  2  1  1  0
  3  2  2  0
  4  3  1  0
  5  4  2  0
  5 11  1  0
  6  5  1  0
  7  8  1  1
  7  6  1  0
  9  7  1  0
 10  9  2  0
 11 12  2  0
 12  2  1  0
 14 13  1  1
 14 16  1  0
 15 14  1  0
 17 16  1  1
 17 19  1  0
 17 18  1  0
 18  9  1  0
 19 28  1  0
 20 19  2  0
 22 32  2  0
 22 21  1  0
 23 22  1  0
 24 25  1  0
 24 23  2  0
 25 31  2  0
 26 25  1  0
 27 26  1  6
 27 29  1  0
 28 27  1  0
 29 30  2  0
 29 33  1  0
 31 32  1  0
M  END
$$$$
