YLY.pdb
     RDKit          3D

 33 34  0  0  1  0  0  0  0  0999 V2000
   16.8606  -25.5128  -14.8596 O   0  0  0  0  0  0  0  0  0  0  0  0
   17.9352  -24.6361  -14.6685 C   0  0  0  0  0  0  0  0  0  0  0  0
   19.1817  -25.0796  -14.2653 C   0  0  0  0  0  0  0  0  0  0  0  0
   20.2214  -24.1893  -14.0857 C   0  0  0  0  0  0  0  0  0  0  0  0
   20.0620  -22.8384  -14.2981 C   0  0  0  0  0  0  0  0  0  0  0  0
   21.1967  -21.9394  -14.0931 C   0  0  0  0  0  0  0  0  0  0  0  0
   21.4690  -21.6500  -12.6282 C   0  0  2  0  0  0  0  0  0  0  0  0
   20.4176  -20.8788  -12.0246 N   0  0  0  0  0  0  0  0  0  0  0  0
   22.7199  -20.8572  -12.5721 C   0  0  0  0  0  0  0  0  0  0  0  0
   22.6382  -19.6154  -12.7071 O   0  0  0  0  0  0  0  0  0  0  0  0
   18.8278  -22.3803  -14.6998 C   0  0  0  0  0  0  0  0  0  0  0  0
   17.8017  -23.2778  -14.8747 C   0  0  0  0  0  0  0  0  0  0  0  0
   25.4863  -19.8479   -9.3563 C   0  0  0  0  0  0  0  0  0  0  0  0
   25.6358  -21.3272   -9.8137 C   0  0  2  0  0  0  0  0  0  0  0  0
   26.6169  -21.9419   -8.8416 C   0  0  0  0  0  0  0  0  0  0  0  0
   26.1000  -21.3569  -11.2317 C   0  0  0  0  0  0  0  0  0  0  0  0
   25.2196  -20.6524  -12.2055 C   0  0  2  0  0  0  0  0  0  0  0  0
   23.9777  -21.4679  -12.3728 N   0  0  0  0  0  0  0  0  0  0  0  0
   25.7951  -20.4895  -13.5499 C   0  0  0  0  0  0  0  0  0  0  0  0
   25.8205  -21.5156  -14.3407 O   0  0  0  0  0  0  0  0  0  0  0  0
   29.7424  -16.6501  -20.5117 O   0  0  0  0  0  0  0  0  0  0  0  0
   29.1984  -16.9264  -19.2549 C   0  0  0  0  0  0  0  0  0  0  0  0
   29.9704  -17.2111  -18.1514 C   0  0  0  0  0  0  0  0  0  0  0  0
   29.4162  -17.4799  -16.9253 C   0  0  0  0  0  0  0  0  0  0  0  0
   28.0372  -17.4638  -16.7957 C   0  0  0  0  0  0  0  0  0  0  0  0
   27.3473  -17.7431  -15.5285 C   0  0  0  0  0  0  0  0  0  0  0  0
   26.8766  -19.1823  -15.3977 C   0  0  2  0  0  0  0  0  0  0  0  0
   26.3185  -19.2746  -14.0389 N   0  0  0  0  0  0  0  0  0  0  0  0
   27.9958  -20.1204  -15.5036 C   0  0  0  0  0  0  0  0  0  0  0  0
   28.2186  -20.7024  -16.5917 O   0  0  0  0  0  0  0  0  0  0  0  0
   27.2782  -17.1767  -17.9117 C   0  0  0  0  0  0  0  0  0  0  0  0
   27.8234  -16.9042  -19.1522 C   0  0  0  0  0  0  0  0  0  0  0  0
   28.8097  -20.3732  -14.4235 O   0  0  0  0  0  0  0  0  0  0  0  0
  2  1  1  0
  3  2  2  0
  4  3  1  0
  5  4  2  0
  5 11  1  0
  6  5  1  0
  7  8  1  6
  7  6  1  0
  9  7  1  0
 10  9  2  0
 11 12  2  0
 12  2  1  0
 14 13  1  1
 14 16  1  0
 15 14  1  0
 17 16  1  1
 17 19  1  0
 17 18  1  0
 18  9  1  0
 19 28  1  0
 20 19  2  0
 22 32  2  0
 22 21  1  0
 23 22  1  0
 24 25  1  0
 24 23  2  0
 25 31  2  0
 26 25  1  0
 27 26  1  1
 27 29  1  0
 28 27  1  0
 29 30  2  0
 29 33  1  0
 31 32  1  0
M  END
$$$$
