ICY.pdb
     RDKit          3D

 27 27  0  0  1  0  0  0  0  0999 V2000
   22.4444  -14.0172  -21.7154 C   0  0  0  0  0  0  0  0  0  0  0  0
   22.9177  -13.8151  -20.3192 C   0  0  0  0  0  0  0  0  0  0  0  0
   22.1094  -12.7475  -19.5767 C   0  0  2  0  0  0  0  0  0  0  0  0
   22.1751  -11.4639  -20.3475 C   0  0  0  0  0  0  0  0  0  0  0  0
   22.7266  -12.6710  -18.1962 C   0  0  2  0  0  0  0  0  0  0  0  0
   22.5850  -14.0364  -17.6552 N   0  0  0  0  0  0  0  0  0  0  0  0
   22.0021  -11.7734  -17.2693 C   0  0  0  0  0  0  0  0  0  0  0  0
   20.7525  -11.8884  -17.1523 O   0  0  0  0  0  0  0  0  0  0  0  0
   22.6074  -10.7639  -16.4751 N   0  0  0  0  0  0  0  0  0  0  0  0
   21.8464   -9.8522  -15.6441 C   0  0  1  0  0  0  0  0  0  0  0  0
   22.5924   -9.6966  -14.3224 C   0  0  0  0  0  0  0  0  0  0  0  0
   21.6795   -8.5784  -13.2174 S   0  0  0  0  0  0  0  0  0  0  0  0
   21.7622   -8.5005  -16.2515 C   0  0  0  0  0  0  0  0  0  0  0  0
   22.7916   -8.0447  -16.8078 O   0  0  0  0  0  0  0  0  0  0  0  0
   14.4767   -8.3459  -18.0220 O   0  0  0  0  0  0  0  0  0  0  0  0
   15.7850   -7.8822  -18.0641 C   0  0  0  0  0  0  0  0  0  0  0  0
   16.1100   -6.5961  -17.6569 C   0  0  0  0  0  0  0  0  0  0  0  0
   17.3960   -6.1121  -17.6883 C   0  0  0  0  0  0  0  0  0  0  0  0
   18.4074   -6.9117  -18.1340 C   0  0  0  0  0  0  0  0  0  0  0  0
   19.8311   -6.4910  -18.2098 C   0  0  0  0  0  0  0  0  0  0  0  0
   20.4613   -6.4204  -16.8326 C   0  0  2  0  0  0  0  0  0  0  0  0
   20.5973   -7.7163  -16.2331 N   0  0  0  0  0  0  0  0  0  0  0  0
   19.6467   -5.5685  -15.9293 C   0  0  0  0  0  0  0  0  0  0  0  0
   19.4889   -4.2117  -16.1714 O   0  0  0  0  0  0  0  0  0  0  0  0
   18.1258   -8.2054  -18.5509 C   0  0  0  0  0  0  0  0  0  0  0  0
   16.8279   -8.6713  -18.5112 C   0  0  0  0  0  0  0  0  0  0  0  0
   19.0625   -6.0401  -14.9028 O   0  0  0  0  0  0  0  0  0  0  0  0
  2  1  1  0
  3  2  1  0
  3  4  1  6
  5  3  1  0
  5  6  1  1
  7  5  1  0
  8  7  2  0
  9  7  1  0
 10  9  1  0
 10 11  1  1
 12 11  1  0
 13 10  1  0
 13 22  1  0
 14 13  2  0
 16 15  1  0
 17 16  2  0
 18 17  1  0
 19 25  1  0
 19 18  2  0
 20 19  1  0
 21 20  1  6
 21 22  1  0
 23 21  1  0
 24 23  1  0
 25 26  2  0
 26 16  1  0
 27 23  2  0
M  END
$$$$
