ICY.pdb
     RDKit          3D

 27 27  0  0  1  0  0  0  0  0999 V2000
   28.2434  -25.5862  -15.9346 C   0  0  0  0  0  0  0  0  0  0  0  0
   27.5734  -24.2653  -15.7908 C   0  0  0  0  0  0  0  0  0  0  0  0
   27.0138  -23.7462  -17.1181 C   0  0  2  0  0  0  0  0  0  0  0  0
   28.1383  -23.6062  -18.0987 C   0  0  0  0  0  0  0  0  0  0  0  0
   26.3269  -22.4409  -16.7758 C   0  0  2  0  0  0  0  0  0  0  0  0
   27.4325  -21.5178  -16.4557 N   0  0  0  0  0  0  0  0  0  0  0  0
   25.4766  -22.5151  -15.5670 C   0  0  0  0  0  0  0  0  0  0  0  0
   24.4499  -23.2459  -15.5807 O   0  0  0  0  0  0  0  0  0  0  0  0
   25.7219  -21.8157  -14.3557 N   0  0  0  0  0  0  0  0  0  0  0  0
   24.7884  -21.8071  -13.2471 C   0  0  1  0  0  0  0  0  0  0  0  0
   25.5510  -21.3657  -12.0017 C   0  0  0  0  0  0  0  0  0  0  0  0
   24.4068  -21.1791  -10.6015 S   0  0  0  0  0  0  0  0  0  0  0  0
   23.7002  -20.8197  -13.4569 C   0  0  0  0  0  0  0  0  0  0  0  0
   24.0266  -19.6223  -13.6475 O   0  0  0  0  0  0  0  0  0  0  0  0
   20.2284  -23.4395  -19.0396 O   0  0  0  0  0  0  0  0  0  0  0  0
   20.4622  -22.5002  -18.0438 C   0  0  0  0  0  0  0  0  0  0  0  0
   19.4281  -21.9957  -17.2683 C   0  0  0  0  0  0  0  0  0  0  0  0
   19.6317  -21.0658  -16.2767 C   0  0  0  0  0  0  0  0  0  0  0  0
   20.8927  -20.6080  -16.0294 C   0  0  0  0  0  0  0  0  0  0  0  0
   21.2255  -19.6054  -14.9837 C   0  0  0  0  0  0  0  0  0  0  0  0
   21.2526  -20.2331  -13.6038 C   0  0  2  0  0  0  0  0  0  0  0  0
   22.3374  -21.1590  -13.4521 N   0  0  0  0  0  0  0  0  0  0  0  0
   19.9813  -20.9512  -13.3325 C   0  0  0  0  0  0  0  0  0  0  0  0
   18.7657  -20.2827  -13.3317 O   0  0  0  0  0  0  0  0  0  0  0  0
   21.9561  -21.0868  -16.7823 C   0  0  0  0  0  0  0  0  0  0  0  0
   21.7296  -22.0200  -17.7728 C   0  0  0  0  0  0  0  0  0  0  0  0
   19.9501  -22.1993  -13.0909 O   0  0  0  0  0  0  0  0  0  0  0  0
  2  1  1  0
  3  2  1  0
  3  4  1  6
  5  3  1  0
  5  6  1  1
  7  5  1  0
  8  7  2  0
  9  7  1  0
 10  9  1  0
 10 11  1  1
 12 11  1  0
 13 10  1  0
 13 22  1  0
 14 13  2  0
 16 15  1  0
 17 16  2  0
 18 17  1  0
 19 25  1  0
 19 18  2  0
 20 19  1  0
 21 20  1  6
 21 22  1  0
 23 21  1  0
 24 23  1  0
 25 26  2  0
 26 16  1  0
 27 23  2  0
M  END
$$$$
