ICY.pdb
     RDKit          3D

 27 27  0  0  1  0  0  0  0  0999 V2000
   26.3554  -14.7732  -16.2781 C   0  0  0  0  0  0  0  0  0  0  0  0
   26.9468  -16.1371  -16.3448 C   0  0  0  0  0  0  0  0  0  0  0  0
   26.4598  -17.0415  -15.2093 C   0  0  2  0  0  0  0  0  0  0  0  0
   27.6170  -17.3629  -14.3130 C   0  0  0  0  0  0  0  0  0  0  0  0
   25.8557  -18.2489  -15.8949 C   0  0  2  0  0  0  0  0  0  0  0  0
   24.7164  -17.7050  -16.6585 N   0  0  0  0  0  0  0  0  0  0  0  0
   25.2961  -19.2475  -14.9572 C   0  0  0  0  0  0  0  0  0  0  0  0
   24.1310  -19.0826  -14.5058 O   0  0  0  0  0  0  0  0  0  0  0  0
   25.9747  -20.4110  -14.5075 N   0  0  0  0  0  0  0  0  0  0  0  0
   25.4216  -21.3134  -13.5174 C   0  0  1  0  0  0  0  0  0  0  0  0
   25.6623  -22.7393  -14.0033 C   0  0  0  0  0  0  0  0  0  0  0  0
   25.1101  -23.9300  -12.7454 S   0  0  0  0  0  0  0  0  0  0  0  0
   26.1142  -21.1821  -12.2111 C   0  0  0  0  0  0  0  0  0  0  0  0
   27.3601  -21.3374  -12.1922 O   0  0  0  0  0  0  0  0  0  0  0  0
   29.1986  -19.8440   -4.2714 O   0  0  0  0  0  0  0  0  0  0  0  0
   28.6832  -19.8414   -5.5610 C   0  0  0  0  0  0  0  0  0  0  0  0
   27.6948  -18.9456   -5.9431 C   0  0  0  0  0  0  0  0  0  0  0  0
   27.1675  -18.9215   -7.2122 C   0  0  0  0  0  0  0  0  0  0  0  0
   27.6202  -19.8049   -8.1479 C   0  0  0  0  0  0  0  0  0  0  0  0
   27.1212  -19.8662   -9.5468 C   0  0  0  0  0  0  0  0  0  0  0  0
   26.0441  -20.9217   -9.7044 C   0  0  2  0  0  0  0  0  0  0  0  0
   25.4479  -20.8953  -11.0087 N   0  0  0  0  0  0  0  0  0  0  0  0
   24.9726  -20.7282   -8.6945 C   0  0  0  0  0  0  0  0  0  0  0  0
   25.0657  -21.2951   -7.4319 O   0  0  0  0  0  0  0  0  0  0  0  0
   28.6085  -20.7183   -7.8074 C   0  0  0  0  0  0  0  0  0  0  0  0
   29.1240  -20.7253   -6.5278 C   0  0  0  0  0  0  0  0  0  0  0  0
   23.9313  -20.0405   -8.9395 O   0  0  0  0  0  0  0  0  0  0  0  0
  2  1  1  0
  3  2  1  0
  3  4  1  1
  5  3  1  0
  5  6  1  6
  7  5  1  0
  8  7  2  0
  9  7  1  0
 10  9  1  0
 10 11  1  6
 12 11  1  0
 13 10  1  0
 13 22  1  0
 14 13  2  0
 16 15  1  0
 17 16  2  0
 18 17  1  0
 19 25  1  0
 19 18  2  0
 20 19  1  0
 21 20  1  6
 21 22  1  0
 23 21  1  0
 24 23  1  0
 25 26  2  0
 26 16  1  0
 27 23  2  0
M  END
$$$$
