ICY.pdb
     RDKit          3D

 27 27  0  0  1  0  0  0  0  0999 V2000
   24.2316  -11.4564  -14.3149 C   0  0  0  0  0  0  0  0  0  0  0  0
   23.2028  -10.7751  -15.1464 C   0  0  0  0  0  0  0  0  0  0  0  0
   22.5415   -9.6040  -14.4145 C   0  0  2  0  0  0  0  0  0  0  0  0
   21.9004  -10.1141  -13.1597 C   0  0  0  0  0  0  0  0  0  0  0  0
   21.5656   -9.0136  -15.4105 C   0  0  2  0  0  0  0  0  0  0  0  0
   22.4152   -8.5428  -16.5212 N   0  0  0  0  0  0  0  0  0  0  0  0
   20.8411   -7.8277  -14.9023 C   0  0  0  0  0  0  0  0  0  0  0  0
   21.4979   -6.8216  -14.5217 O   0  0  0  0  0  0  0  0  0  0  0  0
   19.4288   -7.7181  -14.8029 N   0  0  0  0  0  0  0  0  0  0  0  0
   18.7677   -6.5960  -14.1667 C   0  0  1  0  0  0  0  0  0  0  0  0
   18.1653   -5.7277  -15.2670 C   0  0  0  0  0  0  0  0  0  0  0  0
   17.2067   -4.3674  -14.5352 S   0  0  0  0  0  0  0  0  0  0  0  0
   17.6430   -7.0409  -13.3063 C   0  0  0  0  0  0  0  0  0  0  0  0
   16.8604   -7.9069  -13.7692 O   0  0  0  0  0  0  0  0  0  0  0  0
   12.0842   -7.9598   -6.4783 O   0  0  0  0  0  0  0  0  0  0  0  0
   13.1844   -7.6774   -7.2773 C   0  0  0  0  0  0  0  0  0  0  0  0
   13.6898   -8.6127   -8.1690 C   0  0  0  0  0  0  0  0  0  0  0  0
   14.7769   -8.3592   -8.9711 C   0  0  0  0  0  0  0  0  0  0  0  0
   15.3977   -7.1464   -8.9030 C   0  0  0  0  0  0  0  0  0  0  0  0
   16.5782   -6.7669   -9.7228 C   0  0  0  0  0  0  0  0  0  0  0  0
   16.2657   -6.8293  -11.2052 C   0  0  2  0  0  0  0  0  0  0  0  0
   17.4162   -6.5435  -12.0127 N   0  0  0  0  0  0  0  0  0  0  0  0
   15.1953   -5.8606  -11.5537 C   0  0  0  0  0  0  0  0  0  0  0  0
   13.8978   -6.2837  -11.8020 O   0  0  0  0  0  0  0  0  0  0  0  0
   14.9241   -6.1819   -8.0241 C   0  0  0  0  0  0  0  0  0  0  0  0
   13.8316   -6.4572   -7.2281 C   0  0  0  0  0  0  0  0  0  0  0  0
   15.4180   -4.6115  -11.6393 O   0  0  0  0  0  0  0  0  0  0  0  0
  2  1  1  0
  3  2  1  0
  3  4  1  1
  5  3  1  0
  5  6  1  6
  7  5  1  0
  8  7  2  0
  9  7  1  0
 10  9  1  0
 10 11  1  6
 12 11  1  0
 13 10  1  0
 13 22  1  0
 14 13  2  0
 16 15  1  0
 17 16  2  0
 18 17  1  0
 19 25  1  0
 19 18  2  0
 20 19  1  0
 21 20  1  1
 21 22  1  0
 23 21  1  0
 24 23  1  0
 25 26  2  0
 26 16  1  0
 27 23  2  0
M  END
$$$$
