ICY.pdb
     RDKit          3D

 27 27  0  0  1  0  0  0  0  0999 V2000
   27.9688  -20.8993  -22.9033 C   0  0  0  0  0  0  0  0  0  0  0  0
   26.5939  -20.3516  -22.7489 C   0  0  0  0  0  0  0  0  0  0  0  0
   26.1193  -20.3656  -21.2932 C   0  0  2  0  0  0  0  0  0  0  0  0
   26.1692  -21.7722  -20.7786 C   0  0  0  0  0  0  0  0  0  0  0  0
   24.7283  -19.7681  -21.3235 C   0  0  2  0  0  0  0  0  0  0  0  0
   24.9267  -18.4039  -21.8494 N   0  0  0  0  0  0  0  0  0  0  0  0
   24.1156  -19.6185  -19.9848 C   0  0  0  0  0  0  0  0  0  0  0  0
   23.9001  -20.6466  -19.2883 O   0  0  0  0  0  0  0  0  0  0  0  0
   23.7380  -18.3825  -19.3965 N   0  0  0  0  0  0  0  0  0  0  0  0
   23.1402  -18.2859  -18.0797 C   0  0  1  0  0  0  0  0  0  0  0  0
   23.2437  -16.8323  -17.6286 C   0  0  0  0  0  0  0  0  0  0  0  0
   22.4545  -16.6241  -16.0042 S   0  0  0  0  0  0  0  0  0  0  0  0
   21.6954  -18.6247  -18.1094 C   0  0  0  0  0  0  0  0  0  0  0  0
   20.9737  -18.0326  -18.9493 O   0  0  0  0  0  0  0  0  0  0  0  0
   13.8955  -22.4950  -16.7057 O   0  0  0  0  0  0  0  0  0  0  0  0
   15.2528  -22.2119  -16.7847 C   0  0  0  0  0  0  0  0  0  0  0  0
   15.8751  -21.9879  -18.0045 C   0  0  0  0  0  0  0  0  0  0  0  0
   17.2162  -21.7059  -18.1110 C   0  0  0  0  0  0  0  0  0  0  0  0
   17.9833  -21.6391  -16.9849 C   0  0  0  0  0  0  0  0  0  0  0  0
   19.4398  -21.3420  -16.9848 C   0  0  0  0  0  0  0  0  0  0  0  0
   19.7028  -19.8622  -17.1851 C   0  0  2  0  0  0  0  0  0  0  0  0
   21.1047  -19.5663  -17.2512 N   0  0  0  0  0  0  0  0  0  0  0  0
   19.1081  -19.0722  -16.0771 C   0  0  0  0  0  0  0  0  0  0  0  0
   17.8254  -18.5530  -16.1740 O   0  0  0  0  0  0  0  0  0  0  0  0
   17.4004  -21.8567  -15.7441 C   0  0  0  0  0  0  0  0  0  0  0  0
   16.0525  -22.1384  -15.6598 C   0  0  0  0  0  0  0  0  0  0  0  0
   19.7420  -18.8384  -14.9997 O   0  0  0  0  0  0  0  0  0  0  0  0
  2  1  1  0
  3  2  1  0
  3  4  1  6
  5  3  1  0
  5  6  1  1
  7  5  1  0
  8  7  2  0
  9  7  1  0
 10  9  1  0
 10 11  1  6
 12 11  1  0
 13 10  1  0
 13 22  1  0
 14 13  2  0
 16 15  1  0
 17 16  2  0
 18 17  1  0
 19 25  1  0
 19 18  2  0
 20 19  1  0
 21 20  1  1
 21 22  1  0
 23 21  1  0
 24 23  1  0
 25 26  2  0
 26 16  1  0
 27 23  2  0
M  END
$$$$
