ICY.pdb
     RDKit          3D

 27 27  0  0  1  0  0  0  0  0999 V2000
   16.8103  -13.9870  -15.9913 C   0  0  0  0  0  0  0  0  0  0  0  0
   17.6117  -12.7539  -16.2178 C   0  0  0  0  0  0  0  0  0  0  0  0
   17.6967  -11.8742  -14.9675 C   0  0  2  0  0  0  0  0  0  0  0  0
   16.3085  -11.5557  -14.5014 C   0  0  0  0  0  0  0  0  0  0  0  0
   18.5000  -10.6618  -15.3890 C   0  0  2  0  0  0  0  0  0  0  0  0
   19.8393  -11.1986  -15.6976 N   0  0  0  0  0  0  0  0  0  0  0  0
   18.6836   -9.6653  -14.3106 C   0  0  0  0  0  0  0  0  0  0  0  0
   19.4352   -9.9428  -13.3378 O   0  0  0  0  0  0  0  0  0  0  0  0
   18.0707   -8.3849  -14.2731 N   0  0  0  0  0  0  0  0  0  0  0  0
   18.2689   -7.4473  -13.1858 C   0  0  1  0  0  0  0  0  0  0  0  0
   18.7098   -6.1190  -13.7930 C   0  0  0  0  0  0  0  0  0  0  0  0
   20.4244   -6.2407  -14.3848 S   0  0  0  0  0  0  0  0  0  0  0  0
   17.0050   -7.1860  -12.4526 C   0  0  0  0  0  0  0  0  0  0  0  0
   15.9399   -7.1550  -13.1169 O   0  0  0  0  0  0  0  0  0  0  0  0
   10.9269   -7.0851   -6.1340 O   0  0  0  0  0  0  0  0  0  0  0  0
   12.1353   -7.1651   -6.8137 C   0  0  0  0  0  0  0  0  0  0  0  0
   13.1443   -6.2353   -6.6069 C   0  0  0  0  0  0  0  0  0  0  0  0
   14.3492   -6.2911   -7.2660 C   0  0  0  0  0  0  0  0  0  0  0  0
   14.5821   -7.2922   -8.1630 C   0  0  0  0  0  0  0  0  0  0  0  0
   15.8462   -7.4473   -8.9295 C   0  0  0  0  0  0  0  0  0  0  0  0
   15.7422   -6.8126  -10.3026 C   0  0  2  0  0  0  0  0  0  0  0  0
   16.9460   -6.9742  -11.0656 N   0  0  0  0  0  0  0  0  0  0  0  0
   15.4521   -5.3609  -10.1855 C   0  0  0  0  0  0  0  0  0  0  0  0
   14.1497   -4.8845  -10.2183 O   0  0  0  0  0  0  0  0  0  0  0  0
   13.5991   -8.2433   -8.3997 C   0  0  0  0  0  0  0  0  0  0  0  0
   12.3969   -8.1687   -7.7273 C   0  0  0  0  0  0  0  0  0  0  0  0
   16.3759   -4.4973  -10.0511 O   0  0  0  0  0  0  0  0  0  0  0  0
  2  1  1  0
  3  2  1  0
  3  4  1  6
  5  3  1  0
  5  6  1  1
  7  5  1  0
  8  7  2  0
  9  7  1  0
 10  9  1  0
 10 11  1  6
 12 11  1  0
 13 10  1  0
 13 22  1  0
 14 13  2  0
 16 15  1  0
 17 16  2  0
 18 17  1  0
 19 25  1  0
 19 18  2  0
 20 19  1  0
 21 20  1  1
 21 22  1  0
 23 21  1  0
 24 23  1  0
 25 26  2  0
 26 16  1  0
 27 23  2  0
M  END
$$$$
