ICY.pdb
     RDKit          3D

 27 27  0  0  1  0  0  0  0  0999 V2000
   29.5622  -19.7555  -18.0994 C   0  0  0  0  0  0  0  0  0  0  0  0
   28.7674  -19.1467  -16.9985 C   0  0  0  0  0  0  0  0  0  0  0  0
   27.8619  -20.1645  -16.2994 C   0  0  2  0  0  0  0  0  0  0  0  0
   26.9891  -20.8237  -17.3238 C   0  0  0  0  0  0  0  0  0  0  0  0
   27.1010  -19.3699  -15.2590 C   0  0  2  0  0  0  0  0  0  0  0  0
   28.1524  -18.7497  -14.4301 N   0  0  0  0  0  0  0  0  0  0  0  0
   26.2865  -20.2064  -14.3498 C   0  0  0  0  0  0  0  0  0  0  0  0
   25.2377  -20.7506  -14.7885 O   0  0  0  0  0  0  0  0  0  0  0  0
   26.5906  -20.4593  -12.9860 N   0  0  0  0  0  0  0  0  0  0  0  0
   25.6837  -21.1497  -12.0907 C   0  0  1  0  0  0  0  0  0  0  0  0
   26.2452  -21.0288  -10.6774 C   0  0  0  0  0  0  0  0  0  0  0  0
   24.9423  -21.3682   -9.4559 S   0  0  0  0  0  0  0  0  0  0  0  0
   24.3421  -20.5148  -12.0757 C   0  0  0  0  0  0  0  0  0  0  0  0
   24.2747  -19.2986  -11.7706 O   0  0  0  0  0  0  0  0  0  0  0  0
   22.4735  -22.1095  -18.5352 O   0  0  0  0  0  0  0  0  0  0  0  0
   22.2482  -21.5191  -17.2985 C   0  0  0  0  0  0  0  0  0  0  0  0
   21.0776  -21.7489  -16.5898 C   0  0  0  0  0  0  0  0  0  0  0  0
   20.8293  -21.1776  -15.3646 C   0  0  0  0  0  0  0  0  0  0  0  0
   21.7577  -20.3489  -14.8058 C   0  0  0  0  0  0  0  0  0  0  0  0
   21.5925  -19.6795  -13.4889 C   0  0  0  0  0  0  0  0  0  0  0  0
   21.8384  -20.6424  -12.3439 C   0  0  2  0  0  0  0  0  0  0  0  0
   23.1577  -21.2039  -12.3834 N   0  0  0  0  0  0  0  0  0  0  0  0
   20.8541  -21.7540  -12.3767 C   0  0  0  0  0  0  0  0  0  0  0  0
   19.4908  -21.5074  -12.3068 O   0  0  0  0  0  0  0  0  0  0  0  0
   22.9428  -20.0920  -15.4814 C   0  0  0  0  0  0  0  0  0  0  0  0
   23.1718  -20.6759  -16.7102 C   0  0  0  0  0  0  0  0  0  0  0  0
   21.2134  -22.9703  -12.4695 O   0  0  0  0  0  0  0  0  0  0  0  0
  2  1  1  0
  3  2  1  0
  3  4  1  6
  5  3  1  0
  5  6  1  1
  7  5  1  0
  8  7  2  0
  9  7  1  0
 10  9  1  0
 10 11  1  1
 12 11  1  0
 13 10  1  0
 13 22  1  0
 14 13  2  0
 16 15  1  0
 17 16  2  0
 18 17  1  0
 19 25  1  0
 19 18  2  0
 20 19  1  0
 21 20  1  6
 21 22  1  0
 23 21  1  0
 24 23  1  0
 25 26  2  0
 26 16  1  0
 27 23  2  0
M  END
$$$$
