ICY.pdb
     RDKit          3D

 27 27  0  0  1  0  0  0  0  0999 V2000
   23.4259  -28.7779  -15.9630 C   0  0  0  0  0  0  0  0  0  0  0  0
   24.1790  -27.5345  -15.6451 C   0  0  0  0  0  0  0  0  0  0  0  0
   24.3337  -26.6177  -16.8617 C   0  0  2  0  0  0  0  0  0  0  0  0
   25.0991  -27.3453  -17.9250 C   0  0  0  0  0  0  0  0  0  0  0  0
   25.0290  -25.3784  -16.3389 C   0  0  2  0  0  0  0  0  0  0  0  0
   26.2354  -25.8926  -15.6627 N   0  0  0  0  0  0  0  0  0  0  0  0
   24.2511  -24.6471  -15.3143 C   0  0  0  0  0  0  0  0  0  0  0  0
   24.5720  -24.7606  -14.1008 O   0  0  0  0  0  0  0  0  0  0  0  0
   23.1419  -23.8026  -15.5843 N   0  0  0  0  0  0  0  0  0  0  0  0
   22.3453  -23.1890  -14.5404 C   0  0  1  0  0  0  0  0  0  0  0  0
   22.1363  -21.7252  -14.9161 C   0  0  0  0  0  0  0  0  0  0  0  0
   21.2144  -20.8687  -13.6041 S   0  0  0  0  0  0  0  0  0  0  0  0
   20.9982  -23.8053  -14.4476 C   0  0  0  0  0  0  0  0  0  0  0  0
   20.3806  -24.0236  -15.5189 O   0  0  0  0  0  0  0  0  0  0  0  0
   21.7346  -30.4897  -12.7550 O   0  0  0  0  0  0  0  0  0  0  0  0
   21.0456  -29.3014  -12.5501 C   0  0  0  0  0  0  0  0  0  0  0  0
   19.7580  -29.1193  -13.0342 C   0  0  0  0  0  0  0  0  0  0  0  0
   19.0539  -27.9540  -12.8457 C   0  0  0  0  0  0  0  0  0  0  0  0
   19.6257  -26.9237  -12.1583 C   0  0  0  0  0  0  0  0  0  0  0  0
   18.9560  -25.6226  -11.8970 C   0  0  0  0  0  0  0  0  0  0  0  0
   19.0684  -24.6929  -13.0895 C   0  0  2  0  0  0  0  0  0  0  0  0
   20.3892  -24.1516  -13.2305 N   0  0  0  0  0  0  0  0  0  0  0  0
   18.1100  -23.5655  -12.9640 C   0  0  0  0  0  0  0  0  0  0  0  0
   18.5483  -22.2494  -12.9493 O   0  0  0  0  0  0  0  0  0  0  0  0
   20.9124  -27.0642  -11.6569 C   0  0  0  0  0  0  0  0  0  0  0  0
   21.6014  -28.2424  -11.8575 C   0  0  0  0  0  0  0  0  0  0  0  0
   16.8563  -23.7540  -12.8653 O   0  0  0  0  0  0  0  0  0  0  0  0
  2  1  1  0
  3  2  1  0
  3  4  1  6
  5  3  1  0
  5  6  1  1
  7  5  1  0
  8  7  2  0
  9  7  1  0
 10  9  1  0
 10 11  1  6
 12 11  1  0
 13 10  1  0
 13 22  1  0
 14 13  2  0
 16 15  1  0
 17 16  2  0
 18 17  1  0
 19 25  1  0
 19 18  2  0
 20 19  1  0
 21 20  1  1
 21 22  1  0
 23 21  1  0
 24 23  1  0
 25 26  2  0
 26 16  1  0
 27 23  2  0
M  END
$$$$
