ICY.pdb
     RDKit          3D

 27 27  0  0  1  0  0  0  0  0999 V2000
   13.3633   -9.4226  -16.9978 C   0  0  0  0  0  0  0  0  0  0  0  0
   14.6950  -10.0367  -17.2506 C   0  0  0  0  0  0  0  0  0  0  0  0
   15.7756   -9.4972  -16.3094 C   0  0  2  0  0  0  0  0  0  0  0  0
   16.0027   -8.0467  -16.6101 C   0  0  0  0  0  0  0  0  0  0  0  0
   16.9859  -10.3746  -16.5503 C   0  0  2  0  0  0  0  0  0  0  0  0
   16.5712  -11.7092  -16.0768 N   0  0  0  0  0  0  0  0  0  0  0  0
   18.1681   -9.9913  -15.7472 C   0  0  0  0  0  0  0  0  0  0  0  0
   18.1638  -10.2047  -14.5051 O   0  0  0  0  0  0  0  0  0  0  0  0
   19.3432   -9.3867  -16.2669 N   0  0  0  0  0  0  0  0  0  0  0  0
   20.4205   -8.9049  -15.4253 C   0  0  1  0  0  0  0  0  0  0  0  0
   21.7175   -9.5313  -15.9279 C   0  0  0  0  0  0  0  0  0  0  0  0
   23.1181   -8.9652  -14.9166 S   0  0  0  0  0  0  0  0  0  0  0  0
   20.5832   -7.4337  -15.5351 C   0  0  0  0  0  0  0  0  0  0  0  0
   20.5638   -6.9278  -16.6842 O   0  0  0  0  0  0  0  0  0  0  0  0
   15.5375   -3.7383  -17.5034 O   0  0  0  0  0  0  0  0  0  0  0  0
   16.5911   -3.9057  -16.6143 C   0  0  0  0  0  0  0  0  0  0  0  0
   16.7903   -5.1058  -15.9467 C   0  0  0  0  0  0  0  0  0  0  0  0
   17.8244   -5.2983  -15.0620 C   0  0  0  0  0  0  0  0  0  0  0  0
   18.7006   -4.2819  -14.8165 C   0  0  0  0  0  0  0  0  0  0  0  0
   19.8515   -4.3811  -13.8810 C   0  0  0  0  0  0  0  0  0  0  0  0
   20.9907   -5.1769  -14.4876 C   0  0  2  0  0  0  0  0  0  0  0  0
   20.7560   -6.5905  -14.4254 N   0  0  0  0  0  0  0  0  0  0  0  0
   22.2653   -4.8813  -13.7850 C   0  0  0  0  0  0  0  0  0  0  0  0
   22.7801   -3.5939  -13.7439 O   0  0  0  0  0  0  0  0  0  0  0  0
   18.5376   -3.0646  -15.4634 C   0  0  0  0  0  0  0  0  0  0  0  0
   17.4927   -2.8927  -16.3476 C   0  0  0  0  0  0  0  0  0  0  0  0
   22.9358   -5.7867  -13.1952 O   0  0  0  0  0  0  0  0  0  0  0  0
  2  1  1  0
  3  2  1  0
  3  4  1  6
  5  3  1  0
  5  6  1  1
  7  5  1  0
  8  7  2  0
  9  7  1  0
 10  9  1  0
 10 11  1  6
 12 11  1  0
 13 10  1  0
 13 22  1  0
 14 13  2  0
 16 15  1  0
 17 16  2  0
 18 17  1  0
 19 25  1  0
 19 18  2  0
 20 19  1  0
 21 20  1  1
 21 22  1  0
 23 21  1  0
 24 23  1  0
 25 26  2  0
 26 16  1  0
 27 23  2  0
M  END
$$$$
