TCH.pdb
     RDKit          3D

 24 24  0  0  1  0  0  0  0  0999 V2000
    7.1415  -17.5770   16.8868 C   0  0  0  0  0  0  0  0  0  0  0  0
    8.1814  -17.2847   15.8382 C   0  0  1  0  0  0  0  0  0  0  0  0
    7.7511  -17.7684   14.6143 O   0  0  0  0  0  0  0  0  0  0  0  0
    8.3813  -15.7920   15.7038 C   0  0  2  0  0  0  0  0  0  0  0  0
    9.2087  -15.5375   14.5673 N   0  0  0  0  0  0  0  0  0  0  0  0
    8.9304  -15.2246   16.9527 C   0  0  0  0  0  0  0  0  0  0  0  0
   10.1637  -15.4608   17.1817 O   0  0  0  0  0  0  0  0  0  0  0  0
    8.1512  -14.4592   17.8589 N   0  0  0  0  0  0  0  0  0  0  0  0
    8.7256  -14.0288   19.0860 C   0  0  1  0  0  0  0  0  0  0  0  0
    7.8120  -13.0380   19.7780 C   0  0  0  0  0  0  0  0  0  0  0  0
    8.4747  -12.5060   21.3561 S   0  0  0  0  0  0  0  0  0  0  0  0
    9.0860  -15.1573   19.9898 C   0  0  0  0  0  0  0  0  0  0  0  0
    8.4196  -16.2239   20.0200 O   0  0  0  0  0  0  0  0  0  0  0  0
   10.2025  -15.1052   20.8753 N   0  0  0  0  0  0  0  0  0  0  0  0
   10.6660  -16.2312   21.6384 C   0  0  1  0  0  0  0  0  0  0  0  0
   11.0280  -17.4143   20.7776 C   0  0  0  0  0  0  0  0  0  0  0  0
    9.8902  -18.3214   20.5437 C   0  0  0  0  0  0  0  0  0  0  0  0
    8.6318  -18.2033   21.0877 C   0  0  0  0  0  0  0  0  0  0  0  0
    7.8907  -19.2435   20.6136 N   0  0  0  0  0  0  0  0  0  0  0  0
    8.6554  -19.9884   19.8011 C   0  0  0  0  0  0  0  0  0  0  0  0
    9.8547  -19.4171   19.7723 N   0  0  0  0  0  0  0  0  0  0  0  0
   11.7286  -15.8787   22.6002 C   0  0  0  0  0  0  0  0  0  0  0  0
   11.9651  -16.6307   23.7133 O   0  0  0  0  0  0  0  0  0  0  0  0
   12.4211  -14.8639   22.3769 O   0  0  0  0  0  0  0  0  0  0  0  0
  2  1  1  1
  2  3  1  0
  2  4  1  0
  4  5  1  6
  6  4  1  0
  6  8  1  0
  7  6  2  0
  9  8  1  0
  9 12  1  0
  9 10  1  1
 11 10  1  0
 12 14  1  0
 13 12  2  0
 14 15  1  0
 15 22  1  0
 15 16  1  6
 16 17  1  0
 17 21  1  0
 18 17  2  0
 18 19  1  0
 19 20  1  0
 21 20  2  0
 22 23  1  0
 24 22  2  0
M  END
$$$$
