TCH.pdb
     RDKit          3D

 24 24  0  0  1  0  0  0  0  0999 V2000
    6.4482  -15.5257   20.5583 C   0  0  0  0  0  0  0  0  0  0  0  0
    7.4583  -14.6093   19.9209 C   0  0  1  0  0  0  0  0  0  0  0  0
    7.1290  -14.4140   18.5902 O   0  0  0  0  0  0  0  0  0  0  0  0
    7.4448  -13.2614   20.6057 C   0  0  2  0  0  0  0  0  0  0  0  0
    8.0953  -12.3088   19.7628 N   0  0  0  0  0  0  0  0  0  0  0  0
    8.0555  -13.3520   21.9481 C   0  0  0  0  0  0  0  0  0  0  0  0
    9.3286  -13.4381   21.9809 O   0  0  0  0  0  0  0  0  0  0  0  0
    7.2913  -13.3456   23.1440 N   0  0  0  0  0  0  0  0  0  0  0  0
    7.9221  -13.6556   24.3797 C   0  0  1  0  0  0  0  0  0  0  0  0
    7.2207  -12.9501   25.5223 C   0  0  0  0  0  0  0  0  0  0  0  0
    5.4411  -13.1476   25.4389 S   0  0  0  0  0  0  0  0  0  0  0  0
    8.0281  -15.1207   24.6300 C   0  0  0  0  0  0  0  0  0  0  0  0
    7.1046  -15.9168   24.3200 O   0  0  0  0  0  0  0  0  0  0  0  0
    9.1751  -15.7153   25.2334 N   0  0  0  0  0  0  0  0  0  0  0  0
    9.2680  -17.1114   25.5612 C   0  0  1  0  0  0  0  0  0  0  0  0
    8.9674  -18.0104   24.3894 C   0  0  0  0  0  0  0  0  0  0  0  0
    9.8654  -17.7775   23.2442 C   0  0  0  0  0  0  0  0  0  0  0  0
   10.8912  -16.8620   23.1891 C   0  0  0  0  0  0  0  0  0  0  0  0
   11.4630  -16.9741   21.9577 N   0  0  0  0  0  0  0  0  0  0  0  0
   10.8200  -17.9254   21.2638 C   0  0  0  0  0  0  0  0  0  0  0  0
    9.8623  -18.3966   22.0552 N   0  0  0  0  0  0  0  0  0  0  0  0
   10.5305  -17.4621   26.2406 C   0  0  0  0  0  0  0  0  0  0  0  0
   10.7737  -18.7262   26.6915 O   0  0  0  0  0  0  0  0  0  0  0  0
   11.3889  -16.5693   26.3998 O   0  0  0  0  0  0  0  0  0  0  0  0
  2  1  1  1
  2  3  1  0
  2  4  1  0
  4  5  1  6
  6  4  1  0
  6  8  1  0
  7  6  2  0
  9  8  1  0
  9 12  1  0
  9 10  1  1
 11 10  1  0
 12 14  1  0
 13 12  2  0
 14 15  1  0
 15 22  1  0
 15 16  1  6
 16 17  1  0
 17 21  1  0
 18 17  2  0
 18 19  1  0
 19 20  1  0
 21 20  2  0
 22 23  1  0
 24 22  2  0
M  END
$$$$
