TCH.pdb
     RDKit          3D

 24 24  0  0  1  0  0  0  0  0999 V2000
   15.3358  -18.9936   17.7735 C   0  0  0  0  0  0  0  0  0  0  0  0
   14.9035  -17.9549   16.7732 C   0  0  1  0  0  0  0  0  0  0  0  0
   14.9170  -18.5044   15.5024 O   0  0  0  0  0  0  0  0  0  0  0  0
   13.4916  -17.5020   17.0688 C   0  0  2  0  0  0  0  0  0  0  0  0
   13.0248  -16.7048   15.9790 N   0  0  0  0  0  0  0  0  0  0  0  0
   13.4309  -16.7952   18.3649 C   0  0  0  0  0  0  0  0  0  0  0  0
   14.1787  -15.7671   18.4790 O   0  0  0  0  0  0  0  0  0  0  0  0
   12.5978  -17.2166   19.4338 N   0  0  0  0  0  0  0  0  0  0  0  0
   12.6389  -16.5177   20.6711 C   0  0  1  0  0  0  0  0  0  0  0  0
   11.3962  -16.8127   21.4858 C   0  0  0  0  0  0  0  0  0  0  0  0
   11.5073  -16.1396   23.1433 S   0  0  0  0  0  0  0  0  0  0  0  0
   13.8777  -16.7882   21.4538 C   0  0  0  0  0  0  0  0  0  0  0  0
   14.3590  -17.9458   21.5580 O   0  0  0  0  0  0  0  0  0  0  0  0
   14.5964  -15.7607   22.1328 N   0  0  0  0  0  0  0  0  0  0  0  0
   15.7969  -15.9947   22.8873 C   0  0  1  0  0  0  0  0  0  0  0  0
   16.6634  -14.7673   23.0067 C   0  0  0  0  0  0  0  0  0  0  0  0
   17.9757  -15.0501   23.6151 C   0  0  0  0  0  0  0  0  0  0  0  0
   18.4953  -16.2957   23.8835 C   0  0  0  0  0  0  0  0  0  0  0  0
   19.7234  -16.1060   24.4417 N   0  0  0  0  0  0  0  0  0  0  0  0
   19.9671  -14.7891   24.5214 C   0  0  0  0  0  0  0  0  0  0  0  0
   18.9035  -14.1710   24.0190 N   0  0  0  0  0  0  0  0  0  0  0  0
   15.5436  -16.6434   24.1886 C   0  0  0  0  0  0  0  0  0  0  0  0
   14.7226  -16.0810   25.1213 O   0  0  0  0  0  0  0  0  0  0  0  0
   16.1016  -17.7345   24.4286 O   0  0  0  0  0  0  0  0  0  0  0  0
  2  1  1  1
  2  3  1  0
  2  4  1  0
  4  5  1  6
  6  4  1  0
  6  8  1  0
  7  6  2  0
  9  8  1  0
  9 12  1  0
  9 10  1  1
 11 10  1  0
 12 14  1  0
 13 12  2  0
 14 15  1  0
 15 22  1  0
 15 16  1  1
 16 17  1  0
 17 21  1  0
 18 17  2  0
 18 19  1  0
 19 20  1  0
 21 20  2  0
 22 23  1  0
 24 22  2  0
M  END
$$$$
