TCH.pdb
     RDKit          3D

 24 24  0  0  1  0  0  0  0  0999 V2000
    8.1476  -17.9089   14.2455 C   0  0  0  0  0  0  0  0  0  0  0  0
    8.7653  -17.2359   15.4420 C   0  0  1  0  0  0  0  0  0  0  0  0
   10.0608  -17.6945   15.6116 O   0  0  0  0  0  0  0  0  0  0  0  0
    8.8261  -15.7407   15.2257 C   0  0  2  0  0  0  0  0  0  0  0  0
    9.6411  -15.4723   14.0834 N   0  0  0  0  0  0  0  0  0  0  0  0
    9.3029  -15.0560   16.4451 C   0  0  0  0  0  0  0  0  0  0  0  0
   10.5545  -14.8116   16.4986 O   0  0  0  0  0  0  0  0  0  0  0  0
    8.4383  -14.6828   17.5069 N   0  0  0  0  0  0  0  0  0  0  0  0
    8.9804  -14.0666   18.6677 C   0  0  1  0  0  0  0  0  0  0  0  0
    7.8727  -13.4905   19.5259 C   0  0  0  0  0  0  0  0  0  0  0  0
    6.8846  -12.2942   18.6286 S   0  0  0  0  0  0  0  0  0  0  0  0
    9.8596  -14.9760   19.4552 C   0  0  0  0  0  0  0  0  0  0  0  0
    9.7180  -16.2258   19.4283 O   0  0  0  0  0  0  0  0  0  0  0  0
   10.9134  -14.4950   20.2867 N   0  0  0  0  0  0  0  0  0  0  0  0
   11.7578  -15.3494   21.0755 C   0  0  1  0  0  0  0  0  0  0  0  0
   13.1035  -14.7367   21.3675 C   0  0  0  0  0  0  0  0  0  0  0  0
   13.9317  -14.5721   20.1596 C   0  0  0  0  0  0  0  0  0  0  0  0
   13.5011  -14.6853   18.8576 C   0  0  0  0  0  0  0  0  0  0  0  0
   14.5803  -14.4597   18.0573 N   0  0  0  0  0  0  0  0  0  0  0  0
   15.6504  -14.2137   18.8281 C   0  0  0  0  0  0  0  0  0  0  0  0
   15.2394  -14.2859   20.0897 N   0  0  0  0  0  0  0  0  0  0  0  0
   11.0892  -15.8626   22.2871 C   0  0  0  0  0  0  0  0  0  0  0  0
   11.6742  -16.8022   23.0842 O   0  0  0  0  0  0  0  0  0  0  0  0
    9.9597  -15.4166   22.5781 O   0  0  0  0  0  0  0  0  0  0  0  0
  2  1  1  6
  2  3  1  0
  2  4  1  0
  4  5  1  6
  6  4  1  0
  6  8  1  0
  7  6  2  0
  9  8  1  0
  9 12  1  0
  9 10  1  1
 11 10  1  0
 12 14  1  0
 13 12  2  0
 14 15  1  0
 15 22  1  0
 15 16  1  1
 16 17  1  0
 17 21  1  0
 18 17  2  0
 18 19  1  0
 19 20  1  0
 21 20  2  0
 22 23  1  0
 24 22  2  0
M  END
$$$$
