TCH.pdb
     RDKit          3D

 24 24  0  0  1  0  0  0  0  0999 V2000
    4.0782  -18.1412   20.8429 C   0  0  0  0  0  0  0  0  0  0  0  0
    5.2427  -17.5932   21.6239 C   0  0  1  0  0  0  0  0  0  0  0  0
    5.9858  -18.6411   22.1405 O   0  0  0  0  0  0  0  0  0  0  0  0
    6.1447  -16.7861   20.7178 C   0  0  2  0  0  0  0  0  0  0  0  0
    6.6273  -17.6331   19.6734 N   0  0  0  0  0  0  0  0  0  0  0  0
    7.2320  -16.1536   21.4930 C   0  0  0  0  0  0  0  0  0  0  0  0
    8.3664  -16.7369   21.4476 O   0  0  0  0  0  0  0  0  0  0  0  0
    7.0487  -14.9675   22.2505 N   0  0  0  0  0  0  0  0  0  0  0  0
    8.1009  -14.4992   23.0839 C   0  0  1  0  0  0  0  0  0  0  0  0
    7.7845  -13.1124   23.6050 C   0  0  0  0  0  0  0  0  0  0  0  0
    6.4235  -13.1302   24.7712 S   0  0  0  0  0  0  0  0  0  0  0  0
    8.4257  -15.4358   24.1964 C   0  0  0  0  0  0  0  0  0  0  0  0
    7.5290  -16.0328   24.8462 O   0  0  0  0  0  0  0  0  0  0  0  0
    9.7651  -15.7169   24.5970 N   0  0  0  0  0  0  0  0  0  0  0  0
   10.1051  -16.6398   25.6447 C   0  0  1  0  0  0  0  0  0  0  0  0
    9.5187  -18.0117   25.4313 C   0  0  0  0  0  0  0  0  0  0  0  0
    9.8706  -18.9579   26.5051 C   0  0  0  0  0  0  0  0  0  0  0  0
   10.5621  -18.6595   27.6567 C   0  0  0  0  0  0  0  0  0  0  0  0
   10.6701  -19.8148   28.3704 N   0  0  0  0  0  0  0  0  0  0  0  0
   10.0684  -20.8037   27.6921 C   0  0  0  0  0  0  0  0  0  0  0  0
    9.5938  -20.2678   26.5727 N   0  0  0  0  0  0  0  0  0  0  0  0
   11.5519  -16.6763   25.9348 C   0  0  0  0  0  0  0  0  0  0  0  0
   12.4247  -15.8184   25.3327 O   0  0  0  0  0  0  0  0  0  0  0  0
   11.9737  -17.5188   26.7542 O   0  0  0  0  0  0  0  0  0  0  0  0
  2  1  1  6
  2  3  1  0
  2  4  1  0
  4  5  1  6
  6  4  1  0
  6  8  1  0
  7  6  2  0
  9  8  1  0
  9 12  1  0
  9 10  1  1
 11 10  1  0
 12 14  1  0
 13 12  2  0
 14 15  1  0
 15 22  1  0
 15 16  1  6
 16 17  1  0
 17 21  1  0
 18 17  2  0
 18 19  1  0
 19 20  1  0
 21 20  2  0
 22 23  1  0
 24 22  2  0
M  END
$$$$
