TCH.pdb
     RDKit          3D

 24 24  0  0  1  0  0  0  0  0999 V2000
    5.8537  -16.9643   21.7116 C   0  0  0  0  0  0  0  0  0  0  0  0
    7.0390  -16.7066   20.8199 C   0  0  1  0  0  0  0  0  0  0  0  0
    6.6563  -16.8342   19.4954 O   0  0  0  0  0  0  0  0  0  0  0  0
    7.5479  -15.2974   21.0231 C   0  0  2  0  0  0  0  0  0  0  0  0
    8.5251  -15.0105   20.0212 N   0  0  0  0  0  0  0  0  0  0  0  0
    8.0644  -15.1221   22.3963 C   0  0  0  0  0  0  0  0  0  0  0  0
    9.2323  -15.5860   22.6200 O   0  0  0  0  0  0  0  0  0  0  0  0
    7.3234  -14.4791   23.4218 N   0  0  0  0  0  0  0  0  0  0  0  0
    7.8277  -14.4722   24.7509 C   0  0  1  0  0  0  0  0  0  0  0  0
    6.9967  -13.5567   25.6263 C   0  0  0  0  0  0  0  0  0  0  0  0
    6.9224  -11.8901   24.9708 S   0  0  0  0  0  0  0  0  0  0  0  0
    7.9365  -15.8359   25.3415 C   0  0  0  0  0  0  0  0  0  0  0  0
    7.0657  -16.7205   25.1371 O   0  0  0  0  0  0  0  0  0  0  0  0
    9.0272  -16.2279   26.1723 N   0  0  0  0  0  0  0  0  0  0  0  0
    9.2471  -17.5782   26.6120 C   0  0  1  0  0  0  0  0  0  0  0  0
    9.2797  -18.5674   25.4753 C   0  0  0  0  0  0  0  0  0  0  0  0
    9.5609  -19.9435   25.9220 C   0  0  0  0  0  0  0  0  0  0  0  0
    9.7257  -20.3574   27.2240 C   0  0  0  0  0  0  0  0  0  0  0  0
    9.9675  -21.6977   27.1910 N   0  0  0  0  0  0  0  0  0  0  0  0
    9.9552  -22.1114   25.9148 C   0  0  0  0  0  0  0  0  0  0  0  0
    9.7090  -21.0411   25.1668 N   0  0  0  0  0  0  0  0  0  0  0  0
   10.4064  -17.7093   27.5162 C   0  0  0  0  0  0  0  0  0  0  0  0
   10.6386  -18.8534   28.2214 O   0  0  0  0  0  0  0  0  0  0  0  0
   11.1862  -16.7405   27.6288 O   0  0  0  0  0  0  0  0  0  0  0  0
  2  1  1  1
  2  3  1  0
  2  4  1  0
  4  5  1  6
  6  4  1  0
  6  8  1  0
  7  6  2  0
  9  8  1  0
  9 12  1  0
  9 10  1  1
 11 10  1  0
 12 14  1  0
 13 12  2  0
 14 15  1  0
 15 22  1  0
 15 16  1  6
 16 17  1  0
 17 21  1  0
 18 17  2  0
 18 19  1  0
 19 20  1  0
 21 20  2  0
 22 23  1  0
 24 22  2  0
M  END
$$$$
