TCH.pdb
     RDKit          3D

 24 24  0  0  1  0  0  0  0  0999 V2000
    6.8086  -18.9632   18.1047 C   0  0  0  0  0  0  0  0  0  0  0  0
    7.8791  -18.6020   17.1097 C   0  0  1  0  0  0  0  0  0  0  0  0
    7.5392  -19.1026   15.8643 O   0  0  0  0  0  0  0  0  0  0  0  0
    7.9950  -17.0992   16.9908 C   0  0  2  0  0  0  0  0  0  0  0  0
    8.8413  -16.7877   15.8828 N   0  0  0  0  0  0  0  0  0  0  0  0
    8.4703  -16.5105   18.2600 C   0  0  0  0  0  0  0  0  0  0  0  0
    9.6990  -16.7069   18.5443 O   0  0  0  0  0  0  0  0  0  0  0  0
    7.6282  -15.7668   19.1271 N   0  0  0  0  0  0  0  0  0  0  0  0
    8.1514  -15.2630   20.3492 C   0  0  1  0  0  0  0  0  0  0  0  0
    7.1209  -14.4010   21.0493 C   0  0  0  0  0  0  0  0  0  0  0  0
    7.6659  -13.8991   22.6814 S   0  0  0  0  0  0  0  0  0  0  0  0
    8.6656  -16.3331   21.2496 C   0  0  0  0  0  0  0  0  0  0  0  0
    7.9707  -17.3366   21.5544 O   0  0  0  0  0  0  0  0  0  0  0  0
    9.9707  -16.2926   21.8227 N   0  0  0  0  0  0  0  0  0  0  0  0
   10.4600  -17.2686   22.7572 C   0  0  1  0  0  0  0  0  0  0  0  0
   11.6248  -18.0612   22.2218 C   0  0  0  0  0  0  0  0  0  0  0  0
   11.2142  -19.1134   21.2750 C   0  0  0  0  0  0  0  0  0  0  0  0
    9.9227  -19.5028   21.0031 C   0  0  0  0  0  0  0  0  0  0  0  0
    9.9910  -20.4984   20.0757 N   0  0  0  0  0  0  0  0  0  0  0  0
   11.2785  -20.7266   19.7755 C   0  0  0  0  0  0  0  0  0  0  0  0
   11.9985  -19.8832   20.5075 N   0  0  0  0  0  0  0  0  0  0  0  0
   10.7201  -16.7057   24.0967 C   0  0  0  0  0  0  0  0  0  0  0  0
   10.4972  -15.3894   24.3758 O   0  0  0  0  0  0  0  0  0  0  0  0
   11.1551  -17.4651   24.9874 O   0  0  0  0  0  0  0  0  0  0  0  0
  2  1  1  1
  2  3  1  0
  2  4  1  0
  4  5  1  6
  6  4  1  0
  6  8  1  0
  7  6  2  0
  9  8  1  0
  9 12  1  0
  9 10  1  1
 11 10  1  0
 12 14  1  0
 13 12  2  0
 14 15  1  0
 15 22  1  0
 15 16  1  6
 16 17  1  0
 17 21  1  0
 18 17  2  0
 18 19  1  0
 19 20  1  0
 21 20  2  0
 22 23  1  0
 24 22  2  0
M  END
$$$$
