TCH.pdb
     RDKit          3D

 24 24  0  0  1  0  0  0  0  0999 V2000
   10.6666  -23.1215   21.7457 C   0  0  0  0  0  0  0  0  0  0  0  0
   11.3036  -22.4825   22.9508 C   0  0  1  0  0  0  0  0  0  0  0  0
   12.6817  -22.5377   22.8280 O   0  0  0  0  0  0  0  0  0  0  0  0
   10.9030  -21.0274   23.0423 C   0  0  2  0  0  0  0  0  0  0  0  0
   11.4273  -20.3321   21.9098 N   0  0  0  0  0  0  0  0  0  0  0  0
   11.3419  -20.4453   24.3275 C   0  0  0  0  0  0  0  0  0  0  0  0
   12.5322  -19.9854   24.3580 O   0  0  0  0  0  0  0  0  0  0  0  0
   10.5064  -20.3901   25.4734 N   0  0  0  0  0  0  0  0  0  0  0  0
   11.0242  -19.8760   26.6935 C   0  0  1  0  0  0  0  0  0  0  0  0
   10.2624  -18.6340   27.1088 C   0  0  0  0  0  0  0  0  0  0  0  0
   10.3492  -17.3481   25.8632 S   0  0  0  0  0  0  0  0  0  0  0  0
   11.0521  -20.8866   27.7881 C   0  0  0  0  0  0  0  0  0  0  0  0
   10.0196  -21.5121   28.1422 O   0  0  0  0  0  0  0  0  0  0  0  0
   12.2424  -21.2111   28.5031 N   0  0  0  0  0  0  0  0  0  0  0  0
   12.3009  -22.2009   29.5433 C   0  0  1  0  0  0  0  0  0  0  0  0
   13.3946  -23.2152   29.3271 C   0  0  0  0  0  0  0  0  0  0  0  0
   13.2430  -23.9599   28.0643 C   0  0  0  0  0  0  0  0  0  0  0  0
   12.0548  -24.3159   27.4685 C   0  0  0  0  0  0  0  0  0  0  0  0
   12.3652  -24.9883   26.3251 N   0  0  0  0  0  0  0  0  0  0  0  0
   13.7000  -25.0527   26.2063 C   0  0  0  0  0  0  0  0  0  0  0  0
   14.2099  -24.4282   27.2625 N   0  0  0  0  0  0  0  0  0  0  0  0
   12.3260  -21.6145   30.8976 C   0  0  0  0  0  0  0  0  0  0  0  0
   12.2671  -22.3928   32.0160 O   0  0  0  0  0  0  0  0  0  0  0  0
   12.4032  -20.3730   31.0074 O   0  0  0  0  0  0  0  0  0  0  0  0
  2  1  1  6
  2  3  1  0
  2  4  1  0
  4  5  1  6
  6  4  1  0
  6  8  1  0
  7  6  2  0
  9  8  1  0
  9 12  1  0
  9 10  1  1
 11 10  1  0
 12 14  1  0
 13 12  2  0
 14 15  1  0
 15 22  1  0
 15 16  1  6
 16 17  1  0
 17 21  1  0
 18 17  2  0
 18 19  1  0
 19 20  1  0
 21 20  2  0
 22 23  1  0
 24 22  2  0
M  END
$$$$
