TCH.pdb
     RDKit          3D

 24 24  0  0  1  0  0  0  0  0999 V2000
   10.5679  -13.7307   17.4490 C   0  0  0  0  0  0  0  0  0  0  0  0
   10.1660  -14.1966   18.8230 C   0  0  1  0  0  0  0  0  0  0  0  0
   10.5881  -13.2738   19.7649 O   0  0  0  0  0  0  0  0  0  0  0  0
    8.6607  -14.3026   18.9181 C   0  0  2  0  0  0  0  0  0  0  0  0
    8.0901  -13.0191   18.6573 N   0  0  0  0  0  0  0  0  0  0  0  0
    8.2583  -14.8546   20.2283 C   0  0  0  0  0  0  0  0  0  0  0  0
    7.6909  -14.0397   21.0302 O   0  0  0  0  0  0  0  0  0  0  0  0
    8.4796  -16.2077   20.5949 N   0  0  0  0  0  0  0  0  0  0  0  0
    8.2588  -16.6141   21.9392 C   0  0  1  0  0  0  0  0  0  0  0  0
    8.2658  -18.1255   22.0419 C   0  0  0  0  0  0  0  0  0  0  0  0
    9.7757  -18.8338   21.3853 S   0  0  0  0  0  0  0  0  0  0  0  0
    9.2183  -16.0005   22.9000 C   0  0  0  0  0  0  0  0  0  0  0  0
    9.9451  -15.0241   22.5819 O   0  0  0  0  0  0  0  0  0  0  0  0
    9.3768  -16.4751   24.2353 N   0  0  0  0  0  0  0  0  0  0  0  0
    8.8657  -15.7884   25.3896 C   0  0  1  0  0  0  0  0  0  0  0  0
    7.4516  -15.3009   25.2039 C   0  0  0  0  0  0  0  0  0  0  0  0
    7.2001  -14.0087   25.8664 C   0  0  0  0  0  0  0  0  0  0  0  0
    8.1176  -13.2659   26.5734 C   0  0  0  0  0  0  0  0  0  0  0  0
    7.4745  -12.1491   27.0151 N   0  0  0  0  0  0  0  0  0  0  0  0
    6.1990  -12.1884   26.6010 C   0  0  0  0  0  0  0  0  0  0  0  0
    6.0539  -13.3150   25.9115 N   0  0  0  0  0  0  0  0  0  0  0  0
    9.0475  -16.5491   26.6413 C   0  0  0  0  0  0  0  0  0  0  0  0
    8.5213  -17.7970   26.8036 O   0  0  0  0  0  0  0  0  0  0  0  0
    9.7017  -16.0251   27.5669 O   0  0  0  0  0  0  0  0  0  0  0  0
  2  1  1  6
  2  3  1  0
  2  4  1  0
  4  5  1  1
  6  4  1  0
  6  8  1  0
  7  6  2  0
  9  8  1  0
  9 12  1  0
  9 10  1  6
 11 10  1  0
 12 14  1  0
 13 12  2  0
 14 15  1  0
 15 22  1  0
 15 16  1  6
 16 17  1  0
 17 21  1  0
 18 17  2  0
 18 19  1  0
 19 20  1  0
 21 20  2  0
 22 23  1  0
 24 22  2  0
M  END
$$$$
