TCH.pdb
     RDKit          3D

 24 24  0  0  1  0  0  0  0  0999 V2000
    8.8672  -12.6214   20.2648 C   0  0  0  0  0  0  0  0  0  0  0  0
    8.2117  -13.1029   18.9980 C   0  0  1  0  0  0  0  0  0  0  0  0
    8.4506  -12.1944   17.9808 O   0  0  0  0  0  0  0  0  0  0  0  0
    8.7975  -14.4328   18.5805 C   0  0  2  0  0  0  0  0  0  0  0  0
    8.2264  -14.8162   17.3284 N   0  0  0  0  0  0  0  0  0  0  0  0
    8.5976  -15.4458   19.6373 C   0  0  0  0  0  0  0  0  0  0  0  0
    7.5545  -16.1733   19.5273 O   0  0  0  0  0  0  0  0  0  0  0  0
    9.4988  -15.6177   20.7201 N   0  0  0  0  0  0  0  0  0  0  0  0
    9.2777  -16.6649   21.6558 C   0  0  1  0  0  0  0  0  0  0  0  0
   10.1538  -17.8573   21.3306 C   0  0  0  0  0  0  0  0  0  0  0  0
   11.8955  -17.4350   21.3571 S   0  0  0  0  0  0  0  0  0  0  0  0
    9.4547  -16.2313   23.0703 C   0  0  0  0  0  0  0  0  0  0  0  0
   10.2537  -15.3133   23.3895 O   0  0  0  0  0  0  0  0  0  0  0  0
    8.7358  -16.8230   24.1503 N   0  0  0  0  0  0  0  0  0  0  0  0
    8.8616  -16.3981   25.5174 C   0  0  1  0  0  0  0  0  0  0  0  0
    7.5470  -15.9813   26.1255 C   0  0  0  0  0  0  0  0  0  0  0  0
    7.1523  -14.6113   25.7519 C   0  0  0  0  0  0  0  0  0  0  0  0
    7.8897  -13.7319   24.9927 C   0  0  0  0  0  0  0  0  0  0  0  0
    7.1621  -12.5848   24.8881 N   0  0  0  0  0  0  0  0  0  0  0  0
    6.0093  -12.7376   25.5572 C   0  0  0  0  0  0  0  0  0  0  0  0
    6.0226  -13.9635   26.0697 N   0  0  0  0  0  0  0  0  0  0  0  0
    9.5981  -17.3635   26.3565 C   0  0  0  0  0  0  0  0  0  0  0  0
    9.9348  -17.0792   27.6473 O   0  0  0  0  0  0  0  0  0  0  0  0
    9.9146  -18.4644   25.8594 O   0  0  0  0  0  0  0  0  0  0  0  0
  2  1  1  1
  2  3  1  0
  2  4  1  0
  4  5  1  6
  6  4  1  0
  6  8  1  0
  7  6  2  0
  9  8  1  0
  9 12  1  0
  9 10  1  6
 11 10  1  0
 12 14  1  0
 13 12  2  0
 14 15  1  0
 15 22  1  0
 15 16  1  1
 16 17  1  0
 17 21  1  0
 18 17  2  0
 18 19  1  0
 19 20  1  0
 21 20  2  0
 22 23  1  0
 24 22  2  0
M  END
$$$$
