TCH.pdb
     RDKit          3D

 24 24  0  0  1  0  0  0  0  0999 V2000
    6.9002  -16.0962   21.1991 C   0  0  0  0  0  0  0  0  0  0  0  0
    7.6832  -15.0074   20.5152 C   0  0  1  0  0  0  0  0  0  0  0  0
    7.3519  -14.9754   19.1712 O   0  0  0  0  0  0  0  0  0  0  0  0
    7.3362  -13.6621   21.1117 C   0  0  2  0  0  0  0  0  0  0  0  0
    7.7529  -12.6358   20.2095 N   0  0  0  0  0  0  0  0  0  0  0  0
    7.9292  -13.5194   22.4575 C   0  0  0  0  0  0  0  0  0  0  0  0
    8.6122  -12.4604   22.6604 O   0  0  0  0  0  0  0  0  0  0  0  0
    7.7623  -14.4898   23.4796 N   0  0  0  0  0  0  0  0  0  0  0  0
    7.8154  -14.0878   24.8422 C   0  0  1  0  0  0  0  0  0  0  0  0
    6.9337  -12.8772   25.0704 C   0  0  0  0  0  0  0  0  0  0  0  0
    7.0641  -12.2613   26.7486 S   0  0  0  0  0  0  0  0  0  0  0  0
    7.4814  -15.1886   25.7893 C   0  0  0  0  0  0  0  0  0  0  0  0
    6.3149  -15.6492   25.8888 O   0  0  0  0  0  0  0  0  0  0  0  0
    8.4541  -15.7902   26.6409 N   0  0  0  0  0  0  0  0  0  0  0  0
    8.9197  -17.1410   26.4872 C   0  0  1  0  0  0  0  0  0  0  0  0
    9.2341  -17.4939   25.0560 C   0  0  0  0  0  0  0  0  0  0  0  0
    8.1278  -18.1984   24.3839 C   0  0  0  0  0  0  0  0  0  0  0  0
    6.9210  -18.5420   24.9488 C   0  0  0  0  0  0  0  0  0  0  0  0
    6.1937  -19.1754   23.9866 N   0  0  0  0  0  0  0  0  0  0  0  0
    6.9169  -19.2281   22.8578 C   0  0  0  0  0  0  0  0  0  0  0  0
    8.0772  -18.6349   23.1174 N   0  0  0  0  0  0  0  0  0  0  0  0
   10.0169  -17.4824   27.4135 C   0  0  0  0  0  0  0  0  0  0  0  0
   11.1615  -16.7430   27.4711 O   0  0  0  0  0  0  0  0  0  0  0  0
    9.8805  -18.4759   28.1576 O   0  0  0  0  0  0  0  0  0  0  0  0
  2  1  1  1
  2  3  1  0
  2  4  1  0
  4  5  1  6
  6  4  1  0
  6  8  1  0
  7  6  2  0
  9  8  1  0
  9 12  1  0
  9 10  1  6
 11 10  1  0
 12 14  1  0
 13 12  2  0
 14 15  1  0
 15 22  1  0
 15 16  1  6
 16 17  1  0
 17 21  1  0
 18 17  2  0
 18 19  1  0
 19 20  1  0
 21 20  2  0
 22 23  1  0
 24 22  2  0
M  END
$$$$
