TCH.pdb
     RDKit          3D

 24 24  0  0  1  0  0  0  0  0999 V2000
   12.9395  -18.2986   14.0627 C   0  0  0  0  0  0  0  0  0  0  0  0
   12.6554  -16.9886   13.3776 C   0  0  1  0  0  0  0  0  0  0  0  0
   12.6987  -17.1667   12.0051 O   0  0  0  0  0  0  0  0  0  0  0  0
   11.2709  -16.5003   13.7394 C   0  0  2  0  0  0  0  0  0  0  0  0
   10.9597  -15.3592   12.9381 N   0  0  0  0  0  0  0  0  0  0  0  0
   11.1759  -16.2278   15.1885 C   0  0  0  0  0  0  0  0  0  0  0  0
   11.8119  -15.2045   15.6099 O   0  0  0  0  0  0  0  0  0  0  0  0
   10.4277  -17.0420   16.0780 N   0  0  0  0  0  0  0  0  0  0  0  0
   10.4373  -16.7512   17.4696 C   0  0  1  0  0  0  0  0  0  0  0  0
    9.0455  -16.8986   18.0495 C   0  0  0  0  0  0  0  0  0  0  0  0
    9.0435  -16.7344   19.8344 S   0  0  0  0  0  0  0  0  0  0  0  0
   11.4302  -17.5623   18.2288 C   0  0  0  0  0  0  0  0  0  0  0  0
   11.0910  -18.5708   18.9001 O   0  0  0  0  0  0  0  0  0  0  0  0
   12.8220  -17.2527   18.2460 N   0  0  0  0  0  0  0  0  0  0  0  0
   13.5899  -17.1069   19.4519 C   0  0  1  0  0  0  0  0  0  0  0  0
   13.8951  -15.6685   19.7828 C   0  0  0  0  0  0  0  0  0  0  0  0
   14.6966  -14.9995   18.7425 C   0  0  0  0  0  0  0  0  0  0  0  0
   15.2132  -15.5880   17.6110 C   0  0  0  0  0  0  0  0  0  0  0  0
   15.8834  -14.6199   16.9258 N   0  0  0  0  0  0  0  0  0  0  0  0
   15.7915  -13.4647   17.6020 C   0  0  0  0  0  0  0  0  0  0  0  0
   15.0736  -13.7141   18.6919 N   0  0  0  0  0  0  0  0  0  0  0  0
   13.0173  -17.8462   20.5939 C   0  0  0  0  0  0  0  0  0  0  0  0
   13.7488  -18.7594   21.2948 O   0  0  0  0  0  0  0  0  0  0  0  0
   11.8322  -17.6200   20.9155 O   0  0  0  0  0  0  0  0  0  0  0  0
  2  1  1  1
  2  3  1  0
  2  4  1  0
  4  5  1  6
  6  4  1  0
  6  8  1  0
  7  6  2  0
  9  8  1  0
  9 12  1  0
  9 10  1  1
 11 10  1  0
 12 14  1  0
 13 12  2  0
 14 15  1  0
 15 22  1  0
 15 16  1  1
 16 17  1  0
 17 21  1  0
 18 17  2  0
 18 19  1  0
 19 20  1  0
 21 20  2  0
 22 23  1  0
 24 22  2  0
M  END
$$$$
