TCH.pdb
     RDKit          3D

 24 24  0  0  1  0  0  0  0  0999 V2000
    8.5015  -12.7274   19.9640 C   0  0  0  0  0  0  0  0  0  0  0  0
    8.0602  -13.2501   18.6230 C   0  0  1  0  0  0  0  0  0  0  0  0
    8.2919  -12.2885   17.6540 O   0  0  0  0  0  0  0  0  0  0  0  0
    8.8566  -14.4816   18.2555 C   0  0  2  0  0  0  0  0  0  0  0  0
    8.4599  -14.9165   16.9538 N   0  0  0  0  0  0  0  0  0  0  0  0
    8.6997  -15.5306   19.2842 C   0  0  0  0  0  0  0  0  0  0  0  0
    7.9112  -16.4906   18.9911 O   0  0  0  0  0  0  0  0  0  0  0  0
    9.3758  -15.4936   20.5315 N   0  0  0  0  0  0  0  0  0  0  0  0
    9.2479  -16.5878   21.4300 C   0  0  1  0  0  0  0  0  0  0  0  0
   10.1398  -17.7334   20.9974 C   0  0  0  0  0  0  0  0  0  0  0  0
   11.8711  -17.2695   20.9948 S   0  0  0  0  0  0  0  0  0  0  0  0
    9.4996  -16.2104   22.8494 C   0  0  0  0  0  0  0  0  0  0  0  0
   10.3016  -15.2927   23.1613 O   0  0  0  0  0  0  0  0  0  0  0  0
    8.8531  -16.8591   23.9424 N   0  0  0  0  0  0  0  0  0  0  0  0
    9.0948  -16.5282   25.3198 C   0  0  1  0  0  0  0  0  0  0  0  0
    7.8402  -16.1380   26.0583 C   0  0  0  0  0  0  0  0  0  0  0  0
    7.3794  -14.7783   25.7253 C   0  0  0  0  0  0  0  0  0  0  0  0
    7.9966  -13.8991   24.8653 C   0  0  0  0  0  0  0  0  0  0  0  0
    7.2449  -12.7631   24.8456 N   0  0  0  0  0  0  0  0  0  0  0  0
    6.1933  -12.9223   25.6634 C   0  0  0  0  0  0  0  0  0  0  0  0
    6.2924  -14.1412   26.1831 N   0  0  0  0  0  0  0  0  0  0  0  0
    9.8797  -17.5559   26.0313 C   0  0  0  0  0  0  0  0  0  0  0  0
   10.2866  -17.3804   27.3212 O   0  0  0  0  0  0  0  0  0  0  0  0
   10.1715  -18.6078   25.4249 O   0  0  0  0  0  0  0  0  0  0  0  0
  2  1  1  1
  2  3  1  0
  2  4  1  0
  4  5  1  6
  6  4  1  0
  6  8  1  0
  7  6  2  0
  9  8  1  0
  9 12  1  0
  9 10  1  6
 11 10  1  0
 12 14  1  0
 13 12  2  0
 14 15  1  0
 15 22  1  0
 15 16  1  1
 16 17  1  0
 17 21  1  0
 18 17  2  0
 18 19  1  0
 19 20  1  0
 21 20  2  0
 22 23  1  0
 24 22  2  0
M  END
$$$$
