TCH.pdb
     RDKit          3D

 24 24  0  0  1  0  0  0  0  0999 V2000
    9.0577  -12.2843   19.0998 C   0  0  0  0  0  0  0  0  0  0  0  0
    8.3772  -13.3581   18.2935 C   0  0  1  0  0  0  0  0  0  0  0  0
    7.4001  -12.7868   17.4960 O   0  0  0  0  0  0  0  0  0  0  0  0
    9.3759  -14.0417   17.3872 C   0  0  2  0  0  0  0  0  0  0  0  0
    8.6743  -14.9240   16.5095 N   0  0  0  0  0  0  0  0  0  0  0  0
   10.4161  -14.7281   18.1808 C   0  0  0  0  0  0  0  0  0  0  0  0
   10.1060  -15.8794   18.6364 O   0  0  0  0  0  0  0  0  0  0  0  0
   11.6918  -14.1601   18.4342 N   0  0  0  0  0  0  0  0  0  0  0  0
   12.6176  -14.8569   19.2577 C   0  0  1  0  0  0  0  0  0  0  0  0
   13.9753  -14.1864   19.2105 C   0  0  0  0  0  0  0  0  0  0  0  0
   14.8117  -14.4779   17.6523 S   0  0  0  0  0  0  0  0  0  0  0  0
   12.1425  -15.0220   20.6603 C   0  0  0  0  0  0  0  0  0  0  0  0
   11.1615  -14.3758   21.1106 O   0  0  0  0  0  0  0  0  0  0  0  0
   12.7630  -15.9172   21.5807 N   0  0  0  0  0  0  0  0  0  0  0  0
   12.0592  -16.5786   22.6447 C   0  0  1  0  0  0  0  0  0  0  0  0
   10.7872  -17.2425   22.1830 C   0  0  0  0  0  0  0  0  0  0  0  0
    9.6200  -16.3445   22.2389 C   0  0  0  0  0  0  0  0  0  0  0  0
    9.6246  -15.0305   22.6476 C   0  0  0  0  0  0  0  0  0  0  0  0
    8.3450  -14.5743   22.5450 N   0  0  0  0  0  0  0  0  0  0  0  0
    7.5644  -15.5653   22.0884 C   0  0  0  0  0  0  0  0  0  0  0  0
    8.3503  -16.6218   21.9104 N   0  0  0  0  0  0  0  0  0  0  0  0
   12.9206  -17.4814   23.4331 C   0  0  0  0  0  0  0  0  0  0  0  0
   12.9610  -17.4239   24.7952 O   0  0  0  0  0  0  0  0  0  0  0  0
   13.6249  -18.3139   22.8247 O   0  0  0  0  0  0  0  0  0  0  0  0
  2  1  1  6
  2  3  1  0
  2  4  1  0
  4  5  1  1
  6  4  1  0
  6  8  1  0
  7  6  2  0
  9  8  1  0
  9 12  1  0
  9 10  1  1
 11 10  1  0
 12 14  1  0
 13 12  2  0
 14 15  1  0
 15 22  1  0
 15 16  1  6
 16 17  1  0
 17 21  1  0
 18 17  2  0
 18 19  1  0
 19 20  1  0
 21 20  2  0
 22 23  1  0
 24 22  2  0
M  END
$$$$
