TCH.pdb
     RDKit          3D

 24 24  0  0  1  0  0  0  0  0999 V2000
    7.9182  -18.4555   16.5820 C   0  0  0  0  0  0  0  0  0  0  0  0
    9.2083  -18.1527   15.8676 C   0  0  1  0  0  0  0  0  0  0  0  0
    9.1201  -18.5818   14.5542 O   0  0  0  0  0  0  0  0  0  0  0  0
    9.4591  -16.6617   15.8537 C   0  0  2  0  0  0  0  0  0  0  0  0
   10.5679  -16.3882   14.9954 N   0  0  0  0  0  0  0  0  0  0  0  0
    9.6563  -16.1529   17.2268 C   0  0  0  0  0  0  0  0  0  0  0  0
   10.7554  -16.4727   17.7913 O   0  0  0  0  0  0  0  0  0  0  0  0
    8.6940  -15.3542   17.8978 N   0  0  0  0  0  0  0  0  0  0  0  0
    8.9365  -14.9429   19.2369 C   0  0  1  0  0  0  0  0  0  0  0  0
    7.9012  -13.9264   19.6728 C   0  0  0  0  0  0  0  0  0  0  0  0
    7.9086  -12.4723   18.6249 S   0  0  0  0  0  0  0  0  0  0  0  0
    9.0135  -16.0831   20.1932 C   0  0  0  0  0  0  0  0  0  0  0  0
    8.8642  -17.2752   19.8200 O   0  0  0  0  0  0  0  0  0  0  0  0
    9.2600  -15.9016   21.5859 N   0  0  0  0  0  0  0  0  0  0  0  0
   10.3082  -16.5743   22.3027 C   0  0  1  0  0  0  0  0  0  0  0  0
   11.6756  -16.3120   21.7256 C   0  0  0  0  0  0  0  0  0  0  0  0
   12.1936  -17.4476   20.9419 C   0  0  0  0  0  0  0  0  0  0  0  0
   11.5380  -18.6326   20.6978 C   0  0  0  0  0  0  0  0  0  0  0  0
   12.3678  -19.4006   19.9378 N   0  0  0  0  0  0  0  0  0  0  0  0
   13.5036  -18.7232   19.7123 C   0  0  0  0  0  0  0  0  0  0  0  0
   13.3791  -17.5506   20.3247 N   0  0  0  0  0  0  0  0  0  0  0  0
   10.2501  -16.3456   23.7597 C   0  0  0  0  0  0  0  0  0  0  0  0
   10.5134  -15.1228   24.3035 O   0  0  0  0  0  0  0  0  0  0  0  0
    9.9511  -17.3046   24.5015 O   0  0  0  0  0  0  0  0  0  0  0  0
  2  1  1  1
  2  3  1  0
  2  4  1  0
  4  5  1  6
  6  4  1  0
  6  8  1  0
  7  6  2  0
  9  8  1  0
  9 12  1  0
  9 10  1  1
 11 10  1  0
 12 14  1  0
 13 12  2  0
 14 15  1  0
 15 22  1  0
 15 16  1  6
 16 17  1  0
 17 21  1  0
 18 17  2  0
 18 19  1  0
 19 20  1  0
 21 20  2  0
 22 23  1  0
 24 22  2  0
M  END
$$$$
