YQE.pdb
     RDKit          3D

 31 31  0  0  1  0  0  0  0  0999 V2000
    8.6444  -12.8091   16.9553 O   0  0  0  0  0  0  0  0  0  0  0  0
    8.2586  -13.1660   18.2521 C   0  0  0  0  0  0  0  0  0  0  0  0
    8.6249  -12.3512   19.3110 C   0  0  0  0  0  0  0  0  0  0  0  0
    8.2274  -12.7290   20.5990 C   0  0  0  0  0  0  0  0  0  0  0  0
    7.5006  -13.8629   20.8209 C   0  0  0  0  0  0  0  0  0  0  0  0
    7.0978  -14.2325   22.1845 C   0  0  0  0  0  0  0  0  0  0  0  0
    8.3262  -14.8789   22.8442 C   0  0  2  0  0  0  0  0  0  0  0  0
    8.8648  -15.8589   21.9354 N   0  0  0  0  0  0  0  0  0  0  0  0
    7.8311  -15.5414   24.0593 C   0  0  0  0  0  0  0  0  0  0  0  0
    7.3399  -14.8570   24.9710 O   0  0  0  0  0  0  0  0  0  0  0  0
    7.1504  -14.6531   19.7550 C   0  0  0  0  0  0  0  0  0  0  0  0
    7.5222  -14.3212   18.4469 C   0  0  0  0  0  0  0  0  0  0  0  0
    5.9231  -20.8365   23.1585 N   0  0  0  0  0  0  0  0  0  0  0  0
    5.4549  -19.5547   22.8369 C   0  0  0  0  0  0  0  0  0  0  0  0
    4.8064  -19.3788   21.7838 O   0  0  0  0  0  0  0  0  0  0  0  0
    5.6958  -18.3401   23.7140 C   0  0  0  0  0  0  0  0  0  0  0  0
    6.4959  -18.7484   24.9101 C   0  0  0  0  0  0  0  0  0  0  0  0
    7.4460  -17.6921   25.3447 C   0  0  2  0  0  0  0  0  0  0  0  0
    7.9164  -16.9347   24.1799 N   0  0  0  0  0  0  0  0  0  0  0  0
    8.6300  -18.2647   26.0045 C   0  0  0  0  0  0  0  0  0  0  0  0
    8.4569  -19.3182   26.7101 O   0  0  0  0  0  0  0  0  0  0  0  0
    9.9242  -17.7087   25.8835 N   0  0  0  0  0  0  0  0  0  0  0  0
   11.0302  -18.3702   26.6315 C   0  0  1  0  0  0  0  0  0  0  0  0
   12.2640  -17.8961   25.9499 C   0  0  0  0  0  0  0  0  0  0  0  0
   12.2250  -17.8805   24.4678 C   0  0  0  0  0  0  0  0  0  0  0  0
   13.5051  -17.5039   23.8361 C   0  0  0  0  0  0  0  0  0  0  0  0
   13.8967  -16.2998   23.8677 O   0  0  0  0  0  0  0  0  0  0  0  0
   10.8916  -18.1272   28.0578 C   0  0  0  0  0  0  0  0  0  0  0  0
   10.0772  -17.2277   28.4596 O   0  0  0  0  0  0  0  0  0  0  0  0
   14.3172  -18.4599   23.1951 O   0  0  0  0  0  0  0  0  0  0  0  0
   11.5633  -18.7930   29.0610 O   0  0  0  0  0  0  0  0  0  0  0  0
  2  3  2  0
  2  1  1  0
  4  3  1  0
  5  4  2  0
  6  5  1  0
  7  6  1  0
  7  8  1  6
  9  7  1  0
  9 10  2  0
 11  5  1  0
 11 12  2  0
 12  2  1  0
 13 14  1  0
 14 15  2  0
 14 16  1  0
 16 17  1  0
 18 17  1  6
 18 19  1  0
 19  9  1  0
 20 18  1  0
 21 20  2  0
 22 20  1  0
 23 22  1  0
 23 28  1  0
 23 24  1  6
 25 24  1  0
 26 25  1  0
 27 26  2  0
 28 31  1  0
 29 28  2  0
 30 26  1  0
M  END
$$$$
