YQE.pdb
     RDKit          3D

 31 31  0  0  1  0  0  0  0  0999 V2000
    9.5066  -14.5854   30.3855 O   0  0  0  0  0  0  0  0  0  0  0  0
    9.0656  -14.3471   29.0790 C   0  0  0  0  0  0  0  0  0  0  0  0
    7.9325  -13.5747   28.8822 C   0  0  0  0  0  0  0  0  0  0  0  0
    7.5108  -13.3502   27.5662 C   0  0  0  0  0  0  0  0  0  0  0  0
    8.1850  -13.8698   26.4991 C   0  0  0  0  0  0  0  0  0  0  0  0
    7.7178  -13.6159   25.1296 C   0  0  0  0  0  0  0  0  0  0  0  0
    6.8872  -14.8411   24.7160 C   0  0  2  0  0  0  0  0  0  0  0  0
    7.0163  -15.8434   25.7432 N   0  0  0  0  0  0  0  0  0  0  0  0
    7.4819  -15.3285   23.4632 C   0  0  0  0  0  0  0  0  0  0  0  0
    7.5297  -16.5495   23.2443 O   0  0  0  0  0  0  0  0  0  0  0  0
    9.3047  -14.6317   26.7210 C   0  0  0  0  0  0  0  0  0  0  0  0
    9.7692  -14.8867   28.0167 C   0  0  0  0  0  0  0  0  0  0  0  0
    5.8324  -15.1937   19.1165 N   0  0  0  0  0  0  0  0  0  0  0  0
    6.8315  -14.2531   18.8293 C   0  0  0  0  0  0  0  0  0  0  0  0
    7.3704  -14.2471   17.7023 O   0  0  0  0  0  0  0  0  0  0  0  0
    7.3076  -13.2177   19.8312 C   0  0  0  0  0  0  0  0  0  0  0  0
    8.6539  -13.6157   20.3474 C   0  0  0  0  0  0  0  0  0  0  0  0
    8.5903  -14.7970   21.2463 C   0  0  2  0  0  0  0  0  0  0  0  0
    7.9885  -14.4159   22.5285 N   0  0  0  0  0  0  0  0  0  0  0  0
    9.9298  -15.3350   21.5316 C   0  0  0  0  0  0  0  0  0  0  0  0
   10.6544  -14.6927   22.3684 O   0  0  0  0  0  0  0  0  0  0  0  0
   10.4307  -16.5136   20.9329 N   0  0  0  0  0  0  0  0  0  0  0  0
   11.8144  -16.9338   21.2924 C   0  0  1  0  0  0  0  0  0  0  0  0
   11.6478  -18.3102   21.8304 C   0  0  0  0  0  0  0  0  0  0  0  0
   10.9203  -18.4234   23.1173 C   0  0  0  0  0  0  0  0  0  0  0  0
   10.8574  -19.7972   23.6542 C   0  0  0  0  0  0  0  0  0  0  0  0
   11.5266  -20.1056   24.6844 O   0  0  0  0  0  0  0  0  0  0  0  0
   12.7112  -16.7359   20.1658 C   0  0  0  0  0  0  0  0  0  0  0  0
   12.2194  -16.6194   18.9918 O   0  0  0  0  0  0  0  0  0  0  0  0
   10.0591  -20.7870   23.0480 O   0  0  0  0  0  0  0  0  0  0  0  0
   14.0857  -16.6493   20.2313 O   0  0  0  0  0  0  0  0  0  0  0  0
  2  3  2  0
  2  1  1  0
  4  3  1  0
  5  4  2  0
  6  5  1  0
  7  6  1  0
  7  8  1  1
  9  7  1  0
  9 10  2  0
 11  5  1  0
 11 12  2  0
 12  2  1  0
 13 14  1  0
 14 15  2  0
 14 16  1  0
 16 17  1  0
 18 17  1  6
 18 19  1  0
 19  9  1  0
 20 18  1  0
 21 20  2  0
 22 20  1  0
 23 22  1  0
 23 28  1  0
 23 24  1  6
 25 24  1  0
 26 25  1  0
 27 26  2  0
 28 31  1  0
 29 28  2  0
 30 26  1  0
M  END
$$$$
