YQE.pdb
     RDKit          3D

 31 31  0  0  1  0  0  0  0  0999 V2000
    5.4273  -10.5983   28.1306 O   0  0  0  0  0  0  0  0  0  0  0  0
    6.0501  -11.6850   27.5068 C   0  0  0  0  0  0  0  0  0  0  0  0
    5.4867  -12.2136   26.3568 C   0  0  0  0  0  0  0  0  0  0  0  0
    6.1279  -13.3005   25.7507 C   0  0  0  0  0  0  0  0  0  0  0  0
    7.2740  -13.8344   26.2654 C   0  0  0  0  0  0  0  0  0  0  0  0
    7.9239  -14.9751   25.6060 C   0  0  0  0  0  0  0  0  0  0  0  0
    6.8151  -15.7477   24.8739 C   0  0  2  0  0  0  0  0  0  0  0  0
    6.4625  -16.8961   25.6697 N   0  0  0  0  0  0  0  0  0  0  0  0
    7.4006  -16.1834   23.5980 C   0  0  0  0  0  0  0  0  0  0  0  0
    7.7750  -17.3597   23.4678 O   0  0  0  0  0  0  0  0  0  0  0  0
    7.8119  -13.2926   27.4057 C   0  0  0  0  0  0  0  0  0  0  0  0
    7.2109  -12.2055   28.0512 C   0  0  0  0  0  0  0  0  0  0  0  0
    7.7175  -12.4019   18.4002 N   0  0  0  0  0  0  0  0  0  0  0  0
    8.2483  -13.6434   18.0232 C   0  0  0  0  0  0  0  0  0  0  0  0
    8.3420  -13.9345   16.8120 O   0  0  0  0  0  0  0  0  0  0  0  0
    8.7269  -14.6787   19.0241 C   0  0  0  0  0  0  0  0  0  0  0  0
    8.0765  -14.4215   20.3463 C   0  0  0  0  0  0  0  0  0  0  0  0
    8.2430  -15.5562   21.2909 C   0  0  2  0  0  0  0  0  0  0  0  0
    7.5318  -15.2721   22.5418 N   0  0  0  0  0  0  0  0  0  0  0  0
    9.6577  -15.7776   21.6297 C   0  0  0  0  0  0  0  0  0  0  0  0
   10.0856  -15.2704   22.7239 O   0  0  0  0  0  0  0  0  0  0  0  0
   10.5393  -16.5200   20.8110 N   0  0  0  0  0  0  0  0  0  0  0  0
   11.8679  -16.8813   21.3807 C   0  0  1  0  0  0  0  0  0  0  0  0
   11.5424  -17.5289   22.6793 C   0  0  0  0  0  0  0  0  0  0  0  0
   12.6884  -18.0939   23.4313 C   0  0  0  0  0  0  0  0  0  0  0  0
   12.3331  -18.6186   24.7647 C   0  0  0  0  0  0  0  0  0  0  0  0
   12.9199  -19.6455   25.2180 O   0  0  0  0  0  0  0  0  0  0  0  0
   12.6466  -17.6321   20.4098 C   0  0  0  0  0  0  0  0  0  0  0  0
   12.0381  -18.2837   19.4939 O   0  0  0  0  0  0  0  0  0  0  0  0
   11.3504  -17.9978   25.5605 O   0  0  0  0  0  0  0  0  0  0  0  0
   14.0222  -17.7133   20.3647 O   0  0  0  0  0  0  0  0  0  0  0  0
  2  3  2  0
  2  1  1  0
  4  3  1  0
  5  4  2  0
  6  5  1  0
  7  6  1  0
  7  8  1  1
  9  7  1  0
  9 10  2  0
 11  5  1  0
 11 12  2  0
 12  2  1  0
 13 14  1  0
 14 15  2  0
 14 16  1  0
 16 17  1  0
 18 17  1  6
 18 19  1  0
 19  9  1  0
 20 18  1  0
 21 20  2  0
 22 20  1  0
 23 22  1  0
 23 28  1  0
 23 24  1  1
 25 24  1  0
 26 25  1  0
 27 26  2  0
 28 31  1  0
 29 28  2  0
 30 26  1  0
M  END
$$$$
