YQE.pdb
     RDKit          3D

 31 31  0  0  1  0  0  0  0  0999 V2000
    5.8912  -10.6891   28.2076 O   0  0  0  0  0  0  0  0  0  0  0  0
    6.4315  -11.6286   27.3225 C   0  0  0  0  0  0  0  0  0  0  0  0
    6.7778  -12.8818   27.8010 C   0  0  0  0  0  0  0  0  0  0  0  0
    7.3165  -13.8047   26.8965 C   0  0  0  0  0  0  0  0  0  0  0  0
    7.5010  -13.4940   25.5802 C   0  0  0  0  0  0  0  0  0  0  0  0
    8.0682  -14.4845   24.6553 C   0  0  0  0  0  0  0  0  0  0  0  0
    6.8783  -15.1895   23.9848 C   0  0  2  0  0  0  0  0  0  0  0  0
    6.2242  -16.0109   24.9717 N   0  0  0  0  0  0  0  0  0  0  0  0
    7.4524  -16.0363   22.9294 C   0  0  0  0  0  0  0  0  0  0  0  0
    6.7845  -16.9762   22.4695 O   0  0  0  0  0  0  0  0  0  0  0  0
    7.1498  -12.2457   25.1312 C   0  0  0  0  0  0  0  0  0  0  0  0
    6.6072  -11.2857   25.9935 C   0  0  0  0  0  0  0  0  0  0  0  0
    8.7999  -15.1750   17.4721 N   0  0  0  0  0  0  0  0  0  0  0  0
    8.4276  -14.2745   18.4801 C   0  0  0  0  0  0  0  0  0  0  0  0
    8.2356  -13.0731   18.1967 O   0  0  0  0  0  0  0  0  0  0  0  0
    8.2401  -14.6836   19.9292 C   0  0  0  0  0  0  0  0  0  0  0  0
    8.5403  -16.1421   20.0710 C   0  0  0  0  0  0  0  0  0  0  0  0
    9.3402  -16.4413   21.2868 C   0  0  2  0  0  0  0  0  0  0  0  0
    8.7440  -15.7782   22.4514 N   0  0  0  0  0  0  0  0  0  0  0  0
   10.7222  -15.9518   21.1616 C   0  0  0  0  0  0  0  0  0  0  0  0
   10.9489  -14.7397   21.5036 O   0  0  0  0  0  0  0  0  0  0  0  0
   11.7857  -16.7573   20.6939 N   0  0  0  0  0  0  0  0  0  0  0  0
   13.1427  -16.4977   21.2522 C   0  0  1  0  0  0  0  0  0  0  0  0
   13.4954  -15.1480   20.7369 C   0  0  0  0  0  0  0  0  0  0  0  0
   13.8137  -15.0649   19.2913 C   0  0  0  0  0  0  0  0  0  0  0  0
   14.9063  -14.1259   18.9687 C   0  0  0  0  0  0  0  0  0  0  0  0
   15.9601  -14.1151   19.6714 O   0  0  0  0  0  0  0  0  0  0  0  0
   13.1468  -16.7116   22.6899 C   0  0  0  0  0  0  0  0  0  0  0  0
   12.0359  -16.7131   23.3221 O   0  0  0  0  0  0  0  0  0  0  0  0
   14.8111  -13.2330   17.8833 O   0  0  0  0  0  0  0  0  0  0  0  0
   14.2610  -16.9287   23.4724 O   0  0  0  0  0  0  0  0  0  0  0  0
  2  3  2  0
  2  1  1  0
  4  3  1  0
  5  4  2  0
  6  5  1  0
  7  6  1  0
  7  8  1  1
  9  7  1  0
  9 10  2  0
 11  5  1  0
 11 12  2  0
 12  2  1  0
 13 14  1  0
 14 15  2  0
 14 16  1  0
 16 17  1  0
 18 17  1  6
 18 19  1  0
 19  9  1  0
 20 18  1  0
 21 20  2  0
 22 20  1  0
 23 22  1  0
 23 28  1  0
 23 24  1  1
 25 24  1  0
 26 25  1  0
 27 26  2  0
 28 31  1  0
 29 28  2  0
 30 26  1  0
M  END
$$$$
