YQE.pdb
     RDKit          3D

 31 31  0  0  1  0  0  0  0  0999 V2000
    7.6588  -11.6111   17.8368 O   0  0  0  0  0  0  0  0  0  0  0  0
    7.8413  -12.4758   18.9217 C   0  0  0  0  0  0  0  0  0  0  0  0
    8.7252  -12.1170   19.9263 C   0  0  0  0  0  0  0  0  0  0  0  0
    8.8909  -12.9984   21.0013 C   0  0  0  0  0  0  0  0  0  0  0  0
    8.2095  -14.1790   21.0717 C   0  0  0  0  0  0  0  0  0  0  0  0
    8.4045  -15.0828   22.2134 C   0  0  0  0  0  0  0  0  0  0  0  0
    9.8161  -15.6732   22.0684 C   0  0  2  0  0  0  0  0  0  0  0  0
   10.0521  -15.9448   20.6731 N   0  0  0  0  0  0  0  0  0  0  0  0
    9.8084  -16.9310   22.8291 C   0  0  0  0  0  0  0  0  0  0  0  0
    9.4274  -16.9278   24.0106 O   0  0  0  0  0  0  0  0  0  0  0  0
    7.3396  -14.5112   20.0636 C   0  0  0  0  0  0  0  0  0  0  0  0
    7.1369  -13.6660   18.9662 C   0  0  0  0  0  0  0  0  0  0  0  0
   10.0471  -22.5915   20.0196 N   0  0  0  0  0  0  0  0  0  0  0  0
   10.1508  -22.9173   21.3793 C   0  0  0  0  0  0  0  0  0  0  0  0
   10.1774  -24.1165   21.7281 O   0  0  0  0  0  0  0  0  0  0  0  0
   10.2345  -21.8736   22.4775 C   0  0  0  0  0  0  0  0  0  0  0  0
   10.2031  -20.5100   21.8634 C   0  0  0  0  0  0  0  0  0  0  0  0
   10.2402  -19.4283   22.8812 C   0  0  2  0  0  0  0  0  0  0  0  0
   10.2292  -18.1197   22.2185 N   0  0  0  0  0  0  0  0  0  0  0  0
   11.4600  -19.4959   23.7013 C   0  0  0  0  0  0  0  0  0  0  0  0
   12.2568  -18.4956   23.6519 O   0  0  0  0  0  0  0  0  0  0  0  0
   11.7724  -20.5989   24.5285 N   0  0  0  0  0  0  0  0  0  0  0  0
   12.8999  -20.4407   25.4898 C   0  0  1  0  0  0  0  0  0  0  0  0
   12.4580  -19.3429   26.3906 C   0  0  0  0  0  0  0  0  0  0  0  0
   11.3824  -19.6824   27.3529 C   0  0  0  0  0  0  0  0  0  0  0  0
   11.2783  -18.7499   28.4926 C   0  0  0  0  0  0  0  0  0  0  0  0
   12.0967  -17.7893   28.6016 O   0  0  0  0  0  0  0  0  0  0  0  0
   13.2438  -21.7235   26.0806 C   0  0  0  0  0  0  0  0  0  0  0  0
   14.2550  -21.7993   26.8587 O   0  0  0  0  0  0  0  0  0  0  0  0
   10.2775  -18.8969   29.4730 O   0  0  0  0  0  0  0  0  0  0  0  0
   12.5664  -22.9092   25.8909 O   0  0  0  0  0  0  0  0  0  0  0  0
  2  3  2  0
  2  1  1  0
  4  3  1  0
  5  4  2  0
  6  5  1  0
  7  6  1  0
  7  8  1  6
  9  7  1  0
  9 10  2  0
 11  5  1  0
 11 12  2  0
 12  2  1  0
 13 14  1  0
 14 15  2  0
 14 16  1  0
 16 17  1  0
 18 17  1  6
 18 19  1  0
 19  9  1  0
 20 18  1  0
 21 20  2  0
 22 20  1  0
 23 22  1  0
 23 28  1  0
 23 24  1  1
 25 24  1  0
 26 25  1  0
 27 26  2  0
 28 31  1  0
 29 28  2  0
 30 26  1  0
M  END
$$$$
