YQE.pdb
     RDKit          3D

 31 31  0  0  1  0  0  0  0  0999 V2000
    8.7331  -11.7321   19.3441 O   0  0  0  0  0  0  0  0  0  0  0  0
    8.0203  -12.8239   19.8523 C   0  0  0  0  0  0  0  0  0  0  0  0
    7.5813  -13.8057   18.9790 C   0  0  0  0  0  0  0  0  0  0  0  0
    6.8704  -14.8881   19.5109 C   0  0  0  0  0  0  0  0  0  0  0  0
    6.6098  -14.9872   20.8471 C   0  0  0  0  0  0  0  0  0  0  0  0
    5.8616  -16.1358   21.3752 C   0  0  0  0  0  0  0  0  0  0  0  0
    6.8744  -17.2800   21.5401 C   0  0  2  0  0  0  0  0  0  0  0  0
    6.1449  -18.4987   21.7831 N   0  0  0  0  0  0  0  0  0  0  0  0
    7.6835  -16.9372   22.7184 C   0  0  0  0  0  0  0  0  0  0  0  0
    8.4745  -15.9823   22.6592 O   0  0  0  0  0  0  0  0  0  0  0  0
    7.0557  -14.0012   21.6912 C   0  0  0  0  0  0  0  0  0  0  0  0
    7.7710  -12.8977   21.2114 C   0  0  0  0  0  0  0  0  0  0  0  0
    6.3412  -19.3936   28.3596 N   0  0  0  0  0  0  0  0  0  0  0  0
    7.2848  -20.1099   27.6099 C   0  0  0  0  0  0  0  0  0  0  0  0
    7.5367  -21.2975   27.9042 O   0  0  0  0  0  0  0  0  0  0  0  0
    8.0356  -19.5126   26.4343 C   0  0  0  0  0  0  0  0  0  0  0  0
    7.6435  -18.0775   26.2786 C   0  0  0  0  0  0  0  0  0  0  0  0
    8.3156  -17.4278   25.1237 C   0  0  2  0  0  0  0  0  0  0  0  0
    7.5572  -17.6870   23.8952 N   0  0  0  0  0  0  0  0  0  0  0  0
    9.6750  -17.9531   24.9206 C   0  0  0  0  0  0  0  0  0  0  0  0
    9.7909  -19.0410   24.2568 O   0  0  0  0  0  0  0  0  0  0  0  0
   10.8321  -17.3091   25.4156 N   0  0  0  0  0  0  0  0  0  0  0  0
   12.1436  -17.9780   25.1860 C   0  0  1  0  0  0  0  0  0  0  0  0
   12.8295  -17.1030   24.1982 C   0  0  0  0  0  0  0  0  0  0  0  0
   14.1838  -16.6316   24.5749 C   0  0  0  0  0  0  0  0  0  0  0  0
   15.1030  -16.4663   23.4315 C   0  0  0  0  0  0  0  0  0  0  0  0
   15.7219  -15.3732   23.2695 O   0  0  0  0  0  0  0  0  0  0  0  0
   12.8053  -18.2411   26.4531 C   0  0  0  0  0  0  0  0  0  0  0  0
   13.8861  -18.9234   26.4610 O   0  0  0  0  0  0  0  0  0  0  0  0
   15.3184  -17.5061   22.5059 O   0  0  0  0  0  0  0  0  0  0  0  0
   12.3805  -17.8110   27.6923 O   0  0  0  0  0  0  0  0  0  0  0  0
  2  3  2  0
  2  1  1  0
  4  3  1  0
  5  4  2  0
  6  5  1  0
  7  6  1  0
  7  8  1  1
  9  7  1  0
  9 10  2  0
 11  5  1  0
 11 12  2  0
 12  2  1  0
 13 14  1  0
 14 15  2  0
 14 16  1  0
 16 17  1  0
 18 17  1  1
 18 19  1  0
 19  9  1  0
 20 18  1  0
 21 20  2  0
 22 20  1  0
 23 22  1  0
 23 28  1  0
 23 24  1  6
 25 24  1  0
 26 25  1  0
 27 26  2  0
 28 31  1  0
 29 28  2  0
 30 26  1  0
M  END
$$$$
