YQE.pdb
     RDKit          3D

 31 31  0  0  1  0  0  0  0  0999 V2000
    5.2662  -10.5892   28.1455 O   0  0  0  0  0  0  0  0  0  0  0  0
    5.9611  -11.5404   27.3903 C   0  0  0  0  0  0  0  0  0  0  0  0
    6.9009  -12.3416   28.0182 C   0  0  0  0  0  0  0  0  0  0  0  0
    7.5831  -13.2859   27.2418 C   0  0  0  0  0  0  0  0  0  0  0  0
    7.3409  -13.4249   25.9057 C   0  0  0  0  0  0  0  0  0  0  0  0
    8.0730  -14.4256   25.1178 C   0  0  0  0  0  0  0  0  0  0  0  0
    7.0216  -15.1986   24.3059 C   0  0  2  0  0  0  0  0  0  0  0  0
    6.4695  -16.2306   25.1465 N   0  0  0  0  0  0  0  0  0  0  0  0
    7.7458  -15.8045   23.1794 C   0  0  0  0  0  0  0  0  0  0  0  0
    8.0957  -16.9936   23.2469 O   0  0  0  0  0  0  0  0  0  0  0  0
    6.4049  -12.6190   25.3075 C   0  0  0  0  0  0  0  0  0  0  0  0
    5.6945  -11.6588   26.0377 C   0  0  0  0  0  0  0  0  0  0  0  0
    7.2463  -12.8054   18.5145 N   0  0  0  0  0  0  0  0  0  0  0  0
    7.6927  -13.9942   17.9205 C   0  0  0  0  0  0  0  0  0  0  0  0
    7.2394  -14.3388   16.8086 O   0  0  0  0  0  0  0  0  0  0  0  0
    8.7184  -14.9083   18.5646 C   0  0  0  0  0  0  0  0  0  0  0  0
    9.0353  -14.4022   19.9361 C   0  0  0  0  0  0  0  0  0  0  0  0
    8.9402  -15.4657   20.9693 C   0  0  2  0  0  0  0  0  0  0  0  0
    8.0351  -15.0393   22.0419 N   0  0  0  0  0  0  0  0  0  0  0  0
   10.2481  -15.7455   21.5826 C   0  0  0  0  0  0  0  0  0  0  0  0
   10.5210  -15.1487   22.6813 O   0  0  0  0  0  0  0  0  0  0  0  0
   11.1899  -16.6356   21.0175 N   0  0  0  0  0  0  0  0  0  0  0  0
   12.3433  -17.0473   21.8663 C   0  0  1  0  0  0  0  0  0  0  0  0
   11.7117  -17.6108   23.0891 C   0  0  0  0  0  0  0  0  0  0  0  0
   12.6267  -18.2737   24.0491 C   0  0  0  0  0  0  0  0  0  0  0  0
   11.9591  -18.7817   25.2639 C   0  0  0  0  0  0  0  0  0  0  0  0
   11.0341  -19.6414   25.1655 O   0  0  0  0  0  0  0  0  0  0  0  0
   13.2536  -17.8892   21.1078 C   0  0  0  0  0  0  0  0  0  0  0  0
   12.8108  -18.5284   20.0933 O   0  0  0  0  0  0  0  0  0  0  0  0
   12.3305  -18.3354   26.5473 O   0  0  0  0  0  0  0  0  0  0  0  0
   14.5946  -18.0727   21.3703 O   0  0  0  0  0  0  0  0  0  0  0  0
  2  3  2  0
  2  1  1  0
  4  3  1  0
  5  4  2  0
  6  5  1  0
  7  6  1  0
  7  8  1  1
  9  7  1  0
  9 10  2  0
 11  5  1  0
 11 12  2  0
 12  2  1  0
 13 14  1  0
 14 15  2  0
 14 16  1  0
 16 17  1  0
 18 17  1  6
 18 19  1  0
 19  9  1  0
 20 18  1  0
 21 20  2  0
 22 20  1  0
 23 22  1  0
 23 28  1  0
 23 24  1  1
 25 24  1  0
 26 25  1  0
 27 26  2  0
 28 31  1  0
 29 28  2  0
 30 26  1  0
M  END
$$$$
