YQE.pdb
     RDKit          3D

 31 31  0  0  1  0  0  0  0  0999 V2000
    8.3217  -12.6364   17.7929 O   0  0  0  0  0  0  0  0  0  0  0  0
    7.9849  -13.1883   19.0338 C   0  0  0  0  0  0  0  0  0  0  0  0
    7.2097  -14.3360   19.0712 C   0  0  0  0  0  0  0  0  0  0  0  0
    6.8857  -14.8695   20.3244 C   0  0  0  0  0  0  0  0  0  0  0  0
    7.3131  -14.2880   21.4830 C   0  0  0  0  0  0  0  0  0  0  0  0
    6.9570  -14.8721   22.7831 C   0  0  0  0  0  0  0  0  0  0  0  0
    6.7121  -16.3695   22.5382 C   0  0  2  0  0  0  0  0  0  0  0  0
    5.4788  -16.5129   21.8070 N   0  0  0  0  0  0  0  0  0  0  0  0
    6.5795  -16.9805   23.8685 C   0  0  0  0  0  0  0  0  0  0  0  0
    5.5348  -16.8108   24.5171 O   0  0  0  0  0  0  0  0  0  0  0  0
    8.0799  -13.1517   21.4188 C   0  0  0  0  0  0  0  0  0  0  0  0
    8.4324  -12.5772   20.1918 C   0  0  0  0  0  0  0  0  0  0  0  0
    5.9064  -22.3781   25.0759 N   0  0  0  0  0  0  0  0  0  0  0  0
    6.2502  -21.9775   26.3747 C   0  0  0  0  0  0  0  0  0  0  0  0
    6.0301  -22.7428   27.3372 O   0  0  0  0  0  0  0  0  0  0  0  0
    6.8889  -20.6369   26.6867 C   0  0  0  0  0  0  0  0  0  0  0  0
    6.9882  -19.8348   25.4280 C   0  0  0  0  0  0  0  0  0  0  0  0
    7.5585  -18.4827   25.6604 C   0  0  2  0  0  0  0  0  0  0  0  0
    7.6285  -17.7467   24.3935 N   0  0  0  0  0  0  0  0  0  0  0  0
    8.9243  -18.5552   26.2030 C   0  0  0  0  0  0  0  0  0  0  0  0
    9.1679  -19.4750   27.0588 O   0  0  0  0  0  0  0  0  0  0  0  0
    9.9556  -17.6692   25.8159 N   0  0  0  0  0  0  0  0  0  0  0  0
   11.2998  -17.8684   26.4271 C   0  0  1  0  0  0  0  0  0  0  0  0
   12.2043  -17.0291   25.5969 C   0  0  0  0  0  0  0  0  0  0  0  0
   12.2752  -17.3748   24.1569 C   0  0  0  0  0  0  0  0  0  0  0  0
   13.0773  -16.4333   23.3508 C   0  0  0  0  0  0  0  0  0  0  0  0
   12.6786  -16.0861   22.1999 O   0  0  0  0  0  0  0  0  0  0  0  0
   11.2460  -17.6197   27.8581 C   0  0  0  0  0  0  0  0  0  0  0  0
   12.3136  -17.7382   28.5510 O   0  0  0  0  0  0  0  0  0  0  0  0
   14.2876  -15.8987   23.8343 O   0  0  0  0  0  0  0  0  0  0  0  0
   10.1273  -17.2483   28.5733 O   0  0  0  0  0  0  0  0  0  0  0  0
  2  3  2  0
  2  1  1  0
  4  3  1  0
  5  4  2  0
  6  5  1  0
  7  6  1  0
  7  8  1  6
  9  7  1  0
  9 10  2  0
 11  5  1  0
 11 12  2  0
 12  2  1  0
 13 14  1  0
 14 15  2  0
 14 16  1  0
 16 17  1  0
 18 17  1  6
 18 19  1  0
 19  9  1  0
 20 18  1  0
 21 20  2  0
 22 20  1  0
 23 22  1  0
 23 28  1  0
 23 24  1  6
 25 24  1  0
 26 25  1  0
 27 26  2  0
 28 31  1  0
 29 28  2  0
 30 26  1  0
M  END
$$$$
