YQE.pdb
     RDKit          3D

 31 31  0  0  1  0  0  0  0  0999 V2000
    5.6255  -10.2286   27.9988 O   0  0  0  0  0  0  0  0  0  0  0  0
    6.2269  -11.3520   27.4205 C   0  0  0  0  0  0  0  0  0  0  0  0
    6.1337  -11.5341   26.0503 C   0  0  0  0  0  0  0  0  0  0  0  0
    6.7433  -12.6653   25.4949 C   0  0  0  0  0  0  0  0  0  0  0  0
    7.4126  -13.5705   26.2668 C   0  0  0  0  0  0  0  0  0  0  0  0
    8.0425  -14.7479   25.6542 C   0  0  0  0  0  0  0  0  0  0  0  0
    6.9343  -15.4900   24.8905 C   0  0  2  0  0  0  0  0  0  0  0  0
    6.4413  -16.5535   25.7284 N   0  0  0  0  0  0  0  0  0  0  0  0
    7.5751  -16.0520   23.6929 C   0  0  0  0  0  0  0  0  0  0  0  0
    8.0168  -17.2117   23.7239 O   0  0  0  0  0  0  0  0  0  0  0  0
    7.4905  -13.3672   27.6217 C   0  0  0  0  0  0  0  0  0  0  0  0
    6.8988  -12.2527   28.2279 C   0  0  0  0  0  0  0  0  0  0  0  0
    7.7069  -12.9396   18.1242 N   0  0  0  0  0  0  0  0  0  0  0  0
    8.4714  -14.0876   17.8727 C   0  0  0  0  0  0  0  0  0  0  0  0
    8.9189  -14.2940   16.7248 O   0  0  0  0  0  0  0  0  0  0  0  0
    8.7945  -15.1181   18.9386 C   0  0  0  0  0  0  0  0  0  0  0  0
    8.1175  -14.7332   20.2157 C   0  0  0  0  0  0  0  0  0  0  0  0
    8.3307  -15.7325   21.2944 C   0  0  2  0  0  0  0  0  0  0  0  0
    7.6826  -15.2786   22.5296 N   0  0  0  0  0  0  0  0  0  0  0  0
    9.7604  -15.9162   21.5897 C   0  0  0  0  0  0  0  0  0  0  0  0
   10.3929  -14.9154   22.0755 O   0  0  0  0  0  0  0  0  0  0  0  0
   10.4431  -17.1340   21.3672 N   0  0  0  0  0  0  0  0  0  0  0  0
   11.9096  -17.1591   21.6302 C   0  0  1  0  0  0  0  0  0  0  0  0
   12.1188  -18.4130   22.4020 C   0  0  0  0  0  0  0  0  0  0  0  0
   11.5767  -18.4272   23.7819 C   0  0  0  0  0  0  0  0  0  0  0  0
   11.8846  -19.6580   24.5368 C   0  0  0  0  0  0  0  0  0  0  0  0
   11.0993  -20.6500   24.4778 O   0  0  0  0  0  0  0  0  0  0  0  0
   12.6481  -16.9785   20.3914 C   0  0  0  0  0  0  0  0  0  0  0  0
   12.0404  -17.1286   19.2770 O   0  0  0  0  0  0  0  0  0  0  0  0
   13.0457  -19.7638   25.3273 O   0  0  0  0  0  0  0  0  0  0  0  0
   13.9811  -16.6426   20.2858 O   0  0  0  0  0  0  0  0  0  0  0  0
  2  3  2  0
  2  1  1  0
  4  3  1  0
  5  4  2  0
  6  5  1  0
  7  6  1  0
  7  8  1  1
  9  7  1  0
  9 10  2  0
 11  5  1  0
 11 12  2  0
 12  2  1  0
 13 14  1  0
 14 15  2  0
 14 16  1  0
 16 17  1  0
 18 17  1  6
 18 19  1  0
 19  9  1  0
 20 18  1  0
 21 20  2  0
 22 20  1  0
 23 22  1  0
 23 28  1  0
 23 24  1  6
 25 24  1  0
 26 25  1  0
 27 26  2  0
 28 31  1  0
 29 28  2  0
 30 26  1  0
M  END
$$$$
