YQE.pdb
     RDKit          3D

 31 31  0  0  1  0  0  0  0  0999 V2000
    5.6356  -12.3208   18.7909 O   0  0  0  0  0  0  0  0  0  0  0  0
    6.9246  -12.8144   19.0210 C   0  0  0  0  0  0  0  0  0  0  0  0
    8.0152  -12.0581   18.6237 C   0  0  0  0  0  0  0  0  0  0  0  0
    9.2946  -12.5729   18.8646 C   0  0  0  0  0  0  0  0  0  0  0  0
    9.4781  -13.7817   19.4714 C   0  0  0  0  0  0  0  0  0  0  0  0
   10.8337  -14.2948   19.7110 C   0  0  0  0  0  0  0  0  0  0  0  0
   11.4222  -14.6375   18.3331 C   0  0  2  0  0  0  0  0  0  0  0  0
   10.5732  -15.6212   17.7102 N   0  0  0  0  0  0  0  0  0  0  0  0
   12.7495  -15.2135   18.5923 C   0  0  0  0  0  0  0  0  0  0  0  0
   12.8747  -16.4456   18.6768 O   0  0  0  0  0  0  0  0  0  0  0  0
    8.3812  -14.5116   19.8554 C   0  0  0  0  0  0  0  0  0  0  0  0
    7.0801  -14.0431   19.6382 C   0  0  0  0  0  0  0  0  0  0  0  0
   16.2121  -16.2927   15.5497 N   0  0  0  0  0  0  0  0  0  0  0  0
   16.8287  -15.2827   16.3014 C   0  0  0  0  0  0  0  0  0  0  0  0
   18.0288  -15.3991   16.6280 O   0  0  0  0  0  0  0  0  0  0  0  0
   16.1061  -14.0267   16.7521 C   0  0  0  0  0  0  0  0  0  0  0  0
   16.1815  -13.9242   18.2425 C   0  0  0  0  0  0  0  0  0  0  0  0
   15.2357  -14.8460   18.9231 C   0  0  2  0  0  0  0  0  0  0  0  0
   13.8596  -14.3718   18.7415 N   0  0  0  0  0  0  0  0  0  0  0  0
   15.4902  -14.9135   20.3708 C   0  0  0  0  0  0  0  0  0  0  0  0
   14.8059  -14.1375   21.1240 O   0  0  0  0  0  0  0  0  0  0  0  0
   16.4377  -15.7905   20.9468 N   0  0  0  0  0  0  0  0  0  0  0  0
   16.5058  -15.8497   22.4341 C   0  0  1  0  0  0  0  0  0  0  0  0
   15.1133  -16.1667   22.8491 C   0  0  0  0  0  0  0  0  0  0  0  0
   14.5311  -17.4075   22.2840 C   0  0  0  0  0  0  0  0  0  0  0  0
   13.5749  -18.0864   23.1808 C   0  0  0  0  0  0  0  0  0  0  0  0
   13.2969  -17.5817   24.3087 O   0  0  0  0  0  0  0  0  0  0  0  0
   17.5728  -16.7421   22.8559 C   0  0  0  0  0  0  0  0  0  0  0  0
   17.8677  -16.8165   24.0973 O   0  0  0  0  0  0  0  0  0  0  0  0
   12.9503  -19.2935   22.8104 O   0  0  0  0  0  0  0  0  0  0  0  0
   18.3232  -17.5527   22.0307 O   0  0  0  0  0  0  0  0  0  0  0  0
  2  3  2  0
  2  1  1  0
  4  3  1  0
  5  4  2  0
  6  5  1  0
  7  6  1  0
  7  8  1  1
  9  7  1  0
  9 10  2  0
 11  5  1  0
 11 12  2  0
 12  2  1  0
 13 14  1  0
 14 15  2  0
 14 16  1  0
 16 17  1  0
 18 17  1  6
 18 19  1  0
 19  9  1  0
 20 18  1  0
 21 20  2  0
 22 20  1  0
 23 22  1  0
 23 28  1  0
 23 24  1  6
 25 24  1  0
 26 25  1  0
 27 26  2  0
 28 31  1  0
 29 28  2  0
 30 26  1  0
M  END
$$$$
