YQE.pdb
     RDKit          3D

 31 31  0  0  1  0  0  0  0  0999 V2000
   10.0095  -11.9639   19.0234 O   0  0  0  0  0  0  0  0  0  0  0  0
    9.1619  -12.8115   19.7454 C   0  0  0  0  0  0  0  0  0  0  0  0
    7.8512  -12.9688   19.3252 C   0  0  0  0  0  0  0  0  0  0  0  0
    7.0224  -13.8219   20.0635 C   0  0  0  0  0  0  0  0  0  0  0  0
    7.4773  -14.4854   21.1663 C   0  0  0  0  0  0  0  0  0  0  0  0
    6.5831  -15.3745   21.9201 C   0  0  0  0  0  0  0  0  0  0  0  0
    6.4993  -16.6876   21.1258 C   0  0  2  0  0  0  0  0  0  0  0  0
    5.2669  -17.3486   21.4728 N   0  0  0  0  0  0  0  0  0  0  0  0
    7.6437  -17.4992   21.5644 C   0  0  0  0  0  0  0  0  0  0  0  0
    7.5682  -18.1379   22.6262 O   0  0  0  0  0  0  0  0  0  0  0  0
    8.7799  -14.3125   21.5618 C   0  0  0  0  0  0  0  0  0  0  0  0
    9.6507  -13.4711   20.8592 C   0  0  0  0  0  0  0  0  0  0  0  0
   10.1753  -21.9935   18.4848 N   0  0  0  0  0  0  0  0  0  0  0  0
   10.5699  -20.6663   18.2650 C   0  0  0  0  0  0  0  0  0  0  0  0
   11.6008  -20.4291   17.6005 O   0  0  0  0  0  0  0  0  0  0  0  0
    9.7997  -19.4732   18.7997 C   0  0  0  0  0  0  0  0  0  0  0  0
   10.6555  -18.7346   19.7793 C   0  0  0  0  0  0  0  0  0  0  0  0
    9.9404  -18.4393   21.0478 C   0  0  2  0  0  0  0  0  0  0  0  0
    8.8069  -17.5463   20.7848 N   0  0  0  0  0  0  0  0  0  0  0  0
   10.8152  -17.7652   22.0201 C   0  0  0  0  0  0  0  0  0  0  0  0
   10.9758  -16.5025   21.8885 O   0  0  0  0  0  0  0  0  0  0  0  0
   11.4642  -18.4467   23.0750 N   0  0  0  0  0  0  0  0  0  0  0  0
   12.2354  -17.6276   24.0521 C   0  0  1  0  0  0  0  0  0  0  0  0
   12.1027  -18.3706   25.3336 C   0  0  0  0  0  0  0  0  0  0  0  0
   12.8855  -17.8432   26.4769 C   0  0  0  0  0  0  0  0  0  0  0  0
   12.7418  -18.6294   27.7183 C   0  0  0  0  0  0  0  0  0  0  0  0
   13.4382  -18.3393   28.7356 O   0  0  0  0  0  0  0  0  0  0  0  0
   13.5704  -17.3591   23.5439 C   0  0  0  0  0  0  0  0  0  0  0  0
   14.1226  -18.2093   22.7653 O   0  0  0  0  0  0  0  0  0  0  0  0
   11.8357  -19.7045   27.8062 O   0  0  0  0  0  0  0  0  0  0  0  0
   14.3296  -16.2407   23.8152 O   0  0  0  0  0  0  0  0  0  0  0  0
  2  3  2  0
  2  1  1  0
  4  3  1  0
  5  4  2  0
  6  5  1  0
  7  6  1  0
  7  8  1  1
  9  7  1  0
  9 10  2  0
 11  5  1  0
 11 12  2  0
 12  2  1  0
 13 14  1  0
 14 15  2  0
 14 16  1  0
 16 17  1  0
 18 17  1  6
 18 19  1  0
 19  9  1  0
 20 18  1  0
 21 20  2  0
 22 20  1  0
 23 22  1  0
 23 28  1  0
 23 24  1  1
 25 24  1  0
 26 25  1  0
 27 26  2  0
 28 31  1  0
 29 28  2  0
 30 26  1  0
M  END
$$$$
