YQE.pdb
     RDKit          3D

 31 31  0  0  1  0  0  0  0  0999 V2000
    5.2897  -10.0940   27.5539 O   0  0  0  0  0  0  0  0  0  0  0  0
    5.9546  -11.2063   27.0260 C   0  0  0  0  0  0  0  0  0  0  0  0
    6.5187  -11.1160   25.7638 C   0  0  0  0  0  0  0  0  0  0  0  0
    7.1787  -12.2419   25.2571 C   0  0  0  0  0  0  0  0  0  0  0  0
    7.2718  -13.4006   25.9727 C   0  0  0  0  0  0  0  0  0  0  0  0
    7.9715  -14.5651   25.4137 C   0  0  0  0  0  0  0  0  0  0  0  0
    6.9701  -15.2758   24.4895 C   0  0  2  0  0  0  0  0  0  0  0  0
    6.2958  -16.2959   25.2518 N   0  0  0  0  0  0  0  0  0  0  0  0
    7.7718  -15.8945   23.4241 C   0  0  0  0  0  0  0  0  0  0  0  0
    8.1283  -17.0782   23.5371 O   0  0  0  0  0  0  0  0  0  0  0  0
    6.7044  -13.4643   27.2206 C   0  0  0  0  0  0  0  0  0  0  0  0
    6.0332  -12.3676   27.7742 C   0  0  0  0  0  0  0  0  0  0  0  0
    8.3018  -12.7086   17.5596 N   0  0  0  0  0  0  0  0  0  0  0  0
    8.0660  -14.0363   17.9434 C   0  0  0  0  0  0  0  0  0  0  0  0
    8.1054  -14.9445   17.0866 O   0  0  0  0  0  0  0  0  0  0  0  0
    7.7585  -14.4438   19.3723 C   0  0  0  0  0  0  0  0  0  0  0  0
    9.0421  -14.6369   20.1155 C   0  0  0  0  0  0  0  0  0  0  0  0
    8.9313  -15.6659   21.1815 C   0  0  2  0  0  0  0  0  0  0  0  0
    8.1269  -15.1475   22.2931 N   0  0  0  0  0  0  0  0  0  0  0  0
   10.2497  -16.0294   21.7246 C   0  0  0  0  0  0  0  0  0  0  0  0
   10.8232  -15.1802   22.4912 O   0  0  0  0  0  0  0  0  0  0  0  0
   10.8876  -17.2588   21.4415 N   0  0  0  0  0  0  0  0  0  0  0  0
   12.2335  -17.4893   22.0380 C   0  0  1  0  0  0  0  0  0  0  0  0
   12.0759  -18.7479   22.8145 C   0  0  0  0  0  0  0  0  0  0  0  0
   12.0793  -18.6079   24.2905 C   0  0  0  0  0  0  0  0  0  0  0  0
   11.9052  -19.8817   25.0162 C   0  0  0  0  0  0  0  0  0  0  0  0
   12.8651  -20.7047   25.0901 O   0  0  0  0  0  0  0  0  0  0  0  0
   13.2582  -17.4360   21.0086 C   0  0  0  0  0  0  0  0  0  0  0  0
   12.9146  -17.5446   19.7822 O   0  0  0  0  0  0  0  0  0  0  0  0
   10.6866  -20.2100   25.6420 O   0  0  0  0  0  0  0  0  0  0  0  0
   14.6100  -17.2666   21.2206 O   0  0  0  0  0  0  0  0  0  0  0  0
  2  3  2  0
  2  1  1  0
  4  3  1  0
  5  4  2  0
  6  5  1  0
  7  6  1  0
  7  8  1  1
  9  7  1  0
  9 10  2  0
 11  5  1  0
 11 12  2  0
 12  2  1  0
 13 14  1  0
 14 15  2  0
 14 16  1  0
 16 17  1  0
 18 17  1  6
 18 19  1  0
 19  9  1  0
 20 18  1  0
 21 20  2  0
 22 20  1  0
 23 22  1  0
 23 28  1  0
 23 24  1  6
 25 24  1  0
 26 25  1  0
 27 26  2  0
 28 31  1  0
 29 28  2  0
 30 26  1  0
M  END
$$$$
