YQE.pdb
     RDKit          3D

 31 31  0  0  1  0  0  0  0  0999 V2000
    5.5665  -10.3715   27.7587 O   0  0  0  0  0  0  0  0  0  0  0  0
    6.1669  -11.4456   27.0925 C   0  0  0  0  0  0  0  0  0  0  0  0
    6.1152  -12.7059   27.6655 C   0  0  0  0  0  0  0  0  0  0  0  0
    6.7230  -13.7646   26.9803 C   0  0  0  0  0  0  0  0  0  0  0  0
    7.3513  -13.5767   25.7831 C   0  0  0  0  0  0  0  0  0  0  0  0
    7.9795  -14.7082   25.0879 C   0  0  0  0  0  0  0  0  0  0  0  0
    6.9010  -15.3162   24.1773 C   0  0  2  0  0  0  0  0  0  0  0  0
    5.9986  -16.0857   24.9959 N   0  0  0  0  0  0  0  0  0  0  0  0
    7.6117  -16.2033   23.2454 C   0  0  0  0  0  0  0  0  0  0  0  0
    8.2136  -17.1957   23.6857 O   0  0  0  0  0  0  0  0  0  0  0  0
    7.3886  -12.3184   25.2368 C   0  0  0  0  0  0  0  0  0  0  0  0
    6.7967  -11.2252   25.8803 C   0  0  0  0  0  0  0  0  0  0  0  0
    7.2279  -13.5692   18.2473 N   0  0  0  0  0  0  0  0  0  0  0  0
    8.2781  -13.3008   19.1364 C   0  0  0  0  0  0  0  0  0  0  0  0
    9.4341  -13.1293   18.6951 O   0  0  0  0  0  0  0  0  0  0  0  0
    8.0879  -13.2044   20.6387 C   0  0  0  0  0  0  0  0  0  0  0  0
    9.0812  -14.0928   21.3180 C   0  0  0  0  0  0  0  0  0  0  0  0
    8.7924  -15.5345   21.1042 C   0  0  2  0  0  0  0  0  0  0  0  0
    7.6051  -15.9243   21.8723 N   0  0  0  0  0  0  0  0  0  0  0  0
    9.9062  -16.3841   21.5546 C   0  0  0  0  0  0  0  0  0  0  0  0
   10.1358  -17.4527   20.8889 O   0  0  0  0  0  0  0  0  0  0  0  0
   10.7177  -16.0652   22.6674 N   0  0  0  0  0  0  0  0  0  0  0  0
   11.9470  -16.8804   22.8789 C   0  0  1  0  0  0  0  0  0  0  0  0
   12.7786  -16.6021   21.6778 C   0  0  0  0  0  0  0  0  0  0  0  0
   13.7758  -15.5134   21.8134 C   0  0  0  0  0  0  0  0  0  0  0  0
   14.7743  -15.4731   20.7267 C   0  0  0  0  0  0  0  0  0  0  0  0
   14.8305  -16.4163   19.8832 O   0  0  0  0  0  0  0  0  0  0  0  0
   12.5135  -16.6094   24.1898 C   0  0  0  0  0  0  0  0  0  0  0  0
   13.5794  -17.2188   24.5452 O   0  0  0  0  0  0  0  0  0  0  0  0
   15.6751  -14.3980   20.5963 O   0  0  0  0  0  0  0  0  0  0  0  0
   12.0100  -15.7271   25.1221 O   0  0  0  0  0  0  0  0  0  0  0  0
  2  3  2  0
  2  1  1  0
  4  3  1  0
  5  4  2  0
  6  5  1  0
  7  6  1  0
  7  8  1  1
  9  7  1  0
  9 10  2  0
 11  5  1  0
 11 12  2  0
 12  2  1  0
 13 14  1  0
 14 15  2  0
 14 16  1  0
 16 17  1  0
 18 17  1  1
 18 19  1  0
 19  9  1  0
 20 18  1  0
 21 20  2  0
 22 20  1  0
 23 22  1  0
 23 28  1  0
 23 24  1  6
 25 24  1  0
 26 25  1  0
 27 26  2  0
 28 31  1  0
 29 28  2  0
 30 26  1  0
M  END
$$$$
