RKH.pdb
     RDKit          3D

 31 31  0  0  1  0  0  0  0  0999 V2000
   22.7700  -13.9007  -17.2529 N   0  0  0  0  0  0  0  0  0  0  0  0
   22.3407  -14.8422  -18.2395 C   0  0  0  0  0  0  0  0  0  0  0  0
   21.6809  -14.4275  -19.2506 N   0  0  0  0  0  0  0  0  0  0  0  0
   22.6289  -16.2198  -18.1224 N   0  0  0  0  0  0  0  0  0  0  0  0
   23.8245  -16.7341  -17.4963 C   0  0  0  0  0  0  0  0  0  0  0  0
   25.0122  -16.0417  -18.1000 C   0  0  0  0  0  0  0  0  0  0  0  0
   26.2905  -16.5514  -17.5774 C   0  0  0  0  0  0  0  0  0  0  0  0
   26.8121  -17.7283  -18.3064 C   0  0  2  0  0  0  0  0  0  0  0  0
   26.5592  -17.7714  -19.7223 N   0  0  0  0  0  0  0  0  0  0  0  0
   26.2738  -18.9972  -17.7188 C   0  0  0  0  0  0  0  0  0  0  0  0
   25.2712  -19.5523  -18.2481 O   0  0  0  0  0  0  0  0  0  0  0  0
   21.3315  -15.0244  -20.0214 N   0  0  0  0  0  0  0  0  0  0  0  0
   26.8373  -19.6122  -16.5922 C   0  0  1  0  0  0  0  0  0  0  0  0
   26.2123  -20.8410  -16.0323 C   0  0  0  0  0  0  0  0  0  0  0  0
   27.4023  -21.6899  -15.7255 C   0  0  0  0  0  0  0  0  0  0  0  0
   28.2397  -22.2797  -16.7607 C   0  0  0  0  0  0  0  0  0  0  0  0
   29.2787  -23.2143  -16.2569 C   0  0  0  0  0  0  0  0  0  0  0  0
   30.1133  -23.7642  -17.4257 N   0  0  0  0  0  0  0  0  0  0  0  0
   31.0761  -24.6808  -16.8631 C   0  0  0  0  0  0  0  0  0  0  0  0
   25.2768  -20.5536  -14.9901 O   0  0  0  0  0  0  0  0  0  0  0  0
   25.4253  -19.4959  -14.2646 N   0  0  0  0  0  0  0  0  0  0  0  0
   24.1861  -21.4197  -14.7465 C   0  0  1  0  0  0  0  0  0  0  0  0
   22.9097  -20.7748  -14.3632 C   0  0  0  0  0  0  0  0  0  0  0  0
   22.6929  -19.6525  -15.3321 C   0  0  0  0  0  0  0  0  0  0  0  0
   21.4483  -18.9197  -15.1298 C   0  0  0  0  0  0  0  0  0  0  0  0
   20.5757  -19.1964  -14.0807 N   0  0  0  0  0  0  0  0  0  0  0  0
   19.5407  -18.3503  -14.1838 C   0  0  0  0  0  0  0  0  0  0  0  0
   19.7519  -17.5717  -15.2542 N   0  0  0  0  0  0  0  0  0  0  0  0
   20.9185  -17.9127  -15.8409 C   0  0  0  0  0  0  0  0  0  0  0  0
   21.8657  -21.8332  -14.4406 O   0  0  0  0  0  0  0  0  0  0  0  0
   21.7348  -22.6149  -15.6109 O   0  0  0  0  0  0  0  0  0  0  0  0
  2  1  1  0
  3  2  2  0
  4  2  1  0
  5  4  1  0
  6  5  1  0
  7  6  1  0
  8  9  1  6
  8  7  1  0
 10  8  1  0
 11 10  2  0
 12 10  1  0
 13 12  1  0
 13 19  1  0
 13 14  1  1
 15 14  1  0
 16 15  1  0
 17 16  1  0
 18 17  1  0
 19 21  1  0
 20 19  2  0
 21 22  1  0
 22 23  1  1
 22 29  1  0
 24 23  1  0
 25 24  2  0
 26 25  1  0
 27 26  1  0
 27 28  2  0
 28 24  1  0
 29 31  2  0
 29 30  1  0
M  END
$$$$
