RKH.pdb
     RDKit          3D

 31 31  0  0  1  0  0  0  0  0999 V2000
   25.3239  -20.9346   -7.6240 N   0  0  0  0  0  0  0  0  0  0  0  0
   24.4021  -21.0086   -8.7143 C   0  0  0  0  0  0  0  0  0  0  0  0
   23.1886  -21.3305   -8.4831 N   0  0  0  0  0  0  0  0  0  0  0  0
   24.8016  -20.7345  -10.0408 N   0  0  0  0  0  0  0  0  0  0  0  0
   26.1772  -20.7581  -10.4805 C   0  0  0  0  0  0  0  0  0  0  0  0
   26.3683  -21.9459  -11.3787 C   0  0  0  0  0  0  0  0  0  0  0  0
   26.5651  -21.5647  -12.7869 C   0  0  0  0  0  0  0  0  0  0  0  0
   27.7165  -20.6633  -13.0109 C   0  0  2  0  0  0  0  0  0  0  0  0
   28.4562  -20.2630  -11.8435 N   0  0  0  0  0  0  0  0  0  0  0  0
   27.2820  -19.4131  -13.7135 C   0  0  0  0  0  0  0  0  0  0  0  0
   27.0053  -18.3832  -13.0380 O   0  0  0  0  0  0  0  0  0  0  0  0
   22.4442  -21.4073   -9.1990 N   0  0  0  0  0  0  0  0  0  0  0  0
   27.1667  -19.3257  -15.1078 C   0  0  2  0  0  0  0  0  0  0  0  0
   26.5935  -18.0992  -15.7253 C   0  0  0  0  0  0  0  0  0  0  0  0
   27.5024  -17.8762  -16.8893 C   0  0  0  0  0  0  0  0  0  0  0  0
   27.3655  -16.7419  -17.7922 C   0  0  0  0  0  0  0  0  0  0  0  0
   28.3613  -16.7054  -18.8939 C   0  0  0  0  0  0  0  0  0  0  0  0
   28.1199  -15.4796  -19.7907 N   0  0  0  0  0  0  0  0  0  0  0  0
   29.0827  -15.5451  -20.8642 C   0  0  0  0  0  0  0  0  0  0  0  0
   25.1863  -18.2073  -15.9535 O   0  0  0  0  0  0  0  0  0  0  0  0
   24.6038  -19.3555  -15.8549 N   0  0  0  0  0  0  0  0  0  0  0  0
   24.4238  -17.0641  -16.2864 C   0  0  1  0  0  0  0  0  0  0  0  0
   22.9584  -17.2563  -16.3749 C   0  0  0  0  0  0  0  0  0  0  0  0
   22.4880  -17.5806  -14.9897 C   0  0  0  0  0  0  0  0  0  0  0  0
   22.2278  -18.9976  -14.7627 C   0  0  0  0  0  0  0  0  0  0  0  0
   22.4216  -19.9638  -15.7464 N   0  0  0  0  0  0  0  0  0  0  0  0
   22.0928  -21.1504  -15.2157 C   0  0  0  0  0  0  0  0  0  0  0  0
   21.7074  -20.9412  -13.9491 N   0  0  0  0  0  0  0  0  0  0  0  0
   21.7866  -19.6249  -13.6617 C   0  0  0  0  0  0  0  0  0  0  0  0
   22.4001  -15.9826  -16.9062 O   0  0  0  0  0  0  0  0  0  0  0  0
   21.1823  -15.9877  -17.6235 O   0  0  0  0  0  0  0  0  0  0  0  0
  2  1  1  0
  3  2  2  0
  4  2  1  0
  5  4  1  0
  6  5  1  0
  7  6  1  0
  8  9  1  1
  8  7  1  0
 10  8  1  0
 11 10  2  0
 12 10  1  0
 13 12  1  0
 13 19  1  0
 13 14  1  6
 15 14  1  0
 16 15  1  0
 17 16  1  0
 18 17  1  0
 19 21  1  0
 20 19  2  0
 21 22  1  0
 22 23  1  6
 22 29  1  0
 24 23  1  0
 25 24  2  0
 26 25  1  0
 27 26  1  0
 27 28  2  0
 28 24  1  0
 29 31  2  0
 29 30  1  0
M  END
$$$$
