RKH.pdb
     RDKit          3D

 31 31  0  0  1  0  0  0  0  0999 V2000
   24.5878  -21.3107  -20.4375 N   0  0  0  0  0  0  0  0  0  0  0  0
   24.3241  -21.2622  -19.0331 C   0  0  0  0  0  0  0  0  0  0  0  0
   23.5219  -22.1127  -18.5204 N   0  0  0  0  0  0  0  0  0  0  0  0
   24.9293  -20.2961  -18.1996 N   0  0  0  0  0  0  0  0  0  0  0  0
   25.8876  -19.3238  -18.6711 C   0  0  0  0  0  0  0  0  0  0  0  0
   27.2486  -19.7194  -18.1753 C   0  0  0  0  0  0  0  0  0  0  0  0
   27.3927  -19.5481  -16.7204 C   0  0  0  0  0  0  0  0  0  0  0  0
   27.7330  -20.7938  -15.9987 C   0  0  2  0  0  0  0  0  0  0  0  0
   27.9458  -21.9663  -16.8051 N   0  0  0  0  0  0  0  0  0  0  0  0
   26.6735  -21.1305  -14.9939 C   0  0  0  0  0  0  0  0  0  0  0  0
   25.7292  -21.9024  -15.3195 O   0  0  0  0  0  0  0  0  0  0  0  0
   23.2750  -22.1710  -17.5164 N   0  0  0  0  0  0  0  0  0  0  0  0
   26.6777  -20.6250  -13.6864 C   0  0  1  0  0  0  0  0  0  0  0  0
   25.5682  -20.9719  -12.7576 C   0  0  0  0  0  0  0  0  0  0  0  0
   26.1653  -20.6670  -11.4230 C   0  0  0  0  0  0  0  0  0  0  0  0
   25.4220  -20.7954  -10.1773 C   0  0  0  0  0  0  0  0  0  0  0  0
   26.2087  -20.4916   -8.9544 C   0  0  0  0  0  0  0  0  0  0  0  0
   25.3341  -20.6641   -7.7011 N   0  0  0  0  0  0  0  0  0  0  0  0
   26.1921  -20.4685   -6.5569 C   0  0  0  0  0  0  0  0  0  0  0  0
   24.3331  -20.3519  -13.1240 O   0  0  0  0  0  0  0  0  0  0  0  0
   24.3165  -19.1122  -13.4848 N   0  0  0  0  0  0  0  0  0  0  0  0
   23.1255  -21.0868  -13.0957 C   0  0  1  0  0  0  0  0  0  0  0  0
   21.9264  -20.3983  -13.6248 C   0  0  0  0  0  0  0  0  0  0  0  0
   21.8971  -20.6680  -15.0985 C   0  0  0  0  0  0  0  0  0  0  0  0
   20.7214  -20.1391  -15.7801 C   0  0  0  0  0  0  0  0  0  0  0  0
   19.7390  -19.4038  -15.1221 N   0  0  0  0  0  0  0  0  0  0  0  0
   18.8084  -19.0728  -16.0290 C   0  0  0  0  0  0  0  0  0  0  0  0
   19.1884  -19.5786  -17.2106 N   0  0  0  0  0  0  0  0  0  0  0  0
   20.3596  -20.2340  -17.0688 C   0  0  0  0  0  0  0  0  0  0  0  0
   20.7602  -20.9682  -12.8958 O   0  0  0  0  0  0  0  0  0  0  0  0
   19.6062  -20.1811  -12.6801 O   0  0  0  0  0  0  0  0  0  0  0  0
  2  1  1  0
  3  2  2  0
  4  2  1  0
  5  4  1  0
  6  5  1  0
  7  6  1  0
  8  9  1  6
  8  7  1  0
 10  8  1  0
 11 10  2  0
 12 10  1  0
 13 12  1  0
 13 19  1  0
 13 14  1  6
 15 14  1  0
 16 15  1  0
 17 16  1  0
 18 17  1  0
 19 21  1  0
 20 19  2  0
 21 22  1  0
 22 23  1  1
 22 29  1  0
 24 23  1  0
 25 24  2  0
 26 25  1  0
 27 26  1  0
 27 28  2  0
 28 24  1  0
 29 31  2  0
 29 30  1  0
M  END
$$$$
