RKH.pdb
     RDKit          3D

 31 31  0  0  1  0  0  0  0  0999 V2000
   13.8012  -22.5399   -2.0945 N   0  0  0  0  0  0  0  0  0  0  0  0
   13.1300  -23.5555   -1.3447 C   0  0  0  0  0  0  0  0  0  0  0  0
   12.7864  -24.6370   -1.9296 N   0  0  0  0  0  0  0  0  0  0  0  0
   12.8377  -23.3910    0.0271 N   0  0  0  0  0  0  0  0  0  0  0  0
   13.1537  -22.1946    0.7720 C   0  0  0  0  0  0  0  0  0  0  0  0
   14.5701  -22.2986    1.2591 C   0  0  0  0  0  0  0  0  0  0  0  0
   14.9887  -21.1216    2.0378 C   0  0  0  0  0  0  0  0  0  0  0  0
   15.7283  -20.1111    1.2502 C   0  0  2  0  0  0  0  0  0  0  0  0
   16.3525  -20.5715    0.0382 N   0  0  0  0  0  0  0  0  0  0  0  0
   16.7941  -19.4662    2.0830 C   0  0  0  0  0  0  0  0  0  0  0  0
   17.9632  -19.9422    2.0760 O   0  0  0  0  0  0  0  0  0  0  0  0
   12.3206  -25.4411   -1.4727 N   0  0  0  0  0  0  0  0  0  0  0  0
   16.5562  -18.3397    2.8827 C   0  0  1  0  0  0  0  0  0  0  0  0
   17.6801  -17.7171    3.6333 C   0  0  0  0  0  0  0  0  0  0  0  0
   17.3179  -16.2684    3.6016 C   0  0  0  0  0  0  0  0  0  0  0  0
   18.1492  -15.2334    4.2002 C   0  0  0  0  0  0  0  0  0  0  0  0
   17.6905  -13.8447    3.9392 C   0  0  0  0  0  0  0  0  0  0  0  0
   18.6447  -12.8349    4.5987 N   0  0  0  0  0  0  0  0  0  0  0  0
   18.1851  -11.5169    4.2311 C   0  0  0  0  0  0  0  0  0  0  0  0
   17.9118  -18.3477    4.8952 O   0  0  0  0  0  0  0  0  0  0  0  0
   16.9239  -18.8581    5.5517 N   0  0  0  0  0  0  0  0  0  0  0  0
   19.2178  -18.4187    5.4325 C   0  0  1  0  0  0  0  0  0  0  0  0
   19.3462  -19.0594    6.7610 C   0  0  0  0  0  0  0  0  0  0  0  0
   20.6788  -19.7444    6.7754 C   0  0  0  0  0  0  0  0  0  0  0  0
   20.6829  -21.0304    7.4632 C   0  0  0  0  0  0  0  0  0  0  0  0
   19.5431  -21.5702    8.0533 N   0  0  0  0  0  0  0  0  0  0  0  0
   19.8883  -22.7481    8.5929 C   0  0  0  0  0  0  0  0  0  0  0  0
   21.1924  -22.9434    8.3528 N   0  0  0  0  0  0  0  0  0  0  0  0
   21.6887  -21.8963    7.6609 C   0  0  0  0  0  0  0  0  0  0  0  0
   19.2319  -17.9668    7.7658 O   0  0  0  0  0  0  0  0  0  0  0  0
   18.7346  -18.2434    9.0596 O   0  0  0  0  0  0  0  0  0  0  0  0
  2  1  1  0
  3  2  2  0
  4  2  1  0
  5  4  1  0
  6  5  1  0
  7  6  1  0
  8  9  1  6
  8  7  1  0
 10  8  1  0
 11 10  2  0
 12 10  1  0
 13 12  1  0
 13 19  1  0
 13 14  1  6
 15 14  1  0
 16 15  1  0
 17 16  1  0
 18 17  1  0
 19 21  1  0
 20 19  2  0
 21 22  1  0
 22 23  1  1
 22 29  1  0
 24 23  1  0
 25 24  2  0
 26 25  1  0
 27 26  1  0
 27 28  2  0
 28 24  1  0
 29 31  2  0
 29 30  1  0
M  END
$$$$
