RKH.pdb
     RDKit          3D

 31 31  0  0  1  0  0  0  0  0999 V2000
   16.5772  -17.6249    4.3392 N   0  0  0  0  0  0  0  0  0  0  0  0
   15.4051  -16.8646    4.0356 C   0  0  0  0  0  0  0  0  0  0  0  0
   14.2589  -17.3418    4.3327 N   0  0  0  0  0  0  0  0  0  0  0  0
   15.4847  -15.5986    3.4149 N   0  0  0  0  0  0  0  0  0  0  0  0
   16.7200  -14.8696    3.2456 C   0  0  0  0  0  0  0  0  0  0  0  0
   17.2069  -14.4394    4.5991 C   0  0  0  0  0  0  0  0  0  0  0  0
   18.4650  -13.6780    4.5324 C   0  0  0  0  0  0  0  0  0  0  0  0
   18.3186  -12.2437    4.8638 C   0  0  2  0  0  0  0  0  0  0  0  0
   18.6135  -11.3075    3.8117 N   0  0  0  0  0  0  0  0  0  0  0  0
   19.1770  -11.8805    6.0371 C   0  0  0  0  0  0  0  0  0  0  0  0
   20.3969  -11.6107    5.8563 O   0  0  0  0  0  0  0  0  0  0  0  0
   13.3520  -16.8793    4.1429 N   0  0  0  0  0  0  0  0  0  0  0  0
   18.6862  -11.8218    7.3488 C   0  0  2  0  0  0  0  0  0  0  0  0
   19.6306  -11.6254    8.4818 C   0  0  0  0  0  0  0  0  0  0  0  0
   18.8265  -10.7897    9.4230 C   0  0  0  0  0  0  0  0  0  0  0  0
   19.3473  -10.3110   10.6960 C   0  0  0  0  0  0  0  0  0  0  0  0
   18.3918   -9.4923   11.4857 C   0  0  0  0  0  0  0  0  0  0  0  0
   19.0259   -9.0747   12.8232 N   0  0  0  0  0  0  0  0  0  0  0  0
   18.0245   -8.3339   13.5526 C   0  0  0  0  0  0  0  0  0  0  0  0
   20.1890  -12.8557    8.9490 O   0  0  0  0  0  0  0  0  0  0  0  0
   19.5891  -13.9716    8.6993 N   0  0  0  0  0  0  0  0  0  0  0  0
   21.3970  -12.8619    9.6838 C   0  0  1  0  0  0  0  0  0  0  0  0
   21.9205  -14.1908   10.0736 C   0  0  0  0  0  0  0  0  0  0  0  0
   23.4067  -14.1320    9.8922 C   0  0  0  0  0  0  0  0  0  0  0  0
   24.1201  -15.2890   10.4206 C   0  0  0  0  0  0  0  0  0  0  0  0
   24.6109  -15.3385   11.7227 N   0  0  0  0  0  0  0  0  0  0  0  0
   25.2068  -16.5288   11.8835 C   0  0  0  0  0  0  0  0  0  0  0  0
   25.0963  -17.2025   10.7301 N   0  0  0  0  0  0  0  0  0  0  0  0
   24.4318  -16.4513    9.8270 C   0  0  0  0  0  0  0  0  0  0  0  0
   21.5052  -14.4065   11.4869 O   0  0  0  0  0  0  0  0  0  0  0  0
   21.1526  -13.3039   12.2978 O   0  0  0  0  0  0  0  0  0  0  0  0
  2  1  1  0
  3  2  2  0
  4  2  1  0
  5  4  1  0
  6  5  1  0
  7  6  1  0
  8  9  1  6
  8  7  1  0
 10  8  1  0
 11 10  2  0
 12 10  1  0
 13 12  1  0
 13 19  1  0
 13 14  1  6
 15 14  1  0
 16 15  1  0
 17 16  1  0
 18 17  1  0
 19 21  1  0
 20 19  2  0
 21 22  1  0
 22 23  1  1
 22 29  1  0
 24 23  1  0
 25 24  2  0
 26 25  1  0
 27 26  1  0
 27 28  2  0
 28 24  1  0
 29 31  2  0
 29 30  1  0
M  END
$$$$
