RKH.pdb
     RDKit          3D

 31 31  0  0  1  0  0  0  0  0999 V2000
   27.8752  -27.5935  -21.5674 N   0  0  0  0  0  0  0  0  0  0  0  0
   26.8572  -28.5287  -21.2023 C   0  0  0  0  0  0  0  0  0  0  0  0
   26.6745  -29.5643  -21.9260 N   0  0  0  0  0  0  0  0  0  0  0  0
   26.0489  -28.3343  -20.0607 N   0  0  0  0  0  0  0  0  0  0  0  0
   26.0452  -27.1166  -19.2840 C   0  0  0  0  0  0  0  0  0  0  0  0
   25.9442  -27.4804  -17.8309 C   0  0  0  0  0  0  0  0  0  0  0  0
   25.9254  -26.2998  -16.9518 C   0  0  0  0  0  0  0  0  0  0  0  0
   27.1704  -25.5016  -16.9897 C   0  0  2  0  0  0  0  0  0  0  0  0
   28.3430  -26.1123  -16.4219 N   0  0  0  0  0  0  0  0  0  0  0  0
   26.9766  -24.1844  -16.3020 C   0  0  0  0  0  0  0  0  0  0  0  0
   27.2362  -24.0805  -15.0710 O   0  0  0  0  0  0  0  0  0  0  0  0
   25.9735  -30.3044  -21.7435 N   0  0  0  0  0  0  0  0  0  0  0  0
   26.5154  -23.0401  -16.9675 C   0  0  2  0  0  0  0  0  0  0  0  0
   26.5416  -21.7232  -16.2752 C   0  0  0  0  0  0  0  0  0  0  0  0
   27.3303  -20.8821  -17.2245 C   0  0  0  0  0  0  0  0  0  0  0  0
   27.5219  -19.4504  -17.0392 C   0  0  0  0  0  0  0  0  0  0  0  0
   28.3866  -18.8055  -18.0606 C   0  0  0  0  0  0  0  0  0  0  0  0
   28.6260  -17.3294  -17.7017 N   0  0  0  0  0  0  0  0  0  0  0  0
   29.6478  -16.8376  -18.5948 C   0  0  0  0  0  0  0  0  0  0  0  0
   25.2392  -21.2871  -15.8781 O   0  0  0  0  0  0  0  0  0  0  0  0
   24.2659  -21.3090  -16.7263 N   0  0  0  0  0  0  0  0  0  0  0  0
   25.0063  -20.8315  -14.5600 C   0  0  2  0  0  0  0  0  0  0  0  0
   23.6346  -20.3610  -14.2618 C   0  0  0  0  0  0  0  0  0  0  0  0
   23.2723  -19.3926  -15.3463 C   0  0  0  0  0  0  0  0  0  0  0  0
   21.9003  -18.9030  -15.2772 C   0  0  0  0  0  0  0  0  0  0  0  0
   21.0242  -19.2645  -14.2571 N   0  0  0  0  0  0  0  0  0  0  0  0
   19.8575  -18.6463  -14.4903 C   0  0  0  0  0  0  0  0  0  0  0  0
   19.9922  -17.9244  -15.6116 N   0  0  0  0  0  0  0  0  0  0  0  0
   21.2406  -18.0749  -16.1016 C   0  0  0  0  0  0  0  0  0  0  0  0
   22.7714  -21.5737  -14.2390 O   0  0  0  0  0  0  0  0  0  0  0  0
   22.7043  -22.4168  -15.3714 O   0  0  0  0  0  0  0  0  0  0  0  0
  2  1  1  0
  3  2  2  0
  4  2  1  0
  5  4  1  0
  6  5  1  0
  7  6  1  0
  8  9  1  1
  8  7  1  0
 10  8  1  0
 11 10  2  0
 12 10  1  0
 13 12  1  0
 13 19  1  0
 13 14  1  1
 15 14  1  0
 16 15  1  0
 17 16  1  0
 18 17  1  0
 19 21  1  0
 20 19  2  0
 21 22  1  0
 22 23  1  6
 22 29  1  0
 24 23  1  0
 25 24  2  0
 26 25  1  0
 27 26  1  0
 27 28  2  0
 28 24  1  0
 29 31  2  0
 29 30  1  0
M  END
$$$$
