RKH.pdb
     RDKit          3D

 31 31  0  0  1  0  0  0  0  0999 V2000
   22.2521  -16.7942  -19.1180 N   0  0  0  0  0  0  0  0  0  0  0  0
   22.3201  -17.4056  -17.8274 C   0  0  0  0  0  0  0  0  0  0  0  0
   21.2368  -17.7161  -17.2276 N   0  0  0  0  0  0  0  0  0  0  0  0
   23.5566  -17.6741  -17.2001 N   0  0  0  0  0  0  0  0  0  0  0  0
   24.7828  -16.9842  -17.5265 C   0  0  0  0  0  0  0  0  0  0  0  0
   25.7516  -17.9808  -18.0946 C   0  0  0  0  0  0  0  0  0  0  0  0
   25.9245  -19.1589  -17.2290 C   0  0  0  0  0  0  0  0  0  0  0  0
   27.2666  -19.2630  -16.6156 C   0  0  2  0  0  0  0  0  0  0  0  0
   28.3203  -19.7665  -17.4562 N   0  0  0  0  0  0  0  0  0  0  0  0
   27.2239  -20.1246  -15.3903 C   0  0  0  0  0  0  0  0  0  0  0  0
   26.3160  -20.9935  -15.2714 O   0  0  0  0  0  0  0  0  0  0  0  0
   21.1764  -18.1356  -16.2826 N   0  0  0  0  0  0  0  0  0  0  0  0
   28.1583  -20.0151  -14.3511 C   0  0  2  0  0  0  0  0  0  0  0  0
   27.9887  -20.8298  -13.1176 C   0  0  0  0  0  0  0  0  0  0  0  0
   29.3928  -20.9520  -12.6233 C   0  0  0  0  0  0  0  0  0  0  0  0
   29.7324  -21.5914  -11.3598 C   0  0  0  0  0  0  0  0  0  0  0  0
   31.1899  -21.6962  -11.0924 C   0  0  0  0  0  0  0  0  0  0  0  0
   31.4383  -22.4664   -9.7846 N   0  0  0  0  0  0  0  0  0  0  0  0
   32.8615  -22.6876   -9.6882 C   0  0  0  0  0  0  0  0  0  0  0  0
   26.9886  -20.2997  -12.2443 O   0  0  0  0  0  0  0  0  0  0  0  0
   26.8102  -19.0231  -12.1684 N   0  0  0  0  0  0  0  0  0  0  0  0
   26.1894  -21.1639  -11.4608 C   0  0  1  0  0  0  0  0  0  0  0  0
   25.2316  -20.5140  -10.5376 C   0  0  0  0  0  0  0  0  0  0  0  0
   23.9696  -21.3195  -10.5984 C   0  0  0  0  0  0  0  0  0  0  0  0
   23.0580  -20.9234  -11.6656 C   0  0  0  0  0  0  0  0  0  0  0  0
   23.3095  -19.8417  -12.5054 N   0  0  0  0  0  0  0  0  0  0  0  0
   22.2849  -19.7529  -13.3657 C   0  0  0  0  0  0  0  0  0  0  0  0
   21.4225  -20.7385  -13.0802 N   0  0  0  0  0  0  0  0  0  0  0  0
   21.8872  -21.4616  -12.0398 C   0  0  0  0  0  0  0  0  0  0  0  0
   25.8738  -20.5210   -9.1946 O   0  0  0  0  0  0  0  0  0  0  0  0
   25.3992  -19.6614   -8.1779 O   0  0  0  0  0  0  0  0  0  0  0  0
  2  1  1  0
  3  2  2  0
  4  2  1  0
  5  4  1  0
  6  5  1  0
  7  6  1  0
  8  9  1  6
  8  7  1  0
 10  8  1  0
 11 10  2  0
 12 10  1  0
 13 12  1  0
 13 19  1  0
 13 14  1  1
 15 14  1  0
 16 15  1  0
 17 16  1  0
 18 17  1  0
 19 21  1  0
 20 19  2  0
 21 22  1  0
 22 23  1  1
 22 29  1  0
 24 23  1  0
 25 24  2  0
 26 25  1  0
 27 26  1  0
 27 28  2  0
 28 24  1  0
 29 31  2  0
 29 30  1  0
M  END
$$$$
