RKH.pdb
     RDKit          3D

 31 31  0  0  1  0  0  0  0  0999 V2000
   20.4124  -20.6046   -9.9099 N   0  0  0  0  0  0  0  0  0  0  0  0
   20.8242  -21.6159   -8.9870 C   0  0  0  0  0  0  0  0  0  0  0  0
   19.9558  -22.4314   -8.5284 N   0  0  0  0  0  0  0  0  0  0  0  0
   22.1684  -21.7343   -8.5704 N   0  0  0  0  0  0  0  0  0  0  0  0
   23.2948  -21.6108   -9.4660 C   0  0  0  0  0  0  0  0  0  0  0  0
   24.2360  -20.5834   -8.9065 C   0  0  0  0  0  0  0  0  0  0  0  0
   24.9610  -19.8489   -9.9562 C   0  0  0  0  0  0  0  0  0  0  0  0
   25.9176  -20.6792  -10.7203 C   0  0  2  0  0  0  0  0  0  0  0  0
   27.2594  -20.7521  -10.2059 N   0  0  0  0  0  0  0  0  0  0  0  0
   26.0097  -20.2104  -12.1406 C   0  0  0  0  0  0  0  0  0  0  0  0
   26.3528  -19.0198  -12.3824 O   0  0  0  0  0  0  0  0  0  0  0  0
   20.1499  -23.1951   -7.8563 N   0  0  0  0  0  0  0  0  0  0  0  0
   25.7315  -21.0411  -13.2349 C   0  0  2  0  0  0  0  0  0  0  0  0
   25.7232  -20.4722  -14.6098 C   0  0  0  0  0  0  0  0  0  0  0  0
   26.6012  -21.4255  -15.3522 C   0  0  0  0  0  0  0  0  0  0  0  0
   26.9335  -21.2599  -16.7604 C   0  0  0  0  0  0  0  0  0  0  0  0
   27.8801  -22.2725  -17.2949 C   0  0  0  0  0  0  0  0  0  0  0  0
   28.1957  -21.9804  -18.7715 N   0  0  0  0  0  0  0  0  0  0  0  0
   29.2729  -22.8611  -19.1556 C   0  0  0  0  0  0  0  0  0  0  0  0
   24.4002  -20.2263  -15.0928 O   0  0  0  0  0  0  0  0  0  0  0  0
   23.3800  -20.6210  -14.4068 N   0  0  0  0  0  0  0  0  0  0  0  0
   24.1982  -19.5514  -16.3187 C   0  0  1  0  0  0  0  0  0  0  0  0
   22.8855  -18.8896  -16.4943 C   0  0  0  0  0  0  0  0  0  0  0  0
   22.7888  -17.8465  -15.4229 C   0  0  0  0  0  0  0  0  0  0  0  0
   21.6996  -16.8951  -15.6110 C   0  0  0  0  0  0  0  0  0  0  0  0
   20.8312  -16.9527  -16.6978 N   0  0  0  0  0  0  0  0  0  0  0  0
   19.9565  -15.9447  -16.5684 C   0  0  0  0  0  0  0  0  0  0  0  0
   20.2609  -15.2786  -15.4458 N   0  0  0  0  0  0  0  0  0  0  0  0
   21.3277  -15.8532  -14.8516 C   0  0  0  0  0  0  0  0  0  0  0  0
   22.8818  -18.3250  -17.8718 O   0  0  0  0  0  0  0  0  0  0  0  0
   24.1014  -17.9957  -18.5056 O   0  0  0  0  0  0  0  0  0  0  0  0
  2  1  1  0
  3  2  2  0
  4  2  1  0
  5  4  1  0
  6  5  1  0
  7  6  1  0
  8  9  1  1
  8  7  1  0
 10  8  1  0
 11 10  2  0
 12 10  1  0
 13 12  1  0
 13 19  1  0
 13 14  1  1
 15 14  1  0
 16 15  1  0
 17 16  1  0
 18 17  1  0
 19 21  1  0
 20 19  2  0
 21 22  1  0
 22 23  1  6
 22 29  1  0
 24 23  1  0
 25 24  2  0
 26 25  1  0
 27 26  1  0
 27 28  2  0
 28 24  1  0
 29 31  2  0
 29 30  1  0
M  END
$$$$
