RKH.pdb
     RDKit          3D

 31 31  0  0  1  0  0  0  0  0999 V2000
   32.2039  -22.5232  -10.4922 N   0  0  0  0  0  0  0  0  0  0  0  0
   31.2829  -22.1283   -9.4724 C   0  0  0  0  0  0  0  0  0  0  0  0
   31.6877  -22.0499   -8.2642 N   0  0  0  0  0  0  0  0  0  0  0  0
   29.9364  -21.8233   -9.7693 N   0  0  0  0  0  0  0  0  0  0  0  0
   29.3982  -21.8112  -11.1096 C   0  0  0  0  0  0  0  0  0  0  0  0
   29.6385  -20.4543  -11.7057 C   0  0  0  0  0  0  0  0  0  0  0  0
   28.3886  -19.7638  -12.0633 C   0  0  0  0  0  0  0  0  0  0  0  0
   27.3771  -20.6393  -12.6948 C   0  0  2  0  0  0  0  0  0  0  0  0
   27.8559  -21.5595  -13.6919 N   0  0  0  0  0  0  0  0  0  0  0  0
   26.2904  -19.8235  -13.3266 C   0  0  0  0  0  0  0  0  0  0  0  0
   25.5873  -19.0599  -12.6082 O   0  0  0  0  0  0  0  0  0  0  0  0
   31.0936  -21.8137   -7.4495 N   0  0  0  0  0  0  0  0  0  0  0  0
   26.0102  -19.8637  -14.6995 C   0  0  1  0  0  0  0  0  0  0  0  0
   24.9386  -18.9965  -15.2595 C   0  0  0  0  0  0  0  0  0  0  0  0
   25.3879  -18.8096  -16.6716 C   0  0  0  0  0  0  0  0  0  0  0  0
   24.6979  -17.9365  -17.6109 C   0  0  0  0  0  0  0  0  0  0  0  0
   25.2187  -17.9903  -19.0011 C   0  0  0  0  0  0  0  0  0  0  0  0
   24.4295  -17.0272  -19.9038 N   0  0  0  0  0  0  0  0  0  0  0  0
   25.0271  -17.0927  -21.2161 C   0  0  0  0  0  0  0  0  0  0  0  0
   23.6292  -19.5135  -15.0098 O   0  0  0  0  0  0  0  0  0  0  0  0
   23.4325  -20.7896  -14.9941 N   0  0  0  0  0  0  0  0  0  0  0  0
   22.5442  -18.6370  -14.7782 C   0  0  2  0  0  0  0  0  0  0  0  0
   21.2351  -19.2723  -14.5050 C   0  0  0  0  0  0  0  0  0  0  0  0
   20.4650  -18.3095  -13.6533 C   0  0  0  0  0  0  0  0  0  0  0  0
   19.0691  -18.6778  -13.4467 C   0  0  0  0  0  0  0  0  0  0  0  0
   18.6841  -19.7273  -12.6166 N   0  0  0  0  0  0  0  0  0  0  0  0
   17.3455  -19.7968  -12.6496 C   0  0  0  0  0  0  0  0  0  0  0  0
   16.9042  -18.8306  -13.4671 N   0  0  0  0  0  0  0  0  0  0  0  0
   17.9529  -18.1391  -13.9607 C   0  0  0  0  0  0  0  0  0  0  0  0
   20.6062  -19.5231  -15.8308 O   0  0  0  0  0  0  0  0  0  0  0  0
   19.7445  -20.6293  -16.0083 O   0  0  0  0  0  0  0  0  0  0  0  0
  2  1  1  0
  3  2  2  0
  4  2  1  0
  5  4  1  0
  6  5  1  0
  7  6  1  0
  8  9  1  6
  8  7  1  0
 10  8  1  0
 11 10  2  0
 12 10  1  0
 13 12  1  0
 13 19  1  0
 13 14  1  1
 15 14  1  0
 16 15  1  0
 17 16  1  0
 18 17  1  0
 19 21  1  0
 20 19  2  0
 21 22  1  0
 22 23  1  6
 22 29  1  0
 24 23  1  0
 25 24  2  0
 26 25  1  0
 27 26  1  0
 27 28  2  0
 28 24  1  0
 29 31  2  0
 29 30  1  0
M  END
$$$$
