RKH.pdb
     RDKit          3D

 31 31  0  0  1  0  0  0  0  0999 V2000
   25.1451  -18.0323  -15.3255 N   0  0  0  0  0  0  0  0  0  0  0  0
   24.0803  -18.6658  -16.0389 C   0  0  0  0  0  0  0  0  0  0  0  0
   23.3097  -17.9553  -16.7676 N   0  0  0  0  0  0  0  0  0  0  0  0
   23.8604  -20.0584  -15.9568 N   0  0  0  0  0  0  0  0  0  0  0  0
   24.4656  -20.9036  -14.9541 C   0  0  0  0  0  0  0  0  0  0  0  0
   24.0052  -22.3146  -15.1816 C   0  0  0  0  0  0  0  0  0  0  0  0
   24.5983  -23.2644  -14.2260 C   0  0  0  0  0  0  0  0  0  0  0  0
   24.2260  -24.6751  -14.4703 C   0  0  2  0  0  0  0  0  0  0  0  0
   24.6509  -25.2446  -15.7215 N   0  0  0  0  0  0  0  0  0  0  0  0
   22.7410  -24.8545  -14.3805 C   0  0  0  0  0  0  0  0  0  0  0  0
   22.0300  -24.6861  -15.4099 O   0  0  0  0  0  0  0  0  0  0  0  0
   22.5097  -18.3147  -17.3183 N   0  0  0  0  0  0  0  0  0  0  0  0
   22.0886  -25.2082  -13.1913 C   0  0  1  0  0  0  0  0  0  0  0  0
   20.6032  -25.2909  -13.1610 C   0  0  0  0  0  0  0  0  0  0  0  0
   20.3669  -26.3814  -12.1681 C   0  0  0  0  0  0  0  0  0  0  0  0
   21.1563  -27.6047  -12.1360 C   0  0  0  0  0  0  0  0  0  0  0  0
   20.6533  -28.6400  -11.1967 C   0  0  0  0  0  0  0  0  0  0  0  0
   21.5139  -29.9109  -11.2931 N   0  0  0  0  0  0  0  0  0  0  0  0
   20.9240  -30.8887  -10.4102 C   0  0  0  0  0  0  0  0  0  0  0  0
   19.9878  -24.0173  -12.9536 O   0  0  0  0  0  0  0  0  0  0  0  0
   20.6902  -23.0258  -12.5166 N   0  0  0  0  0  0  0  0  0  0  0  0
   18.6124  -23.8326  -13.2245 C   0  0  1  0  0  0  0  0  0  0  0  0
   18.2390  -22.5601  -13.8828 C   0  0  0  0  0  0  0  0  0  0  0  0
   18.9750  -22.5246  -15.1874 C   0  0  0  0  0  0  0  0  0  0  0  0
   18.6927  -21.3481  -16.0016 C   0  0  0  0  0  0  0  0  0  0  0  0
   17.7123  -20.4188  -15.6643 N   0  0  0  0  0  0  0  0  0  0  0  0
   17.7117  -19.4714  -16.6131 C   0  0  0  0  0  0  0  0  0  0  0  0
   18.6534  -19.7901  -17.5121 N   0  0  0  0  0  0  0  0  0  0  0  0
   19.2604  -20.9387  -17.1465 C   0  0  0  0  0  0  0  0  0  0  0  0
   16.7587  -22.5881  -14.0392 O   0  0  0  0  0  0  0  0  0  0  0  0
   15.9662  -21.5690  -13.4639 O   0  0  0  0  0  0  0  0  0  0  0  0
  2  1  1  0
  3  2  2  0
  4  2  1  0
  5  4  1  0
  6  5  1  0
  7  6  1  0
  8  9  1  6
  8  7  1  0
 10  8  1  0
 11 10  2  0
 12 10  1  0
 13 12  1  0
 13 19  1  0
 13 14  1  1
 15 14  1  0
 16 15  1  0
 17 16  1  0
 18 17  1  0
 19 21  1  0
 20 19  2  0
 21 22  1  0
 22 23  1  1
 22 29  1  0
 24 23  1  0
 25 24  2  0
 26 25  1  0
 27 26  1  0
 27 28  2  0
 28 24  1  0
 29 31  2  0
 29 30  1  0
M  END
$$$$
