RKH.pdb
     RDKit          3D

 31 31  0  0  1  0  0  0  0  0999 V2000
   16.4166  -17.3812  -15.2240 N   0  0  0  0  0  0  0  0  0  0  0  0
   17.1712  -17.5830  -16.4214 C   0  0  0  0  0  0  0  0  0  0  0  0
   16.7023  -18.3448  -17.3321 N   0  0  0  0  0  0  0  0  0  0  0  0
   18.4229  -16.9601  -16.6209 N   0  0  0  0  0  0  0  0  0  0  0  0
   18.7288  -15.6224  -16.1703 C   0  0  0  0  0  0  0  0  0  0  0  0
   18.2290  -14.6490  -17.1984 C   0  0  0  0  0  0  0  0  0  0  0  0
   18.4591  -13.2478  -16.8101 C   0  0  0  0  0  0  0  0  0  0  0  0
   17.3291  -12.6324  -16.0801 C   0  0  2  0  0  0  0  0  0  0  0  0
   16.0133  -13.1121  -16.4099 N   0  0  0  0  0  0  0  0  0  0  0  0
   17.3221  -11.1460  -16.2700 C   0  0  0  0  0  0  0  0  0  0  0  0
   17.1761  -10.6670  -17.4288 O   0  0  0  0  0  0  0  0  0  0  0  0
   17.1894  -18.5945  -18.2113 N   0  0  0  0  0  0  0  0  0  0  0  0
   17.4698  -10.2433  -15.2078 C   0  0  1  0  0  0  0  0  0  0  0  0
   17.5148   -8.7816  -15.4826 C   0  0  0  0  0  0  0  0  0  0  0  0
   16.3959   -8.2661  -14.6381 C   0  0  0  0  0  0  0  0  0  0  0  0
   14.9940   -8.4899  -14.9623 C   0  0  0  0  0  0  0  0  0  0  0  0
   14.0385   -8.0347  -13.9199 C   0  0  0  0  0  0  0  0  0  0  0  0
   12.6236   -8.5506  -14.2313 N   0  0  0  0  0  0  0  0  0  0  0  0
   11.7933   -8.2172  -13.0986 C   0  0  0  0  0  0  0  0  0  0  0  0
   18.8237   -8.2323  -15.3123 O   0  0  0  0  0  0  0  0  0  0  0  0
   19.5292   -8.5562  -14.2805 N   0  0  0  0  0  0  0  0  0  0  0  0
   19.3548   -7.3351  -16.2673 C   0  0  1  0  0  0  0  0  0  0  0  0
   20.6910   -6.7728  -15.9666 C   0  0  0  0  0  0  0  0  0  0  0  0
   21.2580   -6.3032  -17.2716 C   0  0  0  0  0  0  0  0  0  0  0  0
   22.5562   -5.6485  -17.1588 C   0  0  0  0  0  0  0  0  0  0  0  0
   23.4217   -5.8754  -16.0919 N   0  0  0  0  0  0  0  0  0  0  0  0
   24.5150   -5.1258  -16.2937 C   0  0  0  0  0  0  0  0  0  0  0  0
   24.3460   -4.4536  -17.4409 N   0  0  0  0  0  0  0  0  0  0  0  0
   23.1486   -4.7671  -17.9790 C   0  0  0  0  0  0  0  0  0  0  0  0
   20.4720   -5.6734  -14.9869 O   0  0  0  0  0  0  0  0  0  0  0  0
   19.2980   -4.8890  -15.0531 O   0  0  0  0  0  0  0  0  0  0  0  0
  2  1  1  0
  3  2  2  0
  4  2  1  0
  5  4  1  0
  6  5  1  0
  7  6  1  0
  8  9  1  6
  8  7  1  0
 10  8  1  0
 11 10  2  0
 12 10  1  0
 13 12  1  0
 13 19  1  0
 13 14  1  6
 15 14  1  0
 16 15  1  0
 17 16  1  0
 18 17  1  0
 19 21  1  0
 20 19  2  0
 21 22  1  0
 22 23  1  1
 22 29  1  0
 24 23  1  0
 25 24  2  0
 26 25  1  0
 27 26  1  0
 27 28  2  0
 28 24  1  0
 29 31  2  0
 29 30  1  0
M  END
$$$$
