RKH.pdb
     RDKit          3D

 31 31  0  0  1  0  0  0  0  0999 V2000
   26.0558  -13.6774  -15.0301 N   0  0  0  0  0  0  0  0  0  0  0  0
   25.7165  -13.6799  -16.4190 C   0  0  0  0  0  0  0  0  0  0  0  0
   25.5357  -12.5672  -17.0180 N   0  0  0  0  0  0  0  0  0  0  0  0
   25.5763  -14.8837  -17.1441 N   0  0  0  0  0  0  0  0  0  0  0  0
   25.8110  -16.1899  -16.5743 C   0  0  0  0  0  0  0  0  0  0  0  0
   27.2780  -16.3250  -16.2843 C   0  0  0  0  0  0  0  0  0  0  0  0
   27.5482  -17.1883  -15.1231 C   0  0  0  0  0  0  0  0  0  0  0  0
   27.9382  -18.5703  -15.4786 C   0  0  2  0  0  0  0  0  0  0  0  0
   27.7427  -18.9609  -16.8496 N   0  0  0  0  0  0  0  0  0  0  0  0
   27.2100  -19.5630  -14.6243 C   0  0  0  0  0  0  0  0  0  0  0  0
   26.2633  -20.2351  -15.1198 O   0  0  0  0  0  0  0  0  0  0  0  0
   25.2635  -12.4610  -18.0115 N   0  0  0  0  0  0  0  0  0  0  0  0
   27.5328  -19.7895  -13.2791 C   0  0  2  0  0  0  0  0  0  0  0  0
   26.7136  -20.7344  -12.4728 C   0  0  0  0  0  0  0  0  0  0  0  0
   27.6297  -21.0599  -11.3390 C   0  0  0  0  0  0  0  0  0  0  0  0
   28.9358  -21.6747  -11.5306 C   0  0  0  0  0  0  0  0  0  0  0  0
   29.7372  -21.8228  -10.2885 C   0  0  0  0  0  0  0  0  0  0  0  0
   31.1670  -22.2768  -10.6272 N   0  0  0  0  0  0  0  0  0  0  0  0
   31.8753  -22.4104   -9.3766 C   0  0  0  0  0  0  0  0  0  0  0  0
   25.4095  -20.2228  -12.1872 O   0  0  0  0  0  0  0  0  0  0  0  0
   25.2659  -18.9930  -11.8205 N   0  0  0  0  0  0  0  0  0  0  0  0
   24.2716  -21.0538  -12.3041 C   0  0  1  0  0  0  0  0  0  0  0  0
   22.9571  -20.3920  -12.1424 C   0  0  0  0  0  0  0  0  0  0  0  0
   22.4693  -20.0730  -13.5228 C   0  0  0  0  0  0  0  0  0  0  0  0
   21.1845  -19.3839  -13.5588 C   0  0  0  0  0  0  0  0  0  0  0  0
   20.4710  -19.0643  -12.4066 N   0  0  0  0  0  0  0  0  0  0  0  0
   19.3464  -18.4421  -12.7888 C   0  0  0  0  0  0  0  0  0  0  0  0
   19.3505  -18.3721  -14.1273 N   0  0  0  0  0  0  0  0  0  0  0  0
   20.4728  -18.9465  -14.6089 C   0  0  0  0  0  0  0  0  0  0  0  0
   22.0880  -21.3584  -11.4165 O   0  0  0  0  0  0  0  0  0  0  0  0
   21.0698  -22.0534  -12.1079 O   0  0  0  0  0  0  0  0  0  0  0  0
  2  1  1  0
  3  2  2  0
  4  2  1  0
  5  4  1  0
  6  5  1  0
  7  6  1  0
  8  9  1  6
  8  7  1  0
 10  8  1  0
 11 10  2  0
 12 10  1  0
 13 12  1  0
 13 19  1  0
 13 14  1  6
 15 14  1  0
 16 15  1  0
 17 16  1  0
 18 17  1  0
 19 21  1  0
 20 19  2  0
 21 22  1  0
 22 23  1  1
 22 29  1  0
 24 23  1  0
 25 24  2  0
 26 25  1  0
 27 26  1  0
 27 28  2  0
 28 24  1  0
 29 31  2  0
 29 30  1  0
M  END
$$$$
