RKH.pdb
     RDKit          3D

 31 31  0  0  1  0  0  0  0  0999 V2000
   27.4513  -20.8079   -6.7566 N   0  0  0  0  0  0  0  0  0  0  0  0
   27.4264  -19.5400   -7.4168 C   0  0  0  0  0  0  0  0  0  0  0  0
   28.0654  -18.5596   -6.9068 N   0  0  0  0  0  0  0  0  0  0  0  0
   26.7116  -19.3459   -8.6193 N   0  0  0  0  0  0  0  0  0  0  0  0
   25.9187  -20.3748   -9.2507 C   0  0  0  0  0  0  0  0  0  0  0  0
   26.7189  -20.9690  -10.3736 C   0  0  0  0  0  0  0  0  0  0  0  0
   26.0487  -20.8373  -11.6777 C   0  0  0  0  0  0  0  0  0  0  0  0
   25.0104  -21.8613  -11.9266 C   0  0  2  0  0  0  0  0  0  0  0  0
   25.4726  -23.2075  -12.1372 N   0  0  0  0  0  0  0  0  0  0  0  0
   24.1710  -21.4880  -13.1105 C   0  0  0  0  0  0  0  0  0  0  0  0
   24.5076  -21.8821  -14.2616 O   0  0  0  0  0  0  0  0  0  0  0  0
   28.0415  -17.5848   -7.2557 N   0  0  0  0  0  0  0  0  0  0  0  0
   23.0090  -20.7112  -13.0038 C   0  0  2  0  0  0  0  0  0  0  0  0
   22.2207  -20.3914  -14.2247 C   0  0  0  0  0  0  0  0  0  0  0  0
   20.8491  -20.1847  -13.6708 C   0  0  0  0  0  0  0  0  0  0  0  0
   20.0867  -21.2484  -13.0322 C   0  0  0  0  0  0  0  0  0  0  0  0
   18.7305  -20.8486  -12.5766 C   0  0  0  0  0  0  0  0  0  0  0  0
   17.9613  -22.0730  -12.0527 N   0  0  0  0  0  0  0  0  0  0  0  0
   16.6846  -21.5977  -11.5756 C   0  0  0  0  0  0  0  0  0  0  0  0
   22.8180  -19.3538  -15.0061 O   0  0  0  0  0  0  0  0  0  0  0  0
   23.1962  -18.2569  -14.4395 N   0  0  0  0  0  0  0  0  0  0  0  0
   22.9998  -19.5189  -16.3985 C   0  0  1  0  0  0  0  0  0  0  0  0
   23.6742  -18.4080  -17.1079 C   0  0  0  0  0  0  0  0  0  0  0  0
   24.5440  -19.0372  -18.1532 C   0  0  0  0  0  0  0  0  0  0  0  0
   25.2263  -18.0816  -19.0181 C   0  0  0  0  0  0  0  0  0  0  0  0
   25.1811  -16.7069  -18.8015 N   0  0  0  0  0  0  0  0  0  0  0  0
   25.9053  -16.1229  -19.7670 C   0  0  0  0  0  0  0  0  0  0  0  0
   26.3876  -17.0898  -20.5602 N   0  0  0  0  0  0  0  0  0  0  0  0
   25.9772  -18.2939  -20.1098 C   0  0  0  0  0  0  0  0  0  0  0  0
   22.5934  -17.5544  -17.6731 O   0  0  0  0  0  0  0  0  0  0  0  0
   22.8738  -16.2276  -18.0713 O   0  0  0  0  0  0  0  0  0  0  0  0
  2  1  1  0
  3  2  2  0
  4  2  1  0
  5  4  1  0
  6  5  1  0
  7  6  1  0
  8  9  1  6
  8  7  1  0
 10  8  1  0
 11 10  2  0
 12 10  1  0
 13 12  1  0
 13 19  1  0
 13 14  1  1
 15 14  1  0
 16 15  1  0
 17 16  1  0
 18 17  1  0
 19 21  1  0
 20 19  2  0
 21 22  1  0
 22 23  1  6
 22 29  1  0
 24 23  1  0
 25 24  2  0
 26 25  1  0
 27 26  1  0
 27 28  2  0
 28 24  1  0
 29 31  2  0
 29 30  1  0
M  END
$$$$
