RKH.pdb
     RDKit          3D

 31 31  0  0  1  0  0  0  0  0999 V2000
   20.9870  -23.8873  -14.2669 N   0  0  0  0  0  0  0  0  0  0  0  0
   21.0555  -22.5543  -13.7545 C   0  0  0  0  0  0  0  0  0  0  0  0
   20.0294  -22.0527  -13.1844 N   0  0  0  0  0  0  0  0  0  0  0  0
   22.2309  -21.7791  -13.8641 N   0  0  0  0  0  0  0  0  0  0  0  0
   22.7841  -21.0107  -12.7734 C   0  0  0  0  0  0  0  0  0  0  0  0
   23.6967  -21.9009  -11.9803 C   0  0  0  0  0  0  0  0  0  0  0  0
   24.8660  -22.3472  -12.7552 C   0  0  0  0  0  0  0  0  0  0  0  0
   26.0835  -21.5386  -12.5268 C   0  0  2  0  0  0  0  0  0  0  0  0
   26.3038  -21.0738  -11.1830 N   0  0  0  0  0  0  0  0  0  0  0  0
   26.0972  -20.3368  -13.4219 C   0  0  0  0  0  0  0  0  0  0  0  0
   25.9567  -19.1863  -12.9218 O   0  0  0  0  0  0  0  0  0  0  0  0
   19.9940  -21.1238  -12.7281 N   0  0  0  0  0  0  0  0  0  0  0  0
   26.2629  -20.4255  -14.8110 C   0  0  2  0  0  0  0  0  0  0  0  0
   26.3181  -19.1832  -15.6282 C   0  0  0  0  0  0  0  0  0  0  0  0
   27.5178  -19.4210  -16.4854 C   0  0  0  0  0  0  0  0  0  0  0  0
   27.9828  -18.4611  -17.4769 C   0  0  0  0  0  0  0  0  0  0  0  0
   29.1793  -18.8949  -18.2430 C   0  0  0  0  0  0  0  0  0  0  0  0
   29.6266  -17.7837  -19.2077 N   0  0  0  0  0  0  0  0  0  0  0  0
   30.7911  -18.2737  -19.9059 C   0  0  0  0  0  0  0  0  0  0  0  0
   25.0675  -18.8819  -16.2519 O   0  0  0  0  0  0  0  0  0  0  0  0
   24.0989  -19.7342  -16.1987 N   0  0  0  0  0  0  0  0  0  0  0  0
   24.8805  -17.6543  -16.9281 C   0  0  1  0  0  0  0  0  0  0  0  0
   23.4782  -17.2277  -17.1370 C   0  0  0  0  0  0  0  0  0  0  0  0
   22.8910  -17.0162  -15.7748 C   0  0  0  0  0  0  0  0  0  0  0  0
   21.5006  -17.4380  -15.6507 C   0  0  0  0  0  0  0  0  0  0  0  0
   20.7911  -18.0065  -16.7053 N   0  0  0  0  0  0  0  0  0  0  0  0
   19.5552  -18.2759  -16.2605 C   0  0  0  0  0  0  0  0  0  0  0  0
   19.4880  -17.8932  -14.9777 N   0  0  0  0  0  0  0  0  0  0  0  0
   20.6752  -17.3783  -14.5944 C   0  0  0  0  0  0  0  0  0  0  0  0
   23.5357  -15.9857  -17.9558 O   0  0  0  0  0  0  0  0  0  0  0  0
   24.7584  -15.2931  -18.1074 O   0  0  0  0  0  0  0  0  0  0  0  0
  2  1  1  0
  3  2  2  0
  4  2  1  0
  5  4  1  0
  6  5  1  0
  7  6  1  0
  8  9  1  1
  8  7  1  0
 10  8  1  0
 11 10  2  0
 12 10  1  0
 13 12  1  0
 13 19  1  0
 13 14  1  6
 15 14  1  0
 16 15  1  0
 17 16  1  0
 18 17  1  0
 19 21  1  0
 20 19  2  0
 21 22  1  0
 22 23  1  6
 22 29  1  0
 24 23  1  0
 25 24  2  0
 26 25  1  0
 27 26  1  0
 27 28  2  0
 28 24  1  0
 29 31  2  0
 29 30  1  0
M  END
$$$$
