CDI.pdb
     RDKit          3D

 23 22  0  0  1  0  0  0  0  0999 V2000
   17.9291  -11.7718  -17.4446 N   0  0  0  0  0  0  0  0  0  0  0  0
   18.2523  -10.4108  -17.7614 C   0  0  1  0  0  0  0  0  0  0  0  0
   17.0679   -9.5464  -17.3781 C   0  0  0  0  0  0  0  0  0  0  0  0
   17.3123   -7.8241  -17.8933 S   0  0  0  0  0  0  0  0  0  0  0  0
   19.4117   -9.9010  -16.9873 C   0  0  0  0  0  0  0  0  0  0  0  0
   19.3884  -10.0108  -15.7390 O   0  0  0  0  0  0  0  0  0  0  0  0
   20.5165   -9.3076  -17.6208 N   0  0  0  0  0  0  0  0  0  0  0  0
   21.6779   -8.7985  -16.8881 C   0  0  1  0  0  0  0  0  0  0  0  0
   22.8569   -9.1111  -17.7572 C   0  0  0  0  0  0  0  0  0  0  0  0
   24.1165   -8.7327  -17.1081 C   0  0  0  0  0  0  0  0  0  0  0  0
   24.1007   -8.2795  -15.9435 O   0  0  0  0  0  0  0  0  0  0  0  0
   21.4221   -7.3862  -16.6091 C   0  0  0  0  0  0  0  0  0  0  0  0
   21.3091   -6.5894  -17.6057 O   0  0  0  0  0  0  0  0  0  0  0  0
   25.3169   -8.8704  -17.7649 O   0  0  0  0  0  0  0  0  0  0  0  0
   17.4442   -4.7581  -15.3959 C   0  0  0  0  0  0  0  0  0  0  0  0
   18.8248   -5.0598  -15.8748 C   0  0  0  0  0  0  0  0  0  0  0  0
   19.8232   -4.9269  -14.7303 C   0  0  2  0  0  0  0  0  0  0  0  0
   19.8563   -3.4640  -14.3436 C   0  0  0  0  0  0  0  0  0  0  0  0
   21.2079   -5.3663  -15.1583 C   0  0  2  0  0  0  0  0  0  0  0  0
   21.2793   -6.7996  -15.3109 N   0  0  0  0  0  0  0  0  0  0  0  0
   22.1554   -4.8656  -14.1393 C   0  0  0  0  0  0  0  0  0  0  0  0
   22.4052   -5.4931  -13.0739 O   0  0  0  0  0  0  0  0  0  0  0  0
   22.7896   -3.6573  -14.3749 O   0  0  0  0  0  0  0  0  0  0  0  0
  2  1  1  1
  3  2  1  0
  3  4  1  0
  5  2  1  0
  6  5  2  0
  7  5  1  0
  8  9  1  6
  8  7  1  0
 10  9  1  0
 11 10  2  0
 12 20  1  0
 12  8  1  0
 13 12  2  0
 14 10  1  0
 15 16  1  0
 16 17  1  0
 17 18  1  6
 19 21  1  0
 19 17  1  0
 19 20  1  1
 21 23  1  0
 22 21  2  0
M  END
$$$$
