CDI.pdb
     RDKit          3D

 23 22  0  0  1  0  0  0  0  0999 V2000
   15.4392  -11.9467  -16.7426 N   0  0  0  0  0  0  0  0  0  0  0  0
   15.7572  -11.2150  -15.5507 C   0  0  1  0  0  0  0  0  0  0  0  0
   16.5863  -12.1141  -14.6559 C   0  0  0  0  0  0  0  0  0  0  0  0
   15.5957  -13.4818  -13.9927 S   0  0  0  0  0  0  0  0  0  0  0  0
   16.5845  -10.0121  -15.8191 C   0  0  0  0  0  0  0  0  0  0  0  0
   17.4409  -10.0706  -16.7324 O   0  0  0  0  0  0  0  0  0  0  0  0
   16.4254   -8.8287  -15.0787 N   0  0  0  0  0  0  0  0  0  0  0  0
   17.1854   -7.6073  -15.3533 C   0  0  1  0  0  0  0  0  0  0  0  0
   16.2681   -6.4834  -14.9815 C   0  0  0  0  0  0  0  0  0  0  0  0
   16.8264   -5.1844  -15.3715 C   0  0  0  0  0  0  0  0  0  0  0  0
   17.9996   -5.1179  -15.7971 O   0  0  0  0  0  0  0  0  0  0  0  0
   18.4395   -7.7073  -14.6082 C   0  0  0  0  0  0  0  0  0  0  0  0
   18.3828   -8.0971  -13.3893 O   0  0  0  0  0  0  0  0  0  0  0  0
   16.0748   -4.0368  -15.2754 O   0  0  0  0  0  0  0  0  0  0  0  0
   23.7386  -10.0272  -13.9712 C   0  0  0  0  0  0  0  0  0  0  0  0
   22.9549   -8.7957  -13.6622 C   0  0  0  0  0  0  0  0  0  0  0  0
   21.8013   -8.6411  -14.6468 C   0  0  2  0  0  0  0  0  0  0  0  0
   22.4147   -8.3666  -16.0029 C   0  0  0  0  0  0  0  0  0  0  0  0
   20.9011   -7.4869  -14.2581 C   0  0  2  0  0  0  0  0  0  0  0  0
   19.7443   -7.4115  -15.1177 N   0  0  0  0  0  0  0  0  0  0  0  0
   21.7220   -6.2583  -14.3178 C   0  0  0  0  0  0  0  0  0  0  0  0
   21.6670   -5.4480  -15.2831 O   0  0  0  0  0  0  0  0  0  0  0  0
   22.5826   -5.9959  -13.2651 O   0  0  0  0  0  0  0  0  0  0  0  0
  2  1  1  6
  3  2  1  0
  3  4  1  0
  5  2  1  0
  6  5  2  0
  7  5  1  0
  8  9  1  1
  8  7  1  0
 10  9  1  0
 11 10  2  0
 12 20  1  0
 12  8  1  0
 13 12  2  0
 14 10  1  0
 15 16  1  0
 16 17  1  0
 17 18  1  6
 19 21  1  0
 19 17  1  0
 19 20  1  6
 21 23  1  0
 22 21  2  0
M  END
$$$$
