CDI.pdb
     RDKit          3D

 23 22  0  0  1  0  0  0  0  0999 V2000
   26.5193  -18.3454  -17.0012 N   0  0  0  0  0  0  0  0  0  0  0  0
   27.0036  -18.7396  -15.7099 C   0  0  1  0  0  0  0  0  0  0  0  0
   28.0147  -17.7072  -15.2533 C   0  0  0  0  0  0  0  0  0  0  0  0
   29.6497  -18.0190  -15.9752 S   0  0  0  0  0  0  0  0  0  0  0  0
   25.9354  -18.7651  -14.6794 C   0  0  0  0  0  0  0  0  0  0  0  0
   24.9381  -18.0227  -14.8377 O   0  0  0  0  0  0  0  0  0  0  0  0
   26.0227  -19.5943  -13.5487 N   0  0  0  0  0  0  0  0  0  0  0  0
   24.9238  -19.7617  -12.5951 C   0  0  1  0  0  0  0  0  0  0  0  0
   23.7853  -20.3065  -13.4014 C   0  0  0  0  0  0  0  0  0  0  0  0
   22.5562  -20.3893  -12.6055 C   0  0  0  0  0  0  0  0  0  0  0  0
   22.5445  -19.9455  -11.4372 O   0  0  0  0  0  0  0  0  0  0  0  0
   25.4240  -20.6041  -11.5097 C   0  0  0  0  0  0  0  0  0  0  0  0
   25.6729  -21.8331  -11.7711 O   0  0  0  0  0  0  0  0  0  0  0  0
   21.4143  -20.9494  -13.1286 O   0  0  0  0  0  0  0  0  0  0  0  0
   27.4842  -18.8608   -6.5130 C   0  0  0  0  0  0  0  0  0  0  0  0
   26.4705  -19.3269   -7.5037 C   0  0  0  0  0  0  0  0  0  0  0  0
   26.8933  -20.6622   -8.1058 C   0  0  2  0  0  0  0  0  0  0  0  0
   28.2208  -20.4326   -8.7955 C   0  0  0  0  0  0  0  0  0  0  0  0
   25.8782  -21.1523   -9.1172 C   0  0  2  0  0  0  0  0  0  0  0  0
   25.6702  -20.1811  -10.1643 N   0  0  0  0  0  0  0  0  0  0  0  0
   24.6341  -21.4471   -8.3742 C   0  0  0  0  0  0  0  0  0  0  0  0
   23.5686  -20.7928   -8.5418 O   0  0  0  0  0  0  0  0  0  0  0  0
   24.6503  -22.4869   -7.4597 O   0  0  0  0  0  0  0  0  0  0  0  0
  2  1  1  6
  3  2  1  0
  3  4  1  0
  5  2  1  0
  6  5  2  0
  7  5  1  0
  8  9  1  6
  8  7  1  0
 10  9  1  0
 11 10  2  0
 12 20  1  0
 12  8  1  0
 13 12  2  0
 14 10  1  0
 15 16  1  0
 16 17  1  0
 17 18  1  6
 19 21  1  0
 19 17  1  0
 19 20  1  6
 21 23  1  0
 22 21  2  0
M  END
$$$$
