CDI.pdb
     RDKit          3D

 23 22  0  0  1  0  0  0  0  0999 V2000
   15.9352  -12.7466  -12.7152 N   0  0  0  0  0  0  0  0  0  0  0  0
   15.4735  -11.4591  -13.1469 C   0  0  1  0  0  0  0  0  0  0  0  0
   14.0066  -11.3416  -12.7848 C   0  0  0  0  0  0  0  0  0  0  0  0
   12.9795  -12.4078  -13.8335 S   0  0  0  0  0  0  0  0  0  0  0  0
   16.1662  -10.3407  -12.4593 C   0  0  0  0  0  0  0  0  0  0  0  0
   16.5606  -10.5184  -11.2830 O   0  0  0  0  0  0  0  0  0  0  0  0
   16.3836   -9.1070  -13.0954 N   0  0  0  0  0  0  0  0  0  0  0  0
   17.0939   -7.9954  -12.4591 C   0  0  1  0  0  0  0  0  0  0  0  0
   17.8662   -7.3411  -13.5629 C   0  0  0  0  0  0  0  0  0  0  0  0
   19.2265   -7.8808  -13.6583 C   0  0  0  0  0  0  0  0  0  0  0  0
   19.9504   -7.9178  -12.6401 O   0  0  0  0  0  0  0  0  0  0  0  0
   16.0886   -7.1760  -11.7838 C   0  0  0  0  0  0  0  0  0  0  0  0
   15.0528   -6.8271  -12.4519 O   0  0  0  0  0  0  0  0  0  0  0  0
   19.7171   -8.3480  -14.8551 O   0  0  0  0  0  0  0  0  0  0  0  0
   15.1116   -6.2188   -6.4991 C   0  0  0  0  0  0  0  0  0  0  0  0
   15.2369   -7.1002   -7.6966 C   0  0  0  0  0  0  0  0  0  0  0  0
   14.3197   -6.6116   -8.8121 C   0  0  2  0  0  0  0  0  0  0  0  0
   13.6617   -7.8372   -9.4084 C   0  0  0  0  0  0  0  0  0  0  0  0
   15.1032   -5.8872   -9.8868 C   0  0  2  0  0  0  0  0  0  0  0  0
   16.1484   -6.7229  -10.4271 N   0  0  0  0  0  0  0  0  0  0  0  0
   15.6369   -4.6513   -9.2749 C   0  0  0  0  0  0  0  0  0  0  0  0
   16.8641   -4.4844   -9.0349 O   0  0  0  0  0  0  0  0  0  0  0  0
   14.7441   -3.6417   -8.9568 O   0  0  0  0  0  0  0  0  0  0  0  0
  2  1  1  1
  3  2  1  0
  3  4  1  0
  5  2  1  0
  6  5  2  0
  7  5  1  0
  8  9  1  6
  8  7  1  0
 10  9  1  0
 11 10  2  0
 12 20  1  0
 12  8  1  0
 13 12  2  0
 14 10  1  0
 15 16  1  0
 16 17  1  0
 17 18  1  6
 19 21  1  0
 19 17  1  0
 19 20  1  1
 21 23  1  0
 22 21  2  0
M  END
$$$$
