CDI.pdb
     RDKit          3D

 23 22  0  0  1  0  0  0  0  0999 V2000
   15.1118  -10.7363  -16.8732 N   0  0  0  0  0  0  0  0  0  0  0  0
   16.3418  -10.7826  -16.1369 C   0  0  1  0  0  0  0  0  0  0  0  0
   17.2146  -11.8593  -16.7498 C   0  0  0  0  0  0  0  0  0  0  0  0
   16.9764  -13.4551  -15.9201 S   0  0  0  0  0  0  0  0  0  0  0  0
   17.1121   -9.5169  -16.2260 C   0  0  0  0  0  0  0  0  0  0  0  0
   17.9855   -9.4133  -17.1190 O   0  0  0  0  0  0  0  0  0  0  0  0
   16.8817   -8.4507  -15.3405 N   0  0  0  0  0  0  0  0  0  0  0  0
   17.5526   -7.1544  -15.4605 C   0  0  1  0  0  0  0  0  0  0  0  0
   16.4848   -6.1357  -15.2054 C   0  0  0  0  0  0  0  0  0  0  0  0
   17.0243   -4.7725  -15.2446 C   0  0  0  0  0  0  0  0  0  0  0  0
   16.5034   -3.8804  -14.5411 O   0  0  0  0  0  0  0  0  0  0  0  0
   18.6825   -7.1701  -14.5326 C   0  0  0  0  0  0  0  0  0  0  0  0
   18.4835   -7.6307  -13.3539 O   0  0  0  0  0  0  0  0  0  0  0  0
   18.0978   -4.4621  -16.0461 O   0  0  0  0  0  0  0  0  0  0  0  0
   22.9648   -9.5209  -12.4299 C   0  0  0  0  0  0  0  0  0  0  0  0
   23.0264   -8.1584  -13.0351 C   0  0  0  0  0  0  0  0  0  0  0  0
   21.9596   -8.0093  -14.1139 C   0  0  2  0  0  0  0  0  0  0  0  0
   22.6860   -7.7797  -15.4216 C   0  0  0  0  0  0  0  0  0  0  0  0
   21.0528   -6.8305  -13.8276 C   0  0  2  0  0  0  0  0  0  0  0  0
   20.0103   -6.7179  -14.8191 N   0  0  0  0  0  0  0  0  0  0  0  0
   21.9099   -5.6265  -13.7795 C   0  0  0  0  0  0  0  0  0  0  0  0
   21.9288   -4.7659  -14.7017 O   0  0  0  0  0  0  0  0  0  0  0  0
   22.7208   -5.4458  -12.6716 O   0  0  0  0  0  0  0  0  0  0  0  0
  2  1  1  6
  3  2  1  0
  3  4  1  0
  5  2  1  0
  6  5  2  0
  7  5  1  0
  8  9  1  1
  8  7  1  0
 10  9  1  0
 11 10  2  0
 12 20  1  0
 12  8  1  0
 13 12  2  0
 14 10  1  0
 15 16  1  0
 16 17  1  0
 17 18  1  6
 19 21  1  0
 19 17  1  0
 19 20  1  6
 21 23  1  0
 22 21  2  0
M  END
$$$$
