CDI.pdb
     RDKit          3D

 23 22  0  0  1  0  0  0  0  0999 V2000
   18.0768  -13.4194  -19.9039 N   0  0  0  0  0  0  0  0  0  0  0  0
   17.3796  -12.6152  -18.9424 C   0  0  1  0  0  0  0  0  0  0  0  0
   17.2534  -13.4180  -17.6632 C   0  0  0  0  0  0  0  0  0  0  0  0
   16.1645  -14.8518  -17.8873 S   0  0  0  0  0  0  0  0  0  0  0  0
   18.1158  -11.3756  -18.5889 C   0  0  0  0  0  0  0  0  0  0  0  0
   19.3662  -11.3812  -18.6746 O   0  0  0  0  0  0  0  0  0  0  0  0
   17.4447  -10.2155  -18.1673 N   0  0  0  0  0  0  0  0  0  0  0  0
   18.1072   -8.9169  -18.0273 C   0  0  1  0  0  0  0  0  0  0  0  0
   17.0170   -7.9022  -18.1845 C   0  0  0  0  0  0  0  0  0  0  0  0
   17.5358   -6.5354  -18.0671 C   0  0  0  0  0  0  0  0  0  0  0  0
   18.7609   -6.3506  -17.9028 O   0  0  0  0  0  0  0  0  0  0  0  0
   18.8122   -8.9323  -16.7464 C   0  0  0  0  0  0  0  0  0  0  0  0
   18.2033   -9.4258  -15.7332 O   0  0  0  0  0  0  0  0  0  0  0  0
   16.6910   -5.4525  -18.1360 O   0  0  0  0  0  0  0  0  0  0  0  0
   23.4445  -10.8507  -13.7893 C   0  0  0  0  0  0  0  0  0  0  0  0
   22.4791   -9.7133  -13.8158 C   0  0  0  0  0  0  0  0  0  0  0  0
   21.8705   -9.5675  -15.2060 C   0  0  2  0  0  0  0  0  0  0  0  0
   22.9753   -9.0848  -16.1210 C   0  0  0  0  0  0  0  0  0  0  0  0
   20.7403   -8.5594  -15.2056 C   0  0  2  0  0  0  0  0  0  0  0  0
   20.1383   -8.4461  -16.5123 N   0  0  0  0  0  0  0  0  0  0  0  0
   21.3055   -7.2754  -14.7381 C   0  0  0  0  0  0  0  0  0  0  0  0
   21.6569   -7.0803  -13.5423 O   0  0  0  0  0  0  0  0  0  0  0  0
   21.4513   -6.2519  -15.6595 O   0  0  0  0  0  0  0  0  0  0  0  0
  2  1  1  6
  3  2  1  0
  3  4  1  0
  5  2  1  0
  6  5  2  0
  7  5  1  0
  8  9  1  1
  8  7  1  0
 10  9  1  0
 11 10  2  0
 12 20  1  0
 12  8  1  0
 13 12  2  0
 14 10  1  0
 15 16  1  0
 16 17  1  0
 17 18  1  6
 19 21  1  0
 19 17  1  0
 19 20  1  6
 21 23  1  0
 22 21  2  0
M  END
$$$$
