CDI.pdb
     RDKit          3D

 23 22  0  0  1  0  0  0  0  0999 V2000
   14.9116  -13.1907  -14.2757 N   0  0  0  0  0  0  0  0  0  0  0  0
   14.4733  -12.0080  -13.5928 C   0  0  1  0  0  0  0  0  0  0  0  0
   13.8449  -12.4305  -12.2800 C   0  0  0  0  0  0  0  0  0  0  0  0
   12.3462  -13.4163  -12.5516 S   0  0  0  0  0  0  0  0  0  0  0  0
   15.5927  -11.0962  -13.2478 C   0  0  0  0  0  0  0  0  0  0  0  0
   16.7591  -11.4481  -13.5420 O   0  0  0  0  0  0  0  0  0  0  0  0
   15.3694   -9.8655  -12.6079 N   0  0  0  0  0  0  0  0  0  0  0  0
   16.4071   -8.8424  -12.4617 C   0  0  1  0  0  0  0  0  0  0  0  0
   16.9691   -8.6553  -13.8373 C   0  0  0  0  0  0  0  0  0  0  0  0
   17.9922   -7.6047  -13.8599 C   0  0  0  0  0  0  0  0  0  0  0  0
   17.7594   -6.5269  -14.4484 O   0  0  0  0  0  0  0  0  0  0  0  0
   15.7748   -7.6771  -11.8450 C   0  0  0  0  0  0  0  0  0  0  0  0
   14.6225   -7.3216  -12.2773 O   0  0  0  0  0  0  0  0  0  0  0  0
   19.2062   -7.7898  -13.2410 O   0  0  0  0  0  0  0  0  0  0  0  0
   14.3300   -7.4967   -6.9639 C   0  0  0  0  0  0  0  0  0  0  0  0
   14.3857   -7.1936   -8.4238 C   0  0  0  0  0  0  0  0  0  0  0  0
   15.3730   -6.0635   -8.6928 C   0  0  2  0  0  0  0  0  0  0  0  0
   14.7997   -4.8175   -8.0532 C   0  0  0  0  0  0  0  0  0  0  0  0
   15.5479   -5.8319  -10.1793 C   0  0  2  0  0  0  0  0  0  0  0  0
   16.3249   -6.8858  -10.7863 N   0  0  0  0  0  0  0  0  0  0  0  0
   16.1838   -4.5065  -10.3392 C   0  0  0  0  0  0  0  0  0  0  0  0
   17.4210   -4.3638  -10.5401 O   0  0  0  0  0  0  0  0  0  0  0  0
   15.3786   -3.3824  -10.2642 O   0  0  0  0  0  0  0  0  0  0  0  0
  2  1  1  1
  3  2  1  0
  3  4  1  0
  5  2  1  0
  6  5  2  0
  7  5  1  0
  8  9  1  6
  8  7  1  0
 10  9  1  0
 11 10  2  0
 12 20  1  0
 12  8  1  0
 13 12  2  0
 14 10  1  0
 15 16  1  0
 16 17  1  0
 17 18  1  1
 19 21  1  0
 19 17  1  0
 19 20  1  1
 21 23  1  0
 22 21  2  0
M  END
$$$$
