CDI.pdb
     RDKit          3D

 23 22  0  0  1  0  0  0  0  0999 V2000
   20.7444  -19.4071  -16.1072 N   0  0  0  0  0  0  0  0  0  0  0  0
   21.9293  -18.7146  -15.6902 C   0  0  1  0  0  0  0  0  0  0  0  0
   21.5759  -17.8636  -14.4871 C   0  0  0  0  0  0  0  0  0  0  0  0
   20.5698  -16.4310  -14.9634 S   0  0  0  0  0  0  0  0  0  0  0  0
   23.0076  -19.6353  -15.2508 C   0  0  0  0  0  0  0  0  0  0  0  0
   22.6865  -20.6695  -14.6197 O   0  0  0  0  0  0  0  0  0  0  0  0
   24.3595  -19.3708  -15.5266 N   0  0  0  0  0  0  0  0  0  0  0  0
   25.4381  -20.3070  -15.2022 C   0  0  1  0  0  0  0  0  0  0  0  0
   26.5221  -20.0141  -16.1932 C   0  0  0  0  0  0  0  0  0  0  0  0
   27.6335  -20.9629  -16.0679 C   0  0  0  0  0  0  0  0  0  0  0  0
   27.5808  -21.8674  -15.2070 O   0  0  0  0  0  0  0  0  0  0  0  0
   25.7657  -20.1096  -13.7909 C   0  0  0  0  0  0  0  0  0  0  0  0
   26.4543  -19.0769  -13.4744 O   0  0  0  0  0  0  0  0  0  0  0  0
   28.7346  -20.8706  -16.8865 O   0  0  0  0  0  0  0  0  0  0  0  0
   25.5032  -17.5152   -9.6457 C   0  0  0  0  0  0  0  0  0  0  0  0
   26.2290  -18.5769  -10.4023 C   0  0  0  0  0  0  0  0  0  0  0  0
   25.3468  -19.8099  -10.5627 C   0  0  2  0  0  0  0  0  0  0  0  0
   25.1173  -20.3697   -9.1753 C   0  0  0  0  0  0  0  0  0  0  0  0
   26.0219  -20.8575  -11.4232 C   0  0  2  0  0  0  0  0  0  0  0  0
   25.3821  -20.9690  -12.7121 N   0  0  0  0  0  0  0  0  0  0  0  0
   25.9827  -22.1287  -10.6687 C   0  0  0  0  0  0  0  0  0  0  0  0
   26.6078  -22.2985   -9.5862 O   0  0  0  0  0  0  0  0  0  0  0  0
   25.2248  -23.1687  -11.1802 O   0  0  0  0  0  0  0  0  0  0  0  0
  2  1  1  1
  3  2  1  0
  3  4  1  0
  5  2  1  0
  6  5  2  0
  7  5  1  0
  8  9  1  6
  8  7  1  0
 10  9  1  0
 11 10  2  0
 12 20  1  0
 12  8  1  0
 13 12  2  0
 14 10  1  0
 15 16  1  0
 16 17  1  0
 17 18  1  1
 19 21  1  0
 19 17  1  0
 19 20  1  6
 21 23  1  0
 22 21  2  0
M  END
$$$$
