CDI.pdb
     RDKit          3D

 23 22  0  0  1  0  0  0  0  0999 V2000
   16.5579  -14.7180  -19.1845 N   0  0  0  0  0  0  0  0  0  0  0  0
   17.3255  -14.1964  -18.0909 C   0  0  1  0  0  0  0  0  0  0  0  0
   18.3238  -15.2565  -17.6713 C   0  0  0  0  0  0  0  0  0  0  0  0
   17.4958  -16.8160  -17.2542 S   0  0  0  0  0  0  0  0  0  0  0  0
   18.1181  -12.9986  -18.4658 C   0  0  0  0  0  0  0  0  0  0  0  0
   18.4234  -12.8404  -19.6711 O   0  0  0  0  0  0  0  0  0  0  0  0
   18.5245  -12.0551  -17.5075 N   0  0  0  0  0  0  0  0  0  0  0  0
   18.8822  -10.6761  -17.8470 C   0  0  1  0  0  0  0  0  0  0  0  0
   17.6673  -10.1095  -18.5149 C   0  0  0  0  0  0  0  0  0  0  0  0
   17.8897   -8.7260  -18.9478 C   0  0  0  0  0  0  0  0  0  0  0  0
   17.3854   -7.7855  -18.2973 O   0  0  0  0  0  0  0  0  0  0  0  0
   19.3147  -10.0291  -16.6091 C   0  0  0  0  0  0  0  0  0  0  0  0
   18.5558  -10.1326  -15.5823 O   0  0  0  0  0  0  0  0  0  0  0  0
   18.6473   -8.4492  -20.0616 O   0  0  0  0  0  0  0  0  0  0  0  0
   23.8009  -11.3266  -14.6148 C   0  0  0  0  0  0  0  0  0  0  0  0
   22.4093  -10.8652  -14.8923 C   0  0  0  0  0  0  0  0  0  0  0  0
   22.3218   -9.3475  -14.7779 C   0  0  2  0  0  0  0  0  0  0  0  0
   22.6487   -8.9953  -13.3428 C   0  0  0  0  0  0  0  0  0  0  0  0
   20.9303   -8.8528  -15.1136 C   0  0  2  0  0  0  0  0  0  0  0  0
   20.5238   -9.2840  -16.4295 N   0  0  0  0  0  0  0  0  0  0  0  0
   20.9534   -7.3793  -14.9914 C   0  0  0  0  0  0  0  0  0  0  0  0
   21.0145   -6.6131  -15.9917 O   0  0  0  0  0  0  0  0  0  0  0  0
   20.9047   -6.8284  -13.7218 O   0  0  0  0  0  0  0  0  0  0  0  0
  2  1  1  6
  3  2  1  0
  3  4  1  0
  5  2  1  0
  6  5  2  0
  7  5  1  0
  8  9  1  1
  8  7  1  0
 10  9  1  0
 11 10  2  0
 12 20  1  0
 12  8  1  0
 13 12  2  0
 14 10  1  0
 15 16  1  0
 16 17  1  0
 17 18  1  1
 19 21  1  0
 19 17  1  0
 19 20  1  6
 21 23  1  0
 22 21  2  0
M  END
$$$$
