CDI.pdb
     RDKit          3D

 23 22  0  0  1  0  0  0  0  0999 V2000
    9.7433  -10.4884  -10.2727 N   0  0  0  0  0  0  0  0  0  0  0  0
   10.3137   -9.1725  -10.2929 C   0  0  1  0  0  0  0  0  0  0  0  0
   11.0134   -8.9446   -8.9680 C   0  0  0  0  0  0  0  0  0  0  0  0
    9.8200   -8.7403   -7.6168 S   0  0  0  0  0  0  0  0  0  0  0  0
   11.3469   -9.0108  -11.3463 C   0  0  0  0  0  0  0  0  0  0  0  0
   11.8785  -10.0416  -11.8216 O   0  0  0  0  0  0  0  0  0  0  0  0
   11.7319   -7.7423  -11.8116 N   0  0  0  0  0  0  0  0  0  0  0  0
   12.6432   -7.5497  -12.9419 C   0  0  1  0  0  0  0  0  0  0  0  0
   12.3426   -6.1761  -13.4576 C   0  0  0  0  0  0  0  0  0  0  0  0
   13.1291   -5.8700  -14.6570 C   0  0  0  0  0  0  0  0  0  0  0  0
   13.9522   -6.7063  -15.0874 O   0  0  0  0  0  0  0  0  0  0  0  0
   13.9978   -7.7839  -12.4438 C   0  0  0  0  0  0  0  0  0  0  0  0
   14.2423   -7.5034  -11.2180 O   0  0  0  0  0  0  0  0  0  0  0  0
   12.9725   -4.6731  -15.3159 O   0  0  0  0  0  0  0  0  0  0  0  0
   17.8566  -10.2417  -10.2765 C   0  0  0  0  0  0  0  0  0  0  0  0
   17.9775  -10.2976  -11.7626 C   0  0  0  0  0  0  0  0  0  0  0  0
   16.6237  -10.0394  -12.4142 C   0  0  2  0  0  0  0  0  0  0  0  0
   16.6600  -10.6949  -13.7779 C   0  0  0  0  0  0  0  0  0  0  0  0
   16.3681   -8.5553  -12.5753 C   0  0  2  0  0  0  0  0  0  0  0  0
   15.0924   -8.3080  -13.2032 N   0  0  0  0  0  0  0  0  0  0  0  0
   17.4932   -8.0050  -13.3614 C   0  0  0  0  0  0  0  0  0  0  0  0
   17.4260   -7.8145  -14.6066 O   0  0  0  0  0  0  0  0  0  0  0  0
   18.6639   -7.6884  -12.6929 O   0  0  0  0  0  0  0  0  0  0  0  0
  2  1  1  1
  3  2  1  0
  3  4  1  0
  5  2  1  0
  6  5  2  0
  7  5  1  0
  8  9  1  1
  8  7  1  0
 10  9  1  0
 11 10  2  0
 12 20  1  0
 12  8  1  0
 13 12  2  0
 14 10  1  0
 15 16  1  0
 16 17  1  0
 17 18  1  6
 19 21  1  0
 19 17  1  0
 19 20  1  6
 21 23  1  0
 22 21  2  0
M  END
$$$$
