CDI.pdb
     RDKit          3D

 23 22  0  0  1  0  0  0  0  0999 V2000
   20.5674  -10.3078  -18.2925 N   0  0  0  0  0  0  0  0  0  0  0  0
   20.6230  -10.6705  -16.9059 C   0  0  1  0  0  0  0  0  0  0  0  0
   22.0511  -10.4916  -16.4315 C   0  0  0  0  0  0  0  0  0  0  0  0
   23.0979  -11.8808  -16.9473 S   0  0  0  0  0  0  0  0  0  0  0  0
   19.7837   -9.7955  -16.0496 C   0  0  0  0  0  0  0  0  0  0  0  0
   19.8374   -8.5566  -16.2315 O   0  0  0  0  0  0  0  0  0  0  0  0
   18.9439  -10.3248  -15.0553 N   0  0  0  0  0  0  0  0  0  0  0  0
   17.9979   -9.5080  -14.2920 C   0  0  1  0  0  0  0  0  0  0  0  0
   16.7488  -10.3302  -14.2089 C   0  0  0  0  0  0  0  0  0  0  0  0
   15.7458   -9.8809  -15.1800 C   0  0  0  0  0  0  0  0  0  0  0  0
   15.8557   -8.7524  -15.7059 O   0  0  0  0  0  0  0  0  0  0  0  0
   18.6485   -9.1697  -13.0270 C   0  0  0  0  0  0  0  0  0  0  0  0
   19.1270  -10.1280  -12.3243 O   0  0  0  0  0  0  0  0  0  0  0  0
   14.6843  -10.6862  -15.5206 O   0  0  0  0  0  0  0  0  0  0  0  0
   22.3505   -8.4034   -9.7915 C   0  0  0  0  0  0  0  0  0  0  0  0
   21.6976   -7.1119  -10.1550 C   0  0  0  0  0  0  0  0  0  0  0  0
   20.9465   -7.2511  -11.4744 C   0  0  2  0  0  0  0  0  0  0  0  0
   20.9951   -5.8990  -12.1526 C   0  0  0  0  0  0  0  0  0  0  0  0
   19.5031   -7.6471  -11.2431 C   0  0  2  0  0  0  0  0  0  0  0  0
   18.8089   -7.8516  -12.4918 N   0  0  0  0  0  0  0  0  0  0  0  0
   18.8855   -6.5776  -10.4298 C   0  0  0  0  0  0  0  0  0  0  0  0
   19.1634   -6.4006   -9.2121 O   0  0  0  0  0  0  0  0  0  0  0  0
   17.9662   -5.7411  -11.0404 O   0  0  0  0  0  0  0  0  0  0  0  0
  2  1  1  6
  3  2  1  0
  3  4  1  0
  5  2  1  0
  6  5  2  0
  7  5  1  0
  8  9  1  1
  8  7  1  0
 10  9  1  0
 11 10  2  0
 12 20  1  0
 12  8  1  0
 13 12  2  0
 14 10  1  0
 15 16  1  0
 16 17  1  0
 17 18  1  1
 19 21  1  0
 19 17  1  0
 19 20  1  6
 21 23  1  0
 22 21  2  0
M  END
$$$$
