CDI.pdb
     RDKit          3D

 23 22  0  0  1  0  0  0  0  0999 V2000
   22.3072  -13.4910  -17.9902 N   0  0  0  0  0  0  0  0  0  0  0  0
   22.1450  -12.4059  -17.0663 C   0  0  1  0  0  0  0  0  0  0  0  0
   23.5148  -11.8227  -16.7831 C   0  0  0  0  0  0  0  0  0  0  0  0
   24.5252  -12.9591  -15.7934 S   0  0  0  0  0  0  0  0  0  0  0  0
   21.3240  -11.2994  -17.6188 C   0  0  0  0  0  0  0  0  0  0  0  0
   20.9080  -11.3981  -18.7970 O   0  0  0  0  0  0  0  0  0  0  0  0
   21.0108  -10.1626  -16.8550 N   0  0  0  0  0  0  0  0  0  0  0  0
   20.1026   -9.1129  -17.3221 C   0  0  1  0  0  0  0  0  0  0  0  0
   18.7758   -9.7878  -17.4870 C   0  0  0  0  0  0  0  0  0  0  0  0
   17.7519   -8.8494  -17.9581 C   0  0  0  0  0  0  0  0  0  0  0  0
   16.5540   -9.0374  -17.6555 O   0  0  0  0  0  0  0  0  0  0  0  0
   20.1706   -8.0240  -16.3485 C   0  0  0  0  0  0  0  0  0  0  0  0
   20.1003   -8.3263  -15.1057 O   0  0  0  0  0  0  0  0  0  0  0  0
   18.0930   -7.7631  -18.7295 O   0  0  0  0  0  0  0  0  0  0  0  0
   22.1250   -4.8682  -13.1023 C   0  0  0  0  0  0  0  0  0  0  0  0
   22.2693   -4.2482  -14.4518 C   0  0  0  0  0  0  0  0  0  0  0  0
   22.0208   -5.2859  -15.5407 C   0  0  2  0  0  0  0  0  0  0  0  0
   22.4310   -4.6530  -16.8528 C   0  0  0  0  0  0  0  0  0  0  0  0
   20.5581   -5.6733  -15.6037 C   0  0  2  0  0  0  0  0  0  0  0  0
   20.3146   -6.6328  -16.6539 N   0  0  0  0  0  0  0  0  0  0  0  0
   19.7877   -4.4261  -15.7976 C   0  0  0  0  0  0  0  0  0  0  0  0
   19.2723   -4.1082  -16.9042 O   0  0  0  0  0  0  0  0  0  0  0  0
   19.6312   -3.5798  -14.7127 O   0  0  0  0  0  0  0  0  0  0  0  0
  2  1  1  6
  3  2  1  0
  3  4  1  0
  5  2  1  0
  6  5  2  0
  7  5  1  0
  8  9  1  1
  8  7  1  0
 10  9  1  0
 11 10  2  0
 12 20  1  0
 12  8  1  0
 13 12  2  0
 14 10  1  0
 15 16  1  0
 16 17  1  0
 17 18  1  6
 19 21  1  0
 19 17  1  0
 19 20  1  6
 21 23  1  0
 22 21  2  0
M  END
$$$$
