DGD.pdb
     RDKit          3D

 21 20  0  0  1  0  0  0  0  0999 V2000
   16.3245  -11.9003  -15.9420 N   0  0  0  0  0  0  0  0  0  0  0  0
   17.4789  -12.5829  -15.4342 C   0  0  1  0  0  0  0  0  0  0  0  0
   17.6562  -13.9287  -16.1406 C   0  0  0  0  0  0  0  0  0  0  0  0
   16.6922  -14.8720  -15.4838 C   0  0  0  0  0  0  0  0  0  0  0  0
   16.0346  -14.5376  -14.4751 O   0  0  0  0  0  0  0  0  0  0  0  0
   18.6786  -11.7266  -15.6154 C   0  0  0  0  0  0  0  0  0  0  0  0
   19.8112  -12.0238  -15.2142 O   0  0  0  0  0  0  0  0  0  0  0  0
   16.5187  -16.1439  -15.9977 O   0  0  0  0  0  0  0  0  0  0  0  0
   18.4879  -10.4912  -16.2972 N   0  0  0  0  0  0  0  0  0  0  0  0
   19.6097   -9.6248  -16.5209 C   0  0  0  0  0  0  0  0  0  0  0  0
   19.7117   -8.5539  -15.4963 C   0  0  0  0  0  0  0  0  0  0  0  0
   18.8164   -8.4127  -14.6257 O   0  0  0  0  0  0  0  0  0  0  0  0
   20.8308   -7.6810  -15.4996 N   0  0  0  0  0  0  0  0  0  0  0  0
   20.9902   -6.5720  -14.5728 C   0  0  1  0  0  0  0  0  0  0  0  0
   22.3731   -6.0407  -14.5356 C   0  0  0  0  0  0  0  0  0  0  0  0
   22.4436   -4.8325  -13.6917 C   0  0  0  0  0  0  0  0  0  0  0  0
   22.1051   -4.7561  -12.4885 O   0  0  0  0  0  0  0  0  0  0  0  0
   20.0773   -5.5027  -15.0016 C   0  0  0  0  0  0  0  0  0  0  0  0
   19.7636   -5.3346  -16.1966 O   0  0  0  0  0  0  0  0  0  0  0  0
   22.9309   -3.6302  -14.2518 O   0  0  0  0  0  0  0  0  0  0  0  0
   19.5412   -4.6475  -14.0597 O   0  0  0  0  0  0  0  0  0  0  0  0
  2  3  1  0
  2  1  1  6
  3  4  1  0
  4  8  1  0
  4  5  2  0
  6  2  1  0
  7  6  2  0
  9  6  1  0
 10  9  1  0
 11 10  1  0
 11 13  1  0
 12 11  2  0
 14 13  1  0
 14 18  1  0
 14 15  1  6
 16 15  1  0
 16 17  2  0
 18 21  1  0
 19 18  2  0
 20 16  1  0
M  END
$$$$
