DGD.pdb
     RDKit          3D

 21 20  0  0  1  0  0  0  0  0999 V2000
   19.0532  -11.6228  -17.9538 N   0  0  0  0  0  0  0  0  0  0  0  0
   19.3546  -12.5301  -16.8850 C   0  0  1  0  0  0  0  0  0  0  0  0
   20.2754  -13.6483  -17.3785 C   0  0  0  0  0  0  0  0  0  0  0  0
   19.3968  -14.8453  -17.5915 C   0  0  0  0  0  0  0  0  0  0  0  0
   18.1979  -14.8477  -17.2386 O   0  0  0  0  0  0  0  0  0  0  0  0
   19.9807  -11.7830  -15.7647 C   0  0  0  0  0  0  0  0  0  0  0  0
   20.2281  -12.2732  -14.6552 O   0  0  0  0  0  0  0  0  0  0  0  0
   19.9144  -15.9785  -18.1915 O   0  0  0  0  0  0  0  0  0  0  0  0
   20.3080  -10.4187  -16.0070 N   0  0  0  0  0  0  0  0  0  0  0  0
   21.0398   -9.6791  -15.0188 C   0  0  0  0  0  0  0  0  0  0  0  0
   21.3260   -8.2866  -15.4502 C   0  0  0  0  0  0  0  0  0  0  0  0
   21.1992   -7.9499  -16.6543 O   0  0  0  0  0  0  0  0  0  0  0  0
   21.7472   -7.3261  -14.4940 N   0  0  0  0  0  0  0  0  0  0  0  0
   21.6480   -5.8897  -14.6974 C   0  0  1  0  0  0  0  0  0  0  0  0
   20.2493   -5.4163  -14.8220 C   0  0  0  0  0  0  0  0  0  0  0  0
   20.2136   -3.9702  -15.1122 C   0  0  0  0  0  0  0  0  0  0  0  0
   21.0519   -3.3368  -15.7935 O   0  0  0  0  0  0  0  0  0  0  0  0
   22.2743   -5.2349  -13.5400 C   0  0  0  0  0  0  0  0  0  0  0  0
   22.5076   -5.8430  -12.4767 O   0  0  0  0  0  0  0  0  0  0  0  0
   19.1550   -3.1909  -14.5937 O   0  0  0  0  0  0  0  0  0  0  0  0
   22.6216   -3.9010  -13.6185 O   0  0  0  0  0  0  0  0  0  0  0  0
  2  3  1  0
  2  1  1  6
  3  4  1  0
  4  8  1  0
  4  5  2  0
  6  2  1  0
  7  6  2  0
  9  6  1  0
 10  9  1  0
 11 10  1  0
 11 13  1  0
 12 11  2  0
 14 13  1  0
 14 18  1  0
 14 15  1  1
 16 15  1  0
 16 17  2  0
 18 21  1  0
 19 18  2  0
 20 16  1  0
M  END
$$$$
