DGD.pdb
     RDKit          3D

 21 20  0  0  1  0  0  0  0  0999 V2000
   17.2446  -12.8363  -14.8312 N   0  0  0  0  0  0  0  0  0  0  0  0
   18.3741  -13.2500  -15.6119 C   0  0  1  0  0  0  0  0  0  0  0  0
   17.9140  -14.0464  -16.8349 C   0  0  0  0  0  0  0  0  0  0  0  0
   16.4173  -14.1042  -16.7530 C   0  0  0  0  0  0  0  0  0  0  0  0
   15.8302  -14.3498  -15.6774 O   0  0  0  0  0  0  0  0  0  0  0  0
   19.1564  -12.0556  -16.0202 C   0  0  0  0  0  0  0  0  0  0  0  0
   20.3273  -12.0955  -16.4199 O   0  0  0  0  0  0  0  0  0  0  0  0
   15.6588  -13.8822  -17.8876 O   0  0  0  0  0  0  0  0  0  0  0  0
   18.4957  -10.7971  -15.9381 N   0  0  0  0  0  0  0  0  0  0  0  0
   19.1388   -9.6238  -16.4567 C   0  0  0  0  0  0  0  0  0  0  0  0
   19.5634   -8.6890  -15.3829 C   0  0  0  0  0  0  0  0  0  0  0  0
   19.2440   -8.9005  -14.1860 O   0  0  0  0  0  0  0  0  0  0  0  0
   20.3371   -7.5453  -15.7108 N   0  0  0  0  0  0  0  0  0  0  0  0
   20.8587   -6.6150  -14.7224 C   0  0  1  0  0  0  0  0  0  0  0  0
   22.1680   -6.0356  -15.1046 C   0  0  0  0  0  0  0  0  0  0  0  0
   22.6627   -5.1285  -14.0515 C   0  0  0  0  0  0  0  0  0  0  0  0
   23.1020   -5.4743  -12.9309 O   0  0  0  0  0  0  0  0  0  0  0  0
   19.8784   -5.5295  -14.5762 C   0  0  0  0  0  0  0  0  0  0  0  0
   19.1146   -5.1931  -15.5026 O   0  0  0  0  0  0  0  0  0  0  0  0
   22.6579   -3.7351  -14.2863 O   0  0  0  0  0  0  0  0  0  0  0  0
   19.7891   -4.8503  -13.3776 O   0  0  0  0  0  0  0  0  0  0  0  0
  2  3  1  0
  2  1  1  6
  3  4  1  0
  4  8  1  0
  4  5  2  0
  6  2  1  0
  7  6  2  0
  9  6  1  0
 10  9  1  0
 11 10  1  0
 11 13  1  0
 12 11  2  0
 14 13  1  0
 14 18  1  0
 14 15  1  6
 16 15  1  0
 16 17  2  0
 18 21  1  0
 19 18  2  0
 20 16  1  0
M  END
$$$$
