DGD.pdb
     RDKit          3D

 21 20  0  0  1  0  0  0  0  0999 V2000
   17.4626   -9.8983  -14.3068 N   0  0  0  0  0  0  0  0  0  0  0  0
   18.8319   -9.8672  -13.8818 C   0  0  1  0  0  0  0  0  0  0  0  0
   19.6939   -9.1367  -14.9138 C   0  0  0  0  0  0  0  0  0  0  0  0
   19.6179   -9.9529  -16.1700 C   0  0  0  0  0  0  0  0  0  0  0  0
   19.8854  -11.1737  -16.1740 O   0  0  0  0  0  0  0  0  0  0  0  0
   18.9221   -9.2088  -12.5538 C   0  0  0  0  0  0  0  0  0  0  0  0
   19.9820   -9.0184  -11.9434 O   0  0  0  0  0  0  0  0  0  0  0  0
   19.2440   -9.3514  -17.3577 O   0  0  0  0  0  0  0  0  0  0  0  0
   17.6984   -8.7780  -11.9668 N   0  0  0  0  0  0  0  0  0  0  0  0
   17.6968   -8.2674  -10.6258 C   0  0  0  0  0  0  0  0  0  0  0  0
   16.3980   -7.6473  -10.2573 C   0  0  0  0  0  0  0  0  0  0  0  0
   15.4844   -7.5185  -11.1106 O   0  0  0  0  0  0  0  0  0  0  0  0
   16.1858   -7.1952   -8.9288 N   0  0  0  0  0  0  0  0  0  0  0  0
   15.0133   -6.4435   -8.5112 C   0  0  1  0  0  0  0  0  0  0  0  0
   14.8839   -6.3404   -7.0386 C   0  0  0  0  0  0  0  0  0  0  0  0
   13.6379   -5.6396   -6.6737 C   0  0  0  0  0  0  0  0  0  0  0  0
   12.5982   -5.5797   -7.3690 O   0  0  0  0  0  0  0  0  0  0  0  0
   15.1294   -5.0922   -9.0779 C   0  0  0  0  0  0  0  0  0  0  0  0
   16.2327   -4.5659   -9.3234 O   0  0  0  0  0  0  0  0  0  0  0  0
   13.5680   -4.9608   -5.4363 O   0  0  0  0  0  0  0  0  0  0  0  0
   13.9859   -4.3692   -9.3529 O   0  0  0  0  0  0  0  0  0  0  0  0
  2  3  1  0
  2  1  1  6
  3  4  1  0
  4  8  1  0
  4  5  2  0
  6  2  1  0
  7  6  2  0
  9  6  1  0
 10  9  1  0
 11 10  1  0
 11 13  1  0
 12 11  2  0
 14 13  1  0
 14 18  1  0
 14 15  1  1
 16 15  1  0
 16 17  2  0
 18 21  1  0
 19 18  2  0
 20 16  1  0
M  END
$$$$
