DGD.pdb
     RDKit          3D

 21 20  0  0  1  0  0  0  0  0999 V2000
   20.5871   -9.1600  -16.3718 N   0  0  0  0  0  0  0  0  0  0  0  0
   19.9415   -9.5003  -15.1373 C   0  0  1  0  0  0  0  0  0  0  0  0
   20.2416  -10.9531  -14.7615 C   0  0  0  0  0  0  0  0  0  0  0  0
   19.3524  -11.7971  -15.6259 C   0  0  0  0  0  0  0  0  0  0  0  0
   18.4830  -11.2870  -16.3647 O   0  0  0  0  0  0  0  0  0  0  0  0
   20.3948   -8.5720  -14.0705 C   0  0  0  0  0  0  0  0  0  0  0  0
   19.8933   -8.5146  -12.9403 O   0  0  0  0  0  0  0  0  0  0  0  0
   19.4887  -13.1731  -15.6135 O   0  0  0  0  0  0  0  0  0  0  0  0
   21.4763   -7.7036  -14.3926 N   0  0  0  0  0  0  0  0  0  0  0  0
   22.0594   -6.8873  -13.3666 C   0  0  0  0  0  0  0  0  0  0  0  0
   21.9222   -5.4356  -13.6514 C   0  0  0  0  0  0  0  0  0  0  0  0
   22.4440   -4.5815  -12.8914 O   0  0  0  0  0  0  0  0  0  0  0  0
   21.1947   -5.0080  -14.7925 N   0  0  0  0  0  0  0  0  0  0  0  0
   21.1012   -3.6197  -15.2146 C   0  0  1  0  0  0  0  0  0  0  0  0
   21.4266   -3.4254  -16.6473 C   0  0  0  0  0  0  0  0  0  0  0  0
   21.2262   -2.0173  -17.0398 C   0  0  0  0  0  0  0  0  0  0  0  0
   21.0134   -1.0606  -16.2604 O   0  0  0  0  0  0  0  0  0  0  0  0
   19.7212   -3.1756  -14.9720 C   0  0  0  0  0  0  0  0  0  0  0  0
   19.3772   -1.9820  -15.0798 O   0  0  0  0  0  0  0  0  0  0  0  0
   21.2702   -1.6725  -18.4094 O   0  0  0  0  0  0  0  0  0  0  0  0
   18.7621   -4.1011  -14.6117 O   0  0  0  0  0  0  0  0  0  0  0  0
  2  3  1  0
  2  1  1  6
  3  4  1  0
  4  8  1  0
  4  5  2  0
  6  2  1  0
  7  6  2  0
  9  6  1  0
 10  9  1  0
 11 10  1  0
 11 13  1  0
 12 11  2  0
 14 13  1  0
 14 18  1  0
 14 15  1  6
 16 15  1  0
 16 17  2  0
 18 21  1  0
 19 18  2  0
 20 16  1  0
M  END
$$$$
