DGD.pdb
     RDKit          3D

 21 20  0  0  1  0  0  0  0  0999 V2000
   18.4301   -9.1296  -15.6903 N   0  0  0  0  0  0  0  0  0  0  0  0
   18.1035   -9.4533  -14.3320 C   0  0  1  0  0  0  0  0  0  0  0  0
   18.1362  -10.9689  -14.1225 C   0  0  0  0  0  0  0  0  0  0  0  0
   16.8215  -11.4857  -14.6273 C   0  0  0  0  0  0  0  0  0  0  0  0
   15.9334  -10.7137  -15.0481 O   0  0  0  0  0  0  0  0  0  0  0  0
   19.0554   -8.7710  -13.4190 C   0  0  0  0  0  0  0  0  0  0  0  0
   18.9716   -8.7946  -12.1842 O   0  0  0  0  0  0  0  0  0  0  0  0
   16.5752  -12.8463  -14.6321 O   0  0  0  0  0  0  0  0  0  0  0  0
   20.1232   -8.0514  -14.0265 N   0  0  0  0  0  0  0  0  0  0  0  0
   21.1638   -7.5007  -13.2061 C   0  0  0  0  0  0  0  0  0  0  0  0
   21.6938   -6.2220  -13.7458 C   0  0  0  0  0  0  0  0  0  0  0  0
   22.6221   -5.6135  -13.1565 O   0  0  0  0  0  0  0  0  0  0  0  0
   21.1470   -5.6811  -14.9386 N   0  0  0  0  0  0  0  0  0  0  0  0
   21.6597   -4.4869  -15.5907 C   0  0  1  0  0  0  0  0  0  0  0  0
   21.4871   -4.5096  -17.0624 C   0  0  0  0  0  0  0  0  0  0  0  0
   22.3392   -5.5495  -17.6701 C   0  0  0  0  0  0  0  0  0  0  0  0
   23.4466   -5.9389  -17.2341 O   0  0  0  0  0  0  0  0  0  0  0  0
   20.9310   -3.3351  -15.0404 C   0  0  0  0  0  0  0  0  0  0  0  0
   21.2582   -2.1584  -15.2916 O   0  0  0  0  0  0  0  0  0  0  0  0
   21.9048   -6.1900  -18.8523 O   0  0  0  0  0  0  0  0  0  0  0  0
   19.8448   -3.5483  -14.2153 O   0  0  0  0  0  0  0  0  0  0  0  0
  2  3  1  0
  2  1  1  6
  3  4  1  0
  4  8  1  0
  4  5  2  0
  6  2  1  0
  7  6  2  0
  9  6  1  0
 10  9  1  0
 11 10  1  0
 11 13  1  0
 12 11  2  0
 14 13  1  0
 14 18  1  0
 14 15  1  6
 16 15  1  0
 16 17  2  0
 18 21  1  0
 19 18  2  0
 20 16  1  0
M  END
$$$$
