DGD.pdb
     RDKit          3D

 21 20  0  0  1  0  0  0  0  0999 V2000
   22.6592  -22.3004  -14.8833 N   0  0  0  0  0  0  0  0  0  0  0  0
   21.5455  -21.4150  -14.7035 C   0  0  1  0  0  0  0  0  0  0  0  0
   20.2698  -22.2128  -14.4244 C   0  0  0  0  0  0  0  0  0  0  0  0
   19.9672  -22.9657  -15.6861 C   0  0  0  0  0  0  0  0  0  0  0  0
   20.3850  -24.1291  -15.8696 O   0  0  0  0  0  0  0  0  0  0  0  0
   21.8368  -20.4744  -13.5920 C   0  0  0  0  0  0  0  0  0  0  0  0
   21.1568  -19.4729  -13.3333 O   0  0  0  0  0  0  0  0  0  0  0  0
   19.2090  -22.3687  -16.6764 O   0  0  0  0  0  0  0  0  0  0  0  0
   22.9750  -20.7648  -12.7873 N   0  0  0  0  0  0  0  0  0  0  0  0
   23.2922  -19.9151  -11.6753 C   0  0  0  0  0  0  0  0  0  0  0  0
   24.4319  -20.4318  -10.8746 C   0  0  0  0  0  0  0  0  0  0  0  0
   24.9541  -21.5423  -11.1456 O   0  0  0  0  0  0  0  0  0  0  0  0
   24.9367  -19.6647   -9.7924 N   0  0  0  0  0  0  0  0  0  0  0  0
   26.0935  -20.0518   -9.0011 C   0  0  1  0  0  0  0  0  0  0  0  0
   26.6338  -18.9419   -8.1811 C   0  0  0  0  0  0  0  0  0  0  0  0
   27.8547  -19.3669   -7.4702 C   0  0  0  0  0  0  0  0  0  0  0  0
   28.6745  -20.2262   -7.8674 O   0  0  0  0  0  0  0  0  0  0  0  0
   25.6753  -21.1450   -8.1119 C   0  0  0  0  0  0  0  0  0  0  0  0
   24.4910  -21.2938   -7.7513 O   0  0  0  0  0  0  0  0  0  0  0  0
   28.1657  -18.7767   -6.2246 O   0  0  0  0  0  0  0  0  0  0  0  0
   26.6153  -22.0457   -7.6524 O   0  0  0  0  0  0  0  0  0  0  0  0
  2  3  1  0
  2  1  1  1
  3  4  1  0
  4  8  1  0
  4  5  2  0
  6  2  1  0
  7  6  2  0
  9  6  1  0
 10  9  1  0
 11 10  1  0
 11 13  1  0
 12 11  2  0
 14 13  1  0
 14 18  1  0
 14 15  1  1
 16 15  1  0
 16 17  2  0
 18 21  1  0
 19 18  2  0
 20 16  1  0
M  END
$$$$
