DGD.pdb
     RDKit          3D

 21 20  0  0  1  0  0  0  0  0999 V2000
   16.2029  -14.2362  -13.5245 N   0  0  0  0  0  0  0  0  0  0  0  0
   16.4314  -14.9445  -14.7502 C   0  0  1  0  0  0  0  0  0  0  0  0
   15.1126  -15.4844  -15.3079 C   0  0  0  0  0  0  0  0  0  0  0  0
   14.6961  -16.5931  -14.3873 C   0  0  0  0  0  0  0  0  0  0  0  0
   14.9290  -16.5467  -13.1603 O   0  0  0  0  0  0  0  0  0  0  0  0
   17.0902  -14.0410  -15.7274 C   0  0  0  0  0  0  0  0  0  0  0  0
   17.3780  -14.3635  -16.8873 O   0  0  0  0  0  0  0  0  0  0  0  0
   14.0381  -17.6975  -14.8967 O   0  0  0  0  0  0  0  0  0  0  0  0
   17.3997  -12.7259  -15.2778 N   0  0  0  0  0  0  0  0  0  0  0  0
   17.9657  -11.7783  -16.1948 C   0  0  0  0  0  0  0  0  0  0  0  0
   18.1053  -10.4254  -15.5970 C   0  0  0  0  0  0  0  0  0  0  0  0
   17.4586  -10.1103  -14.5666 O   0  0  0  0  0  0  0  0  0  0  0  0
   18.9772   -9.4784  -16.1948 N   0  0  0  0  0  0  0  0  0  0  0  0
   19.6100   -8.3922  -15.4640 C   0  0  1  0  0  0  0  0  0  0  0  0
   20.6339   -8.8601  -14.5002 C   0  0  0  0  0  0  0  0  0  0  0  0
   21.1723   -7.7277  -13.7227 C   0  0  0  0  0  0  0  0  0  0  0  0
   20.8931   -6.5192  -13.8956 O   0  0  0  0  0  0  0  0  0  0  0  0
   20.2482   -7.5086  -16.4500 C   0  0  0  0  0  0  0  0  0  0  0  0
   20.7577   -7.9429  -17.5019 O   0  0  0  0  0  0  0  0  0  0  0  0
   22.0895   -7.9847  -12.6790 O   0  0  0  0  0  0  0  0  0  0  0  0
   20.2923   -6.1485  -16.2168 O   0  0  0  0  0  0  0  0  0  0  0  0
  2  3  1  0
  2  1  1  1
  3  4  1  0
  4  8  1  0
  4  5  2  0
  6  2  1  0
  7  6  2  0
  9  6  1  0
 10  9  1  0
 11 10  1  0
 11 13  1  0
 12 11  2  0
 14 13  1  0
 14 18  1  0
 14 15  1  1
 16 15  1  0
 16 17  2  0
 18 21  1  0
 19 18  2  0
 20 16  1  0
M  END
$$$$
