DGD.pdb
     RDKit          3D

 21 20  0  0  1  0  0  0  0  0999 V2000
   18.9768  -12.1767  -18.8973 N   0  0  0  0  0  0  0  0  0  0  0  0
   18.7737  -13.0568  -17.7835 C   0  0  1  0  0  0  0  0  0  0  0  0
   18.9787  -14.5122  -18.2097 C   0  0  0  0  0  0  0  0  0  0  0  0
   17.6521  -14.9833  -18.7278 C   0  0  0  0  0  0  0  0  0  0  0  0
   16.6286  -14.2707  -18.6484 O   0  0  0  0  0  0  0  0  0  0  0  0
   19.7052  -12.6890  -16.6870 C   0  0  0  0  0  0  0  0  0  0  0  0
   19.7580  -13.2710  -15.5958 O   0  0  0  0  0  0  0  0  0  0  0  0
   17.5471  -16.2336  -19.3090 O   0  0  0  0  0  0  0  0  0  0  0  0
   20.5830  -11.5948  -16.9309 N   0  0  0  0  0  0  0  0  0  0  0  0
   21.4634  -11.1468  -15.8900 C   0  0  0  0  0  0  0  0  0  0  0  0
   21.0209   -9.8631  -15.2871 C   0  0  0  0  0  0  0  0  0  0  0  0
   19.8708   -9.7499  -14.7933 O   0  0  0  0  0  0  0  0  0  0  0  0
   21.9047   -8.7528  -15.2682 N   0  0  0  0  0  0  0  0  0  0  0  0
   21.5417   -7.4428  -14.7521 C   0  0  1  0  0  0  0  0  0  0  0  0
   22.7085   -6.5483  -14.5664 C   0  0  0  0  0  0  0  0  0  0  0  0
   22.2927   -5.2710  -13.9562 C   0  0  0  0  0  0  0  0  0  0  0  0
   21.3254   -5.1094  -13.1776 O   0  0  0  0  0  0  0  0  0  0  0  0
   20.6159   -6.8293  -15.7148 C   0  0  0  0  0  0  0  0  0  0  0  0
   20.8059   -6.8796  -16.9461 O   0  0  0  0  0  0  0  0  0  0  0  0
   23.0244   -4.0984  -14.2501 O   0  0  0  0  0  0  0  0  0  0  0  0
   19.4929   -6.1712  -15.2543 O   0  0  0  0  0  0  0  0  0  0  0  0
  2  3  1  0
  2  1  1  6
  3  4  1  0
  4  8  1  0
  4  5  2  0
  6  2  1  0
  7  6  2  0
  9  6  1  0
 10  9  1  0
 11 10  1  0
 11 13  1  0
 12 11  2  0
 14 13  1  0
 14 18  1  0
 14 15  1  6
 16 15  1  0
 16 17  2  0
 18 21  1  0
 19 18  2  0
 20 16  1  0
M  END
$$$$
