DGD.pdb
     RDKit          3D

 21 20  0  0  1  0  0  0  0  0999 V2000
   17.9859  -10.0116  -14.9664 N   0  0  0  0  0  0  0  0  0  0  0  0
   19.0675   -9.0918  -14.7655 C   0  0  1  0  0  0  0  0  0  0  0  0
   18.8842   -7.8530  -15.6450 C   0  0  0  0  0  0  0  0  0  0  0  0
   19.2550   -8.2737  -17.0364 C   0  0  0  0  0  0  0  0  0  0  0  0
   18.8597   -9.3564  -17.5194 O   0  0  0  0  0  0  0  0  0  0  0  0
   19.1376   -8.7175  -13.3301 C   0  0  0  0  0  0  0  0  0  0  0  0
   19.9930   -7.9625  -12.8500 O   0  0  0  0  0  0  0  0  0  0  0  0
   20.0523   -7.4525  -17.8122 O   0  0  0  0  0  0  0  0  0  0  0  0
   18.1469   -9.2750  -12.4727 N   0  0  0  0  0  0  0  0  0  0  0  0
   18.1376   -8.9272  -11.0805 C   0  0  0  0  0  0  0  0  0  0  0  0
   16.9663   -8.0903  -10.7135 C   0  0  0  0  0  0  0  0  0  0  0  0
   16.5261   -7.2209  -11.5071 O   0  0  0  0  0  0  0  0  0  0  0  0
   16.3375   -8.2732   -9.4543 N   0  0  0  0  0  0  0  0  0  0  0  0
   15.1464   -7.5515   -9.0363 C   0  0  1  0  0  0  0  0  0  0  0  0
   14.3042   -8.3202   -8.0897 C   0  0  0  0  0  0  0  0  0  0  0  0
   13.0380   -7.6105   -7.8257 C   0  0  0  0  0  0  0  0  0  0  0  0
   12.7075   -6.4981   -8.2962 O   0  0  0  0  0  0  0  0  0  0  0  0
   15.5874   -6.3095   -8.3856 C   0  0  0  0  0  0  0  0  0  0  0  0
   16.5602   -6.2752   -7.6064 O   0  0  0  0  0  0  0  0  0  0  0  0
   12.0830   -8.2037   -6.9696 O   0  0  0  0  0  0  0  0  0  0  0  0
   14.9108   -5.1325   -8.6367 O   0  0  0  0  0  0  0  0  0  0  0  0
  2  3  1  0
  2  1  1  1
  3  4  1  0
  4  8  1  0
  4  5  2  0
  6  2  1  0
  7  6  2  0
  9  6  1  0
 10  9  1  0
 11 10  1  0
 11 13  1  0
 12 11  2  0
 14 13  1  0
 14 18  1  0
 14 15  1  1
 16 15  1  0
 16 17  2  0
 18 21  1  0
 19 18  2  0
 20 16  1  0
M  END
$$$$
