DGD.pdb
     RDKit          3D

 21 20  0  0  1  0  0  0  0  0999 V2000
   21.5122  -11.6548  -17.5643 N   0  0  0  0  0  0  0  0  0  0  0  0
   20.4515  -11.5182  -16.6089 C   0  0  1  0  0  0  0  0  0  0  0  0
   19.7315  -12.8548  -16.4170 C   0  0  0  0  0  0  0  0  0  0  0  0
   18.9585  -13.0945  -17.6801 C   0  0  0  0  0  0  0  0  0  0  0  0
   18.9276  -12.2477  -18.5986 O   0  0  0  0  0  0  0  0  0  0  0  0
   21.0057  -11.0248  -15.3226 C   0  0  0  0  0  0  0  0  0  0  0  0
   20.3209  -10.7688  -14.3238 O   0  0  0  0  0  0  0  0  0  0  0  0
   18.2600  -14.2766  -17.8433 O   0  0  0  0  0  0  0  0  0  0  0  0
   22.4166  -10.8433  -15.2595 N   0  0  0  0  0  0  0  0  0  0  0  0
   23.0125  -10.3338  -14.0576 C   0  0  0  0  0  0  0  0  0  0  0  0
   23.0454   -8.8488  -14.0271 C   0  0  0  0  0  0  0  0  0  0  0  0
   23.5655   -8.2392  -13.0590 O   0  0  0  0  0  0  0  0  0  0  0  0
   22.4841   -8.1102  -15.1012 N   0  0  0  0  0  0  0  0  0  0  0  0
   22.4436   -6.6574  -15.1454 C   0  0  1  0  0  0  0  0  0  0  0  0
   22.0334   -6.1281  -16.4675 C   0  0  0  0  0  0  0  0  0  0  0  0
   22.0460   -4.6528  -16.4637 C   0  0  0  0  0  0  0  0  0  0  0  0
   22.6784   -3.9256  -15.6640 O   0  0  0  0  0  0  0  0  0  0  0  0
   21.4791   -6.2108  -14.1301 C   0  0  0  0  0  0  0  0  0  0  0  0
   20.4201   -6.8277  -13.9010 O   0  0  0  0  0  0  0  0  0  0  0  0
   21.2894   -3.9564  -17.4329 O   0  0  0  0  0  0  0  0  0  0  0  0
   21.7417   -5.0706  -13.3972 O   0  0  0  0  0  0  0  0  0  0  0  0
  2  3  1  0
  2  1  1  6
  3  4  1  0
  4  8  1  0
  4  5  2  0
  6  2  1  0
  7  6  2  0
  9  6  1  0
 10  9  1  0
 11 10  1  0
 11 13  1  0
 12 11  2  0
 14 13  1  0
 14 18  1  0
 14 15  1  6
 16 15  1  0
 16 17  2  0
 18 21  1  0
 19 18  2  0
 20 16  1  0
M  END
$$$$
