DGD.pdb
     RDKit          3D

 21 20  0  0  1  0  0  0  0  0999 V2000
   18.8445  -13.8405  -15.5889 N   0  0  0  0  0  0  0  0  0  0  0  0
   17.7798  -13.0167  -16.0832 C   0  0  1  0  0  0  0  0  0  0  0  0
   16.7122  -12.8212  -15.0045 C   0  0  0  0  0  0  0  0  0  0  0  0
   16.0572  -14.1584  -14.8222 C   0  0  0  0  0  0  0  0  0  0  0  0
   16.1491  -15.0551  -15.6878 O   0  0  0  0  0  0  0  0  0  0  0  0
   18.3308  -11.7111  -16.5270 C   0  0  0  0  0  0  0  0  0  0  0  0
   17.6474  -10.7927  -16.9981 O   0  0  0  0  0  0  0  0  0  0  0  0
   15.3321  -14.4165  -13.6734 O   0  0  0  0  0  0  0  0  0  0  0  0
   19.7363  -11.5285  -16.3915 N   0  0  0  0  0  0  0  0  0  0  0  0
   20.3196  -10.2564  -16.7091 C   0  0  0  0  0  0  0  0  0  0  0  0
   20.3108   -9.3245  -15.5521 C   0  0  0  0  0  0  0  0  0  0  0  0
   19.6277   -9.5800  -14.5287 O   0  0  0  0  0  0  0  0  0  0  0  0
   21.0807   -8.1332  -15.6021 N   0  0  0  0  0  0  0  0  0  0  0  0
   21.1370   -7.1644  -14.5193 C   0  0  1  0  0  0  0  0  0  0  0  0
   22.2586   -6.2055  -14.6561 C   0  0  0  0  0  0  0  0  0  0  0  0
   22.2831   -5.2679  -13.5172 C   0  0  0  0  0  0  0  0  0  0  0  0
   21.8753   -5.5093  -12.3581 O   0  0  0  0  0  0  0  0  0  0  0  0
   19.8685   -6.4219  -14.5238 C   0  0  0  0  0  0  0  0  0  0  0  0
   19.2793   -6.1042  -13.4718 O   0  0  0  0  0  0  0  0  0  0  0  0
   22.8053   -3.9687  -13.7074 O   0  0  0  0  0  0  0  0  0  0  0  0
   19.2980   -6.0571  -15.7269 O   0  0  0  0  0  0  0  0  0  0  0  0
  2  3  1  0
  2  1  1  1
  3  4  1  0
  4  8  1  0
  4  5  2  0
  6  2  1  0
  7  6  2  0
  9  6  1  0
 10  9  1  0
 11 10  1  0
 11 13  1  0
 12 11  2  0
 14 13  1  0
 14 18  1  0
 14 15  1  6
 16 15  1  0
 16 17  2  0
 18 21  1  0
 19 18  2  0
 20 16  1  0
M  END
$$$$
