DGD.pdb
     RDKit          3D

 21 20  0  0  1  0  0  0  0  0999 V2000
   20.4341  -12.2838  -16.1179 N   0  0  0  0  0  0  0  0  0  0  0  0
   19.1104  -11.8461  -16.4537 C   0  0  1  0  0  0  0  0  0  0  0  0
   18.0838  -12.9178  -16.0803 C   0  0  0  0  0  0  0  0  0  0  0  0
   18.3173  -14.0617  -17.0222 C   0  0  0  0  0  0  0  0  0  0  0  0
   18.2786  -13.9067  -18.2617 O   0  0  0  0  0  0  0  0  0  0  0  0
   18.8207  -10.5679  -15.7555 C   0  0  0  0  0  0  0  0  0  0  0  0
   17.8061   -9.8855  -15.9482 O   0  0  0  0  0  0  0  0  0  0  0  0
   18.5825  -15.3220  -16.5188 O   0  0  0  0  0  0  0  0  0  0  0  0
   19.7861  -10.1207  -14.8092 N   0  0  0  0  0  0  0  0  0  0  0  0
   19.5850   -8.8746  -14.1266 C   0  0  0  0  0  0  0  0  0  0  0  0
   20.5301   -7.8217  -14.5794 C   0  0  0  0  0  0  0  0  0  0  0  0
   21.5918   -8.1280  -15.1780 O   0  0  0  0  0  0  0  0  0  0  0  0
   20.2324   -6.4558  -14.3340 N   0  0  0  0  0  0  0  0  0  0  0  0
   21.0566   -5.3544  -14.8049 C   0  0  1  0  0  0  0  0  0  0  0  0
   20.3467   -4.0536  -14.7974 C   0  0  0  0  0  0  0  0  0  0  0  0
   21.2025   -2.9907  -15.3583 C   0  0  0  0  0  0  0  0  0  0  0  0
   22.2074   -3.1638  -16.0852 O   0  0  0  0  0  0  0  0  0  0  0  0
   22.2263   -5.2671  -13.9190 C   0  0  0  0  0  0  0  0  0  0  0  0
   22.1557   -5.5076  -12.6976 O   0  0  0  0  0  0  0  0  0  0  0  0
   20.8969   -1.6406  -15.0745 O   0  0  0  0  0  0  0  0  0  0  0  0
   23.4517   -4.9079  -14.4436 O   0  0  0  0  0  0  0  0  0  0  0  0
  2  3  1  0
  2  1  1  1
  3  4  1  0
  4  8  1  0
  4  5  2  0
  6  2  1  0
  7  6  2  0
  9  6  1  0
 10  9  1  0
 11 10  1  0
 11 13  1  0
 12 11  2  0
 14 13  1  0
 14 18  1  0
 14 15  1  1
 16 15  1  0
 16 17  2  0
 18 21  1  0
 19 18  2  0
 20 16  1  0
M  END
$$$$
