DGD.pdb
     RDKit          3D

 21 20  0  0  1  0  0  0  0  0999 V2000
   17.7176   -9.7452  -16.1956 N   0  0  0  0  0  0  0  0  0  0  0  0
   18.2046  -11.0734  -15.9614 C   0  0  1  0  0  0  0  0  0  0  0  0
   18.0676  -11.9225  -17.2271 C   0  0  0  0  0  0  0  0  0  0  0  0
   16.7537  -12.6363  -17.1074 C   0  0  0  0  0  0  0  0  0  0  0  0
   15.9600  -12.3930  -16.1732 O   0  0  0  0  0  0  0  0  0  0  0  0
   19.6199  -11.0092  -15.5164 C   0  0  0  0  0  0  0  0  0  0  0  0
   20.3076  -12.0013  -15.2419 O   0  0  0  0  0  0  0  0  0  0  0  0
   16.4016  -13.5879  -18.0468 O   0  0  0  0  0  0  0  0  0  0  0  0
   20.1998   -9.7134  -15.4066 N   0  0  0  0  0  0  0  0  0  0  0  0
   21.5629   -9.5810  -14.9782 C   0  0  0  0  0  0  0  0  0  0  0  0
   22.0305   -8.1711  -15.0042 C   0  0  0  0  0  0  0  0  0  0  0  0
   23.2044   -7.8789  -14.6638 O   0  0  0  0  0  0  0  0  0  0  0  0
   21.1434   -7.1430  -15.4172 N   0  0  0  0  0  0  0  0  0  0  0  0
   21.5272   -5.7450  -15.5298 C   0  0  1  0  0  0  0  0  0  0  0  0
   21.0535   -5.1122  -16.7833 C   0  0  0  0  0  0  0  0  0  0  0  0
   21.4052   -3.6795  -16.8078 C   0  0  0  0  0  0  0  0  0  0  0  0
   22.4842   -3.1950  -17.2189 O   0  0  0  0  0  0  0  0  0  0  0  0
   20.9447   -5.0328  -14.3835 C   0  0  0  0  0  0  0  0  0  0  0  0
   21.2122   -3.8407  -14.1345 O   0  0  0  0  0  0  0  0  0  0  0  0
   20.4689   -2.7335  -16.3333 O   0  0  0  0  0  0  0  0  0  0  0  0
   20.0696   -5.6940  -13.5450 O   0  0  0  0  0  0  0  0  0  0  0  0
  2  3  1  0
  2  1  1  6
  3  4  1  0
  4  8  1  0
  4  5  2  0
  6  2  1  0
  7  6  2  0
  9  6  1  0
 10  9  1  0
 11 10  1  0
 11 13  1  0
 12 11  2  0
 14 13  1  0
 14 18  1  0
 14 15  1  6
 16 15  1  0
 16 17  2  0
 18 21  1  0
 19 18  2  0
 20 16  1  0
M  END
$$$$
