NPL.pdb
     RDKit          3D

 24 24  0  0  1  0  0  0  0  0999 V2000
    5.2553  -18.6407   23.2194 N   0  0  0  0  0  0  0  0  0  0  0  0
    6.5195  -18.3856   22.6412 C   0  0  0  0  0  0  0  0  0  0  0  0
    7.2834  -17.5749   23.2167 O   0  0  0  0  0  0  0  0  0  0  0  0
    7.0076  -19.0237   21.3798 C   0  0  0  0  0  0  0  0  0  0  0  0
    7.3985  -17.9349   20.4120 C   0  0  2  0  0  0  0  0  0  0  0  0
    7.8355  -18.6291   19.1923 N   0  0  0  0  0  0  0  0  0  0  0  0
    8.4452  -17.0224   20.9059 C   0  0  0  0  0  0  0  0  0  0  0  0
    9.6345  -17.4166   21.0396 O   0  0  0  0  0  0  0  0  0  0  0  0
    8.1470  -15.6858   21.2356 N   0  0  0  0  0  0  0  0  0  0  0  0
    6.8184  -15.0842   21.1978 C   0  0  0  0  0  0  0  0  0  0  0  0
    7.0623  -13.6426   20.7659 C   0  0  0  0  0  0  0  0  0  0  0  0
    8.5395  -13.3796   20.9270 C   0  0  0  0  0  0  0  0  0  0  0  0
    9.0635  -14.6541   21.6065 C   0  0  1  0  0  0  0  0  0  0  0  0
    9.2394  -14.4163   23.0659 C   0  0  0  0  0  0  0  0  0  0  0  0
   10.1908  -13.6611   23.3878 O   0  0  0  0  0  0  0  0  0  0  0  0
    7.4686  -11.7222   26.0379 C   0  0  0  0  0  0  0  0  0  0  0  0
    6.7528  -12.9790   25.6752 C   0  0  2  0  0  0  0  0  0  0  0  0
    5.2935  -12.8276   26.1743 C   0  0  0  0  0  0  0  0  0  0  0  0
    7.3790  -14.1990   26.2225 C   0  0  0  0  0  0  0  0  0  0  0  0
    8.4734  -14.8636   25.4849 C   0  0  2  0  0  0  0  0  0  0  0  0
    8.4295  -14.9678   24.0820 N   0  0  0  0  0  0  0  0  0  0  0  0
    8.9764  -16.0299   26.2686 C   0  0  0  0  0  0  0  0  0  0  0  0
    9.2426  -17.1905   25.5268 O   0  0  0  0  0  0  0  0  0  0  0  0
    9.1665  -16.0528   27.4564 O   0  0  0  0  0  0  0  0  0  0  0  0
  1  2  1  0
  2  3  2  0
  4  2  1  0
  5  4  1  0
  5  6  1  6
  7  5  1  0
  7  8  2  0
  9  7  1  0
 10  9  1  0
 11 12  1  0
 11 10  1  0
 12 13  1  0
 13  9  1  0
 14 21  1  0
 13 14  1  1
 15 14  2  0
 17 16  1  1
 18 17  1  0
 19 17  1  0
 20 21  1  0
 20 19  1  1
 22 20  1  0
 23 22  1  0
 24 22  2  0
M  END
$$$$
