NPL.pdb
     RDKit          3D

 24 24  0  0  1  0  0  0  0  0999 V2000
    7.9581  -20.7002   18.9850 N   0  0  0  0  0  0  0  0  0  0  0  0
    7.7330  -19.3212   18.7723 C   0  0  0  0  0  0  0  0  0  0  0  0
    7.3110  -18.9541   17.6503 O   0  0  0  0  0  0  0  0  0  0  0  0
    7.9674  -18.2653   19.8052 C   0  0  0  0  0  0  0  0  0  0  0  0
    8.9112  -17.2369   19.2339 C   0  0  2  0  0  0  0  0  0  0  0  0
   10.0625  -17.9965   18.7263 N   0  0  0  0  0  0  0  0  0  0  0  0
    9.3404  -16.2004   20.1899 C   0  0  0  0  0  0  0  0  0  0  0  0
   10.4843  -16.2421   20.7165 O   0  0  0  0  0  0  0  0  0  0  0  0
    8.4878  -15.1339   20.5360 N   0  0  0  0  0  0  0  0  0  0  0  0
    7.2229  -14.8187   19.8809 C   0  0  0  0  0  0  0  0  0  0  0  0
    7.1367  -13.2972   19.9255 C   0  0  0  0  0  0  0  0  0  0  0  0
    8.1701  -12.8275   20.9199 C   0  0  0  0  0  0  0  0  0  0  0  0
    8.7054  -14.1315   21.5310 C   0  0  1  0  0  0  0  0  0  0  0  0
    8.0742  -14.3670   22.8589 C   0  0  0  0  0  0  0  0  0  0  0  0
    6.8830  -14.7668   22.8368 O   0  0  0  0  0  0  0  0  0  0  0  0
    8.0307  -11.7115   26.9006 C   0  0  0  0  0  0  0  0  0  0  0  0
    7.0241  -12.4063   26.0475 C   0  0  2  0  0  0  0  0  0  0  0  0
    5.6256  -11.9709   26.5538 C   0  0  0  0  0  0  0  0  0  0  0  0
    7.1571  -13.8768   26.0490 C   0  0  0  0  0  0  0  0  0  0  0  0
    8.3316  -14.5142   25.4184 C   0  0  2  0  0  0  0  0  0  0  0  0
    8.7090  -14.1763   24.1052 N   0  0  0  0  0  0  0  0  0  0  0  0
    8.4164  -15.9444   25.8362 C   0  0  0  0  0  0  0  0  0  0  0  0
    9.3024  -16.2179   26.8889 O   0  0  0  0  0  0  0  0  0  0  0  0
    7.8006  -16.8583   25.3533 O   0  0  0  0  0  0  0  0  0  0  0  0
  1  2  1  0
  2  3  2  0
  4  2  1  0
  5  4  1  0
  5  6  1  1
  7  5  1  0
  7  8  2  0
  9  7  1  0
 10  9  1  0
 11 12  1  0
 11 10  1  0
 12 13  1  0
 13  9  1  0
 14 21  1  0
 13 14  1  1
 15 14  2  0
 17 16  1  1
 18 17  1  0
 19 17  1  0
 20 21  1  0
 20 19  1  6
 22 20  1  0
 23 22  1  0
 24 22  2  0
M  END
$$$$
