NPL.pdb
     RDKit          3D

 24 24  0  0  1  0  0  0  0  0999 V2000
    6.0567  -19.3537   18.4880 N   0  0  0  0  0  0  0  0  0  0  0  0
    7.4424  -19.2440   18.7441 C   0  0  0  0  0  0  0  0  0  0  0  0
    8.2350  -19.8752   18.0057 O   0  0  0  0  0  0  0  0  0  0  0  0
    8.0276  -18.4189   19.8458 C   0  0  0  0  0  0  0  0  0  0  0  0
    8.8039  -17.2808   19.2318 C   0  0  2  0  0  0  0  0  0  0  0  0
    9.9711  -17.9007   18.5886 N   0  0  0  0  0  0  0  0  0  0  0  0
    9.2174  -16.2360   20.1855 C   0  0  0  0  0  0  0  0  0  0  0  0
   10.3769  -16.2346   20.6786 O   0  0  0  0  0  0  0  0  0  0  0  0
    8.3318  -15.2090   20.5666 N   0  0  0  0  0  0  0  0  0  0  0  0
    7.0037  -14.9888   20.0043 C   0  0  0  0  0  0  0  0  0  0  0  0
    6.8305  -13.4741   20.0116 C   0  0  0  0  0  0  0  0  0  0  0  0
    7.9074  -12.9130   20.9075 C   0  0  0  0  0  0  0  0  0  0  0  0
    8.5651  -14.1630   21.5120 C   0  0  1  0  0  0  0  0  0  0  0  0
    8.0529  -14.3897   22.8918 C   0  0  0  0  0  0  0  0  0  0  0  0
    6.8678  -14.7991   22.9766 O   0  0  0  0  0  0  0  0  0  0  0  0
    8.1353  -11.5248   26.6715 C   0  0  0  0  0  0  0  0  0  0  0  0
    7.1233  -12.3499   25.9512 C   0  0  2  0  0  0  0  0  0  0  0  0
    5.7331  -11.9392   26.4991 C   0  0  0  0  0  0  0  0  0  0  0  0
    7.3394  -13.8045   26.0833 C   0  0  0  0  0  0  0  0  0  0  0  0
    8.5004  -14.4426   25.4287 C   0  0  2  0  0  0  0  0  0  0  0  0
    8.7913  -14.1811   24.0767 N   0  0  0  0  0  0  0  0  0  0  0  0
    8.6621  -15.8378   25.9332 C   0  0  0  0  0  0  0  0  0  0  0  0
    9.0493  -16.7883   24.9768 O   0  0  0  0  0  0  0  0  0  0  0  0
    8.4905  -16.2025   27.0669 O   0  0  0  0  0  0  0  0  0  0  0  0
  1  2  1  0
  2  3  2  0
  4  2  1  0
  5  4  1  0
  5  6  1  1
  7  5  1  0
  7  8  2  0
  9  7  1  0
 10  9  1  0
 11 12  1  0
 11 10  1  0
 12 13  1  0
 13  9  1  0
 14 21  1  0
 13 14  1  1
 15 14  2  0
 17 16  1  1
 18 17  1  0
 19 17  1  0
 20 21  1  0
 20 19  1  6
 22 20  1  0
 23 22  1  0
 24 22  2  0
M  END
$$$$
