NPL.pdb
     RDKit          3D

 24 24  0  0  1  0  0  0  0  0999 V2000
   10.0970  -19.8010   18.3999 N   0  0  0  0  0  0  0  0  0  0  0  0
    9.0671  -19.7478   19.3663 C   0  0  0  0  0  0  0  0  0  0  0  0
    8.4310  -20.7992   19.6153 O   0  0  0  0  0  0  0  0  0  0  0  0
    8.6845  -18.5112   20.1154 C   0  0  0  0  0  0  0  0  0  0  0  0
    9.4863  -17.3547   19.5728 C   0  0  2  0  0  0  0  0  0  0  0  0
   10.7721  -17.9289   19.1517 N   0  0  0  0  0  0  0  0  0  0  0  0
    9.6871  -16.2477   20.5250 C   0  0  0  0  0  0  0  0  0  0  0  0
   10.8103  -16.0544   21.0623 O   0  0  0  0  0  0  0  0  0  0  0  0
    8.6331  -15.3737   20.8552 N   0  0  0  0  0  0  0  0  0  0  0  0
    7.3159  -15.3661   20.2279 C   0  0  0  0  0  0  0  0  0  0  0  0
    6.9056  -13.8978   20.2153 C   0  0  0  0  0  0  0  0  0  0  0  0
    7.8355  -13.1736   21.1578 C   0  0  0  0  0  0  0  0  0  0  0  0
    8.6519  -14.3041   21.8027 C   0  0  1  0  0  0  0  0  0  0  0  0
    8.1153  -14.6090   23.1579 C   0  0  0  0  0  0  0  0  0  0  0  0
    7.0934  -15.3396   23.1916 O   0  0  0  0  0  0  0  0  0  0  0  0
    7.5638  -11.4922   26.7634 C   0  0  0  0  0  0  0  0  0  0  0  0
    6.7607  -12.5649   26.1092 C   0  0  2  0  0  0  0  0  0  0  0  0
    5.2909  -12.3659   26.5582 C   0  0  0  0  0  0  0  0  0  0  0  0
    7.2310  -13.9305   26.4157 C   0  0  0  0  0  0  0  0  0  0  0  0
    8.4089  -14.4822   25.7146 C   0  0  2  0  0  0  0  0  0  0  0  0
    8.6647  -14.1444   24.3724 N   0  0  0  0  0  0  0  0  0  0  0  0
    8.6432  -15.8905   26.1498 C   0  0  0  0  0  0  0  0  0  0  0  0
    8.6133  -16.1108   27.5349 O   0  0  0  0  0  0  0  0  0  0  0  0
    8.8507  -16.8278   25.4247 O   0  0  0  0  0  0  0  0  0  0  0  0
  1  2  1  0
  2  3  2  0
  4  2  1  0
  5  4  1  0
  5  6  1  1
  7  5  1  0
  7  8  2  0
  9  7  1  0
 10  9  1  0
 11 12  1  0
 11 10  1  0
 12 13  1  0
 13  9  1  0
 14 21  1  0
 13 14  1  1
 15 14  2  0
 17 16  1  1
 18 17  1  0
 19 17  1  0
 20 21  1  0
 20 19  1  6
 22 20  1  0
 23 22  1  0
 24 22  2  0
M  END
$$$$
