NPL.pdb
     RDKit          3D

 24 24  0  0  1  0  0  0  0  0999 V2000
    5.9729  -19.8219   19.5355 N   0  0  0  0  0  0  0  0  0  0  0  0
    5.6774  -19.1913   20.7654 C   0  0  0  0  0  0  0  0  0  0  0  0
    4.9760  -19.8126   21.5984 O   0  0  0  0  0  0  0  0  0  0  0  0
    6.1499  -17.8225   21.1395 C   0  0  0  0  0  0  0  0  0  0  0  0
    7.0098  -17.2899   20.0208 C   0  0  2  0  0  0  0  0  0  0  0  0
    7.4022  -18.4653   19.2304 N   0  0  0  0  0  0  0  0  0  0  0  0
    8.1930  -16.5314   20.4649 C   0  0  0  0  0  0  0  0  0  0  0  0
    9.3353  -17.0631   20.4718 O   0  0  0  0  0  0  0  0  0  0  0  0
    8.0806  -15.1923   20.8871 N   0  0  0  0  0  0  0  0  0  0  0  0
    6.8512  -14.4067   20.8821 C   0  0  0  0  0  0  0  0  0  0  0  0
    7.3041  -12.9878   20.5565 C   0  0  0  0  0  0  0  0  0  0  0  0
    8.8005  -12.9494   20.7477 C   0  0  0  0  0  0  0  0  0  0  0  0
    9.1270  -14.3297   21.3382 C   0  0  1  0  0  0  0  0  0  0  0  0
    9.3084  -14.2218   22.8122 C   0  0  0  0  0  0  0  0  0  0  0  0
   10.3852  -13.6994   23.1955 O   0  0  0  0  0  0  0  0  0  0  0  0
    7.9323  -11.6711   26.3246 C   0  0  0  0  0  0  0  0  0  0  0  0
    7.0613  -12.7331   25.7437 C   0  0  2  0  0  0  0  0  0  0  0  0
    5.6249  -12.4738   26.2644 C   0  0  0  0  0  0  0  0  0  0  0  0
    7.5038  -14.1051   26.0625 C   0  0  0  0  0  0  0  0  0  0  0  0
    8.4624  -14.7980   25.1768 C   0  0  2  0  0  0  0  0  0  0  0  0
    8.3758  -14.6553   23.7792 N   0  0  0  0  0  0  0  0  0  0  0  0
    8.7851  -16.1441   25.7348 C   0  0  0  0  0  0  0  0  0  0  0  0
    9.1339  -16.1704   27.0933 O   0  0  0  0  0  0  0  0  0  0  0  0
    8.7704  -17.1821   25.1266 O   0  0  0  0  0  0  0  0  0  0  0  0
  1  2  1  0
  2  3  2  0
  4  2  1  0
  5  4  1  0
  5  6  1  1
  7  5  1  0
  7  8  2  0
  9  7  1  0
 10  9  1  0
 11 12  1  0
 11 10  1  0
 12 13  1  0
 13  9  1  0
 14 21  1  0
 13 14  1  1
 15 14  2  0
 17 16  1  1
 18 17  1  0
 19 17  1  0
 20 21  1  0
 20 19  1  1
 22 20  1  0
 23 22  1  0
 24 22  2  0
M  END
$$$$
