NPL.pdb
     RDKit          3D

 24 24  0  0  1  0  0  0  0  0999 V2000
   13.7262  -18.7763   18.7386 N   0  0  0  0  0  0  0  0  0  0  0  0
   12.3190  -18.7036   18.8486 C   0  0  0  0  0  0  0  0  0  0  0  0
   11.6603  -19.7667   18.7597 O   0  0  0  0  0  0  0  0  0  0  0  0
   11.5605  -17.4330   19.0652 C   0  0  0  0  0  0  0  0  0  0  0  0
   10.5491  -17.6593   20.1609 C   0  0  2  0  0  0  0  0  0  0  0  0
    9.3294  -18.1210   19.4832 N   0  0  0  0  0  0  0  0  0  0  0  0
   10.2753  -16.4763   20.9964 C   0  0  0  0  0  0  0  0  0  0  0  0
   11.2179  -15.8198   21.5143 O   0  0  0  0  0  0  0  0  0  0  0  0
    8.9558  -16.0444   21.2334 N   0  0  0  0  0  0  0  0  0  0  0  0
    7.7661  -16.5628   20.5668 C   0  0  0  0  0  0  0  0  0  0  0  0
    6.8409  -15.3576   20.4411 C   0  0  0  0  0  0  0  0  0  0  0  0
    7.3826  -14.2902   21.3601 C   0  0  0  0  0  0  0  0  0  0  0  0
    8.5245  -14.9978   22.1057 C   0  0  1  0  0  0  0  0  0  0  0  0
    8.0671  -15.4105   23.4614 C   0  0  0  0  0  0  0  0  0  0  0  0
    7.4062  -16.4780   23.5159 O   0  0  0  0  0  0  0  0  0  0  0  0
    8.1765  -11.8039   26.8404 C   0  0  0  0  0  0  0  0  0  0  0  0
    7.0325  -12.6449   26.3847 C   0  0  2  0  0  0  0  0  0  0  0  0
    5.7444  -12.0074   26.9645 C   0  0  0  0  0  0  0  0  0  0  0  0
    7.1460  -14.0645   26.7741 C   0  0  0  0  0  0  0  0  0  0  0  0
    8.0136  -14.9769   26.0006 C   0  0  2  0  0  0  0  0  0  0  0  0
    8.3211  -14.7012   24.6551 N   0  0  0  0  0  0  0  0  0  0  0  0
    7.7368  -16.3905   26.3909 C   0  0  0  0  0  0  0  0  0  0  0  0
    8.4851  -16.8796   27.4720 O   0  0  0  0  0  0  0  0  0  0  0  0
    6.9428  -17.1253   25.8644 O   0  0  0  0  0  0  0  0  0  0  0  0
  1  2  1  0
  2  3  2  0
  4  2  1  0
  5  4  1  0
  5  6  1  6
  7  5  1  0
  7  8  2  0
  9  7  1  0
 10  9  1  0
 11 12  1  0
 11 10  1  0
 12 13  1  0
 13  9  1  0
 14 21  1  0
 13 14  1  1
 15 14  2  0
 17 16  1  1
 18 17  1  0
 19 17  1  0
 20 21  1  0
 20 19  1  6
 22 20  1  0
 23 22  1  0
 24 22  2  0
M  END
$$$$
