NPL.pdb
     RDKit          3D

 24 24  0  0  1  0  0  0  0  0999 V2000
    9.3665  -14.3451   16.8768 N   0  0  0  0  0  0  0  0  0  0  0  0
    9.4381  -13.3248   17.8521 C   0  0  0  0  0  0  0  0  0  0  0  0
    9.7367  -12.1657   17.4789 O   0  0  0  0  0  0  0  0  0  0  0  0
    9.1793  -13.5396   19.3094 C   0  0  0  0  0  0  0  0  0  0  0  0
    7.8805  -14.2914   19.4600 C   0  0  2  0  0  0  0  0  0  0  0  0
    6.8308  -13.3553   19.0336 N   0  0  0  0  0  0  0  0  0  0  0  0
    7.6189  -14.7971   20.8195 C   0  0  0  0  0  0  0  0  0  0  0  0
    6.8269  -14.1933   21.5913 O   0  0  0  0  0  0  0  0  0  0  0  0
    8.2409  -15.9699   21.2902 N   0  0  0  0  0  0  0  0  0  0  0  0
    9.1920  -16.7806   20.5373 C   0  0  0  0  0  0  0  0  0  0  0  0
    8.9099  -18.2122   20.9793 C   0  0  0  0  0  0  0  0  0  0  0  0
    8.0655  -18.1285   22.2273 C   0  0  0  0  0  0  0  0  0  0  0  0
    8.0315  -16.6252   22.5428 C   0  0  1  0  0  0  0  0  0  0  0  0
    9.0036  -16.3113   23.6262 C   0  0  0  0  0  0  0  0  0  0  0  0
    9.6948  -17.2761   24.0394 O   0  0  0  0  0  0  0  0  0  0  0  0
    5.8707  -12.4037   26.8317 C   0  0  0  0  0  0  0  0  0  0  0  0
    7.1795  -13.1180   26.8579 C   0  0  2  0  0  0  0  0  0  0  0  0
    8.2501  -12.0833   27.2879 C   0  0  0  0  0  0  0  0  0  0  0  0
    7.5368  -13.7514   25.5730 C   0  0  0  0  0  0  0  0  0  0  0  0
    8.8077  -14.4940   25.4423 C   0  0  2  0  0  0  0  0  0  0  0  0
    9.1940  -15.0368   24.2024 N   0  0  0  0  0  0  0  0  0  0  0  0
    9.0545  -15.2958   26.6767 C   0  0  0  0  0  0  0  0  0  0  0  0
    8.4499  -16.5612   26.7098 O   0  0  0  0  0  0  0  0  0  0  0  0
    9.7142  -14.9509   27.6219 O   0  0  0  0  0  0  0  0  0  0  0  0
  1  2  1  0
  2  3  2  0
  4  2  1  0
  5  4  1  0
  5  6  1  1
  7  5  1  0
  7  8  2  0
  9  7  1  0
 10  9  1  0
 11 12  1  0
 11 10  1  0
 12 13  1  0
 13  9  1  0
 14 21  1  0
 13 14  1  1
 15 14  2  0
 17 16  1  6
 18 17  1  0
 19 17  1  0
 20 21  1  0
 20 19  1  6
 22 20  1  0
 23 22  1  0
 24 22  2  0
M  END
$$$$
