NPL.pdb
     RDKit          3D

 24 24  0  0  1  0  0  0  0  0999 V2000
    6.0825  -19.5300   18.9906 N   0  0  0  0  0  0  0  0  0  0  0  0
    6.0064  -19.2124   20.3657 C   0  0  0  0  0  0  0  0  0  0  0  0
    5.1237  -19.7733   21.0572 O   0  0  0  0  0  0  0  0  0  0  0  0
    6.9160  -18.2446   21.0533 C   0  0  0  0  0  0  0  0  0  0  0  0
    7.7761  -17.5727   20.0123 C   0  0  2  0  0  0  0  0  0  0  0  0
    8.5083  -18.6582   19.3447 N   0  0  0  0  0  0  0  0  0  0  0  0
    8.7030  -16.5579   20.5449 C   0  0  0  0  0  0  0  0  0  0  0  0
    9.9417  -16.7817   20.6014 O   0  0  0  0  0  0  0  0  0  0  0  0
    8.2314  -15.3107   20.9987 N   0  0  0  0  0  0  0  0  0  0  0  0
    6.8363  -14.8837   20.9933 C   0  0  0  0  0  0  0  0  0  0  0  0
    6.8945  -13.3866   20.7109 C   0  0  0  0  0  0  0  0  0  0  0  0
    8.3239  -12.9539   20.9276 C   0  0  0  0  0  0  0  0  0  0  0  0
    9.0036  -14.2124   21.4885 C   0  0  1  0  0  0  0  0  0  0  0  0
    9.1360  -14.1020   22.9675 C   0  0  0  0  0  0  0  0  0  0  0  0
    9.9672  -13.2556   23.3821 O   0  0  0  0  0  0  0  0  0  0  0  0
    8.5391  -11.7581   26.3412 C   0  0  0  0  0  0  0  0  0  0  0  0
    7.4199  -12.5482   25.7522 C   0  0  2  0  0  0  0  0  0  0  0  0
    6.1017  -11.9199   26.2711 C   0  0  0  0  0  0  0  0  0  0  0  0
    7.4815  -13.9901   26.0641 C   0  0  0  0  0  0  0  0  0  0  0  0
    8.4017  -14.8705   25.3146 C   0  0  2  0  0  0  0  0  0  0  0  0
    8.4089  -14.8643   23.9072 N   0  0  0  0  0  0  0  0  0  0  0  0
    8.5370  -16.1788   26.0200 C   0  0  0  0  0  0  0  0  0  0  0  0
    8.5439  -17.3146   25.1968 O   0  0  0  0  0  0  0  0  0  0  0  0
    8.6377  -16.3322   27.2091 O   0  0  0  0  0  0  0  0  0  0  0  0
  1  2  1  0
  2  3  2  0
  4  2  1  0
  5  4  1  0
  5  6  1  1
  7  5  1  0
  7  8  2  0
  9  7  1  0
 10  9  1  0
 11 12  1  0
 11 10  1  0
 12 13  1  0
 13  9  1  0
 14 21  1  0
 13 14  1  1
 15 14  2  0
 17 16  1  1
 18 17  1  0
 19 17  1  0
 20 21  1  0
 20 19  1  6
 22 20  1  0
 23 22  1  0
 24 22  2  0
M  END
$$$$
