NPL.pdb
     RDKit          3D

 24 24  0  0  1  0  0  0  0  0999 V2000
   11.2488  -19.4364   18.9072 N   0  0  0  0  0  0  0  0  0  0  0  0
   11.8531  -18.4491   19.7181 C   0  0  0  0  0  0  0  0  0  0  0  0
   13.1039  -18.4329   19.8022 O   0  0  0  0  0  0  0  0  0  0  0  0
   11.0923  -17.4164   20.4872 C   0  0  0  0  0  0  0  0  0  0  0  0
    9.6175  -17.6518   20.2767 C   0  0  2  0  0  0  0  0  0  0  0  0
    9.3498  -17.2599   18.8856 N   0  0  0  0  0  0  0  0  0  0  0  0
    8.7408  -16.9225   21.2104 C   0  0  0  0  0  0  0  0  0  0  0  0
    8.3603  -15.7488   20.9551 O   0  0  0  0  0  0  0  0  0  0  0  0
    8.3002  -17.5184   22.4083 N   0  0  0  0  0  0  0  0  0  0  0  0
    8.5420  -18.9027   22.8004 C   0  0  0  0  0  0  0  0  0  0  0  0
    7.2877  -19.3093   23.5657 C   0  0  0  0  0  0  0  0  0  0  0  0
    6.5417  -18.0390   23.8931 C   0  0  0  0  0  0  0  0  0  0  0  0
    7.4967  -16.9275   23.4318 C   0  0  1  0  0  0  0  0  0  0  0  0
    8.2235  -16.3636   24.6028 C   0  0  0  0  0  0  0  0  0  0  0  0
    9.0692  -17.1218   25.1405 O   0  0  0  0  0  0  0  0  0  0  0  0
    7.6013  -11.6616   25.1444 C   0  0  0  0  0  0  0  0  0  0  0  0
    6.7782  -12.5235   26.0408 C   0  0  2  0  0  0  0  0  0  0  0  0
    5.8575  -11.5791   26.8545 C   0  0  0  0  0  0  0  0  0  0  0  0
    7.5771  -13.3872   26.9329 C   0  0  0  0  0  0  0  0  0  0  0  0
    8.3774  -14.4941   26.3691 C   0  0  2  0  0  0  0  0  0  0  0  0
    8.0299  -15.0695   25.1326 N   0  0  0  0  0  0  0  0  0  0  0  0
    8.8404  -15.3936   27.4663 C   0  0  0  0  0  0  0  0  0  0  0  0
    9.8407  -14.8703   28.2991 O   0  0  0  0  0  0  0  0  0  0  0  0
    8.4340  -16.5043   27.6870 O   0  0  0  0  0  0  0  0  0  0  0  0
  1  2  1  0
  2  3  2  0
  4  2  1  0
  5  4  1  0
  5  6  1  6
  7  5  1  0
  7  8  2  0
  9  7  1  0
 10  9  1  0
 11 12  1  0
 11 10  1  0
 12 13  1  0
 13  9  1  0
 14 21  1  0
 13 14  1  1
 15 14  2  0
 17 16  1  1
 18 17  1  0
 19 17  1  0
 20 21  1  0
 20 19  1  1
 22 20  1  0
 23 22  1  0
 24 22  2  0
M  END
$$$$
