CRC.pdb
     RDKit          3D

 24 23  0  0  1  0  0  0  0  0999 V2000
    7.3615  -13.9513   16.6496 N   0  0  0  0  0  0  0  0  0  0  0  0
    8.2130  -13.7504   17.8051 C   0  0  1  0  0  0  0  0  0  0  0  0
    7.5828  -12.6807   18.6656 C   0  0  0  0  0  0  0  0  0  0  0  0
    8.4206  -12.4321   20.2295 S   0  0  0  0  0  0  0  0  0  0  0  0
    8.3169  -15.0474   18.5437 C   0  0  0  0  0  0  0  0  0  0  0  0
    7.5837  -16.0138   18.2248 O   0  0  0  0  0  0  0  0  0  0  0  0
   12.1440  -21.4693   19.7838 N   0  0  0  0  0  0  0  0  0  0  0  0
   11.5540  -21.6211   18.5171 C   0  0  0  0  0  0  0  0  0  0  0  0
   11.9111  -22.6256   17.7621 N   0  0  0  0  0  0  0  0  0  0  0  0
   10.5818  -20.7390   17.9932 N   0  0  0  0  0  0  0  0  0  0  0  0
    9.9298  -19.7054   18.7144 C   0  0  0  0  0  0  0  0  0  0  0  0
   10.8311  -18.6126   19.2140 C   0  0  0  0  0  0  0  0  0  0  0  0
   10.3110  -17.2651   18.8657 C   0  0  0  0  0  0  0  0  0  0  0  0
    9.7449  -16.5038   20.0447 C   0  0  2  0  0  0  0  0  0  0  0  0
    9.2429  -15.2031   19.6115 N   0  0  0  0  0  0  0  0  0  0  0  0
   10.6650  -16.3711   21.1921 C   0  0  0  0  0  0  0  0  0  0  0  0
   11.4700  -15.4149   21.2140 O   0  0  0  0  0  0  0  0  0  0  0  0
   11.5339  -22.8095   16.8240 N   0  0  0  0  0  0  0  0  0  0  0  0
   10.6847  -17.2742   22.2774 C   0  0  2  0  0  0  0  0  0  0  0  0
   10.6414  -16.9848   23.6635 C   0  0  0  0  0  0  0  0  0  0  0  0
    9.5027  -16.0831   24.0894 S   0  0  0  0  0  0  0  0  0  0  0  0
    9.8282  -15.5970   25.8225 C   0  0  0  0  0  0  0  0  0  0  0  0
   10.8308  -18.1249   24.5932 O   0  0  0  0  0  0  0  0  0  0  0  0
   10.3846  -19.2654   24.2937 O   0  0  0  0  0  0  0  0  0  0  0  0
  2  1  1  6
  3  4  1  0
  3  2  1  0
  5  6  2  0
  5  2  1  0
  7  8  1  0
  8 10  1  0
  9  8  2  0
 10 11  1  0
 11 12  1  0
 12 13  1  0
 14 13  1  6
 14 15  1  0
 15  5  1  0
 16 14  1  0
 17 16  2  0
 18 16  1  0
 19 22  1  0
 19 18  1  0
 19 20  1  6
 21 20  1  0
 22 24  1  0
 23 22  2  0
M  END
$$$$
