CRC.pdb
     RDKit          3D

 24 23  0  0  1  0  0  0  0  0999 V2000
    7.8349  -20.0327   23.0694 N   0  0  0  0  0  0  0  0  0  0  0  0
    7.2313  -18.9044   23.7502 C   0  0  1  0  0  0  0  0  0  0  0  0
    7.2886  -19.1738   25.2354 C   0  0  0  0  0  0  0  0  0  0  0  0
    6.0181  -20.2985   25.8101 S   0  0  0  0  0  0  0  0  0  0  0  0
    8.0024  -17.6728   23.3934 C   0  0  0  0  0  0  0  0  0  0  0  0
    9.2565  -17.6916   23.4000 O   0  0  0  0  0  0  0  0  0  0  0  0
    9.4573  -15.0967   17.8121 N   0  0  0  0  0  0  0  0  0  0  0  0
    8.3322  -14.3051   18.1007 C   0  0  0  0  0  0  0  0  0  0  0  0
    7.6548  -13.7749   17.1176 N   0  0  0  0  0  0  0  0  0  0  0  0
    7.8770  -14.0362   19.4116 N   0  0  0  0  0  0  0  0  0  0  0  0
    8.3195  -12.9705   20.2374 C   0  0  0  0  0  0  0  0  0  0  0  0
    7.7816  -12.9874   21.6397 C   0  0  0  0  0  0  0  0  0  0  0  0
    7.1433  -14.2876   21.9710 C   0  0  0  0  0  0  0  0  0  0  0  0
    8.0291  -15.2184   22.7705 C   0  0  2  0  0  0  0  0  0  0  0  0
    7.3292  -16.4702   23.0436 N   0  0  0  0  0  0  0  0  0  0  0  0
    8.5841  -14.6309   24.0064 C   0  0  0  0  0  0  0  0  0  0  0  0
    9.7805  -14.2688   24.0192 O   0  0  0  0  0  0  0  0  0  0  0  0
    6.8338  -13.1688   17.2389 N   0  0  0  0  0  0  0  0  0  0  0  0
    7.8291  -14.4532   25.1863 C   0  0  1  0  0  0  0  0  0  0  0  0
    8.2724  -14.0064   26.4555 C   0  0  0  0  0  0  0  0  0  0  0  0
    7.2990  -13.1092   27.1893 S   0  0  0  0  0  0  0  0  0  0  0  0
    6.1115  -12.4833   25.9469 C   0  0  0  0  0  0  0  0  0  0  0  0
    8.8811  -15.0218   27.3492 O   0  0  0  0  0  0  0  0  0  0  0  0
    8.8422  -16.2427   27.0373 O   0  0  0  0  0  0  0  0  0  0  0  0
  2  1  1  6
  3  4  1  0
  3  2  1  0
  5  6  2  0
  5  2  1  0
  7  8  1  0
  8 10  1  0
  9  8  2  0
 10 11  1  0
 11 12  1  0
 12 13  1  0
 14 13  1  1
 14 15  1  0
 15  5  1  0
 16 14  1  0
 17 16  2  0
 18 16  1  0
 19 22  1  0
 19 18  1  0
 19 20  1  1
 21 20  1  0
 22 24  1  0
 23 22  2  0
M  END
$$$$
