CRC.pdb
     RDKit          3D

 24 23  0  0  1  0  0  0  0  0999 V2000
    8.5962  -15.0087   19.5715 N   0  0  0  0  0  0  0  0  0  0  0  0
    8.3788  -13.7597   20.2739 C   0  0  1  0  0  0  0  0  0  0  0  0
    7.3553  -12.9635   19.4991 C   0  0  0  0  0  0  0  0  0  0  0  0
    7.8259  -12.6520   17.7988 S   0  0  0  0  0  0  0  0  0  0  0  0
    7.8891  -14.0746   21.6522 C   0  0  0  0  0  0  0  0  0  0  0  0
    7.5616  -13.1476   22.4309 O   0  0  0  0  0  0  0  0  0  0  0  0
    9.5517  -19.8659   24.8201 N   0  0  0  0  0  0  0  0  0  0  0  0
    8.7280  -20.1767   25.9158 C   0  0  0  0  0  0  0  0  0  0  0  0
    9.2460  -20.7748   26.9553 N   0  0  0  0  0  0  0  0  0  0  0  0
    7.3466  -19.8818   25.9679 N   0  0  0  0  0  0  0  0  0  0  0  0
    6.5992  -19.2424   24.9451 C   0  0  0  0  0  0  0  0  0  0  0  0
    6.7452  -17.7485   24.8903 C   0  0  0  0  0  0  0  0  0  0  0  0
    7.2304  -17.2891   23.5633 C   0  0  0  0  0  0  0  0  0  0  0  0
    7.3235  -15.7843   23.4328 C   0  0  2  0  0  0  0  0  0  0  0  0
    7.7881  -15.4214   22.0971 N   0  0  0  0  0  0  0  0  0  0  0  0
    8.1271  -15.1232   24.4806 C   0  0  0  0  0  0  0  0  0  0  0  0
    9.3627  -15.3109   24.5033 O   0  0  0  0  0  0  0  0  0  0  0  0
    8.7172  -21.0398   27.7957 N   0  0  0  0  0  0  0  0  0  0  0  0
    7.5701  -14.2812   25.4679 C   0  0  2  0  0  0  0  0  0  0  0  0
    8.2273  -13.6271   26.5389 C   0  0  0  0  0  0  0  0  0  0  0  0
    7.4441  -12.4957   27.1694 S   0  0  0  0  0  0  0  0  0  0  0  0
    6.2264  -11.9334   25.9258 C   0  0  0  0  0  0  0  0  0  0  0  0
    8.8792  -14.4906   27.5537 O   0  0  0  0  0  0  0  0  0  0  0  0
    8.7388  -15.7424   27.5024 O   0  0  0  0  0  0  0  0  0  0  0  0
  2  1  1  6
  3  4  1  0
  3  2  1  0
  5  6  2  0
  5  2  1  0
  7  8  1  0
  8 10  1  0
  9  8  2  0
 10 11  1  0
 11 12  1  0
 12 13  1  0
 14 13  1  1
 14 15  1  0
 15  5  1  0
 16 14  1  0
 17 16  2  0
 18 16  1  0
 19 22  1  0
 19 18  1  0
 19 20  1  6
 21 20  1  0
 22 24  1  0
 23 22  2  0
M  END
$$$$
