CRC.pdb
     RDKit          3D

 24 23  0  0  1  0  0  0  0  0999 V2000
    8.4879  -15.6542   17.9801 N   0  0  0  0  0  0  0  0  0  0  0  0
    8.6119  -14.7908   19.1376 C   0  0  1  0  0  0  0  0  0  0  0  0
    7.5018  -13.7682   19.0748 C   0  0  0  0  0  0  0  0  0  0  0  0
    7.9067  -12.2196   19.8794 S   0  0  0  0  0  0  0  0  0  0  0  0
    8.5008  -15.6352   20.3678 C   0  0  0  0  0  0  0  0  0  0  0  0
    8.1036  -16.8219   20.2829 O   0  0  0  0  0  0  0  0  0  0  0  0
   13.4412  -21.1527   23.1748 N   0  0  0  0  0  0  0  0  0  0  0  0
   12.0987  -21.2887   23.5683 C   0  0  0  0  0  0  0  0  0  0  0  0
   11.6262  -22.4787   23.8277 N   0  0  0  0  0  0  0  0  0  0  0  0
   11.2058  -20.2011   23.7021 N   0  0  0  0  0  0  0  0  0  0  0  0
   11.5006  -18.8476   23.3945 C   0  0  0  0  0  0  0  0  0  0  0  0
   10.4010  -17.8717   23.7018 C   0  0  0  0  0  0  0  0  0  0  0  0
   10.0925  -17.0022   22.5372 C   0  0  0  0  0  0  0  0  0  0  0  0
    9.0454  -15.9471   22.8212 C   0  0  2  0  0  0  0  0  0  0  0  0
    8.8419  -15.1083   21.6437 N   0  0  0  0  0  0  0  0  0  0  0  0
    9.3026  -15.1318   24.0253 C   0  0  0  0  0  0  0  0  0  0  0  0
   10.4074  -14.5589   24.1428 O   0  0  0  0  0  0  0  0  0  0  0  0
   10.6776  -22.6631   24.1774 N   0  0  0  0  0  0  0  0  0  0  0  0
    8.3584  -14.9616   25.0615 C   0  0  2  0  0  0  0  0  0  0  0  0
    8.4574  -14.1478   26.2168 C   0  0  0  0  0  0  0  0  0  0  0  0
    7.2023  -13.3740   26.5588 S   0  0  0  0  0  0  0  0  0  0  0  0
    7.6231  -12.2660   27.9520 C   0  0  0  0  0  0  0  0  0  0  0  0
    9.0835  -14.7575   27.4153 O   0  0  0  0  0  0  0  0  0  0  0  0
    8.8337  -15.9554   27.7186 O   0  0  0  0  0  0  0  0  0  0  0  0
  2  1  1  6
  3  4  1  0
  3  2  1  0
  5  6  2  0
  5  2  1  0
  7  8  1  0
  8 10  1  0
  9  8  2  0
 10 11  1  0
 11 12  1  0
 12 13  1  0
 14 13  1  6
 14 15  1  0
 15  5  1  0
 16 14  1  0
 17 16  2  0
 18 16  1  0
 19 22  1  0
 19 18  1  0
 19 20  1  1
 21 20  1  0
 22 24  1  0
 23 22  2  0
M  END
$$$$
