CRC.pdb
     RDKit          3D

 24 23  0  0  1  0  0  0  0  0999 V2000
    5.6128  -18.9788   25.7001 N   0  0  0  0  0  0  0  0  0  0  0  0
    5.8761  -17.5789   25.4325 C   0  0  1  0  0  0  0  0  0  0  0  0
    5.8682  -16.8446   26.7526 C   0  0  0  0  0  0  0  0  0  0  0  0
    5.6817  -15.0706   26.5856 S   0  0  0  0  0  0  0  0  0  0  0  0
    7.2091  -17.4713   24.7615 C   0  0  0  0  0  0  0  0  0  0  0  0
    8.0580  -18.3844   24.8981 O   0  0  0  0  0  0  0  0  0  0  0  0
    9.1869  -13.2990   18.1640 N   0  0  0  0  0  0  0  0  0  0  0  0
    8.7278  -12.7080   19.3538 C   0  0  0  0  0  0  0  0  0  0  0  0
    9.1084  -11.4947   19.6529 N   0  0  0  0  0  0  0  0  0  0  0  0
    7.8659  -13.3538   20.2692 N   0  0  0  0  0  0  0  0  0  0  0  0
    7.3641  -14.6749   20.1405 C   0  0  0  0  0  0  0  0  0  0  0  0
    7.4387  -15.5076   21.3883 C   0  0  0  0  0  0  0  0  0  0  0  0
    8.7313  -15.3253   22.0978 C   0  0  0  0  0  0  0  0  0  0  0  0
    8.8500  -16.1339   23.3715 C   0  0  2  0  0  0  0  0  0  0  0  0
    7.5314  -16.3392   23.9636 N   0  0  0  0  0  0  0  0  0  0  0  0
    9.8052  -15.5922   24.3588 C   0  0  0  0  0  0  0  0  0  0  0  0
   10.8058  -14.9640   23.9503 O   0  0  0  0  0  0  0  0  0  0  0  0
    8.8452  -10.9995   20.5141 N   0  0  0  0  0  0  0  0  0  0  0  0
    9.6480  -15.7460   25.7537 C   0  0  1  0  0  0  0  0  0  0  0  0
   10.5587  -15.4068   26.7843 C   0  0  0  0  0  0  0  0  0  0  0  0
   10.1657  -14.1993   27.6081 S   0  0  0  0  0  0  0  0  0  0  0  0
    8.9721  -13.2388   26.6088 C   0  0  0  0  0  0  0  0  0  0  0  0
   11.0639  -16.5187   27.6262 O   0  0  0  0  0  0  0  0  0  0  0  0
   10.5809  -17.6764   27.5003 O   0  0  0  0  0  0  0  0  0  0  0  0
  2  1  1  1
  3  4  1  0
  3  2  1  0
  5  6  2  0
  5  2  1  0
  7  8  1  0
  8 10  1  0
  9  8  2  0
 10 11  1  0
 11 12  1  0
 12 13  1  0
 14 13  1  6
 14 15  1  0
 15  5  1  0
 16 14  1  0
 17 16  2  0
 18 16  1  0
 19 22  1  0
 19 18  1  0
 19 20  1  1
 21 20  1  0
 22 24  1  0
 23 22  2  0
M  END
$$$$
