CRC.pdb
     RDKit          3D

 24 23  0  0  1  0  0  0  0  0999 V2000
   15.4628  -13.9870   17.2157 N   0  0  0  0  0  0  0  0  0  0  0  0
   14.8084  -15.1875   17.6964 C   0  0  1  0  0  0  0  0  0  0  0  0
   15.8573  -16.0595   18.3456 C   0  0  0  0  0  0  0  0  0  0  0  0
   15.2305  -17.6437   18.8998 S   0  0  0  0  0  0  0  0  0  0  0  0
   13.7540  -14.7867   18.6794 C   0  0  0  0  0  0  0  0  0  0  0  0
   13.9890  -13.8892   19.5235 O   0  0  0  0  0  0  0  0  0  0  0  0
    7.0480  -15.1066   16.5559 N   0  0  0  0  0  0  0  0  0  0  0  0
    7.6943  -13.8584   16.5574 C   0  0  0  0  0  0  0  0  0  0  0  0
    7.8903  -13.2390   15.4240 N   0  0  0  0  0  0  0  0  0  0  0  0
    8.1588  -13.2163   17.7278 N   0  0  0  0  0  0  0  0  0  0  0  0
    7.9111  -13.6434   19.0581 C   0  0  0  0  0  0  0  0  0  0  0  0
    9.1265  -14.0910   19.8188 C   0  0  0  0  0  0  0  0  0  0  0  0
   10.2102  -14.5468   18.9102 C   0  0  0  0  0  0  0  0  0  0  0  0
   11.4263  -15.0872   19.6306 C   0  0  2  0  0  0  0  0  0  0  0  0
   12.4776  -15.4132   18.6713 N   0  0  0  0  0  0  0  0  0  0  0  0
   11.1530  -16.2212   20.5361 C   0  0  0  0  0  0  0  0  0  0  0  0
   11.0632  -17.3713   20.0546 O   0  0  0  0  0  0  0  0  0  0  0  0
    8.4146  -12.3606   15.3257 N   0  0  0  0  0  0  0  0  0  0  0  0
   10.9867  -16.0758   21.9309 C   0  0  2  0  0  0  0  0  0  0  0  0
   10.6141  -17.0596   22.8796 C   0  0  0  0  0  0  0  0  0  0  0  0
   10.7094  -16.6180   24.3243 S   0  0  0  0  0  0  0  0  0  0  0  0
   12.4748  -16.2793   24.6620 C   0  0  0  0  0  0  0  0  0  0  0  0
    9.3685  -17.8173   22.6066 O   0  0  0  0  0  0  0  0  0  0  0  0
    8.5551  -17.4037   21.7366 O   0  0  0  0  0  0  0  0  0  0  0  0
  2  1  1  1
  3  4  1  0
  3  2  1  0
  5  6  2  0
  5  2  1  0
  7  8  1  0
  8 10  1  0
  9  8  2  0
 10 11  1  0
 11 12  1  0
 12 13  1  0
 14 13  1  6
 14 15  1  0
 15  5  1  0
 16 14  1  0
 17 16  2  0
 18 16  1  0
 19 22  1  0
 19 18  1  0
 19 20  1  6
 21 20  1  0
 22 24  1  0
 23 22  2  0
M  END
$$$$
