CRC.pdb
     RDKit          3D

 24 23  0  0  1  0  0  0  0  0999 V2000
    7.8853  -21.3007   20.5504 N   0  0  0  0  0  0  0  0  0  0  0  0
    7.6439  -20.3655   21.6311 C   0  0  1  0  0  0  0  0  0  0  0  0
    8.0621  -21.0297   22.9217 C   0  0  0  0  0  0  0  0  0  0  0  0
    7.5635  -22.7464   23.0395 S   0  0  0  0  0  0  0  0  0  0  0  0
    8.4483  -19.1307   21.3726 C   0  0  0  0  0  0  0  0  0  0  0  0
    9.6782  -19.2175   21.1426 O   0  0  0  0  0  0  0  0  0  0  0  0
    7.6731  -14.6660   16.5242 N   0  0  0  0  0  0  0  0  0  0  0  0
    8.1679  -13.6116   17.3111 C   0  0  0  0  0  0  0  0  0  0  0  0
    7.5214  -12.4767   17.3382 N   0  0  0  0  0  0  0  0  0  0  0  0
    9.3448  -13.6980   18.0890 N   0  0  0  0  0  0  0  0  0  0  0  0
    9.4863  -14.4331   19.2944 C   0  0  0  0  0  0  0  0  0  0  0  0
    8.3594  -14.2707   20.2741 C   0  0  0  0  0  0  0  0  0  0  0  0
    7.6770  -15.5614   20.5502 C   0  0  0  0  0  0  0  0  0  0  0  0
    8.5768  -16.6098   21.1677 C   0  0  2  0  0  0  0  0  0  0  0  0
    7.8343  -17.8482   21.3837 N   0  0  0  0  0  0  0  0  0  0  0  0
    9.2734  -16.1783   22.3962 C   0  0  0  0  0  0  0  0  0  0  0  0
    9.8899  -15.0909   22.3913 O   0  0  0  0  0  0  0  0  0  0  0  0
    7.8033  -11.6614   17.8967 N   0  0  0  0  0  0  0  0  0  0  0  0
    9.2803  -16.9345   23.5887 C   0  0  1  0  0  0  0  0  0  0  0  0
    9.9164  -16.6327   24.8180 C   0  0  0  0  0  0  0  0  0  0  0  0
    9.0254  -15.9756   25.8503 S   0  0  0  0  0  0  0  0  0  0  0  0
    8.4949  -14.3707   25.1514 C   0  0  0  0  0  0  0  0  0  0  0  0
   10.7715  -17.6910   25.4086 O   0  0  0  0  0  0  0  0  0  0  0  0
   10.8705  -18.8129   24.8420 O   0  0  0  0  0  0  0  0  0  0  0  0
  2  1  1  6
  3  4  1  0
  3  2  1  0
  5  6  2  0
  5  2  1  0
  7  8  1  0
  8 10  1  0
  9  8  2  0
 10 11  1  0
 11 12  1  0
 12 13  1  0
 14 13  1  1
 14 15  1  0
 15  5  1  0
 16 14  1  0
 17 16  2  0
 18 16  1  0
 19 22  1  0
 19 18  1  0
 19 20  1  1
 21 20  1  0
 22 24  1  0
 23 22  2  0
M  END
$$$$
