CRC.pdb
     RDKit          3D

 24 23  0  0  1  0  0  0  0  0999 V2000
    6.7519  -15.7188   19.4547 N   0  0  0  0  0  0  0  0  0  0  0  0
    7.7120  -14.8792   20.1430 C   0  0  1  0  0  0  0  0  0  0  0  0
    7.2568  -13.4453   20.0062 C   0  0  0  0  0  0  0  0  0  0  0  0
    8.3307  -12.2702   20.8281 S   0  0  0  0  0  0  0  0  0  0  0  0
    7.7581  -15.2976   21.5788 C   0  0  0  0  0  0  0  0  0  0  0  0
    6.6933  -15.5010   22.2096 O   0  0  0  0  0  0  0  0  0  0  0  0
   12.1929  -18.7073   20.0806 N   0  0  0  0  0  0  0  0  0  0  0  0
   11.8806  -19.8622   20.8183 C   0  0  0  0  0  0  0  0  0  0  0  0
   11.7258  -20.9981   20.1920 N   0  0  0  0  0  0  0  0  0  0  0  0
   11.7162  -19.8763   22.2221 N   0  0  0  0  0  0  0  0  0  0  0  0
   11.6235  -18.7309   23.0546 C   0  0  0  0  0  0  0  0  0  0  0  0
   10.4017  -17.8846   22.8379 C   0  0  0  0  0  0  0  0  0  0  0  0
   10.3086  -16.7839   23.8316 C   0  0  0  0  0  0  0  0  0  0  0  0
    9.1047  -15.8871   23.6410 C   0  0  2  0  0  0  0  0  0  0  0  0
    9.0021  -15.4699   22.2456 N   0  0  0  0  0  0  0  0  0  0  0  0
    9.0480  -14.7287   24.5550 C   0  0  0  0  0  0  0  0  0  0  0  0
    9.8452  -13.7817   24.3809 O   0  0  0  0  0  0  0  0  0  0  0  0
   11.4370  -21.8751   20.6433 N   0  0  0  0  0  0  0  0  0  0  0  0
    8.1323  -14.6310   25.6255 C   0  0  1  0  0  0  0  0  0  0  0  0
    8.1919  -13.7842   26.7596 C   0  0  0  0  0  0  0  0  0  0  0  0
    6.9067  -13.0480   27.0717 S   0  0  0  0  0  0  0  0  0  0  0  0
    6.2369  -12.4478   25.4790 C   0  0  0  0  0  0  0  0  0  0  0  0
    8.8297  -14.3390   27.9785 O   0  0  0  0  0  0  0  0  0  0  0  0
    9.1610  -15.5547   28.0208 O   0  0  0  0  0  0  0  0  0  0  0  0
  2  1  1  6
  3  4  1  0
  3  2  1  0
  5  6  2  0
  5  2  1  0
  7  8  1  0
  8 10  1  0
  9  8  2  0
 10 11  1  0
 11 12  1  0
 12 13  1  0
 14 13  1  6
 14 15  1  0
 15  5  1  0
 16 14  1  0
 17 16  2  0
 18 16  1  0
 19 22  1  0
 19 18  1  0
 19 20  1  6
 21 20  1  0
 22 24  1  0
 23 22  2  0
M  END
$$$$
