CRC.pdb
     RDKit          3D

 24 23  0  0  1  0  0  0  0  0999 V2000
    7.9516  -20.7955   24.8085 N   0  0  0  0  0  0  0  0  0  0  0  0
    7.3368  -19.4894   24.6793 C   0  0  1  0  0  0  0  0  0  0  0  0
    6.6560  -19.1653   25.9882 C   0  0  0  0  0  0  0  0  0  0  0  0
    7.7650  -19.1746   27.3952 S   0  0  0  0  0  0  0  0  0  0  0  0
    8.4091  -18.4940   24.3661 C   0  0  0  0  0  0  0  0  0  0  0  0
    9.6111  -18.7717   24.5924 O   0  0  0  0  0  0  0  0  0  0  0  0
    8.0559  -14.1845   18.4831 N   0  0  0  0  0  0  0  0  0  0  0  0
    8.1655  -13.2030   19.4833 C   0  0  0  0  0  0  0  0  0  0  0  0
    8.8039  -12.0935   19.2225 N   0  0  0  0  0  0  0  0  0  0  0  0
    7.6222  -13.3404   20.7809 N   0  0  0  0  0  0  0  0  0  0  0  0
    6.6795  -14.3221   21.1822 C   0  0  0  0  0  0  0  0  0  0  0  0
    7.1166  -15.1939   22.3245 C   0  0  0  0  0  0  0  0  0  0  0  0
    8.5965  -15.3022   22.4020 C   0  0  0  0  0  0  0  0  0  0  0  0
    9.0868  -16.2092   23.5097 C   0  0  2  0  0  0  0  0  0  0  0  0
    8.0835  -17.2262   23.8105 N   0  0  0  0  0  0  0  0  0  0  0  0
    9.5254  -15.5071   24.7326 C   0  0  0  0  0  0  0  0  0  0  0  0
    9.9446  -14.3332   24.6383 O   0  0  0  0  0  0  0  0  0  0  0  0
    8.8999  -11.3105   19.8811 N   0  0  0  0  0  0  0  0  0  0  0  0
    9.4960  -16.0953   26.0160 C   0  0  1  0  0  0  0  0  0  0  0  0
    9.8062  -15.5004   27.2637 C   0  0  0  0  0  0  0  0  0  0  0  0
    8.8239  -14.4461   27.7270 S   0  0  0  0  0  0  0  0  0  0  0  0
    9.8093  -13.0153   28.2994 C   0  0  0  0  0  0  0  0  0  0  0  0
   10.2066  -16.4139   28.3616 O   0  0  0  0  0  0  0  0  0  0  0  0
   10.0861  -17.6610   28.2216 O   0  0  0  0  0  0  0  0  0  0  0  0
  2  1  1  1
  3  4  1  0
  3  2  1  0
  5  6  2  0
  5  2  1  0
  7  8  1  0
  8 10  1  0
  9  8  2  0
 10 11  1  0
 11 12  1  0
 12 13  1  0
 14 13  1  6
 14 15  1  0
 15  5  1  0
 16 14  1  0
 17 16  2  0
 18 16  1  0
 19 22  1  0
 19 18  1  0
 19 20  1  6
 21 20  1  0
 22 24  1  0
 23 22  2  0
M  END
$$$$
