CRC.pdb
     RDKit          3D

 24 23  0  0  1  0  0  0  0  0999 V2000
    7.6233  -14.3142   18.3038 N   0  0  0  0  0  0  0  0  0  0  0  0
    8.5042  -14.2729   19.4539 C   0  0  1  0  0  0  0  0  0  0  0  0
    9.0821  -12.8803   19.5460 C   0  0  0  0  0  0  0  0  0  0  0  0
    7.8981  -11.6460   20.0792 S   0  0  0  0  0  0  0  0  0  0  0  0
    7.7028  -14.6078   20.6722 C   0  0  0  0  0  0  0  0  0  0  0  0
    6.4503  -14.5523   20.6364 O   0  0  0  0  0  0  0  0  0  0  0  0
    8.4578  -22.1659   22.7958 N   0  0  0  0  0  0  0  0  0  0  0  0
    9.6109  -21.3646   22.7337 C   0  0  0  0  0  0  0  0  0  0  0  0
   10.7815  -21.9359   22.6337 N   0  0  0  0  0  0  0  0  0  0  0  0
    9.5883  -19.9520   22.7763 N   0  0  0  0  0  0  0  0  0  0  0  0
    8.4318  -19.1491   22.9534 C   0  0  0  0  0  0  0  0  0  0  0  0
    8.6776  -17.6675   22.9366 C   0  0  0  0  0  0  0  0  0  0  0  0
    7.4168  -16.8964   23.0893 C   0  0  0  0  0  0  0  0  0  0  0  0
    7.6115  -15.3958   23.0772 C   0  0  2  0  0  0  0  0  0  0  0  0
    8.3451  -14.9917   21.8813 N   0  0  0  0  0  0  0  0  0  0  0  0
    8.2293  -14.8445   24.2999 C   0  0  0  0  0  0  0  0  0  0  0  0
    9.4750  -14.7620   24.3634 O   0  0  0  0  0  0  0  0  0  0  0  0
   11.6742  -21.4280   22.5989 N   0  0  0  0  0  0  0  0  0  0  0  0
    7.4818  -14.4000   25.4125 C   0  0  1  0  0  0  0  0  0  0  0  0
    7.9552  -13.8235   26.6168 C   0  0  0  0  0  0  0  0  0  0  0  0
    6.9916  -12.8666   27.2853 S   0  0  0  0  0  0  0  0  0  0  0  0
    6.2756  -11.8230   25.9648 C   0  0  0  0  0  0  0  0  0  0  0  0
    8.6019  -14.7378   27.5894 O   0  0  0  0  0  0  0  0  0  0  0  0
    8.6065  -15.9812   27.3813 O   0  0  0  0  0  0  0  0  0  0  0  0
  2  1  1  6
  3  4  1  0
  3  2  1  0
  5  6  2  0
  5  2  1  0
  7  8  1  0
  8 10  1  0
  9  8  2  0
 10 11  1  0
 11 12  1  0
 12 13  1  0
 14 13  1  1
 14 15  1  0
 15  5  1  0
 16 14  1  0
 17 16  2  0
 18 16  1  0
 19 22  1  0
 19 18  1  0
 19 20  1  1
 21 20  1  0
 22 24  1  0
 23 22  2  0
M  END
$$$$
