CRC.pdb
     RDKit          3D

 24 23  0  0  1  0  0  0  0  0999 V2000
    5.1130  -13.1447   26.9208 N   0  0  0  0  0  0  0  0  0  0  0  0
    6.0252  -12.9109   25.8190 C   0  0  1  0  0  0  0  0  0  0  0  0
    7.0634  -11.9149   26.2794 C   0  0  0  0  0  0  0  0  0  0  0  0
    6.3687  -10.4820   27.1001 S   0  0  0  0  0  0  0  0  0  0  0  0
    6.6551  -14.2156   25.4454 C   0  0  0  0  0  0  0  0  0  0  0  0
    6.9297  -15.0588   26.3323 O   0  0  0  0  0  0  0  0  0  0  0  0
   10.4914  -13.6633   19.6187 N   0  0  0  0  0  0  0  0  0  0  0  0
    9.3250  -13.1796   19.0013 C   0  0  0  0  0  0  0  0  0  0  0  0
    9.3864  -12.0888   18.2851 N   0  0  0  0  0  0  0  0  0  0  0  0
    8.0626  -13.8063   19.1083 N   0  0  0  0  0  0  0  0  0  0  0  0
    7.7653  -14.9323   19.9190 C   0  0  0  0  0  0  0  0  0  0  0  0
    7.9223  -14.7112   21.3963 C   0  0  0  0  0  0  0  0  0  0  0  0
    7.5419  -15.9157   22.1787 C   0  0  0  0  0  0  0  0  0  0  0  0
    7.6491  -15.7316   23.6770 C   0  0  2  0  0  0  0  0  0  0  0  0
    6.9501  -14.5173   24.0875 N   0  0  0  0  0  0  0  0  0  0  0  0
    9.0277  -15.7640   24.2050 C   0  0  0  0  0  0  0  0  0  0  0  0
    9.6860  -14.7019   24.2421 O   0  0  0  0  0  0  0  0  0  0  0  0
    8.5852  -11.6686   17.7978 N   0  0  0  0  0  0  0  0  0  0  0  0
    9.6491  -16.9413   24.6761 C   0  0  1  0  0  0  0  0  0  0  0  0
   10.9420  -17.0901   25.2355 C   0  0  0  0  0  0  0  0  0  0  0  0
   11.0986  -16.5295   26.6328 S   0  0  0  0  0  0  0  0  0  0  0  0
    9.8572  -17.3658   27.6841 C   0  0  0  0  0  0  0  0  0  0  0  0
   11.5877  -18.4175   25.0891 O   0  0  0  0  0  0  0  0  0  0  0  0
   10.9537  -19.3746   24.5683 O   0  0  0  0  0  0  0  0  0  0  0  0
  2  1  1  1
  3  4  1  0
  3  2  1  0
  5  6  2  0
  5  2  1  0
  7  8  1  0
  8 10  1  0
  9  8  2  0
 10 11  1  0
 11 12  1  0
 12 13  1  0
 14 13  1  6
 14 15  1  0
 15  5  1  0
 16 14  1  0
 17 16  2  0
 18 16  1  0
 19 22  1  0
 19 18  1  0
 19 20  1  6
 21 20  1  0
 22 24  1  0
 23 22  2  0
M  END
$$$$
