CRC.pdb
     RDKit          3D

 24 23  0  0  1  0  0  0  0  0999 V2000
   15.6468  -12.1598   16.6013 N   0  0  0  0  0  0  0  0  0  0  0  0
   15.9385  -13.5400   16.9342 C   0  0  1  0  0  0  0  0  0  0  0  0
   17.4389  -13.6877   17.0276 C   0  0  0  0  0  0  0  0  0  0  0  0
   17.9728  -15.3524   17.4193 S   0  0  0  0  0  0  0  0  0  0  0  0
   15.2812  -13.8574   18.2403 C   0  0  0  0  0  0  0  0  0  0  0  0
   15.4361  -13.0955   19.2245 O   0  0  0  0  0  0  0  0  0  0  0  0
   10.8331  -20.6437   22.0376 N   0  0  0  0  0  0  0  0  0  0  0  0
   11.7907  -20.3444   21.0531 C   0  0  0  0  0  0  0  0  0  0  0  0
   12.8680  -21.0782   20.9655 N   0  0  0  0  0  0  0  0  0  0  0  0
   11.6646  -19.2781   20.1339 N   0  0  0  0  0  0  0  0  0  0  0  0
   11.1400  -17.9926   20.4268 C   0  0  0  0  0  0  0  0  0  0  0  0
   12.1691  -16.9315   20.6933 C   0  0  0  0  0  0  0  0  0  0  0  0
   12.8246  -16.4709   19.4420 C   0  0  0  0  0  0  0  0  0  0  0  0
   13.9144  -15.4446   19.6637 C   0  0  2  0  0  0  0  0  0  0  0  0
   14.4758  -15.0204   18.3845 N   0  0  0  0  0  0  0  0  0  0  0  0
   14.9730  -15.8630   20.6043 C   0  0  0  0  0  0  0  0  0  0  0  0
   15.8061  -16.7187   20.2351 O   0  0  0  0  0  0  0  0  0  0  0  0
   13.5980  -20.9546   20.2529 N   0  0  0  0  0  0  0  0  0  0  0  0
   15.0975  -15.3430   21.9113 C   0  0  1  0  0  0  0  0  0  0  0  0
   16.0188  -15.7138   22.9215 C   0  0  0  0  0  0  0  0  0  0  0  0
   17.1562  -14.7379   23.1339 S   0  0  0  0  0  0  0  0  0  0  0  0
   18.3021  -15.5088   24.3331 C   0  0  0  0  0  0  0  0  0  0  0  0
   15.4504  -16.1988   24.2028 O   0  0  0  0  0  0  0  0  0  0  0  0
   14.3555  -15.7366   24.6236 O   0  0  0  0  0  0  0  0  0  0  0  0
  2  1  1  1
  3  4  1  0
  3  2  1  0
  5  6  2  0
  5  2  1  0
  7  8  1  0
  8 10  1  0
  9  8  2  0
 10 11  1  0
 11 12  1  0
 12 13  1  0
 14 13  1  6
 14 15  1  0
 15  5  1  0
 16 14  1  0
 17 16  2  0
 18 16  1  0
 19 22  1  0
 19 18  1  0
 19 20  1  1
 21 20  1  0
 22 24  1  0
 23 22  2  0
M  END
$$$$
