CRC.pdb
     RDKit          3D

 24 23  0  0  1  0  0  0  0  0999 V2000
   10.0001  -14.6631   19.1537 N   0  0  0  0  0  0  0  0  0  0  0  0
    8.9000  -13.8863   19.6894 C   0  0  1  0  0  0  0  0  0  0  0  0
    7.7338  -14.0158   18.7381 C   0  0  0  0  0  0  0  0  0  0  0  0
    6.3293  -12.9959   19.1818 S   0  0  0  0  0  0  0  0  0  0  0  0
    8.5576  -14.4269   21.0419 C   0  0  0  0  0  0  0  0  0  0  0  0
    7.6513  -13.8905   21.7231 O   0  0  0  0  0  0  0  0  0  0  0  0
   12.0165  -19.9339   19.8327 N   0  0  0  0  0  0  0  0  0  0  0  0
   10.7339  -20.4743   19.6361 C   0  0  0  0  0  0  0  0  0  0  0  0
   10.4559  -21.0644   18.5043 N   0  0  0  0  0  0  0  0  0  0  0  0
    9.7020  -20.4179   20.6004 N   0  0  0  0  0  0  0  0  0  0  0  0
    9.7414  -19.6772   21.8101 C   0  0  0  0  0  0  0  0  0  0  0  0
    9.3917  -18.2226   21.6766 C   0  0  0  0  0  0  0  0  0  0  0  0
    9.4058  -17.5282   22.9901 C   0  0  0  0  0  0  0  0  0  0  0  0
    9.0118  -16.0690   22.9155 C   0  0  2  0  0  0  0  0  0  0  0  0
    9.2502  -15.5500   21.5719 N   0  0  0  0  0  0  0  0  0  0  0  0
    9.6330  -15.2094   23.9430 C   0  0  0  0  0  0  0  0  0  0  0  0
   10.3186  -14.2300   23.5780 O   0  0  0  0  0  0  0  0  0  0  0  0
    9.5475  -21.4889   18.2788 N   0  0  0  0  0  0  0  0  0  0  0  0
    9.4926  -15.4354   25.3299 C   0  0  2  0  0  0  0  0  0  0  0  0
    8.9513  -14.5696   26.3118 C   0  0  0  0  0  0  0  0  0  0  0  0
    7.6137  -13.9587   25.9531 S   0  0  0  0  0  0  0  0  0  0  0  0
    7.1971  -12.7721   27.2813 C   0  0  0  0  0  0  0  0  0  0  0  0
    8.9930  -15.0404   27.7178 O   0  0  0  0  0  0  0  0  0  0  0  0
    8.5956  -16.2013   28.0075 O   0  0  0  0  0  0  0  0  0  0  0  0
  2  1  1  6
  3  4  1  0
  3  2  1  0
  5  6  2  0
  5  2  1  0
  7  8  1  0
  8 10  1  0
  9  8  2  0
 10 11  1  0
 11 12  1  0
 12 13  1  0
 14 13  1  6
 14 15  1  0
 15  5  1  0
 16 14  1  0
 17 16  2  0
 18 16  1  0
 19 22  1  0
 19 18  1  0
 19 20  1  6
 21 20  1  0
 22 24  1  0
 23 22  2  0
M  END
$$$$
