CRC.pdb
     RDKit          3D

 24 23  0  0  1  0  0  0  0  0999 V2000
    4.8371  -13.3172   26.2958 N   0  0  0  0  0  0  0  0  0  0  0  0
    6.0977  -13.0268   25.6420 C   0  0  1  0  0  0  0  0  0  0  0  0
    6.8714  -12.0778   26.5265 C   0  0  0  0  0  0  0  0  0  0  0  0
    6.0953  -10.4735   26.7094 S   0  0  0  0  0  0  0  0  0  0  0  0
    6.8365  -14.3141   25.4528 C   0  0  0  0  0  0  0  0  0  0  0  0
    7.0270  -15.0796   26.4278 O   0  0  0  0  0  0  0  0  0  0  0  0
    8.4884  -14.3925   18.1304 N   0  0  0  0  0  0  0  0  0  0  0  0
    9.3218  -13.5753   18.9136 C   0  0  0  0  0  0  0  0  0  0  0  0
    9.3506  -12.2889   18.6875 N   0  0  0  0  0  0  0  0  0  0  0  0
   10.1507  -14.0631   19.9494 N   0  0  0  0  0  0  0  0  0  0  0  0
    9.8402  -15.1420   20.8171 C   0  0  0  0  0  0  0  0  0  0  0  0
    8.5974  -14.9584   21.6404 C   0  0  0  0  0  0  0  0  0  0  0  0
    8.3133  -16.1475   22.4846 C   0  0  0  0  0  0  0  0  0  0  0  0
    8.2037  -15.8376   23.9618 C   0  0  2  0  0  0  0  0  0  0  0  0
    7.3306  -14.6866   24.1725 N   0  0  0  0  0  0  0  0  0  0  0  0
    9.4971  -15.6661   24.6533 C   0  0  0  0  0  0  0  0  0  0  0  0
   10.2568  -14.7408   24.2939 O   0  0  0  0  0  0  0  0  0  0  0  0
    9.8957  -11.6147   19.2392 N   0  0  0  0  0  0  0  0  0  0  0  0
    9.9267  -16.4986   25.7100 C   0  0  1  0  0  0  0  0  0  0  0  0
   11.1798  -16.5057   26.3706 C   0  0  0  0  0  0  0  0  0  0  0  0
   11.1069  -16.3446   27.8739 S   0  0  0  0  0  0  0  0  0  0  0  0
    9.9632  -14.9563   28.2057 C   0  0  0  0  0  0  0  0  0  0  0  0
   12.1456  -17.5562   25.9661 O   0  0  0  0  0  0  0  0  0  0  0  0
   11.8082  -18.4363   25.1288 O   0  0  0  0  0  0  0  0  0  0  0  0
  2  1  1  1
  3  4  1  0
  3  2  1  0
  5  6  2  0
  5  2  1  0
  7  8  1  0
  8 10  1  0
  9  8  2  0
 10 11  1  0
 11 12  1  0
 12 13  1  0
 14 13  1  6
 14 15  1  0
 15  5  1  0
 16 14  1  0
 17 16  2  0
 18 16  1  0
 19 22  1  0
 19 18  1  0
 19 20  1  6
 21 20  1  0
 22 24  1  0
 23 22  2  0
M  END
$$$$
