PCW.pdb
     RDKit          3D

 28 30  0  0  1  0  0  0  0  0999 V2000
    9.1079  -14.2676   18.6509 N   0  0  0  0  0  0  0  0  0  0  0  0
    7.7455  -14.2299   18.1145 C   0  0  0  0  0  0  0  0  0  0  0  0
    7.1587  -12.9513   18.6810 C   0  0  0  0  0  0  0  0  0  0  0  0
    8.1052  -12.4743   19.7464 C   0  0  0  0  0  0  0  0  0  0  0  0
    9.0135  -13.6661   19.9450 C   0  0  1  0  0  0  0  0  0  0  0  0
    8.4735  -14.6469   20.9060 C   0  0  0  0  0  0  0  0  0  0  0  0
    7.6760  -14.2635   21.7917 O   0  0  0  0  0  0  0  0  0  0  0  0
    8.8135  -16.0352   20.8850 N   0  0  0  0  0  0  0  0  0  0  0  0
    8.5582  -16.8629   22.0368 C   0  0  1  0  0  0  0  0  0  0  0  0
    8.8261  -18.3180   21.6666 C   0  0  0  0  0  0  0  0  0  0  0  0
    8.1611  -19.3845   22.9838 S   0  0  0  0  0  0  0  0  0  0  0  0
    9.4438  -16.5359   23.1784 C   0  0  0  0  0  0  0  0  0  0  0  0
   10.5927  -16.1070   22.9418 O   0  0  0  0  0  0  0  0  0  0  0  0
    8.9903  -16.7084   24.5036 N   0  0  0  0  0  0  0  0  0  0  0  0
    9.8354  -16.3636   25.6721 C   0  0  1  0  0  0  0  0  0  0  0  0
    8.8931  -15.9985   26.7738 C   0  0  0  0  0  0  0  0  0  0  0  0
    7.7414  -15.1650   26.4101 C   0  0  0  0  0  0  0  0  0  0  0  0
    6.5048  -15.6782   26.0398 C   0  0  0  0  0  0  0  0  0  0  0  0
    5.7282  -14.6247   25.7503 N   0  0  0  0  0  0  0  0  0  0  0  0
    6.4186  -13.4854   25.9224 C   0  0  0  0  0  0  0  0  0  0  0  0
    6.0545  -12.1665   25.7692 C   0  0  0  0  0  0  0  0  0  0  0  0
    6.9814  -11.1706   26.0401 C   0  0  0  0  0  0  0  0  0  0  0  0
    8.2538  -11.4599   26.4570 C   0  0  0  0  0  0  0  0  0  0  0  0
    8.6104  -12.7636   26.6065 C   0  0  0  0  0  0  0  0  0  0  0  0
    7.7163  -13.7936   26.3464 C   0  0  0  0  0  0  0  0  0  0  0  0
   10.7337  -17.4571   26.0468 C   0  0  0  0  0  0  0  0  0  0  0  0
   10.5463  -18.5693   25.4361 O   0  0  0  0  0  0  0  0  0  0  0  0
   11.7417  -17.3367   26.9944 O   0  0  0  0  0  0  0  0  0  0  0  0
  1  5  1  0
  2  1  1  0
  2  3  1  0
  3  4  1  0
  5  4  1  0
  5  6  1  1
  6  7  2  0
  8  6  1  0
  9  8  1  0
  9 10  1  6
 11 10  1  0
 12  9  1  0
 13 12  2  0
 14 12  1  0
 15 14  1  0
 15 16  1  1
 17 16  1  0
 18 17  2  0
 19 20  1  0
 19 18  1  0
 20 25  2  0
 21 20  1  0
 21 22  2  0
 22 23  1  0
 23 24  2  0
 25 17  1  0
 25 24  1  0
 26 15  1  0
 27 26  2  0
 28 26  1  0
M  END
$$$$
