PCW.pdb
     RDKit          3D

 28 30  0  0  1  0  0  0  0  0999 V2000
    8.6306  -19.5508   20.1147 N   0  0  0  0  0  0  0  0  0  0  0  0
    7.6584  -19.2943   19.0497 C   0  0  0  0  0  0  0  0  0  0  0  0
    8.5069  -19.1337   17.8030 C   0  0  0  0  0  0  0  0  0  0  0  0
    9.9328  -19.0103   18.2616 C   0  0  0  0  0  0  0  0  0  0  0  0
    9.7877  -18.7932   19.7505 C   0  0  1  0  0  0  0  0  0  0  0  0
    9.5816  -17.3765   20.1079 C   0  0  0  0  0  0  0  0  0  0  0  0
   10.3813  -16.5132   19.6807 O   0  0  0  0  0  0  0  0  0  0  0  0
    8.5025  -16.9233   20.9285 N   0  0  0  0  0  0  0  0  0  0  0  0
    8.5611  -15.6263   21.5540 C   0  0  1  0  0  0  0  0  0  0  0  0
    7.1586  -15.2345   22.0075 C   0  0  0  0  0  0  0  0  0  0  0  0
    7.1570  -13.4627   22.4262 S   0  0  0  0  0  0  0  0  0  0  0  0
    9.4247  -15.6150   22.7575 C   0  0  0  0  0  0  0  0  0  0  0  0
   10.3091  -14.7382   22.8521 O   0  0  0  0  0  0  0  0  0  0  0  0
    9.2448  -16.5791   23.7722 N   0  0  0  0  0  0  0  0  0  0  0  0
   10.1283  -16.6393   24.9615 C   0  0  1  0  0  0  0  0  0  0  0  0
    9.8401  -15.4067   25.7568 C   0  0  0  0  0  0  0  0  0  0  0  0
    8.4305  -15.0225   25.8941 C   0  0  0  0  0  0  0  0  0  0  0  0
    7.3736  -15.9171   25.7842 C   0  0  0  0  0  0  0  0  0  0  0  0
    6.2515  -15.1986   25.9315 N   0  0  0  0  0  0  0  0  0  0  0  0
    6.5579  -13.9056   26.1277 C   0  0  0  0  0  0  0  0  0  0  0  0
    5.7625  -12.8025   26.3422 C   0  0  0  0  0  0  0  0  0  0  0  0
    6.3573  -11.5647   26.5383 C   0  0  0  0  0  0  0  0  0  0  0  0
    7.7178  -11.4049   26.5248 C   0  0  0  0  0  0  0  0  0  0  0  0
    8.5004  -12.4964   26.3118 C   0  0  0  0  0  0  0  0  0  0  0  0
    7.9492  -13.7548   26.1102 C   0  0  0  0  0  0  0  0  0  0  0  0
    9.9268  -17.8635   25.7386 C   0  0  0  0  0  0  0  0  0  0  0  0
    8.9634  -18.6180   25.3542 O   0  0  0  0  0  0  0  0  0  0  0  0
   10.7114  -18.2244   26.8261 O   0  0  0  0  0  0  0  0  0  0  0  0
  1  5  1  0
  2  1  1  0
  2  3  1  0
  3  4  1  0
  5  4  1  0
  5  6  1  6
  6  7  2  0
  8  6  1  0
  9  8  1  0
  9 10  1  1
 11 10  1  0
 12  9  1  0
 13 12  2  0
 14 12  1  0
 15 14  1  0
 15 16  1  1
 17 16  1  0
 18 17  2  0
 19 20  1  0
 19 18  1  0
 20 25  2  0
 21 20  1  0
 21 22  2  0
 22 23  1  0
 23 24  2  0
 25 17  1  0
 25 24  1  0
 26 15  1  0
 27 26  2  0
 28 26  1  0
M  END
$$$$
