PCW.pdb
     RDKit          3D

 28 30  0  0  1  0  0  0  0  0999 V2000
    9.0701  -14.4059   17.9728 N   0  0  0  0  0  0  0  0  0  0  0  0
    7.6789  -14.3561   17.5179 C   0  0  0  0  0  0  0  0  0  0  0  0
    7.1446  -13.0608   18.0981 C   0  0  0  0  0  0  0  0  0  0  0  0
    8.1596  -12.5820   19.0978 C   0  0  0  0  0  0  0  0  0  0  0  0
    9.0615  -13.7840   19.2607 C   0  0  1  0  0  0  0  0  0  0  0  0
    8.5663  -14.7424   20.2673 C   0  0  0  0  0  0  0  0  0  0  0  0
    7.8874  -14.3233   21.2321 O   0  0  0  0  0  0  0  0  0  0  0  0
    8.8208  -16.1477   20.2047 N   0  0  0  0  0  0  0  0  0  0  0  0
    8.6222  -16.9741   21.3685 C   0  0  1  0  0  0  0  0  0  0  0  0
    8.8684  -18.4300   20.9864 C   0  0  0  0  0  0  0  0  0  0  0  0
    8.4347  -19.4846   22.4057 S   0  0  0  0  0  0  0  0  0  0  0  0
    9.5647  -16.6482   22.4639 C   0  0  0  0  0  0  0  0  0  0  0  0
   10.7600  -16.4245   22.1791 O   0  0  0  0  0  0  0  0  0  0  0  0
    9.1127  -16.5936   23.7996 N   0  0  0  0  0  0  0  0  0  0  0  0
   10.0355  -16.3258   24.9289 C   0  0  1  0  0  0  0  0  0  0  0  0
    9.7076  -14.9516   25.4173 C   0  0  0  0  0  0  0  0  0  0  0  0
    8.3023  -14.6835   25.7442 C   0  0  0  0  0  0  0  0  0  0  0  0
    7.3210  -15.6654   25.7914 C   0  0  0  0  0  0  0  0  0  0  0  0
    6.1723  -15.0400   26.0848 N   0  0  0  0  0  0  0  0  0  0  0  0
    6.3905  -13.7218   26.2227 C   0  0  0  0  0  0  0  0  0  0  0  0
    5.5404  -12.6844   26.5333 C   0  0  0  0  0  0  0  0  0  0  0  0
    6.0480  -11.3971   26.6318 C   0  0  0  0  0  0  0  0  0  0  0  0
    7.3750  -11.1247   26.4284 C   0  0  0  0  0  0  0  0  0  0  0  0
    8.2118  -12.1515   26.1209 C   0  0  0  0  0  0  0  0  0  0  0  0
    7.7482  -13.4558   26.0112 C   0  0  0  0  0  0  0  0  0  0  0  0
    9.9243  -17.3337   25.9847 C   0  0  0  0  0  0  0  0  0  0  0  0
    8.9375  -18.1464   25.8807 O   0  0  0  0  0  0  0  0  0  0  0  0
   10.8140  -17.4405   27.0456 O   0  0  0  0  0  0  0  0  0  0  0  0
  1  5  1  0
  2  1  1  0
  2  3  1  0
  3  4  1  0
  5  4  1  0
  5  6  1  1
  6  7  2  0
  8  6  1  0
  9  8  1  0
  9 10  1  6
 11 10  1  0
 12  9  1  0
 13 12  2  0
 14 12  1  0
 15 14  1  0
 15 16  1  1
 17 16  1  0
 18 17  2  0
 19 20  1  0
 19 18  1  0
 20 25  2  0
 21 20  1  0
 21 22  2  0
 22 23  1  0
 23 24  2  0
 25 17  1  0
 25 24  1  0
 26 15  1  0
 27 26  2  0
 28 26  1  0
M  END
$$$$
