PCW.pdb
     RDKit          3D

 28 30  0  0  1  0  0  0  0  0999 V2000
    9.0173  -14.5003   18.1840 N   0  0  0  0  0  0  0  0  0  0  0  0
    7.6099  -14.5737   17.7856 C   0  0  0  0  0  0  0  0  0  0  0  0
    7.0385  -13.2287   18.1913 C   0  0  0  0  0  0  0  0  0  0  0  0
    8.0658  -12.5669   19.0661 C   0  0  0  0  0  0  0  0  0  0  0  0
    9.0266  -13.6948   19.3657 C   0  0  1  0  0  0  0  0  0  0  0  0
    8.6117  -14.5118   20.5222 C   0  0  0  0  0  0  0  0  0  0  0  0
    8.3209  -13.9462   21.6006 O   0  0  0  0  0  0  0  0  0  0  0  0
    8.5204  -15.9379   20.4831 N   0  0  0  0  0  0  0  0  0  0  0  0
    8.2408  -16.6808   21.6859 C   0  0  1  0  0  0  0  0  0  0  0  0
    8.1573  -18.1639   21.3403 C   0  0  0  0  0  0  0  0  0  0  0  0
    7.7152  -19.0874   22.8459 S   0  0  0  0  0  0  0  0  0  0  0  0
    9.3053  -16.5325   22.7053 C   0  0  0  0  0  0  0  0  0  0  0  0
   10.4975  -16.6213   22.3438 O   0  0  0  0  0  0  0  0  0  0  0  0
    8.9703  -16.2957   24.0555 N   0  0  0  0  0  0  0  0  0  0  0  0
   10.0007  -16.2389   25.1203 C   0  0  1  0  0  0  0  0  0  0  0  0
    9.6287  -15.0876   25.9983 C   0  0  0  0  0  0  0  0  0  0  0  0
    8.2024  -14.7525   26.0809 C   0  0  0  0  0  0  0  0  0  0  0  0
    7.1838  -15.6938   26.0042 C   0  0  0  0  0  0  0  0  0  0  0  0
    6.0316  -15.0131   26.0823 N   0  0  0  0  0  0  0  0  0  0  0  0
    6.2830  -13.6993   26.2042 C   0  0  0  0  0  0  0  0  0  0  0  0
    5.4407  -12.6178   26.3324 C   0  0  0  0  0  0  0  0  0  0  0  0
    5.9824  -11.3475   26.4639 C   0  0  0  0  0  0  0  0  0  0  0  0
    7.3355  -11.1345   26.4698 C   0  0  0  0  0  0  0  0  0  0  0  0
    8.1646  -12.2047   26.3421 C   0  0  0  0  0  0  0  0  0  0  0  0
    7.6675  -13.4942   26.2073 C   0  0  0  0  0  0  0  0  0  0  0  0
   10.0987  -17.4968   25.8626 C   0  0  0  0  0  0  0  0  0  0  0  0
   11.1142  -17.6115   26.6376 O   0  0  0  0  0  0  0  0  0  0  0  0
    9.1684  -18.5234   25.7662 O   0  0  0  0  0  0  0  0  0  0  0  0
  1  5  1  0
  2  1  1  0
  2  3  1  0
  3  4  1  0
  5  4  1  0
  5  6  1  1
  6  7  2  0
  8  6  1  0
  9  8  1  0
  9 10  1  6
 11 10  1  0
 12  9  1  0
 13 12  2  0
 14 12  1  0
 15 14  1  0
 15 16  1  1
 17 16  1  0
 18 17  2  0
 19 20  1  0
 19 18  1  0
 20 25  2  0
 21 20  1  0
 21 22  2  0
 22 23  1  0
 23 24  2  0
 25 17  1  0
 25 24  1  0
 26 15  1  0
 27 26  2  0
 28 26  1  0
M  END
$$$$
