PCW.pdb
     RDKit          3D

 28 30  0  0  1  0  0  0  0  0999 V2000
    9.1133  -14.0722   18.8383 N   0  0  0  0  0  0  0  0  0  0  0  0
    7.7676  -14.2718   18.2958 C   0  0  0  0  0  0  0  0  0  0  0  0
    6.9493  -13.1531   18.9115 C   0  0  0  0  0  0  0  0  0  0  0  0
    7.7900  -12.5500   20.0015 C   0  0  0  0  0  0  0  0  0  0  0  0
    8.9088  -13.5546   20.1558 C   0  0  1  0  0  0  0  0  0  0  0  0
    8.5673  -14.6597   21.0719 C   0  0  0  0  0  0  0  0  0  0  0  0
    7.7166  -14.4712   21.9708 O   0  0  0  0  0  0  0  0  0  0  0  0
    9.1617  -15.9573   20.9919 N   0  0  0  0  0  0  0  0  0  0  0  0
    9.0228  -16.8880   22.0834 C   0  0  1  0  0  0  0  0  0  0  0  0
    9.6027  -18.2336   21.6599 C   0  0  0  0  0  0  0  0  0  0  0  0
    9.0650  -19.4995   22.8528 S   0  0  0  0  0  0  0  0  0  0  0  0
    9.7622  -16.4589   23.2931 C   0  0  0  0  0  0  0  0  0  0  0  0
   10.8336  -15.8332   23.1500 O   0  0  0  0  0  0  0  0  0  0  0  0
    9.2588  -16.7551   24.5778 N   0  0  0  0  0  0  0  0  0  0  0  0
    9.9693  -16.3424   25.8122 C   0  0  1  0  0  0  0  0  0  0  0  0
    8.9104  -16.0872   26.8361 C   0  0  0  0  0  0  0  0  0  0  0  0
    7.7825  -15.2431   26.4252 C   0  0  0  0  0  0  0  0  0  0  0  0
    6.5488  -15.7441   26.0297 C   0  0  0  0  0  0  0  0  0  0  0  0
    5.7972  -14.6844   25.6995 N   0  0  0  0  0  0  0  0  0  0  0  0
    6.5004  -13.5528   25.8703 C   0  0  0  0  0  0  0  0  0  0  0  0
    6.1616  -12.2316   25.6832 C   0  0  0  0  0  0  0  0  0  0  0  0
    7.0962  -11.2451   25.9620 C   0  0  0  0  0  0  0  0  0  0  0  0
    8.3517  -11.5460   26.4196 C   0  0  0  0  0  0  0  0  0  0  0  0
    8.6835  -12.8520   26.6026 C   0  0  0  0  0  0  0  0  0  0  0  0
    7.7809  -13.8729   26.3362 C   0  0  0  0  0  0  0  0  0  0  0  0
   10.9403  -17.3453   26.2528 C   0  0  0  0  0  0  0  0  0  0  0  0
   10.9156  -18.4625   25.6231 O   0  0  0  0  0  0  0  0  0  0  0  0
   11.8518  -17.1372   27.2796 O   0  0  0  0  0  0  0  0  0  0  0  0
  1  5  1  0
  2  1  1  0
  2  3  1  0
  3  4  1  0
  5  4  1  0
  5  6  1  1
  6  7  2  0
  8  6  1  0
  9  8  1  0
  9 10  1  6
 11 10  1  0
 12  9  1  0
 13 12  2  0
 14 12  1  0
 15 14  1  0
 15 16  1  1
 17 16  1  0
 18 17  2  0
 19 20  1  0
 19 18  1  0
 20 25  2  0
 21 20  1  0
 21 22  2  0
 22 23  1  0
 23 24  2  0
 25 17  1  0
 25 24  1  0
 26 15  1  0
 27 26  2  0
 28 26  1  0
M  END
$$$$
