PCW.pdb
     RDKit          3D

 28 30  0  0  1  0  0  0  0  0999 V2000
    7.8438  -18.8798   20.3495 N   0  0  0  0  0  0  0  0  0  0  0  0
    6.9852  -18.3503   19.2878 C   0  0  0  0  0  0  0  0  0  0  0  0
    7.8289  -18.4700   18.0333 C   0  0  0  0  0  0  0  0  0  0  0  0
    9.2292  -18.7830   18.4805 C   0  0  0  0  0  0  0  0  0  0  0  0
    9.1731  -18.5159   19.9672 C   0  0  1  0  0  0  0  0  0  0  0  0
    9.4132  -17.1001   20.3066 C   0  0  0  0  0  0  0  0  0  0  0  0
   10.4411  -16.5310   19.8743 O   0  0  0  0  0  0  0  0  0  0  0  0
    8.5246  -16.3255   21.1152 N   0  0  0  0  0  0  0  0  0  0  0  0
    8.9095  -15.0106   21.5623 C   0  0  1  0  0  0  0  0  0  0  0  0
    7.6660  -14.1302   21.6308 C   0  0  0  0  0  0  0  0  0  0  0  0
    6.3676  -15.0282   22.5379 S   0  0  0  0  0  0  0  0  0  0  0  0
    9.5064  -15.0240   22.9180 C   0  0  0  0  0  0  0  0  0  0  0  0
   10.0795  -13.9939   23.3305 O   0  0  0  0  0  0  0  0  0  0  0  0
    9.4244  -16.1818   23.7207 N   0  0  0  0  0  0  0  0  0  0  0  0
   10.0567  -16.2531   25.0600 C   0  0  1  0  0  0  0  0  0  0  0  0
    8.9690  -16.6288   26.0142 C   0  0  0  0  0  0  0  0  0  0  0  0
    7.7634  -15.7921   26.0058 C   0  0  0  0  0  0  0  0  0  0  0  0
    6.5087  -16.2519   25.6265 C   0  0  0  0  0  0  0  0  0  0  0  0
    5.6780  -15.2035   25.7144 N   0  0  0  0  0  0  0  0  0  0  0  0
    6.3522  -14.1183   26.1291 C   0  0  0  0  0  0  0  0  0  0  0  0
    5.9389  -12.8295   26.3818 C   0  0  0  0  0  0  0  0  0  0  0  0
    6.8625  -11.8959   26.8288 C   0  0  0  0  0  0  0  0  0  0  0  0
    8.1791  -12.2177   27.0273 C   0  0  0  0  0  0  0  0  0  0  0  0
    8.5841  -13.4913   26.7759 C   0  0  0  0  0  0  0  0  0  0  0  0
    7.6953  -14.4588   26.3267 C   0  0  0  0  0  0  0  0  0  0  0  0
   11.1769  -17.1950   25.0931 C   0  0  0  0  0  0  0  0  0  0  0  0
   11.3468  -17.8997   24.0350 O   0  0  0  0  0  0  0  0  0  0  0  0
   12.0288  -17.3420   26.1799 O   0  0  0  0  0  0  0  0  0  0  0  0
  1  5  1  0
  2  1  1  0
  2  3  1  0
  3  4  1  0
  5  4  1  0
  5  6  1  6
  6  7  2  0
  8  6  1  0
  9  8  1  0
  9 10  1  1
 11 10  1  0
 12  9  1  0
 13 12  2  0
 14 12  1  0
 15 14  1  0
 15 16  1  1
 17 16  1  0
 18 17  2  0
 19 20  1  0
 19 18  1  0
 20 25  2  0
 21 20  1  0
 21 22  2  0
 22 23  1  0
 23 24  2  0
 25 17  1  0
 25 24  1  0
 26 15  1  0
 27 26  2  0
 28 26  1  0
M  END
$$$$
