PCW.pdb
     RDKit          3D

 28 30  0  0  1  0  0  0  0  0999 V2000
    8.3281  -14.4625   18.8007 N   0  0  0  0  0  0  0  0  0  0  0  0
    6.9446  -14.0726   19.0816 C   0  0  0  0  0  0  0  0  0  0  0  0
    7.0756  -12.8070   19.9069 C   0  0  0  0  0  0  0  0  0  0  0  0
    8.5198  -12.6986   20.3085 C   0  0  0  0  0  0  0  0  0  0  0  0
    9.0679  -14.0629   19.9576 C   0  0  1  0  0  0  0  0  0  0  0  0
    8.8744  -15.0545   21.0330 C   0  0  0  0  0  0  0  0  0  0  0  0
    7.7717  -15.1129   21.6229 O   0  0  0  0  0  0  0  0  0  0  0  0
    9.8908  -15.9696   21.4488 N   0  0  0  0  0  0  0  0  0  0  0  0
    9.6671  -16.8407   22.5748 C   0  0  1  0  0  0  0  0  0  0  0  0
   10.3753  -18.1671   22.3195 C   0  0  0  0  0  0  0  0  0  0  0  0
    9.8673  -19.3536   23.6036 S   0  0  0  0  0  0  0  0  0  0  0  0
   10.2172  -16.2913   23.8358 C   0  0  0  0  0  0  0  0  0  0  0  0
   11.2633  -15.6107   23.7867 O   0  0  0  0  0  0  0  0  0  0  0  0
    9.5660  -16.5369   25.0634 N   0  0  0  0  0  0  0  0  0  0  0  0
   10.1626  -16.1371   26.3607 C   0  0  1  0  0  0  0  0  0  0  0  0
    9.0158  -15.8247   27.2673 C   0  0  0  0  0  0  0  0  0  0  0  0
    7.8493  -15.1750   26.6587 C   0  0  0  0  0  0  0  0  0  0  0  0
    6.7650  -15.8693   26.1373 C   0  0  0  0  0  0  0  0  0  0  0  0
    5.9259  -14.9476   25.6442 N   0  0  0  0  0  0  0  0  0  0  0  0
    6.4331  -13.7183   25.8333 C   0  0  0  0  0  0  0  0  0  0  0  0
    5.9421  -12.4710   25.5192 C   0  0  0  0  0  0  0  0  0  0  0  0
    6.6815  -11.3462   25.8548 C   0  0  0  0  0  0  0  0  0  0  0  0
    7.8907  -11.4383   26.4918 C   0  0  0  0  0  0  0  0  0  0  0  0
    8.3732  -12.6718   26.7998 C   0  0  0  0  0  0  0  0  0  0  0  0
    7.6683  -13.8253   26.4829 C   0  0  0  0  0  0  0  0  0  0  0  0
   11.0399  -17.1731   26.9085 C   0  0  0  0  0  0  0  0  0  0  0  0
   11.6805  -16.8579   27.9740 O   0  0  0  0  0  0  0  0  0  0  0  0
   11.1921  -18.4325   26.3435 O   0  0  0  0  0  0  0  0  0  0  0  0
  1  5  1  0
  2  1  1  0
  2  3  1  0
  3  4  1  0
  5  4  1  0
  5  6  1  1
  6  7  2  0
  8  6  1  0
  9  8  1  0
  9 10  1  6
 11 10  1  0
 12  9  1  0
 13 12  2  0
 14 12  1  0
 15 14  1  0
 15 16  1  1
 17 16  1  0
 18 17  2  0
 19 20  1  0
 19 18  1  0
 20 25  2  0
 21 20  1  0
 21 22  2  0
 22 23  1  0
 23 24  2  0
 25 17  1  0
 25 24  1  0
 26 15  1  0
 27 26  2  0
 28 26  1  0
M  END
$$$$
