PCW.pdb
     RDKit          3D

 28 30  0  0  1  0  0  0  0  0999 V2000
    9.1830  -14.2836   16.9875 N   0  0  0  0  0  0  0  0  0  0  0  0
    7.7907  -14.7094   16.8293 C   0  0  0  0  0  0  0  0  0  0  0  0
    7.0028  -13.7232   17.6698 C   0  0  0  0  0  0  0  0  0  0  0  0
    8.0009  -12.9678   18.5016 C   0  0  0  0  0  0  0  0  0  0  0  0
    9.2658  -13.7755   18.3218 C   0  0  1  0  0  0  0  0  0  0  0  0
    9.3702  -14.8998   19.2717 C   0  0  0  0  0  0  0  0  0  0  0  0
    8.4269  -15.1239   20.0637 O   0  0  0  0  0  0  0  0  0  0  0  0
   10.5063  -15.7646   19.3420 N   0  0  0  0  0  0  0  0  0  0  0  0
   10.6753  -16.6514   20.4654 C   0  0  1  0  0  0  0  0  0  0  0  0
   12.1109  -17.1661   20.4747 C   0  0  0  0  0  0  0  0  0  0  0  0
   12.2626  -18.4415   21.7651 S   0  0  0  0  0  0  0  0  0  0  0  0
   10.4493  -15.9735   21.7629 C   0  0  0  0  0  0  0  0  0  0  0  0
   11.0689  -14.9158   22.0022 O   0  0  0  0  0  0  0  0  0  0  0  0
    9.5502  -16.5186   22.7041 N   0  0  0  0  0  0  0  0  0  0  0  0
    9.2175  -15.8173   23.9675 C   0  0  1  0  0  0  0  0  0  0  0  0
    7.7635  -15.4799   23.8856 C   0  0  0  0  0  0  0  0  0  0  0  0
    7.1573  -14.8726   25.0760 C   0  0  0  0  0  0  0  0  0  0  0  0
    6.3423  -15.5635   25.9637 C   0  0  0  0  0  0  0  0  0  0  0  0
    5.9559  -14.6774   26.8923 N   0  0  0  0  0  0  0  0  0  0  0  0
    6.4894  -13.4736   26.6270 C   0  0  0  0  0  0  0  0  0  0  0  0
    6.3991  -12.2701   27.2896 C   0  0  0  0  0  0  0  0  0  0  0  0
    7.0832  -11.1696   26.7942 C   0  0  0  0  0  0  0  0  0  0  0  0
    7.8492  -11.2432   25.6610 C   0  0  0  0  0  0  0  0  0  0  0  0
    7.9355  -12.4332   25.0086 C   0  0  0  0  0  0  0  0  0  0  0  0
    7.2678  -13.5609   25.4671 C   0  0  0  0  0  0  0  0  0  0  0  0
    9.5371  -16.6226   25.1476 C   0  0  0  0  0  0  0  0  0  0  0  0
    9.6664  -17.8827   24.9467 O   0  0  0  0  0  0  0  0  0  0  0  0
    9.7039  -16.0929   26.4204 O   0  0  0  0  0  0  0  0  0  0  0  0
  1  5  1  0
  2  1  1  0
  2  3  1  0
  3  4  1  0
  5  4  1  0
  5  6  1  1
  6  7  2  0
  8  6  1  0
  9  8  1  0
  9 10  1  1
 11 10  1  0
 12  9  1  0
 13 12  2  0
 14 12  1  0
 15 14  1  0
 15 16  1  6
 17 16  1  0
 18 17  2  0
 19 20  1  0
 19 18  1  0
 20 25  2  0
 21 20  1  0
 21 22  2  0
 22 23  1  0
 23 24  2  0
 25 17  1  0
 25 24  1  0
 26 15  1  0
 27 26  2  0
 28 26  1  0
M  END
$$$$
