PCW.pdb
     RDKit          3D

 28 30  0  0  1  0  0  0  0  0999 V2000
    8.3835  -14.5484   18.4965 N   0  0  0  0  0  0  0  0  0  0  0  0
    6.9649  -14.2494   18.7042 C   0  0  0  0  0  0  0  0  0  0  0  0
    6.9705  -12.9802   19.5343 C   0  0  0  0  0  0  0  0  0  0  0  0
    8.3816  -12.7798   20.0110 C   0  0  0  0  0  0  0  0  0  0  0  0
    9.0344  -14.1049   19.6903 C   0  0  1  0  0  0  0  0  0  0  0  0
    8.8494  -15.1098   20.7548 C   0  0  0  0  0  0  0  0  0  0  0  0
    7.7161  -15.6098   20.9366 O   0  0  0  0  0  0  0  0  0  0  0  0
    9.9077  -15.5545   21.6066 N   0  0  0  0  0  0  0  0  0  0  0  0
    9.6560  -16.5491   22.6186 C   0  0  1  0  0  0  0  0  0  0  0  0
   10.4771  -17.7943   22.3001 C   0  0  0  0  0  0  0  0  0  0  0  0
   12.1851  -17.2847   21.9287 S   0  0  0  0  0  0  0  0  0  0  0  0
   10.0593  -16.0981   23.9708 C   0  0  0  0  0  0  0  0  0  0  0  0
   10.9023  -15.1819   24.0701 O   0  0  0  0  0  0  0  0  0  0  0  0
    9.4973  -16.6971   25.1183 N   0  0  0  0  0  0  0  0  0  0  0  0
   10.0268  -16.4348   26.4783 C   0  0  1  0  0  0  0  0  0  0  0  0
    8.8425  -16.1085   27.3301 C   0  0  0  0  0  0  0  0  0  0  0  0
    7.7673  -15.3341   26.6996 C   0  0  0  0  0  0  0  0  0  0  0  0
    6.7056  -15.9077   26.0116 C   0  0  0  0  0  0  0  0  0  0  0  0
    5.9577  -14.8935   25.5543 N   0  0  0  0  0  0  0  0  0  0  0  0
    6.5000  -13.7214   25.9236 C   0  0  0  0  0  0  0  0  0  0  0  0
    6.0965  -12.4225   25.7103 C   0  0  0  0  0  0  0  0  0  0  0  0
    6.8515  -11.3827   26.2329 C   0  0  0  0  0  0  0  0  0  0  0  0
    7.9916  -11.6090   26.9578 C   0  0  0  0  0  0  0  0  0  0  0  0
    8.3878  -12.8931   27.1660 C   0  0  0  0  0  0  0  0  0  0  0  0
    7.6640  -13.9653   26.6615 C   0  0  0  0  0  0  0  0  0  0  0  0
   10.7941  -17.5668   27.0007 C   0  0  0  0  0  0  0  0  0  0  0  0
   11.4107  -17.3620   28.1066 O   0  0  0  0  0  0  0  0  0  0  0  0
   10.8700  -18.8026   26.3719 O   0  0  0  0  0  0  0  0  0  0  0  0
  1  5  1  0
  2  1  1  0
  2  3  1  0
  3  4  1  0
  5  4  1  0
  5  6  1  1
  6  7  2  0
  8  6  1  0
  9  8  1  0
  9 10  1  6
 11 10  1  0
 12  9  1  0
 13 12  2  0
 14 12  1  0
 15 14  1  0
 15 16  1  1
 17 16  1  0
 18 17  2  0
 19 20  1  0
 19 18  1  0
 20 25  2  0
 21 20  1  0
 21 22  2  0
 22 23  1  0
 23 24  2  0
 25 17  1  0
 25 24  1  0
 26 15  1  0
 27 26  2  0
 28 26  1  0
M  END
$$$$
