PCW.pdb
     RDKit          3D

 28 30  0  0  1  0  0  0  0  0999 V2000
    9.1847  -14.1880   19.0484 N   0  0  0  0  0  0  0  0  0  0  0  0
    7.9117  -14.4881   18.3892 C   0  0  0  0  0  0  0  0  0  0  0  0
    6.9923  -13.3646   18.8280 C   0  0  0  0  0  0  0  0  0  0  0  0
    7.6909  -12.6442   19.9468 C   0  0  0  0  0  0  0  0  0  0  0  0
    8.8239  -13.5829   20.2931 C   0  0  1  0  0  0  0  0  0  0  0  0
    8.4294  -14.6307   21.2542 C   0  0  0  0  0  0  0  0  0  0  0  0
    7.5817  -14.3664   22.1367 O   0  0  0  0  0  0  0  0  0  0  0  0
    8.9681  -15.9547   21.2367 N   0  0  0  0  0  0  0  0  0  0  0  0
    8.7969  -16.8234   22.3737 C   0  0  1  0  0  0  0  0  0  0  0  0
    9.2840  -18.2205   22.0036 C   0  0  0  0  0  0  0  0  0  0  0  0
    8.7558  -19.3828   23.3017 S   0  0  0  0  0  0  0  0  0  0  0  0
    9.5877  -16.3853   23.5471 C   0  0  0  0  0  0  0  0  0  0  0  0
   10.6406  -15.7420   23.3537 O   0  0  0  0  0  0  0  0  0  0  0  0
    9.1529  -16.6928   24.8540 N   0  0  0  0  0  0  0  0  0  0  0  0
    9.9864  -16.4035   26.0457 C   0  0  1  0  0  0  0  0  0  0  0  0
    9.0427  -15.9546   27.1145 C   0  0  0  0  0  0  0  0  0  0  0  0
    7.8765  -15.1755   26.6828 C   0  0  0  0  0  0  0  0  0  0  0  0
    6.6986  -15.7451   26.2166 C   0  0  0  0  0  0  0  0  0  0  0  0
    5.8889  -14.7281   25.8893 N   0  0  0  0  0  0  0  0  0  0  0  0
    6.5033  -13.5580   26.1290 C   0  0  0  0  0  0  0  0  0  0  0  0
    6.0807  -12.2571   25.9716 C   0  0  0  0  0  0  0  0  0  0  0  0
    6.9314  -11.2197   26.3244 C   0  0  0  0  0  0  0  0  0  0  0  0
    8.1848  -11.4502   26.8267 C   0  0  0  0  0  0  0  0  0  0  0  0
    8.5993  -12.7362   26.9801 C   0  0  0  0  0  0  0  0  0  0  0  0
    7.7825  -13.8062   26.6399 C   0  0  0  0  0  0  0  0  0  0  0  0
   10.7841  -17.5603   26.4565 C   0  0  0  0  0  0  0  0  0  0  0  0
   10.5693  -18.6464   25.8089 O   0  0  0  0  0  0  0  0  0  0  0  0
   11.7283  -17.5236   27.4741 O   0  0  0  0  0  0  0  0  0  0  0  0
  1  5  1  0
  2  1  1  0
  2  3  1  0
  3  4  1  0
  5  4  1  0
  5  6  1  1
  6  7  2  0
  8  6  1  0
  9  8  1  0
  9 10  1  6
 11 10  1  0
 12  9  1  0
 13 12  2  0
 14 12  1  0
 15 14  1  0
 15 16  1  1
 17 16  1  0
 18 17  2  0
 19 20  1  0
 19 18  1  0
 20 25  2  0
 21 20  1  0
 21 22  2  0
 22 23  1  0
 23 24  2  0
 25 17  1  0
 25 24  1  0
 26 15  1  0
 27 26  2  0
 28 26  1  0
M  END
$$$$
