PCW.pdb
     RDKit          3D

 28 30  0  0  1  0  0  0  0  0999 V2000
    8.9770  -14.3557   18.5963 N   0  0  0  0  0  0  0  0  0  0  0  0
    7.6067  -14.2165   18.0984 C   0  0  0  0  0  0  0  0  0  0  0  0
    7.1302  -12.9016   18.6851 C   0  0  0  0  0  0  0  0  0  0  0  0
    8.1381  -12.5000   19.7250 C   0  0  0  0  0  0  0  0  0  0  0  0
    8.9625  -13.7556   19.8944 C   0  0  1  0  0  0  0  0  0  0  0  0
    8.3795  -14.6996   20.8672 C   0  0  0  0  0  0  0  0  0  0  0  0
    7.5757  -14.2754   21.7281 O   0  0  0  0  0  0  0  0  0  0  0  0
    8.6841  -16.0961   20.8847 N   0  0  0  0  0  0  0  0  0  0  0  0
    8.4765  -16.8696   22.0828 C   0  0  1  0  0  0  0  0  0  0  0  0
    8.5836  -18.3512   21.7371 C   0  0  0  0  0  0  0  0  0  0  0  0
    8.2043  -19.3247   23.2282 S   0  0  0  0  0  0  0  0  0  0  0  0
    9.4956  -16.5921   23.1214 C   0  0  0  0  0  0  0  0  0  0  0  0
   10.6957  -16.5287   22.7815 O   0  0  0  0  0  0  0  0  0  0  0  0
    9.1095  -16.4042   24.4657 N   0  0  0  0  0  0  0  0  0  0  0  0
   10.1058  -16.2628   25.5548 C   0  0  1  0  0  0  0  0  0  0  0  0
    9.6592  -15.0979   26.3785 C   0  0  0  0  0  0  0  0  0  0  0  0
    8.2632  -14.6736   26.2222 C   0  0  0  0  0  0  0  0  0  0  0  0
    7.2036  -15.5559   26.0541 C   0  0  0  0  0  0  0  0  0  0  0  0
    6.1029  -14.8042   25.9121 N   0  0  0  0  0  0  0  0  0  0  0  0
    6.4248  -13.5021   25.9842 C   0  0  0  0  0  0  0  0  0  0  0  0
    5.6505  -12.3660   25.9123 C   0  0  0  0  0  0  0  0  0  0  0  0
    6.2544  -11.1237   26.0407 C   0  0  0  0  0  0  0  0  0  0  0  0
    7.6036  -10.9915   26.2374 C   0  0  0  0  0  0  0  0  0  0  0  0
    8.3656  -12.1157   26.3070 C   0  0  0  0  0  0  0  0  0  0  0  0
    7.8048  -13.3798   26.1834 C   0  0  0  0  0  0  0  0  0  0  0  0
   10.2372  -17.4873   26.3463 C   0  0  0  0  0  0  0  0  0  0  0  0
   11.2183  -17.5172   27.1719 O   0  0  0  0  0  0  0  0  0  0  0  0
    9.3714  -18.5682   26.2440 O   0  0  0  0  0  0  0  0  0  0  0  0
  1  5  1  0
  2  1  1  0
  2  3  1  0
  3  4  1  0
  5  4  1  0
  5  6  1  1
  6  7  2  0
  8  6  1  0
  9  8  1  0
  9 10  1  6
 11 10  1  0
 12  9  1  0
 13 12  2  0
 14 12  1  0
 15 14  1  0
 15 16  1  1
 17 16  1  0
 18 17  2  0
 19 20  1  0
 19 18  1  0
 20 25  2  0
 21 20  1  0
 21 22  2  0
 22 23  1  0
 23 24  2  0
 25 17  1  0
 25 24  1  0
 26 15  1  0
 27 26  2  0
 28 26  1  0
M  END
$$$$
