PCW.pdb
     RDKit          3D

 28 30  0  0  1  0  0  0  0  0999 V2000
    9.1289  -14.5106   18.0078 N   0  0  0  0  0  0  0  0  0  0  0  0
    7.7219  -14.4576   17.6045 C   0  0  0  0  0  0  0  0  0  0  0  0
    7.2260  -13.1362   18.1595 C   0  0  0  0  0  0  0  0  0  0  0  0
    8.2843  -12.6373   19.1028 C   0  0  0  0  0  0  0  0  0  0  0  0
    9.1772  -13.8451   19.2728 C   0  0  1  0  0  0  0  0  0  0  0  0
    8.7094  -14.7620   20.3300 C   0  0  0  0  0  0  0  0  0  0  0  0
    8.1426  -14.2927   21.3429 O   0  0  0  0  0  0  0  0  0  0  0  0
    8.8682  -16.1811   20.2647 N   0  0  0  0  0  0  0  0  0  0  0  0
    8.6167  -16.9942   21.4276 C   0  0  1  0  0  0  0  0  0  0  0  0
    8.7663  -18.4626   21.0435 C   0  0  0  0  0  0  0  0  0  0  0  0
    8.4426  -19.4841   22.5154 S   0  0  0  0  0  0  0  0  0  0  0  0
    9.5796  -16.7323   22.5225 C   0  0  0  0  0  0  0  0  0  0  0  0
   10.7791  -16.5401   22.2323 O   0  0  0  0  0  0  0  0  0  0  0  0
    9.1419  -16.7023   23.8637 N   0  0  0  0  0  0  0  0  0  0  0  0
   10.0630  -16.3858   24.9818 C   0  0  1  0  0  0  0  0  0  0  0  0
    9.7374  -14.9900   25.4067 C   0  0  0  0  0  0  0  0  0  0  0  0
    8.3446  -14.7207   25.7821 C   0  0  0  0  0  0  0  0  0  0  0  0
    7.3816  -15.7103   25.9319 C   0  0  0  0  0  0  0  0  0  0  0  0
    6.2379  -15.0831   26.2412 N   0  0  0  0  0  0  0  0  0  0  0  0
    6.4422  -13.7564   26.2916 C   0  0  0  0  0  0  0  0  0  0  0  0
    5.5913  -12.7131   26.5801 C   0  0  0  0  0  0  0  0  0  0  0  0
    6.0833  -11.4161   26.5795 C   0  0  0  0  0  0  0  0  0  0  0  0
    7.3953  -11.1396   26.2993 C   0  0  0  0  0  0  0  0  0  0  0  0
    8.2328  -12.1722   26.0140 C   0  0  0  0  0  0  0  0  0  0  0  0
    7.7846  -13.4864   26.0022 C   0  0  0  0  0  0  0  0  0  0  0  0
    9.9471  -17.3446   26.0820 C   0  0  0  0  0  0  0  0  0  0  0  0
    8.9417  -18.1391   26.0282 O   0  0  0  0  0  0  0  0  0  0  0  0
   10.8512  -17.4250   27.1330 O   0  0  0  0  0  0  0  0  0  0  0  0
  1  5  1  0
  2  1  1  0
  2  3  1  0
  3  4  1  0
  5  4  1  0
  5  6  1  1
  6  7  2  0
  8  6  1  0
  9  8  1  0
  9 10  1  6
 11 10  1  0
 12  9  1  0
 13 12  2  0
 14 12  1  0
 15 14  1  0
 15 16  1  1
 17 16  1  0
 18 17  2  0
 19 20  1  0
 19 18  1  0
 20 25  2  0
 21 20  1  0
 21 22  2  0
 22 23  1  0
 23 24  2  0
 25 17  1  0
 25 24  1  0
 26 15  1  0
 27 26  2  0
 28 26  1  0
M  END
$$$$
