PCW.pdb
     RDKit          3D

 28 30  0  0  1  0  0  0  0  0999 V2000
    8.2786  -14.7726   17.2601 N   0  0  0  0  0  0  0  0  0  0  0  0
    7.0533  -14.4314   17.9862 C   0  0  0  0  0  0  0  0  0  0  0  0
    7.3945  -13.1397   18.7041 C   0  0  0  0  0  0  0  0  0  0  0  0
    8.8828  -12.9624   18.5941 C   0  0  0  0  0  0  0  0  0  0  0  0
    9.3446  -14.3124   18.0951 C   0  0  1  0  0  0  0  0  0  0  0  0
    9.5708  -15.2817   19.1845 C   0  0  0  0  0  0  0  0  0  0  0  0
    8.5866  -15.8006   19.7585 O   0  0  0  0  0  0  0  0  0  0  0  0
   10.8718  -15.6704   19.6314 N   0  0  0  0  0  0  0  0  0  0  0  0
   11.0181  -16.5431   20.7688 C   0  0  1  0  0  0  0  0  0  0  0  0
   12.4812  -16.9574   20.8865 C   0  0  0  0  0  0  0  0  0  0  0  0
   12.6324  -18.1825   22.2249 S   0  0  0  0  0  0  0  0  0  0  0  0
   10.6509  -15.8821   22.0426 C   0  0  0  0  0  0  0  0  0  0  0  0
   11.0928  -14.7368   22.2724 O   0  0  0  0  0  0  0  0  0  0  0  0
    9.8180  -16.5405   22.9723 N   0  0  0  0  0  0  0  0  0  0  0  0
    9.3418  -15.8731   24.2078 C   0  0  1  0  0  0  0  0  0  0  0  0
    7.8903  -15.5868   23.9929 C   0  0  0  0  0  0  0  0  0  0  0  0
    7.1591  -14.9946   25.1190 C   0  0  0  0  0  0  0  0  0  0  0  0
    6.1470  -15.6483   25.8101 C   0  0  0  0  0  0  0  0  0  0  0  0
    5.7013  -14.7866   26.7351 N   0  0  0  0  0  0  0  0  0  0  0  0
    6.3849  -13.6332   26.6539 C   0  0  0  0  0  0  0  0  0  0  0  0
    6.3043  -12.4717   27.3887 C   0  0  0  0  0  0  0  0  0  0  0  0
    7.1634  -11.4225   27.0963 C   0  0  0  0  0  0  0  0  0  0  0  0
    8.0937  -11.5063   26.0944 C   0  0  0  0  0  0  0  0  0  0  0  0
    8.1702  -12.6546   25.3700 C   0  0  0  0  0  0  0  0  0  0  0  0
    7.3305  -13.7302   25.6266 C   0  0  0  0  0  0  0  0  0  0  0  0
    9.5785  -16.6862   25.4019 C   0  0  0  0  0  0  0  0  0  0  0  0
    9.6188  -17.9547   25.2161 O   0  0  0  0  0  0  0  0  0  0  0  0
    9.7593  -16.1558   26.6725 O   0  0  0  0  0  0  0  0  0  0  0  0
  1  5  1  0
  2  1  1  0
  2  3  1  0
  3  4  1  0
  5  4  1  0
  5  6  1  1
  6  7  2  0
  8  6  1  0
  9  8  1  0
  9 10  1  1
 11 10  1  0
 12  9  1  0
 13 12  2  0
 14 12  1  0
 15 14  1  0
 15 16  1  6
 17 16  1  0
 18 17  2  0
 19 20  1  0
 19 18  1  0
 20 25  2  0
 21 20  1  0
 21 22  2  0
 22 23  1  0
 23 24  2  0
 25 17  1  0
 25 24  1  0
 26 15  1  0
 27 26  2  0
 28 26  1  0
M  END
$$$$
