SWI.pdb
     RDKit          3D

 29 30  0  0  1  0  0  0  0  0999 V2000
   18.6756   -6.9923  -22.1661 O   0  0  0  0  0  0  0  0  0  0  0  0
   18.5901   -7.7484  -21.0090 C   0  0  0  0  0  0  0  0  0  0  0  0
   19.8584   -8.5598  -20.8095 C   0  0  2  0  0  0  0  0  0  0  0  0
   19.7261   -9.8965  -21.3379 N   0  0  0  0  0  0  0  0  0  0  0  0
   20.2248   -8.6560  -19.3816 C   0  0  0  0  0  0  0  0  0  0  0  0
   19.5502   -9.3855  -18.5778 O   0  0  0  0  0  0  0  0  0  0  0  0
   21.3220   -7.9631  -18.8198 N   0  0  0  0  0  0  0  0  0  0  0  0
   21.6362   -8.0729  -17.4240 C   0  0  1  0  0  0  0  0  0  0  0  0
   22.9917   -8.7085  -17.2632 C   0  0  0  0  0  0  0  0  0  0  0  0
   23.1018  -10.0889  -17.7140 C   0  0  0  0  0  0  0  0  0  0  0  0
   23.7347  -10.5696  -18.8727 C   0  0  0  0  0  0  0  0  0  0  0  0
   23.6519  -11.8980  -18.9115 N   0  0  0  0  0  0  0  0  0  0  0  0
   22.9876  -12.3166  -17.8233 C   0  0  0  0  0  0  0  0  0  0  0  0
   22.6499  -13.5966  -17.4314 C   0  0  0  0  0  0  0  0  0  0  0  0
   21.9500  -13.8343  -16.2762 C   0  0  0  0  0  0  0  0  0  0  0  0
   21.5864  -12.7649  -15.5072 C   0  0  0  0  0  0  0  0  0  0  0  0
   21.9332  -11.4733  -15.9122 C   0  0  0  0  0  0  0  0  0  0  0  0
   22.6387  -11.2101  -17.0708 C   0  0  0  0  0  0  0  0  0  0  0  0
   21.7220   -6.7057  -16.8514 C   0  0  0  0  0  0  0  0  0  0  0  0
   22.2304   -5.7798  -17.5297 O   0  0  0  0  0  0  0  0  0  0  0  0
   17.7747   -3.8145  -16.0626 C   0  0  0  0  0  0  0  0  0  0  0  0
   19.1768   -4.2724  -16.1174 C   0  0  0  0  0  0  0  0  0  0  0  0
   19.9468   -4.4645  -14.8846 C   0  0  2  0  0  0  0  0  0  0  0  0
   19.8753   -3.2448  -13.9590 C   0  0  0  0  0  0  0  0  0  0  0  0
   21.3194   -4.9800  -15.0260 C   0  0  2  0  0  0  0  0  0  0  0  0
   21.2553   -6.3766  -15.5611 N   0  0  0  0  0  0  0  0  0  0  0  0
   22.2404   -5.0176  -13.9298 C   0  0  0  0  0  0  0  0  0  0  0  0
   22.3865   -5.9623  -13.1315 O   0  0  0  0  0  0  0  0  0  0  0  0
   23.0915   -3.9188  -13.6712 O   0  0  0  0  0  0  0  0  0  0  0  0
  1  2  1  0
  2  3  1  0
  3  5  1  0
  3  4  1  1
  5  6  2  0
  7  8  1  0
  7  5  1  0
  8  9  1  6
 10 18  1  0
 10  9  1  0
 11 10  2  0
 12 11  1  0
 12 13  1  0
 13 18  2  0
 14 13  1  0
 14 15  2  0
 15 16  1  0
 16 17  2  0
 18 17  1  0
 19  8  1  0
 19 20  2  0
 21 22  1  0
 22 23  1  0
 23 25  1  0
 23 24  1  6
 25 27  1  0
 25 26  1  1
 26 19  1  0
 27 29  1  0
 28 27  2  0
M  END
$$$$
