SWI.pdb
     RDKit          3D

 29 30  0  0  1  0  0  0  0  0999 V2000
   31.5646  -25.9714  -15.9432 O   0  0  0  0  0  0  0  0  0  0  0  0
   31.4521  -24.6390  -15.5826 C   0  0  0  0  0  0  0  0  0  0  0  0
   30.0629  -24.1167  -15.9051 C   0  0  2  0  0  0  0  0  0  0  0  0
   29.8878  -23.9038  -17.3219 N   0  0  0  0  0  0  0  0  0  0  0  0
   29.7817  -22.8472  -15.2037 C   0  0  0  0  0  0  0  0  0  0  0  0
   30.5137  -21.8166  -15.3915 O   0  0  0  0  0  0  0  0  0  0  0  0
   28.7077  -22.6897  -14.2974 N   0  0  0  0  0  0  0  0  0  0  0  0
   28.2597  -21.3880  -13.8929 C   0  0  1  0  0  0  0  0  0  0  0  0
   27.4465  -20.7708  -14.9998 C   0  0  0  0  0  0  0  0  0  0  0  0
   26.9870  -19.4089  -14.7647 C   0  0  0  0  0  0  0  0  0  0  0  0
   26.3529  -18.5443  -15.6727 C   0  0  0  0  0  0  0  0  0  0  0  0
   26.0541  -17.3970  -15.0664 N   0  0  0  0  0  0  0  0  0  0  0  0
   26.4664  -17.4675  -13.7914 C   0  0  0  0  0  0  0  0  0  0  0  0
   26.3847  -16.5288  -12.7824 C   0  0  0  0  0  0  0  0  0  0  0  0
   26.8766  -16.7775  -11.5266 C   0  0  0  0  0  0  0  0  0  0  0  0
   27.4591  -17.9903  -11.2873 C   0  0  0  0  0  0  0  0  0  0  0  0
   27.5368  -18.9338  -12.3151 C   0  0  0  0  0  0  0  0  0  0  0  0
   27.0470  -18.7058  -13.5869 C   0  0  0  0  0  0  0  0  0  0  0  0
   27.3605  -21.5421  -12.7215 C   0  0  0  0  0  0  0  0  0  0  0  0
   26.3826  -22.3263  -12.7889 O   0  0  0  0  0  0  0  0  0  0  0  0
   29.4545  -20.5704   -7.6737 C   0  0  0  0  0  0  0  0  0  0  0  0
   28.7046  -21.0440   -8.8535 C   0  0  0  0  0  0  0  0  0  0  0  0
   27.3485  -20.5548   -9.1203 C   0  0  2  0  0  0  0  0  0  0  0  0
   26.4568  -20.6060   -7.8747 C   0  0  0  0  0  0  0  0  0  0  0  0
   26.6697  -21.0823  -10.3166 C   0  0  2  0  0  0  0  0  0  0  0  0
   27.5433  -20.8444  -11.5087 N   0  0  0  0  0  0  0  0  0  0  0  0
   25.3548  -20.6626  -10.6989 C   0  0  0  0  0  0  0  0  0  0  0  0
   24.2941  -21.2633  -10.4441 O   0  0  0  0  0  0  0  0  0  0  0  0
   25.1691  -19.4687  -11.4330 O   0  0  0  0  0  0  0  0  0  0  0  0
  1  2  1  0
  2  3  1  0
  3  5  1  0
  3  4  1  6
  5  6  2  0
  7  8  1  0
  7  5  1  0
  8  9  1  6
 10 18  1  0
 10  9  1  0
 11 10  2  0
 12 11  1  0
 12 13  1  0
 13 18  2  0
 14 13  1  0
 14 15  2  0
 15 16  1  0
 16 17  2  0
 18 17  1  0
 19  8  1  0
 19 20  2  0
 21 22  1  0
 22 23  1  0
 23 25  1  0
 23 24  1  1
 25 27  1  0
 25 26  1  6
 26 19  1  0
 27 29  1  0
 28 27  2  0
M  END
$$$$
