SWI.pdb
     RDKit          3D

 29 30  0  0  1  0  0  0  0  0999 V2000
   29.1761  -20.7537  -16.7400 O   0  0  0  0  0  0  0  0  0  0  0  0
   28.2850  -20.2085  -17.6493 C   0  0  0  0  0  0  0  0  0  0  0  0
   27.8220  -18.8390  -17.1836 C   0  0  2  0  0  0  0  0  0  0  0  0
   28.9361  -17.9751  -16.8739 N   0  0  0  0  0  0  0  0  0  0  0  0
   26.9576  -18.9330  -15.9892 C   0  0  0  0  0  0  0  0  0  0  0  0
   27.1502  -18.1762  -14.9775 O   0  0  0  0  0  0  0  0  0  0  0  0
   25.8828  -19.8462  -15.8865 N   0  0  0  0  0  0  0  0  0  0  0  0
   24.9527  -19.7816  -14.7958 C   0  0  1  0  0  0  0  0  0  0  0  0
   23.6682  -20.4610  -15.1908 C   0  0  0  0  0  0  0  0  0  0  0  0
   22.5978  -20.4149  -14.2044 C   0  0  0  0  0  0  0  0  0  0  0  0
   22.0611  -19.2836  -13.5670 C   0  0  0  0  0  0  0  0  0  0  0  0
   21.0688  -19.6518  -12.7590 N   0  0  0  0  0  0  0  0  0  0  0  0
   20.9274  -20.9840  -12.8357 C   0  0  0  0  0  0  0  0  0  0  0  0
   20.0435  -21.8186  -12.1813 C   0  0  0  0  0  0  0  0  0  0  0  0
   20.0533  -23.1755  -12.3805 C   0  0  0  0  0  0  0  0  0  0  0  0
   20.9684  -23.6959  -13.2518 C   0  0  0  0  0  0  0  0  0  0  0  0
   21.8587  -22.8428  -13.9094 C   0  0  0  0  0  0  0  0  0  0  0  0
   21.8662  -21.4734  -13.7253 C   0  0  0  0  0  0  0  0  0  0  0  0
   25.5160  -20.5403  -13.6506 C   0  0  0  0  0  0  0  0  0  0  0  0
   26.1562  -21.5991  -13.8626 O   0  0  0  0  0  0  0  0  0  0  0  0
   28.8028  -20.2892   -8.7187 C   0  0  0  0  0  0  0  0  0  0  0  0
   27.6546  -20.9190   -9.3995 C   0  0  0  0  0  0  0  0  0  0  0  0
   26.9997  -20.2513  -10.5286 C   0  0  2  0  0  0  0  0  0  0  0  0
   26.6622  -18.7880  -10.2219 C   0  0  0  0  0  0  0  0  0  0  0  0
   25.8790  -20.9620  -11.1681 C   0  0  2  0  0  0  0  0  0  0  0  0
   25.3722  -20.1334  -12.3072 N   0  0  0  0  0  0  0  0  0  0  0  0
   24.7209  -21.3814  -10.4372 C   0  0  0  0  0  0  0  0  0  0  0  0
   23.6015  -20.8365  -10.4683 O   0  0  0  0  0  0  0  0  0  0  0  0
   24.7810  -22.5075   -9.5846 O   0  0  0  0  0  0  0  0  0  0  0  0
  1  2  1  0
  2  3  1  0
  3  5  1  0
  3  4  1  1
  5  6  2  0
  7  8  1  0
  7  5  1  0
  8  9  1  6
 10 18  1  0
 10  9  1  0
 11 10  2  0
 12 11  1  0
 12 13  1  0
 13 18  2  0
 14 13  1  0
 14 15  2  0
 15 16  1  0
 16 17  2  0
 18 17  1  0
 19  8  1  0
 19 20  2  0
 21 22  1  0
 22 23  1  0
 23 25  1  0
 23 24  1  1
 25 27  1  0
 25 26  1  6
 26 19  1  0
 27 29  1  0
 28 27  2  0
M  END
$$$$
