SWI.pdb
     RDKit          3D

 29 30  0  0  1  0  0  0  0  0999 V2000
   28.4163  -21.6339  -18.7153 O   0  0  0  0  0  0  0  0  0  0  0  0
   27.5567  -21.9710  -17.6830 C   0  0  0  0  0  0  0  0  0  0  0  0
   28.3378  -22.2481  -16.4103 C   0  0  2  0  0  0  0  0  0  0  0  0
   28.9612  -23.5496  -16.4388 N   0  0  0  0  0  0  0  0  0  0  0  0
   27.4752  -22.1694  -15.2135 C   0  0  0  0  0  0  0  0  0  0  0  0
   26.7736  -23.1710  -14.8422 O   0  0  0  0  0  0  0  0  0  0  0  0
   27.3694  -21.0066  -14.4157 N   0  0  0  0  0  0  0  0  0  0  0  0
   26.5751  -20.9934  -13.2209 C   0  0  1  0  0  0  0  0  0  0  0  0
   27.1039  -19.9449  -12.2783 C   0  0  0  0  0  0  0  0  0  0  0  0
   27.9633  -20.4309  -11.2077 C   0  0  0  0  0  0  0  0  0  0  0  0
   29.2375  -21.0119  -11.3216 C   0  0  0  0  0  0  0  0  0  0  0  0
   29.7148  -21.2891  -10.1098 N   0  0  0  0  0  0  0  0  0  0  0  0
   28.8054  -20.9147   -9.1967 C   0  0  0  0  0  0  0  0  0  0  0  0
   28.8451  -21.0073   -7.8198 C   0  0  0  0  0  0  0  0  0  0  0  0
   27.8030  -20.5761   -7.0393 C   0  0  0  0  0  0  0  0  0  0  0  0
   26.7066  -20.0448   -7.6582 C   0  0  0  0  0  0  0  0  0  0  0  0
   26.6762  -19.9553   -9.0523 C   0  0  0  0  0  0  0  0  0  0  0  0
   27.7143  -20.3819   -9.8583 C   0  0  0  0  0  0  0  0  0  0  0  0
   25.1891  -20.6009  -13.5807 C   0  0  0  0  0  0  0  0  0  0  0  0
   25.0007  -19.6445  -14.3717 O   0  0  0  0  0  0  0  0  0  0  0  0
   22.4196  -23.2650  -16.5414 C   0  0  0  0  0  0  0  0  0  0  0  0
   22.8434  -22.1778  -15.6375 C   0  0  0  0  0  0  0  0  0  0  0  0
   22.1306  -21.9338  -14.3798 C   0  0  2  0  0  0  0  0  0  0  0  0
   20.6160  -21.8167  -14.5837 C   0  0  0  0  0  0  0  0  0  0  0  0
   22.6609  -20.8745  -13.5043 C   0  0  2  0  0  0  0  0  0  0  0  0
   24.0443  -21.2533  -13.0758 N   0  0  0  0  0  0  0  0  0  0  0  0
   21.9810  -20.4496  -12.3175 C   0  0  0  0  0  0  0  0  0  0  0  0
   22.1941  -20.8691  -11.1645 O   0  0  0  0  0  0  0  0  0  0  0  0
   20.9652  -19.4687  -12.3863 O   0  0  0  0  0  0  0  0  0  0  0  0
  1  2  1  0
  2  3  1  0
  3  5  1  0
  3  4  1  6
  5  6  2  0
  7  8  1  0
  7  5  1  0
  8  9  1  1
 10 18  1  0
 10  9  1  0
 11 10  2  0
 12 11  1  0
 12 13  1  0
 13 18  2  0
 14 13  1  0
 14 15  2  0
 15 16  1  0
 16 17  2  0
 18 17  1  0
 19  8  1  0
 19 20  2  0
 21 22  1  0
 22 23  1  0
 23 25  1  0
 23 24  1  6
 25 27  1  0
 25 26  1  1
 26 19  1  0
 27 29  1  0
 28 27  2  0
M  END
$$$$
