SWI.pdb
     RDKit          3D

 29 30  0  0  1  0  0  0  0  0999 V2000
   29.7626  -19.7570  -13.6101 O   0  0  0  0  0  0  0  0  0  0  0  0
   29.0739  -20.9212  -13.9073 C   0  0  0  0  0  0  0  0  0  0  0  0
   27.5799  -20.6543  -13.9665 C   0  0  2  0  0  0  0  0  0  0  0  0
   27.2484  -19.6979  -14.9955 N   0  0  0  0  0  0  0  0  0  0  0  0
   27.0648  -20.1503  -12.6769 C   0  0  0  0  0  0  0  0  0  0  0  0
   26.9990  -18.8960  -12.4406 O   0  0  0  0  0  0  0  0  0  0  0  0
   26.6198  -21.0022  -11.6396 N   0  0  0  0  0  0  0  0  0  0  0  0
   25.9712  -20.4776  -10.4722 C   0  0  1  0  0  0  0  0  0  0  0  0
   24.6223  -21.1275  -10.3128 C   0  0  0  0  0  0  0  0  0  0  0  0
   23.5459  -20.5572  -11.1111 C   0  0  0  0  0  0  0  0  0  0  0  0
   23.4830  -20.4315  -12.5091 C   0  0  0  0  0  0  0  0  0  0  0  0
   22.3170  -19.8924  -12.8596 N   0  0  0  0  0  0  0  0  0  0  0  0
   21.6046  -19.6552  -11.7474 C   0  0  0  0  0  0  0  0  0  0  0  0
   20.3480  -19.1018  -11.6034 C   0  0  0  0  0  0  0  0  0  0  0  0
   19.7767  -18.9249  -10.3693 C   0  0  0  0  0  0  0  0  0  0  0  0
   20.4845  -19.3118   -9.2662 C   0  0  0  0  0  0  0  0  0  0  0  0
   21.7555  -19.8710   -9.4223 C   0  0  0  0  0  0  0  0  0  0  0  0
   22.3501  -20.0599  -10.6553 C   0  0  0  0  0  0  0  0  0  0  0  0
   26.7778  -20.8434   -9.2805 C   0  0  0  0  0  0  0  0  0  0  0  0
   27.4684  -21.8916   -9.2967 O   0  0  0  0  0  0  0  0  0  0  0  0
   29.8417  -18.4508   -4.5107 C   0  0  0  0  0  0  0  0  0  0  0  0
   29.1511  -19.5734   -5.1750 C   0  0  0  0  0  0  0  0  0  0  0  0
   28.2680  -19.3323   -6.3203 C   0  0  2  0  0  0  0  0  0  0  0  0
   27.3204  -18.1510   -6.0846 C   0  0  0  0  0  0  0  0  0  0  0  0
   27.5748  -20.5011   -6.8889 C   0  0  2  0  0  0  0  0  0  0  0  0
   26.8163  -20.0656   -8.1038 N   0  0  0  0  0  0  0  0  0  0  0  0
   26.6684  -21.3020   -6.1220 C   0  0  0  0  0  0  0  0  0  0  0  0
   26.9786  -22.0589   -5.1829 O   0  0  0  0  0  0  0  0  0  0  0  0
   25.2825  -21.2812   -6.4004 O   0  0  0  0  0  0  0  0  0  0  0  0
  1  2  1  0
  2  3  1  0
  3  5  1  0
  3  4  1  6
  5  6  2  0
  7  8  1  0
  7  5  1  0
  8  9  1  1
 10 18  1  0
 10  9  1  0
 11 10  2  0
 12 11  1  0
 12 13  1  0
 13 18  2  0
 14 13  1  0
 14 15  2  0
 15 16  1  0
 16 17  2  0
 18 17  1  0
 19  8  1  0
 19 20  2  0
 21 22  1  0
 22 23  1  0
 23 25  1  0
 23 24  1  1
 25 27  1  0
 25 26  1  6
 26 19  1  0
 27 29  1  0
 28 27  2  0
M  END
$$$$
