SWI.pdb
     RDKit          3D

 29 30  0  0  1  0  0  0  0  0999 V2000
   26.8771  -19.3870  -15.5568 O   0  0  0  0  0  0  0  0  0  0  0  0
   28.2402  -19.5493  -15.3731 C   0  0  0  0  0  0  0  0  0  0  0  0
   28.5322  -20.8869  -14.7156 C   0  0  2  0  0  0  0  0  0  0  0  0
   28.3074  -21.9879  -15.6216 N   0  0  0  0  0  0  0  0  0  0  0  0
   27.7014  -21.0954  -13.5119 C   0  0  0  0  0  0  0  0  0  0  0  0
   26.6432  -21.8104  -13.5596 O   0  0  0  0  0  0  0  0  0  0  0  0
   28.0135  -20.5306  -12.2536 N   0  0  0  0  0  0  0  0  0  0  0  0
   27.2278  -20.8255  -11.0898 C   0  0  1  0  0  0  0  0  0  0  0  0
   27.8702  -20.2014   -9.8793 C   0  0  0  0  0  0  0  0  0  0  0  0
   27.1982  -20.4428   -8.6100 C   0  0  0  0  0  0  0  0  0  0  0  0
   25.9320  -21.0145   -8.4001 C   0  0  0  0  0  0  0  0  0  0  0  0
   25.6887  -21.0997   -7.0937 N   0  0  0  0  0  0  0  0  0  0  0  0
   26.7448  -20.6057   -6.4294 C   0  0  0  0  0  0  0  0  0  0  0  0
   26.9529  -20.4756   -5.0707 C   0  0  0  0  0  0  0  0  0  0  0  0
   28.1065  -19.9299   -4.5685 C   0  0  0  0  0  0  0  0  0  0  0  0
   29.0621  -19.5098   -5.4505 C   0  0  0  0  0  0  0  0  0  0  0  0
   28.8421  -19.6459   -6.8237 C   0  0  0  0  0  0  0  0  0  0  0  0
   27.6887  -20.1936   -7.3521 C   0  0  0  0  0  0  0  0  0  0  0  0
   25.8925  -20.1968  -11.2509 C   0  0  0  0  0  0  0  0  0  0  0  0
   25.8097  -18.9630  -11.4669 O   0  0  0  0  0  0  0  0  0  0  0  0
   21.4628  -20.5067  -14.9340 C   0  0  0  0  0  0  0  0  0  0  0  0
   21.8276  -20.1879  -13.5398 C   0  0  0  0  0  0  0  0  0  0  0  0
   23.0909  -20.6682  -12.9715 C   0  0  2  0  0  0  0  0  0  0  0  0
   23.3277  -22.1555  -13.2562 C   0  0  0  0  0  0  0  0  0  0  0  0
   23.3712  -20.3152  -11.5691 C   0  0  2  0  0  0  0  0  0  0  0  0
   24.6828  -20.9193  -11.1746 N   0  0  0  0  0  0  0  0  0  0  0  0
   22.4601  -20.6177  -10.5062 C   0  0  0  0  0  0  0  0  0  0  0  0
   22.5959  -21.5259   -9.6648 O   0  0  0  0  0  0  0  0  0  0  0  0
   21.2798  -19.8583  -10.3365 O   0  0  0  0  0  0  0  0  0  0  0  0
  1  2  1  0
  2  3  1  0
  3  5  1  0
  3  4  1  6
  5  6  2  0
  7  8  1  0
  7  5  1  0
  8  9  1  1
 10 18  1  0
 10  9  1  0
 11 10  2  0
 12 11  1  0
 12 13  1  0
 13 18  2  0
 14 13  1  0
 14 15  2  0
 15 16  1  0
 16 17  2  0
 18 17  1  0
 19  8  1  0
 19 20  2  0
 21 22  1  0
 22 23  1  0
 23 25  1  0
 23 24  1  1
 25 27  1  0
 25 26  1  1
 26 19  1  0
 27 29  1  0
 28 27  2  0
M  END
$$$$
