SWI.pdb
     RDKit          3D

 29 30  0  0  1  0  0  0  0  0999 V2000
   26.5357  -19.6768  -15.3755 O   0  0  0  0  0  0  0  0  0  0  0  0
   27.9141  -19.7423  -15.2580 C   0  0  0  0  0  0  0  0  0  0  0  0
   28.3322  -21.0630  -14.6355 C   0  0  2  0  0  0  0  0  0  0  0  0
   28.1201  -22.1697  -15.5376 N   0  0  0  0  0  0  0  0  0  0  0  0
   27.5955  -21.3329  -13.3837 C   0  0  0  0  0  0  0  0  0  0  0  0
   26.6053  -22.1407  -13.3652 O   0  0  0  0  0  0  0  0  0  0  0  0
   27.9282  -20.7294  -12.1490 N   0  0  0  0  0  0  0  0  0  0  0  0
   27.1304  -20.9448  -10.9760 C   0  0  1  0  0  0  0  0  0  0  0  0
   27.8415  -20.3804   -9.7747 C   0  0  0  0  0  0  0  0  0  0  0  0
   27.1214  -20.4705   -8.5120 C   0  0  0  0  0  0  0  0  0  0  0  0
   25.8290  -20.9754   -8.2908 C   0  0  0  0  0  0  0  0  0  0  0  0
   25.5418  -20.9208   -6.9917 N   0  0  0  0  0  0  0  0  0  0  0  0
   26.5941  -20.3983   -6.3432 C   0  0  0  0  0  0  0  0  0  0  0  0
   26.7640  -20.1395   -4.9977 C   0  0  0  0  0  0  0  0  0  0  0  0
   27.9206  -19.5851   -4.5121 C   0  0  0  0  0  0  0  0  0  0  0  0
   28.9182  -19.2879   -5.3975 C   0  0  0  0  0  0  0  0  0  0  0  0
   28.7366  -19.5538   -6.7572 C   0  0  0  0  0  0  0  0  0  0  0  0
   27.5811  -20.1129   -7.2686 C   0  0  0  0  0  0  0  0  0  0  0  0
   25.8589  -20.1930  -11.1264 C   0  0  0  0  0  0  0  0  0  0  0  0
   25.8909  -18.9563  -11.3394 O   0  0  0  0  0  0  0  0  0  0  0  0
   22.0983  -22.1280  -14.4901 C   0  0  0  0  0  0  0  0  0  0  0  0
   22.5042  -21.7462  -13.1233 C   0  0  0  0  0  0  0  0  0  0  0  0
   23.0362  -20.4075  -12.8504 C   0  0  2  0  0  0  0  0  0  0  0  0
   24.1849  -20.0352  -13.7944 C   0  0  0  0  0  0  0  0  0  0  0  0
   23.3375  -20.0802  -11.4461 C   0  0  2  0  0  0  0  0  0  0  0  0
   24.5872  -20.7989  -11.0429 N   0  0  0  0  0  0  0  0  0  0  0  0
   22.3959  -20.2996  -10.3894 C   0  0  0  0  0  0  0  0  0  0  0  0
   22.3997  -21.2597   -9.5962 O   0  0  0  0  0  0  0  0  0  0  0  0
   21.3411  -19.3845  -10.1685 O   0  0  0  0  0  0  0  0  0  0  0  0
  1  2  1  0
  2  3  1  0
  3  5  1  0
  3  4  1  6
  5  6  2  0
  7  8  1  0
  7  5  1  0
  8  9  1  1
 10 18  1  0
 10  9  1  0
 11 10  2  0
 12 11  1  0
 12 13  1  0
 13 18  2  0
 14 13  1  0
 14 15  2  0
 15 16  1  0
 16 17  2  0
 18 17  1  0
 19  8  1  0
 19 20  2  0
 21 22  1  0
 22 23  1  0
 23 25  1  0
 23 24  1  6
 25 27  1  0
 25 26  1  1
 26 19  1  0
 27 29  1  0
 28 27  2  0
M  END
$$$$
