SWI.pdb
     RDKit          3D

 29 30  0  0  1  0  0  0  0  0999 V2000
   21.8095  -20.5647  -14.1350 O   0  0  0  0  0  0  0  0  0  0  0  0
   22.4662  -20.0383  -13.0351 C   0  0  0  0  0  0  0  0  0  0  0  0
   23.9695  -20.1864  -13.1927 C   0  0  2  0  0  0  0  0  0  0  0  0
   24.3082  -21.0554  -14.2943 N   0  0  0  0  0  0  0  0  0  0  0  0
   24.5959  -20.7211  -11.9662 C   0  0  0  0  0  0  0  0  0  0  0  0
   24.6886  -21.9808  -11.7713 O   0  0  0  0  0  0  0  0  0  0  0  0
   25.1233  -19.8943  -10.9475 N   0  0  0  0  0  0  0  0  0  0  0  0
   25.7533  -20.4537   -9.7861 C   0  0  1  0  0  0  0  0  0  0  0  0
   26.9691  -19.6386   -9.4329 C   0  0  0  0  0  0  0  0  0  0  0  0
   27.8427  -20.2109   -8.4180 C   0  0  0  0  0  0  0  0  0  0  0  0
   28.5774  -21.4066   -8.4876 C   0  0  0  0  0  0  0  0  0  0  0  0
   29.2854  -21.5645   -7.3710 N   0  0  0  0  0  0  0  0  0  0  0  0
   29.0478  -20.5196   -6.5633 C   0  0  0  0  0  0  0  0  0  0  0  0
   29.5430  -20.2447   -5.3042 C   0  0  0  0  0  0  0  0  0  0  0  0
   29.1743  -19.1170   -4.6164 C   0  0  0  0  0  0  0  0  0  0  0  0
   28.2935  -18.2560   -5.2082 C   0  0  0  0  0  0  0  0  0  0  0  0
   27.7981  -18.5429   -6.4830 C   0  0  0  0  0  0  0  0  0  0  0  0
   28.1564  -19.6718   -7.1948 C   0  0  0  0  0  0  0  0  0  0  0  0
   24.8104  -20.3526   -8.6437 C   0  0  0  0  0  0  0  0  0  0  0  0
   24.0794  -19.3384   -8.5306 O   0  0  0  0  0  0  0  0  0  0  0  0
   20.5307  -22.5574   -8.1081 C   0  0  0  0  0  0  0  0  0  0  0  0
   21.6900  -21.7028   -7.7851 C   0  0  0  0  0  0  0  0  0  0  0  0
   22.5888  -22.0522   -6.6807 C   0  0  2  0  0  0  0  0  0  0  0  0
   21.8302  -22.3137   -5.3749 C   0  0  0  0  0  0  0  0  0  0  0  0
   23.7685  -21.1931   -6.4803 C   0  0  2  0  0  0  0  0  0  0  0  0
   24.6830  -21.3511   -7.6548 N   0  0  0  0  0  0  0  0  0  0  0  0
   24.5978  -21.2899   -5.3166 C   0  0  0  0  0  0  0  0  0  0  0  0
   25.6726  -21.9139   -5.2363 O   0  0  0  0  0  0  0  0  0  0  0  0
   24.2251  -20.6439   -4.1156 O   0  0  0  0  0  0  0  0  0  0  0  0
  1  2  1  0
  2  3  1  0
  3  5  1  0
  3  4  1  6
  5  6  2  0
  7  8  1  0
  7  5  1  0
  8  9  1  1
 10 18  1  0
 10  9  1  0
 11 10  2  0
 12 11  1  0
 12 13  1  0
 13 18  2  0
 14 13  1  0
 14 15  2  0
 15 16  1  0
 16 17  2  0
 18 17  1  0
 19  8  1  0
 19 20  2  0
 21 22  1  0
 22 23  1  0
 23 25  1  0
 23 24  1  1
 25 27  1  0
 25 26  1  6
 26 19  1  0
 27 29  1  0
 28 27  2  0
M  END
$$$$
