SWI.pdb
     RDKit          3D

 29 30  0  0  1  0  0  0  0  0999 V2000
   26.7425  -19.3195  -15.5726 O   0  0  0  0  0  0  0  0  0  0  0  0
   28.0547  -19.5066  -15.1711 C   0  0  0  0  0  0  0  0  0  0  0  0
   28.2516  -20.9150  -14.6381 C   0  0  2  0  0  0  0  0  0  0  0  0
   27.8869  -21.9121  -15.6159 N   0  0  0  0  0  0  0  0  0  0  0  0
   27.4594  -21.1500  -13.4135 C   0  0  0  0  0  0  0  0  0  0  0  0
   26.4046  -21.8711  -13.4415 O   0  0  0  0  0  0  0  0  0  0  0  0
   27.8065  -20.6053  -12.1555 N   0  0  0  0  0  0  0  0  0  0  0  0
   27.0288  -20.8856  -10.9827 C   0  0  1  0  0  0  0  0  0  0  0  0
   27.6888  -20.2612   -9.7819 C   0  0  0  0  0  0  0  0  0  0  0  0
   27.0317  -20.4968   -8.5037 C   0  0  0  0  0  0  0  0  0  0  0  0
   25.8145  -21.1585   -8.2692 C   0  0  0  0  0  0  0  0  0  0  0  0
   25.5720  -21.2023   -6.9606 N   0  0  0  0  0  0  0  0  0  0  0  0
   26.5814  -20.5943   -6.3185 C   0  0  0  0  0  0  0  0  0  0  0  0
   26.7712  -20.3850   -4.9671 C   0  0  0  0  0  0  0  0  0  0  0  0
   27.8745  -19.7253   -4.4892 C   0  0  0  0  0  0  0  0  0  0  0  0
   28.7977  -19.2708   -5.3884 C   0  0  0  0  0  0  0  0  0  0  0  0
   28.5966  -19.4879   -6.7541 C   0  0  0  0  0  0  0  0  0  0  0  0
   27.4939  -20.1508   -7.2580 C   0  0  0  0  0  0  0  0  0  0  0  0
   25.6984  -20.2443  -11.1350 C   0  0  0  0  0  0  0  0  0  0  0  0
   25.6239  -19.0025  -11.3037 O   0  0  0  0  0  0  0  0  0  0  0  0
   23.4849  -20.7301  -15.3385 C   0  0  0  0  0  0  0  0  0  0  0  0
   23.7353  -20.3244  -13.9416 C   0  0  0  0  0  0  0  0  0  0  0  0
   22.8472  -20.7729  -12.8647 C   0  0  2  0  0  0  0  0  0  0  0  0
   21.3685  -20.5501  -13.2004 C   0  0  0  0  0  0  0  0  0  0  0  0
   23.1820  -20.3402  -11.4970 C   0  0  2  0  0  0  0  0  0  0  0  0
   24.4846  -20.9630  -11.1014 N   0  0  0  0  0  0  0  0  0  0  0  0
   22.2946  -20.5415  -10.3910 C   0  0  0  0  0  0  0  0  0  0  0  0
   21.4336  -19.7359   -9.9902 O   0  0  0  0  0  0  0  0  0  0  0  0
   22.3443  -21.7392   -9.6414 O   0  0  0  0  0  0  0  0  0  0  0  0
  1  2  1  0
  2  3  1  0
  3  5  1  0
  3  4  1  6
  5  6  2  0
  7  8  1  0
  7  5  1  0
  8  9  1  1
 10 18  1  0
 10  9  1  0
 11 10  2  0
 12 11  1  0
 12 13  1  0
 13 18  2  0
 14 13  1  0
 14 15  2  0
 15 16  1  0
 16 17  2  0
 18 17  1  0
 19  8  1  0
 19 20  2  0
 21 22  1  0
 22 23  1  0
 23 25  1  0
 23 24  1  6
 25 27  1  0
 25 26  1  1
 26 19  1  0
 27 29  1  0
 28 27  2  0
M  END
$$$$
