SWI.pdb
     RDKit          3D

 29 30  0  0  1  0  0  0  0  0999 V2000
   27.2324  -21.2605  -18.0364 O   0  0  0  0  0  0  0  0  0  0  0  0
   28.1019  -20.5953  -17.1882 C   0  0  0  0  0  0  0  0  0  0  0  0
   28.5144  -21.4960  -16.0370 C   0  0  2  0  0  0  0  0  0  0  0  0
   29.0021  -22.7714  -16.5048 N   0  0  0  0  0  0  0  0  0  0  0  0
   27.3935  -21.7376  -15.1055 C   0  0  0  0  0  0  0  0  0  0  0  0
   26.8314  -22.8833  -15.0369 O   0  0  0  0  0  0  0  0  0  0  0  0
   26.8779  -20.7402  -14.2458 N   0  0  0  0  0  0  0  0  0  0  0  0
   25.9115  -21.0566  -13.2336 C   0  0  1  0  0  0  0  0  0  0  0  0
   25.9081  -19.9740  -12.1870 C   0  0  0  0  0  0  0  0  0  0  0  0
   26.4945  -20.3322  -10.9030 C   0  0  0  0  0  0  0  0  0  0  0  0
   25.8561  -20.4022   -9.6532 C   0  0  0  0  0  0  0  0  0  0  0  0
   26.7244  -20.8040   -8.7272 N   0  0  0  0  0  0  0  0  0  0  0  0
   27.9144  -21.0025   -9.3149 C   0  0  0  0  0  0  0  0  0  0  0  0
   29.1141  -21.4107   -8.7670 C   0  0  0  0  0  0  0  0  0  0  0  0
   30.2440  -21.5500   -9.5317 C   0  0  0  0  0  0  0  0  0  0  0  0
   30.1607  -21.2728  -10.8673 C   0  0  0  0  0  0  0  0  0  0  0  0
   28.9419  -20.8606  -11.4123 C   0  0  0  0  0  0  0  0  0  0  0  0
   27.7909  -20.7147  -10.6618 C   0  0  0  0  0  0  0  0  0  0  0  0
   24.5637  -21.0689  -13.8563 C   0  0  0  0  0  0  0  0  0  0  0  0
   24.2941  -20.2494  -14.7682 O   0  0  0  0  0  0  0  0  0  0  0  0
   22.7382  -25.1989  -16.2178 C   0  0  0  0  0  0  0  0  0  0  0  0
   22.8398  -23.8105  -15.7273 C   0  0  0  0  0  0  0  0  0  0  0  0
   21.9461  -23.3260  -14.6709 C   0  0  2  0  0  0  0  0  0  0  0  0
   20.4685  -23.5449  -15.0143 C   0  0  0  0  0  0  0  0  0  0  0  0
   22.2038  -21.9750  -14.1433 C   0  0  2  0  0  0  0  0  0  0  0  0
   23.5440  -21.9673  -13.4764 N   0  0  0  0  0  0  0  0  0  0  0  0
   21.3068  -21.3223  -13.2374 C   0  0  0  0  0  0  0  0  0  0  0  0
   20.4068  -20.5210  -13.5520 O   0  0  0  0  0  0  0  0  0  0  0  0
   21.3929  -21.5622  -11.8468 O   0  0  0  0  0  0  0  0  0  0  0  0
  1  2  1  0
  2  3  1  0
  3  5  1  0
  3  4  1  6
  5  6  2  0
  7  8  1  0
  7  5  1  0
  8  9  1  1
 10 18  1  0
 10  9  1  0
 11 10  2  0
 12 11  1  0
 12 13  1  0
 13 18  2  0
 14 13  1  0
 14 15  2  0
 15 16  1  0
 16 17  2  0
 18 17  1  0
 19  8  1  0
 19 20  2  0
 21 22  1  0
 22 23  1  0
 23 25  1  0
 23 24  1  6
 25 27  1  0
 25 26  1  1
 26 19  1  0
 27 29  1  0
 28 27  2  0
M  END
$$$$
