SWI.pdb
     RDKit          3D

 29 30  0  0  1  0  0  0  0  0999 V2000
   26.7206  -19.1942  -15.1863 O   0  0  0  0  0  0  0  0  0  0  0  0
   28.0062  -19.4212  -14.7242 C   0  0  0  0  0  0  0  0  0  0  0  0
   28.1385  -20.8391  -14.1962 C   0  0  2  0  0  0  0  0  0  0  0  0
   27.7526  -21.8160  -15.1862 N   0  0  0  0  0  0  0  0  0  0  0  0
   27.3159  -21.0493  -12.9872 C   0  0  0  0  0  0  0  0  0  0  0  0
   26.3042  -21.8299  -13.0083 O   0  0  0  0  0  0  0  0  0  0  0  0
   27.5858  -20.4152  -11.7523 N   0  0  0  0  0  0  0  0  0  0  0  0
   26.8026  -20.6974  -10.5837 C   0  0  1  0  0  0  0  0  0  0  0  0
   27.3870  -19.9719   -9.4007 C   0  0  0  0  0  0  0  0  0  0  0  0
   26.8138  -20.3081   -8.1048 C   0  0  0  0  0  0  0  0  0  0  0  0
   25.6528  -21.0551   -7.8434 C   0  0  0  0  0  0  0  0  0  0  0  0
   25.4828  -21.1755   -6.5282 N   0  0  0  0  0  0  0  0  0  0  0  0
   26.4863  -20.5362   -5.9075 C   0  0  0  0  0  0  0  0  0  0  0  0
   26.7342  -20.3790   -4.5585 C   0  0  0  0  0  0  0  0  0  0  0  0
   27.8194  -19.6745   -4.1037 C   0  0  0  0  0  0  0  0  0  0  0  0
   28.6648  -19.1213   -5.0238 C   0  0  0  0  0  0  0  0  0  0  0  0
   28.4053  -19.2861   -6.3869 C   0  0  0  0  0  0  0  0  0  0  0  0
   27.3195  -19.9926   -6.8679 C   0  0  0  0  0  0  0  0  0  0  0  0
   25.4334  -20.1629  -10.7935 C   0  0  0  0  0  0  0  0  0  0  0  0
   25.2779  -18.9505  -11.0795 O   0  0  0  0  0  0  0  0  0  0  0  0
   23.3260  -21.0075  -14.9332 C   0  0  0  0  0  0  0  0  0  0  0  0
   23.5064  -20.4985  -13.5596 C   0  0  0  0  0  0  0  0  0  0  0  0
   22.6424  -20.9670  -12.4717 C   0  0  2  0  0  0  0  0  0  0  0  0
   21.1550  -20.8722  -12.8293 C   0  0  0  0  0  0  0  0  0  0  0  0
   22.9272  -20.4518  -11.1213 C   0  0  2  0  0  0  0  0  0  0  0  0
   24.2696  -20.9538  -10.6889 N   0  0  0  0  0  0  0  0  0  0  0  0
   22.0457  -20.6745  -10.0147 C   0  0  0  0  0  0  0  0  0  0  0  0
   21.1258  -19.9181   -9.6507 O   0  0  0  0  0  0  0  0  0  0  0  0
   22.1731  -21.8368   -9.2200 O   0  0  0  0  0  0  0  0  0  0  0  0
  1  2  1  0
  2  3  1  0
  3  5  1  0
  3  4  1  6
  5  6  2  0
  7  8  1  0
  7  5  1  0
  8  9  1  1
 10 18  1  0
 10  9  1  0
 11 10  2  0
 12 11  1  0
 12 13  1  0
 13 18  2  0
 14 13  1  0
 14 15  2  0
 15 16  1  0
 16 17  2  0
 18 17  1  0
 19  8  1  0
 19 20  2  0
 21 22  1  0
 22 23  1  0
 23 25  1  0
 23 24  1  6
 25 27  1  0
 25 26  1  1
 26 19  1  0
 27 29  1  0
 28 27  2  0
M  END
$$$$
