SWI.pdb
     RDKit          3D

 29 30  0  0  1  0  0  0  0  0999 V2000
   28.2782  -19.3260  -14.3205 O   0  0  0  0  0  0  0  0  0  0  0  0
   28.9817  -18.9631  -13.1841 C   0  0  0  0  0  0  0  0  0  0  0  0
   29.2529  -20.1794  -12.3160 C   0  0  2  0  0  0  0  0  0  0  0  0
   29.9339  -21.2188  -13.0504 N   0  0  0  0  0  0  0  0  0  0  0  0
   28.0049  -20.7413  -11.7600 C   0  0  0  0  0  0  0  0  0  0  0  0
   27.5853  -21.8935  -12.1202 O   0  0  0  0  0  0  0  0  0  0  0  0
   27.2076  -20.0579  -10.8129 N   0  0  0  0  0  0  0  0  0  0  0  0
   26.0007  -20.6387  -10.2982 C   0  0  1  0  0  0  0  0  0  0  0  0
   25.5925  -19.9166   -9.0415 C   0  0  0  0  0  0  0  0  0  0  0  0
   26.6696  -19.6030   -8.1127 C   0  0  0  0  0  0  0  0  0  0  0  0
   27.4677  -18.4472   -8.0767 C   0  0  0  0  0  0  0  0  0  0  0  0
   28.3175  -18.5198   -7.0541 N   0  0  0  0  0  0  0  0  0  0  0  0
   28.1139  -19.6800   -6.4111 C   0  0  0  0  0  0  0  0  0  0  0  0
   28.7528  -20.2011   -5.3037 C   0  0  0  0  0  0  0  0  0  0  0  0
   28.4119  -21.4243   -4.7857 C   0  0  0  0  0  0  0  0  0  0  0  0
   27.4127  -22.1303   -5.3946 C   0  0  0  0  0  0  0  0  0  0  0  0
   26.7720  -21.5941   -6.5147 C   0  0  0  0  0  0  0  0  0  0  0  0
   27.0977  -20.3638   -7.0529 C   0  0  0  0  0  0  0  0  0  0  0  0
   24.9178  -20.4342  -11.2931 C   0  0  0  0  0  0  0  0  0  0  0  0
   24.9708  -19.4535  -12.0750 O   0  0  0  0  0  0  0  0  0  0  0  0
   21.9081  -23.3015  -15.5418 C   0  0  0  0  0  0  0  0  0  0  0  0
   21.9034  -22.2088  -14.5495 C   0  0  0  0  0  0  0  0  0  0  0  0
   22.8875  -22.1846  -13.4629 C   0  0  2  0  0  0  0  0  0  0  0  0
   23.0606  -23.5581  -12.8052 C   0  0  0  0  0  0  0  0  0  0  0  0
   22.7645  -21.1012  -12.4724 C   0  0  2  0  0  0  0  0  0  0  0  0
   23.8070  -21.2957  -11.4159 N   0  0  0  0  0  0  0  0  0  0  0  0
   21.5411  -20.8339  -11.7773 C   0  0  0  0  0  0  0  0  0  0  0  0
   21.3305  -21.0359  -10.5666 O   0  0  0  0  0  0  0  0  0  0  0  0
   20.4308  -20.2915  -12.4641 O   0  0  0  0  0  0  0  0  0  0  0  0
  1  2  1  0
  2  3  1  0
  3  5  1  0
  3  4  1  6
  5  6  2  0
  7  8  1  0
  7  5  1  0
  8  9  1  1
 10 18  1  0
 10  9  1  0
 11 10  2  0
 12 11  1  0
 12 13  1  0
 13 18  2  0
 14 13  1  0
 14 15  2  0
 15 16  1  0
 16 17  2  0
 18 17  1  0
 19  8  1  0
 19 20  2  0
 21 22  1  0
 22 23  1  0
 23 25  1  0
 23 24  1  1
 25 27  1  0
 25 26  1  1
 26 19  1  0
 27 29  1  0
 28 27  2  0
M  END
$$$$
