SWI.pdb
     RDKit          3D

 29 30  0  0  1  0  0  0  0  0999 V2000
   26.6541  -19.5370  -15.3708 O   0  0  0  0  0  0  0  0  0  0  0  0
   27.8361  -19.2859  -14.6941 C   0  0  0  0  0  0  0  0  0  0  0  0
   28.3260  -20.5427  -13.9961 C   0  0  2  0  0  0  0  0  0  0  0  0
   28.3294  -21.6804  -14.8844 N   0  0  0  0  0  0  0  0  0  0  0  0
   27.4955  -20.8713  -12.8193 C   0  0  0  0  0  0  0  0  0  0  0  0
   26.7678  -21.9218  -12.8013 O   0  0  0  0  0  0  0  0  0  0  0  0
   27.4502  -20.0641  -11.6591 N   0  0  0  0  0  0  0  0  0  0  0  0
   26.5732  -20.3778  -10.5677 C   0  0  1  0  0  0  0  0  0  0  0  0
   26.9554  -19.5566   -9.3648 C   0  0  0  0  0  0  0  0  0  0  0  0
   27.6756  -20.2658   -8.3164 C   0  0  0  0  0  0  0  0  0  0  0  0
   28.3553  -21.4916   -8.4151 C   0  0  0  0  0  0  0  0  0  0  0  0
   28.9193  -21.7878   -7.2457 N   0  0  0  0  0  0  0  0  0  0  0  0
   28.6389  -20.8058   -6.3753 C   0  0  0  0  0  0  0  0  0  0  0  0
   28.9957  -20.6718   -5.0483 C   0  0  0  0  0  0  0  0  0  0  0  0
   28.6033  -19.5892   -4.3035 C   0  0  0  0  0  0  0  0  0  0  0  0
   27.8402  -18.6297   -4.9071 C   0  0  0  0  0  0  0  0  0  0  0  0
   27.4845  -18.7743   -6.2507 C   0  0  0  0  0  0  0  0  0  0  0  0
   27.8693  -19.8553   -7.0206 C   0  0  0  0  0  0  0  0  0  0  0  0
   25.1918  -19.9858  -10.9455 C   0  0  0  0  0  0  0  0  0  0  0  0
   24.9531  -18.7996  -11.2800 O   0  0  0  0  0  0  0  0  0  0  0  0
   21.4805  -21.0125  -15.1625 C   0  0  0  0  0  0  0  0  0  0  0  0
   21.5609  -20.6517  -13.7335 C   0  0  0  0  0  0  0  0  0  0  0  0
   22.7461  -20.9978  -12.9430 C   0  0  2  0  0  0  0  0  0  0  0  0
   23.1154  -22.4800  -13.0681 C   0  0  0  0  0  0  0  0  0  0  0  0
   22.7802  -20.5285  -11.5471 C   0  0  2  0  0  0  0  0  0  0  0  0
   24.1061  -20.8871  -10.9519 N   0  0  0  0  0  0  0  0  0  0  0  0
   21.7949  -20.9184  -10.5835 C   0  0  0  0  0  0  0  0  0  0  0  0
   20.5751  -20.6756  -10.6477 O   0  0  0  0  0  0  0  0  0  0  0  0
   22.1690  -21.6470   -9.4311 O   0  0  0  0  0  0  0  0  0  0  0  0
  1  2  1  0
  2  3  1  0
  3  5  1  0
  3  4  1  6
  5  6  2  0
  7  8  1  0
  7  5  1  0
  8  9  1  1
 10 18  1  0
 10  9  1  0
 11 10  2  0
 12 11  1  0
 12 13  1  0
 13 18  2  0
 14 13  1  0
 14 15  2  0
 15 16  1  0
 16 17  2  0
 18 17  1  0
 19  8  1  0
 19 20  2  0
 21 22  1  0
 22 23  1  0
 23 25  1  0
 23 24  1  1
 25 27  1  0
 25 26  1  1
 26 19  1  0
 27 29  1  0
 28 27  2  0
M  END
$$$$
