SWI.pdb
     RDKit          3D

 29 30  0  0  1  0  0  0  0  0999 V2000
   30.3249  -23.6491  -16.2879 O   0  0  0  0  0  0  0  0  0  0  0  0
   29.7013  -22.5496  -15.7218 C   0  0  0  0  0  0  0  0  0  0  0  0
   28.4108  -22.2335  -16.4576 C   0  0  2  0  0  0  0  0  0  0  0  0
   28.6515  -21.4522  -17.6470 N   0  0  0  0  0  0  0  0  0  0  0  0
   27.4605  -21.4969  -15.5991 C   0  0  0  0  0  0  0  0  0  0  0  0
   27.5473  -20.2294  -15.4598 O   0  0  0  0  0  0  0  0  0  0  0  0
   26.4140  -22.1298  -14.8892 N   0  0  0  0  0  0  0  0  0  0  0  0
   25.4652  -21.3696  -14.1273 C   0  0  1  0  0  0  0  0  0  0  0  0
   24.0684  -21.7741  -14.5180 C   0  0  0  0  0  0  0  0  0  0  0  0
   23.0323  -20.7766  -14.2888 C   0  0  0  0  0  0  0  0  0  0  0  0
   23.1333  -19.5813  -13.5571 C   0  0  0  0  0  0  0  0  0  0  0  0
   21.9779  -18.9217  -13.6128 N   0  0  0  0  0  0  0  0  0  0  0  0
   21.1144  -19.6343  -14.3528 C   0  0  0  0  0  0  0  0  0  0  0  0
   19.8017  -19.3645  -14.6843 C   0  0  0  0  0  0  0  0  0  0  0  0
   19.0618  -20.2266  -15.4525 C   0  0  0  0  0  0  0  0  0  0  0  0
   19.6559  -21.3764  -15.8910 C   0  0  0  0  0  0  0  0  0  0  0  0
   20.9851  -21.6404  -15.5502 C   0  0  0  0  0  0  0  0  0  0  0  0
   21.7498  -20.7861  -14.7790 C   0  0  0  0  0  0  0  0  0  0  0  0
   25.6344  -21.7079  -12.6915 C   0  0  0  0  0  0  0  0  0  0  0  0
   25.7709  -22.9078  -12.3488 O   0  0  0  0  0  0  0  0  0  0  0  0
   29.4936  -20.5758   -9.6497 C   0  0  0  0  0  0  0  0  0  0  0  0
   28.2067  -21.1139  -10.1321 C   0  0  0  0  0  0  0  0  0  0  0  0
   26.9387  -20.5759   -9.6297 C   0  0  2  0  0  0  0  0  0  0  0  0
   26.8887  -20.5407   -8.0982 C   0  0  0  0  0  0  0  0  0  0  0  0
   25.7016  -21.1180  -10.2177 C   0  0  2  0  0  0  0  0  0  0  0  0
   25.6518  -20.7397  -11.6652 N   0  0  0  0  0  0  0  0  0  0  0  0
   24.4058  -20.8199   -9.6855 C   0  0  0  0  0  0  0  0  0  0  0  0
   23.6696  -19.8802  -10.0405 O   0  0  0  0  0  0  0  0  0  0  0  0
   23.8493  -21.6223   -8.6632 O   0  0  0  0  0  0  0  0  0  0  0  0
  1  2  1  0
  2  3  1  0
  3  5  1  0
  3  4  1  6
  5  6  2  0
  7  8  1  0
  7  5  1  0
  8  9  1  6
 10 18  1  0
 10  9  1  0
 11 10  2  0
 12 11  1  0
 12 13  1  0
 13 18  2  0
 14 13  1  0
 14 15  2  0
 15 16  1  0
 16 17  2  0
 18 17  1  0
 19  8  1  0
 19 20  2  0
 21 22  1  0
 22 23  1  0
 23 25  1  0
 23 24  1  1
 25 27  1  0
 25 26  1  6
 26 19  1  0
 27 29  1  0
 28 27  2  0
M  END
$$$$
