SQT.pdb
     RDKit          3D

 23 22  0  0  1  0  0  0  0  0999 V2000
   -3.0789  -21.8522   19.0396 O   0  0  0  0  0  0  0  0  0  0  0  0
   -1.8882  -22.5664   18.9313 C   0  0  0  0  0  0  0  0  0  0  0  0
   -0.7529  -21.6591   19.3493 C   0  0  2  0  0  0  0  0  0  0  0  0
    0.0194  -21.1889   18.2404 N   0  0  0  0  0  0  0  0  0  0  0  0
    0.1364  -22.3595   20.3072 C   0  0  0  0  0  0  0  0  0  0  0  0
    0.5272  -23.5188   20.0493 O   0  0  0  0  0  0  0  0  0  0  0  0
    6.1064  -22.9605   23.5990 N   0  0  0  0  0  0  0  0  0  0  0  0
    5.0287  -22.2547   23.0222 C   0  0  0  0  0  0  0  0  0  0  0  0
    5.2166  -21.5013   22.0527 O   0  0  0  0  0  0  0  0  0  0  0  0
    3.6776  -22.4198   23.5810 C   0  0  0  0  0  0  0  0  0  0  0  0
    2.7132  -21.6821   22.7254 C   0  0  0  0  0  0  0  0  0  0  0  0
    1.4579  -22.4505   22.4017 C   0  0  2  0  0  0  0  0  0  0  0  0
    0.5702  -21.7535   21.5300 N   0  0  0  0  0  0  0  0  0  0  0  0
    0.7986  -22.8749   23.6728 C   0  0  0  0  0  0  0  0  0  0  0  0
    1.3894  -23.4887   24.5855 O   0  0  0  0  0  0  0  0  0  0  0  0
   -1.2631  -20.7409   26.0209 C   0  0  0  0  0  0  0  0  0  0  0  0
   -2.1566  -21.8100   25.4706 C   0  0  1  0  0  0  0  0  0  0  0  0
   -2.9039  -21.2987   24.3917 O   0  0  0  0  0  0  0  0  0  0  0  0
   -1.3405  -23.0152   24.9968 C   0  0  2  0  0  0  0  0  0  0  0  0
   -0.5765  -22.5642   23.8555 N   0  0  0  0  0  0  0  0  0  0  0  0
   -2.3057  -24.0370   24.5173 C   0  0  0  0  0  0  0  0  0  0  0  0
   -2.3593  -24.3835   23.3097 O   0  0  0  0  0  0  0  0  0  0  0  0
   -3.2092  -24.6729   25.3762 O   0  0  0  0  0  0  0  0  0  0  0  0
  1  2  1  0
  2  3  1  0
  3  5  1  0
  3  4  1  6
  5  6  2  0
  7  8  1  0
  8  9  2  0
  8 10  1  0
 10 11  1  0
 12 11  1  1
 12 14  1  0
 13  5  1  0
 13 12  1  0
 14 20  1  0
 15 14  2  0
 17 18  1  0
 17 16  1  6
 19 17  1  0
 19 20  1  6
 21 23  1  0
 21 19  1  0
 22 21  2  0
M  END
$$$$
