SQT.pdb
     RDKit          3D

 23 22  0  0  1  0  0  0  0  0999 V2000
    7.6794  -16.1963   19.6650 O   0  0  0  0  0  0  0  0  0  0  0  0
    6.7119  -15.1988   19.7564 C   0  0  0  0  0  0  0  0  0  0  0  0
    7.3940  -13.9152   20.1733 C   0  0  2  0  0  0  0  0  0  0  0  0
    8.4402  -13.5261   19.2781 N   0  0  0  0  0  0  0  0  0  0  0  0
    7.9433  -14.0490   21.5442 C   0  0  0  0  0  0  0  0  0  0  0  0
    9.1293  -14.4133   21.6990 O   0  0  0  0  0  0  0  0  0  0  0  0
    5.8751  -11.6155   26.8008 N   0  0  0  0  0  0  0  0  0  0  0  0
    6.8463  -12.4859   27.3404 C   0  0  0  0  0  0  0  0  0  0  0  0
    7.1537  -12.4189   28.5420 O   0  0  0  0  0  0  0  0  0  0  0  0
    7.4932  -13.4758   26.4646 C   0  0  0  0  0  0  0  0  0  0  0  0
    6.8650  -13.4073   25.1204 C   0  0  0  0  0  0  0  0  0  0  0  0
    7.7127  -13.9734   24.0105 C   0  0  2  0  0  0  0  0  0  0  0  0
    7.1600  -13.7743   22.7111 N   0  0  0  0  0  0  0  0  0  0  0  0
    8.0035  -15.4102   24.2966 C   0  0  0  0  0  0  0  0  0  0  0  0
    7.1385  -16.3098   24.2619 O   0  0  0  0  0  0  0  0  0  0  0  0
   10.4481  -17.5733   22.6320 C   0  0  0  0  0  0  0  0  0  0  0  0
   10.8910  -17.4900   24.0606 C   0  0  1  0  0  0  0  0  0  0  0  0
   11.9050  -16.5210   24.1902 O   0  0  0  0  0  0  0  0  0  0  0  0
    9.7200  -17.1247   24.9763 C   0  0  2  0  0  0  0  0  0  0  0  0
    9.3372  -15.7754   24.6264 N   0  0  0  0  0  0  0  0  0  0  0  0
   10.2422  -17.0985   26.3664 C   0  0  0  0  0  0  0  0  0  0  0  0
   10.3993  -16.0212   26.9955 O   0  0  0  0  0  0  0  0  0  0  0  0
   10.5892  -18.2654   27.0566 O   0  0  0  0  0  0  0  0  0  0  0  0
  1  2  1  0
  2  3  1  0
  3  5  1  0
  3  4  1  6
  5  6  2  0
  7  8  1  0
  8  9  2  0
  8 10  1  0
 10 11  1  0
 12 11  1  1
 12 14  1  0
 13  5  1  0
 13 12  1  0
 14 20  1  0
 15 14  2  0
 17 18  1  0
 17 16  1  6
 19 17  1  0
 19 20  1  6
 21 23  1  0
 21 19  1  0
 22 21  2  0
M  END
$$$$
