SQT.pdb
     RDKit          3D

 23 22  0  0  1  0  0  0  0  0999 V2000
    5.2832  -17.5106   24.6030 O   0  0  0  0  0  0  0  0  0  0  0  0
    5.2704  -18.4998   23.6227 C   0  0  0  0  0  0  0  0  0  0  0  0
    5.9037  -17.9337   22.3716 C   0  0  2  0  0  0  0  0  0  0  0  0
    5.7671  -18.7985   21.2399 N   0  0  0  0  0  0  0  0  0  0  0  0
    7.3407  -17.6534   22.6067 C   0  0  0  0  0  0  0  0  0  0  0  0
    8.1038  -18.5872   22.9367 O   0  0  0  0  0  0  0  0  0  0  0  0
   12.9983  -16.8679   22.1213 N   0  0  0  0  0  0  0  0  0  0  0  0
   12.1569  -16.0833   21.3036 C   0  0  0  0  0  0  0  0  0  0  0  0
   12.0689  -16.3137   20.0863 O   0  0  0  0  0  0  0  0  0  0  0  0
   11.3830  -14.9872   21.9078 C   0  0  0  0  0  0  0  0  0  0  0  0
    9.9378  -15.2361   21.6719 C   0  0  0  0  0  0  0  0  0  0  0  0
    9.2845  -16.1191   22.7036 C   0  0  2  0  0  0  0  0  0  0  0  0
    7.8953  -16.3403   22.4691 N   0  0  0  0  0  0  0  0  0  0  0  0
    9.5562  -15.5696   24.0655 C   0  0  0  0  0  0  0  0  0  0  0  0
   10.6994  -15.2868   24.4805 O   0  0  0  0  0  0  0  0  0  0  0  0
    7.5052  -12.6466   25.6598 C   0  0  0  0  0  0  0  0  0  0  0  0
    7.3917  -13.8906   26.4866 C   0  0  1  0  0  0  0  0  0  0  0  0
    6.2130  -14.5833   26.1472 O   0  0  0  0  0  0  0  0  0  0  0  0
    8.5990  -14.8057   26.2674 C   0  0  2  0  0  0  0  0  0  0  0  0
    8.4548  -15.3560   24.9386 N   0  0  0  0  0  0  0  0  0  0  0  0
    8.4807  -15.9267   27.2344 C   0  0  0  0  0  0  0  0  0  0  0  0
    8.2000  -17.0951   26.8639 O   0  0  0  0  0  0  0  0  0  0  0  0
    8.6734  -15.7513   28.6093 O   0  0  0  0  0  0  0  0  0  0  0  0
  1  2  1  0
  2  3  1  0
  3  5  1  0
  3  4  1  6
  5  6  2  0
  7  8  1  0
  8  9  2  0
  8 10  1  0
 10 11  1  0
 12 11  1  6
 12 14  1  0
 13  5  1  0
 13 12  1  0
 14 20  1  0
 15 14  2  0
 17 18  1  0
 17 16  1  6
 19 17  1  0
 19 20  1  6
 21 23  1  0
 21 19  1  0
 22 21  2  0
M  END
$$$$
