SQT.pdb
     RDKit          3D

 23 22  0  0  1  0  0  0  0  0999 V2000
    8.6122  -12.5444   18.3934 O   0  0  0  0  0  0  0  0  0  0  0  0
    8.2611  -12.8745   19.7001 C   0  0  0  0  0  0  0  0  0  0  0  0
    8.0591  -14.3714   19.7716 C   0  0  2  0  0  0  0  0  0  0  0  0
    6.8945  -14.8090   19.0649 N   0  0  0  0  0  0  0  0  0  0  0  0
    7.9707  -14.8093   21.1856 C   0  0  0  0  0  0  0  0  0  0  0  0
    6.8556  -14.8455   21.7500 O   0  0  0  0  0  0  0  0  0  0  0  0
   11.5594  -18.8613   24.0555 N   0  0  0  0  0  0  0  0  0  0  0  0
   10.7244  -18.4907   25.1314 C   0  0  0  0  0  0  0  0  0  0  0  0
   10.8166  -19.0675   26.2276 O   0  0  0  0  0  0  0  0  0  0  0  0
    9.7411  -17.4124   24.9423 C   0  0  0  0  0  0  0  0  0  0  0  0
    9.8993  -16.8560   23.5743 C   0  0  0  0  0  0  0  0  0  0  0  0
    8.9819  -15.7012   23.2650 C   0  0  2  0  0  0  0  0  0  0  0  0
    9.1253  -15.1968   21.9388 N   0  0  0  0  0  0  0  0  0  0  0  0
    9.1556  -14.6421   24.3037 C   0  0  0  0  0  0  0  0  0  0  0  0
   10.1824  -13.9395   24.4083 O   0  0  0  0  0  0  0  0  0  0  0  0
    6.7373  -11.7211   25.3992 C   0  0  0  0  0  0  0  0  0  0  0  0
    6.8519  -12.7924   26.4400 C   0  0  1  0  0  0  0  0  0  0  0  0
    5.8125  -13.7291   26.2772 O   0  0  0  0  0  0  0  0  0  0  0  0
    8.2009  -13.5092   26.3416 C   0  0  2  0  0  0  0  0  0  0  0  0
    8.0954  -14.4204   25.2244 N   0  0  0  0  0  0  0  0  0  0  0  0
    8.3555  -14.3236   27.5739 C   0  0  0  0  0  0  0  0  0  0  0  0
    8.3327  -15.5805   27.5452 O   0  0  0  0  0  0  0  0  0  0  0  0
    8.5349  -13.7442   28.8350 O   0  0  0  0  0  0  0  0  0  0  0  0
  1  2  1  0
  2  3  1  0
  3  5  1  0
  3  4  1  6
  5  6  2  0
  7  8  1  0
  8  9  2  0
  8 10  1  0
 10 11  1  0
 12 11  1  1
 12 14  1  0
 13  5  1  0
 13 12  1  0
 14 20  1  0
 15 14  2  0
 17 18  1  0
 17 16  1  6
 19 17  1  0
 19 20  1  6
 21 23  1  0
 21 19  1  0
 22 21  2  0
M  END
$$$$
