SQT.pdb
     RDKit          3D

 23 22  0  0  1  0  0  0  0  0999 V2000
    6.8175  -15.5553   16.0255 O   0  0  0  0  0  0  0  0  0  0  0  0
    7.9212  -15.3250   16.8431 C   0  0  0  0  0  0  0  0  0  0  0  0
    7.7143  -14.0080   17.5569 C   0  0  2  0  0  0  0  0  0  0  0  0
    8.1989  -12.8887   16.8088 N   0  0  0  0  0  0  0  0  0  0  0  0
    8.3740  -14.0359   18.8846 C   0  0  0  0  0  0  0  0  0  0  0  0
    9.6123  -13.8802   18.9598 O   0  0  0  0  0  0  0  0  0  0  0  0
    6.1520  -12.9327   24.5559 N   0  0  0  0  0  0  0  0  0  0  0  0
    7.4347  -13.4252   24.8790 C   0  0  0  0  0  0  0  0  0  0  0  0
    7.8653  -13.3452   26.0413 O   0  0  0  0  0  0  0  0  0  0  0  0
    8.2591  -14.0357   23.8241 C   0  0  0  0  0  0  0  0  0  0  0  0
    7.5339  -13.9339   22.5319 C   0  0  0  0  0  0  0  0  0  0  0  0
    8.3296  -14.3916   21.3368 C   0  0  2  0  0  0  0  0  0  0  0  0
    7.6404  -14.2363   20.0980 N   0  0  0  0  0  0  0  0  0  0  0  0
    8.7958  -15.7924   21.5626 C   0  0  0  0  0  0  0  0  0  0  0  0
    8.1167  -16.8005   21.2773 O   0  0  0  0  0  0  0  0  0  0  0  0
   12.8422  -16.1340   22.2301 C   0  0  0  0  0  0  0  0  0  0  0  0
   12.0352  -17.2985   21.7436 C   0  0  1  0  0  0  0  0  0  0  0  0
   12.6949  -18.5020   22.0607 O   0  0  0  0  0  0  0  0  0  0  0  0
   10.6416  -17.3016   22.3770 C   0  0  2  0  0  0  0  0  0  0  0  0
   10.0826  -15.9910   22.1332 N   0  0  0  0  0  0  0  0  0  0  0  0
   10.8269  -17.4466   23.8434 C   0  0  0  0  0  0  0  0  0  0  0  0
   10.6429  -16.4855   24.6332 O   0  0  0  0  0  0  0  0  0  0  0  0
   11.2154  -18.6554   24.4318 O   0  0  0  0  0  0  0  0  0  0  0  0
  1  2  1  0
  2  3  1  0
  3  5  1  0
  3  4  1  6
  5  6  2  0
  7  8  1  0
  8  9  2  0
  8 10  1  0
 10 11  1  0
 12 11  1  1
 12 14  1  0
 13  5  1  0
 13 12  1  0
 14 20  1  0
 15 14  2  0
 17 18  1  0
 17 16  1  1
 19 17  1  0
 19 20  1  1
 21 23  1  0
 21 19  1  0
 22 21  2  0
M  END
$$$$
