SQT.pdb
     RDKit          3D

 23 22  0  0  1  0  0  0  0  0999 V2000
   11.8314  -17.7268   21.6721 O   0  0  0  0  0  0  0  0  0  0  0  0
   10.7478  -17.0826   22.2641 C   0  0  0  0  0  0  0  0  0  0  0  0
    9.9817  -18.0991   23.0806 C   0  0  2  0  0  0  0  0  0  0  0  0
    9.1359  -18.9305   22.2803 N   0  0  0  0  0  0  0  0  0  0  0  0
    9.1662  -17.4164   24.1139 C   0  0  0  0  0  0  0  0  0  0  0  0
    7.9937  -17.0749   23.8459 O   0  0  0  0  0  0  0  0  0  0  0  0
   10.9340  -15.3113   30.3514 N   0  0  0  0  0  0  0  0  0  0  0  0
   11.0579  -16.3838   29.4423 C   0  0  0  0  0  0  0  0  0  0  0  0
   11.4011  -17.5094   29.8396 O   0  0  0  0  0  0  0  0  0  0  0  0
   10.7761  -16.1559   28.0162 C   0  0  0  0  0  0  0  0  0  0  0  0
    9.3440  -16.4540   27.7584 C   0  0  0  0  0  0  0  0  0  0  0  0
    8.9298  -16.3065   26.3170 C   0  0  2  0  0  0  0  0  0  0  0  0
    9.6744  -17.1296   25.4216 N   0  0  0  0  0  0  0  0  0  0  0  0
    8.9709  -14.8625   25.9380 C   0  0  0  0  0  0  0  0  0  0  0  0
    9.9981  -14.2865   25.5232 O   0  0  0  0  0  0  0  0  0  0  0  0
    5.8533  -13.3961   24.0830 C   0  0  0  0  0  0  0  0  0  0  0  0
    7.1945  -12.7374   24.1901 C   0  0  1  0  0  0  0  0  0  0  0  0
    7.1175  -11.4168   23.7062 O   0  0  0  0  0  0  0  0  0  0  0  0
    7.6809  -12.7186   25.6414 C   0  0  2  0  0  0  0  0  0  0  0  0
    7.7765  -14.1005   26.0549 N   0  0  0  0  0  0  0  0  0  0  0  0
    6.6145  -12.0785   26.4529 C   0  0  0  0  0  0  0  0  0  0  0  0
    6.3767  -10.8458   26.3815 O   0  0  0  0  0  0  0  0  0  0  0  0
    5.8138  -12.8048   27.3415 O   0  0  0  0  0  0  0  0  0  0  0  0
  1  2  1  0
  2  3  1  0
  3  5  1  0
  3  4  1  6
  5  6  2  0
  7  8  1  0
  8  9  2  0
  8 10  1  0
 10 11  1  0
 12 11  1  1
 12 14  1  0
 13  5  1  0
 13 12  1  0
 14 20  1  0
 15 14  2  0
 17 18  1  0
 17 16  1  1
 19 17  1  0
 19 20  1  1
 21 23  1  0
 21 19  1  0
 22 21  2  0
M  END
$$$$
