SQT.pdb
     RDKit          3D

 23 22  0  0  1  0  0  0  0  0999 V2000
    2.9684  -24.0833   23.4804 O   0  0  0  0  0  0  0  0  0  0  0  0
    3.2784  -22.7953   23.0507 C   0  0  0  0  0  0  0  0  0  0  0  0
    4.7826  -22.6811   22.9458 C   0  0  2  0  0  0  0  0  0  0  0  0
    5.4010  -23.8888   22.4916 N   0  0  0  0  0  0  0  0  0  0  0  0
    5.3596  -22.2950   24.2561 C   0  0  0  0  0  0  0  0  0  0  0  0
    5.0619  -21.1891   24.7577 O   0  0  0  0  0  0  0  0  0  0  0  0
    7.5095  -25.8917   28.8130 N   0  0  0  0  0  0  0  0  0  0  0  0
    7.8045  -24.6164   29.3410 C   0  0  0  0  0  0  0  0  0  0  0  0
    8.2633  -24.5014   30.4895 O   0  0  0  0  0  0  0  0  0  0  0  0
    7.5629  -23.4216   28.5169 C   0  0  0  0  0  0  0  0  0  0  0  0
    7.0066  -23.8487   27.2075 C   0  0  0  0  0  0  0  0  0  0  0  0
    6.8027  -22.7249   26.2245 C   0  0  2  0  0  0  0  0  0  0  0  0
    6.2544  -23.1486   24.9780 N   0  0  0  0  0  0  0  0  0  0  0  0
    8.0832  -21.9736   26.0626 C   0  0  0  0  0  0  0  0  0  0  0  0
    9.0331  -22.3722   25.3570 O   0  0  0  0  0  0  0  0  0  0  0  0
    8.4160  -18.5448   24.7267 C   0  0  0  0  0  0  0  0  0  0  0  0
    8.8590  -18.5165   26.1575 C   0  0  1  0  0  0  0  0  0  0  0  0
    7.7796  -18.1479   26.9840 O   0  0  0  0  0  0  0  0  0  0  0  0
    9.3882  -19.8849   26.5939 C   0  0  2  0  0  0  0  0  0  0  0  0
    8.2307  -20.7370   26.7480 N   0  0  0  0  0  0  0  0  0  0  0  0
   10.0008  -19.7104   27.9355 C   0  0  0  0  0  0  0  0  0  0  0  0
    9.4824  -20.2023   28.9702 O   0  0  0  0  0  0  0  0  0  0  0  0
   11.1859  -18.9916   28.1283 O   0  0  0  0  0  0  0  0  0  0  0  0
  1  2  1  0
  2  3  1  0
  3  5  1  0
  3  4  1  1
  5  6  2  0
  7  8  1  0
  8  9  2  0
  8 10  1  0
 10 11  1  0
 12 11  1  1
 12 14  1  0
 13  5  1  0
 13 12  1  0
 14 20  1  0
 15 14  2  0
 17 18  1  0
 17 16  1  6
 19 17  1  0
 19 20  1  1
 21 23  1  0
 21 19  1  0
 22 21  2  0
M  END
$$$$
