SQT.pdb
     RDKit          3D

 23 22  0  0  1  0  0  0  0  0999 V2000
    8.5779  -12.2312   18.5335 O   0  0  0  0  0  0  0  0  0  0  0  0
    8.1594  -12.6764   19.7850 C   0  0  0  0  0  0  0  0  0  0  0  0
    8.1169  -14.1878   19.7593 C   0  0  2  0  0  0  0  0  0  0  0  0
    7.0381  -14.6997   18.9710 N   0  0  0  0  0  0  0  0  0  0  0  0
    8.0147  -14.7209   21.1392 C   0  0  0  0  0  0  0  0  0  0  0  0
    6.8869  -14.9468   21.6296 O   0  0  0  0  0  0  0  0  0  0  0  0
   11.6535  -18.6623   24.0527 N   0  0  0  0  0  0  0  0  0  0  0  0
   10.5636  -19.0034   23.2232 C   0  0  0  0  0  0  0  0  0  0  0  0
   10.4204  -20.1693   22.8197 O   0  0  0  0  0  0  0  0  0  0  0  0
    9.5964  -17.9629   22.8399 C   0  0  0  0  0  0  0  0  0  0  0  0
    9.9644  -16.6945   23.5197 C   0  0  0  0  0  0  0  0  0  0  0  0
    9.0244  -15.5490   23.2455 C   0  0  2  0  0  0  0  0  0  0  0  0
    9.1698  -14.9902   21.9416 N   0  0  0  0  0  0  0  0  0  0  0  0
    9.1637  -14.5279   24.3265 C   0  0  0  0  0  0  0  0  0  0  0  0
   10.1345  -13.7481   24.4186 O   0  0  0  0  0  0  0  0  0  0  0  0
    6.4724  -11.9348   25.4167 C   0  0  0  0  0  0  0  0  0  0  0  0
    6.7487  -12.9214   26.5096 C   0  0  1  0  0  0  0  0  0  0  0  0
    5.8194  -13.9779   26.4450 O   0  0  0  0  0  0  0  0  0  0  0  0
    8.1670  -13.4853   26.3923 C   0  0  2  0  0  0  0  0  0  0  0  0
    8.1363  -14.4371   25.3047 N   0  0  0  0  0  0  0  0  0  0  0  0
    8.4441  -14.2383   27.6420 C   0  0  0  0  0  0  0  0  0  0  0  0
    8.5430  -15.4919   27.6528 O   0  0  0  0  0  0  0  0  0  0  0  0
    8.6110  -13.6015   28.8769 O   0  0  0  0  0  0  0  0  0  0  0  0
  1  2  1  0
  2  3  1  0
  3  5  1  0
  3  4  1  6
  5  6  2  0
  7  8  1  0
  8  9  2  0
  8 10  1  0
 10 11  1  0
 12 11  1  1
 12 14  1  0
 13  5  1  0
 13 12  1  0
 14 20  1  0
 15 14  2  0
 17 18  1  0
 17 16  1  6
 19 17  1  0
 19 20  1  6
 21 23  1  0
 21 19  1  0
 22 21  2  0
M  END
$$$$
