SQT.pdb
     RDKit          3D

 23 22  0  0  1  0  0  0  0  0999 V2000
    9.0353  -15.2531   20.0545 O   0  0  0  0  0  0  0  0  0  0  0  0
    8.0498  -15.9343   19.3443 C   0  0  0  0  0  0  0  0  0  0  0  0
    7.6201  -17.1317   20.1618 C   0  0  2  0  0  0  0  0  0  0  0  0
    6.6737  -17.9596   19.4791 N   0  0  0  0  0  0  0  0  0  0  0  0
    7.0448  -16.6891   21.4549 C   0  0  0  0  0  0  0  0  0  0  0  0
    5.8348  -16.3803   21.5165 O   0  0  0  0  0  0  0  0  0  0  0  0
    6.4928  -19.7543   26.0973 N   0  0  0  0  0  0  0  0  0  0  0  0
    7.6561  -19.0450   26.4656 C   0  0  0  0  0  0  0  0  0  0  0  0
    8.3760  -19.4537   27.3916 O   0  0  0  0  0  0  0  0  0  0  0  0
    8.0094  -17.8140   25.7409 C   0  0  0  0  0  0  0  0  0  0  0  0
    6.9457  -17.5234   24.7457 C   0  0  0  0  0  0  0  0  0  0  0  0
    7.2063  -16.3051   23.8979 C   0  0  2  0  0  0  0  0  0  0  0  0
    7.8294  -16.6005   22.6496 N   0  0  0  0  0  0  0  0  0  0  0  0
    7.9711  -15.3025   24.6981 C   0  0  0  0  0  0  0  0  0  0  0  0
    9.2175  -15.2279   24.7021 O   0  0  0  0  0  0  0  0  0  0  0  0
    6.3825  -11.5344   25.5213 C   0  0  0  0  0  0  0  0  0  0  0  0
    6.7806  -12.3745   26.6959 C   0  0  1  0  0  0  0  0  0  0  0  0
    5.6613  -13.0795   27.1797 O   0  0  0  0  0  0  0  0  0  0  0  0
    7.8789  -13.3687   26.3107 C   0  0  2  0  0  0  0  0  0  0  0  0
    7.2424  -14.3819   25.4996 N   0  0  0  0  0  0  0  0  0  0  0  0
    8.3405  -14.0191   27.5635 C   0  0  0  0  0  0  0  0  0  0  0  0
    8.8856  -13.3646   28.4885 O   0  0  0  0  0  0  0  0  0  0  0  0
    8.1974  -15.3928   27.7891 O   0  0  0  0  0  0  0  0  0  0  0  0
  1  2  1  0
  2  3  1  0
  3  5  1  0
  3  4  1  6
  5  6  2  0
  7  8  1  0
  8  9  2  0
  8 10  1  0
 10 11  1  0
 12 11  1  1
 12 14  1  0
 13  5  1  0
 13 12  1  0
 14 20  1  0
 15 14  2  0
 17 18  1  0
 17 16  1  6
 19 17  1  0
 19 20  1  6
 21 23  1  0
 21 19  1  0
 22 21  2  0
M  END
$$$$
