SQT.pdb
     RDKit          3D

 23 22  0  0  1  0  0  0  0  0999 V2000
    8.7506  -14.9535   19.6764 O   0  0  0  0  0  0  0  0  0  0  0  0
    9.0669  -16.1898   20.2342 C   0  0  0  0  0  0  0  0  0  0  0  0
    7.7954  -16.8030   20.7764 C   0  0  2  0  0  0  0  0  0  0  0  0
    6.6216  -16.3273   20.1107 N   0  0  0  0  0  0  0  0  0  0  0  0
    7.6785  -16.5377   22.2307 C   0  0  0  0  0  0  0  0  0  0  0  0
    6.6396  -16.0043   22.6773 O   0  0  0  0  0  0  0  0  0  0  0  0
   10.9717  -19.0365   26.9062 N   0  0  0  0  0  0  0  0  0  0  0  0
   10.0711  -18.2184   27.6216 C   0  0  0  0  0  0  0  0  0  0  0  0
   10.0450  -18.2467   28.8631 O   0  0  0  0  0  0  0  0  0  0  0  0
    9.1613  -17.3296   26.8817 C   0  0  0  0  0  0  0  0  0  0  0  0
    9.4070  -17.4982   25.4266 C   0  0  0  0  0  0  0  0  0  0  0  0
    8.5529  -16.6209   24.5480 C   0  0  2  0  0  0  0  0  0  0  0  0
    8.7205  -16.8722   23.1543 N   0  0  0  0  0  0  0  0  0  0  0  0
    8.7863  -15.1897   24.9054 C   0  0  0  0  0  0  0  0  0  0  0  0
    9.8303  -14.5678   24.6185 O   0  0  0  0  0  0  0  0  0  0  0  0
    6.0425  -12.3230   24.5089 C   0  0  0  0  0  0  0  0  0  0  0  0
    6.4696  -12.5228   25.9307 C   0  0  1  0  0  0  0  0  0  0  0  0
    5.5711  -13.3907   26.5815 O   0  0  0  0  0  0  0  0  0  0  0  0
    7.8820  -13.1088   26.0009 C   0  0  2  0  0  0  0  0  0  0  0  0
    7.7655  -14.4957   25.6104 N   0  0  0  0  0  0  0  0  0  0  0  0
    8.3001  -13.0756   27.4256 C   0  0  0  0  0  0  0  0  0  0  0  0
    8.4451  -14.1278   28.0987 O   0  0  0  0  0  0  0  0  0  0  0  0
    8.5567  -11.8775   28.1015 O   0  0  0  0  0  0  0  0  0  0  0  0
  1  2  1  0
  2  3  1  0
  3  5  1  0
  3  4  1  6
  5  6  2  0
  7  8  1  0
  8  9  2  0
  8 10  1  0
 10 11  1  0
 12 11  1  1
 12 14  1  0
 13  5  1  0
 13 12  1  0
 14 20  1  0
 15 14  2  0
 17 18  1  0
 17 16  1  6
 19 17  1  0
 19 20  1  1
 21 23  1  0
 21 19  1  0
 22 21  2  0
M  END
$$$$
