SQT.pdb
     RDKit          3D

 23 22  0  0  1  0  0  0  0  0999 V2000
    7.2247  -17.6800   20.3254 O   0  0  0  0  0  0  0  0  0  0  0  0
    6.3587  -16.6111   20.1087 C   0  0  0  0  0  0  0  0  0  0  0  0
    7.1793  -15.3423   20.0494 C   0  0  2  0  0  0  0  0  0  0  0  0
    8.1532  -15.3592   19.0014 N   0  0  0  0  0  0  0  0  0  0  0  0
    7.8568  -15.1094   21.3477 C   0  0  0  0  0  0  0  0  0  0  0  0
    9.0677  -15.3960   21.4700 O   0  0  0  0  0  0  0  0  0  0  0  0
    5.6319  -12.2515   26.4999 N   0  0  0  0  0  0  0  0  0  0  0  0
    6.9870  -12.4409   26.8461 C   0  0  0  0  0  0  0  0  0  0  0  0
    7.4302  -11.9997   27.9193 O   0  0  0  0  0  0  0  0  0  0  0  0
    7.8721  -13.1676   25.9222 C   0  0  0  0  0  0  0  0  0  0  0  0
    7.1053  -13.5126   24.6978 C   0  0  0  0  0  0  0  0  0  0  0  0
    7.8631  -14.3624   23.7107 C   0  0  2  0  0  0  0  0  0  0  0  0
    7.1712  -14.5629   22.4799 N   0  0  0  0  0  0  0  0  0  0  0  0
    8.2547  -15.6467   24.3649 C   0  0  0  0  0  0  0  0  0  0  0  0
    7.4318  -16.4898   24.7783 O   0  0  0  0  0  0  0  0  0  0  0  0
   11.1649  -17.7499   22.8881 C   0  0  0  0  0  0  0  0  0  0  0  0
   11.4303  -17.4851   24.3385 C   0  0  1  0  0  0  0  0  0  0  0  0
   12.3225  -16.4031   24.4706 O   0  0  0  0  0  0  0  0  0  0  0  0
   10.1318  -17.1660   25.0834 C   0  0  2  0  0  0  0  0  0  0  0  0
    9.6390  -15.9263   24.5266 N   0  0  0  0  0  0  0  0  0  0  0  0
   10.4912  -16.9112   26.5016 C   0  0  0  0  0  0  0  0  0  0  0  0
   10.4482  -15.7573   26.9996 O   0  0  0  0  0  0  0  0  0  0  0  0
   10.8975  -17.9346   27.3652 O   0  0  0  0  0  0  0  0  0  0  0  0
  1  2  1  0
  2  3  1  0
  3  5  1  0
  3  4  1  6
  5  6  2  0
  7  8  1  0
  8  9  2  0
  8 10  1  0
 10 11  1  0
 12 11  1  1
 12 14  1  0
 13  5  1  0
 13 12  1  0
 14 20  1  0
 15 14  2  0
 17 18  1  0
 17 16  1  6
 19 17  1  0
 19 20  1  6
 21 23  1  0
 21 19  1  0
 22 21  2  0
M  END
$$$$
