SQT.pdb
     RDKit          3D

 23 22  0  0  1  0  0  0  0  0999 V2000
    7.2286  -12.8951   15.6959 O   0  0  0  0  0  0  0  0  0  0  0  0
    7.7800  -13.4400   16.8529 C   0  0  0  0  0  0  0  0  0  0  0  0
    8.8252  -14.4543   16.4463 C   0  0  2  0  0  0  0  0  0  0  0  0
    8.2678  -15.5857   15.7706 N   0  0  0  0  0  0  0  0  0  0  0  0
    9.5823  -14.9145   17.6354 C   0  0  0  0  0  0  0  0  0  0  0  0
    9.1897  -15.9224   18.2626 O   0  0  0  0  0  0  0  0  0  0  0  0
   15.5195  -13.8460   19.0532 N   0  0  0  0  0  0  0  0  0  0  0  0
   15.1464  -14.7018   20.1118 C   0  0  0  0  0  0  0  0  0  0  0  0
   16.0008  -15.1337   20.9031 O   0  0  0  0  0  0  0  0  0  0  0  0
   13.7328  -15.0786   20.2698 C   0  0  0  0  0  0  0  0  0  0  0  0
   12.9335  -14.3828   19.2290 C   0  0  0  0  0  0  0  0  0  0  0  0
   11.4688  -14.7369   19.2326 C   0  0  2  0  0  0  0  0  0  0  0  0
   10.7587  -14.2425   18.0990 N   0  0  0  0  0  0  0  0  0  0  0  0
   10.8601  -14.3026   20.5254 C   0  0  0  0  0  0  0  0  0  0  0  0
   10.5567  -13.1190   20.7825 O   0  0  0  0  0  0  0  0  0  0  0  0
    8.2695  -13.6133   21.4917 C   0  0  0  0  0  0  0  0  0  0  0  0
    8.4421  -14.8092   22.3771 C   0  0  1  0  0  0  0  0  0  0  0  0
    7.9705  -15.9620   21.7193 O   0  0  0  0  0  0  0  0  0  0  0  0
    9.9133  -15.0050   22.7521 C   0  0  2  0  0  0  0  0  0  0  0  0
   10.6118  -15.2887   21.5188 N   0  0  0  0  0  0  0  0  0  0  0  0
    9.9908  -16.2196   23.6032 C   0  0  0  0  0  0  0  0  0  0  0  0
    9.5398  -16.2367   24.7769 O   0  0  0  0  0  0  0  0  0  0  0  0
   10.5675  -17.4124   23.1527 O   0  0  0  0  0  0  0  0  0  0  0  0
  1  2  1  0
  2  3  1  0
  3  5  1  0
  3  4  1  1
  5  6  2  0
  7  8  1  0
  8  9  2  0
  8 10  1  0
 10 11  1  0
 12 11  1  6
 12 14  1  0
 13  5  1  0
 13 12  1  0
 14 20  1  0
 15 14  2  0
 17 18  1  0
 17 16  1  6
 19 17  1  0
 19 20  1  6
 21 23  1  0
 21 19  1  0
 22 21  2  0
M  END
$$$$
