AGF.pdb
     RDKit          3D

 21 21  0  0  1  0  0  0  0  0999 V2000
    6.3730  -18.9024   20.2505 C   0  0  0  0  0  0  0  0  0  0  0  0
    7.2870  -19.1390   21.4452 C   0  0  2  0  0  0  0  0  0  0  0  0
    6.5587  -19.1285   22.6831 N   0  0  0  0  0  0  0  0  0  0  0  0
    8.3780  -18.1373   21.5014 C   0  0  0  0  0  0  0  0  0  0  0  0
    9.4121  -18.3159   20.8191 O   0  0  0  0  0  0  0  0  0  0  0  0
    8.2531  -16.9978   22.3129 N   0  0  0  0  0  0  0  0  0  0  0  0
    9.2659  -15.9695   22.4175 C   0  0  0  0  0  0  0  0  0  0  0  0
    9.5609  -15.7311   23.8376 C   0  0  0  0  0  0  0  0  0  0  0  0
   10.5215  -14.9344   24.1184 O   0  0  0  0  0  0  0  0  0  0  0  0
    8.8261  -16.3463   24.8849 N   0  0  0  0  0  0  0  0  0  0  0  0
    9.2731  -16.1593   26.2389 C   0  0  1  0  0  0  0  0  0  0  0  0
    8.1774  -15.7087   27.1514 C   0  0  0  0  0  0  0  0  0  0  0  0
    7.5969  -14.4560   26.6556 C   0  0  0  0  0  0  0  0  0  0  0  0
    8.2669  -13.2625   26.7824 C   0  0  0  0  0  0  0  0  0  0  0  0
    7.7670  -12.0602   26.3088 C   0  0  0  0  0  0  0  0  0  0  0  0
    6.5279  -12.0857   25.6793 C   0  0  0  0  0  0  0  0  0  0  0  0
    5.8386  -13.2715   25.5412 C   0  0  0  0  0  0  0  0  0  0  0  0
    6.3758  -14.4512   26.0297 C   0  0  0  0  0  0  0  0  0  0  0  0
    9.9712  -17.3679   26.6956 C   0  0  0  0  0  0  0  0  0  0  0  0
   10.4775  -17.5308   27.8305 O   0  0  0  0  0  0  0  0  0  0  0  0
   10.1073  -18.4555   25.8256 O   0  0  0  0  0  0  0  0  0  0  0  0
  2  1  1  6
  2  3  1  0
  4  2  1  0
  4  5  2  0
  6  4  1  0
  7  6  1  0
  8 10  1  0
  8  7  1  0
  9  8  2  0
 11 12  1  1
 11 10  1  0
 12 13  1  0
 13 14  2  0
 13 18  1  0
 14 15  1  0
 15 16  2  0
 17 16  1  0
 18 17  2  0
 19 11  1  0
 20 19  2  0
 21 19  1  0
M  END
$$$$
