AGF.pdb
     RDKit          3D

 21 21  0  0  1  0  0  0  0  0999 V2000
    3.4406  -18.1291   20.7043 C   0  0  0  0  0  0  0  0  0  0  0  0
    4.8720  -18.5289   21.0360 C   0  0  2  0  0  0  0  0  0  0  0  0
    4.9872  -19.0328   22.3760 N   0  0  0  0  0  0  0  0  0  0  0  0
    5.8098  -17.3966   20.8480 C   0  0  0  0  0  0  0  0  0  0  0  0
    5.9601  -16.9060   19.7063 O   0  0  0  0  0  0  0  0  0  0  0  0
    6.5237  -16.8783   21.9410 N   0  0  0  0  0  0  0  0  0  0  0  0
    7.4787  -15.7961   21.8380 C   0  0  0  0  0  0  0  0  0  0  0  0
    8.1161  -15.5942   23.1470 C   0  0  0  0  0  0  0  0  0  0  0  0
    9.1103  -14.7915   23.2053 O   0  0  0  0  0  0  0  0  0  0  0  0
    7.6698  -16.2504   24.3240 N   0  0  0  0  0  0  0  0  0  0  0  0
    8.4185  -16.0671   25.5381 C   0  0  1  0  0  0  0  0  0  0  0  0
    7.5699  -15.5892   26.6730 C   0  0  0  0  0  0  0  0  0  0  0  0
    7.3373  -14.1460   26.5505 C   0  0  0  0  0  0  0  0  0  0  0  0
    8.3738  -13.2480   26.6448 C   0  0  0  0  0  0  0  0  0  0  0  0
    8.2034  -11.8793   26.5128 C   0  0  0  0  0  0  0  0  0  0  0  0
    6.9152  -11.4147   26.2741 C   0  0  0  0  0  0  0  0  0  0  0  0
    5.8611  -12.2975   26.1757 C   0  0  0  0  0  0  0  0  0  0  0  0
    6.0765  -13.6589   26.3143 C   0  0  0  0  0  0  0  0  0  0  0  0
    9.1785  -17.2883   25.8340 C   0  0  0  0  0  0  0  0  0  0  0  0
    9.1352  -18.3509   25.1709 O   0  0  0  0  0  0  0  0  0  0  0  0
   10.0364  -17.3154   26.9392 O   0  0  0  0  0  0  0  0  0  0  0  0
  2  1  1  1
  2  3  1  0
  4  2  1  0
  4  5  2  0
  6  4  1  0
  7  6  1  0
  8 10  1  0
  8  7  1  0
  9  8  2  0
 11 12  1  1
 11 10  1  0
 12 13  1  0
 13 14  2  0
 13 18  1  0
 14 15  1  0
 15 16  2  0
 17 16  1  0
 18 17  2  0
 19 11  1  0
 20 19  2  0
 21 19  1  0
M  END
$$$$
