AGF.pdb
     RDKit          3D

 21 21  0  0  1  0  0  0  0  0999 V2000
    7.6949  -17.9902   17.7573 C   0  0  0  0  0  0  0  0  0  0  0  0
    8.6265  -18.1115   18.9557 C   0  0  2  0  0  0  0  0  0  0  0  0
    8.6881  -19.4594   19.4480 N   0  0  0  0  0  0  0  0  0  0  0  0
    8.2229  -17.1995   20.0522 C   0  0  0  0  0  0  0  0  0  0  0  0
    8.4361  -15.9712   19.9397 O   0  0  0  0  0  0  0  0  0  0  0  0
    7.6069  -17.7085   21.2072 N   0  0  0  0  0  0  0  0  0  0  0  0
    7.1210  -16.8816   22.2908 C   0  0  0  0  0  0  0  0  0  0  0  0
    8.2484  -16.5268   23.1646 C   0  0  0  0  0  0  0  0  0  0  0  0
    9.3993  -17.0013   22.8705 O   0  0  0  0  0  0  0  0  0  0  0  0
    8.1004  -15.6901   24.3019 N   0  0  0  0  0  0  0  0  0  0  0  0
    9.2818  -15.2854   25.0149 C   0  0  1  0  0  0  0  0  0  0  0  0
    9.4449  -13.7997   25.0658 C   0  0  0  0  0  0  0  0  0  0  0  0
    8.2512  -13.1855   25.6572 C   0  0  0  0  0  0  0  0  0  0  0  0
    8.2451  -12.7563   26.9630 C   0  0  0  0  0  0  0  0  0  0  0  0
    7.1486  -12.1507   27.5553 C   0  0  0  0  0  0  0  0  0  0  0  0
    6.0121  -11.9794   26.7734 C   0  0  0  0  0  0  0  0  0  0  0  0
    5.9963  -12.4024   25.4615 C   0  0  0  0  0  0  0  0  0  0  0  0
    7.1154  -13.0034   24.9091 C   0  0  0  0  0  0  0  0  0  0  0  0
    9.3051  -15.9340   26.3323 C   0  0  0  0  0  0  0  0  0  0  0  0
   10.2285  -15.8381   27.1743 O   0  0  0  0  0  0  0  0  0  0  0  0
    8.2278  -16.7363   26.7247 O   0  0  0  0  0  0  0  0  0  0  0  0
  2  1  1  6
  2  3  1  0
  4  2  1  0
  4  5  2  0
  6  4  1  0
  7  6  1  0
  8 10  1  0
  8  7  1  0
  9  8  2  0
 11 12  1  1
 11 10  1  0
 12 13  1  0
 13 14  2  0
 13 18  1  0
 14 15  1  0
 15 16  2  0
 17 16  1  0
 18 17  2  0
 19 11  1  0
 20 19  2  0
 21 19  1  0
M  END
$$$$
