AGF.pdb
     RDKit          3D

 21 21  0  0  1  0  0  0  0  0999 V2000
    7.5226  -12.6093   18.9490 C   0  0  0  0  0  0  0  0  0  0  0  0
    8.4609  -13.6088   19.6119 C   0  0  2  0  0  0  0  0  0  0  0  0
    8.7069  -14.7468   18.7709 N   0  0  0  0  0  0  0  0  0  0  0  0
    7.9346  -14.0622   20.9212 C   0  0  0  0  0  0  0  0  0  0  0  0
    7.7464  -13.2241   21.8316 O   0  0  0  0  0  0  0  0  0  0  0  0
    7.6495  -15.4202   21.1389 N   0  0  0  0  0  0  0  0  0  0  0  0
    7.0550  -15.9327   22.3545 C   0  0  0  0  0  0  0  0  0  0  0  0
    8.0244  -15.8052   23.4520 C   0  0  0  0  0  0  0  0  0  0  0  0
    9.2171  -15.4533   23.1523 O   0  0  0  0  0  0  0  0  0  0  0  0
    7.6827  -16.0560   24.8069 N   0  0  0  0  0  0  0  0  0  0  0  0
    8.6931  -15.8766   25.8143 C   0  0  1  0  0  0  0  0  0  0  0  0
    8.1602  -15.2437   27.0600 C   0  0  0  0  0  0  0  0  0  0  0  0
    7.5274  -13.9601   26.7377 C   0  0  0  0  0  0  0  0  0  0  0  0
    8.2785  -12.8244   26.5490 C   0  0  0  0  0  0  0  0  0  0  0  0
    7.7251  -11.5972   26.2213 C   0  0  0  0  0  0  0  0  0  0  0  0
    6.3435  -11.5348   26.0818 C   0  0  0  0  0  0  0  0  0  0  0  0
    5.5710  -12.6614   26.2665 C   0  0  0  0  0  0  0  0  0  0  0  0
    6.1659  -13.8689   26.5935 C   0  0  0  0  0  0  0  0  0  0  0  0
    9.3891  -17.1494   26.0420 C   0  0  0  0  0  0  0  0  0  0  0  0
   10.4040  -17.3054   26.7609 O   0  0  0  0  0  0  0  0  0  0  0  0
    8.9164  -18.3135   25.4258 O   0  0  0  0  0  0  0  0  0  0  0  0
  2  1  1  6
  2  3  1  0
  4  2  1  0
  4  5  2  0
  6  4  1  0
  7  6  1  0
  8 10  1  0
  8  7  1  0
  9  8  2  0
 11 12  1  1
 11 10  1  0
 12 13  1  0
 13 14  2  0
 13 18  1  0
 14 15  1  0
 15 16  2  0
 17 16  1  0
 18 17  2  0
 19 11  1  0
 20 19  2  0
 21 19  1  0
M  END
$$$$
