AGF.pdb
     RDKit          3D

 21 21  0  0  1  0  0  0  0  0999 V2000
    8.1166  -12.1981   20.4353 C   0  0  0  0  0  0  0  0  0  0  0  0
    8.3729  -13.4766   19.6487 C   0  0  2  0  0  0  0  0  0  0  0  0
    7.8129  -13.4103   18.3278 N   0  0  0  0  0  0  0  0  0  0  0  0
    7.8404  -14.6655   20.3557 C   0  0  0  0  0  0  0  0  0  0  0  0
    6.9044  -15.3183   19.8415 O   0  0  0  0  0  0  0  0  0  0  0  0
    8.3809  -15.0564   21.5918 N   0  0  0  0  0  0  0  0  0  0  0  0
    9.0825  -16.3039   21.8047 C   0  0  0  0  0  0  0  0  0  0  0  0
    9.3548  -16.4609   23.2406 C   0  0  0  0  0  0  0  0  0  0  0  0
    9.9413  -17.5325   23.6196 O   0  0  0  0  0  0  0  0  0  0  0  0
    8.9933  -15.4781   24.1991 N   0  0  0  0  0  0  0  0  0  0  0  0
    9.5754  -15.5529   25.5120 C   0  0  1  0  0  0  0  0  0  0  0  0
    9.6411  -14.2221   26.1910 C   0  0  0  0  0  0  0  0  0  0  0  0
    8.3180  -13.5887   26.1792 C   0  0  0  0  0  0  0  0  0  0  0  0
    7.4931  -13.6444   27.2773 C   0  0  0  0  0  0  0  0  0  0  0  0
    6.2461  -13.0417   27.3182 C   0  0  0  0  0  0  0  0  0  0  0  0
    5.8302  -12.3538   26.1841 C   0  0  0  0  0  0  0  0  0  0  0  0
    6.6414  -12.2852   25.0718 C   0  0  0  0  0  0  0  0  0  0  0  0
    7.8814  -12.9026   25.0740 C   0  0  0  0  0  0  0  0  0  0  0  0
    8.8884  -16.5888   26.2940 C   0  0  0  0  0  0  0  0  0  0  0  0
    9.2379  -16.9975   27.4261 O   0  0  0  0  0  0  0  0  0  0  0  0
    7.7426  -17.1998   25.7725 O   0  0  0  0  0  0  0  0  0  0  0  0
  2  1  1  1
  2  3  1  0
  4  2  1  0
  4  5  2  0
  6  4  1  0
  7  6  1  0
  8 10  1  0
  8  7  1  0
  9  8  2  0
 11 12  1  1
 11 10  1  0
 12 13  1  0
 13 14  2  0
 13 18  1  0
 14 15  1  0
 15 16  2  0
 17 16  1  0
 18 17  2  0
 19 11  1  0
 20 19  2  0
 21 19  1  0
M  END
$$$$
