AGF.pdb
     RDKit          3D

 21 21  0  0  1  0  0  0  0  0999 V2000
    2.8785  -17.8395   21.5783 C   0  0  0  0  0  0  0  0  0  0  0  0
    4.3620  -18.1755   21.5062 C   0  0  2  0  0  0  0  0  0  0  0  0
    4.6162  -19.5427   21.8653 N   0  0  0  0  0  0  0  0  0  0  0  0
    5.1652  -17.2770   22.3690 C   0  0  0  0  0  0  0  0  0  0  0  0
    5.1485  -17.4398   23.6099 O   0  0  0  0  0  0  0  0  0  0  0  0
    5.9382  -16.2518   21.7996 N   0  0  0  0  0  0  0  0  0  0  0  0
    7.2509  -16.4576   21.2264 C   0  0  0  0  0  0  0  0  0  0  0  0
    8.2698  -16.0832   22.2174 C   0  0  0  0  0  0  0  0  0  0  0  0
    9.4974  -16.1735   21.8694 O   0  0  0  0  0  0  0  0  0  0  0  0
    7.9382  -15.6335   23.5225 N   0  0  0  0  0  0  0  0  0  0  0  0
    8.9606  -15.6471   24.5337 C   0  0  1  0  0  0  0  0  0  0  0  0
    9.4303  -14.2749   24.8981 C   0  0  0  0  0  0  0  0  0  0  0  0
    8.3518  -13.5378   25.5654 C   0  0  0  0  0  0  0  0  0  0  0  0
    7.2820  -13.0458   24.8563 C   0  0  0  0  0  0  0  0  0  0  0  0
    6.2309  -12.3642   25.4483 C   0  0  0  0  0  0  0  0  0  0  0  0
    6.2817  -12.1809   26.8254 C   0  0  0  0  0  0  0  0  0  0  0  0
    7.3451  -12.6660   27.5561 C   0  0  0  0  0  0  0  0  0  0  0  0
    8.3753  -13.3421   26.9233 C   0  0  0  0  0  0  0  0  0  0  0  0
    8.5063  -16.4463   25.6789 C   0  0  0  0  0  0  0  0  0  0  0  0
    9.2238  -16.8189   26.6366 O   0  0  0  0  0  0  0  0  0  0  0  0
    7.1681  -16.8492   25.7506 O   0  0  0  0  0  0  0  0  0  0  0  0
  2  1  1  1
  2  3  1  0
  4  2  1  0
  4  5  2  0
  6  4  1  0
  7  6  1  0
  8 10  1  0
  8  7  1  0
  9  8  2  0
 11 12  1  1
 11 10  1  0
 12 13  1  0
 13 14  2  0
 13 18  1  0
 14 15  1  0
 15 16  2  0
 17 16  1  0
 18 17  2  0
 19 11  1  0
 20 19  2  0
 21 19  1  0
M  END
$$$$
