AGF.pdb
     RDKit          3D

 21 21  0  0  1  0  0  0  0  0999 V2000
    5.9663  -15.0121   19.8575 C   0  0  0  0  0  0  0  0  0  0  0  0
    6.8659  -16.1550   20.3083 C   0  0  2  0  0  0  0  0  0  0  0  0
    6.2828  -16.8963   21.3915 N   0  0  0  0  0  0  0  0  0  0  0  0
    8.2076  -15.6660   20.7056 C   0  0  0  0  0  0  0  0  0  0  0  0
    8.9785  -15.2086   19.8320 O   0  0  0  0  0  0  0  0  0  0  0  0
    8.6107  -15.7154   22.0501 N   0  0  0  0  0  0  0  0  0  0  0  0
    9.8869  -15.2269   22.5259 C   0  0  0  0  0  0  0  0  0  0  0  0
    9.9611  -15.4204   23.9811 C   0  0  0  0  0  0  0  0  0  0  0  0
   11.0566  -15.1127   24.5655 O   0  0  0  0  0  0  0  0  0  0  0  0
    8.8750  -15.9284   24.7412 N   0  0  0  0  0  0  0  0  0  0  0  0
    9.0637  -16.1412   26.1508 C   0  0  1  0  0  0  0  0  0  0  0  0
    7.8539  -15.7865   26.9552 C   0  0  0  0  0  0  0  0  0  0  0  0
    7.5099  -14.3759   26.7456 C   0  0  0  0  0  0  0  0  0  0  0  0
    8.2940  -13.3692   27.2565 C   0  0  0  0  0  0  0  0  0  0  0  0
    8.0196  -12.0248   27.0640 C   0  0  0  0  0  0  0  0  0  0  0  0
    6.8932  -11.7021   26.3159 C   0  0  0  0  0  0  0  0  0  0  0  0
    6.0928  -12.6957   25.7942 C   0  0  0  0  0  0  0  0  0  0  0  0
    6.4043  -14.0279   26.0111 C   0  0  0  0  0  0  0  0  0  0  0  0
    9.5528  -17.5070   26.3788 C   0  0  0  0  0  0  0  0  0  0  0  0
    9.7040  -18.3828   25.4950 O   0  0  0  0  0  0  0  0  0  0  0  0
    9.8912  -17.9105   27.6753 O   0  0  0  0  0  0  0  0  0  0  0  0
  2  1  1  1
  2  3  1  0
  4  2  1  0
  4  5  2  0
  6  4  1  0
  7  6  1  0
  8 10  1  0
  8  7  1  0
  9  8  2  0
 11 12  1  1
 11 10  1  0
 12 13  1  0
 13 14  2  0
 13 18  1  0
 14 15  1  0
 15 16  2  0
 17 16  1  0
 18 17  2  0
 19 11  1  0
 20 19  2  0
 21 19  1  0
M  END
$$$$
