AGF.pdb
     RDKit          3D

 21 21  0  0  1  0  0  0  0  0999 V2000
    8.6135  -12.2611   19.7545 C   0  0  0  0  0  0  0  0  0  0  0  0
    8.2694  -13.6176   19.1544 C   0  0  2  0  0  0  0  0  0  0  0  0
    7.3895  -13.4930   18.0261 N   0  0  0  0  0  0  0  0  0  0  0  0
    7.6618  -14.5191   20.1619 C   0  0  0  0  0  0  0  0  0  0  0  0
    6.4547  -14.3802   20.4624 O   0  0  0  0  0  0  0  0  0  0  0  0
    8.4334  -15.5203   20.7743 N   0  0  0  0  0  0  0  0  0  0  0  0
    7.9383  -16.3925   21.8174 C   0  0  0  0  0  0  0  0  0  0  0  0
    8.6348  -16.0798   23.0734 C   0  0  0  0  0  0  0  0  0  0  0  0
    9.8033  -15.5659   22.9918 O   0  0  0  0  0  0  0  0  0  0  0  0
    8.0604  -16.3263   24.3480 N   0  0  0  0  0  0  0  0  0  0  0  0
    8.8601  -16.0875   25.5192 C   0  0  1  0  0  0  0  0  0  0  0  0
    9.3018  -14.6636   25.6360 C   0  0  0  0  0  0  0  0  0  0  0  0
    8.1429  -13.7990   25.8835 C   0  0  0  0  0  0  0  0  0  0  0  0
    7.9554  -13.1927   27.1028 C   0  0  0  0  0  0  0  0  0  0  0  0
    6.8885  -12.3511   27.3732 C   0  0  0  0  0  0  0  0  0  0  0  0
    5.9771  -12.1235   26.3485 C   0  0  0  0  0  0  0  0  0  0  0  0
    6.1458  -12.7212   25.1179 C   0  0  0  0  0  0  0  0  0  0  0  0
    7.2275  -13.5561   24.8906 C   0  0  0  0  0  0  0  0  0  0  0  0
    8.1559  -16.5933   26.7045 C   0  0  0  0  0  0  0  0  0  0  0  0
    8.6070  -16.5934   27.8739 O   0  0  0  0  0  0  0  0  0  0  0  0
    6.8708  -17.1296   26.5662 O   0  0  0  0  0  0  0  0  0  0  0  0
  2  1  1  1
  2  3  1  0
  4  2  1  0
  4  5  2  0
  6  4  1  0
  7  6  1  0
  8 10  1  0
  8  7  1  0
  9  8  2  0
 11 12  1  1
 11 10  1  0
 12 13  1  0
 13 14  2  0
 13 18  1  0
 14 15  1  0
 15 16  2  0
 17 16  1  0
 18 17  2  0
 19 11  1  0
 20 19  2  0
 21 19  1  0
M  END
$$$$
