AGF.pdb
     RDKit          3D

 21 21  0  0  1  0  0  0  0  0999 V2000
    3.9638  -18.1571   21.1919 C   0  0  0  0  0  0  0  0  0  0  0  0
    5.3127  -18.7467   21.5814 C   0  0  2  0  0  0  0  0  0  0  0  0
    5.4391  -18.8925   23.0046 N   0  0  0  0  0  0  0  0  0  0  0  0
    6.4338  -17.9268   21.0638 C   0  0  0  0  0  0  0  0  0  0  0  0
    6.5828  -17.7999   19.8275 O   0  0  0  0  0  0  0  0  0  0  0  0
    7.3213  -17.2979   21.9523 N   0  0  0  0  0  0  0  0  0  0  0  0
    8.4123  -16.4457   21.5311 C   0  0  0  0  0  0  0  0  0  0  0  0
    9.2219  -16.0893   22.7050 C   0  0  0  0  0  0  0  0  0  0  0  0
   10.4851  -15.9726   22.5413 O   0  0  0  0  0  0  0  0  0  0  0  0
    8.6545  -15.8752   23.9886 N   0  0  0  0  0  0  0  0  0  0  0  0
    9.5346  -15.5869   25.0888 C   0  0  1  0  0  0  0  0  0  0  0  0
    9.5804  -14.1304   25.4249 C   0  0  0  0  0  0  0  0  0  0  0  0
    8.2360  -13.6535   25.7672 C   0  0  0  0  0  0  0  0  0  0  0  0
    7.2384  -13.6004   24.8230 C   0  0  0  0  0  0  0  0  0  0  0  0
    5.9495  -13.1787   25.1070 C   0  0  0  0  0  0  0  0  0  0  0  0
    5.6748  -12.7961   26.4148 C   0  0  0  0  0  0  0  0  0  0  0  0
    6.6602  -12.8415   27.3777 C   0  0  0  0  0  0  0  0  0  0  0  0
    7.9361  -13.2699   27.0500 C   0  0  0  0  0  0  0  0  0  0  0  0
    9.1962  -16.4518   26.2263 C   0  0  0  0  0  0  0  0  0  0  0  0
    8.2212  -17.2376   26.2782 O   0  0  0  0  0  0  0  0  0  0  0  0
   10.0009  -16.4314   27.3710 O   0  0  0  0  0  0  0  0  0  0  0  0
  2  1  1  1
  2  3  1  0
  4  2  1  0
  4  5  2  0
  6  4  1  0
  7  6  1  0
  8 10  1  0
  8  7  1  0
  9  8  2  0
 11 12  1  1
 11 10  1  0
 12 13  1  0
 13 14  2  0
 13 18  1  0
 14 15  1  0
 15 16  2  0
 17 16  1  0
 18 17  2  0
 19 11  1  0
 20 19  2  0
 21 19  1  0
M  END
$$$$
