AGF.pdb
     RDKit          3D

 21 21  0  0  1  0  0  0  0  0999 V2000
    6.3051  -18.9157   19.8541 C   0  0  0  0  0  0  0  0  0  0  0  0
    6.9849  -18.7752   21.2094 C   0  0  2  0  0  0  0  0  0  0  0  0
    6.0299  -18.7152   22.2805 N   0  0  0  0  0  0  0  0  0  0  0  0
    7.8611  -17.5806   21.2566 C   0  0  0  0  0  0  0  0  0  0  0  0
    8.9038  -17.5555   20.5647 O   0  0  0  0  0  0  0  0  0  0  0  0
    7.5246  -16.4863   22.0703 N   0  0  0  0  0  0  0  0  0  0  0  0
    8.3007  -15.2670   22.1402 C   0  0  0  0  0  0  0  0  0  0  0  0
    8.8534  -15.1285   23.4951 C   0  0  0  0  0  0  0  0  0  0  0  0
    9.7177  -14.2064   23.6919 O   0  0  0  0  0  0  0  0  0  0  0  0
    8.4641  -15.9710   24.5694 N   0  0  0  0  0  0  0  0  0  0  0  0
    9.1406  -15.8319   25.8308 C   0  0  1  0  0  0  0  0  0  0  0  0
    8.2199  -15.4285   26.9381 C   0  0  0  0  0  0  0  0  0  0  0  0
    7.6971  -14.0810   26.6881 C   0  0  0  0  0  0  0  0  0  0  0  0
    6.3775  -13.8796   26.3602 C   0  0  0  0  0  0  0  0  0  0  0  0
    5.8362  -12.6236   26.1381 C   0  0  0  0  0  0  0  0  0  0  0  0
    6.6860  -11.5301   26.2580 C   0  0  0  0  0  0  0  0  0  0  0  0
    8.0129  -11.7090   26.5859 C   0  0  0  0  0  0  0  0  0  0  0  0
    8.5127  -12.9831   26.7996 C   0  0  0  0  0  0  0  0  0  0  0  0
    9.9122  -17.0498   26.1097 C   0  0  0  0  0  0  0  0  0  0  0  0
   10.5606  -17.2763   27.1581 O   0  0  0  0  0  0  0  0  0  0  0  0
    9.9569  -18.0713   25.1543 O   0  0  0  0  0  0  0  0  0  0  0  0
  2  1  1  6
  2  3  1  0
  4  2  1  0
  4  5  2  0
  6  4  1  0
  7  6  1  0
  8 10  1  0
  8  7  1  0
  9  8  2  0
 11 12  1  1
 11 10  1  0
 12 13  1  0
 13 14  2  0
 13 18  1  0
 14 15  1  0
 15 16  2  0
 17 16  1  0
 18 17  2  0
 19 11  1  0
 20 19  2  0
 21 19  1  0
M  END
$$$$
