AGF.pdb
     RDKit          3D

 21 21  0  0  1  0  0  0  0  0999 V2000
    6.3529  -18.5919   20.0554 C   0  0  0  0  0  0  0  0  0  0  0  0
    7.8207  -18.3031   20.3401 C   0  0  2  0  0  0  0  0  0  0  0  0
    8.2838  -19.0000   21.5074 N   0  0  0  0  0  0  0  0  0  0  0  0
    8.0680  -16.8501   20.4975 C   0  0  0  0  0  0  0  0  0  0  0  0
    7.8937  -16.0877   19.5202 O   0  0  0  0  0  0  0  0  0  0  0  0
    8.4942  -16.3331   21.7318 N   0  0  0  0  0  0  0  0  0  0  0  0
    8.7038  -14.9238   21.9847 C   0  0  0  0  0  0  0  0  0  0  0  0
    9.1702  -14.7499   23.3677 C   0  0  0  0  0  0  0  0  0  0  0  0
    9.2239  -13.5586   23.8303 O   0  0  0  0  0  0  0  0  0  0  0  0
    9.5548  -15.8429   24.1880 N   0  0  0  0  0  0  0  0  0  0  0  0
    9.3108  -15.7586   25.6027 C   0  0  1  0  0  0  0  0  0  0  0  0
    7.8546  -15.6778   25.9335 C   0  0  0  0  0  0  0  0  0  0  0  0
    7.4469  -14.2741   26.0569 C   0  0  0  0  0  0  0  0  0  0  0  0
    6.6637  -13.6742   25.0996 C   0  0  0  0  0  0  0  0  0  0  0  0
    6.2367  -12.3590   25.1867 C   0  0  0  0  0  0  0  0  0  0  0  0
    6.6308  -11.6307   26.3033 C   0  0  0  0  0  0  0  0  0  0  0  0
    7.4160  -12.2124   27.2755 C   0  0  0  0  0  0  0  0  0  0  0  0
    7.8206  -13.5312   27.1483 C   0  0  0  0  0  0  0  0  0  0  0  0
   10.0190  -16.8476   26.2875 C   0  0  0  0  0  0  0  0  0  0  0  0
   10.0212  -17.0495   27.5245 O   0  0  0  0  0  0  0  0  0  0  0  0
   10.7676  -17.7618   25.5378 O   0  0  0  0  0  0  0  0  0  0  0  0
  2  1  1  1
  2  3  1  0
  4  2  1  0
  4  5  2  0
  6  4  1  0
  7  6  1  0
  8 10  1  0
  8  7  1  0
  9  8  2  0
 11 12  1  6
 11 10  1  0
 12 13  1  0
 13 14  2  0
 13 18  1  0
 14 15  1  0
 15 16  2  0
 17 16  1  0
 18 17  2  0
 19 11  1  0
 20 19  2  0
 21 19  1  0
M  END
$$$$
