AGF.pdb
     RDKit          3D

 21 21  0  0  1  0  0  0  0  0999 V2000
    7.6454  -19.3207   19.1593 C   0  0  0  0  0  0  0  0  0  0  0  0
    7.8543  -18.7206   20.5431 C   0  0  2  0  0  0  0  0  0  0  0  0
    6.8143  -19.1090   21.4544 N   0  0  0  0  0  0  0  0  0  0  0  0
    7.9397  -17.2419   20.4868 C   0  0  0  0  0  0  0  0  0  0  0  0
    8.7933  -16.7033   19.7465 O   0  0  0  0  0  0  0  0  0  0  0  0
    7.0708  -16.4517   21.2572 N   0  0  0  0  0  0  0  0  0  0  0  0
    7.0674  -15.0048   21.2363 C   0  0  0  0  0  0  0  0  0  0  0  0
    7.6523  -14.5067   22.4893 C   0  0  0  0  0  0  0  0  0  0  0  0
    6.9994  -13.6172   23.1365 O   0  0  0  0  0  0  0  0  0  0  0  0
    8.8950  -14.9742   22.9919 N   0  0  0  0  0  0  0  0  0  0  0  0
    9.0853  -15.0214   24.4165 C   0  0  1  0  0  0  0  0  0  0  0  0
    7.8028  -15.2003   25.1646 C   0  0  0  0  0  0  0  0  0  0  0  0
    7.3865  -13.9241   25.7560 C   0  0  0  0  0  0  0  0  0  0  0  0
    8.2768  -12.8886   25.9121 C   0  0  0  0  0  0  0  0  0  0  0  0
    7.9221  -11.6595   26.4445 C   0  0  0  0  0  0  0  0  0  0  0  0
    6.5982  -11.4879   26.8321 C   0  0  0  0  0  0  0  0  0  0  0  0
    5.6885  -12.5130   26.6845 C   0  0  0  0  0  0  0  0  0  0  0  0
    6.0862  -13.7263   26.1473 C   0  0  0  0  0  0  0  0  0  0  0  0
   10.1101  -16.0220   24.7408 C   0  0  0  0  0  0  0  0  0  0  0  0
   10.4831  -16.9520   23.9879 O   0  0  0  0  0  0  0  0  0  0  0  0
   10.7521  -15.9734   25.9833 O   0  0  0  0  0  0  0  0  0  0  0  0
  2  1  1  6
  2  3  1  0
  4  2  1  0
  4  5  2  0
  6  4  1  0
  7  6  1  0
  8 10  1  0
  8  7  1  0
  9  8  2  0
 11 12  1  1
 11 10  1  0
 12 13  1  0
 13 14  2  0
 13 18  1  0
 14 15  1  0
 15 16  2  0
 17 16  1  0
 18 17  2  0
 19 11  1  0
 20 19  2  0
 21 19  1  0
M  END
$$$$
