QHR.pdb
     RDKit          3D

 31 31  0  0  1  0  0  0  0  0999 V2000
   25.2093  -14.8056  -20.9456 N   0  0  0  0  0  0  0  0  0  0  0  0
   24.3358  -15.8652  -21.3125 C   0  0  0  0  0  0  0  0  0  0  0  0
   24.7952  -16.9386  -21.8190 O   0  0  0  0  0  0  0  0  0  0  0  0
   22.8794  -15.7171  -21.1030 C   0  0  0  0  0  0  0  0  0  0  0  0
   22.5306  -14.3228  -20.6265 C   0  0  0  0  0  0  0  0  0  0  0  0
   22.9183  -14.2147  -19.1786 C   0  0  2  0  0  0  0  0  0  0  0  0
   22.3286  -15.2661  -18.3750 N   0  0  0  0  0  0  0  0  0  0  0  0
   22.6048  -12.8659  -18.6186 C   0  0  0  0  0  0  0  0  0  0  0  0
   23.0104  -11.8278  -19.2282 O   0  0  0  0  0  0  0  0  0  0  0  0
   21.8675  -12.6582  -17.4243 N   0  0  0  0  0  0  0  0  0  0  0  0
   21.6039  -11.2792  -16.9747 C   0  0  1  0  0  0  0  0  0  0  0  0
   20.6856  -11.3023  -15.7720 C   0  0  0  0  0  0  0  0  0  0  0  0
   20.3551   -9.9166  -15.3848 C   0  0  0  0  0  0  0  0  0  0  0  0
   20.8251   -8.7872  -16.0415 C   0  0  0  0  0  0  0  0  0  0  0  0
   20.3495   -7.6821  -15.4556 N   0  0  0  0  0  0  0  0  0  0  0  0
   19.5828   -8.0778  -14.4348 C   0  0  0  0  0  0  0  0  0  0  0  0
   19.5908   -9.4194  -14.3983 N   0  0  0  0  0  0  0  0  0  0  0  0
   22.8754  -10.6073  -16.6245 C   0  0  0  0  0  0  0  0  0  0  0  0
   23.7618  -11.1427  -15.9133 O   0  0  0  0  0  0  0  0  0  0  0  0
   30.3790   -9.1341  -20.0800 N   0  0  0  0  0  0  0  0  0  0  0  0
   30.3822   -8.3780  -18.8804 C   0  0  0  0  0  0  0  0  0  0  0  0
   31.4640   -7.8441  -18.4345 N   0  0  0  0  0  0  0  0  0  0  0  0
   29.1825   -8.1760  -18.1176 N   0  0  0  0  0  0  0  0  0  0  0  0
   27.9444   -8.8255  -18.4296 C   0  0  0  0  0  0  0  0  0  0  0  0
   26.8066   -8.3988  -17.5531 C   0  0  0  0  0  0  0  0  0  0  0  0
   25.5272   -9.1508  -17.7643 C   0  0  0  0  0  0  0  0  0  0  0  0
   24.4797   -8.6478  -16.8019 C   0  0  2  0  0  0  0  0  0  0  0  0
   23.1907   -9.2828  -17.0768 N   0  0  0  0  0  0  0  0  0  0  0  0
   24.2440   -7.1980  -16.8662 C   0  0  0  0  0  0  0  0  0  0  0  0
   24.9867   -6.3012  -16.0593 O   0  0  0  0  0  0  0  0  0  0  0  0
   23.4058   -6.6337  -17.6024 O   0  0  0  0  0  0  0  0  0  0  0  0
  2  4  1  0
  2  1  1  0
  3  2  2  0
  5  4  1  0
  6  5  1  0
  6  7  1  1
  8  6  1  0
  9  8  2  0
 10  8  1  0
 11 12  1  1
 11 10  1  0
 12 13  1  0
 13 17  1  0
 13 14  2  0
 14 15  1  0
 16 15  1  0
 17 16  2  0
 18 11  1  0
 19 18  2  0
 20 21  1  0
 21 22  2  0
 23 21  1  0
 24 23  1  0
 25 24  1  0
 27 26  1  6
 26 25  1  0
 27 28  1  0
 28 18  1  0
 29 27  1  0
 29 30  1  0
 31 29  2  0
M  END
$$$$
