QHR.pdb
     RDKit          3D

 31 31  0  0  1  0  0  0  0  0999 V2000
   27.2359  -18.4381  -15.0953 N   0  0  0  0  0  0  0  0  0  0  0  0
   27.2892  -19.6945  -15.7580 C   0  0  0  0  0  0  0  0  0  0  0  0
   28.1057  -19.8890  -16.7147 O   0  0  0  0  0  0  0  0  0  0  0  0
   26.3864  -20.7849  -15.3303 C   0  0  0  0  0  0  0  0  0  0  0  0
   25.4943  -20.3452  -14.1885 C   0  0  0  0  0  0  0  0  0  0  0  0
   24.7625  -21.5542  -13.6771 C   0  0  2  0  0  0  0  0  0  0  0  0
   24.7749  -22.6446  -14.6309 N   0  0  0  0  0  0  0  0  0  0  0  0
   23.3691  -21.2222  -13.2535 C   0  0  0  0  0  0  0  0  0  0  0  0
   23.1783  -20.2901  -12.4118 O   0  0  0  0  0  0  0  0  0  0  0  0
   22.2156  -21.8917  -13.7376 N   0  0  0  0  0  0  0  0  0  0  0  0
   20.8950  -21.5330  -13.1893 C   0  0  1  0  0  0  0  0  0  0  0  0
   20.0687  -20.8494  -14.2571 C   0  0  0  0  0  0  0  0  0  0  0  0
   20.5238  -19.4529  -14.4057 C   0  0  0  0  0  0  0  0  0  0  0  0
   21.2157  -18.9683  -15.5076 C   0  0  0  0  0  0  0  0  0  0  0  0
   21.4862  -17.6678  -15.3464 N   0  0  0  0  0  0  0  0  0  0  0  0
   20.9821  -17.3056  -14.1627 C   0  0  0  0  0  0  0  0  0  0  0  0
   20.4063  -18.3816  -13.6040 N   0  0  0  0  0  0  0  0  0  0  0  0
   20.1960  -22.7476  -12.7126 C   0  0  0  0  0  0  0  0  0  0  0  0
   20.1172  -23.8041  -13.3877 O   0  0  0  0  0  0  0  0  0  0  0  0
   17.0829  -24.9785   -4.6751 N   0  0  0  0  0  0  0  0  0  0  0  0
   18.2701  -25.4461   -5.2938 C   0  0  0  0  0  0  0  0  0  0  0  0
   19.2585  -25.8781   -4.5933 N   0  0  0  0  0  0  0  0  0  0  0  0
   18.4169  -25.4587   -6.7221 N   0  0  0  0  0  0  0  0  0  0  0  0
   17.3563  -25.1001   -7.6158 C   0  0  0  0  0  0  0  0  0  0  0  0
   17.7624  -25.1003   -9.0580 C   0  0  0  0  0  0  0  0  0  0  0  0
   18.5181  -23.8849   -9.5037 C   0  0  0  0  0  0  0  0  0  0  0  0
   18.8164  -23.9874  -10.9792 C   0  0  2  0  0  0  0  0  0  0  0  0
   19.5519  -22.8066  -11.4319 N   0  0  0  0  0  0  0  0  0  0  0  0
   17.6237  -24.0795  -11.8337 C   0  0  0  0  0  0  0  0  0  0  0  0
   17.1812  -25.3273  -12.3377 O   0  0  0  0  0  0  0  0  0  0  0  0
   16.9111  -23.1148  -12.1870 O   0  0  0  0  0  0  0  0  0  0  0  0
  2  4  1  0
  2  1  1  0
  3  2  2  0
  5  4  1  0
  6  5  1  0
  6  7  1  6
  8  6  1  0
  9  8  2  0
 10  8  1  0
 11 12  1  6
 11 10  1  0
 12 13  1  0
 13 17  1  0
 13 14  2  0
 14 15  1  0
 16 15  1  0
 17 16  2  0
 18 11  1  0
 19 18  2  0
 20 21  1  0
 21 22  2  0
 23 21  1  0
 24 23  1  0
 25 24  1  0
 27 26  1  1
 26 25  1  0
 27 28  1  0
 28 18  1  0
 29 27  1  0
 29 30  1  0
 31 29  2  0
M  END
$$$$
