QHR.pdb
     RDKit          3D

 31 31  0  0  1  0  0  0  0  0999 V2000
   24.7758  -13.0895  -16.3658 N   0  0  0  0  0  0  0  0  0  0  0  0
   26.1141  -12.8687  -15.9407 C   0  0  0  0  0  0  0  0  0  0  0  0
   26.6866  -11.7523  -16.1542 O   0  0  0  0  0  0  0  0  0  0  0  0
   26.8466  -13.9479  -15.2438 C   0  0  0  0  0  0  0  0  0  0  0  0
   25.9806  -15.1777  -15.0692 C   0  0  0  0  0  0  0  0  0  0  0  0
   26.3458  -16.1612  -16.1452 C   0  0  2  0  0  0  0  0  0  0  0  0
   25.8651  -15.7492  -17.4484 N   0  0  0  0  0  0  0  0  0  0  0  0
   25.8886  -17.5438  -15.8127 C   0  0  0  0  0  0  0  0  0  0  0  0
   24.7268  -17.9182  -16.1645 O   0  0  0  0  0  0  0  0  0  0  0  0
   26.6809  -18.4912  -15.1142 N   0  0  0  0  0  0  0  0  0  0  0  0
   26.0897  -19.7919  -14.7509 C   0  0  1  0  0  0  0  0  0  0  0  0
   26.9589  -20.9122  -15.2798 C   0  0  0  0  0  0  0  0  0  0  0  0
   26.3616  -22.2097  -14.9071 C   0  0  0  0  0  0  0  0  0  0  0  0
   25.1934  -22.3507  -14.1701 C   0  0  0  0  0  0  0  0  0  0  0  0
   24.9111  -23.6472  -13.9974 N   0  0  0  0  0  0  0  0  0  0  0  0
   25.8744  -24.3436  -14.6086 C   0  0  0  0  0  0  0  0  0  0  0  0
   26.7411  -23.4748  -15.1520 N   0  0  0  0  0  0  0  0  0  0  0  0
   25.9676  -19.9012  -13.2798 C   0  0  0  0  0  0  0  0  0  0  0  0
   26.8721  -20.3768  -12.5491 O   0  0  0  0  0  0  0  0  0  0  0  0
   17.9771  -22.6816  -11.7385 N   0  0  0  0  0  0  0  0  0  0  0  0
   18.6228  -21.7615  -12.6030 C   0  0  0  0  0  0  0  0  0  0  0  0
   17.9451  -20.9859  -13.3734 N   0  0  0  0  0  0  0  0  0  0  0  0
   20.0540  -21.6564  -12.6530 N   0  0  0  0  0  0  0  0  0  0  0  0
   20.9219  -22.4825  -11.8679 C   0  0  0  0  0  0  0  0  0  0  0  0
   22.0982  -21.7473  -11.3015 C   0  0  0  0  0  0  0  0  0  0  0  0
   22.8102  -20.8501  -12.2684 C   0  0  0  0  0  0  0  0  0  0  0  0
   24.0799  -20.3331  -11.6381 C   0  0  2  0  0  0  0  0  0  0  0  0
   24.7958  -19.4670  -12.5749 N   0  0  0  0  0  0  0  0  0  0  0  0
   25.0306  -21.3822  -11.2420 C   0  0  0  0  0  0  0  0  0  0  0  0
   25.4372  -21.5274   -9.8927 O   0  0  0  0  0  0  0  0  0  0  0  0
   25.5532  -22.2139  -12.0155 O   0  0  0  0  0  0  0  0  0  0  0  0
  2  4  1  0
  2  1  1  0
  3  2  2  0
  5  4  1  0
  6  5  1  0
  6  7  1  6
  8  6  1  0
  9  8  2  0
 10  8  1  0
 11 12  1  1
 11 10  1  0
 12 13  1  0
 13 17  1  0
 13 14  2  0
 14 15  1  0
 16 15  1  0
 17 16  2  0
 18 11  1  0
 19 18  2  0
 20 21  1  0
 21 22  2  0
 23 21  1  0
 24 23  1  0
 25 24  1  0
 27 26  1  6
 26 25  1  0
 27 28  1  0
 28 18  1  0
 29 27  1  0
 29 30  1  0
 31 29  2  0
M  END
$$$$
