QHR.pdb
     RDKit          3D

 31 31  0  0  1  0  0  0  0  0999 V2000
   24.9348  -15.2081  -15.5465 N   0  0  0  0  0  0  0  0  0  0  0  0
   24.5388  -15.2243  -16.9115 C   0  0  0  0  0  0  0  0  0  0  0  0
   24.5457  -14.1549  -17.6016 O   0  0  0  0  0  0  0  0  0  0  0  0
   24.1149  -16.4969  -17.5341 C   0  0  0  0  0  0  0  0  0  0  0  0
   24.2780  -17.6592  -16.5774 C   0  0  0  0  0  0  0  0  0  0  0  0
   25.5003  -18.4316  -16.9870 C   0  0  2  0  0  0  0  0  0  0  0  0
   25.2796  -19.2053  -18.1919 N   0  0  0  0  0  0  0  0  0  0  0  0
   26.0113  -19.2920  -15.8781 C   0  0  0  0  0  0  0  0  0  0  0  0
   25.3182  -20.2819  -15.4865 O   0  0  0  0  0  0  0  0  0  0  0  0
   27.2472  -19.0755  -15.2156 N   0  0  0  0  0  0  0  0  0  0  0  0
   27.5701  -19.8758  -14.0204 C   0  0  1  0  0  0  0  0  0  0  0  0
   29.0199  -19.6638  -13.6417 C   0  0  0  0  0  0  0  0  0  0  0  0
   29.3217  -20.4339  -12.4189 C   0  0  0  0  0  0  0  0  0  0  0  0
   28.4287  -21.2955  -11.7963 C   0  0  0  0  0  0  0  0  0  0  0  0
   28.9950  -21.8436  -10.7149 N   0  0  0  0  0  0  0  0  0  0  0  0
   30.2348  -21.3517  -10.6290 C   0  0  0  0  0  0  0  0  0  0  0  0
   30.4239  -20.5067  -11.6545 N   0  0  0  0  0  0  0  0  0  0  0  0
   26.6932  -19.4835  -12.8943 C   0  0  0  0  0  0  0  0  0  0  0  0
   26.2861  -18.3082  -12.7182 O   0  0  0  0  0  0  0  0  0  0  0  0
   22.6285  -21.9318  -15.4822 N   0  0  0  0  0  0  0  0  0  0  0  0
   21.7326  -22.5594  -14.5799 C   0  0  0  0  0  0  0  0  0  0  0  0
   21.1806  -23.6852  -14.8670 N   0  0  0  0  0  0  0  0  0  0  0  0
   21.4071  -21.9680  -13.3126 N   0  0  0  0  0  0  0  0  0  0  0  0
   22.0100  -20.7566  -12.8424 C   0  0  0  0  0  0  0  0  0  0  0  0
   23.2633  -20.9788  -12.0519 C   0  0  0  0  0  0  0  0  0  0  0  0
   23.9296  -19.7309  -11.5563 C   0  0  0  0  0  0  0  0  0  0  0  0
   25.2415  -20.0841  -10.9000 C   0  0  2  0  0  0  0  0  0  0  0  0
   26.2400  -20.4269  -11.9129 N   0  0  0  0  0  0  0  0  0  0  0  0
   25.1722  -21.2348   -9.9875 C   0  0  0  0  0  0  0  0  0  0  0  0
   25.9213  -22.4109  -10.2376 O   0  0  0  0  0  0  0  0  0  0  0  0
   24.4800  -21.2926   -8.9481 O   0  0  0  0  0  0  0  0  0  0  0  0
  2  4  1  0
  2  1  1  0
  3  2  2  0
  5  4  1  0
  6  5  1  0
  6  7  1  6
  8  6  1  0
  9  8  2  0
 10  8  1  0
 11 12  1  1
 11 10  1  0
 12 13  1  0
 13 17  1  0
 13 14  2  0
 14 15  1  0
 16 15  1  0
 17 16  2  0
 18 11  1  0
 19 18  2  0
 20 21  1  0
 21 22  2  0
 23 21  1  0
 24 23  1  0
 25 24  1  0
 27 26  1  6
 26 25  1  0
 27 28  1  0
 28 18  1  0
 29 27  1  0
 29 30  1  0
 31 29  2  0
M  END
$$$$
