QHR.pdb
     RDKit          3D

 31 31  0  0  1  0  0  0  0  0999 V2000
   25.2079  -31.6247   -6.9916 N   0  0  0  0  0  0  0  0  0  0  0  0
   25.2930  -32.1892   -8.2933 C   0  0  0  0  0  0  0  0  0  0  0  0
   26.4201  -32.3264   -8.8683 O   0  0  0  0  0  0  0  0  0  0  0  0
   24.0591  -32.6208   -8.9846 C   0  0  0  0  0  0  0  0  0  0  0  0
   22.8298  -32.3304   -8.1495 C   0  0  0  0  0  0  0  0  0  0  0  0
   22.7147  -33.4016   -7.1017 C   0  0  2  0  0  0  0  0  0  0  0  0
   22.4172  -34.6980   -7.6759 N   0  0  0  0  0  0  0  0  0  0  0  0
   21.7254  -33.0392   -6.0429 C   0  0  0  0  0  0  0  0  0  0  0  0
   20.7114  -32.3384   -6.3502 O   0  0  0  0  0  0  0  0  0  0  0  0
   21.8419  -33.4330   -4.6848 N   0  0  0  0  0  0  0  0  0  0  0  0
   20.7708  -33.0711   -3.7386 C   0  0  1  0  0  0  0  0  0  0  0  0
   20.5498  -34.2052   -2.7613 C   0  0  0  0  0  0  0  0  0  0  0  0
   19.8065  -35.2895   -3.4331 C   0  0  0  0  0  0  0  0  0  0  0  0
   19.2094  -35.1724   -4.6810 C   0  0  0  0  0  0  0  0  0  0  0  0
   18.6150  -36.3232   -5.0172 N   0  0  0  0  0  0  0  0  0  0  0  0
   18.8175  -37.1785   -4.0103 C   0  0  0  0  0  0  0  0  0  0  0  0
   19.5330  -36.5516   -3.0635 N   0  0  0  0  0  0  0  0  0  0  0  0
   21.1361  -31.8384   -3.0051 C   0  0  0  0  0  0  0  0  0  0  0  0
   22.2670  -31.6559   -2.4895 O   0  0  0  0  0  0  0  0  0  0  0  0
   16.9917  -25.2655   -6.0573 N   0  0  0  0  0  0  0  0  0  0  0  0
   16.2704  -26.0538   -5.1250 C   0  0  0  0  0  0  0  0  0  0  0  0
   15.0033  -25.9010   -4.9656 N   0  0  0  0  0  0  0  0  0  0  0  0
   16.9213  -27.0528   -4.3249 N   0  0  0  0  0  0  0  0  0  0  0  0
   18.3364  -27.0701   -4.1028 C   0  0  0  0  0  0  0  0  0  0  0  0
   18.7935  -28.2069   -3.2404 C   0  0  0  0  0  0  0  0  0  0  0  0
   20.2796  -28.3273   -3.0857 C   0  0  0  0  0  0  0  0  0  0  0  0
   20.6018  -29.4954   -2.1867 C   0  0  2  0  0  0  0  0  0  0  0  0
   20.2158  -30.7520   -2.8287 N   0  0  0  0  0  0  0  0  0  0  0  0
   19.9117  -29.4697   -0.8888 C   0  0  0  0  0  0  0  0  0  0  0  0
   20.2964  -28.5576    0.1246 O   0  0  0  0  0  0  0  0  0  0  0  0
   18.9611  -30.2124   -0.5606 O   0  0  0  0  0  0  0  0  0  0  0  0
  2  4  1  0
  2  1  1  0
  3  2  2  0
  5  4  1  0
  6  5  1  0
  6  7  1  6
  8  6  1  0
  9  8  2  0
 10  8  1  0
 11 12  1  1
 11 10  1  0
 12 13  1  0
 13 17  1  0
 13 14  2  0
 14 15  1  0
 16 15  1  0
 17 16  2  0
 18 11  1  0
 19 18  2  0
 20 21  1  0
 21 22  2  0
 23 21  1  0
 24 23  1  0
 25 24  1  0
 27 26  1  6
 26 25  1  0
 27 28  1  0
 28 18  1  0
 29 27  1  0
 29 30  1  0
 31 29  2  0
M  END
$$$$
