QHR.pdb
     RDKit          3D

 31 31  0  0  1  0  0  0  0  0999 V2000
   24.0502   -6.5749  -17.2224 N   0  0  0  0  0  0  0  0  0  0  0  0
   24.7359   -7.8159  -17.1221 C   0  0  0  0  0  0  0  0  0  0  0  0
   25.9908   -7.8817  -17.3240 O   0  0  0  0  0  0  0  0  0  0  0  0
   23.9823   -9.0414  -16.7799 C   0  0  0  0  0  0  0  0  0  0  0  0
   22.5071   -8.7494  -16.6033 C   0  0  0  0  0  0  0  0  0  0  0  0
   22.2711   -8.3976  -15.1614 C   0  0  2  0  0  0  0  0  0  0  0  0
   22.7988   -9.4021  -14.2604 N   0  0  0  0  0  0  0  0  0  0  0  0
   20.8285   -8.1271  -14.8844 C   0  0  0  0  0  0  0  0  0  0  0  0
   20.1047   -7.6124  -15.7926 O   0  0  0  0  0  0  0  0  0  0  0  0
   20.1947   -8.4119  -13.6473 N   0  0  0  0  0  0  0  0  0  0  0  0
   18.7299   -8.2809  -13.5449 C   0  0  1  0  0  0  0  0  0  0  0  0
   18.0890   -9.6494  -13.6266 C   0  0  0  0  0  0  0  0  0  0  0  0
   17.7577   -9.9490  -15.0337 C   0  0  0  0  0  0  0  0  0  0  0  0
   17.8467   -9.0307  -16.0712 C   0  0  0  0  0  0  0  0  0  0  0  0
   17.4809   -9.6019  -17.2247 N   0  0  0  0  0  0  0  0  0  0  0  0
   17.1582  -10.8695  -16.9502 C   0  0  0  0  0  0  0  0  0  0  0  0
   17.3267  -11.0707  -15.6339 N   0  0  0  0  0  0  0  0  0  0  0  0
   18.3664   -7.6303  -12.2660 C   0  0  0  0  0  0  0  0  0  0  0  0
   18.8961   -7.9315  -11.1675 O   0  0  0  0  0  0  0  0  0  0  0  0
   12.5649   -9.6353   -7.4152 N   0  0  0  0  0  0  0  0  0  0  0  0
   12.5017   -8.3183   -7.9370 C   0  0  0  0  0  0  0  0  0  0  0  0
   11.4047   -7.6471   -7.9154 N   0  0  0  0  0  0  0  0  0  0  0  0
   13.6553   -7.6809   -8.5069 N   0  0  0  0  0  0  0  0  0  0  0  0
   14.9324   -8.3232   -8.5986 C   0  0  0  0  0  0  0  0  0  0  0  0
   16.0169   -7.4290   -9.1175 C   0  0  0  0  0  0  0  0  0  0  0  0
   15.7062   -6.7419  -10.4130 C   0  0  0  0  0  0  0  0  0  0  0  0
   16.9364   -6.0264  -10.9140 C   0  0  2  0  0  0  0  0  0  0  0  0
   17.3729   -6.5981  -12.1879 N   0  0  0  0  0  0  0  0  0  0  0  0
   18.0940   -6.1064  -10.0112 C   0  0  0  0  0  0  0  0  0  0  0  0
   18.1193   -5.3868   -8.7911 O   0  0  0  0  0  0  0  0  0  0  0  0
   19.1248   -6.7837  -10.2155 O   0  0  0  0  0  0  0  0  0  0  0  0
  2  4  1  0
  2  1  1  0
  3  2  2  0
  5  4  1  0
  6  5  1  0
  6  7  1  1
  8  6  1  0
  9  8  2  0
 10  8  1  0
 11 12  1  1
 11 10  1  0
 12 13  1  0
 13 17  1  0
 13 14  2  0
 14 15  1  0
 16 15  1  0
 17 16  2  0
 18 11  1  0
 19 18  2  0
 20 21  1  0
 21 22  2  0
 23 21  1  0
 24 23  1  0
 25 24  1  0
 27 26  1  1
 26 25  1  0
 27 28  1  0
 28 18  1  0
 29 27  1  0
 29 30  1  0
 31 29  2  0
M  END
$$$$
