QHR.pdb
     RDKit          3D

 31 31  0  0  1  0  0  0  0  0999 V2000
   19.5874  -19.8528  -12.2514 N   0  0  0  0  0  0  0  0  0  0  0  0
   19.7828  -21.2168  -12.6002 C   0  0  0  0  0  0  0  0  0  0  0  0
   18.9857  -22.1147  -12.1781 O   0  0  0  0  0  0  0  0  0  0  0  0
   20.9237  -21.5943  -13.4620 C   0  0  0  0  0  0  0  0  0  0  0  0
   21.7571  -20.3857  -13.8329 C   0  0  0  0  0  0  0  0  0  0  0  0
   21.7432  -20.2519  -15.3297 C   0  0  2  0  0  0  0  0  0  0  0  0
   22.1897  -21.4614  -15.9907 N   0  0  0  0  0  0  0  0  0  0  0  0
   22.5250  -19.0648  -15.7887 C   0  0  0  0  0  0  0  0  0  0  0  0
   22.2570  -17.9187  -15.3108 O   0  0  0  0  0  0  0  0  0  0  0  0
   23.5716  -19.1296  -16.7445 N   0  0  0  0  0  0  0  0  0  0  0  0
   24.2746  -17.8904  -17.1235 C   0  0  1  0  0  0  0  0  0  0  0  0
   25.5953  -18.2337  -17.7779 C   0  0  0  0  0  0  0  0  0  0  0  0
   26.4209  -19.0096  -16.8314 C   0  0  0  0  0  0  0  0  0  0  0  0
   26.0537  -19.2929  -15.5227 C   0  0  0  0  0  0  0  0  0  0  0  0
   27.0087  -20.0121  -14.9217 N   0  0  0  0  0  0  0  0  0  0  0  0
   27.9833  -20.1973  -15.8174 C   0  0  0  0  0  0  0  0  0  0  0  0
   27.6238  -19.5931  -16.9607 N   0  0  0  0  0  0  0  0  0  0  0  0
   23.4414  -17.0987  -18.0562 C   0  0  0  0  0  0  0  0  0  0  0  0
   22.6443  -17.6193  -18.8757 O   0  0  0  0  0  0  0  0  0  0  0  0
   18.4060  -12.8423  -15.4346 N   0  0  0  0  0  0  0  0  0  0  0  0
   19.0241  -11.7629  -16.1155 C   0  0  0  0  0  0  0  0  0  0  0  0
   19.1711  -10.6173  -15.5495 N   0  0  0  0  0  0  0  0  0  0  0  0
   19.5116  -11.9037  -17.4588 N   0  0  0  0  0  0  0  0  0  0  0  0
   19.2593  -13.0644  -18.2595 C   0  0  0  0  0  0  0  0  0  0  0  0
   20.4782  -13.5883  -18.9559 C   0  0  0  0  0  0  0  0  0  0  0  0
   21.3761  -14.4382  -18.1085 C   0  0  0  0  0  0  0  0  0  0  0  0
   22.5719  -14.8748  -18.9184 C   0  0  2  0  0  0  0  0  0  0  0  0
   23.4842  -15.6651  -18.0917 N   0  0  0  0  0  0  0  0  0  0  0  0
   23.3700  -13.7680  -19.4657 C   0  0  0  0  0  0  0  0  0  0  0  0
   23.2353  -13.3702  -20.8187 O   0  0  0  0  0  0  0  0  0  0  0  0
   24.2085  -13.0962  -18.8266 O   0  0  0  0  0  0  0  0  0  0  0  0
  2  4  1  0
  2  1  1  0
  3  2  2  0
  5  4  1  0
  6  5  1  0
  6  7  1  6
  8  6  1  0
  9  8  2  0
 10  8  1  0
 11 12  1  6
 11 10  1  0
 12 13  1  0
 13 17  1  0
 13 14  2  0
 14 15  1  0
 16 15  1  0
 17 16  2  0
 18 11  1  0
 19 18  2  0
 20 21  1  0
 21 22  2  0
 23 21  1  0
 24 23  1  0
 25 24  1  0
 27 26  1  1
 26 25  1  0
 27 28  1  0
 28 18  1  0
 29 27  1  0
 29 30  1  0
 31 29  2  0
M  END
$$$$
