QHR.pdb
     RDKit          3D

 31 31  0  0  1  0  0  0  0  0999 V2000
   24.0333  -25.8631  -16.6358 N   0  0  0  0  0  0  0  0  0  0  0  0
   25.3008  -26.0058  -17.2632 C   0  0  0  0  0  0  0  0  0  0  0  0
   25.6135  -27.0886  -17.8546 O   0  0  0  0  0  0  0  0  0  0  0  0
   26.2641  -24.8844  -17.2274 C   0  0  0  0  0  0  0  0  0  0  0  0
   25.6951  -23.6932  -16.4858 C   0  0  0  0  0  0  0  0  0  0  0  0
   26.4224  -22.4634  -16.9520 C   0  0  2  0  0  0  0  0  0  0  0  0
   27.8372  -22.5158  -16.6444 N   0  0  0  0  0  0  0  0  0  0  0  0
   25.7994  -21.2143  -16.4203 C   0  0  0  0  0  0  0  0  0  0  0  0
   26.0064  -20.8791  -15.2126 O   0  0  0  0  0  0  0  0  0  0  0  0
   24.9722  -20.3551  -17.1889 N   0  0  0  0  0  0  0  0  0  0  0  0
   24.3695  -19.1743  -16.5443 C   0  0  1  0  0  0  0  0  0  0  0  0
   24.7508  -17.9257  -17.3097 C   0  0  0  0  0  0  0  0  0  0  0  0
   26.2001  -17.6868  -17.1612 C   0  0  0  0  0  0  0  0  0  0  0  0
   27.0425  -18.4541  -16.3680 C   0  0  0  0  0  0  0  0  0  0  0  0
   28.2951  -17.9894  -16.4423 N   0  0  0  0  0  0  0  0  0  0  0  0
   28.2757  -16.9382  -17.2676 C   0  0  0  0  0  0  0  0  0  0  0  0
   27.0156  -16.7625  -17.6950 N   0  0  0  0  0  0  0  0  0  0  0  0
   22.8962  -19.3121  -16.5079 C   0  0  0  0  0  0  0  0  0  0  0  0
   22.2084  -19.6011  -17.5186 O   0  0  0  0  0  0  0  0  0  0  0  0
   24.3940  -22.8416  -12.9029 N   0  0  0  0  0  0  0  0  0  0  0  0
   23.3890  -23.8184  -13.1184 C   0  0  0  0  0  0  0  0  0  0  0  0
   23.6911  -25.0585  -13.2777 N   0  0  0  0  0  0  0  0  0  0  0  0
   21.9978  -23.4658  -13.1657 N   0  0  0  0  0  0  0  0  0  0  0  0
   21.5290  -22.1250  -12.9797 C   0  0  0  0  0  0  0  0  0  0  0  0
   20.8476  -21.5558  -14.1866 C   0  0  0  0  0  0  0  0  0  0  0  0
   20.3370  -20.1558  -14.0248 C   0  0  0  0  0  0  0  0  0  0  0  0
   20.6944  -19.3427  -15.2445 C   0  0  2  0  0  0  0  0  0  0  0  0
   22.1396  -19.1239  -15.3034 N   0  0  0  0  0  0  0  0  0  0  0  0
   20.0763  -18.0094  -15.2864 C   0  0  0  0  0  0  0  0  0  0  0  0
   18.7320  -17.8406  -15.7001 O   0  0  0  0  0  0  0  0  0  0  0  0
   20.6440  -16.9393  -14.9769 O   0  0  0  0  0  0  0  0  0  0  0  0
  2  4  1  0
  2  1  1  0
  3  2  2  0
  5  4  1  0
  6  5  1  0
  6  7  1  1
  8  6  1  0
  9  8  2  0
 10  8  1  0
 11 12  1  6
 11 10  1  0
 12 13  1  0
 13 17  1  0
 13 14  2  0
 14 15  1  0
 16 15  1  0
 17 16  2  0
 18 11  1  0
 19 18  2  0
 20 21  1  0
 21 22  2  0
 23 21  1  0
 24 23  1  0
 25 24  1  0
 27 26  1  1
 26 25  1  0
 27 28  1  0
 28 18  1  0
 29 27  1  0
 29 30  1  0
 31 29  2  0
M  END
$$$$
