QHR.pdb
     RDKit          3D

 31 31  0  0  1  0  0  0  0  0999 V2000
   25.4862  -18.7202  -20.2557 N   0  0  0  0  0  0  0  0  0  0  0  0
   25.0501  -18.0451  -21.4280 C   0  0  0  0  0  0  0  0  0  0  0  0
   25.2392  -16.7939  -21.5642 O   0  0  0  0  0  0  0  0  0  0  0  0
   24.3703  -18.8055  -22.4988 C   0  0  0  0  0  0  0  0  0  0  0  0
   24.3053  -20.2820  -22.1694 C   0  0  0  0  0  0  0  0  0  0  0  0
   25.6703  -20.8697  -22.3932 C   0  0  2  0  0  0  0  0  0  0  0  0
   25.8992  -21.2060  -23.7837 N   0  0  0  0  0  0  0  0  0  0  0  0
   25.9223  -22.0434  -21.5044 C   0  0  0  0  0  0  0  0  0  0  0  0
   25.1939  -23.0782  -21.6160 O   0  0  0  0  0  0  0  0  0  0  0  0
   26.9437  -22.0843  -20.5204 N   0  0  0  0  0  0  0  0  0  0  0  0
   27.1118  -23.3052  -19.7114 C   0  0  1  0  0  0  0  0  0  0  0  0
   28.5348  -23.3874  -19.2028 C   0  0  0  0  0  0  0  0  0  0  0  0
   28.7051  -24.6345  -18.4314 C   0  0  0  0  0  0  0  0  0  0  0  0
   27.6994  -25.5683  -18.2213 C   0  0  0  0  0  0  0  0  0  0  0  0
   28.1624  -26.5870  -17.4874 N   0  0  0  0  0  0  0  0  0  0  0  0
   29.4462  -26.3273  -17.2210 C   0  0  0  0  0  0  0  0  0  0  0  0
   29.7649  -25.1545  -17.7904 N   0  0  0  0  0  0  0  0  0  0  0  0
   26.1693  -23.2920  -18.5701 C   0  0  0  0  0  0  0  0  0  0  0  0
   25.9502  -22.2707  -17.8723 O   0  0  0  0  0  0  0  0  0  0  0  0
   22.5125  -30.4987  -15.4692 N   0  0  0  0  0  0  0  0  0  0  0  0
   21.9998  -29.4567  -16.2829 C   0  0  0  0  0  0  0  0  0  0  0  0
   20.9707  -29.6436  -17.0314 N   0  0  0  0  0  0  0  0  0  0  0  0
   22.6044  -28.1544  -16.3037 N   0  0  0  0  0  0  0  0  0  0  0  0
   23.8262  -27.8536  -15.6190 C   0  0  0  0  0  0  0  0  0  0  0  0
   24.3100  -26.4536  -15.8442 C   0  0  0  0  0  0  0  0  0  0  0  0
   23.7145  -25.7606  -17.0325 C   0  0  0  0  0  0  0  0  0  0  0  0
   24.3462  -24.4000  -17.1940 C   0  0  2  0  0  0  0  0  0  0  0  0
   25.4302  -24.4564  -18.1747 N   0  0  0  0  0  0  0  0  0  0  0  0
   24.9362  -23.8557  -15.9623 C   0  0  0  0  0  0  0  0  0  0  0  0
   24.1247  -23.2612  -14.9648 O   0  0  0  0  0  0  0  0  0  0  0  0
   26.1543  -23.8606  -15.6806 O   0  0  0  0  0  0  0  0  0  0  0  0
  2  4  1  0
  2  1  1  0
  3  2  2  0
  5  4  1  0
  6  5  1  0
  6  7  1  6
  8  6  1  0
  9  8  2  0
 10  8  1  0
 11 12  1  1
 11 10  1  0
 12 13  1  0
 13 17  1  0
 13 14  2  0
 14 15  1  0
 16 15  1  0
 17 16  2  0
 18 11  1  0
 19 18  2  0
 20 21  1  0
 21 22  2  0
 23 21  1  0
 24 23  1  0
 25 24  1  0
 27 26  1  1
 26 25  1  0
 27 28  1  0
 28 18  1  0
 29 27  1  0
 29 30  1  0
 31 29  2  0
M  END
$$$$
