QHR.pdb
     RDKit          3D

 31 31  0  0  1  0  0  0  0  0999 V2000
   30.8865  -20.4542   -9.8790 N   0  0  0  0  0  0  0  0  0  0  0  0
   30.5437  -21.2066  -11.0353 C   0  0  0  0  0  0  0  0  0  0  0  0
   31.4043  -21.9540  -11.6014 O   0  0  0  0  0  0  0  0  0  0  0  0
   29.1734  -21.1187  -11.5843 C   0  0  0  0  0  0  0  0  0  0  0  0
   28.3441  -20.0976  -10.8343 C   0  0  0  0  0  0  0  0  0  0  0  0
   26.9598  -20.6569  -10.6629 C   0  0  2  0  0  0  0  0  0  0  0  0
   26.9488  -22.1055  -10.6873 N   0  0  0  0  0  0  0  0  0  0  0  0
   26.0046  -20.0921  -11.6627 C   0  0  0  0  0  0  0  0  0  0  0  0
   24.7587  -20.1125  -11.4158 O   0  0  0  0  0  0  0  0  0  0  0  0
   26.4015  -19.5203  -12.8991 N   0  0  0  0  0  0  0  0  0  0  0  0
   26.0759  -20.2247  -14.1525 C   0  0  1  0  0  0  0  0  0  0  0  0
   26.7019  -21.6025  -14.1401 C   0  0  0  0  0  0  0  0  0  0  0  0
   26.2567  -22.3507  -15.3323 C   0  0  0  0  0  0  0  0  0  0  0  0
   25.2969  -21.8975  -16.2274 C   0  0  0  0  0  0  0  0  0  0  0  0
   25.1130  -22.7973  -17.2006 N   0  0  0  0  0  0  0  0  0  0  0  0
   25.9354  -23.8206  -16.9497 C   0  0  0  0  0  0  0  0  0  0  0  0
   26.6183  -23.5458  -15.8274 N   0  0  0  0  0  0  0  0  0  0  0  0
   24.6080  -20.3401  -14.3037 C   0  0  0  0  0  0  0  0  0  0  0  0
   23.8923  -21.0396  -13.5443 O   0  0  0  0  0  0  0  0  0  0  0  0
   19.2310  -14.7975  -18.7557 N   0  0  0  0  0  0  0  0  0  0  0  0
   19.7580  -16.0262  -19.2283 C   0  0  0  0  0  0  0  0  0  0  0  0
   19.8578  -16.2656  -20.4880 N   0  0  0  0  0  0  0  0  0  0  0  0
   20.2021  -17.0494  -18.3239 N   0  0  0  0  0  0  0  0  0  0  0  0
   20.0230  -16.9641  -16.9052 C   0  0  0  0  0  0  0  0  0  0  0  0
   20.5501  -18.1537  -16.1623 C   0  0  0  0  0  0  0  0  0  0  0  0
   22.0446  -18.2562  -16.1085 C   0  0  0  0  0  0  0  0  0  0  0  0
   22.4401  -19.4594  -15.2886 C   0  0  2  0  0  0  0  0  0  0  0  0
   23.8892  -19.6541  -15.3388 N   0  0  0  0  0  0  0  0  0  0  0  0
   21.8412  -20.7239  -15.7402 C   0  0  0  0  0  0  0  0  0  0  0  0
   20.6146  -21.1842  -15.2013 O   0  0  0  0  0  0  0  0  0  0  0  0
   22.3273  -21.4865  -16.6034 O   0  0  0  0  0  0  0  0  0  0  0  0
  2  4  1  0
  2  1  1  0
  3  2  2  0
  5  4  1  0
  6  5  1  0
  6  7  1  6
  8  6  1  0
  9  8  2  0
 10  8  1  0
 11 12  1  1
 11 10  1  0
 12 13  1  0
 13 17  1  0
 13 14  2  0
 14 15  1  0
 16 15  1  0
 17 16  2  0
 18 11  1  0
 19 18  2  0
 20 21  1  0
 21 22  2  0
 23 21  1  0
 24 23  1  0
 25 24  1  0
 27 26  1  6
 26 25  1  0
 27 28  1  0
 28 18  1  0
 29 27  1  0
 29 30  1  0
 31 29  2  0
M  END
$$$$
