QHR.pdb
     RDKit          3D

 31 31  0  0  1  0  0  0  0  0999 V2000
   16.8387  -10.7588  -17.5669 N   0  0  0  0  0  0  0  0  0  0  0  0
   17.8338  -11.7372  -17.8363 C   0  0  0  0  0  0  0  0  0  0  0  0
   17.7750  -12.4494  -18.8895 O   0  0  0  0  0  0  0  0  0  0  0  0
   18.9476  -11.9283  -16.8824 C   0  0  0  0  0  0  0  0  0  0  0  0
   18.7939  -11.0340  -15.6702 C   0  0  0  0  0  0  0  0  0  0  0  0
   20.0017  -10.1431  -15.5925 C   0  0  2  0  0  0  0  0  0  0  0  0
   21.2095  -10.8215  -16.0168 N   0  0  0  0  0  0  0  0  0  0  0  0
   20.1658   -9.5469  -14.2328 C   0  0  0  0  0  0  0  0  0  0  0  0
   21.0021  -10.0576  -13.4245 O   0  0  0  0  0  0  0  0  0  0  0  0
   19.4349   -8.4223  -13.7699 N   0  0  0  0  0  0  0  0  0  0  0  0
   19.7373   -7.8693  -12.4373 C   0  0  1  0  0  0  0  0  0  0  0  0
   21.1425   -7.3074  -12.4257 C   0  0  0  0  0  0  0  0  0  0  0  0
   21.2678   -6.2869  -13.4851 C   0  0  0  0  0  0  0  0  0  0  0  0
   20.2523   -5.9475  -14.3689 C   0  0  0  0  0  0  0  0  0  0  0  0
   20.6711   -4.9924  -15.2073 N   0  0  0  0  0  0  0  0  0  0  0  0
   21.9360   -4.7102  -14.8806 C   0  0  0  0  0  0  0  0  0  0  0  0
   22.2873   -5.4906  -13.8467 N   0  0  0  0  0  0  0  0  0  0  0  0
   18.7667   -6.8048  -12.0969 C   0  0  0  0  0  0  0  0  0  0  0  0
   18.2821   -6.0193  -12.9491 O   0  0  0  0  0  0  0  0  0  0  0  0
   12.3634  -10.3496   -9.3645 N   0  0  0  0  0  0  0  0  0  0  0  0
   12.5200   -9.0890   -8.7344 C   0  0  0  0  0  0  0  0  0  0  0  0
   11.5893   -8.5945   -7.9972 N   0  0  0  0  0  0  0  0  0  0  0  0
   13.7200   -8.3160   -8.8909 N   0  0  0  0  0  0  0  0  0  0  0  0
   14.8767   -8.8068   -9.5788 C   0  0  0  0  0  0  0  0  0  0  0  0
   16.0235   -7.8427   -9.5858 C   0  0  0  0  0  0  0  0  0  0  0  0
   15.8774   -6.6908  -10.5338 C   0  0  0  0  0  0  0  0  0  0  0  0
   17.1023   -5.8132  -10.4564 C   0  0  2  0  0  0  0  0  0  0  0  0
   18.3044   -6.5913  -10.7556 N   0  0  0  0  0  0  0  0  0  0  0  0
   17.3276   -5.2021   -9.1383 C   0  0  0  0  0  0  0  0  0  0  0  0
   18.5044   -5.4755   -8.3985 O   0  0  0  0  0  0  0  0  0  0  0  0
   16.5438   -4.4169   -8.5619 O   0  0  0  0  0  0  0  0  0  0  0  0
  2  4  1  0
  2  1  1  0
  3  2  2  0
  5  4  1  0
  6  5  1  0
  6  7  1  1
  8  6  1  0
  9  8  2  0
 10  8  1  0
 11 12  1  6
 11 10  1  0
 12 13  1  0
 13 17  1  0
 13 14  2  0
 14 15  1  0
 16 15  1  0
 17 16  2  0
 18 11  1  0
 19 18  2  0
 20 21  1  0
 21 22  2  0
 23 21  1  0
 24 23  1  0
 25 24  1  0
 27 26  1  1
 26 25  1  0
 27 28  1  0
 28 18  1  0
 29 27  1  0
 29 30  1  0
 31 29  2  0
M  END
$$$$
