QHR.pdb
     RDKit          3D

 31 31  0  0  1  0  0  0  0  0999 V2000
   21.2545  -31.2099  -12.2807 N   0  0  0  0  0  0  0  0  0  0  0  0
   20.8651  -30.6480  -13.5268 C   0  0  0  0  0  0  0  0  0  0  0  0
   20.9544  -31.3259  -14.6002 O   0  0  0  0  0  0  0  0  0  0  0  0
   20.3515  -29.2620  -13.5747 C   0  0  0  0  0  0  0  0  0  0  0  0
   20.4532  -28.5901  -12.2216 C   0  0  0  0  0  0  0  0  0  0  0  0
   19.8594  -27.2145  -12.3387 C   0  0  2  0  0  0  0  0  0  0  0  0
   20.4161  -26.4719  -13.4512 N   0  0  0  0  0  0  0  0  0  0  0  0
   19.9786  -26.4473  -11.0627 C   0  0  0  0  0  0  0  0  0  0  0  0
   21.0181  -25.7489  -10.8495 O   0  0  0  0  0  0  0  0  0  0  0  0
   18.9875  -26.4439  -10.0474 N   0  0  0  0  0  0  0  0  0  0  0  0
   19.2825  -25.7907   -8.7592 C   0  0  1  0  0  0  0  0  0  0  0  0
   19.5962  -24.3283   -8.9895 C   0  0  0  0  0  0  0  0  0  0  0  0
   18.6326  -23.7702   -9.9588 C   0  0  0  0  0  0  0  0  0  0  0  0
   17.6867  -24.5216  -10.6431 C   0  0  0  0  0  0  0  0  0  0  0  0
   16.9635  -23.7318  -11.4455 N   0  0  0  0  0  0  0  0  0  0  0  0
   17.4251  -22.4870  -11.2913 C   0  0  0  0  0  0  0  0  0  0  0  0
   18.4264  -22.5176  -10.3979 N   0  0  0  0  0  0  0  0  0  0  0  0
   18.1237  -25.9195   -7.8473 C   0  0  0  0  0  0  0  0  0  0  0  0
   16.9327  -25.9244   -8.2468 O   0  0  0  0  0  0  0  0  0  0  0  0
   17.9599  -26.0507    0.2722 N   0  0  0  0  0  0  0  0  0  0  0  0
   16.5661  -26.2997    0.1954 C   0  0  0  0  0  0  0  0  0  0  0  0
   15.7621  -25.8615    1.0988 N   0  0  0  0  0  0  0  0  0  0  0  0
   15.9960  -27.0464   -0.8906 N   0  0  0  0  0  0  0  0  0  0  0  0
   16.7831  -27.5955   -1.9540 C   0  0  0  0  0  0  0  0  0  0  0  0
   16.4458  -27.0329   -3.3011 C   0  0  0  0  0  0  0  0  0  0  0  0
   17.6234  -26.7637   -4.1885 C   0  0  0  0  0  0  0  0  0  0  0  0
   17.1429  -26.2755   -5.5329 C   0  0  2  0  0  0  0  0  0  0  0  0
   18.2786  -26.0495   -6.4268 N   0  0  0  0  0  0  0  0  0  0  0  0
   16.3993  -25.0081   -5.4871 C   0  0  0  0  0  0  0  0  0  0  0  0
   14.9866  -24.9938   -5.3816 O   0  0  0  0  0  0  0  0  0  0  0  0
   16.9102  -23.8680   -5.5339 O   0  0  0  0  0  0  0  0  0  0  0  0
  2  4  1  0
  2  1  1  0
  3  2  2  0
  5  4  1  0
  6  5  1  0
  6  7  1  6
  8  6  1  0
  9  8  2  0
 10  8  1  0
 11 12  1  6
 11 10  1  0
 12 13  1  0
 13 17  1  0
 13 14  2  0
 14 15  1  0
 16 15  1  0
 17 16  2  0
 18 11  1  0
 19 18  2  0
 20 21  1  0
 21 22  2  0
 23 21  1  0
 24 23  1  0
 25 24  1  0
 27 26  1  1
 26 25  1  0
 27 28  1  0
 28 18  1  0
 29 27  1  0
 29 30  1  0
 31 29  2  0
M  END
$$$$
