EEH.pdb
     RDKit          3D

 29 29  0  0  1  0  0  0  0  0999 V2000
   11.4780  -16.9326   14.3630 N   0  0  0  0  0  0  0  0  0  0  0  0
   12.3223  -17.2779   15.4972 C   0  0  1  0  0  0  0  0  0  0  0  0
   13.3948  -16.2173   15.5708 C   0  0  0  0  0  0  0  0  0  0  0  0
   14.4838  -16.3702   14.5617 C   0  0  0  0  0  0  0  0  0  0  0  0
   15.4929  -15.3247   14.8219 C   0  0  0  0  0  0  0  0  0  0  0  0
   15.3462  -14.5369   15.7756 O   0  0  0  0  0  0  0  0  0  0  0  0
   11.5188  -17.3678   16.7251 C   0  0  0  0  0  0  0  0  0  0  0  0
   10.4081  -16.8063   16.8815 O   0  0  0  0  0  0  0  0  0  0  0  0
   16.5997  -15.2157   14.0128 O   0  0  0  0  0  0  0  0  0  0  0  0
   12.0219  -18.1347   17.8054 N   0  0  0  0  0  0  0  0  0  0  0  0
   11.1619  -18.3776   19.0073 C   0  0  1  0  0  0  0  0  0  0  0  0
   11.7054  -19.5730   19.7233 C   0  0  0  0  0  0  0  0  0  0  0  0
   10.9387  -19.9655   20.9321 C   0  0  0  0  0  0  0  0  0  0  0  0
   11.4025  -21.1891   21.6073 C   0  0  0  0  0  0  0  0  0  0  0  0
   11.7722  -22.1713   20.9301 O   0  0  0  0  0  0  0  0  0  0  0  0
   11.2469  -17.1421   19.8103 C   0  0  0  0  0  0  0  0  0  0  0  0
   12.3576  -16.5019   19.8565 O   0  0  0  0  0  0  0  0  0  0  0  0
   11.4458  -21.2964   22.9888 O   0  0  0  0  0  0  0  0  0  0  0  0
   10.2037  -16.5569   20.5610 N   0  0  0  0  0  0  0  0  0  0  0  0
   10.4153  -15.3535   21.3672 C   0  0  1  0  0  0  0  0  0  0  0  0
    9.1750  -14.4815   21.3454 C   0  0  0  0  0  0  0  0  0  0  0  0
    8.8466  -14.0906   19.9709 C   0  0  0  0  0  0  0  0  0  0  0  0
    9.3703  -13.0147   19.2942 C   0  0  0  0  0  0  0  0  0  0  0  0
    8.7992  -13.0231   18.0727 N   0  0  0  0  0  0  0  0  0  0  0  0
    7.9666  -14.0567   18.0101 C   0  0  0  0  0  0  0  0  0  0  0  0
    7.9854  -14.7201   19.1668 N   0  0  0  0  0  0  0  0  0  0  0  0
   10.8306  -15.7721   22.7066 C   0  0  0  0  0  0  0  0  0  0  0  0
   11.2884  -14.8395   23.6501 O   0  0  0  0  0  0  0  0  0  0  0  0
   10.7933  -16.9798   23.0603 O   0  0  0  0  0  0  0  0  0  0  0  0
  2  1  1  6
  2  3  1  0
  4  3  1  0
  5  4  1  0
  6  5  2  0
  7  2  1  0
  8  7  2  0
  9  5  1  0
 10  7  1  0
 11 16  1  0
 11 10  1  0
 11 12  1  1
 13 12  1  0
 14 13  1  0
 15 14  2  0
 16 17  2  0
 18 14  1  0
 19 20  1  0
 19 16  1  0
 21 22  1  0
 20 21  1  1
 22 23  2  0
 24 23  1  0
 25 24  1  0
 26 25  2  0
 26 22  1  0
 27 20  1  0
 28 27  1  0
 29 27  2  0
M  END
$$$$
