EEH.pdb
     RDKit          3D

 29 29  0  0  1  0  0  0  0  0999 V2000
    7.0530  -16.0653   19.3718 N   0  0  0  0  0  0  0  0  0  0  0  0
    8.4587  -16.0392   19.7482 C   0  0  1  0  0  0  0  0  0  0  0  0
    8.9212  -14.6119   19.5767 C   0  0  0  0  0  0  0  0  0  0  0  0
    8.8554  -14.1067   18.1738 C   0  0  0  0  0  0  0  0  0  0  0  0
    9.2671  -12.6891   18.1829 C   0  0  0  0  0  0  0  0  0  0  0  0
   10.1970  -12.3122   18.9211 O   0  0  0  0  0  0  0  0  0  0  0  0
    8.6306  -16.5372   21.1208 C   0  0  0  0  0  0  0  0  0  0  0  0
    7.7412  -16.4864   22.0039 O   0  0  0  0  0  0  0  0  0  0  0  0
    8.6262  -11.7780   17.3762 O   0  0  0  0  0  0  0  0  0  0  0  0
    9.8754  -17.1124   21.4783 N   0  0  0  0  0  0  0  0  0  0  0  0
   10.1003  -17.5817   22.8828 C   0  0  1  0  0  0  0  0  0  0  0  0
   11.2099  -18.5842   22.8568 C   0  0  0  0  0  0  0  0  0  0  0  0
   11.6217  -19.0787   24.1943 C   0  0  0  0  0  0  0  0  0  0  0  0
   12.7396  -20.0370   24.1992 C   0  0  0  0  0  0  0  0  0  0  0  0
   13.2877  -20.3480   25.2777 O   0  0  0  0  0  0  0  0  0  0  0  0
   10.4413  -16.3706   23.6543 C   0  0  0  0  0  0  0  0  0  0  0  0
   10.7794  -15.3042   23.0265 O   0  0  0  0  0  0  0  0  0  0  0  0
   13.2167  -20.6178   23.0344 O   0  0  0  0  0  0  0  0  0  0  0  0
   10.4344  -16.2430   25.0607 N   0  0  0  0  0  0  0  0  0  0  0  0
    9.7038  -15.1679   25.7337 C   0  0  1  0  0  0  0  0  0  0  0  0
    8.3709  -14.9305   25.0508 C   0  0  0  0  0  0  0  0  0  0  0  0
    7.6434  -13.8413   25.7097 C   0  0  0  0  0  0  0  0  0  0  0  0
    8.0935  -13.1066   26.7809 C   0  0  0  0  0  0  0  0  0  0  0  0
    7.1187  -12.2198   27.0664 N   0  0  0  0  0  0  0  0  0  0  0  0
    6.1218  -12.4071   26.2081 C   0  0  0  0  0  0  0  0  0  0  0  0
    6.4298  -13.3981   25.3705 N   0  0  0  0  0  0  0  0  0  0  0  0
    9.5980  -15.5103   27.1526 C   0  0  0  0  0  0  0  0  0  0  0  0
    9.9685  -16.7793   27.6234 O   0  0  0  0  0  0  0  0  0  0  0  0
    9.1717  -14.6824   27.9999 O   0  0  0  0  0  0  0  0  0  0  0  0
  2  1  1  1
  2  3  1  0
  4  3  1  0
  5  4  1  0
  6  5  2  0
  7  2  1  0
  8  7  2  0
  9  5  1  0
 10  7  1  0
 11 16  1  0
 11 10  1  0
 11 12  1  6
 13 12  1  0
 14 13  1  0
 15 14  2  0
 16 17  2  0
 18 14  1  0
 19 20  1  0
 19 16  1  0
 21 22  1  0
 20 21  1  6
 22 23  2  0
 24 23  1  0
 25 24  1  0
 26 25  2  0
 26 22  1  0
 27 20  1  0
 28 27  1  0
 29 27  2  0
M  END
$$$$
