EEH.pdb
     RDKit          3D

 29 29  0  0  1  0  0  0  0  0999 V2000
   11.8132  -16.5334   17.0360 N   0  0  0  0  0  0  0  0  0  0  0  0
   12.5162  -16.5586   18.3102 C   0  0  1  0  0  0  0  0  0  0  0  0
   13.3721  -15.3151   18.3514 C   0  0  0  0  0  0  0  0  0  0  0  0
   14.6277  -15.4037   17.5493 C   0  0  0  0  0  0  0  0  0  0  0  0
   15.3858  -14.1538   17.7546 C   0  0  0  0  0  0  0  0  0  0  0  0
   15.7574  -13.8280   18.8981 O   0  0  0  0  0  0  0  0  0  0  0  0
   11.5577  -16.6326   19.4225 C   0  0  0  0  0  0  0  0  0  0  0  0
   10.3357  -16.3701   19.3165 O   0  0  0  0  0  0  0  0  0  0  0  0
   15.6855  -13.3435   16.6846 O   0  0  0  0  0  0  0  0  0  0  0  0
   12.0343  -17.0243   20.6983 N   0  0  0  0  0  0  0  0  0  0  0  0
   11.0679  -17.2067   21.8280 C   0  0  1  0  0  0  0  0  0  0  0  0
   11.7395  -18.0397   22.8730 C   0  0  0  0  0  0  0  0  0  0  0  0
   10.8841  -18.3653   24.0415 C   0  0  0  0  0  0  0  0  0  0  0  0
   11.5215  -19.1865   25.0844 C   0  0  0  0  0  0  0  0  0  0  0  0
   11.7407  -20.3981   24.8747 O   0  0  0  0  0  0  0  0  0  0  0  0
   10.7494  -15.8448   22.2994 C   0  0  0  0  0  0  0  0  0  0  0  0
   11.3210  -14.8408   21.7417 O   0  0  0  0  0  0  0  0  0  0  0  0
   11.8942  -18.6594   26.3112 O   0  0  0  0  0  0  0  0  0  0  0  0
    9.8488  -15.5046   23.3324 N   0  0  0  0  0  0  0  0  0  0  0  0
    8.6705  -14.6719   23.0849 C   0  0  1  0  0  0  0  0  0  0  0  0
    7.8959  -15.1985   21.8924 C   0  0  0  0  0  0  0  0  0  0  0  0
    8.1896  -14.4016   20.6972 C   0  0  0  0  0  0  0  0  0  0  0  0
    9.0632  -13.3422   20.6321 C   0  0  0  0  0  0  0  0  0  0  0  0
    9.0278  -12.9018   19.3581 N   0  0  0  0  0  0  0  0  0  0  0  0
    8.1717  -13.6588   18.6801 C   0  0  0  0  0  0  0  0  0  0  0  0
    7.6503  -14.5825   19.4885 N   0  0  0  0  0  0  0  0  0  0  0  0
    7.8933  -14.6060   24.3231 C   0  0  0  0  0  0  0  0  0  0  0  0
    7.9741  -15.6230   25.2868 O   0  0  0  0  0  0  0  0  0  0  0  0
    7.1259  -13.6385   24.5683 O   0  0  0  0  0  0  0  0  0  0  0  0
  2  1  1  6
  2  3  1  0
  4  3  1  0
  5  4  1  0
  6  5  2  0
  7  2  1  0
  8  7  2  0
  9  5  1  0
 10  7  1  0
 11 16  1  0
 11 10  1  0
 11 12  1  1
 13 12  1  0
 14 13  1  0
 15 14  2  0
 16 17  2  0
 18 14  1  0
 19 20  1  0
 19 16  1  0
 21 22  1  0
 20 21  1  6
 22 23  2  0
 24 23  1  0
 25 24  1  0
 26 25  2  0
 26 22  1  0
 27 20  1  0
 28 27  1  0
 29 27  2  0
M  END
$$$$
