EEH.pdb
     RDKit          3D

 29 29  0  0  1  0  0  0  0  0999 V2000
   11.7852  -15.9397   14.6052 N   0  0  0  0  0  0  0  0  0  0  0  0
   11.7798  -15.0956   15.7909 C   0  0  1  0  0  0  0  0  0  0  0  0
   10.3923  -15.1928   16.3790 C   0  0  0  0  0  0  0  0  0  0  0  0
    9.9443  -16.5854   16.6757 C   0  0  0  0  0  0  0  0  0  0  0  0
    8.5778  -16.5135   17.2294 C   0  0  0  0  0  0  0  0  0  0  0  0
    8.3964  -16.5874   18.4596 O   0  0  0  0  0  0  0  0  0  0  0  0
   12.8310  -15.5207   16.7268 C   0  0  0  0  0  0  0  0  0  0  0  0
   13.1446  -16.7170   16.9360 O   0  0  0  0  0  0  0  0  0  0  0  0
    7.4988  -16.3645   16.3898 O   0  0  0  0  0  0  0  0  0  0  0  0
   13.5401  -14.5238   17.4421 N   0  0  0  0  0  0  0  0  0  0  0  0
   14.7015  -14.9131   18.3041 C   0  0  1  0  0  0  0  0  0  0  0  0
   15.7369  -13.8404   18.1865 C   0  0  0  0  0  0  0  0  0  0  0  0
   16.5486  -13.9043   16.9455 C   0  0  0  0  0  0  0  0  0  0  0  0
   17.6369  -12.9171   16.8483 C   0  0  0  0  0  0  0  0  0  0  0  0
   18.7505  -13.2611   16.3992 O   0  0  0  0  0  0  0  0  0  0  0  0
   14.1564  -15.0349   19.6703 C   0  0  0  0  0  0  0  0  0  0  0  0
   13.5900  -14.0182   20.2102 O   0  0  0  0  0  0  0  0  0  0  0  0
   17.4720  -11.5983   17.2424 O   0  0  0  0  0  0  0  0  0  0  0  0
   14.1833  -16.1889   20.4838 N   0  0  0  0  0  0  0  0  0  0  0  0
   13.5950  -16.2012   21.8241 C   0  0  1  0  0  0  0  0  0  0  0  0
   12.8131  -17.4818   22.0432 C   0  0  0  0  0  0  0  0  0  0  0  0
   12.3177  -17.5512   23.4214 C   0  0  0  0  0  0  0  0  0  0  0  0
   12.2092  -16.4920   24.2909 C   0  0  0  0  0  0  0  0  0  0  0  0
   11.7161  -16.9964   25.4402 N   0  0  0  0  0  0  0  0  0  0  0  0
   11.5334  -18.3023   25.2766 C   0  0  0  0  0  0  0  0  0  0  0  0
   11.8981  -18.6564   24.0436 N   0  0  0  0  0  0  0  0  0  0  0  0
   14.6694  -15.9814   22.7931 C   0  0  0  0  0  0  0  0  0  0  0  0
   16.0089  -15.8904   22.3848 O   0  0  0  0  0  0  0  0  0  0  0  0
   14.4325  -15.8669   24.0244 O   0  0  0  0  0  0  0  0  0  0  0  0
  2  1  1  6
  2  3  1  0
  4  3  1  0
  5  4  1  0
  6  5  2  0
  7  2  1  0
  8  7  2  0
  9  5  1  0
 10  7  1  0
 11 16  1  0
 11 10  1  0
 11 12  1  1
 13 12  1  0
 14 13  1  0
 15 14  2  0
 16 17  2  0
 18 14  1  0
 19 20  1  0
 19 16  1  0
 21 22  1  0
 20 21  1  1
 22 23  2  0
 24 23  1  0
 25 24  1  0
 26 25  2  0
 26 22  1  0
 27 20  1  0
 28 27  1  0
 29 27  2  0
M  END
$$$$
