EEH.pdb
     RDKit          3D

 29 29  0  0  1  0  0  0  0  0999 V2000
    7.9268  -13.5527   19.4707 N   0  0  0  0  0  0  0  0  0  0  0  0
    8.8858  -14.5208   19.9823 C   0  0  1  0  0  0  0  0  0  0  0  0
   10.2557  -13.9277   19.7542 C   0  0  0  0  0  0  0  0  0  0  0  0
   10.6774  -13.8816   18.3231 C   0  0  0  0  0  0  0  0  0  0  0  0
   11.9967  -13.2223   18.2605 C   0  0  0  0  0  0  0  0  0  0  0  0
   12.5640  -12.8568   19.3075 O   0  0  0  0  0  0  0  0  0  0  0  0
    8.6146  -14.8114   21.3977 C   0  0  0  0  0  0  0  0  0  0  0  0
    7.9622  -14.0568   22.1581 O   0  0  0  0  0  0  0  0  0  0  0  0
   12.6057  -13.0088   17.0459 O   0  0  0  0  0  0  0  0  0  0  0  0
    9.1175  -16.0172   21.9468 N   0  0  0  0  0  0  0  0  0  0  0  0
    8.7677  -16.3951   23.3533 C   0  0  1  0  0  0  0  0  0  0  0  0
    7.9053  -17.6158   23.2967 C   0  0  0  0  0  0  0  0  0  0  0  0
    6.5275  -17.3713   22.8021 C   0  0  0  0  0  0  0  0  0  0  0  0
    5.6458  -18.5503   22.7732 C   0  0  0  0  0  0  0  0  0  0  0  0
    4.6928  -18.5949   21.9671 O   0  0  0  0  0  0  0  0  0  0  0  0
   10.0571  -16.6363   24.0299 C   0  0  0  0  0  0  0  0  0  0  0  0
   10.8297  -17.5618   23.5912 O   0  0  0  0  0  0  0  0  0  0  0  0
    5.8345  -19.6317   23.6200 O   0  0  0  0  0  0  0  0  0  0  0  0
   10.5614  -15.9353   25.1472 N   0  0  0  0  0  0  0  0  0  0  0  0
   10.5786  -16.5278   26.4856 C   0  0  1  0  0  0  0  0  0  0  0  0
    9.1814  -16.5365   27.0746 C   0  0  0  0  0  0  0  0  0  0  0  0
    8.8470  -15.2180   27.6219 C   0  0  0  0  0  0  0  0  0  0  0  0
    8.5292  -14.1000   26.8879 C   0  0  0  0  0  0  0  0  0  0  0  0
    8.2960  -13.1165   27.7804 N   0  0  0  0  0  0  0  0  0  0  0  0
    8.4645  -13.6140   29.0009 C   0  0  0  0  0  0  0  0  0  0  0  0
    8.8025  -14.9015   28.9190 N   0  0  0  0  0  0  0  0  0  0  0  0
   11.1966  -17.8508   26.3882 C   0  0  0  0  0  0  0  0  0  0  0  0
   10.7869  -18.7741   25.4140 O   0  0  0  0  0  0  0  0  0  0  0  0
   12.1146  -18.2082   27.1722 O   0  0  0  0  0  0  0  0  0  0  0  0
  2  1  1  1
  2  3  1  0
  4  3  1  0
  5  4  1  0
  6  5  2  0
  7  2  1  0
  8  7  2  0
  9  5  1  0
 10  7  1  0
 11 16  1  0
 11 10  1  0
 11 12  1  6
 13 12  1  0
 14 13  1  0
 15 14  2  0
 16 17  2  0
 18 14  1  0
 19 20  1  0
 19 16  1  0
 21 22  1  0
 20 21  1  6
 22 23  2  0
 24 23  1  0
 25 24  1  0
 26 25  2  0
 26 22  1  0
 27 20  1  0
 28 27  1  0
 29 27  2  0
M  END
$$$$
