EEH.pdb
     RDKit          3D

 29 29  0  0  1  0  0  0  0  0999 V2000
   10.1754  -18.3609   20.6734 N   0  0  0  0  0  0  0  0  0  0  0  0
   10.8766  -19.4099   21.3989 C   0  0  1  0  0  0  0  0  0  0  0  0
   12.3494  -19.1968   21.1419 C   0  0  0  0  0  0  0  0  0  0  0  0
   12.7201  -17.7899   20.8086 C   0  0  0  0  0  0  0  0  0  0  0  0
   14.1743  -17.7518   20.5575 C   0  0  0  0  0  0  0  0  0  0  0  0
   14.8718  -18.7629   20.7643 O   0  0  0  0  0  0  0  0  0  0  0  0
   10.5308  -19.3638   22.8271 C   0  0  0  0  0  0  0  0  0  0  0  0
    9.8697  -18.4414   23.3612 O   0  0  0  0  0  0  0  0  0  0  0  0
   14.7657  -16.5999   20.0940 O   0  0  0  0  0  0  0  0  0  0  0  0
   10.9669  -20.4235   23.6609 N   0  0  0  0  0  0  0  0  0  0  0  0
   10.6318  -20.4058   25.1206 C   0  0  1  0  0  0  0  0  0  0  0  0
   10.8779  -21.7781   25.6620 C   0  0  0  0  0  0  0  0  0  0  0  0
   10.7635  -21.8851   27.1380 C   0  0  0  0  0  0  0  0  0  0  0  0
   11.1153  -23.1966   27.7075 C   0  0  0  0  0  0  0  0  0  0  0  0
   10.2372  -24.0760   27.8333 O   0  0  0  0  0  0  0  0  0  0  0  0
   11.5184  -19.3878   25.7173 C   0  0  0  0  0  0  0  0  0  0  0  0
   12.3438  -18.7585   24.9633 O   0  0  0  0  0  0  0  0  0  0  0  0
   12.4046  -23.4996   28.1171 O   0  0  0  0  0  0  0  0  0  0  0  0
   11.5624  -19.0076   27.0766 N   0  0  0  0  0  0  0  0  0  0  0  0
   11.4177  -17.6113   27.4917 C   0  0  1  0  0  0  0  0  0  0  0  0
   10.2217  -16.9802   26.8056 C   0  0  0  0  0  0  0  0  0  0  0  0
   10.0475  -15.5940   27.2502 C   0  0  0  0  0  0  0  0  0  0  0  0
   10.4047  -14.4716   26.5415 C   0  0  0  0  0  0  0  0  0  0  0  0
   10.0728  -13.4167   27.3130 N   0  0  0  0  0  0  0  0  0  0  0  0
    9.5385  -13.8770   28.4391 C   0  0  0  0  0  0  0  0  0  0  0  0
    9.5166  -15.2101   28.4144 N   0  0  0  0  0  0  0  0  0  0  0  0
   11.3578  -17.5765   28.9535 C   0  0  0  0  0  0  0  0  0  0  0  0
   11.1073  -18.7392   29.6984 O   0  0  0  0  0  0  0  0  0  0  0  0
   11.5275  -16.5061   29.5943 O   0  0  0  0  0  0  0  0  0  0  0  0
  2  1  1  6
  2  3  1  0
  4  3  1  0
  5  4  1  0
  6  5  2  0
  7  2  1  0
  8  7  2  0
  9  5  1  0
 10  7  1  0
 11 16  1  0
 11 10  1  0
 11 12  1  1
 13 12  1  0
 14 13  1  0
 15 14  2  0
 16 17  2  0
 18 14  1  0
 19 20  1  0
 19 16  1  0
 21 22  1  0
 20 21  1  6
 22 23  2  0
 24 23  1  0
 25 24  1  0
 26 25  2  0
 26 22  1  0
 27 20  1  0
 28 27  1  0
 29 27  2  0
M  END
$$$$
