EEH.pdb
     RDKit          3D

 29 29  0  0  1  0  0  0  0  0999 V2000
   10.4631  -17.4251   17.2664 N   0  0  0  0  0  0  0  0  0  0  0  0
   10.7883  -16.4606   18.3068 C   0  0  1  0  0  0  0  0  0  0  0  0
    9.9977  -15.2122   17.9952 C   0  0  0  0  0  0  0  0  0  0  0  0
    8.6176  -15.4670   17.4872 C   0  0  0  0  0  0  0  0  0  0  0  0
    7.9564  -14.1609   17.2970 C   0  0  0  0  0  0  0  0  0  0  0  0
    8.5599  -13.1075   17.5759 O   0  0  0  0  0  0  0  0  0  0  0  0
   10.4843  -17.0163   19.6335 C   0  0  0  0  0  0  0  0  0  0  0  0
    9.4114  -17.5979   19.9233 O   0  0  0  0  0  0  0  0  0  0  0  0
    6.6713  -14.1010   16.8108 O   0  0  0  0  0  0  0  0  0  0  0  0
   11.4579  -16.8924   20.6556 N   0  0  0  0  0  0  0  0  0  0  0  0
   11.2360  -17.5610   21.9774 C   0  0  1  0  0  0  0  0  0  0  0  0
   12.5466  -18.1202   22.4318 C   0  0  0  0  0  0  0  0  0  0  0  0
   13.2026  -19.0208   21.4512 C   0  0  0  0  0  0  0  0  0  0  0  0
   14.0983  -20.0386   22.0257 C   0  0  0  0  0  0  0  0  0  0  0  0
   14.9243  -19.7153   22.9050 O   0  0  0  0  0  0  0  0  0  0  0  0
   10.7228  -16.5058   22.8728 C   0  0  0  0  0  0  0  0  0  0  0  0
   10.6936  -15.2926   22.4567 O   0  0  0  0  0  0  0  0  0  0  0  0
   14.0609  -21.3644   21.6224 O   0  0  0  0  0  0  0  0  0  0  0  0
   10.2366  -16.6845   24.1865 N   0  0  0  0  0  0  0  0  0  0  0  0
    9.4079  -15.6740   24.8460 C   0  0  1  0  0  0  0  0  0  0  0  0
    8.1848  -15.3662   24.0042 C   0  0  0  0  0  0  0  0  0  0  0  0
    7.3599  -14.3422   24.6528 C   0  0  0  0  0  0  0  0  0  0  0  0
    6.3298  -14.5779   25.5320 C   0  0  0  0  0  0  0  0  0  0  0  0
    5.8470  -13.3680   25.8805 N   0  0  0  0  0  0  0  0  0  0  0  0
    6.5514  -12.4396   25.2421 C   0  0  0  0  0  0  0  0  0  0  0  0
    7.4824  -13.0224   24.4858 N   0  0  0  0  0  0  0  0  0  0  0  0
    9.1026  -16.1486   26.1963 C   0  0  0  0  0  0  0  0  0  0  0  0
    8.7836  -17.4934   26.4391 O   0  0  0  0  0  0  0  0  0  0  0  0
    9.1141  -15.3705   27.1861 O   0  0  0  0  0  0  0  0  0  0  0  0
  2  1  1  6
  2  3  1  0
  4  3  1  0
  5  4  1  0
  6  5  2  0
  7  2  1  0
  8  7  2  0
  9  5  1  0
 10  7  1  0
 11 16  1  0
 11 10  1  0
 11 12  1  1
 13 12  1  0
 14 13  1  0
 15 14  2  0
 16 17  2  0
 18 14  1  0
 19 20  1  0
 19 16  1  0
 21 22  1  0
 20 21  1  6
 22 23  2  0
 24 23  1  0
 25 24  1  0
 26 25  2  0
 26 22  1  0
 27 20  1  0
 28 27  1  0
 29 27  2  0
M  END
$$$$
