EEH.pdb
     RDKit          3D

 29 29  0  0  1  0  0  0  0  0999 V2000
   16.1258  -13.5405   15.3449 N   0  0  0  0  0  0  0  0  0  0  0  0
   15.6481  -14.7570   15.9854 C   0  0  1  0  0  0  0  0  0  0  0  0
   16.8440  -15.3813   16.6640 C   0  0  0  0  0  0  0  0  0  0  0  0
   17.6860  -14.4209   17.4363 C   0  0  0  0  0  0  0  0  0  0  0  0
   18.6809  -15.2013   18.1980 C   0  0  0  0  0  0  0  0  0  0  0  0
   19.8934  -15.0993   17.9316 O   0  0  0  0  0  0  0  0  0  0  0  0
   14.5546  -14.4490   16.9186 C   0  0  0  0  0  0  0  0  0  0  0  0
   14.4734  -13.3868   17.5808 O   0  0  0  0  0  0  0  0  0  0  0  0
   18.2737  -16.0443   19.2055 O   0  0  0  0  0  0  0  0  0  0  0  0
   13.5228  -15.4057   17.0875 N   0  0  0  0  0  0  0  0  0  0  0  0
   12.3561  -15.0909   17.9724 C   0  0  1  0  0  0  0  0  0  0  0  0
   11.1379  -15.7011   17.3556 C   0  0  0  0  0  0  0  0  0  0  0  0
    9.8740  -15.4124   18.0782 C   0  0  0  0  0  0  0  0  0  0  0  0
    8.6455  -15.8919   17.4231 C   0  0  0  0  0  0  0  0  0  0  0  0
    7.7868  -15.0721   17.0351 O   0  0  0  0  0  0  0  0  0  0  0  0
   12.6869  -15.6768   19.2860 C   0  0  0  0  0  0  0  0  0  0  0  0
   13.2979  -16.8039   19.3317 O   0  0  0  0  0  0  0  0  0  0  0  0
    8.3995  -17.2405   17.2164 O   0  0  0  0  0  0  0  0  0  0  0  0
   12.4010  -15.1159   20.5500 N   0  0  0  0  0  0  0  0  0  0  0  0
   12.5782  -15.8756   21.7887 C   0  0  1  0  0  0  0  0  0  0  0  0
   13.5365  -15.1535   22.7157 C   0  0  0  0  0  0  0  0  0  0  0  0
   14.9177  -15.3102   22.2493 C   0  0  0  0  0  0  0  0  0  0  0  0
   15.5026  -14.6120   21.2196 C   0  0  0  0  0  0  0  0  0  0  0  0
   16.7686  -15.0666   21.1269 N   0  0  0  0  0  0  0  0  0  0  0  0
   16.9450  -15.9986   22.0574 C   0  0  0  0  0  0  0  0  0  0  0  0
   15.8186  -16.1584   22.7530 N   0  0  0  0  0  0  0  0  0  0  0  0
   11.2551  -16.1187   22.3649 C   0  0  0  0  0  0  0  0  0  0  0  0
   11.1045  -16.8346   23.5626 O   0  0  0  0  0  0  0  0  0  0  0  0
   10.2071  -15.6969   21.8092 O   0  0  0  0  0  0  0  0  0  0  0  0
  2  1  1  1
  2  3  1  0
  4  3  1  0
  5  4  1  0
  6  5  2  0
  7  2  1  0
  8  7  2  0
  9  5  1  0
 10  7  1  0
 11 16  1  0
 11 10  1  0
 11 12  1  6
 13 12  1  0
 14 13  1  0
 15 14  2  0
 16 17  2  0
 18 14  1  0
 19 20  1  0
 19 16  1  0
 21 22  1  0
 20 21  1  1
 22 23  2  0
 24 23  1  0
 25 24  1  0
 26 25  2  0
 26 22  1  0
 27 20  1  0
 28 27  1  0
 29 27  2  0
M  END
$$$$
