EEH.pdb
     RDKit          3D

 29 29  0  0  1  0  0  0  0  0999 V2000
   15.5046  -13.2549   18.4780 N   0  0  0  0  0  0  0  0  0  0  0  0
   15.1982  -14.4554   17.7142 C   0  0  1  0  0  0  0  0  0  0  0  0
   16.2462  -15.4775   18.0847 C   0  0  0  0  0  0  0  0  0  0  0  0
   16.3858  -15.7138   19.5519 C   0  0  0  0  0  0  0  0  0  0  0  0
   17.7463  -16.2298   19.8004 C   0  0  0  0  0  0  0  0  0  0  0  0
   18.2715  -17.0228   18.9960 O   0  0  0  0  0  0  0  0  0  0  0  0
   13.8288  -14.9082   17.9993 C   0  0  0  0  0  0  0  0  0  0  0  0
   13.3239  -15.9578   17.5340 O   0  0  0  0  0  0  0  0  0  0  0  0
   18.4404  -15.8374   20.9210 O   0  0  0  0  0  0  0  0  0  0  0  0
   13.0207  -14.1160   18.8525 N   0  0  0  0  0  0  0  0  0  0  0  0
   11.5757  -14.4632   19.0393 C   0  0  1  0  0  0  0  0  0  0  0  0
   10.9487  -14.5513   17.6843 C   0  0  0  0  0  0  0  0  0  0  0  0
    9.5603  -15.0760   17.6835 C   0  0  0  0  0  0  0  0  0  0  0  0
    8.9355  -15.2140   16.3573 C   0  0  0  0  0  0  0  0  0  0  0  0
    7.9030  -14.5658   16.0857 O   0  0  0  0  0  0  0  0  0  0  0  0
   11.5688  -15.7523   19.7580 C   0  0  0  0  0  0  0  0  0  0  0  0
   11.7172  -16.8394   19.0931 O   0  0  0  0  0  0  0  0  0  0  0  0
    9.4565  -16.0492   15.3812 O   0  0  0  0  0  0  0  0  0  0  0  0
   11.4155  -15.9352   21.1498 N   0  0  0  0  0  0  0  0  0  0  0  0
   12.5232  -16.3837   21.9951 C   0  0  1  0  0  0  0  0  0  0  0  0
   13.7373  -15.5004   21.7831 C   0  0  0  0  0  0  0  0  0  0  0  0
   14.9060  -16.0613   22.4680 C   0  0  0  0  0  0  0  0  0  0  0  0
   14.9329  -17.2366   23.1804 C   0  0  0  0  0  0  0  0  0  0  0  0
   16.1935  -17.3706   23.6398 N   0  0  0  0  0  0  0  0  0  0  0  0
   16.9003  -16.3244   23.2257 C   0  0  0  0  0  0  0  0  0  0  0  0
   16.1238  -15.5134   22.5062 N   0  0  0  0  0  0  0  0  0  0  0  0
   12.0487  -16.4287   23.3787 C   0  0  0  0  0  0  0  0  0  0  0  0
   12.7952  -17.0643   24.3828 O   0  0  0  0  0  0  0  0  0  0  0  0
   10.9568  -15.9014   23.7180 O   0  0  0  0  0  0  0  0  0  0  0  0
  2  1  1  1
  2  3  1  0
  4  3  1  0
  5  4  1  0
  6  5  2  0
  7  2  1  0
  8  7  2  0
  9  5  1  0
 10  7  1  0
 11 16  1  0
 11 10  1  0
 11 12  1  6
 13 12  1  0
 14 13  1  0
 15 14  2  0
 16 17  2  0
 18 14  1  0
 19 20  1  0
 19 16  1  0
 21 22  1  0
 20 21  1  1
 22 23  2  0
 24 23  1  0
 25 24  1  0
 26 25  2  0
 26 22  1  0
 27 20  1  0
 28 27  1  0
 29 27  2  0
M  END
$$$$
