EEH.pdb
     RDKit          3D

 29 29  0  0  1  0  0  0  0  0999 V2000
   10.1019  -19.7750   19.5217 N   0  0  0  0  0  0  0  0  0  0  0  0
    9.8719  -18.3660   19.8051 C   0  0  1  0  0  0  0  0  0  0  0  0
    9.4259  -17.7358   18.5072 C   0  0  0  0  0  0  0  0  0  0  0  0
    9.6613  -18.5798   17.2989 C   0  0  0  0  0  0  0  0  0  0  0  0
    9.1825  -17.8290   16.1215 C   0  0  0  0  0  0  0  0  0  0  0  0
    8.1203  -18.1572   15.5595 O   0  0  0  0  0  0  0  0  0  0  0  0
    8.8858  -18.2151   20.8850 C   0  0  0  0  0  0  0  0  0  0  0  0
    7.7740  -17.6507   20.7483 O   0  0  0  0  0  0  0  0  0  0  0  0
    9.9066  -16.7636   15.6398 O   0  0  0  0  0  0  0  0  0  0  0  0
    9.2017  -18.7368   22.1642 N   0  0  0  0  0  0  0  0  0  0  0  0
    8.2083  -18.6212   23.2792 C   0  0  1  0  0  0  0  0  0  0  0  0
    8.0745  -19.9693   23.9128 C   0  0  0  0  0  0  0  0  0  0  0  0
    7.2470  -19.9890   25.1448 C   0  0  0  0  0  0  0  0  0  0  0  0
    7.2182  -21.2710   25.8686 C   0  0  0  0  0  0  0  0  0  0  0  0
    6.5188  -21.3893   26.8967 O   0  0  0  0  0  0  0  0  0  0  0  0
    8.7628  -17.6090   24.1992 C   0  0  0  0  0  0  0  0  0  0  0  0
    9.9480  -17.1622   23.9959 O   0  0  0  0  0  0  0  0  0  0  0  0
    7.9491  -22.3710   25.4473 O   0  0  0  0  0  0  0  0  0  0  0  0
    8.1120  -17.0495   25.3206 N   0  0  0  0  0  0  0  0  0  0  0  0
    8.1846  -15.6183   25.6195 C   0  0  1  0  0  0  0  0  0  0  0  0
    6.8057  -14.9931   25.5350 C   0  0  0  0  0  0  0  0  0  0  0  0
    6.8638  -13.5720   25.8911 C   0  0  0  0  0  0  0  0  0  0  0  0
    8.0063  -12.8577   26.1638 C   0  0  0  0  0  0  0  0  0  0  0  0
    7.6073  -11.6004   26.4434 N   0  0  0  0  0  0  0  0  0  0  0  0
    6.2830  -11.5529   26.3453 C   0  0  0  0  0  0  0  0  0  0  0  0
    5.8137  -12.7545   26.0073 N   0  0  0  0  0  0  0  0  0  0  0  0
    8.8365  -15.4590   26.9200 C   0  0  0  0  0  0  0  0  0  0  0  0
    9.0871  -16.5643   27.7475 O   0  0  0  0  0  0  0  0  0  0  0  0
    9.1947  -14.3285   27.3430 O   0  0  0  0  0  0  0  0  0  0  0  0
  2  1  1  6
  2  3  1  0
  4  3  1  0
  5  4  1  0
  6  5  2  0
  7  2  1  0
  8  7  2  0
  9  5  1  0
 10  7  1  0
 11 16  1  0
 11 10  1  0
 11 12  1  1
 13 12  1  0
 14 13  1  0
 15 14  2  0
 16 17  2  0
 18 14  1  0
 19 20  1  0
 19 16  1  0
 21 22  1  0
 20 21  1  1
 22 23  2  0
 24 23  1  0
 25 24  1  0
 26 25  2  0
 26 22  1  0
 27 20  1  0
 28 27  1  0
 29 27  2  0
M  END
$$$$
