EEH.pdb
     RDKit          3D

 29 29  0  0  1  0  0  0  0  0999 V2000
    9.9001  -19.1816   18.2321 N   0  0  0  0  0  0  0  0  0  0  0  0
   10.4528  -20.4382   18.7156 C   0  0  1  0  0  0  0  0  0  0  0  0
   11.8928  -20.4749   18.2622 C   0  0  0  0  0  0  0  0  0  0  0  0
   12.7810  -19.4915   18.9492 C   0  0  0  0  0  0  0  0  0  0  0  0
   14.1448  -19.6584   18.4095 C   0  0  0  0  0  0  0  0  0  0  0  0
   15.1257  -19.6604   19.1772 O   0  0  0  0  0  0  0  0  0  0  0  0
   10.3083  -20.5333   20.1755 C   0  0  0  0  0  0  0  0  0  0  0  0
    9.9785  -19.5741   20.9135 O   0  0  0  0  0  0  0  0  0  0  0  0
   14.3387  -19.8128   17.0567 O   0  0  0  0  0  0  0  0  0  0  0  0
   10.5545  -21.7826   20.7975 N   0  0  0  0  0  0  0  0  0  0  0  0
   10.3818  -21.9213   22.2788 C   0  0  1  0  0  0  0  0  0  0  0  0
   10.0019  -23.3397   22.5631 C   0  0  0  0  0  0  0  0  0  0  0  0
   11.1298  -24.3022   22.4966 C   0  0  0  0  0  0  0  0  0  0  0  0
   10.7641  -25.6838   22.1420 C   0  0  0  0  0  0  0  0  0  0  0  0
    9.5660  -25.9806   21.9509 O   0  0  0  0  0  0  0  0  0  0  0  0
   11.6841  -21.5492   22.8652 C   0  0  0  0  0  0  0  0  0  0  0  0
   12.6982  -21.4029   22.0932 O   0  0  0  0  0  0  0  0  0  0  0  0
   11.7130  -26.6858   22.0097 O   0  0  0  0  0  0  0  0  0  0  0  0
   11.9536  -21.3223   24.2327 N   0  0  0  0  0  0  0  0  0  0  0  0
   12.2035  -19.9784   24.7566 C   0  0  1  0  0  0  0  0  0  0  0  0
   11.0562  -19.0534   24.3997 C   0  0  0  0  0  0  0  0  0  0  0  0
   11.4186  -18.2011   23.2630 C   0  0  0  0  0  0  0  0  0  0  0  0
   12.6281  -18.2041   22.6096 C   0  0  0  0  0  0  0  0  0  0  0  0
   12.5342  -17.2736   21.6382 N   0  0  0  0  0  0  0  0  0  0  0  0
   11.3233  -16.7300   21.6987 C   0  0  0  0  0  0  0  0  0  0  0  0
   10.6284  -17.2890   22.6902 N   0  0  0  0  0  0  0  0  0  0  0  0
   12.4579  -20.0917   26.1933 C   0  0  0  0  0  0  0  0  0  0  0  0
   11.8878  -21.1248   26.9530 O   0  0  0  0  0  0  0  0  0  0  0  0
   13.1942  -19.2691   26.7986 O   0  0  0  0  0  0  0  0  0  0  0  0
  2  1  1  1
  2  3  1  0
  4  3  1  0
  5  4  1  0
  6  5  2  0
  7  2  1  0
  8  7  2  0
  9  5  1  0
 10  7  1  0
 11 16  1  0
 11 10  1  0
 11 12  1  6
 13 12  1  0
 14 13  1  0
 15 14  2  0
 16 17  2  0
 18 14  1  0
 19 20  1  0
 19 16  1  0
 21 22  1  0
 20 21  1  1
 22 23  2  0
 24 23  1  0
 25 24  1  0
 26 25  2  0
 26 22  1  0
 27 20  1  0
 28 27  1  0
 29 27  2  0
M  END
$$$$
