EEH.pdb
     RDKit          3D

 29 29  0  0  1  0  0  0  0  0999 V2000
   16.4317  -22.2698   16.6793 N   0  0  0  0  0  0  0  0  0  0  0  0
   15.0020  -22.3517   16.9398 C   0  0  1  0  0  0  0  0  0  0  0  0
   14.7382  -23.7508   17.4430 C   0  0  0  0  0  0  0  0  0  0  0  0
   15.1606  -23.9885   18.8547 C   0  0  0  0  0  0  0  0  0  0  0  0
   14.8586  -25.3946   19.1876 C   0  0  0  0  0  0  0  0  0  0  0  0
   15.4084  -26.3185   18.5586 O   0  0  0  0  0  0  0  0  0  0  0  0
   14.5953  -21.3116   17.8959 C   0  0  0  0  0  0  0  0  0  0  0  0
   15.3984  -20.6237   18.5706 O   0  0  0  0  0  0  0  0  0  0  0  0
   13.9690  -25.6909   20.1937 O   0  0  0  0  0  0  0  0  0  0  0  0
   13.2115  -21.0630   18.0735 N   0  0  0  0  0  0  0  0  0  0  0  0
   12.7665  -19.9450   18.9654 C   0  0  1  0  0  0  0  0  0  0  0  0
   11.5069  -19.3778   18.3923 C   0  0  0  0  0  0  0  0  0  0  0  0
   10.9254  -18.2592   19.1757 C   0  0  0  0  0  0  0  0  0  0  0  0
    9.7886  -17.5676   18.5453 C   0  0  0  0  0  0  0  0  0  0  0  0
    9.4073  -17.9084   17.4058 O   0  0  0  0  0  0  0  0  0  0  0  0
   12.5665  -20.5553   20.2943 C   0  0  0  0  0  0  0  0  0  0  0  0
   12.0214  -21.7139   20.3744 O   0  0  0  0  0  0  0  0  0  0  0  0
    9.1128  -16.5351   19.1771 O   0  0  0  0  0  0  0  0  0  0  0  0
   12.9237  -19.9907   21.5384 N   0  0  0  0  0  0  0  0  0  0  0  0
   12.5748  -20.6345   22.8059 C   0  0  1  0  0  0  0  0  0  0  0  0
   13.4539  -20.1067   23.9230 C   0  0  0  0  0  0  0  0  0  0  0  0
   13.2632  -20.8971   25.1431 C   0  0  0  0  0  0  0  0  0  0  0  0
   12.5107  -22.0426   25.2494 C   0  0  0  0  0  0  0  0  0  0  0  0
   12.6055  -22.4383   26.5350 N   0  0  0  0  0  0  0  0  0  0  0  0
   13.3800  -21.5728   27.1804 C   0  0  0  0  0  0  0  0  0  0  0  0
   13.7904  -20.6226   26.3395 N   0  0  0  0  0  0  0  0  0  0  0  0
   11.1412  -20.4458   23.0310 C   0  0  0  0  0  0  0  0  0  0  0  0
   10.4616  -21.1622   24.0282 O   0  0  0  0  0  0  0  0  0  0  0  0
   10.4669  -19.6372   22.3405 O   0  0  0  0  0  0  0  0  0  0  0  0
  2  1  1  1
  2  3  1  0
  4  3  1  0
  5  4  1  0
  6  5  2  0
  7  2  1  0
  8  7  2  0
  9  5  1  0
 10  7  1  0
 11 16  1  0
 11 10  1  0
 11 12  1  6
 13 12  1  0
 14 13  1  0
 15 14  2  0
 16 17  2  0
 18 14  1  0
 19 20  1  0
 19 16  1  0
 21 22  1  0
 20 21  1  1
 22 23  2  0
 24 23  1  0
 25 24  1  0
 26 25  2  0
 26 22  1  0
 27 20  1  0
 28 27  1  0
 29 27  2  0
M  END
$$$$
