EEH.pdb
     RDKit          3D

 29 29  0  0  1  0  0  0  0  0999 V2000
   15.8286  -18.9376   14.7503 N   0  0  0  0  0  0  0  0  0  0  0  0
   15.9393  -20.3868   14.8274 C   0  0  1  0  0  0  0  0  0  0  0  0
   17.3937  -20.6910   15.0973 C   0  0  0  0  0  0  0  0  0  0  0  0
   18.0087  -19.8589   16.1730 C   0  0  0  0  0  0  0  0  0  0  0  0
   19.4073  -20.2995   16.3430 C   0  0  0  0  0  0  0  0  0  0  0  0
   19.6938  -21.1552   17.2017 O   0  0  0  0  0  0  0  0  0  0  0  0
   15.0406  -20.9145   15.8643 C   0  0  0  0  0  0  0  0  0  0  0  0
   14.5335  -20.2185   16.7763 O   0  0  0  0  0  0  0  0  0  0  0  0
   20.4003  -19.7675   15.5541 O   0  0  0  0  0  0  0  0  0  0  0  0
   14.7209  -22.2950   15.8405 N   0  0  0  0  0  0  0  0  0  0  0  0
   13.7447  -22.8482   16.8327 C   0  0  1  0  0  0  0  0  0  0  0  0
   13.1796  -24.1099   16.2620 C   0  0  0  0  0  0  0  0  0  0  0  0
   12.1132  -24.7323   17.0857 C   0  0  0  0  0  0  0  0  0  0  0  0
   11.5561  -25.9887   16.5574 C   0  0  0  0  0  0  0  0  0  0  0  0
   10.3310  -26.0796   16.3317 O   0  0  0  0  0  0  0  0  0  0  0  0
   14.5217  -23.0760   18.0667 C   0  0  0  0  0  0  0  0  0  0  0  0
   15.7971  -22.9408   18.0362 O   0  0  0  0  0  0  0  0  0  0  0  0
   12.3509  -27.0941   16.2959 O   0  0  0  0  0  0  0  0  0  0  0  0
   14.0026  -23.4363   19.3296 N   0  0  0  0  0  0  0  0  0  0  0  0
   14.5377  -22.8759   20.5715 C   0  0  1  0  0  0  0  0  0  0  0  0
   14.9424  -21.4294   20.3640 C   0  0  0  0  0  0  0  0  0  0  0  0
   16.3895  -21.3268   20.1512 C   0  0  0  0  0  0  0  0  0  0  0  0
   17.3274  -22.2513   20.5452 C   0  0  0  0  0  0  0  0  0  0  0  0
   18.5233  -21.7646   20.1563 N   0  0  0  0  0  0  0  0  0  0  0  0
   18.3214  -20.5977   19.5537 C   0  0  0  0  0  0  0  0  0  0  0  0
   17.0178  -20.3167   19.5432 N   0  0  0  0  0  0  0  0  0  0  0  0
   13.5416  -23.0746   21.6251 C   0  0  0  0  0  0  0  0  0  0  0  0
   12.5961  -22.0828   21.9276 O   0  0  0  0  0  0  0  0  0  0  0  0
   13.4969  -24.1385   22.2969 O   0  0  0  0  0  0  0  0  0  0  0  0
  2  1  1  1
  2  3  1  0
  4  3  1  0
  5  4  1  0
  6  5  2  0
  7  2  1  0
  8  7  2  0
  9  5  1  0
 10  7  1  0
 11 16  1  0
 11 10  1  0
 11 12  1  6
 13 12  1  0
 14 13  1  0
 15 14  2  0
 16 17  2  0
 18 14  1  0
 19 20  1  0
 19 16  1  0
 21 22  1  0
 20 21  1  6
 22 23  2  0
 24 23  1  0
 25 24  1  0
 26 25  2  0
 26 22  1  0
 27 20  1  0
 28 27  1  0
 29 27  2  0
M  END
$$$$
