EKG.pdb
     RDKit          3D

 23 22  0  0  1  0  0  0  0  0999 V2000
   13.4553  -13.8386   17.7716 N   0  0  0  0  0  0  0  0  0  0  0  0
   13.4539  -15.1000   18.4197 C   0  0  1  0  0  0  0  0  0  0  0  0
   14.8243  -15.5502   18.7803 C   0  0  0  0  0  0  0  0  0  0  0  0
   15.6203  -14.7000   19.6862 C   0  0  0  0  0  0  0  0  0  0  0  0
   16.9417  -15.1585   20.0977 C   0  0  0  0  0  0  0  0  0  0  0  0
   17.1638  -16.2334   20.6583 O   0  0  0  0  0  0  0  0  0  0  0  0
   12.5311  -15.1635   19.6099 C   0  0  0  0  0  0  0  0  0  0  0  0
   12.4185  -14.1468   20.3476 O   0  0  0  0  0  0  0  0  0  0  0  0
   18.0935  -14.3623   19.8675 O   0  0  0  0  0  0  0  0  0  0  0  0
   11.7725  -16.2945   19.9626 N   0  0  0  0  0  0  0  0  0  0  0  0
   10.7820  -16.2413   21.0742 C   0  0  1  0  0  0  0  0  0  0  0  0
    9.7251  -17.2761   20.7956 C   0  0  0  0  0  0  0  0  0  0  0  0
    9.0044  -16.9777   19.5355 C   0  0  0  0  0  0  0  0  0  0  0  0
    8.0979  -18.1336   19.1127 C   0  0  0  0  0  0  0  0  0  0  0  0
    7.3967  -17.8275   17.8106 C   0  0  0  0  0  0  0  0  0  0  0  0
    6.4619  -18.9128   17.5619 N   0  0  0  0  0  0  0  0  0  0  0  0
   11.5138  -16.3895   22.3271 C   0  0  0  0  0  0  0  0  0  0  0  0
   12.6058  -17.0540   22.3071 O   0  0  0  0  0  0  0  0  0  0  0  0
   11.1495  -15.8667   23.5964 N   0  0  0  0  0  0  0  0  0  0  0  0
   11.9724  -16.0559   24.7798 C   0  0  0  0  0  0  0  0  0  0  0  0
   11.6799  -17.3343   25.4570 C   0  0  0  0  0  0  0  0  0  0  0  0
   10.8755  -18.1327   24.9368 O   0  0  0  0  0  0  0  0  0  0  0  0
   12.2780  -17.6626   26.6525 O   0  0  0  0  0  0  0  0  0  0  0  0
  2  7  1  0
  2  1  1  1
  3  2  1  0
  4  3  1  0
  5  4  1  0
  6  5  2  0
  7  8  2  0
  9  5  1  0
 10 11  1  0
 10  7  1  0
 11 12  1  6
 12 13  1  0
 14 13  1  0
 14 15  1  0
 16 15  1  0
 17 11  1  0
 18 17  2  0
 19 17  1  0
 20 21  1  0
 20 19  1  0
 21 23  1  0
 22 21  2  0
M  END
$$$$
