EKG.pdb
     RDKit          3D

 23 22  0  0  1  0  0  0  0  0999 V2000
    8.8466  -16.1776   18.8169 N   0  0  0  0  0  0  0  0  0  0  0  0
    8.2761  -16.6299   20.0340 C   0  0  1  0  0  0  0  0  0  0  0  0
    8.4694  -18.0897   20.2392 C   0  0  0  0  0  0  0  0  0  0  0  0
    8.7259  -18.9311   19.0547 C   0  0  0  0  0  0  0  0  0  0  0  0
    8.8495  -20.3729   19.2319 C   0  0  0  0  0  0  0  0  0  0  0  0
    7.9800  -21.0918   19.7283 O   0  0  0  0  0  0  0  0  0  0  0  0
    8.7320  -15.8474   21.2390 C   0  0  0  0  0  0  0  0  0  0  0  0
    9.9595  -15.5883   21.3676 O   0  0  0  0  0  0  0  0  0  0  0  0
   10.0240  -21.0587   18.8274 O   0  0  0  0  0  0  0  0  0  0  0  0
    7.8717  -15.3764   22.2475 N   0  0  0  0  0  0  0  0  0  0  0  0
    8.4031  -14.6565   23.4387 C   0  0  1  0  0  0  0  0  0  0  0  0
    7.2615  -13.9005   24.0637 C   0  0  0  0  0  0  0  0  0  0  0  0
    7.7008  -13.1817   25.2829 C   0  0  0  0  0  0  0  0  0  0  0  0
    6.5542  -12.4017   25.9262 C   0  0  0  0  0  0  0  0  0  0  0  0
    7.0274  -11.6425   27.1430 C   0  0  0  0  0  0  0  0  0  0  0  0
    5.9014  -10.8582   27.6232 N   0  0  0  0  0  0  0  0  0  0  0  0
    9.0678  -15.6375   24.2891 C   0  0  0  0  0  0  0  0  0  0  0  0
    8.5039  -16.7744   24.4443 O   0  0  0  0  0  0  0  0  0  0  0  0
   10.2991  -15.4761   24.9783 N   0  0  0  0  0  0  0  0  0  0  0  0
   11.1764  -16.5969   25.2741 C   0  0  0  0  0  0  0  0  0  0  0  0
   10.8275  -17.2491   26.5513 C   0  0  0  0  0  0  0  0  0  0  0  0
    9.7445  -17.8592   26.6515 O   0  0  0  0  0  0  0  0  0  0  0  0
   11.6748  -17.1970   27.6349 O   0  0  0  0  0  0  0  0  0  0  0  0
  2  7  1  0
  2  1  1  6
  3  2  1  0
  4  3  1  0
  5  4  1  0
  6  5  2  0
  7  8  2  0
  9  5  1  0
 10 11  1  0
 10  7  1  0
 11 12  1  1
 12 13  1  0
 14 13  1  0
 14 15  1  0
 16 15  1  0
 17 11  1  0
 18 17  2  0
 19 17  1  0
 20 21  1  0
 20 19  1  0
 21 23  1  0
 22 21  2  0
M  END
$$$$
