EKG.pdb
     RDKit          3D

 23 22  0  0  1  0  0  0  0  0999 V2000
    9.1470  -18.4544   19.8010 N   0  0  0  0  0  0  0  0  0  0  0  0
   10.3322  -17.7149   20.0456 C   0  0  1  0  0  0  0  0  0  0  0  0
   11.0137  -17.3097   18.7879 C   0  0  0  0  0  0  0  0  0  0  0  0
   11.2760  -18.3479   17.7728 C   0  0  0  0  0  0  0  0  0  0  0  0
   11.9320  -17.9630   16.5291 C   0  0  0  0  0  0  0  0  0  0  0  0
   13.1148  -17.6285   16.4387 O   0  0  0  0  0  0  0  0  0  0  0  0
   10.1255  -16.5316   20.9562 C   0  0  0  0  0  0  0  0  0  0  0  0
   11.1201  -15.8204   21.2652 O   0  0  0  0  0  0  0  0  0  0  0  0
   11.2186  -17.9507   15.3025 O   0  0  0  0  0  0  0  0  0  0  0  0
    8.8813  -16.1566   21.4950 N   0  0  0  0  0  0  0  0  0  0  0  0
    8.7614  -14.9948   22.4200 C   0  0  1  0  0  0  0  0  0  0  0  0
    7.5004  -14.2542   22.0637 C   0  0  0  0  0  0  0  0  0  0  0  0
    7.7608  -13.2207   21.0340 C   0  0  0  0  0  0  0  0  0  0  0  0
    7.8261  -13.8220   19.6301 C   0  0  0  0  0  0  0  0  0  0  0  0
    8.0498  -12.7512   18.5889 C   0  0  0  0  0  0  0  0  0  0  0  0
    7.9490  -13.3913   17.2875 N   0  0  0  0  0  0  0  0  0  0  0  0
    8.8454  -15.5041   23.7841 C   0  0  0  0  0  0  0  0  0  0  0  0
    8.0210  -16.4166   24.1337 O   0  0  0  0  0  0  0  0  0  0  0  0
    9.7595  -15.0989   24.7927 N   0  0  0  0  0  0  0  0  0  0  0  0
    9.6772  -15.5901   26.1585 C   0  0  0  0  0  0  0  0  0  0  0  0
   10.5394  -16.7684   26.3742 C   0  0  0  0  0  0  0  0  0  0  0  0
   11.1690  -17.2509   25.4120 O   0  0  0  0  0  0  0  0  0  0  0  0
   10.6622  -17.3457   27.6178 O   0  0  0  0  0  0  0  0  0  0  0  0
  2  7  1  0
  2  1  1  6
  3  2  1  0
  4  3  1  0
  5  4  1  0
  6  5  2  0
  7  8  2  0
  9  5  1  0
 10 11  1  0
 10  7  1  0
 11 12  1  1
 12 13  1  0
 14 13  1  0
 14 15  1  0
 16 15  1  0
 17 11  1  0
 18 17  2  0
 19 17  1  0
 20 21  1  0
 20 19  1  0
 21 23  1  0
 22 21  2  0
M  END
$$$$
