EKG.pdb
     RDKit          3D

 23 22  0  0  1  0  0  0  0  0999 V2000
    8.5184  -13.2291   18.7186 N   0  0  0  0  0  0  0  0  0  0  0  0
    7.5669  -13.8073   19.5969 C   0  0  1  0  0  0  0  0  0  0  0  0
    7.1417  -15.1618   19.1552 C   0  0  0  0  0  0  0  0  0  0  0  0
    8.1234  -16.2603   19.2363 C   0  0  0  0  0  0  0  0  0  0  0  0
    7.7080  -17.6023   18.8466 C   0  0  0  0  0  0  0  0  0  0  0  0
    7.7868  -18.5953   19.5725 O   0  0  0  0  0  0  0  0  0  0  0  0
    8.0088  -13.8202   21.0380 C   0  0  0  0  0  0  0  0  0  0  0  0
    9.2433  -13.8114   21.2960 O   0  0  0  0  0  0  0  0  0  0  0  0
    7.1676  -17.8526   17.5586 O   0  0  0  0  0  0  0  0  0  0  0  0
    7.1283  -13.8410   22.1348 N   0  0  0  0  0  0  0  0  0  0  0  0
    7.6369  -13.7540   23.5324 C   0  0  1  0  0  0  0  0  0  0  0  0
    6.6170  -13.0021   24.3448 C   0  0  0  0  0  0  0  0  0  0  0  0
    7.1425  -12.6752   25.6914 C   0  0  0  0  0  0  0  0  0  0  0  0
    6.1276  -11.8890   26.5213 C   0  0  0  0  0  0  0  0  0  0  0  0
    6.6700  -11.5822   27.8970 C   0  0  0  0  0  0  0  0  0  0  0  0
    5.6172  -10.8981   28.6299 N   0  0  0  0  0  0  0  0  0  0  0  0
    7.9428  -15.1088   23.9776 C   0  0  0  0  0  0  0  0  0  0  0  0
    6.9898  -15.8078   24.4651 O   0  0  0  0  0  0  0  0  0  0  0  0
    9.2040  -15.7599   23.9286 N   0  0  0  0  0  0  0  0  0  0  0  0
   10.2084  -15.5871   24.9654 C   0  0  0  0  0  0  0  0  0  0  0  0
   10.4189  -16.8244   25.7419 C   0  0  0  0  0  0  0  0  0  0  0  0
    9.6605  -17.7976   25.5607 O   0  0  0  0  0  0  0  0  0  0  0  0
   11.4369  -16.9253   26.6629 O   0  0  0  0  0  0  0  0  0  0  0  0
  2  7  1  0
  2  1  1  6
  3  2  1  0
  4  3  1  0
  5  4  1  0
  6  5  2  0
  7  8  2  0
  9  5  1  0
 10 11  1  0
 10  7  1  0
 11 12  1  1
 12 13  1  0
 14 13  1  0
 14 15  1  0
 16 15  1  0
 17 11  1  0
 18 17  2  0
 19 17  1  0
 20 21  1  0
 20 19  1  0
 21 23  1  0
 22 21  2  0
M  END
$$$$
