EKG.pdb
     RDKit          3D

 23 22  0  0  1  0  0  0  0  0999 V2000
    8.3224  -16.4526   18.6781 N   0  0  0  0  0  0  0  0  0  0  0  0
    8.4011  -17.1061   19.9343 C   0  0  1  0  0  0  0  0  0  0  0  0
    9.2708  -18.3112   19.8895 C   0  0  0  0  0  0  0  0  0  0  0  0
    8.6250  -19.6374   19.9269 C   0  0  0  0  0  0  0  0  0  0  0  0
    9.4032  -20.8076   19.5389 C   0  0  0  0  0  0  0  0  0  0  0  0
   10.2177  -21.3768   20.2679 O   0  0  0  0  0  0  0  0  0  0  0  0
    8.7993  -16.1913   21.0641 C   0  0  0  0  0  0  0  0  0  0  0  0
    9.9914  -15.7844   21.1264 O   0  0  0  0  0  0  0  0  0  0  0  0
    9.2620  -21.3814   18.2487 O   0  0  0  0  0  0  0  0  0  0  0  0
    7.9216  -15.7502   22.0710 N   0  0  0  0  0  0  0  0  0  0  0  0
    8.4002  -14.8842   23.1848 C   0  0  1  0  0  0  0  0  0  0  0  0
    7.1926  -14.2591   23.8301 C   0  0  0  0  0  0  0  0  0  0  0  0
    7.5837  -13.3854   24.9615 C   0  0  0  0  0  0  0  0  0  0  0  0
    6.3728  -12.6999   25.5943 C   0  0  0  0  0  0  0  0  0  0  0  0
    6.7935  -11.7703   26.7077 C   0  0  0  0  0  0  0  0  0  0  0  0
    5.5936  -11.1018   27.1841 N   0  0  0  0  0  0  0  0  0  0  0  0
    9.2425  -15.7012   24.0508 C   0  0  0  0  0  0  0  0  0  0  0  0
    8.6765  -16.6052   24.7559 O   0  0  0  0  0  0  0  0  0  0  0  0
   10.6517  -15.6115   24.2039 N   0  0  0  0  0  0  0  0  0  0  0  0
   11.3711  -16.3557   25.2247 C   0  0  0  0  0  0  0  0  0  0  0  0
   12.8320  -16.1793   25.1099 C   0  0  0  0  0  0  0  0  0  0  0  0
   13.2962  -15.5195   24.1590 O   0  0  0  0  0  0  0  0  0  0  0  0
   13.6926  -16.7294   26.0327 O   0  0  0  0  0  0  0  0  0  0  0  0
  2  7  1  0
  2  1  1  6
  3  2  1  0
  4  3  1  0
  5  4  1  0
  6  5  2  0
  7  8  2  0
  9  5  1  0
 10 11  1  0
 10  7  1  0
 11 12  1  1
 12 13  1  0
 14 13  1  0
 14 15  1  0
 16 15  1  0
 17 11  1  0
 18 17  2  0
 19 17  1  0
 20 21  1  0
 20 19  1  0
 21 23  1  0
 22 21  2  0
M  END
$$$$
