EKG.pdb
     RDKit          3D

 23 22  0  0  1  0  0  0  0  0999 V2000
    8.1321  -12.7598   18.1319 N   0  0  0  0  0  0  0  0  0  0  0  0
    7.5216  -13.7194   18.9789 C   0  0  1  0  0  0  0  0  0  0  0  0
    7.5617  -15.0886   18.4008 C   0  0  0  0  0  0  0  0  0  0  0  0
    8.8577  -15.6023   17.9175 C   0  0  0  0  0  0  0  0  0  0  0  0
    8.8983  -16.9107   17.2757 C   0  0  0  0  0  0  0  0  0  0  0  0
    8.3247  -17.1883   16.2207 O   0  0  0  0  0  0  0  0  0  0  0  0
    8.0608  -13.7086   20.3865 C   0  0  0  0  0  0  0  0  0  0  0  0
    9.3031  -13.5792   20.5613 O   0  0  0  0  0  0  0  0  0  0  0  0
    9.6292  -17.9822   17.8513 O   0  0  0  0  0  0  0  0  0  0  0  0
    7.2643  -13.8339   21.5392 N   0  0  0  0  0  0  0  0  0  0  0  0
    7.8605  -13.7395   22.9012 C   0  0  1  0  0  0  0  0  0  0  0  0
    6.7955  -13.2261   23.8328 C   0  0  0  0  0  0  0  0  0  0  0  0
    7.3194  -13.0731   25.2105 C   0  0  0  0  0  0  0  0  0  0  0  0
    6.2887  -12.4358   26.1423 C   0  0  0  0  0  0  0  0  0  0  0  0
    6.8253  -12.3187   27.5492 C   0  0  0  0  0  0  0  0  0  0  0  0
    5.7394  -11.8289   28.3825 N   0  0  0  0  0  0  0  0  0  0  0  0
    8.4278  -15.0428   23.2279 C   0  0  0  0  0  0  0  0  0  0  0  0
    7.6885  -16.0737   23.0693 O   0  0  0  0  0  0  0  0  0  0  0  0
    9.7374  -15.3084   23.7090 N   0  0  0  0  0  0  0  0  0  0  0  0
   10.1616  -16.6389   24.1131 C   0  0  0  0  0  0  0  0  0  0  0  0
   11.6043  -16.6889   24.4203 C   0  0  0  0  0  0  0  0  0  0  0  0
   12.2757  -15.6387   24.3800 O   0  0  0  0  0  0  0  0  0  0  0  0
   12.2238  -17.8729   24.7508 O   0  0  0  0  0  0  0  0  0  0  0  0
  2  7  1  0
  2  1  1  6
  3  2  1  0
  4  3  1  0
  5  4  1  0
  6  5  2  0
  7  8  2  0
  9  5  1  0
 10 11  1  0
 10  7  1  0
 11 12  1  1
 12 13  1  0
 14 13  1  0
 14 15  1  0
 16 15  1  0
 17 11  1  0
 18 17  2  0
 19 17  1  0
 20 21  1  0
 20 19  1  0
 21 23  1  0
 22 21  2  0
M  END
$$$$
