EKG.pdb
     RDKit          3D

 23 22  0  0  1  0  0  0  0  0999 V2000
    7.6033  -18.5020   21.4191 N   0  0  0  0  0  0  0  0  0  0  0  0
    8.2139  -17.3961   20.7748 C   0  0  1  0  0  0  0  0  0  0  0  0
    7.4351  -16.9287   19.5977 C   0  0  0  0  0  0  0  0  0  0  0  0
    8.1542  -16.7164   18.3270 C   0  0  0  0  0  0  0  0  0  0  0  0
    7.9906  -17.6929   17.2569 C   0  0  0  0  0  0  0  0  0  0  0  0
    6.9072  -18.1549   16.8937 O   0  0  0  0  0  0  0  0  0  0  0  0
    8.5257  -16.2538   21.7075 C   0  0  0  0  0  0  0  0  0  0  0  0
    9.2273  -15.2956   21.2831 O   0  0  0  0  0  0  0  0  0  0  0  0
    9.1133  -18.1872   16.5436 O   0  0  0  0  0  0  0  0  0  0  0  0
    8.0820  -16.1777   23.0403 N   0  0  0  0  0  0  0  0  0  0  0  0
    8.5050  -15.0604   23.9302 C   0  0  1  0  0  0  0  0  0  0  0  0
    7.2987  -14.6173   24.7139 C   0  0  0  0  0  0  0  0  0  0  0  0
    7.6233  -13.4655   25.5882 C   0  0  0  0  0  0  0  0  0  0  0  0
    6.3711  -12.8726   26.2341 C   0  0  0  0  0  0  0  0  0  0  0  0
    6.7142  -11.6766   27.0901 C   0  0  0  0  0  0  0  0  0  0  0  0
    5.4647  -11.1585   27.6228 N   0  0  0  0  0  0  0  0  0  0  0  0
    9.6458  -15.5240   24.7118 C   0  0  0  0  0  0  0  0  0  0  0  0
   10.2105  -14.6896   25.4989 O   0  0  0  0  0  0  0  0  0  0  0  0
   10.2144  -16.8255   24.7043 N   0  0  0  0  0  0  0  0  0  0  0  0
   11.4205  -17.1506   25.4480 C   0  0  0  0  0  0  0  0  0  0  0  0
   11.1194  -17.8690   26.7016 C   0  0  0  0  0  0  0  0  0  0  0  0
   10.3224  -17.3669   27.5188 O   0  0  0  0  0  0  0  0  0  0  0  0
   11.7015  -19.0834   26.9865 O   0  0  0  0  0  0  0  0  0  0  0  0
  2  7  1  0
  2  1  1  1
  3  2  1  0
  4  3  1  0
  5  4  1  0
  6  5  2  0
  7  8  2  0
  9  5  1  0
 10 11  1  0
 10  7  1  0
 11 12  1  1
 12 13  1  0
 14 13  1  0
 14 15  1  0
 16 15  1  0
 17 11  1  0
 18 17  2  0
 19 17  1  0
 20 21  1  0
 20 19  1  0
 21 23  1  0
 22 21  2  0
M  END
$$$$
