EKG.pdb
     RDKit          3D

 23 22  0  0  1  0  0  0  0  0999 V2000
    8.3527  -15.8594   18.4750 N   0  0  0  0  0  0  0  0  0  0  0  0
    7.8686  -16.4200   19.6844 C   0  0  1  0  0  0  0  0  0  0  0  0
    8.0973  -17.8873   19.7569 C   0  0  0  0  0  0  0  0  0  0  0  0
    9.4897  -18.3754   19.7599 C   0  0  0  0  0  0  0  0  0  0  0  0
    9.7288  -19.8135   19.7567 C   0  0  0  0  0  0  0  0  0  0  0  0
   10.3904  -20.4127   20.6066 O   0  0  0  0  0  0  0  0  0  0  0  0
    8.3886  -15.7281   20.9184 C   0  0  0  0  0  0  0  0  0  0  0  0
    9.5682  -15.2819   20.9145 O   0  0  0  0  0  0  0  0  0  0  0  0
    9.1926  -20.6390   18.7346 O   0  0  0  0  0  0  0  0  0  0  0  0
    7.6396  -15.5400   22.0942 N   0  0  0  0  0  0  0  0  0  0  0  0
    8.1947  -14.7767   23.2470 C   0  0  1  0  0  0  0  0  0  0  0  0
    7.0402  -14.1391   23.9724 C   0  0  0  0  0  0  0  0  0  0  0  0
    7.5120  -13.3334   25.1233 C   0  0  0  0  0  0  0  0  0  0  0  0
    6.3584  -12.6176   25.8260 C   0  0  0  0  0  0  0  0  0  0  0  0
    6.8640  -11.7387   26.9453 C   0  0  0  0  0  0  0  0  0  0  0  0
    5.7136  -11.0393   27.4938 N   0  0  0  0  0  0  0  0  0  0  0  0
    9.0197  -15.6913   24.0280 C   0  0  0  0  0  0  0  0  0  0  0  0
    8.5792  -16.8756   24.2234 O   0  0  0  0  0  0  0  0  0  0  0  0
   10.2867  -15.4161   24.6075 N   0  0  0  0  0  0  0  0  0  0  0  0
   11.1564  -16.4675   25.1092 C   0  0  0  0  0  0  0  0  0  0  0  0
   10.8816  -16.7828   26.5247 C   0  0  0  0  0  0  0  0  0  0  0  0
   11.6805  -17.5007   27.1583 O   0  0  0  0  0  0  0  0  0  0  0  0
    9.7599  -16.2995   27.1595 O   0  0  0  0  0  0  0  0  0  0  0  0
  2  7  1  0
  2  1  1  6
  3  2  1  0
  4  3  1  0
  5  4  1  0
  6  5  2  0
  7  8  2  0
  9  5  1  0
 10 11  1  0
 10  7  1  0
 11 12  1  1
 12 13  1  0
 14 13  1  0
 14 15  1  0
 16 15  1  0
 17 11  1  0
 18 17  2  0
 19 17  1  0
 20 21  1  0
 20 19  1  0
 21 23  1  0
 22 21  2  0
M  END
$$$$
