EKG.pdb
     RDKit          3D

 23 22  0  0  1  0  0  0  0  0999 V2000
    8.6690  -16.9484   19.9910 N   0  0  0  0  0  0  0  0  0  0  0  0
    9.5241  -17.4172   21.0207 C   0  0  1  0  0  0  0  0  0  0  0  0
   10.8699  -17.7895   20.5102 C   0  0  0  0  0  0  0  0  0  0  0  0
   11.1248  -17.6627   19.0625 C   0  0  0  0  0  0  0  0  0  0  0  0
   12.4450  -18.0084   18.5498 C   0  0  0  0  0  0  0  0  0  0  0  0
   13.3066  -17.1869   18.2307 O   0  0  0  0  0  0  0  0  0  0  0  0
    9.6297  -16.4730   22.1910 C   0  0  0  0  0  0  0  0  0  0  0  0
   10.7737  -16.1663   22.6242 O   0  0  0  0  0  0  0  0  0  0  0  0
   12.8293  -19.3640   18.3819 O   0  0  0  0  0  0  0  0  0  0  0  0
    8.5249  -15.8986   22.8456 N   0  0  0  0  0  0  0  0  0  0  0  0
    8.7044  -15.0387   24.0488 C   0  0  1  0  0  0  0  0  0  0  0  0
    7.4131  -14.3009   24.2811 C   0  0  0  0  0  0  0  0  0  0  0  0
    7.5537  -13.3091   25.3732 C   0  0  0  0  0  0  0  0  0  0  0  0
    6.2240  -12.6270   25.6951 C   0  0  0  0  0  0  0  0  0  0  0  0
    6.3882  -11.6061   26.7959 C   0  0  0  0  0  0  0  0  0  0  0  0
    5.0927  -10.9765   26.9929 N   0  0  0  0  0  0  0  0  0  0  0  0
    9.1633  -15.8921   25.1389 C   0  0  0  0  0  0  0  0  0  0  0  0
    8.4971  -16.9546   25.3879 O   0  0  0  0  0  0  0  0  0  0  0  0
   10.2923  -15.6790   25.9737 N   0  0  0  0  0  0  0  0  0  0  0  0
   10.3164  -16.0905   27.3678 C   0  0  0  0  0  0  0  0  0  0  0  0
   10.9584  -17.4078   27.5436 C   0  0  0  0  0  0  0  0  0  0  0  0
   11.2941  -18.0644   26.5380 O   0  0  0  0  0  0  0  0  0  0  0  0
   11.1940  -17.9261   28.7969 O   0  0  0  0  0  0  0  0  0  0  0  0
  2  7  1  0
  2  1  1  6
  3  2  1  0
  4  3  1  0
  5  4  1  0
  6  5  2  0
  7  8  2  0
  9  5  1  0
 10 11  1  0
 10  7  1  0
 11 12  1  1
 12 13  1  0
 14 13  1  0
 14 15  1  0
 16 15  1  0
 17 11  1  0
 18 17  2  0
 19 17  1  0
 20 21  1  0
 20 19  1  0
 21 23  1  0
 22 21  2  0
M  END
$$$$
