EKG.pdb
     RDKit          3D

 23 22  0  0  1  0  0  0  0  0999 V2000
    8.9677  -13.0981   18.5764 N   0  0  0  0  0  0  0  0  0  0  0  0
    9.5294  -14.3071   19.0602 C   0  0  1  0  0  0  0  0  0  0  0  0
   11.0113  -14.2404   19.1594 C   0  0  0  0  0  0  0  0  0  0  0  0
   11.7917  -14.2011   17.9078 C   0  0  0  0  0  0  0  0  0  0  0  0
   13.2458  -14.2707   17.9854 C   0  0  0  0  0  0  0  0  0  0  0  0
   14.0058  -13.3519   17.6737 O   0  0  0  0  0  0  0  0  0  0  0  0
    8.9193  -14.7773   20.3559 C   0  0  0  0  0  0  0  0  0  0  0  0
    8.5766  -13.9189   21.2140 O   0  0  0  0  0  0  0  0  0  0  0  0
   13.8956  -15.4465   18.4424 O   0  0  0  0  0  0  0  0  0  0  0  0
    8.7001  -16.1280   20.6823 N   0  0  0  0  0  0  0  0  0  0  0  0
    8.0834  -16.5159   21.9818 C   0  0  1  0  0  0  0  0  0  0  0  0
    7.2359  -17.7361   21.7403 C   0  0  0  0  0  0  0  0  0  0  0  0
    6.0066  -17.3922   20.9874 C   0  0  0  0  0  0  0  0  0  0  0  0
    5.1593  -18.6289   20.6886 C   0  0  0  0  0  0  0  0  0  0  0  0
    3.9432  -18.2705   19.8679 C   0  0  0  0  0  0  0  0  0  0  0  0
    3.1791  -19.4927   19.6781 N   0  0  0  0  0  0  0  0  0  0  0  0
    9.1585  -16.6614   22.9565 C   0  0  0  0  0  0  0  0  0  0  0  0
   10.3612  -16.5208   22.5461 O   0  0  0  0  0  0  0  0  0  0  0  0
    9.0235  -16.9437   24.3418 N   0  0  0  0  0  0  0  0  0  0  0  0
   10.1702  -17.0424   25.2299 C   0  0  0  0  0  0  0  0  0  0  0  0
    9.7800  -17.4573   26.5915 C   0  0  0  0  0  0  0  0  0  0  0  0
    8.5727  -17.6147   26.8612 O   0  0  0  0  0  0  0  0  0  0  0  0
   10.7233  -17.6741   27.5702 O   0  0  0  0  0  0  0  0  0  0  0  0
  2  7  1  0
  2  1  1  1
  3  2  1  0
  4  3  1  0
  5  4  1  0
  6  5  2  0
  7  8  2  0
  9  5  1  0
 10 11  1  0
 10  7  1  0
 11 12  1  6
 12 13  1  0
 14 13  1  0
 14 15  1  0
 16 15  1  0
 17 11  1  0
 18 17  2  0
 19 17  1  0
 20 21  1  0
 20 19  1  0
 21 23  1  0
 22 21  2  0
M  END
$$$$
