EKG.pdb
     RDKit          3D

 23 22  0  0  1  0  0  0  0  0999 V2000
   11.0276  -18.7930   19.2633 N   0  0  0  0  0  0  0  0  0  0  0  0
   12.0505  -17.8601   19.5709 C   0  0  1  0  0  0  0  0  0  0  0  0
   12.7471  -17.3654   18.3541 C   0  0  0  0  0  0  0  0  0  0  0  0
   12.7229  -18.2117   17.1457 C   0  0  0  0  0  0  0  0  0  0  0  0
   13.3690  -17.7226   15.9338 C   0  0  0  0  0  0  0  0  0  0  0  0
   12.8192  -17.0160   15.0867 O   0  0  0  0  0  0  0  0  0  0  0  0
   11.5809  -16.7146   20.4309 C   0  0  0  0  0  0  0  0  0  0  0  0
   12.4051  -15.8144   20.7485 O   0  0  0  0  0  0  0  0  0  0  0  0
   14.7212  -18.0444   15.6484 O   0  0  0  0  0  0  0  0  0  0  0  0
   10.2666  -16.5746   20.9123 N   0  0  0  0  0  0  0  0  0  0  0  0
    9.8862  -15.4343   21.7923 C   0  0  1  0  0  0  0  0  0  0  0  0
    8.6475  -14.8036   21.2150 C   0  0  0  0  0  0  0  0  0  0  0  0
    8.9094  -14.2496   19.8656 C   0  0  0  0  0  0  0  0  0  0  0  0
    7.6401  -13.6858   19.2272 C   0  0  0  0  0  0  0  0  0  0  0  0
    7.9185  -13.1498   17.8430 C   0  0  0  0  0  0  0  0  0  0  0  0
    6.6725  -12.5953   17.3396 N   0  0  0  0  0  0  0  0  0  0  0  0
    9.7742  -15.9439   23.1543 C   0  0  0  0  0  0  0  0  0  0  0  0
    8.6025  -16.1641   23.6161 O   0  0  0  0  0  0  0  0  0  0  0  0
   10.8390  -16.2352   24.0479 N   0  0  0  0  0  0  0  0  0  0  0  0
   10.6127  -16.8011   25.3678 C   0  0  0  0  0  0  0  0  0  0  0  0
   11.8788  -17.1127   26.0593 C   0  0  0  0  0  0  0  0  0  0  0  0
   12.9618  -16.9028   25.4779 O   0  0  0  0  0  0  0  0  0  0  0  0
   11.8874  -17.6309   27.3345 O   0  0  0  0  0  0  0  0  0  0  0  0
  2  7  1  0
  2  1  1  6
  3  2  1  0
  4  3  1  0
  5  4  1  0
  6  5  2  0
  7  8  2  0
  9  5  1  0
 10 11  1  0
 10  7  1  0
 11 12  1  6
 12 13  1  0
 14 13  1  0
 14 15  1  0
 16 15  1  0
 17 11  1  0
 18 17  2  0
 19 17  1  0
 20 21  1  0
 20 19  1  0
 21 23  1  0
 22 21  2  0
M  END
$$$$
