EKG.pdb
     RDKit          3D

 23 22  0  0  1  0  0  0  0  0999 V2000
   10.3257  -16.0979   20.3532 N   0  0  0  0  0  0  0  0  0  0  0  0
   10.1583  -16.8518   21.5426 C   0  0  1  0  0  0  0  0  0  0  0  0
   11.1572  -17.9466   21.6616 C   0  0  0  0  0  0  0  0  0  0  0  0
   11.1675  -18.9953   20.6238 C   0  0  0  0  0  0  0  0  0  0  0  0
   12.1123  -20.0984   20.7507 C   0  0  0  0  0  0  0  0  0  0  0  0
   11.8484  -21.1873   21.2642 O   0  0  0  0  0  0  0  0  0  0  0  0
   10.1277  -16.0071   22.7906 C   0  0  0  0  0  0  0  0  0  0  0  0
   11.1423  -15.3179   23.0841 O   0  0  0  0  0  0  0  0  0  0  0  0
   13.4423  -19.9772   20.2714 O   0  0  0  0  0  0  0  0  0  0  0  0
    9.0295  -15.9301   23.6664 N   0  0  0  0  0  0  0  0  0  0  0  0
    9.0568  -15.0378   24.8591 C   0  0  1  0  0  0  0  0  0  0  0  0
    7.7800  -14.2407   24.8640 C   0  0  0  0  0  0  0  0  0  0  0  0
    7.7535  -13.2815   25.9934 C   0  0  0  0  0  0  0  0  0  0  0  0
    6.4517  -12.4809   26.0277 C   0  0  0  0  0  0  0  0  0  0  0  0
    6.4260  -11.5335   27.2036 C   0  0  0  0  0  0  0  0  0  0  0  0
    5.2171  -10.7348   27.0838 N   0  0  0  0  0  0  0  0  0  0  0  0
    9.2995  -15.8717   26.0308 C   0  0  0  0  0  0  0  0  0  0  0  0
    8.5809  -16.9188   26.1791 O   0  0  0  0  0  0  0  0  0  0  0  0
   10.2659  -15.6547   27.0487 N   0  0  0  0  0  0  0  0  0  0  0  0
   10.2396  -16.3751   28.3111 C   0  0  0  0  0  0  0  0  0  0  0  0
   11.0762  -17.5904   28.2708 C   0  0  0  0  0  0  0  0  0  0  0  0
   10.8202  -18.4827   27.4381 O   0  0  0  0  0  0  0  0  0  0  0  0
   12.1344  -17.7583   29.1351 O   0  0  0  0  0  0  0  0  0  0  0  0
  2  7  1  0
  2  1  1  6
  3  2  1  0
  4  3  1  0
  5  4  1  0
  6  5  2  0
  7  8  2  0
  9  5  1  0
 10 11  1  0
 10  7  1  0
 11 12  1  1
 12 13  1  0
 14 13  1  0
 14 15  1  0
 16 15  1  0
 17 11  1  0
 18 17  2  0
 19 17  1  0
 20 21  1  0
 20 19  1  0
 21 23  1  0
 22 21  2  0
M  END
$$$$
