MVK.pdb
     RDKit          3D

 25 24  0  0  1  0  0  0  0  0999 V2000
   29.4774  -20.0596   -8.2206 C   0  0  0  0  0  0  0  0  0  0  0  0
   28.1924  -19.6828   -7.0368 S   0  0  0  0  0  0  0  0  0  0  0  0
   26.5288  -19.7877   -7.6167 C   0  0  0  0  0  0  0  0  0  0  0  0
   26.3021  -20.4595   -8.9096 C   0  0  0  0  0  0  0  0  0  0  0  0
   24.9393  -20.4890   -9.4473 C   0  0  2  0  0  0  0  0  0  0  0  0
   23.9846  -21.1870   -8.6413 N   0  0  0  0  0  0  0  0  0  0  0  0
   24.8748  -21.0228  -10.8571 C   0  0  0  0  0  0  0  0  0  0  0  0
   25.1355  -22.2219  -11.1202 O   0  0  0  0  0  0  0  0  0  0  0  0
   22.5085  -20.3918  -14.9882 C   0  0  0  0  0  0  0  0  0  0  0  0
   22.8928  -20.7602  -13.6018 C   0  0  2  0  0  0  0  0  0  0  0  0
   22.2269  -19.8863  -12.5568 C   0  0  0  0  0  0  0  0  0  0  0  0
   24.3740  -20.7659  -13.3105 C   0  0  2  0  0  0  0  0  0  0  0  0
   24.5155  -20.1861  -11.9432 N   0  0  0  0  0  0  0  0  0  0  0  0
   25.0558  -19.7877  -14.2043 C   0  0  0  0  0  0  0  0  0  0  0  0
   24.9539  -18.5500  -14.0188 O   0  0  0  0  0  0  0  0  0  0  0  0
   25.8679  -20.2121  -15.3127 N   0  0  0  0  0  0  0  0  0  0  0  0
   26.5443  -19.4232  -16.2441 C   0  0  1  0  0  0  0  0  0  0  0  0
   27.8459  -19.7662  -16.8237 C   0  0  0  0  0  0  0  0  0  0  0  0
   28.1420  -21.0789  -17.4007 C   0  0  0  0  0  0  0  0  0  0  0  0
   29.0617  -21.9552  -16.6514 C   0  0  0  0  0  0  0  0  0  0  0  0
   29.3317  -23.2591  -17.4359 C   0  0  0  0  0  0  0  0  0  0  0  0
   30.2166  -24.0954  -16.6834 N   0  0  0  0  0  0  0  0  0  0  0  0
   25.6821  -18.7494  -17.2921 C   0  0  0  0  0  0  0  0  0  0  0  0
   26.2304  -17.6621  -17.9402 O   0  0  0  0  0  0  0  0  0  0  0  0
   24.5601  -19.1421  -17.5548 O   0  0  0  0  0  0  0  0  0  0  0  0
  2  1  1  0
  3  2  1  0
  4  5  1  0
  4  3  1  0
  5  6  1  1
  5  7  1  0
  7  8  2  0
 10 12  1  0
 10  9  1  6
 11 10  1  0
 12 14  1  0
 13  7  1  0
 12 13  1  1
 14 15  2  0
 16 17  1  0
 16 14  1  0
 17 23  1  0
 17 18  1  6
 19 18  1  0
 20 19  1  0
 21 20  1  0
 22 21  1  0
 23 25  2  0
 23 24  1  0
M  END
$$$$
