MVK.pdb
     RDKit          3D

 25 24  0  0  1  0  0  0  0  0999 V2000
   20.9489  -19.5935   -8.8847 C   0  0  0  0  0  0  0  0  0  0  0  0
   21.6389  -21.1142   -8.2475 S   0  0  0  0  0  0  0  0  0  0  0  0
   23.3275  -21.4419   -8.6427 C   0  0  0  0  0  0  0  0  0  0  0  0
   23.9206  -20.6887   -9.7631 C   0  0  0  0  0  0  0  0  0  0  0  0
   25.3322  -20.9168  -10.0830 C   0  0  2  0  0  0  0  0  0  0  0  0
   26.2458  -20.6585   -9.0121 N   0  0  0  0  0  0  0  0  0  0  0  0
   25.7868  -20.1627  -11.3083 C   0  0  0  0  0  0  0  0  0  0  0  0
   26.3173  -19.0284  -11.2248 O   0  0  0  0  0  0  0  0  0  0  0  0
   26.9524  -22.1048  -14.7715 C   0  0  0  0  0  0  0  0  0  0  0  0
   27.2425  -20.7042  -14.3721 C   0  0  2  0  0  0  0  0  0  0  0  0
   28.3896  -20.6013  -13.3857 C   0  0  0  0  0  0  0  0  0  0  0  0
   26.0801  -19.9311  -13.7976 C   0  0  2  0  0  0  0  0  0  0  0  0
   25.6311  -20.7095  -12.6066 N   0  0  0  0  0  0  0  0  0  0  0  0
   24.9297  -19.9960  -14.7426 C   0  0  0  0  0  0  0  0  0  0  0  0
   24.1473  -20.9780  -14.7548 O   0  0  0  0  0  0  0  0  0  0  0  0
   24.6556  -18.9372  -15.6764 N   0  0  0  0  0  0  0  0  0  0  0  0
   23.5777  -18.8127  -16.5540 C   0  0  1  0  0  0  0  0  0  0  0  0
   22.6075  -17.7151  -16.5166 C   0  0  0  0  0  0  0  0  0  0  0  0
   21.3913  -17.6964  -17.3317 C   0  0  0  0  0  0  0  0  0  0  0  0
   20.5334  -16.5002  -17.2392 C   0  0  0  0  0  0  0  0  0  0  0  0
   19.2871  -16.6531  -18.1401 C   0  0  0  0  0  0  0  0  0  0  0  0
   18.4328  -15.5171  -17.9714 N   0  0  0  0  0  0  0  0  0  0  0  0
   23.8457  -19.2066  -17.9923 C   0  0  0  0  0  0  0  0  0  0  0  0
   22.8559  -19.9221  -18.6337 O   0  0  0  0  0  0  0  0  0  0  0  0
   24.8806  -18.9101  -18.5607 O   0  0  0  0  0  0  0  0  0  0  0  0
  2  1  1  0
  3  2  1  0
  4  5  1  0
  4  3  1  0
  5  6  1  1
  5  7  1  0
  7  8  2  0
 10 12  1  0
 10  9  1  1
 11 10  1  0
 12 14  1  0
 13  7  1  0
 12 13  1  1
 14 15  2  0
 16 17  1  0
 16 14  1  0
 17 23  1  0
 17 18  1  6
 19 18  1  0
 20 19  1  0
 21 20  1  0
 22 21  1  0
 23 25  2  0
 23 24  1  0
M  END
$$$$
