MVK.pdb
     RDKit          3D

 25 24  0  0  1  0  0  0  0  0999 V2000
   21.4536  -21.0503   -7.9221 C   0  0  0  0  0  0  0  0  0  0  0  0
   22.9903  -20.8836   -7.0245 S   0  0  0  0  0  0  0  0  0  0  0  0
   24.4752  -21.1001   -7.9535 C   0  0  0  0  0  0  0  0  0  0  0  0
   24.5030  -20.5575   -9.3243 C   0  0  0  0  0  0  0  0  0  0  0  0
   25.6483  -20.8851  -10.1776 C   0  0  2  0  0  0  0  0  0  0  0  0
   26.9274  -20.5487   -9.6309 N   0  0  0  0  0  0  0  0  0  0  0  0
   25.5368  -20.2972  -11.5628 C   0  0  0  0  0  0  0  0  0  0  0  0
   25.6796  -19.0677  -11.7702 O   0  0  0  0  0  0  0  0  0  0  0  0
   26.2400  -20.9692  -16.3290 C   0  0  0  0  0  0  0  0  0  0  0  0
   26.1378  -21.3596  -14.8997 C   0  0  2  0  0  0  0  0  0  0  0  0
   25.7188  -22.8051  -14.7151 C   0  0  0  0  0  0  0  0  0  0  0  0
   25.2225  -20.5105  -14.0511 C   0  0  2  0  0  0  0  0  0  0  0  0
   25.2653  -21.1152  -12.6879 N   0  0  0  0  0  0  0  0  0  0  0  0
   23.8149  -20.7016  -14.5014 C   0  0  0  0  0  0  0  0  0  0  0  0
   23.1634  -21.7303  -14.1945 O   0  0  0  0  0  0  0  0  0  0  0  0
   23.1339  -19.7170  -15.2982 N   0  0  0  0  0  0  0  0  0  0  0  0
   21.8324  -19.7570  -15.8001 C   0  0  1  0  0  0  0  0  0  0  0  0
   20.8082  -18.7484  -15.5150 C   0  0  0  0  0  0  0  0  0  0  0  0
   19.4407  -18.8310  -16.0319 C   0  0  0  0  0  0  0  0  0  0  0  0
   18.5289  -17.7162  -15.7135 C   0  0  0  0  0  0  0  0  0  0  0  0
   17.1416  -17.9478  -16.3539 C   0  0  0  0  0  0  0  0  0  0  0  0
   16.3083  -16.8088  -16.1145 N   0  0  0  0  0  0  0  0  0  0  0  0
   21.6881  -20.2392  -17.2293 C   0  0  0  0  0  0  0  0  0  0  0  0
   20.7299  -21.2034  -17.4643 O   0  0  0  0  0  0  0  0  0  0  0  0
   22.3797  -19.8024  -18.1309 O   0  0  0  0  0  0  0  0  0  0  0  0
  2  1  1  0
  3  2  1  0
  4  5  1  0
  4  3  1  0
  5  6  1  1
  5  7  1  0
  7  8  2  0
 10 12  1  0
 10  9  1  6
 11 10  1  0
 12 14  1  0
 13  7  1  0
 12 13  1  1
 14 15  2  0
 16 17  1  0
 16 14  1  0
 17 23  1  0
 17 18  1  6
 19 18  1  0
 20 19  1  0
 21 20  1  0
 22 21  1  0
 23 25  2  0
 23 24  1  0
M  END
$$$$
