MVK.pdb
     RDKit          3D

 25 24  0  0  1  0  0  0  0  0999 V2000
   20.7778  -19.2278  -10.5125 C   0  0  0  0  0  0  0  0  0  0  0  0
   21.3201  -20.4648   -9.3418 S   0  0  0  0  0  0  0  0  0  0  0  0
   22.9962  -21.0005   -9.4782 C   0  0  0  0  0  0  0  0  0  0  0  0
   23.8461  -20.3227  -10.4743 C   0  0  0  0  0  0  0  0  0  0  0  0
   25.2103  -20.8183  -10.6755 C   0  0  2  0  0  0  0  0  0  0  0  0
   26.0114  -20.8860   -9.4915 N   0  0  0  0  0  0  0  0  0  0  0  0
   25.9641  -20.0523  -11.7347 C   0  0  0  0  0  0  0  0  0  0  0  0
   26.5885  -18.9974  -11.4660 O   0  0  0  0  0  0  0  0  0  0  0  0
   27.2963  -21.9281  -15.2453 C   0  0  0  0  0  0  0  0  0  0  0  0
   27.8143  -20.6848  -14.6197 C   0  0  2  0  0  0  0  0  0  0  0  0
   28.7870  -20.9585  -13.4891 C   0  0  0  0  0  0  0  0  0  0  0  0
   26.7697  -19.7283  -14.0973 C   0  0  2  0  0  0  0  0  0  0  0  0
   25.9957  -20.4974  -13.0799 N   0  0  0  0  0  0  0  0  0  0  0  0
   25.7840  -19.4375  -15.1763 C   0  0  0  0  0  0  0  0  0  0  0  0
   24.7888  -20.1781  -15.3708 O   0  0  0  0  0  0  0  0  0  0  0  0
   25.9191  -18.2940  -16.0380 N   0  0  0  0  0  0  0  0  0  0  0  0
   25.1018  -17.9083  -17.1013 C   0  0  1  0  0  0  0  0  0  0  0  0
   25.0404  -16.5474  -17.6416 C   0  0  0  0  0  0  0  0  0  0  0  0
   24.1506  -16.1636  -18.7392 C   0  0  0  0  0  0  0  0  0  0  0  0
   23.2869  -14.9864  -18.5295 C   0  0  0  0  0  0  0  0  0  0  0  0
   22.4491  -14.6937  -19.7947 C   0  0  0  0  0  0  0  0  0  0  0  0
   21.6308  -13.5409  -19.5702 N   0  0  0  0  0  0  0  0  0  0  0  0
   24.9652  -18.9106  -18.2293 C   0  0  0  0  0  0  0  0  0  0  0  0
   23.6888  -19.1503  -18.6943 O   0  0  0  0  0  0  0  0  0  0  0  0
   25.9293  -19.4802  -18.7069 O   0  0  0  0  0  0  0  0  0  0  0  0
  2  1  1  0
  3  2  1  0
  4  5  1  0
  4  3  1  0
  5  6  1  1
  5  7  1  0
  7  8  2  0
 10 12  1  0
 10  9  1  1
 11 10  1  0
 12 14  1  0
 13  7  1  0
 12 13  1  1
 14 15  2  0
 16 17  1  0
 16 14  1  0
 17 23  1  0
 17 18  1  6
 19 18  1  0
 20 19  1  0
 21 20  1  0
 22 21  1  0
 23 25  2  0
 23 24  1  0
M  END
$$$$
