MVK.pdb
     RDKit          3D

 25 24  0  0  1  0  0  0  0  0999 V2000
   26.8113  -18.9972   -7.1925 C   0  0  0  0  0  0  0  0  0  0  0  0
   28.0476  -19.9897   -8.0178 S   0  0  0  0  0  0  0  0  0  0  0  0
   27.5263  -20.8610   -9.4615 C   0  0  0  0  0  0  0  0  0  0  0  0
   26.2580  -20.4418  -10.0859 C   0  0  0  0  0  0  0  0  0  0  0  0
   25.6108  -21.3596  -11.0271 C   0  0  2  0  0  0  0  0  0  0  0  0
   26.4861  -21.9603  -11.9869 N   0  0  0  0  0  0  0  0  0  0  0  0
   24.4445  -20.7333  -11.7513 C   0  0  0  0  0  0  0  0  0  0  0  0
   23.5575  -20.0901  -11.1394 O   0  0  0  0  0  0  0  0  0  0  0  0
   24.7172  -18.9853  -15.4184 C   0  0  0  0  0  0  0  0  0  0  0  0
   23.6034  -19.9548  -15.2600 C   0  0  2  0  0  0  0  0  0  0  0  0
   22.3794  -19.5796  -16.0725 C   0  0  0  0  0  0  0  0  0  0  0  0
   23.1474  -20.2051  -13.8429 C   0  0  2  0  0  0  0  0  0  0  0  0
   24.3060  -20.8480  -13.1572 N   0  0  0  0  0  0  0  0  0  0  0  0
   22.0858  -21.2509  -13.8441 C   0  0  0  0  0  0  0  0  0  0  0  0
   22.3643  -22.4661  -13.9934 O   0  0  0  0  0  0  0  0  0  0  0  0
   20.6974  -20.9213  -13.6659 N   0  0  0  0  0  0  0  0  0  0  0  0
   19.6935  -21.6880  -13.0728 C   0  0  1  0  0  0  0  0  0  0  0  0
   19.8751  -22.4834  -11.8554 C   0  0  0  0  0  0  0  0  0  0  0  0
   18.8564  -23.4014  -11.3422 C   0  0  0  0  0  0  0  0  0  0  0  0
   18.6192  -23.4030   -9.8864 C   0  0  0  0  0  0  0  0  0  0  0  0
   19.1504  -24.7071   -9.2497 C   0  0  0  0  0  0  0  0  0  0  0  0
   18.9985  -24.6414   -7.8278 N   0  0  0  0  0  0  0  0  0  0  0  0
   18.3044  -21.0830  -13.0832 C   0  0  0  0  0  0  0  0  0  0  0  0
   17.2458  -21.9591  -12.9609 O   0  0  0  0  0  0  0  0  0  0  0  0
   18.1232  -19.8843  -13.1935 O   0  0  0  0  0  0  0  0  0  0  0  0
  2  1  1  0
  3  2  1  0
  4  5  1  0
  4  3  1  0
  5  6  1  6
  5  7  1  0
  7  8  2  0
 10 12  1  0
 10  9  1  1
 11 10  1  0
 12 14  1  0
 13  7  1  0
 12 13  1  1
 14 15  2  0
 16 17  1  0
 16 14  1  0
 17 23  1  0
 17 18  1  1
 19 18  1  0
 20 19  1  0
 21 20  1  0
 22 21  1  0
 23 25  2  0
 23 24  1  0
M  END
$$$$
