MVK.pdb
     RDKit          3D

 25 24  0  0  1  0  0  0  0  0999 V2000
   17.4948  -13.2947  -23.0086 C   0  0  0  0  0  0  0  0  0  0  0  0
   17.8019  -12.2555  -21.5872 S   0  0  0  0  0  0  0  0  0  0  0  0
   18.7784  -12.9546  -20.2939 C   0  0  0  0  0  0  0  0  0  0  0  0
   18.9968  -12.1331  -19.0890 C   0  0  0  0  0  0  0  0  0  0  0  0
   19.8452  -12.6745  -18.0240 C   0  0  2  0  0  0  0  0  0  0  0  0
   19.5004  -13.9924  -17.5853 N   0  0  0  0  0  0  0  0  0  0  0  0
   19.9334  -11.7652  -16.8231 C   0  0  0  0  0  0  0  0  0  0  0  0
   19.0938  -11.8199  -15.8920 O   0  0  0  0  0  0  0  0  0  0  0  0
   23.5564   -9.7596  -15.9162 C   0  0  0  0  0  0  0  0  0  0  0  0
   22.4810  -10.1471  -14.9681 C   0  0  2  0  0  0  0  0  0  0  0  0
   22.6161  -11.5765  -14.4804 C   0  0  0  0  0  0  0  0  0  0  0  0
   21.0682   -9.9713  -15.4702 C   0  0  2  0  0  0  0  0  0  0  0  0
   20.9733  -10.8099  -16.7004 N   0  0  0  0  0  0  0  0  0  0  0  0
   20.8878   -8.5737  -15.9551 C   0  0  0  0  0  0  0  0  0  0  0  0
   21.4251   -8.1751  -17.0177 O   0  0  0  0  0  0  0  0  0  0  0  0
   20.0854   -7.6203  -15.2373 N   0  0  0  0  0  0  0  0  0  0  0  0
   19.7895   -6.3012  -15.5832 C   0  0  1  0  0  0  0  0  0  0  0  0
   18.4307   -5.7779  -15.7484 C   0  0  0  0  0  0  0  0  0  0  0  0
   18.1498   -4.4200  -16.2186 C   0  0  0  0  0  0  0  0  0  0  0  0
   16.7368   -3.9994  -16.2662 C   0  0  0  0  0  0  0  0  0  0  0  0
   16.5974   -2.6399  -16.9877 C   0  0  0  0  0  0  0  0  0  0  0  0
   15.2504   -2.1708  -16.8678 N   0  0  0  0  0  0  0  0  0  0  0  0
   20.6718   -5.2390  -14.9596 C   0  0  0  0  0  0  0  0  0  0  0  0
   21.4086   -5.6149  -13.8556 O   0  0  0  0  0  0  0  0  0  0  0  0
   20.7331   -4.1076  -15.4050 O   0  0  0  0  0  0  0  0  0  0  0  0
  2  1  1  0
  3  2  1  0
  4  5  1  0
  4  3  1  0
  5  6  1  1
  5  7  1  0
  7  8  2  0
 10 12  1  0
 10  9  1  6
 11 10  1  0
 12 14  1  0
 13  7  1  0
 12 13  1  6
 14 15  2  0
 16 17  1  0
 16 14  1  0
 17 23  1  0
 17 18  1  1
 19 18  1  0
 20 19  1  0
 21 20  1  0
 22 21  1  0
 23 25  2  0
 23 24  1  0
M  END
$$$$
