MVK.pdb
     RDKit          3D

 25 24  0  0  1  0  0  0  0  0999 V2000
   21.7551  -23.3438  -17.0201 C   0  0  0  0  0  0  0  0  0  0  0  0
   20.9177  -21.7839  -17.2658 S   0  0  0  0  0  0  0  0  0  0  0  0
   20.3893  -20.9335  -15.8123 C   0  0  0  0  0  0  0  0  0  0  0  0
   20.4212  -21.6792  -14.5406 C   0  0  0  0  0  0  0  0  0  0  0  0
   20.0022  -20.9869  -13.3191 C   0  0  2  0  0  0  0  0  0  0  0  0
   20.5108  -19.6574  -13.1710 N   0  0  0  0  0  0  0  0  0  0  0  0
   20.3052  -21.7705  -12.0657 C   0  0  0  0  0  0  0  0  0  0  0  0
   20.2201  -23.0222  -12.0344 O   0  0  0  0  0  0  0  0  0  0  0  0
   21.1139  -19.7459   -8.3445 C   0  0  0  0  0  0  0  0  0  0  0  0
   21.7619  -21.0251   -8.7310 C   0  0  2  0  0  0  0  0  0  0  0  0
   23.1179  -20.8232   -9.3789 C   0  0  0  0  0  0  0  0  0  0  0  0
   20.9551  -21.9218   -9.6386 C   0  0  2  0  0  0  0  0  0  0  0  0
   20.6995  -21.1194  -10.8701 N   0  0  0  0  0  0  0  0  0  0  0  0
   19.6051  -22.1373   -9.0453 C   0  0  0  0  0  0  0  0  0  0  0  0
   18.5801  -21.6080   -9.5412 O   0  0  0  0  0  0  0  0  0  0  0  0
   19.4103  -22.9661   -7.8863 N   0  0  0  0  0  0  0  0  0  0  0  0
   18.3415  -23.8155   -7.5976 C   0  0  1  0  0  0  0  0  0  0  0  0
   17.7650  -24.7675   -8.5511 C   0  0  0  0  0  0  0  0  0  0  0  0
   16.5818  -25.5774   -8.2542 C   0  0  0  0  0  0  0  0  0  0  0  0
   16.1251  -26.5151   -9.2971 C   0  0  0  0  0  0  0  0  0  0  0  0
   14.8410  -27.2473   -8.8463 C   0  0  0  0  0  0  0  0  0  0  0  0
   14.3835  -28.1024   -9.8991 N   0  0  0  0  0  0  0  0  0  0  0  0
   18.3307  -24.4178   -6.2074 C   0  0  0  0  0  0  0  0  0  0  0  0
   19.5577  -24.6206   -5.6102 O   0  0  0  0  0  0  0  0  0  0  0  0
   17.2949  -24.7109   -5.6388 O   0  0  0  0  0  0  0  0  0  0  0  0
  2  1  1  0
  3  2  1  0
  4  5  1  0
  4  3  1  0
  5  6  1  1
  5  7  1  0
  7  8  2  0
 10 12  1  0
 10  9  1  6
 11 10  1  0
 12 14  1  0
 13  7  1  0
 12 13  1  6
 14 15  2  0
 16 17  1  0
 16 14  1  0
 17 23  1  0
 17 18  1  6
 19 18  1  0
 20 19  1  0
 21 20  1  0
 22 21  1  0
 23 25  2  0
 23 24  1  0
M  END
$$$$
