MVK.pdb
     RDKit          3D

 25 24  0  0  1  0  0  0  0  0999 V2000
   24.7220  -25.6180  -17.0945 C   0  0  0  0  0  0  0  0  0  0  0  0
   25.7074  -25.6888  -15.6050 S   0  0  0  0  0  0  0  0  0  0  0  0
   26.4985  -24.1910  -15.1093 C   0  0  0  0  0  0  0  0  0  0  0  0
   25.6740  -23.1870  -14.4118 C   0  0  0  0  0  0  0  0  0  0  0  0
   25.0827  -22.1039  -15.2019 C   0  0  2  0  0  0  0  0  0  0  0  0
   26.0241  -21.2475  -15.8566 N   0  0  0  0  0  0  0  0  0  0  0  0
   24.1178  -21.2569  -14.4092 C   0  0  0  0  0  0  0  0  0  0  0  0
   24.4885  -20.2139  -13.8180 O   0  0  0  0  0  0  0  0  0  0  0  0
   20.6738  -18.4616  -14.1706 C   0  0  0  0  0  0  0  0  0  0  0  0
   21.6033  -19.5338  -14.6087 C   0  0  2  0  0  0  0  0  0  0  0  0
   21.2179  -20.1333  -15.9471 C   0  0  0  0  0  0  0  0  0  0  0  0
   21.7932  -20.6749  -13.6388 C   0  0  2  0  0  0  0  0  0  0  0  0
   22.7491  -21.6090  -14.3018 N   0  0  0  0  0  0  0  0  0  0  0  0
   20.5244  -21.4495  -13.5346 C   0  0  0  0  0  0  0  0  0  0  0  0
   20.0674  -22.0918  -14.5120 O   0  0  0  0  0  0  0  0  0  0  0  0
   19.7695  -21.5062  -12.3118 N   0  0  0  0  0  0  0  0  0  0  0  0
   18.5468  -22.1362  -12.0762 C   0  0  1  0  0  0  0  0  0  0  0  0
   18.0480  -22.4954  -10.7459 C   0  0  0  0  0  0  0  0  0  0  0  0
   17.8980  -23.8810  -10.2969 C   0  0  0  0  0  0  0  0  0  0  0  0
   18.2481  -24.1794   -8.8955 C   0  0  0  0  0  0  0  0  0  0  0  0
   17.9930  -25.6698   -8.5762 C   0  0  0  0  0  0  0  0  0  0  0  0
   18.3108  -25.9262   -7.2043 N   0  0  0  0  0  0  0  0  0  0  0  0
   17.3920  -21.6887  -12.9491 C   0  0  0  0  0  0  0  0  0  0  0  0
   17.5441  -20.4878  -13.6107 O   0  0  0  0  0  0  0  0  0  0  0  0
   16.3769  -22.3505  -13.0660 O   0  0  0  0  0  0  0  0  0  0  0  0
  2  1  1  0
  3  2  1  0
  4  5  1  0
  4  3  1  0
  5  6  1  1
  5  7  1  0
  7  8  2  0
 10 12  1  0
 10  9  1  1
 11 10  1  0
 12 14  1  0
 13  7  1  0
 12 13  1  6
 14 15  2  0
 16 17  1  0
 16 14  1  0
 17 23  1  0
 17 18  1  1
 19 18  1  0
 20 19  1  0
 21 20  1  0
 22 21  1  0
 23 25  2  0
 23 24  1  0
M  END
$$$$
