MVK.pdb
     RDKit          3D

 25 24  0  0  1  0  0  0  0  0999 V2000
   21.8061  -21.1780  -12.7838 C   0  0  0  0  0  0  0  0  0  0  0  0
   22.6760  -22.2114  -13.9543 S   0  0  0  0  0  0  0  0  0  0  0  0
   24.1417  -21.5353  -14.6681 C   0  0  0  0  0  0  0  0  0  0  0  0
   24.9028  -22.3930  -15.5951 C   0  0  0  0  0  0  0  0  0  0  0  0
   26.1216  -21.8504  -16.2009 C   0  0  2  0  0  0  0  0  0  0  0  0
   25.9496  -20.6198  -16.9109 N   0  0  0  0  0  0  0  0  0  0  0  0
   26.8235  -22.8403  -17.0978 C   0  0  0  0  0  0  0  0  0  0  0  0
   26.5129  -22.9693  -18.3068 O   0  0  0  0  0  0  0  0  0  0  0  0
   30.9062  -25.1829  -16.8463 C   0  0  0  0  0  0  0  0  0  0  0  0
   29.9742  -24.2699  -17.5557 C   0  0  2  0  0  0  0  0  0  0  0  0
   30.0790  -22.8356  -17.0750 C   0  0  0  0  0  0  0  0  0  0  0  0
   28.5157  -24.6570  -17.5122 C   0  0  2  0  0  0  0  0  0  0  0  0
   27.8653  -23.6660  -16.6063 N   0  0  0  0  0  0  0  0  0  0  0  0
   28.3728  -25.9608  -16.8049 C   0  0  0  0  0  0  0  0  0  0  0  0
   27.9731  -26.0202  -15.6160 O   0  0  0  0  0  0  0  0  0  0  0  0
   28.6754  -27.2100  -17.4500 N   0  0  0  0  0  0  0  0  0  0  0  0
   28.5594  -28.5019  -16.9355 C   0  0  1  0  0  0  0  0  0  0  0  0
   27.3701  -29.0107  -16.2468 C   0  0  0  0  0  0  0  0  0  0  0  0
   27.3155  -30.3320  -15.6182 C   0  0  0  0  0  0  0  0  0  0  0  0
   26.4506  -31.3462  -16.2499 C   0  0  0  0  0  0  0  0  0  0  0  0
   26.4342  -32.6452  -15.4128 C   0  0  0  0  0  0  0  0  0  0  0  0
   25.3816  -33.4983  -15.8745 N   0  0  0  0  0  0  0  0  0  0  0  0
   29.1747  -29.6057  -17.7715 C   0  0  0  0  0  0  0  0  0  0  0  0
   28.9628  -29.5433  -19.1332 O   0  0  0  0  0  0  0  0  0  0  0  0
   29.8251  -30.5063  -17.2737 O   0  0  0  0  0  0  0  0  0  0  0  0
  2  1  1  0
  3  2  1  0
  4  5  1  0
  4  3  1  0
  5  6  1  6
  5  7  1  0
  7  8  2  0
 10 12  1  0
 10  9  1  1
 11 10  1  0
 12 14  1  0
 13  7  1  0
 12 13  1  1
 14 15  2  0
 16 17  1  0
 16 14  1  0
 17 23  1  0
 17 18  1  6
 19 18  1  0
 20 19  1  0
 21 20  1  0
 22 21  1  0
 23 25  2  0
 23 24  1  0
M  END
$$$$
