MVK.pdb
     RDKit          3D

 25 24  0  0  1  0  0  0  0  0999 V2000
   20.6834  -17.4932  -17.1499 C   0  0  0  0  0  0  0  0  0  0  0  0
   22.2908  -16.8845  -17.6402 S   0  0  0  0  0  0  0  0  0  0  0  0
   23.6856  -17.8391  -17.1320 C   0  0  0  0  0  0  0  0  0  0  0  0
   23.4335  -18.9892  -16.2443 C   0  0  0  0  0  0  0  0  0  0  0  0
   24.5770  -19.6099  -15.5704 C   0  0  2  0  0  0  0  0  0  0  0  0
   25.6007  -20.1009  -16.4418 N   0  0  0  0  0  0  0  0  0  0  0  0
   24.1731  -20.7097  -14.6195 C   0  0  0  0  0  0  0  0  0  0  0  0
   24.0252  -21.8943  -15.0068 O   0  0  0  0  0  0  0  0  0  0  0  0
   23.8914  -20.0100  -10.3328 C   0  0  0  0  0  0  0  0  0  0  0  0
   24.3484  -21.2401  -11.0282 C   0  0  2  0  0  0  0  0  0  0  0  0
   25.8358  -21.2289  -11.3228 C   0  0  0  0  0  0  0  0  0  0  0  0
   23.6337  -21.5701  -12.3163 C   0  0  2  0  0  0  0  0  0  0  0  0
   23.9444  -20.4454  -13.2460 N   0  0  0  0  0  0  0  0  0  0  0  0
   22.1620  -21.4814  -12.1001 C   0  0  0  0  0  0  0  0  0  0  0  0
   21.5562  -20.3832  -12.1626 O   0  0  0  0  0  0  0  0  0  0  0  0
   21.3658  -22.6457  -11.8199 N   0  0  0  0  0  0  0  0  0  0  0  0
   20.0689  -22.7065  -11.3081 C   0  0  1  0  0  0  0  0  0  0  0  0
   19.7488  -22.7594   -9.8790 C   0  0  0  0  0  0  0  0  0  0  0  0
   19.1221  -23.9201   -9.2437 C   0  0  0  0  0  0  0  0  0  0  0  0
   18.8048  -23.8155   -7.8070 C   0  0  0  0  0  0  0  0  0  0  0  0
   18.0043  -25.0504   -7.3350 C   0  0  0  0  0  0  0  0  0  0  0  0
   17.8129  -24.9832   -5.9181 N   0  0  0  0  0  0  0  0  0  0  0  0
   19.0315  -21.8721  -12.0316 C   0  0  0  0  0  0  0  0  0  0  0  0
   17.7122  -22.0962  -11.6964 O   0  0  0  0  0  0  0  0  0  0  0  0
   19.3390  -21.0431  -12.8684 O   0  0  0  0  0  0  0  0  0  0  0  0
  2  1  1  0
  3  2  1  0
  4  5  1  0
  4  3  1  0
  5  6  1  6
  5  7  1  0
  7  8  2  0
 10 12  1  0
 10  9  1  6
 11 10  1  0
 12 14  1  0
 13  7  1  0
 12 13  1  6
 14 15  2  0
 16 17  1  0
 16 14  1  0
 17 23  1  0
 17 18  1  1
 19 18  1  0
 20 19  1  0
 21 20  1  0
 22 21  1  0
 23 25  2  0
 23 24  1  0
M  END
$$$$
