MVK.pdb
     RDKit          3D

 25 24  0  0  1  0  0  0  0  0999 V2000
   24.7977  -14.8641  -15.9286 C   0  0  0  0  0  0  0  0  0  0  0  0
   26.5281  -14.7821  -15.4886 S   0  0  0  0  0  0  0  0  0  0  0  0
   27.3863  -16.3196  -15.3683 C   0  0  0  0  0  0  0  0  0  0  0  0
   26.6069  -17.5011  -14.9551 C   0  0  0  0  0  0  0  0  0  0  0  0
   27.2940  -18.7928  -14.8748 C   0  0  2  0  0  0  0  0  0  0  0  0
   27.8912  -19.2387  -16.0965 N   0  0  0  0  0  0  0  0  0  0  0  0
   26.4172  -19.8922  -14.3275 C   0  0  0  0  0  0  0  0  0  0  0  0
   25.8398  -20.7118  -15.0823 O   0  0  0  0  0  0  0  0  0  0  0  0
   25.3470  -20.2918  -10.0295 C   0  0  0  0  0  0  0  0  0  0  0  0
   25.7231  -21.3544  -10.9964 C   0  0  2  0  0  0  0  0  0  0  0  0
   27.2108  -21.6474  -10.9965 C   0  0  0  0  0  0  0  0  0  0  0  0
   25.3080  -21.1161  -12.4281 C   0  0  2  0  0  0  0  0  0  0  0  0
   26.2114  -20.0416  -12.9332 N   0  0  0  0  0  0  0  0  0  0  0  0
   23.9492  -20.5048  -12.4521 C   0  0  0  0  0  0  0  0  0  0  0  0
   23.7807  -19.2761  -12.2556 O   0  0  0  0  0  0  0  0  0  0  0  0
   22.7706  -21.2875  -12.7097 N   0  0  0  0  0  0  0  0  0  0  0  0
   21.5191  -20.8520  -13.1470 C   0  0  1  0  0  0  0  0  0  0  0  0
   21.3138  -19.9125  -14.2529 C   0  0  0  0  0  0  0  0  0  0  0  0
   20.0179  -19.2988  -14.5491 C   0  0  0  0  0  0  0  0  0  0  0  0
   19.3649  -19.6759  -15.8167 C   0  0  0  0  0  0  0  0  0  0  0  0
   18.0646  -18.8662  -16.0212 C   0  0  0  0  0  0  0  0  0  0  0  0
   17.4195  -19.2935  -17.2255 N   0  0  0  0  0  0  0  0  0  0  0  0
   20.4201  -21.8950  -13.1545 C   0  0  0  0  0  0  0  0  0  0  0  0
   20.8158  -23.2115  -13.2690 O   0  0  0  0  0  0  0  0  0  0  0  0
   19.2439  -21.5941  -13.0642 O   0  0  0  0  0  0  0  0  0  0  0  0
  2  1  1  0
  3  2  1  0
  4  5  1  0
  4  3  1  0
  5  6  1  6
  5  7  1  0
  7  8  2  0
 10 12  1  0
 10  9  1  1
 11 10  1  0
 12 14  1  0
 13  7  1  0
 12 13  1  1
 14 15  2  0
 16 17  1  0
 16 14  1  0
 17 23  1  0
 17 18  1  6
 19 18  1  0
 20 19  1  0
 21 20  1  0
 22 21  1  0
 23 25  2  0
 23 24  1  0
M  END
$$$$
