MVK.pdb
     RDKit          3D

 25 24  0  0  1  0  0  0  0  0999 V2000
   22.6364  -24.6879  -19.6093 C   0  0  0  0  0  0  0  0  0  0  0  0
   22.5693  -22.9129  -19.8079 S   0  0  0  0  0  0  0  0  0  0  0  0
   23.7098  -21.9671  -18.8489 C   0  0  0  0  0  0  0  0  0  0  0  0
   23.4810  -21.9007  -17.3937 C   0  0  0  0  0  0  0  0  0  0  0  0
   22.1233  -21.6256  -16.9162 C   0  0  2  0  0  0  0  0  0  0  0  0
   21.5558  -20.3957  -17.3782 N   0  0  0  0  0  0  0  0  0  0  0  0
   22.0051  -21.6863  -15.4131 C   0  0  0  0  0  0  0  0  0  0  0  0
   22.5004  -22.6303  -14.7508 O   0  0  0  0  0  0  0  0  0  0  0  0
   20.3963  -19.3285  -11.2924 C   0  0  0  0  0  0  0  0  0  0  0  0
   20.7382  -19.4309  -12.7339 C   0  0  2  0  0  0  0  0  0  0  0  0
   19.6084  -18.9782  -13.6382 C   0  0  0  0  0  0  0  0  0  0  0  0
   21.1802  -20.7941  -13.2087 C   0  0  2  0  0  0  0  0  0  0  0  0
   21.3270  -20.6744  -14.6885 N   0  0  0  0  0  0  0  0  0  0  0  0
   20.0667  -21.7664  -13.0204 C   0  0  0  0  0  0  0  0  0  0  0  0
   19.0817  -21.7924  -13.7987 O   0  0  0  0  0  0  0  0  0  0  0  0
   20.0708  -22.7245  -11.9479 N   0  0  0  0  0  0  0  0  0  0  0  0
   19.0698  -23.6283  -11.5890 C   0  0  1  0  0  0  0  0  0  0  0  0
   19.2882  -24.8079  -10.7474 C   0  0  0  0  0  0  0  0  0  0  0  0
   18.2540  -25.8144  -10.4996 C   0  0  0  0  0  0  0  0  0  0  0  0
   18.6615  -27.0427   -9.7918 C   0  0  0  0  0  0  0  0  0  0  0  0
   17.4884  -28.0466   -9.7244 C   0  0  0  0  0  0  0  0  0  0  0  0
   17.9184  -29.2405   -9.0620 N   0  0  0  0  0  0  0  0  0  0  0  0
   17.7138  -23.0268  -11.2805 C   0  0  0  0  0  0  0  0  0  0  0  0
   16.6093  -23.7598  -11.6623 O   0  0  0  0  0  0  0  0  0  0  0  0
   17.5966  -21.9506  -10.7237 O   0  0  0  0  0  0  0  0  0  0  0  0
  2  1  1  0
  3  2  1  0
  4  5  1  0
  4  3  1  0
  5  6  1  1
  5  7  1  0
  7  8  2  0
 10 12  1  0
 10  9  1  1
 11 10  1  0
 12 14  1  0
 13  7  1  0
 12 13  1  6
 14 15  2  0
 16 17  1  0
 16 14  1  0
 17 23  1  0
 17 18  1  1
 19 18  1  0
 20 19  1  0
 21 20  1  0
 22 21  1  0
 23 25  2  0
 23 24  1  0
M  END
$$$$
