SSD.pdb
     RDKit          3D

 21 20  0  0  1  0  0  0  0  0999 V2000
   26.2157  -20.8789   -9.1662 O   0  0  0  0  0  0  0  0  0  0  0  0
   25.5441  -20.7676  -10.3695 C   0  0  0  0  0  0  0  0  0  0  0  0
   26.2248  -21.5226  -11.5065 C   0  0  2  0  0  0  0  0  0  0  0  0
   27.4898  -20.8505  -11.7974 N   0  0  0  0  0  0  0  0  0  0  0  0
   25.3450  -21.4856  -12.6991 C   0  0  0  0  0  0  0  0  0  0  0  0
   25.2920  -20.4186  -13.3893 O   0  0  0  0  0  0  0  0  0  0  0  0
   24.6318  -24.6653  -15.0252 O   0  0  0  0  0  0  0  0  0  0  0  0
   23.4413  -24.0602  -14.6089 C   0  0  0  0  0  0  0  0  0  0  0  0
   23.7280  -22.6577  -14.2155 C   0  0  2  0  0  0  0  0  0  0  0  0
   24.5852  -22.6221  -13.0519 N   0  0  0  0  0  0  0  0  0  0  0  0
   22.5452  -21.8228  -13.9733 C   0  0  0  0  0  0  0  0  0  0  0  0
   22.1526  -21.6598  -12.7936 O   0  0  0  0  0  0  0  0  0  0  0  0
   21.8196  -21.1850  -15.0372 N   0  0  0  0  0  0  0  0  0  0  0  0
   20.6569  -20.4039  -14.7003 C   0  0  1  0  0  0  0  0  0  0  0  0
   21.0715  -18.9855  -14.3807 C   0  0  0  0  0  0  0  0  0  0  0  0
   19.9171  -18.1066  -14.0929 C   0  0  0  0  0  0  0  0  0  0  0  0
   19.0843  -18.5135  -13.2438 O   0  0  0  0  0  0  0  0  0  0  0  0
   19.6268  -20.4448  -15.7713 C   0  0  0  0  0  0  0  0  0  0  0  0
   18.4213  -20.7172  -15.5474 O   0  0  0  0  0  0  0  0  0  0  0  0
   19.6902  -16.8798  -14.6863 O   0  0  0  0  0  0  0  0  0  0  0  0
   20.0012  -20.1721  -17.0780 O   0  0  0  0  0  0  0  0  0  0  0  0
  1  2  1  0
  2  3  1  0
  3  5  1  0
  3  4  1  6
  5  6  2  0
  7  8  1  0
  9  8  1  1
 10  9  1  0
 10  5  1  0
 11 13  1  0
 11  9  1  0
 12 11  2  0
 14 13  1  0
 14 15  1  6
 15 16  1  0
 16 20  1  0
 17 16  2  0
 18 14  1  0
 19 18  2  0
 21 18  1  0
M  END
$$$$
