SSD.pdb
     RDKit          3D

 21 20  0  0  1  0  0  0  0  0999 V2000
   18.0031  -10.1433  -19.9725 O   0  0  0  0  0  0  0  0  0  0  0  0
   18.2221   -9.7493  -18.6656 C   0  0  0  0  0  0  0  0  0  0  0  0
   19.0403  -10.7578  -17.8659 C   0  0  2  0  0  0  0  0  0  0  0  0
   18.2388  -11.9716  -17.7207 N   0  0  0  0  0  0  0  0  0  0  0  0
   19.3360  -10.1830  -16.5317 C   0  0  0  0  0  0  0  0  0  0  0  0
   18.9732  -10.8229  -15.4941 O   0  0  0  0  0  0  0  0  0  0  0  0
   21.9327   -8.7707  -13.3609 O   0  0  0  0  0  0  0  0  0  0  0  0
   21.4685   -9.3375  -14.5525 C   0  0  0  0  0  0  0  0  0  0  0  0
   20.4808   -8.4165  -15.1690 C   0  0  2  0  0  0  0  0  0  0  0  0
   20.0099   -8.9466  -16.4289 N   0  0  0  0  0  0  0  0  0  0  0  0
   20.9493   -7.0394  -15.3660 C   0  0  0  0  0  0  0  0  0  0  0  0
   21.7238   -6.7962  -16.3217 O   0  0  0  0  0  0  0  0  0  0  0  0
   20.5540   -5.9589  -14.5050 N   0  0  0  0  0  0  0  0  0  0  0  0
   21.0679   -4.6415  -14.7800 C   0  0  1  0  0  0  0  0  0  0  0  0
   19.9649   -3.6204  -14.6169 C   0  0  0  0  0  0  0  0  0  0  0  0
   18.8436   -3.8395  -15.5564 C   0  0  0  0  0  0  0  0  0  0  0  0
   19.1155   -3.8396  -16.7837 O   0  0  0  0  0  0  0  0  0  0  0  0
   22.2464   -4.3138  -13.9352 C   0  0  0  0  0  0  0  0  0  0  0  0
   22.6321   -5.0457  -12.9902 O   0  0  0  0  0  0  0  0  0  0  0  0
   17.5286   -4.0425  -15.1845 O   0  0  0  0  0  0  0  0  0  0  0  0
   22.9585   -3.1524  -14.1921 O   0  0  0  0  0  0  0  0  0  0  0  0
  1  2  1  0
  2  3  1  0
  3  5  1  0
  3  4  1  1
  5  6  2  0
  7  8  1  0
  9  8  1  6
 10  9  1  0
 10  5  1  0
 11 13  1  0
 11  9  1  0
 12 11  2  0
 14 13  1  0
 14 15  1  1
 15 16  1  0
 16 20  1  0
 17 16  2  0
 18 14  1  0
 19 18  2  0
 21 18  1  0
M  END
$$$$
