SSD.pdb
     RDKit          3D

 21 20  0  0  1  0  0  0  0  0999 V2000
   17.6731  -10.9514  -19.2568 O   0  0  0  0  0  0  0  0  0  0  0  0
   18.0631  -10.2749  -18.1160 C   0  0  0  0  0  0  0  0  0  0  0  0
   18.8884  -11.1342  -17.1638 C   0  0  2  0  0  0  0  0  0  0  0  0
   18.0223  -12.1944  -16.6512 N   0  0  0  0  0  0  0  0  0  0  0  0
   19.3664  -10.2854  -16.0463 C   0  0  0  0  0  0  0  0  0  0  0  0
   18.5356   -9.9187  -15.1557 O   0  0  0  0  0  0  0  0  0  0  0  0
   23.4418   -9.3971  -15.7144 O   0  0  0  0  0  0  0  0  0  0  0  0
   22.6463   -9.5558  -14.5748 C   0  0  0  0  0  0  0  0  0  0  0  0
   21.2627   -9.1203  -14.8911 C   0  0  2  0  0  0  0  0  0  0  0  0
   20.7227   -9.8986  -15.9832 N   0  0  0  0  0  0  0  0  0  0  0  0
   21.1110   -7.6914  -15.1913 C   0  0  0  0  0  0  0  0  0  0  0  0
   21.2225   -7.3092  -16.3803 O   0  0  0  0  0  0  0  0  0  0  0  0
   20.8394   -6.7136  -14.1738 N   0  0  0  0  0  0  0  0  0  0  0  0
   20.8915   -5.3194  -14.5333 C   0  0  1  0  0  0  0  0  0  0  0  0
   19.5714   -4.6595  -14.2052 C   0  0  0  0  0  0  0  0  0  0  0  0
   19.5722   -3.2095  -14.4976 C   0  0  0  0  0  0  0  0  0  0  0  0
   19.6557   -2.8679  -15.7045 O   0  0  0  0  0  0  0  0  0  0  0  0
   22.0303   -4.6174  -13.8852 C   0  0  0  0  0  0  0  0  0  0  0  0
   22.4947   -3.5320  -14.3137 O   0  0  0  0  0  0  0  0  0  0  0  0
   19.4885   -2.2111  -13.5463 O   0  0  0  0  0  0  0  0  0  0  0  0
   22.6134   -5.1757  -12.7580 O   0  0  0  0  0  0  0  0  0  0  0  0
  1  2  1  0
  2  3  1  0
  3  5  1  0
  3  4  1  1
  5  6  2  0
  7  8  1  0
  9  8  1  6
 10  9  1  0
 10  5  1  0
 11 13  1  0
 11  9  1  0
 12 11  2  0
 14 13  1  0
 14 15  1  1
 15 16  1  0
 16 20  1  0
 17 16  2  0
 18 14  1  0
 19 18  2  0
 21 18  1  0
M  END
$$$$
