SSD.pdb
     RDKit          3D

 21 20  0  0  1  0  0  0  0  0999 V2000
   15.1540  -12.0680  -10.6306 O   0  0  0  0  0  0  0  0  0  0  0  0
   15.3878  -10.7742  -11.0583 C   0  0  0  0  0  0  0  0  0  0  0  0
   15.2482   -9.7416   -9.9446 C   0  0  2  0  0  0  0  0  0  0  0  0
   13.8561   -9.7477   -9.4989 N   0  0  0  0  0  0  0  0  0  0  0  0
   15.6023   -8.4066  -10.4832 C   0  0  0  0  0  0  0  0  0  0  0  0
   14.7149   -7.7415  -11.1061 O   0  0  0  0  0  0  0  0  0  0  0  0
   17.7362   -5.8049   -8.7127 O   0  0  0  0  0  0  0  0  0  0  0  0
   17.0886   -5.5227   -9.9201 C   0  0  0  0  0  0  0  0  0  0  0  0
   17.3363   -6.6369  -10.8693 C   0  0  2  0  0  0  0  0  0  0  0  0
   16.9049   -7.8939  -10.3002 N   0  0  0  0  0  0  0  0  0  0  0  0
   18.7228   -6.7645  -11.3343 C   0  0  0  0  0  0  0  0  0  0  0  0
   19.5705   -7.2837  -10.5701 O   0  0  0  0  0  0  0  0  0  0  0  0
   19.1457   -6.3167  -12.6327 N   0  0  0  0  0  0  0  0  0  0  0  0
   20.5115   -6.5517  -13.0263 C   0  0  1  0  0  0  0  0  0  0  0  0
   20.5810   -6.7647  -14.5215 C   0  0  0  0  0  0  0  0  0  0  0  0
   19.6523   -7.8164  -14.9899 C   0  0  0  0  0  0  0  0  0  0  0  0
   19.7048   -8.9289  -14.4070 O   0  0  0  0  0  0  0  0  0  0  0  0
   21.4160   -5.4569  -12.5868 C   0  0  0  0  0  0  0  0  0  0  0  0
   20.9944   -4.3405  -12.1951 O   0  0  0  0  0  0  0  0  0  0  0  0
   18.7381   -7.6647  -16.0146 O   0  0  0  0  0  0  0  0  0  0  0  0
   22.7864   -5.6656  -12.6057 O   0  0  0  0  0  0  0  0  0  0  0  0
  1  2  1  0
  2  3  1  0
  3  5  1  0
  3  4  1  6
  5  6  2  0
  7  8  1  0
  9  8  1  1
 10  9  1  0
 10  5  1  0
 11 13  1  0
 11  9  1  0
 12 11  2  0
 14 13  1  0
 14 15  1  6
 15 16  1  0
 16 20  1  0
 17 16  2  0
 18 14  1  0
 19 18  2  0
 21 18  1  0
M  END
$$$$
