SSD.pdb
     RDKit          3D

 21 20  0  0  1  0  0  0  0  0999 V2000
   16.2298  -10.9492  -17.8816 O   0  0  0  0  0  0  0  0  0  0  0  0
   17.0521  -10.3154  -16.9687 C   0  0  0  0  0  0  0  0  0  0  0  0
   18.3076  -11.1158  -16.6381 C   0  0  2  0  0  0  0  0  0  0  0  0
   17.8996  -12.2989  -15.8828 N   0  0  0  0  0  0  0  0  0  0  0  0
   19.2081  -10.2741  -15.8144 C   0  0  0  0  0  0  0  0  0  0  0  0
   18.7761   -9.8110  -14.7113 O   0  0  0  0  0  0  0  0  0  0  0  0
   23.7063   -8.6777  -15.1432 O   0  0  0  0  0  0  0  0  0  0  0  0
   22.8455   -9.5057  -15.8714 C   0  0  0  0  0  0  0  0  0  0  0  0
   21.4440   -9.1821  -15.5043 C   0  0  2  0  0  0  0  0  0  0  0  0
   20.5201   -9.9997  -16.2579 N   0  0  0  0  0  0  0  0  0  0  0  0
   21.0712   -7.7695  -15.6477 C   0  0  0  0  0  0  0  0  0  0  0  0
   20.7832   -7.3339  -16.7877 O   0  0  0  0  0  0  0  0  0  0  0  0
   21.0237   -6.8665  -14.5308 N   0  0  0  0  0  0  0  0  0  0  0  0
   20.7998   -5.4673  -14.7910 C   0  0  1  0  0  0  0  0  0  0  0  0
   19.3597   -5.1178  -14.4917 C   0  0  0  0  0  0  0  0  0  0  0  0
   19.0799   -3.6741  -14.6508 C   0  0  0  0  0  0  0  0  0  0  0  0
   19.6859   -3.0707  -15.5721 O   0  0  0  0  0  0  0  0  0  0  0  0
   21.7418   -4.6007  -14.0351 C   0  0  0  0  0  0  0  0  0  0  0  0
   21.7686   -3.3513  -14.1606 O   0  0  0  0  0  0  0  0  0  0  0  0
   18.2067   -2.9467  -13.8652 O   0  0  0  0  0  0  0  0  0  0  0  0
   22.6344   -5.1858  -13.1502 O   0  0  0  0  0  0  0  0  0  0  0  0
  1  2  1  0
  2  3  1  0
  3  5  1  0
  3  4  1  1
  5  6  2  0
  7  8  1  0
  9  8  1  6
 10  9  1  0
 10  5  1  0
 11 13  1  0
 11  9  1  0
 12 11  2  0
 14 13  1  0
 14 15  1  1
 15 16  1  0
 16 20  1  0
 17 16  2  0
 18 14  1  0
 19 18  2  0
 21 18  1  0
M  END
$$$$
