SSD.pdb
     RDKit          3D

 21 20  0  0  1  0  0  0  0  0999 V2000
   16.7706  -10.4826  -19.2436 O   0  0  0  0  0  0  0  0  0  0  0  0
   17.3512   -9.9077  -18.1284 C   0  0  0  0  0  0  0  0  0  0  0  0
   18.0137  -10.9263  -17.2066 C   0  0  2  0  0  0  0  0  0  0  0  0
   16.9558  -11.6948  -16.5532 N   0  0  0  0  0  0  0  0  0  0  0  0
   18.8152  -10.2021  -16.1913 C   0  0  0  0  0  0  0  0  0  0  0  0
   18.2191   -9.6867  -15.1928 O   0  0  0  0  0  0  0  0  0  0  0  0
   23.1851   -9.5243  -14.3431 O   0  0  0  0  0  0  0  0  0  0  0  0
   22.4059  -10.1178  -15.3418 C   0  0  0  0  0  0  0  0  0  0  0  0
   21.0629   -9.4851  -15.3419 C   0  0  2  0  0  0  0  0  0  0  0  0
   20.2148  -10.0944  -16.3417 N   0  0  0  0  0  0  0  0  0  0  0  0
   21.0589   -8.0285  -15.5235 C   0  0  0  0  0  0  0  0  0  0  0  0
   21.1026   -7.5652  -16.6879 O   0  0  0  0  0  0  0  0  0  0  0  0
   21.0067   -7.1128  -14.4172 N   0  0  0  0  0  0  0  0  0  0  0  0
   21.0415   -5.6998  -14.6961 C   0  0  1  0  0  0  0  0  0  0  0  0
   19.6866   -5.0915  -14.4130 C   0  0  0  0  0  0  0  0  0  0  0  0
   19.6434   -3.6409  -14.6992 C   0  0  0  0  0  0  0  0  0  0  0  0
   20.2433   -2.8803  -13.8980 O   0  0  0  0  0  0  0  0  0  0  0  0
   22.1202   -5.0079  -13.9429 C   0  0  0  0  0  0  0  0  0  0  0  0
   22.5110   -5.3857  -12.8106 O   0  0  0  0  0  0  0  0  0  0  0  0
   18.9958   -3.0664  -15.7758 O   0  0  0  0  0  0  0  0  0  0  0  0
   22.7288   -3.8961  -14.5046 O   0  0  0  0  0  0  0  0  0  0  0  0
  1  2  1  0
  2  3  1  0
  3  5  1  0
  3  4  1  1
  5  6  2  0
  7  8  1  0
  9  8  1  6
 10  9  1  0
 10  5  1  0
 11 13  1  0
 11  9  1  0
 12 11  2  0
 14 13  1  0
 14 15  1  1
 15 16  1  0
 16 20  1  0
 17 16  2  0
 18 14  1  0
 19 18  2  0
 21 18  1  0
M  END
$$$$
