SSD.pdb
     RDKit          3D

 21 20  0  0  1  0  0  0  0  0999 V2000
   20.3304  -12.5134  -19.6109 O   0  0  0  0  0  0  0  0  0  0  0  0
   19.8313  -11.7116  -18.6013 C   0  0  0  0  0  0  0  0  0  0  0  0
   20.3266  -12.1156  -17.2165 C   0  0  2  0  0  0  0  0  0  0  0  0
   19.6379  -13.3473  -16.8353 N   0  0  0  0  0  0  0  0  0  0  0  0
   19.9991  -11.0339  -16.2572 C   0  0  0  0  0  0  0  0  0  0  0  0
   18.8407  -11.0095  -15.7324 O   0  0  0  0  0  0  0  0  0  0  0  0
   21.4711   -7.7353  -13.2006 O   0  0  0  0  0  0  0  0  0  0  0  0
   21.7991   -8.7741  -14.0781 C   0  0  0  0  0  0  0  0  0  0  0  0
   20.6920   -8.9470  -15.0520 C   0  0  2  0  0  0  0  0  0  0  0  0
   20.9653  -10.0547  -15.9399 N   0  0  0  0  0  0  0  0  0  0  0  0
   20.3676   -7.7560  -15.8466 C   0  0  0  0  0  0  0  0  0  0  0  0
   21.0360   -7.5200  -16.8809 O   0  0  0  0  0  0  0  0  0  0  0  0
   19.3128   -6.8500  -15.4838 N   0  0  0  0  0  0  0  0  0  0  0  0
   19.1161   -5.6714  -16.2887 C   0  0  1  0  0  0  0  0  0  0  0  0
   17.6364   -5.4246  -16.4770 C   0  0  0  0  0  0  0  0  0  0  0  0
   17.3596   -4.2214  -17.2917 C   0  0  0  0  0  0  0  0  0  0  0  0
   18.1062   -4.0152  -18.2818 O   0  0  0  0  0  0  0  0  0  0  0  0
   19.8006   -4.4828  -15.7155 C   0  0  0  0  0  0  0  0  0  0  0  0
   19.8475   -4.2523  -14.4818 O   0  0  0  0  0  0  0  0  0  0  0  0
   16.3470   -3.3148  -17.0442 O   0  0  0  0  0  0  0  0  0  0  0  0
   20.4177   -3.5824  -16.5703 O   0  0  0  0  0  0  0  0  0  0  0  0
  1  2  1  0
  2  3  1  0
  3  5  1  0
  3  4  1  1
  5  6  2  0
  7  8  1  0
  9  8  1  6
 10  9  1  0
 10  5  1  0
 11 13  1  0
 11  9  1  0
 12 11  2  0
 14 13  1  0
 14 15  1  1
 15 16  1  0
 16 20  1  0
 17 16  2  0
 18 14  1  0
 19 18  2  0
 21 18  1  0
M  END
$$$$
