SSD.pdb
     RDKit          3D

 21 20  0  0  1  0  0  0  0  0999 V2000
   22.5164  -12.1007  -20.0440 O   0  0  0  0  0  0  0  0  0  0  0  0
   22.6687  -12.4199  -18.7075 C   0  0  0  0  0  0  0  0  0  0  0  0
   21.3408  -12.6366  -17.9893 C   0  0  2  0  0  0  0  0  0  0  0  0
   20.5596  -13.5944  -18.7697 N   0  0  0  0  0  0  0  0  0  0  0  0
   20.6230  -11.3419  -17.9102 C   0  0  0  0  0  0  0  0  0  0  0  0
   19.9591  -10.9460  -18.9203 O   0  0  0  0  0  0  0  0  0  0  0  0
   18.9826  -10.1619  -14.6038 O   0  0  0  0  0  0  0  0  0  0  0  0
   18.6910   -9.5579  -15.8314 C   0  0  0  0  0  0  0  0  0  0  0  0
   19.9599   -9.3305  -16.5677 C   0  0  2  0  0  0  0  0  0  0  0  0
   20.6831  -10.5720  -16.7283 N   0  0  0  0  0  0  0  0  0  0  0  0
   20.8505   -8.3220  -15.9806 C   0  0  0  0  0  0  0  0  0  0  0  0
   21.7706   -8.7002  -15.2173 O   0  0  0  0  0  0  0  0  0  0  0  0
   20.7078   -6.9171  -16.2474 N   0  0  0  0  0  0  0  0  0  0  0  0
   21.6381   -6.0057  -15.6316 C   0  0  1  0  0  0  0  0  0  0  0  0
   21.6124   -4.6818  -16.3614 C   0  0  0  0  0  0  0  0  0  0  0  0
   22.5444   -3.6924  -15.7776 C   0  0  0  0  0  0  0  0  0  0  0  0
   23.7313   -4.0625  -15.5924 O   0  0  0  0  0  0  0  0  0  0  0  0
   21.3743   -5.8349  -14.1786 C   0  0  0  0  0  0  0  0  0  0  0  0
   22.1618   -5.2301  -13.4094 O   0  0  0  0  0  0  0  0  0  0  0  0
   22.2062   -2.4004  -15.4241 O   0  0  0  0  0  0  0  0  0  0  0  0
   20.2117   -6.3620  -13.6376 O   0  0  0  0  0  0  0  0  0  0  0  0
  1  2  1  0
  2  3  1  0
  3  5  1  0
  3  4  1  6
  5  6  2  0
  7  8  1  0
  9  8  1  1
 10  9  1  0
 10  5  1  0
 11 13  1  0
 11  9  1  0
 12 11  2  0
 14 13  1  0
 14 15  1  6
 15 16  1  0
 16 20  1  0
 17 16  2  0
 18 14  1  0
 19 18  2  0
 21 18  1  0
M  END
$$$$
