SSD.pdb
     RDKit          3D

 21 20  0  0  1  0  0  0  0  0999 V2000
   26.4971   -8.0552  -18.6690 O   0  0  0  0  0  0  0  0  0  0  0  0
   25.2576   -7.6122  -18.2463 C   0  0  0  0  0  0  0  0  0  0  0  0
   24.2191   -8.7264  -18.1677 C   0  0  2  0  0  0  0  0  0  0  0  0
   23.7108   -8.9621  -19.5178 N   0  0  0  0  0  0  0  0  0  0  0  0
   23.1154   -8.2895  -17.2795 C   0  0  0  0  0  0  0  0  0  0  0  0
   22.2307   -7.5018  -17.7426 O   0  0  0  0  0  0  0  0  0  0  0  0
   20.9528   -8.8761  -12.9974 O   0  0  0  0  0  0  0  0  0  0  0  0
   22.0004   -9.2568  -13.8426 C   0  0  0  0  0  0  0  0  0  0  0  0
   22.0003   -8.3727  -15.0352 C   0  0  2  0  0  0  0  0  0  0  0  0
   23.0589   -8.7479  -15.9454 N   0  0  0  0  0  0  0  0  0  0  0  0
   22.0931   -6.9362  -14.7475 C   0  0  0  0  0  0  0  0  0  0  0  0
   23.2277   -6.4081  -14.6706 O   0  0  0  0  0  0  0  0  0  0  0  0
   20.9326   -6.1118  -14.5507 N   0  0  0  0  0  0  0  0  0  0  0  0
   21.1266   -4.7097  -14.2825 C   0  0  1  0  0  0  0  0  0  0  0  0
   21.9102   -4.0792  -15.4114 C   0  0  0  0  0  0  0  0  0  0  0  0
   22.0300   -2.6116  -15.2702 C   0  0  0  0  0  0  0  0  0  0  0  0
   22.2660   -2.1636  -14.1197 O   0  0  0  0  0  0  0  0  0  0  0  0
   19.8404   -4.0025  -14.0473 C   0  0  0  0  0  0  0  0  0  0  0  0
   19.7788   -2.7949  -13.7077 O   0  0  0  0  0  0  0  0  0  0  0  0
   21.9021   -1.7048  -16.3046 O   0  0  0  0  0  0  0  0  0  0  0  0
   18.6505   -4.6959  -14.2067 O   0  0  0  0  0  0  0  0  0  0  0  0
  1  2  1  0
  2  3  1  0
  3  5  1  0
  3  4  1  6
  5  6  2  0
  7  8  1  0
  9  8  1  1
 10  9  1  0
 10  5  1  0
 11 13  1  0
 11  9  1  0
 12 11  2  0
 14 13  1  0
 14 15  1  6
 15 16  1  0
 16 20  1  0
 17 16  2  0
 18 14  1  0
 19 18  2  0
 21 18  1  0
M  END
$$$$
