SSD.pdb
     RDKit          3D

 21 20  0  0  1  0  0  0  0  0999 V2000
   10.3346  -10.0479  -11.0400 O   0  0  0  0  0  0  0  0  0  0  0  0
   11.4827   -9.3027  -10.8462 C   0  0  0  0  0  0  0  0  0  0  0  0
   12.6237  -10.1097  -10.2354 C   0  0  2  0  0  0  0  0  0  0  0  0
   12.2279  -10.4923   -8.8812 N   0  0  0  0  0  0  0  0  0  0  0  0
   13.8380   -9.2606  -10.1878 C   0  0  0  0  0  0  0  0  0  0  0  0
   13.7955   -8.1651   -9.5429 O   0  0  0  0  0  0  0  0  0  0  0  0
   17.4530  -10.6763  -11.7342 O   0  0  0  0  0  0  0  0  0  0  0  0
   17.4167   -9.7451  -10.6910 C   0  0  0  0  0  0  0  0  0  0  0  0
   16.2229   -8.8793  -10.8620 C   0  0  2  0  0  0  0  0  0  0  0  0
   15.0145   -9.6728  -10.8504 N   0  0  0  0  0  0  0  0  0  0  0  0
   16.2344   -8.0290  -12.0585 C   0  0  0  0  0  0  0  0  0  0  0  0
   15.6700   -8.4432  -13.0988 O   0  0  0  0  0  0  0  0  0  0  0  0
   16.8681   -6.7394  -12.0830 N   0  0  0  0  0  0  0  0  0  0  0  0
   16.9405   -6.0363  -13.3383 C   0  0  1  0  0  0  0  0  0  0  0  0
   16.4045   -4.6329  -13.1673 C   0  0  0  0  0  0  0  0  0  0  0  0
   16.4936   -3.8348  -14.4096 C   0  0  0  0  0  0  0  0  0  0  0  0
   17.3004   -2.8709  -14.4152 O   0  0  0  0  0  0  0  0  0  0  0  0
   18.3178   -6.0317  -13.8976 C   0  0  0  0  0  0  0  0  0  0  0  0
   19.3307   -6.3294  -13.2172 O   0  0  0  0  0  0  0  0  0  0  0  0
   15.7590   -4.0711  -15.5555 O   0  0  0  0  0  0  0  0  0  0  0  0
   18.5048   -5.6854  -15.2269 O   0  0  0  0  0  0  0  0  0  0  0  0
  1  2  1  0
  2  3  1  0
  3  5  1  0
  3  4  1  1
  5  6  2  0
  7  8  1  0
  9  8  1  6
 10  9  1  0
 10  5  1  0
 11 13  1  0
 11  9  1  0
 12 11  2  0
 14 13  1  0
 14 15  1  1
 15 16  1  0
 16 20  1  0
 17 16  2  0
 18 14  1  0
 19 18  2  0
 21 18  1  0
M  END
$$$$
