SSD.pdb
     RDKit          3D

 21 20  0  0  1  0  0  0  0  0999 V2000
   16.9295  -13.3605  -14.5807 O   0  0  0  0  0  0  0  0  0  0  0  0
   17.9341  -12.4835  -14.9454 C   0  0  0  0  0  0  0  0  0  0  0  0
   18.4281  -12.6998  -16.3720 C   0  0  2  0  0  0  0  0  0  0  0  0
   19.1329  -13.9797  -16.4137 N   0  0  0  0  0  0  0  0  0  0  0  0
   19.3547  -11.5990  -16.7291 C   0  0  0  0  0  0  0  0  0  0  0  0
   20.5667  -11.6701  -16.3498 O   0  0  0  0  0  0  0  0  0  0  0  0
   17.9798   -8.2147  -18.8686 O   0  0  0  0  0  0  0  0  0  0  0  0
   19.2544   -8.7465  -19.0910 C   0  0  0  0  0  0  0  0  0  0  0  0
   19.7342   -9.3824  -17.8382 C   0  0  2  0  0  0  0  0  0  0  0  0
   18.8874  -10.4973  -17.4782 N   0  0  0  0  0  0  0  0  0  0  0  0
   19.8625   -8.4786  -16.6886 C   0  0  0  0  0  0  0  0  0  0  0  0
   18.9510   -8.4638  -15.8277 O   0  0  0  0  0  0  0  0  0  0  0  0
   20.9935   -7.6097  -16.5123 N   0  0  0  0  0  0  0  0  0  0  0  0
   20.9549   -6.6444  -15.4435 C   0  0  1  0  0  0  0  0  0  0  0  0
   22.3637   -6.3087  -15.0096 C   0  0  0  0  0  0  0  0  0  0  0  0
   22.4034   -5.2557  -13.9715 C   0  0  0  0  0  0  0  0  0  0  0  0
   22.0125   -5.5714  -12.8193 O   0  0  0  0  0  0  0  0  0  0  0  0
   20.1926   -5.4248  -15.8194 C   0  0  0  0  0  0  0  0  0  0  0  0
   19.5469   -4.7411  -14.9869 O   0  0  0  0  0  0  0  0  0  0  0  0
   22.8361   -3.9597  -14.1762 O   0  0  0  0  0  0  0  0  0  0  0  0
   20.1869   -5.0143  -17.1436 O   0  0  0  0  0  0  0  0  0  0  0  0
  1  2  1  0
  2  3  1  0
  3  5  1  0
  3  4  1  1
  5  6  2  0
  7  8  1  0
  9  8  1  6
 10  9  1  0
 10  5  1  0
 11 13  1  0
 11  9  1  0
 12 11  2  0
 14 13  1  0
 14 15  1  6
 15 16  1  0
 16 20  1  0
 17 16  2  0
 18 14  1  0
 19 18  2  0
 21 18  1  0
M  END
$$$$
