KIT.pdb
     RDKit          3D

 25 24  0  0  1  0  0  0  0  0999 V2000
    6.8322  -14.4758   20.3260 N   0  0  0  0  0  0  0  0  0  0  0  0
    7.3636  -15.5400   21.0987 C   0  0  1  0  0  0  0  0  0  0  0  0
    8.3713  -16.3638   20.3600 C   0  0  0  0  0  0  0  0  0  0  0  0
    7.9748  -16.8596   19.0099 C   0  0  0  0  0  0  0  0  0  0  0  0
    7.8307  -18.3345   18.9345 C   0  0  0  0  0  0  0  0  0  0  0  0
    7.5106  -18.6995   17.4751 C   0  0  0  0  0  0  0  0  0  0  0  0
    7.4241  -20.1304   17.3775 N   0  0  0  0  0  0  0  0  0  0  0  0
    8.0226  -15.0807   22.3538 C   0  0  0  0  0  0  0  0  0  0  0  0
    9.2982  -15.1542   22.3543 O   0  0  0  0  0  0  0  0  0  0  0  0
    7.5702  -11.8650   27.5835 C   0  0  0  0  0  0  0  0  0  0  0  0
    8.2504  -12.8892   26.6779 C   0  0  0  0  0  0  0  0  0  0  0  0
    7.3995  -13.2205   25.4855 C   0  0  2  0  0  0  0  0  0  0  0  0
    5.9809  -13.5520   25.8718 C   0  0  0  0  0  0  0  0  0  0  0  0
    8.0580  -14.2398   24.6447 C   0  0  2  0  0  0  0  0  0  0  0  0
    7.2922  -14.5970   23.4677 N   0  0  0  0  0  0  0  0  0  0  0  0
    8.3589  -15.5002   25.3668 C   0  0  0  0  0  0  0  0  0  0  0  0
    7.5107  -16.3465   25.7427 O   0  0  0  0  0  0  0  0  0  0  0  0
   11.4924  -19.0701   26.2330 C   0  0  0  0  0  0  0  0  0  0  0  0
   11.2458  -17.7386   25.5461 C   0  0  1  0  0  0  0  0  0  0  0  0
   11.0354  -17.9576   24.2052 O   0  0  0  0  0  0  0  0  0  0  0  0
   10.0478  -17.1055   26.2372 C   0  0  2  0  0  0  0  0  0  0  0  0
    9.7155  -15.8339   25.6903 N   0  0  0  0  0  0  0  0  0  0  0  0
   10.2278  -17.0790   27.7005 C   0  0  0  0  0  0  0  0  0  0  0  0
   10.2209  -18.2043   28.4851 O   0  0  0  0  0  0  0  0  0  0  0  0
   10.3958  -15.9654   28.2524 O   0  0  0  0  0  0  0  0  0  0  0  0
  2  1  1  6
  3  2  1  0
  4  3  1  0
  5  4  1  0
  6  5  1  0
  7  6  1  0
  8  2  1  0
  8  9  2  0
 11 10  1  0
 12 14  1  0
 12 11  1  0
 12 13  1  1
 14 15  1  6
 15  8  1  0
 16 14  1  0
 17 16  2  0
 19 18  1  1
 19 21  1  0
 20 19  1  0
 21 23  1  0
 21 22  1  6
 22 16  1  0
 23 24  1  0
 25 23  2  0
M  END
$$$$
