KIT.pdb
     RDKit          3D

 25 24  0  0  1  0  0  0  0  0999 V2000
    5.1738  -16.9046   23.0289 N   0  0  0  0  0  0  0  0  0  0  0  0
    6.4897  -16.7460   22.5239 C   0  0  1  0  0  0  0  0  0  0  0  0
    6.5423  -15.9948   21.2305 C   0  0  0  0  0  0  0  0  0  0  0  0
    7.1776  -16.6910   20.0740 C   0  0  0  0  0  0  0  0  0  0  0  0
    6.2378  -17.5367   19.2972 C   0  0  0  0  0  0  0  0  0  0  0  0
    7.0337  -18.1963   18.1583 C   0  0  0  0  0  0  0  0  0  0  0  0
    6.1448  -19.0563   17.4273 N   0  0  0  0  0  0  0  0  0  0  0  0
    7.3984  -16.0372   23.4685 C   0  0  0  0  0  0  0  0  0  0  0  0
    8.5797  -15.8268   23.0292 O   0  0  0  0  0  0  0  0  0  0  0  0
    6.0778  -11.9028   26.3148 C   0  0  0  0  0  0  0  0  0  0  0  0
    6.9378  -12.8850   25.5225 C   0  0  0  0  0  0  0  0  0  0  0  0
    7.5576  -13.9198   26.4173 C   0  0  2  0  0  0  0  0  0  0  0  0
    8.6074  -13.3330   27.3256 C   0  0  0  0  0  0  0  0  0  0  0  0
    8.0120  -15.0826   25.6293 C   0  0  2  0  0  0  0  0  0  0  0  0
    6.9871  -15.6247   24.7604 N   0  0  0  0  0  0  0  0  0  0  0  0
    8.5143  -16.2033   26.4612 C   0  0  0  0  0  0  0  0  0  0  0  0
    7.8288  -16.8763   27.2700 O   0  0  0  0  0  0  0  0  0  0  0  0
   10.4440  -19.2430   25.2583 C   0  0  0  0  0  0  0  0  0  0  0  0
   11.3056  -18.5931   26.3264 C   0  0  1  0  0  0  0  0  0  0  0  0
   12.3305  -17.9062   25.7197 O   0  0  0  0  0  0  0  0  0  0  0  0
   10.3887  -17.6915   27.1387 C   0  0  2  0  0  0  0  0  0  0  0  0
    9.8908  -16.5965   26.3773 N   0  0  0  0  0  0  0  0  0  0  0  0
   11.0282  -17.2774   28.4012 C   0  0  0  0  0  0  0  0  0  0  0  0
   11.4626  -18.1616   29.3559 O   0  0  0  0  0  0  0  0  0  0  0  0
   11.1809  -16.0499   28.6083 O   0  0  0  0  0  0  0  0  0  0  0  0
  2  1  1  1
  3  2  1  0
  4  3  1  0
  5  4  1  0
  6  5  1  0
  7  6  1  0
  8  2  1  0
  8  9  2  0
 11 10  1  0
 12 14  1  0
 12 11  1  0
 12 13  1  6
 14 15  1  1
 15  8  1  0
 16 14  1  0
 17 16  2  0
 19 18  1  6
 19 21  1  0
 20 19  1  0
 21 23  1  0
 21 22  1  6
 22 16  1  0
 23 24  1  0
 25 23  2  0
M  END
$$$$
