KIT.pdb
     RDKit          3D

 25 24  0  0  1  0  0  0  0  0999 V2000
    4.8852  -18.6055   22.7870 N   0  0  0  0  0  0  0  0  0  0  0  0
    5.4993  -18.3505   24.0399 C   0  0  1  0  0  0  0  0  0  0  0  0
    6.2894  -19.5102   24.5602 C   0  0  0  0  0  0  0  0  0  0  0  0
    5.5260  -20.7469   24.8970 C   0  0  0  0  0  0  0  0  0  0  0  0
    6.3696  -21.8389   25.4427 C   0  0  0  0  0  0  0  0  0  0  0  0
    5.4430  -23.0151   25.7941 C   0  0  0  0  0  0  0  0  0  0  0  0
    6.2372  -24.0491   26.3977 N   0  0  0  0  0  0  0  0  0  0  0  0
    6.4221  -17.1808   24.0130 C   0  0  0  0  0  0  0  0  0  0  0  0
    7.0110  -16.9808   22.8968 O   0  0  0  0  0  0  0  0  0  0  0  0
    5.5001  -12.6302   26.6990 C   0  0  0  0  0  0  0  0  0  0  0  0
    5.9817  -13.5320   25.5645 C   0  0  0  0  0  0  0  0  0  0  0  0
    7.3311  -14.1195   25.8635 C   0  0  2  0  0  0  0  0  0  0  0  0
    8.4189  -13.0762   25.8675 C   0  0  0  0  0  0  0  0  0  0  0  0
    7.5986  -15.2779   24.9883 C   0  0  2  0  0  0  0  0  0  0  0  0
    6.6341  -16.3484   25.1401 N   0  0  0  0  0  0  0  0  0  0  0  0
    8.9431  -15.8727   25.1857 C   0  0  0  0  0  0  0  0  0  0  0  0
    9.3483  -16.4285   26.2363 O   0  0  0  0  0  0  0  0  0  0  0  0
   10.7231  -17.5961   22.0637 C   0  0  0  0  0  0  0  0  0  0  0  0
   11.7581  -16.8267   22.8652 C   0  0  1  0  0  0  0  0  0  0  0  0
   12.0938  -15.6815   22.1825 O   0  0  0  0  0  0  0  0  0  0  0  0
   11.1368  -16.5444   24.2245 C   0  0  2  0  0  0  0  0  0  0  0  0
    9.9039  -15.8399   24.1217 N   0  0  0  0  0  0  0  0  0  0  0  0
   12.1031  -15.8944   25.1289 C   0  0  0  0  0  0  0  0  0  0  0  0
   13.3222  -16.4352   25.4501 O   0  0  0  0  0  0  0  0  0  0  0  0
   11.7886  -14.7878   25.6287 O   0  0  0  0  0  0  0  0  0  0  0  0
  2  1  1  6
  3  2  1  0
  4  3  1  0
  5  4  1  0
  6  5  1  0
  7  6  1  0
  8  2  1  0
  8  9  2  0
 11 10  1  0
 12 14  1  0
 12 11  1  0
 12 13  1  6
 14 15  1  1
 15  8  1  0
 16 14  1  0
 17 16  2  0
 19 18  1  6
 19 21  1  0
 20 19  1  0
 21 23  1  0
 21 22  1  6
 22 16  1  0
 23 24  1  0
 25 23  2  0
M  END
$$$$
