KIT.pdb
     RDKit          3D

 25 24  0  0  1  0  0  0  0  0999 V2000
    8.0073  -14.4907   20.0829 N   0  0  0  0  0  0  0  0  0  0  0  0
    7.3571  -15.1715   21.1439 C   0  0  1  0  0  0  0  0  0  0  0  0
    7.3347  -16.6578   20.9695 C   0  0  0  0  0  0  0  0  0  0  0  0
    6.5873  -17.1851   19.7909 C   0  0  0  0  0  0  0  0  0  0  0  0
    7.3576  -17.1328   18.5237 C   0  0  0  0  0  0  0  0  0  0  0  0
    6.5284  -17.8454   17.4420 C   0  0  0  0  0  0  0  0  0  0  0  0
    7.2429  -17.7609   16.1984 N   0  0  0  0  0  0  0  0  0  0  0  0
    7.9722  -14.9054   22.4749 C   0  0  0  0  0  0  0  0  0  0  0  0
    9.2468  -14.8157   22.4747 O   0  0  0  0  0  0  0  0  0  0  0  0
    6.0074  -11.3877   25.9291 C   0  0  0  0  0  0  0  0  0  0  0  0
    6.9029  -12.2846   25.0774 C   0  0  0  0  0  0  0  0  0  0  0  0
    7.2355  -13.5649   25.7886 C   0  0  2  0  0  0  0  0  0  0  0  0
    7.9424  -13.3229   27.0975 C   0  0  0  0  0  0  0  0  0  0  0  0
    7.9329  -14.4972   24.8808 C   0  0  2  0  0  0  0  0  0  0  0  0
    7.2038  -14.7617   23.6569 N   0  0  0  0  0  0  0  0  0  0  0  0
    8.2367  -15.8111   25.4987 C   0  0  0  0  0  0  0  0  0  0  0  0
    7.3895  -16.6108   25.9672 O   0  0  0  0  0  0  0  0  0  0  0  0
   10.0263  -18.5981   23.9869 C   0  0  0  0  0  0  0  0  0  0  0  0
   10.8023  -18.3634   25.2708 C   0  0  1  0  0  0  0  0  0  0  0  0
   11.9929  -17.7457   24.9690 O   0  0  0  0  0  0  0  0  0  0  0  0
    9.9115  -17.5224   26.1723 C   0  0  2  0  0  0  0  0  0  0  0  0
    9.5953  -16.2592   25.5970 N   0  0  0  0  0  0  0  0  0  0  0  0
   10.4743  -17.4167   27.5312 C   0  0  0  0  0  0  0  0  0  0  0  0
   10.8205  -16.2256   28.1172 O   0  0  0  0  0  0  0  0  0  0  0  0
   10.6434  -18.4756   28.1817 O   0  0  0  0  0  0  0  0  0  0  0  0
  2  1  1  6
  3  2  1  0
  4  3  1  0
  5  4  1  0
  6  5  1  0
  7  6  1  0
  8  2  1  0
  8  9  2  0
 11 10  1  0
 12 14  1  0
 12 11  1  0
 12 13  1  1
 14 15  1  6
 15  8  1  0
 16 14  1  0
 17 16  2  0
 19 18  1  6
 19 21  1  0
 20 19  1  0
 21 23  1  0
 21 22  1  6
 22 16  1  0
 23 24  1  0
 25 23  2  0
M  END
$$$$
