KIT.pdb
     RDKit          3D

 25 24  0  0  1  0  0  0  0  0999 V2000
    4.7932  -16.9105   23.5035 N   0  0  0  0  0  0  0  0  0  0  0  0
    6.1337  -17.1332   23.0969 C   0  0  1  0  0  0  0  0  0  0  0  0
    6.3494  -16.9332   21.6294 C   0  0  0  0  0  0  0  0  0  0  0  0
    5.7691  -17.9621   20.7182 C   0  0  0  0  0  0  0  0  0  0  0  0
    6.2903  -19.3311   20.9552 C   0  0  0  0  0  0  0  0  0  0  0  0
    5.6383  -20.2655   19.9220 C   0  0  0  0  0  0  0  0  0  0  0  0
    6.0059  -21.6170   20.2423 N   0  0  0  0  0  0  0  0  0  0  0  0
    7.1123  -16.2547   23.7976 C   0  0  0  0  0  0  0  0  0  0  0  0
    8.2529  -16.1538   23.2306 O   0  0  0  0  0  0  0  0  0  0  0  0
    5.8727  -11.8765   26.5357 C   0  0  0  0  0  0  0  0  0  0  0  0
    6.7454  -12.7862   25.6738 C   0  0  0  0  0  0  0  0  0  0  0  0
    7.4973  -13.7813   26.5104 C   0  0  2  0  0  0  0  0  0  0  0  0
    8.6159  -13.1402   27.2910 C   0  0  0  0  0  0  0  0  0  0  0  0
    7.9081  -14.9408   25.6941 C   0  0  2  0  0  0  0  0  0  0  0  0
    6.8050  -15.5786   25.0045 N   0  0  0  0  0  0  0  0  0  0  0  0
    8.6041  -15.9960   26.4704 C   0  0  0  0  0  0  0  0  0  0  0  0
    8.0627  -16.7721   27.2958 O   0  0  0  0  0  0  0  0  0  0  0  0
   10.8506  -18.6075   25.0024 C   0  0  0  0  0  0  0  0  0  0  0  0
   11.6719  -17.9847   26.1173 C   0  0  1  0  0  0  0  0  0  0  0  0
   12.6348  -17.1729   25.5658 O   0  0  0  0  0  0  0  0  0  0  0  0
   10.6980  -17.2271   27.0067 C   0  0  2  0  0  0  0  0  0  0  0  0
   10.0150  -16.1931   26.3059 N   0  0  0  0  0  0  0  0  0  0  0  0
   11.3558  -16.7561   28.2395 C   0  0  0  0  0  0  0  0  0  0  0  0
   11.9290  -17.5958   29.1605 O   0  0  0  0  0  0  0  0  0  0  0  0
   11.3903  -15.5206   28.4526 O   0  0  0  0  0  0  0  0  0  0  0  0
  2  1  1  1
  3  2  1  0
  4  3  1  0
  5  4  1  0
  6  5  1  0
  7  6  1  0
  8  2  1  0
  8  9  2  0
 11 10  1  0
 12 14  1  0
 12 11  1  0
 12 13  1  6
 14 15  1  1
 15  8  1  0
 16 14  1  0
 17 16  2  0
 19 18  1  6
 19 21  1  0
 20 19  1  0
 21 23  1  0
 21 22  1  6
 22 16  1  0
 23 24  1  0
 25 23  2  0
M  END
$$$$
