KIT.pdb
     RDKit          3D

 25 24  0  0  1  0  0  0  0  0999 V2000
    7.8351  -14.6485   20.2510 N   0  0  0  0  0  0  0  0  0  0  0  0
    7.4357  -15.5179   21.2981 C   0  0  1  0  0  0  0  0  0  0  0  0
    7.6941  -16.9619   21.0013 C   0  0  0  0  0  0  0  0  0  0  0  0
    6.8261  -17.6021   19.9705 C   0  0  0  0  0  0  0  0  0  0  0  0
    7.2602  -17.3369   18.5766 C   0  0  0  0  0  0  0  0  0  0  0  0
    6.3869  -18.1925   17.6435 C   0  0  0  0  0  0  0  0  0  0  0  0
    5.0869  -17.5861   17.5621 N   0  0  0  0  0  0  0  0  0  0  0  0
    8.1067  -15.2202   22.5949 C   0  0  0  0  0  0  0  0  0  0  0  0
    9.3773  -15.1006   22.5328 O   0  0  0  0  0  0  0  0  0  0  0  0
    6.0107  -11.7211   25.9444 C   0  0  0  0  0  0  0  0  0  0  0  0
    6.9846  -12.5588   25.1186 C   0  0  0  0  0  0  0  0  0  0  0  0
    7.4462  -13.7712   25.8753 C   0  0  2  0  0  0  0  0  0  0  0  0
    8.2014  -13.4079   27.1281 C   0  0  0  0  0  0  0  0  0  0  0  0
    8.1608  -14.7016   24.9792 C   0  0  2  0  0  0  0  0  0  0  0  0
    7.3920  -15.0792   23.8105 N   0  0  0  0  0  0  0  0  0  0  0  0
    8.5857  -15.9575   25.6446 C   0  0  0  0  0  0  0  0  0  0  0  0
    7.8306  -16.7473   26.2634 O   0  0  0  0  0  0  0  0  0  0  0  0
   10.7884  -18.6258   24.0853 C   0  0  0  0  0  0  0  0  0  0  0  0
   11.4371  -18.2994   25.4188 C   0  0  1  0  0  0  0  0  0  0  0  0
   12.5720  -17.5561   25.1957 O   0  0  0  0  0  0  0  0  0  0  0  0
   10.3955  -17.5562   26.2412 C   0  0  2  0  0  0  0  0  0  0  0  0
    9.9631  -16.3549   25.6115 N   0  0  0  0  0  0  0  0  0  0  0  0
   10.8555  -17.3520   27.6272 C   0  0  0  0  0  0  0  0  0  0  0  0
   10.9715  -16.1168   28.2126 O   0  0  0  0  0  0  0  0  0  0  0  0
   11.1554  -18.3653   28.3028 O   0  0  0  0  0  0  0  0  0  0  0  0
  2  1  1  6
  3  2  1  0
  4  3  1  0
  5  4  1  0
  6  5  1  0
  7  6  1  0
  8  2  1  0
  8  9  2  0
 11 10  1  0
 12 14  1  0
 12 11  1  0
 12 13  1  1
 14 15  1  6
 15  8  1  0
 16 14  1  0
 17 16  2  0
 19 18  1  6
 19 21  1  0
 20 19  1  0
 21 23  1  0
 21 22  1  6
 22 16  1  0
 23 24  1  0
 25 23  2  0
M  END
$$$$
