KIT.pdb
     RDKit          3D

 25 24  0  0  1  0  0  0  0  0999 V2000
    8.6394  -15.4120   20.7746 N   0  0  0  0  0  0  0  0  0  0  0  0
    8.0239  -16.0111   21.9034 C   0  0  1  0  0  0  0  0  0  0  0  0
    8.1701  -17.5002   21.9383 C   0  0  0  0  0  0  0  0  0  0  0  0
    7.7584  -18.2450   20.7129 C   0  0  0  0  0  0  0  0  0  0  0  0
    7.8269  -19.7200   20.8600 C   0  0  0  0  0  0  0  0  0  0  0  0
    7.5857  -20.3403   19.4735 C   0  0  0  0  0  0  0  0  0  0  0  0
    6.1846  -20.6333   19.3490 N   0  0  0  0  0  0  0  0  0  0  0  0
    8.5511  -15.4982   23.1994 C   0  0  0  0  0  0  0  0  0  0  0  0
    9.8079  -15.2687   23.2204 O   0  0  0  0  0  0  0  0  0  0  0  0
    5.9627  -11.9093   25.9338 C   0  0  0  0  0  0  0  0  0  0  0  0
    7.1314  -12.6954   25.3435 C   0  0  0  0  0  0  0  0  0  0  0  0
    7.5767  -13.7945   26.2651 C   0  0  2  0  0  0  0  0  0  0  0  0
    8.2394  -13.2616   27.5095 C   0  0  0  0  0  0  0  0  0  0  0  0
    8.3729  -14.7974   25.5304 C   0  0  2  0  0  0  0  0  0  0  0  0
    7.7231  -15.2796   24.3285 N   0  0  0  0  0  0  0  0  0  0  0  0
    8.7231  -15.9880   26.3430 C   0  0  0  0  0  0  0  0  0  0  0  0
    7.9025  -16.7751   26.8759 O   0  0  0  0  0  0  0  0  0  0  0  0
   11.0017  -18.6654   25.2163 C   0  0  0  0  0  0  0  0  0  0  0  0
   11.5512  -18.2886   26.5807 C   0  0  1  0  0  0  0  0  0  0  0  0
   12.7122  -17.5712   26.4143 O   0  0  0  0  0  0  0  0  0  0  0  0
   10.4620  -17.4956   27.2866 C   0  0  2  0  0  0  0  0  0  0  0  0
   10.0994  -16.3180   26.5736 N   0  0  0  0  0  0  0  0  0  0  0  0
   10.8174  -17.2357   28.6940 C   0  0  0  0  0  0  0  0  0  0  0  0
   11.1002  -18.2268   29.5993 O   0  0  0  0  0  0  0  0  0  0  0  0
   10.8620  -16.0428   29.0787 O   0  0  0  0  0  0  0  0  0  0  0  0
  2  1  1  6
  3  2  1  0
  4  3  1  0
  5  4  1  0
  6  5  1  0
  7  6  1  0
  8  2  1  0
  8  9  2  0
 11 10  1  0
 12 14  1  0
 12 11  1  0
 12 13  1  1
 14 15  1  6
 15  8  1  0
 16 14  1  0
 17 16  2  0
 19 18  1  6
 19 21  1  0
 20 19  1  0
 21 23  1  0
 21 22  1  6
 22 16  1  0
 23 24  1  0
 25 23  2  0
M  END
$$$$
