KIT.pdb
     RDKit          3D

 25 24  0  0  1  0  0  0  0  0999 V2000
    7.8609  -14.6697   20.1861 N   0  0  0  0  0  0  0  0  0  0  0  0
    7.0874  -15.0365   21.3170 C   0  0  1  0  0  0  0  0  0  0  0  0
    6.6254  -16.4596   21.2834 C   0  0  0  0  0  0  0  0  0  0  0  0
    6.5256  -17.1025   19.9408 C   0  0  0  0  0  0  0  0  0  0  0  0
    7.6094  -18.0776   19.6642 C   0  0  0  0  0  0  0  0  0  0  0  0
    7.3171  -18.7282   18.3015 C   0  0  0  0  0  0  0  0  0  0  0  0
    8.4315  -19.5659   17.9544 N   0  0  0  0  0  0  0  0  0  0  0  0
    7.8105  -14.8510   22.6067 C   0  0  0  0  0  0  0  0  0  0  0  0
    9.0852  -14.8552   22.5187 O   0  0  0  0  0  0  0  0  0  0  0  0
    6.0308  -11.3666   26.2414 C   0  0  0  0  0  0  0  0  0  0  0  0
    6.9110  -12.2102   25.3218 C   0  0  0  0  0  0  0  0  0  0  0  0
    7.3123  -13.5010   25.9762 C   0  0  2  0  0  0  0  0  0  0  0  0
    8.1022  -13.2780   27.2403 C   0  0  0  0  0  0  0  0  0  0  0  0
    7.9619  -14.3981   25.0001 C   0  0  2  0  0  0  0  0  0  0  0  0
    7.1380  -14.6818   23.8425 N   0  0  0  0  0  0  0  0  0  0  0  0
    8.3697  -15.7038   25.5741 C   0  0  0  0  0  0  0  0  0  0  0  0
    7.5930  -16.5606   26.0635 O   0  0  0  0  0  0  0  0  0  0  0  0
   11.6490  -19.2824   25.7997 C   0  0  0  0  0  0  0  0  0  0  0  0
   11.3379  -17.9054   25.2406 C   0  0  1  0  0  0  0  0  0  0  0  0
   11.0659  -18.0173   23.8976 O   0  0  0  0  0  0  0  0  0  0  0  0
   10.1617  -17.3649   26.0393 C   0  0  2  0  0  0  0  0  0  0  0  0
    9.7550  -16.0734   25.5997 N   0  0  0  0  0  0  0  0  0  0  0  0
   10.4261  -17.4281   27.4886 C   0  0  0  0  0  0  0  0  0  0  0  0
   10.4583  -18.5992   28.2024 O   0  0  0  0  0  0  0  0  0  0  0  0
   10.6318  -16.3506   28.0966 O   0  0  0  0  0  0  0  0  0  0  0  0
  2  1  1  6
  3  2  1  0
  4  3  1  0
  5  4  1  0
  6  5  1  0
  7  6  1  0
  8  2  1  0
  8  9  2  0
 11 10  1  0
 12 14  1  0
 12 11  1  0
 12 13  1  1
 14 15  1  6
 15  8  1  0
 16 14  1  0
 17 16  2  0
 19 18  1  1
 19 21  1  0
 20 19  1  0
 21 23  1  0
 21 22  1  6
 22 16  1  0
 23 24  1  0
 25 23  2  0
M  END
$$$$
