KIT.pdb
     RDKit          3D

 25 24  0  0  1  0  0  0  0  0999 V2000
    8.0798  -14.5530   20.3755 N   0  0  0  0  0  0  0  0  0  0  0  0
    7.4169  -15.2075   21.4451 C   0  0  1  0  0  0  0  0  0  0  0  0
    7.3648  -16.6951   21.2893 C   0  0  0  0  0  0  0  0  0  0  0  0
    7.1294  -17.2189   19.9123 C   0  0  0  0  0  0  0  0  0  0  0  0
    8.1328  -18.2212   19.4757 C   0  0  0  0  0  0  0  0  0  0  0  0
    7.5614  -19.6171   19.7763 C   0  0  0  0  0  0  0  0  0  0  0  0
    8.0048  -20.5162   18.7470 N   0  0  0  0  0  0  0  0  0  0  0  0
    8.0380  -14.9372   22.7724 C   0  0  0  0  0  0  0  0  0  0  0  0
    9.3129  -14.8513   22.7669 O   0  0  0  0  0  0  0  0  0  0  0  0
    5.8533  -11.3753   25.9947 C   0  0  0  0  0  0  0  0  0  0  0  0
    6.7625  -12.2915   25.1786 C   0  0  0  0  0  0  0  0  0  0  0  0
    7.2633  -13.4443   26.0008 C   0  0  2  0  0  0  0  0  0  0  0  0
    8.0174  -12.9875   27.2232 C   0  0  0  0  0  0  0  0  0  0  0  0
    7.9968  -14.4059   25.1542 C   0  0  2  0  0  0  0  0  0  0  0  0
    7.2747  -14.7857   23.9567 N   0  0  0  0  0  0  0  0  0  0  0  0
    8.3604  -15.6597   25.8588 C   0  0  0  0  0  0  0  0  0  0  0  0
    7.5522  -16.4518   26.4032 O   0  0  0  0  0  0  0  0  0  0  0  0
   10.4910  -18.3068   24.3651 C   0  0  0  0  0  0  0  0  0  0  0  0
   11.1296  -18.0497   25.7185 C   0  0  1  0  0  0  0  0  0  0  0  0
   12.2958  -17.3443   25.5377 O   0  0  0  0  0  0  0  0  0  0  0  0
   10.1039  -17.2939   26.5492 C   0  0  2  0  0  0  0  0  0  0  0  0
    9.7360  -16.0519   25.9585 N   0  0  0  0  0  0  0  0  0  0  0  0
   10.5434  -17.1625   27.9506 C   0  0  0  0  0  0  0  0  0  0  0  0
   10.7824  -18.2341   28.7732 O   0  0  0  0  0  0  0  0  0  0  0  0
   10.7060  -16.0070   28.4102 O   0  0  0  0  0  0  0  0  0  0  0  0
  2  1  1  6
  3  2  1  0
  4  3  1  0
  5  4  1  0
  6  5  1  0
  7  6  1  0
  8  2  1  0
  8  9  2  0
 11 10  1  0
 12 14  1  0
 12 11  1  0
 12 13  1  1
 14 15  1  6
 15  8  1  0
 16 14  1  0
 17 16  2  0
 19 18  1  6
 19 21  1  0
 20 19  1  0
 21 23  1  0
 21 22  1  6
 22 16  1  0
 23 24  1  0
 25 23  2  0
M  END
$$$$
