KIT.pdb
     RDKit          3D

 25 24  0  0  1  0  0  0  0  0999 V2000
    8.7933  -17.8837   16.3930 N   0  0  0  0  0  0  0  0  0  0  0  0
    7.9711  -17.7704   17.5432 C   0  0  1  0  0  0  0  0  0  0  0  0
    7.6158  -19.0912   18.1509 C   0  0  0  0  0  0  0  0  0  0  0  0
    7.0116  -20.1086   17.2422 C   0  0  0  0  0  0  0  0  0  0  0  0
    6.7010  -21.3964   17.9109 C   0  0  0  0  0  0  0  0  0  0  0  0
    6.0308  -22.3128   16.8733 C   0  0  0  0  0  0  0  0  0  0  0  0
    5.7927  -23.5896   17.4876 N   0  0  0  0  0  0  0  0  0  0  0  0
    8.5872  -16.9525   18.6257 C   0  0  0  0  0  0  0  0  0  0  0  0
    9.8648  -16.9288   18.6266 O   0  0  0  0  0  0  0  0  0  0  0  0
    7.0580  -11.9896   19.9884 C   0  0  0  0  0  0  0  0  0  0  0  0
    7.8597  -13.2573   19.7016 C   0  0  0  0  0  0  0  0  0  0  0  0
    7.8713  -14.1807   20.8860 C   0  0  2  0  0  0  0  0  0  0  0  0
    8.3945  -13.5074   22.1288 C   0  0  0  0  0  0  0  0  0  0  0  0
    8.5460  -15.4497   20.5484 C   0  0  2  0  0  0  0  0  0  0  0  0
    7.8168  -16.2507   19.5860 N   0  0  0  0  0  0  0  0  0  0  0  0
    8.8068  -16.3143   21.7252 C   0  0  0  0  0  0  0  0  0  0  0  0
    7.9332  -16.7732   22.5017 O   0  0  0  0  0  0  0  0  0  0  0  0
   10.4846  -19.5591   22.0352 C   0  0  0  0  0  0  0  0  0  0  0  0
   11.2952  -18.6595   22.9515 C   0  0  1  0  0  0  0  0  0  0  0  0
   12.4853  -18.3489   22.3373 O   0  0  0  0  0  0  0  0  0  0  0  0
   10.4374  -17.4353   23.2325 C   0  0  2  0  0  0  0  0  0  0  0  0
   10.1510  -16.6910   22.0532 N   0  0  0  0  0  0  0  0  0  0  0  0
   11.0165  -16.6134   24.3112 C   0  0  0  0  0  0  0  0  0  0  0  0
   11.2092  -17.0693   25.5906 O   0  0  0  0  0  0  0  0  0  0  0  0
   11.3490  -15.4351   24.0390 O   0  0  0  0  0  0  0  0  0  0  0  0
  2  1  1  6
  3  2  1  0
  4  3  1  0
  5  4  1  0
  6  5  1  0
  7  6  1  0
  8  2  1  0
  8  9  2  0
 11 10  1  0
 12 14  1  0
 12 11  1  0
 12 13  1  1
 14 15  1  6
 15  8  1  0
 16 14  1  0
 17 16  2  0
 19 18  1  6
 19 21  1  0
 20 19  1  0
 21 23  1  0
 21 22  1  6
 22 16  1  0
 23 24  1  0
 25 23  2  0
M  END
$$$$
