KIT.pdb
     RDKit          3D

 25 24  0  0  1  0  0  0  0  0999 V2000
    8.5367  -14.9568   19.8430 N   0  0  0  0  0  0  0  0  0  0  0  0
    7.6957  -15.3634   20.9104 C   0  0  1  0  0  0  0  0  0  0  0  0
    7.4503  -16.8394   20.9431 C   0  0  0  0  0  0  0  0  0  0  0  0
    6.7222  -17.4258   19.7804 C   0  0  0  0  0  0  0  0  0  0  0  0
    6.4594  -18.8802   19.9128 C   0  0  0  0  0  0  0  0  0  0  0  0
    5.6813  -19.3308   18.6650 C   0  0  0  0  0  0  0  0  0  0  0  0
    5.3881  -20.7309   18.7986 N   0  0  0  0  0  0  0  0  0  0  0  0
    8.2271  -14.9875   22.2508 C   0  0  0  0  0  0  0  0  0  0  0  0
    9.5004  -15.0110   22.3551 O   0  0  0  0  0  0  0  0  0  0  0  0
    7.4234  -11.6420   27.2771 C   0  0  0  0  0  0  0  0  0  0  0  0
    8.1066  -12.7852   26.5299 C   0  0  0  0  0  0  0  0  0  0  0  0
    7.3525  -13.1579   25.2857 C   0  0  2  0  0  0  0  0  0  0  0  0
    5.8921  -13.4114   25.5586 C   0  0  0  0  0  0  0  0  0  0  0  0
    8.0393  -14.2515   24.5702 C   0  0  2  0  0  0  0  0  0  0  0  0
    7.3858  -14.6294   23.3335 N   0  0  0  0  0  0  0  0  0  0  0  0
    8.1893  -15.4866   25.3780 C   0  0  0  0  0  0  0  0  0  0  0  0
    7.2466  -16.1877   25.8214 O   0  0  0  0  0  0  0  0  0  0  0  0
   10.0474  -18.3659   24.2449 C   0  0  0  0  0  0  0  0  0  0  0  0
   10.6390  -18.1327   25.6238 C   0  0  1  0  0  0  0  0  0  0  0  0
   11.8926  -17.5848   25.4874 O   0  0  0  0  0  0  0  0  0  0  0  0
    9.6728  -17.2219   26.3655 C   0  0  2  0  0  0  0  0  0  0  0  0
    9.4976  -15.9694   25.7120 N   0  0  0  0  0  0  0  0  0  0  0  0
   10.0478  -17.0883   27.7854 C   0  0  0  0  0  0  0  0  0  0  0  0
   10.1711  -18.1545   28.6398 O   0  0  0  0  0  0  0  0  0  0  0  0
   10.2645  -15.9360   28.2306 O   0  0  0  0  0  0  0  0  0  0  0  0
  2  1  1  6
  3  2  1  0
  4  3  1  0
  5  4  1  0
  6  5  1  0
  7  6  1  0
  8  2  1  0
  8  9  2  0
 11 10  1  0
 12 14  1  0
 12 11  1  0
 12 13  1  1
 14 15  1  6
 15  8  1  0
 16 14  1  0
 17 16  2  0
 19 18  1  6
 19 21  1  0
 20 19  1  0
 21 23  1  0
 21 22  1  6
 22 16  1  0
 23 24  1  0
 25 23  2  0
M  END
$$$$
