KIT.pdb
     RDKit          3D

 25 24  0  0  1  0  0  0  0  0999 V2000
    7.4728  -14.3261   20.2448 N   0  0  0  0  0  0  0  0  0  0  0  0
    7.0499  -15.1330   21.3319 C   0  0  1  0  0  0  0  0  0  0  0  0
    7.2344  -16.5984   21.0899 C   0  0  0  0  0  0  0  0  0  0  0  0
    6.6311  -17.1553   19.8442 C   0  0  0  0  0  0  0  0  0  0  0  0
    6.7807  -18.6259   19.7146 C   0  0  0  0  0  0  0  0  0  0  0  0
    6.0792  -19.0549   18.4148 C   0  0  0  0  0  0  0  0  0  0  0  0
    4.6604  -19.0320   18.6403 N   0  0  0  0  0  0  0  0  0  0  0  0
    7.7556  -14.8168   22.6057 C   0  0  0  0  0  0  0  0  0  0  0  0
    9.0034  -14.5685   22.4867 O   0  0  0  0  0  0  0  0  0  0  0  0
    5.8518  -11.4265   26.0528 C   0  0  0  0  0  0  0  0  0  0  0  0
    6.7949  -12.2753   25.2030 C   0  0  0  0  0  0  0  0  0  0  0  0
    7.2357  -13.5097   25.9362 C   0  0  2  0  0  0  0  0  0  0  0  0
    8.0293  -13.1839   27.1755 C   0  0  0  0  0  0  0  0  0  0  0  0
    7.9013  -14.4514   25.0144 C   0  0  2  0  0  0  0  0  0  0  0  0
    7.0955  -14.7921   23.8594 N   0  0  0  0  0  0  0  0  0  0  0  0
    8.3020  -15.7270   25.6567 C   0  0  0  0  0  0  0  0  0  0  0  0
    7.5220  -16.5467   26.2013 O   0  0  0  0  0  0  0  0  0  0  0  0
   10.5340  -18.2712   24.0182 C   0  0  0  0  0  0  0  0  0  0  0  0
   11.1465  -18.0489   25.3898 C   0  0  1  0  0  0  0  0  0  0  0  0
   12.2913  -17.2997   25.2540 O   0  0  0  0  0  0  0  0  0  0  0  0
   10.0861  -17.3608   26.2356 C   0  0  2  0  0  0  0  0  0  0  0  0
    9.6837  -16.1095   25.6889 N   0  0  0  0  0  0  0  0  0  0  0  0
   10.5043  -17.2701   27.6467 C   0  0  0  0  0  0  0  0  0  0  0  0
   10.8108  -18.3626   28.4177 O   0  0  0  0  0  0  0  0  0  0  0  0
   10.5823  -16.1307   28.1650 O   0  0  0  0  0  0  0  0  0  0  0  0
  2  1  1  6
  3  2  1  0
  4  3  1  0
  5  4  1  0
  6  5  1  0
  7  6  1  0
  8  2  1  0
  8  9  2  0
 11 10  1  0
 12 14  1  0
 12 11  1  0
 12 13  1  1
 14 15  1  6
 15  8  1  0
 16 14  1  0
 17 16  2  0
 19 18  1  6
 19 21  1  0
 20 19  1  0
 21 23  1  0
 21 22  1  6
 22 16  1  0
 23 24  1  0
 25 23  2  0
M  END
$$$$
