KIT.pdb
     RDKit          3D

 25 24  0  0  1  0  0  0  0  0999 V2000
    7.9194  -14.7828   20.3302 N   0  0  0  0  0  0  0  0  0  0  0  0
    7.2203  -15.2997   21.4509 C   0  0  1  0  0  0  0  0  0  0  0  0
    6.9814  -16.7751   21.3722 C   0  0  0  0  0  0  0  0  0  0  0  0
    6.5912  -17.3228   20.0404 C   0  0  0  0  0  0  0  0  0  0  0  0
    7.2540  -18.6078   19.7063 C   0  0  0  0  0  0  0  0  0  0  0  0
    6.6348  -19.1274   18.3978 C   0  0  0  0  0  0  0  0  0  0  0  0
    7.3058  -20.3449   18.0347 N   0  0  0  0  0  0  0  0  0  0  0  0
    7.9167  -15.0467   22.7437 C   0  0  0  0  0  0  0  0  0  0  0  0
    9.1925  -15.0217   22.6763 O   0  0  0  0  0  0  0  0  0  0  0  0
    6.0751  -11.4541   26.1519 C   0  0  0  0  0  0  0  0  0  0  0  0
    6.9974  -12.3349   25.3120 C   0  0  0  0  0  0  0  0  0  0  0  0
    7.3852  -13.5851   26.0483 C   0  0  2  0  0  0  0  0  0  0  0  0
    8.1815  -13.2896   27.2934 C   0  0  0  0  0  0  0  0  0  0  0  0
    8.0212  -14.5517   25.1313 C   0  0  2  0  0  0  0  0  0  0  0  0
    7.2195  -14.8478   23.9613 N   0  0  0  0  0  0  0  0  0  0  0  0
    8.3513  -15.8483   25.7719 C   0  0  0  0  0  0  0  0  0  0  0  0
    7.5229  -16.6420   26.2826 O   0  0  0  0  0  0  0  0  0  0  0  0
   10.2191  -18.5579   24.1622 C   0  0  0  0  0  0  0  0  0  0  0  0
   10.9714  -18.3513   25.4649 C   0  0  1  0  0  0  0  0  0  0  0  0
   12.1530  -17.6995   25.2022 O   0  0  0  0  0  0  0  0  0  0  0  0
   10.0502  -17.5600   26.3807 C   0  0  2  0  0  0  0  0  0  0  0  0
    9.7153  -16.2850   25.8433 N   0  0  0  0  0  0  0  0  0  0  0  0
   10.5915  -17.4886   27.7505 C   0  0  0  0  0  0  0  0  0  0  0  0
   10.8527  -18.5935   28.5204 O   0  0  0  0  0  0  0  0  0  0  0  0
   10.8236  -16.3543   28.2328 O   0  0  0  0  0  0  0  0  0  0  0  0
  2  1  1  6
  3  2  1  0
  4  3  1  0
  5  4  1  0
  6  5  1  0
  7  6  1  0
  8  2  1  0
  8  9  2  0
 11 10  1  0
 12 14  1  0
 12 11  1  0
 12 13  1  1
 14 15  1  6
 15  8  1  0
 16 14  1  0
 17 16  2  0
 19 18  1  6
 19 21  1  0
 20 19  1  0
 21 23  1  0
 21 22  1  6
 22 16  1  0
 23 24  1  0
 25 23  2  0
M  END
$$$$
