KIT.pdb
     RDKit          3D

 25 24  0  0  1  0  0  0  0  0999 V2000
    8.5525  -14.5773   20.2763 N   0  0  0  0  0  0  0  0  0  0  0  0
    7.6527  -15.1103   21.2344 C   0  0  1  0  0  0  0  0  0  0  0  0
    7.3618  -16.5642   21.0305 C   0  0  0  0  0  0  0  0  0  0  0  0
    7.1152  -17.0103   19.6284 C   0  0  0  0  0  0  0  0  0  0  0  0
    6.7530  -18.4447   19.5136 C   0  0  0  0  0  0  0  0  0  0  0  0
    6.4050  -18.7232   18.0416 C   0  0  0  0  0  0  0  0  0  0  0  0
    6.1480  -20.1295   17.8980 N   0  0  0  0  0  0  0  0  0  0  0  0
    8.1343  -14.9622   22.6368 C   0  0  0  0  0  0  0  0  0  0  0  0
    9.4022  -15.0221   22.7835 O   0  0  0  0  0  0  0  0  0  0  0  0
    5.9242  -11.4166   25.9696 C   0  0  0  0  0  0  0  0  0  0  0  0
    6.8415  -12.3333   25.1632 C   0  0  0  0  0  0  0  0  0  0  0  0
    7.1030  -13.6239   25.8856 C   0  0  2  0  0  0  0  0  0  0  0  0
    7.7029  -13.4019   27.2503 C   0  0  0  0  0  0  0  0  0  0  0  0
    7.8634  -14.5542   25.0277 C   0  0  2  0  0  0  0  0  0  0  0  0
    7.2544  -14.7689   23.7307 N   0  0  0  0  0  0  0  0  0  0  0  0
    8.0691  -15.8904   25.6382 C   0  0  0  0  0  0  0  0  0  0  0  0
    7.1585  -16.6841   25.9814 O   0  0  0  0  0  0  0  0  0  0  0  0
    9.8519  -18.6379   24.1657 C   0  0  0  0  0  0  0  0  0  0  0  0
   10.5473  -18.4989   25.5083 C   0  0  1  0  0  0  0  0  0  0  0  0
   11.7735  -17.9066   25.3194 O   0  0  0  0  0  0  0  0  0  0  0  0
    9.6242  -17.6779   26.3957 C   0  0  2  0  0  0  0  0  0  0  0  0
    9.3985  -16.3699   25.8808 N   0  0  0  0  0  0  0  0  0  0  0  0
   10.0886  -17.6786   27.7952 C   0  0  0  0  0  0  0  0  0  0  0  0
   10.2899  -18.8220   28.5259 O   0  0  0  0  0  0  0  0  0  0  0  0
   10.3100  -16.5718   28.3421 O   0  0  0  0  0  0  0  0  0  0  0  0
  2  1  1  6
  3  2  1  0
  4  3  1  0
  5  4  1  0
  6  5  1  0
  7  6  1  0
  8  2  1  0
  8  9  2  0
 11 10  1  0
 12 14  1  0
 12 11  1  0
 12 13  1  1
 14 15  1  6
 15  8  1  0
 16 14  1  0
 17 16  2  0
 19 18  1  6
 19 21  1  0
 20 19  1  0
 21 23  1  0
 21 22  1  6
 22 16  1  0
 23 24  1  0
 25 23  2  0
M  END
$$$$
