SCG.pdb
     RDKit          3D

 17 16  0  0  1  0  0  0  0  0999 V2000
   14.4848  -12.5202  -10.7587 O   0  0  0  0  0  0  0  0  0  0  0  0
   14.6764  -11.2164  -11.1970 C   0  0  0  0  0  0  0  0  0  0  0  0
   14.5519  -10.2081  -10.0858 C   0  0  2  0  0  0  0  0  0  0  0  0
   13.1409  -10.0480   -9.8015 N   0  0  0  0  0  0  0  0  0  0  0  0
   15.1413   -8.9117  -10.3773 C   0  0  0  0  0  0  0  0  0  0  0  0
   14.4965   -8.0779  -11.0598 O   0  0  0  0  0  0  0  0  0  0  0  0
   16.4252   -8.4857   -9.9458 N   0  0  0  0  0  0  0  0  0  0  0  0
   17.0286   -7.2320  -10.2786 C   0  0  1  0  0  0  0  0  0  0  0  0
   17.1095   -6.2821   -9.1084 C   0  0  0  0  0  0  0  0  0  0  0  0
   15.4096   -5.8609   -8.6250 S   0  0  0  0  0  0  0  0  0  0  0  0
   18.4092   -7.4164  -10.7980 C   0  0  0  0  0  0  0  0  0  0  0  0
   19.2521   -8.0403  -10.1035 O   0  0  0  0  0  0  0  0  0  0  0  0
   18.8406   -6.9196  -12.0573 N   0  0  0  0  0  0  0  0  0  0  0  0
   20.2300   -7.1093  -12.4822 C   0  0  0  0  0  0  0  0  0  0  0  0
   20.4370   -6.5871  -13.8481 C   0  0  0  0  0  0  0  0  0  0  0  0
   19.4212   -6.1401  -14.6663 O   0  0  0  0  0  0  0  0  0  0  0  0
   21.6120   -6.5511  -14.2835 O   0  0  0  0  0  0  0  0  0  0  0  0
  2  1  1  0
  3  2  1  0
  3  4  1  6
  5  3  1  0
  5  6  2  0
  7  5  1  0
  8  7  1  0
  9 10  1  0
  8  9  1  1
 11 13  1  0
 11  8  1  0
 12 11  2  0
 14 13  1  0
 14 15  1  0
 15 17  2  0
 15 16  1  0
M  END
$$$$
