SCG.pdb
     RDKit          3D

 17 16  0  0  1  0  0  0  0  0999 V2000
   18.1996   -9.6571  -18.2033 O   0  0  0  0  0  0  0  0  0  0  0  0
   18.3159   -8.5219  -17.4118 C   0  0  0  0  0  0  0  0  0  0  0  0
   19.0176   -8.7950  -16.1079 C   0  0  2  0  0  0  0  0  0  0  0  0
   18.1702   -9.6806  -15.3365 N   0  0  0  0  0  0  0  0  0  0  0  0
   19.3235   -7.6084  -15.3261 C   0  0  0  0  0  0  0  0  0  0  0  0
   18.4422   -7.1141  -14.5807 O   0  0  0  0  0  0  0  0  0  0  0  0
   20.5720   -6.9322  -15.3275 N   0  0  0  0  0  0  0  0  0  0  0  0
   20.8735   -5.7641  -14.5585 C   0  0  1  0  0  0  0  0  0  0  0  0
   22.1940   -5.8545  -13.8333 C   0  0  0  0  0  0  0  0  0  0  0  0
   22.0242   -7.1188  -12.5397 S   0  0  0  0  0  0  0  0  0  0  0  0
   20.9182   -4.5492  -15.4141 C   0  0  0  0  0  0  0  0  0  0  0  0
   21.4351   -4.6186  -16.5586 O   0  0  0  0  0  0  0  0  0  0  0  0
   20.4012   -3.2900  -15.0067 N   0  0  0  0  0  0  0  0  0  0  0  0
   20.4210   -2.1558  -15.9342 C   0  0  0  0  0  0  0  0  0  0  0  0
   19.8986   -0.9370  -15.2838 C   0  0  0  0  0  0  0  0  0  0  0  0
   20.2828    0.3436  -15.6208 O   0  0  0  0  0  0  0  0  0  0  0  0
   19.0537   -1.0842  -14.3695 O   0  0  0  0  0  0  0  0  0  0  0  0
  2  1  1  0
  3  2  1  0
  3  4  1  1
  5  3  1  0
  5  6  2  0
  7  5  1  0
  8  7  1  0
  9 10  1  0
  8  9  1  6
 11 13  1  0
 11  8  1  0
 12 11  2  0
 14 13  1  0
 14 15  1  0
 15 17  2  0
 15 16  1  0
M  END
$$$$
