SCG.pdb
     RDKit          3D

 17 16  0  0  1  0  0  0  0  0999 V2000
   18.6448  -13.3515  -19.6310 O   0  0  0  0  0  0  0  0  0  0  0  0
   18.6838  -12.9146  -18.3133 C   0  0  0  0  0  0  0  0  0  0  0  0
   19.7646  -13.5897  -17.5114 C   0  0  2  0  0  0  0  0  0  0  0  0
   19.1728  -14.7483  -16.8750 N   0  0  0  0  0  0  0  0  0  0  0  0
   20.3877  -12.7454  -16.5056 C   0  0  0  0  0  0  0  0  0  0  0  0
   19.7178  -12.3676  -15.5131 O   0  0  0  0  0  0  0  0  0  0  0  0
   21.7328  -12.2920  -16.5432 N   0  0  0  0  0  0  0  0  0  0  0  0
   22.3539  -11.4816  -15.5411 C   0  0  1  0  0  0  0  0  0  0  0  0
   23.8324  -11.7475  -15.3941 C   0  0  0  0  0  0  0  0  0  0  0  0
   24.0232  -13.4071  -14.6799 S   0  0  0  0  0  0  0  0  0  0  0  0
   22.1895  -10.0341  -15.8367 C   0  0  0  0  0  0  0  0  0  0  0  0
   22.3120   -9.6278  -17.0208 O   0  0  0  0  0  0  0  0  0  0  0  0
   21.8965   -9.0639  -14.8409 N   0  0  0  0  0  0  0  0  0  0  0  0
   21.6469   -7.6722  -15.2256 C   0  0  0  0  0  0  0  0  0  0  0  0
   21.2820   -6.8596  -14.0476 C   0  0  0  0  0  0  0  0  0  0  0  0
   21.0400   -7.3811  -12.7944 O   0  0  0  0  0  0  0  0  0  0  0  0
   21.1883   -5.6194  -14.2049 O   0  0  0  0  0  0  0  0  0  0  0  0
  2  1  1  0
  3  2  1  0
  3  4  1  1
  5  3  1  0
  5  6  2  0
  7  5  1  0
  8  7  1  0
  9 10  1  0
  8  9  1  6
 11 13  1  0
 11  8  1  0
 12 11  2  0
 14 13  1  0
 14 15  1  0
 15 17  2  0
 15 16  1  0
M  END
$$$$
