SCG.pdb
     RDKit          3D

 17 16  0  0  1  0  0  0  0  0999 V2000
   25.0025   -9.0386  -18.8145 O   0  0  0  0  0  0  0  0  0  0  0  0
   24.0581   -8.1035  -18.4116 C   0  0  0  0  0  0  0  0  0  0  0  0
   22.7105   -8.7199  -18.1448 C   0  0  2  0  0  0  0  0  0  0  0  0
   22.0075   -8.7893  -19.4091 N   0  0  0  0  0  0  0  0  0  0  0  0
   21.8997   -8.0035  -17.1742 C   0  0  0  0  0  0  0  0  0  0  0  0
   21.0360   -7.1841  -17.5734 O   0  0  0  0  0  0  0  0  0  0  0  0
   21.9977   -8.1500  -15.7653 N   0  0  0  0  0  0  0  0  0  0  0  0
   21.1859   -7.4605  -14.8101 C   0  0  1  0  0  0  0  0  0  0  0  0
   20.8453   -8.3004  -13.6032 C   0  0  0  0  0  0  0  0  0  0  0  0
   19.7291   -9.6243  -14.1532 S   0  0  0  0  0  0  0  0  0  0  0  0
   21.8561   -6.2277  -14.3193 C   0  0  0  0  0  0  0  0  0  0  0  0
   23.0698   -6.2730  -13.9927 O   0  0  0  0  0  0  0  0  0  0  0  0
   21.1930   -4.9773  -14.1952 N   0  0  0  0  0  0  0  0  0  0  0  0
   21.9423   -3.7896  -13.7768 C   0  0  0  0  0  0  0  0  0  0  0  0
   21.0654   -2.6018  -13.7401 C   0  0  0  0  0  0  0  0  0  0  0  0
   21.4259   -1.3923  -13.1850 O   0  0  0  0  0  0  0  0  0  0  0  0
   19.9238   -2.7078  -14.2471 O   0  0  0  0  0  0  0  0  0  0  0  0
  2  1  1  0
  3  2  1  0
  3  4  1  6
  5  3  1  0
  5  6  2  0
  7  5  1  0
  8  7  1  0
  9 10  1  0
  8  9  1  1
 11 13  1  0
 11  8  1  0
 12 11  2  0
 14 13  1  0
 14 15  1  0
 15 17  2  0
 15 16  1  0
M  END
$$$$
