SCG.pdb
     RDKit          3D

 17 16  0  0  1  0  0  0  0  0999 V2000
   24.9535  -10.2356  -16.6103 O   0  0  0  0  0  0  0  0  0  0  0  0
   24.5693  -10.6118  -15.3298 C   0  0  0  0  0  0  0  0  0  0  0  0
   23.0947  -10.8986  -15.2288 C   0  0  2  0  0  0  0  0  0  0  0  0
   22.8002  -11.9831  -16.1424 N   0  0  0  0  0  0  0  0  0  0  0  0
   22.2365   -9.7636  -15.5257 C   0  0  0  0  0  0  0  0  0  0  0  0
   21.6799   -9.6855  -16.6485 O   0  0  0  0  0  0  0  0  0  0  0  0
   21.9595   -8.6965  -14.6308 N   0  0  0  0  0  0  0  0  0  0  0  0
   21.0661   -7.6118  -14.8988 C   0  0  1  0  0  0  0  0  0  0  0  0
   19.6552   -7.8745  -14.4314 C   0  0  0  0  0  0  0  0  0  0  0  0
   19.7475   -8.4792  -12.7206 S   0  0  0  0  0  0  0  0  0  0  0  0
   21.5250   -6.3581  -14.2450 C   0  0  0  0  0  0  0  0  0  0  0  0
   22.3012   -6.4250  -13.2576 O   0  0  0  0  0  0  0  0  0  0  0  0
   21.1306   -5.0638  -14.6787 N   0  0  0  0  0  0  0  0  0  0  0  0
   21.7004   -3.8733  -14.0422 C   0  0  0  0  0  0  0  0  0  0  0  0
   21.1459   -2.6422  -14.6407 C   0  0  0  0  0  0  0  0  0  0  0  0
   21.2653   -1.3886  -14.0791 O   0  0  0  0  0  0  0  0  0  0  0  0
   20.5298   -2.7519  -15.7269 O   0  0  0  0  0  0  0  0  0  0  0  0
  2  1  1  0
  3  2  1  0
  3  4  1  6
  5  3  1  0
  5  6  2  0
  7  5  1  0
  8  7  1  0
  9 10  1  0
  8  9  1  1
 11 13  1  0
 11  8  1  0
 12 11  2  0
 14 13  1  0
 14 15  1  0
 15 17  2  0
 15 16  1  0
M  END
$$$$
