SCG.pdb
     RDKit          3D

 17 16  0  0  1  0  0  0  0  0999 V2000
   17.0881   -9.6465  -17.2737 O   0  0  0  0  0  0  0  0  0  0  0  0
   17.2763   -8.6889  -16.2856 C   0  0  0  0  0  0  0  0  0  0  0  0
   18.3415   -9.0800  -15.2960 C   0  0  2  0  0  0  0  0  0  0  0  0
   17.7458  -10.0157  -14.3649 N   0  0  0  0  0  0  0  0  0  0  0  0
   18.9245   -7.9676  -14.5643 C   0  0  0  0  0  0  0  0  0  0  0  0
   18.3470   -7.5308  -13.5385 O   0  0  0  0  0  0  0  0  0  0  0  0
   20.1305   -7.3053  -14.9152 N   0  0  0  0  0  0  0  0  0  0  0  0
   20.6898   -6.1920  -14.2121 C   0  0  1  0  0  0  0  0  0  0  0  0
   22.1344   -6.3977  -13.8263 C   0  0  0  0  0  0  0  0  0  0  0  0
   22.6648   -4.9363  -12.8862 S   0  0  0  0  0  0  0  0  0  0  0  0
   20.6188   -4.9482  -15.0232 C   0  0  0  0  0  0  0  0  0  0  0  0
   21.1797   -4.9120  -16.1485 O   0  0  0  0  0  0  0  0  0  0  0  0
   19.9415   -3.7755  -14.5935 N   0  0  0  0  0  0  0  0  0  0  0  0
   19.9531   -2.5743  -15.4327 C   0  0  0  0  0  0  0  0  0  0  0  0
   19.0679   -1.5337  -14.8717 C   0  0  0  0  0  0  0  0  0  0  0  0
   19.3393   -0.8284  -13.7184 O   0  0  0  0  0  0  0  0  0  0  0  0
   18.0057   -1.2817  -15.4879 O   0  0  0  0  0  0  0  0  0  0  0  0
  2  1  1  0
  3  2  1  0
  3  4  1  1
  5  3  1  0
  5  6  2  0
  7  5  1  0
  8  7  1  0
  9 10  1  0
  8  9  1  6
 11 13  1  0
 11  8  1  0
 12 11  2  0
 14 13  1  0
 14 15  1  0
 15 17  2  0
 15 16  1  0
M  END
$$$$
