SCG.pdb
     RDKit          3D

 17 16  0  0  1  0  0  0  0  0999 V2000
   21.9256  -13.0934  -18.3424 O   0  0  0  0  0  0  0  0  0  0  0  0
   21.4371  -11.8136  -18.1136 C   0  0  0  0  0  0  0  0  0  0  0  0
   20.0516  -11.8198  -17.5242 C   0  0  2  0  0  0  0  0  0  0  0  0
   19.1512  -12.3274  -18.5386 N   0  0  0  0  0  0  0  0  0  0  0  0
   19.5854  -10.5227  -17.0626 C   0  0  0  0  0  0  0  0  0  0  0  0
   19.0847   -9.7164  -17.8846 O   0  0  0  0  0  0  0  0  0  0  0  0
   19.6462  -10.0668  -15.7192 N   0  0  0  0  0  0  0  0  0  0  0  0
   19.2293   -8.7734  -15.2719 C   0  0  1  0  0  0  0  0  0  0  0  0
   18.0252   -8.8185  -14.3629 C   0  0  0  0  0  0  0  0  0  0  0  0
   17.5530   -7.1038  -13.9921 S   0  0  0  0  0  0  0  0  0  0  0  0
   20.3174   -8.0787  -14.5348 C   0  0  0  0  0  0  0  0  0  0  0  0
   21.0272   -8.7284  -13.7249 O   0  0  0  0  0  0  0  0  0  0  0  0
   20.6079   -6.6971  -14.6946 N   0  0  0  0  0  0  0  0  0  0  0  0
   21.6925   -6.0832  -13.9240 C   0  0  0  0  0  0  0  0  0  0  0  0
   21.8040   -4.6428  -14.2308 C   0  0  0  0  0  0  0  0  0  0  0  0
   22.6647   -3.7800  -13.5858 O   0  0  0  0  0  0  0  0  0  0  0  0
   21.0671   -4.1836  -15.1350 O   0  0  0  0  0  0  0  0  0  0  0  0
  2  1  1  0
  3  2  1  0
  3  4  1  6
  5  3  1  0
  5  6  2  0
  7  5  1  0
  8  7  1  0
  9 10  1  0
  8  9  1  1
 11 13  1  0
 11  8  1  0
 12 11  2  0
 14 13  1  0
 14 15  1  0
 15 17  2  0
 15 16  1  0
M  END
$$$$
