SCG.pdb
     RDKit          3D

 17 16  0  0  1  0  0  0  0  0999 V2000
   12.8077   -9.2699  -11.4082 O   0  0  0  0  0  0  0  0  0  0  0  0
   13.7397  -10.1514  -10.8761 C   0  0  0  0  0  0  0  0  0  0  0  0
   14.5008   -9.5602   -9.7193 C   0  0  2  0  0  0  0  0  0  0  0  0
   13.5589   -9.3597   -8.6376 N   0  0  0  0  0  0  0  0  0  0  0  0
   15.1761   -8.3079  -10.0170 C   0  0  0  0  0  0  0  0  0  0  0  0
   14.5364   -7.2293   -9.9529 O   0  0  0  0  0  0  0  0  0  0  0  0
   16.5416   -8.1873  -10.3869 N   0  0  0  0  0  0  0  0  0  0  0  0
   17.1867   -6.9652  -10.7572 C   0  0  1  0  0  0  0  0  0  0  0  0
   17.5005   -6.0777   -9.5773 C   0  0  0  0  0  0  0  0  0  0  0  0
   18.3246   -4.5891  -10.2143 S   0  0  0  0  0  0  0  0  0  0  0  0
   18.4642   -7.2224  -11.4725 C   0  0  0  0  0  0  0  0  0  0  0  0
   19.3177   -7.9886  -10.9562 O   0  0  0  0  0  0  0  0  0  0  0  0
   18.7836   -6.6422  -12.7295 N   0  0  0  0  0  0  0  0  0  0  0  0
   20.0633   -6.9497  -13.3738 C   0  0  0  0  0  0  0  0  0  0  0  0
   21.1214   -6.0333  -12.9028 C   0  0  0  0  0  0  0  0  0  0  0  0
   22.3909   -6.4370  -12.5472 O   0  0  0  0  0  0  0  0  0  0  0  0
   20.8402   -4.8142  -12.8243 O   0  0  0  0  0  0  0  0  0  0  0  0
  2  1  1  0
  3  2  1  0
  3  4  1  1
  5  3  1  0
  5  6  2  0
  7  5  1  0
  8  7  1  0
  9 10  1  0
  8  9  1  1
 11 13  1  0
 11  8  1  0
 12 11  2  0
 14 13  1  0
 14 15  1  0
 15 17  2  0
 15 16  1  0
M  END
$$$$
