SCG.pdb
     RDKit          3D

 17 16  0  0  1  0  0  0  0  0999 V2000
   23.7983  -35.1035  -10.3950 O   0  0  0  0  0  0  0  0  0  0  0  0
   24.7147  -35.0685   -9.3521 C   0  0  0  0  0  0  0  0  0  0  0  0
   25.2173  -33.6776   -9.0697 C   0  0  2  0  0  0  0  0  0  0  0  0
   26.0463  -33.2805  -10.1888 N   0  0  0  0  0  0  0  0  0  0  0  0
   25.9707  -33.5466   -7.8335 C   0  0  0  0  0  0  0  0  0  0  0  0
   27.2072  -33.3340   -7.8818 O   0  0  0  0  0  0  0  0  0  0  0  0
   25.4173  -33.6401   -6.5292 N   0  0  0  0  0  0  0  0  0  0  0  0
   26.1660  -33.5621   -5.3127 C   0  0  1  0  0  0  0  0  0  0  0  0
   25.3303  -33.1474   -4.1262 C   0  0  0  0  0  0  0  0  0  0  0  0
   26.2821  -31.9169   -3.1877 S   0  0  0  0  0  0  0  0  0  0  0  0
   26.7950  -34.8671   -4.9793 C   0  0  0  0  0  0  0  0  0  0  0  0
   26.0971  -35.9132   -5.0036 O   0  0  0  0  0  0  0  0  0  0  0  0
   28.1648  -35.0045   -4.6280 N   0  0  0  0  0  0  0  0  0  0  0  0
   28.7151  -36.3297   -4.3308 C   0  0  0  0  0  0  0  0  0  0  0  0
   28.6293  -36.6213   -2.8856 C   0  0  0  0  0  0  0  0  0  0  0  0
   29.2812  -37.6681   -2.2688 O   0  0  0  0  0  0  0  0  0  0  0  0
   27.9177  -35.8658   -2.1826 O   0  0  0  0  0  0  0  0  0  0  0  0
  2  1  1  0
  3  2  1  0
  3  4  1  6
  5  3  1  0
  5  6  2  0
  7  5  1  0
  8  7  1  0
  9 10  1  0
  8  9  1  1
 11 13  1  0
 11  8  1  0
 12 11  2  0
 14 13  1  0
 14 15  1  0
 15 17  2  0
 15 16  1  0
M  END
$$$$
