SCG.pdb
     RDKit          3D

 17 16  0  0  1  0  0  0  0  0999 V2000
   23.7534   -9.5890  -19.0505 O   0  0  0  0  0  0  0  0  0  0  0  0
   22.8396   -8.7733  -18.3960 C   0  0  0  0  0  0  0  0  0  0  0  0
   21.8994   -9.5498  -17.5128 C   0  0  2  0  0  0  0  0  0  0  0  0
   20.9993  -10.2844  -18.3776 N   0  0  0  0  0  0  0  0  0  0  0  0
   21.1302   -8.7362  -16.5859 C   0  0  0  0  0  0  0  0  0  0  0  0
   19.9860   -8.3371  -16.9150 O   0  0  0  0  0  0  0  0  0  0  0  0
   21.5691   -8.3366  -15.2960 N   0  0  0  0  0  0  0  0  0  0  0  0
   20.8648   -7.4413  -14.4305 C   0  0  1  0  0  0  0  0  0  0  0  0
   20.6258   -8.0110  -13.0534 C   0  0  0  0  0  0  0  0  0  0  0  0
   19.3561   -9.3015  -13.2062 S   0  0  0  0  0  0  0  0  0  0  0  0
   21.6012   -6.1611  -14.2605 C   0  0  0  0  0  0  0  0  0  0  0  0
   22.8173   -6.1860  -13.9405 O   0  0  0  0  0  0  0  0  0  0  0  0
   21.0000   -4.8866  -14.4419 N   0  0  0  0  0  0  0  0  0  0  0  0
   21.8057   -3.6706  -14.3029 C   0  0  0  0  0  0  0  0  0  0  0  0
   20.9791   -2.4659  -14.5188 C   0  0  0  0  0  0  0  0  0  0  0  0
   21.4007   -1.1812  -14.2487 O   0  0  0  0  0  0  0  0  0  0  0  0
   19.8235   -2.6297  -14.9763 O   0  0  0  0  0  0  0  0  0  0  0  0
  2  1  1  0
  3  2  1  0
  3  4  1  6
  5  3  1  0
  5  6  2  0
  7  5  1  0
  8  7  1  0
  9 10  1  0
  8  9  1  1
 11 13  1  0
 11  8  1  0
 12 11  2  0
 14 13  1  0
 14 15  1  0
 15 17  2  0
 15 16  1  0
M  END
$$$$
