LWQ.pdb
     RDKit          3D

 32 33  0  0  1  0  0  0  0  0999 V2000
   27.8875  -20.9278  -18.9353 C   0  0  0  0  0  0  0  0  0  0  0  0
   27.3562  -22.3126  -18.7694 C   0  0  2  0  0  0  0  0  0  0  0  0
   26.2644  -22.5158  -19.8266 C   0  0  0  0  0  0  0  0  0  0  0  0
   26.7122  -22.5841  -17.4505 C   0  0  0  0  0  0  0  0  0  0  0  0
   27.5419  -22.2198  -16.2528 C   0  0  2  0  0  0  0  0  0  0  0  0
   28.7347  -23.0041  -16.1133 N   0  0  0  0  0  0  0  0  0  0  0  0
   26.7420  -22.2279  -14.9975 C   0  0  0  0  0  0  0  0  0  0  0  0
   26.2873  -23.3148  -14.6022 O   0  0  0  0  0  0  0  0  0  0  0  0
   26.4779  -21.0712  -14.2419 N   0  0  0  0  0  0  0  0  0  0  0  0
   25.6893  -21.0798  -12.9948 C   0  0  1  0  0  0  0  0  0  0  0  0
   26.3191  -20.0625  -12.1191 C   0  0  0  0  0  0  0  0  0  0  0  0
   27.4425  -20.4758  -11.2912 C   0  0  0  0  0  0  0  0  0  0  0  0
   28.6932  -20.9208  -11.6627 C   0  0  0  0  0  0  0  0  0  0  0  0
   29.3967  -21.2087  -10.5576 N   0  0  0  0  0  0  0  0  0  0  0  0
   28.6374  -20.9634   -9.4625 C   0  0  0  0  0  0  0  0  0  0  0  0
   28.8882  -21.0945   -8.0937 C   0  0  0  0  0  0  0  0  0  0  0  0
   27.9184  -20.7683   -7.1682 C   0  0  0  0  0  0  0  0  0  0  0  0
   26.6973  -20.3111   -7.6039 C   0  0  0  0  0  0  0  0  0  0  0  0
   26.4596  -20.1852   -8.9563 C   0  0  0  0  0  0  0  0  0  0  0  0
   27.4305  -20.5110   -9.9102 C   0  0  0  0  0  0  0  0  0  0  0  0
   24.2643  -20.9351  -13.2839 C   0  0  0  0  0  0  0  0  0  0  0  0
   23.9327  -20.1567  -14.2583 O   0  0  0  0  0  0  0  0  0  0  0  0
   19.3270  -24.1415  -11.2719 N   0  0  0  0  0  0  0  0  0  0  0  0
   18.6816  -23.2492  -12.1801 C   0  0  0  0  0  0  0  0  0  0  0  0
   17.4608  -23.3924  -12.3476 O   0  0  0  0  0  0  0  0  0  0  0  0
   19.5185  -22.2220  -12.8523 C   0  0  0  0  0  0  0  0  0  0  0  0
   20.9118  -22.3033  -12.2824 C   0  0  0  0  0  0  0  0  0  0  0  0
   21.8849  -21.4007  -12.9980 C   0  0  2  0  0  0  0  0  0  0  0  0
   23.2499  -21.6073  -12.5519 N   0  0  0  0  0  0  0  0  0  0  0  0
   21.4891  -20.0164  -12.7169 C   0  0  0  0  0  0  0  0  0  0  0  0
   21.9449  -19.4082  -11.7342 O   0  0  0  0  0  0  0  0  0  0  0  0
   20.5960  -19.3698  -13.5518 O   0  0  0  0  0  0  0  0  0  0  0  0
  2  3  1  6
  2  1  1  0
  4  2  1  0
  5  4  1  0
  5  6  1  1
  7  9  1  0
  7  5  1  0
  8  7  2  0
 10  9  1  0
 10 11  1  1
 12 11  1  0
 13 12  2  0
 14 13  1  0
 15 14  1  0
 15 20  2  0
 16 15  1  0
 17 16  2  0
 17 18  1  0
 18 19  2  0
 19 20  1  0
 20 12  1  0
 21 10  1  0
 21 22  2  0
 23 24  1  0
 24 26  1  0
 25 24  2  0
 27 26  1  0
 28 29  1  0
 28 27  1  1
 29 21  1  0
 30 28  1  0
 31 30  2  0
 32 30  1  0
M  END
$$$$
