LWQ.pdb
     RDKit          3D

 32 33  0  0  1  0  0  0  0  0999 V2000
   28.3493  -20.6567  -13.7694 C   0  0  0  0  0  0  0  0  0  0  0  0
   27.2246  -19.7765  -14.2025 C   0  0  2  0  0  0  0  0  0  0  0  0
   27.8193  -18.4051  -14.5439 C   0  0  0  0  0  0  0  0  0  0  0  0
   26.1837  -19.5298  -13.1616 C   0  0  0  0  0  0  0  0  0  0  0  0
   25.5007  -20.7629  -12.6432 C   0  0  2  0  0  0  0  0  0  0  0  0
   25.9049  -21.9706  -13.3030 N   0  0  0  0  0  0  0  0  0  0  0  0
   24.0190  -20.6201  -12.6412 C   0  0  0  0  0  0  0  0  0  0  0  0
   23.5251  -19.6700  -12.0106 O   0  0  0  0  0  0  0  0  0  0  0  0
   23.1566  -21.5037  -13.3150 N   0  0  0  0  0  0  0  0  0  0  0  0
   21.7058  -21.2729  -13.4536 C   0  0  1  0  0  0  0  0  0  0  0  0
   21.4959  -20.9035  -14.8741 C   0  0  0  0  0  0  0  0  0  0  0  0
   21.8313  -19.5477  -15.2835 C   0  0  0  0  0  0  0  0  0  0  0  0
   23.0302  -19.0335  -15.7290 C   0  0  0  0  0  0  0  0  0  0  0  0
   22.8762  -17.7236  -15.9728 N   0  0  0  0  0  0  0  0  0  0  0  0
   21.6002  -17.3602  -15.6980 C   0  0  0  0  0  0  0  0  0  0  0  0
   20.9311  -16.1359  -15.7795 C   0  0  0  0  0  0  0  0  0  0  0  0
   19.5998  -16.0390  -15.4304 C   0  0  0  0  0  0  0  0  0  0  0  0
   18.9325  -17.1610  -14.9995 C   0  0  0  0  0  0  0  0  0  0  0  0
   19.6015  -18.3644  -14.9225 C   0  0  0  0  0  0  0  0  0  0  0  0
   20.9514  -18.4825  -15.2722 C   0  0  0  0  0  0  0  0  0  0  0  0
   20.9500  -22.4090  -12.9310 C   0  0  0  0  0  0  0  0  0  0  0  0
   21.2453  -23.5790  -13.3885 O   0  0  0  0  0  0  0  0  0  0  0  0
   19.2218  -23.7277   -7.3678 N   0  0  0  0  0  0  0  0  0  0  0  0
   18.5325  -24.7965   -8.0160 C   0  0  0  0  0  0  0  0  0  0  0  0
   18.0273  -25.6689   -7.2932 O   0  0  0  0  0  0  0  0  0  0  0  0
   18.4737  -24.7817   -9.5004 C   0  0  0  0  0  0  0  0  0  0  0  0
   19.2432  -23.5814   -9.9901 C   0  0  0  0  0  0  0  0  0  0  0  0
   19.3116  -23.5104  -11.4949 C   0  0  2  0  0  0  0  0  0  0  0  0
   19.9260  -22.2795  -11.9555 N   0  0  0  0  0  0  0  0  0  0  0  0
   17.9368  -23.5831  -12.0014 C   0  0  0  0  0  0  0  0  0  0  0  0
   17.2379  -22.5610  -12.1025 O   0  0  0  0  0  0  0  0  0  0  0  0
   17.4014  -24.8024  -12.3748 O   0  0  0  0  0  0  0  0  0  0  0  0
  2  3  1  1
  2  1  1  0
  4  2  1  0
  5  4  1  0
  5  6  1  6
  7  9  1  0
  7  5  1  0
  8  7  2  0
 10  9  1  0
 10 11  1  6
 12 11  1  0
 13 12  2  0
 14 13  1  0
 15 14  1  0
 15 20  2  0
 16 15  1  0
 17 16  2  0
 17 18  1  0
 18 19  2  0
 19 20  1  0
 20 12  1  0
 21 10  1  0
 21 22  2  0
 23 24  1  0
 24 26  1  0
 25 24  2  0
 27 26  1  0
 28 29  1  0
 28 27  1  1
 29 21  1  0
 30 28  1  0
 31 30  2  0
 32 30  1  0
M  END
$$$$
