LWQ.pdb
     RDKit          3D

 32 33  0  0  1  0  0  0  0  0999 V2000
   28.8552  -22.1457  -18.7257 C   0  0  0  0  0  0  0  0  0  0  0  0
   29.1833  -23.1006  -17.6266 C   0  0  2  0  0  0  0  0  0  0  0  0
   29.1898  -24.5105  -18.2293 C   0  0  0  0  0  0  0  0  0  0  0  0
   28.1965  -23.1326  -16.5072 C   0  0  0  0  0  0  0  0  0  0  0  0
   28.0718  -21.8504  -15.7352 C   0  0  2  0  0  0  0  0  0  0  0  0
   29.3274  -21.2133  -15.4622 N   0  0  0  0  0  0  0  0  0  0  0  0
   27.2745  -22.0249  -14.4903 C   0  0  0  0  0  0  0  0  0  0  0  0
   26.2598  -22.7405  -14.5426 O   0  0  0  0  0  0  0  0  0  0  0  0
   27.6126  -21.4223  -13.2652 N   0  0  0  0  0  0  0  0  0  0  0  0
   26.7648  -21.5034  -12.0602 C   0  0  1  0  0  0  0  0  0  0  0  0
   27.6343  -21.0876  -10.9335 C   0  0  0  0  0  0  0  0  0  0  0  0
   27.0015  -20.7882   -9.6574 C   0  0  0  0  0  0  0  0  0  0  0  0
   25.6642  -20.7504   -9.3252 C   0  0  0  0  0  0  0  0  0  0  0  0
   25.5479  -20.4079   -8.0336 N   0  0  0  0  0  0  0  0  0  0  0  0
   26.7806  -20.2184   -7.5042 C   0  0  0  0  0  0  0  0  0  0  0  0
   27.2109  -19.8576   -6.2243 C   0  0  0  0  0  0  0  0  0  0  0  0
   28.5562  -19.7305   -5.9459 C   0  0  0  0  0  0  0  0  0  0  0  0
   29.4754  -19.9625   -6.9414 C   0  0  0  0  0  0  0  0  0  0  0  0
   29.0410  -20.3180   -8.2009 C   0  0  0  0  0  0  0  0  0  0  0  0
   27.6810  -20.4519   -8.5025 C   0  0  0  0  0  0  0  0  0  0  0  0
   25.5159  -20.7708  -12.2574 C   0  0  0  0  0  0  0  0  0  0  0  0
   25.5975  -19.5810  -12.7506 O   0  0  0  0  0  0  0  0  0  0  0  0
   24.0131  -24.2910  -14.1200 N   0  0  0  0  0  0  0  0  0  0  0  0
   23.2161  -23.2446  -14.6745 C   0  0  0  0  0  0  0  0  0  0  0  0
   23.3608  -22.9977  -15.8815 O   0  0  0  0  0  0  0  0  0  0  0  0
   22.2783  -22.5347  -13.7668 C   0  0  0  0  0  0  0  0  0  0  0  0
   22.6324  -21.0695  -13.7763 C   0  0  0  0  0  0  0  0  0  0  0  0
   23.0885  -20.5739  -12.4271 C   0  0  2  0  0  0  0  0  0  0  0  0
   24.2406  -21.3074  -11.9376 N   0  0  0  0  0  0  0  0  0  0  0  0
   21.9711  -20.7501  -11.4932 C   0  0  0  0  0  0  0  0  0  0  0  0
   22.0551  -21.5395  -10.5376 O   0  0  0  0  0  0  0  0  0  0  0  0
   20.8027  -20.0316  -11.6701 O   0  0  0  0  0  0  0  0  0  0  0  0
  2  3  1  6
  2  1  1  0
  4  2  1  0
  5  4  1  0
  5  6  1  1
  7  9  1  0
  7  5  1  0
  8  7  2  0
 10  9  1  0
 10 11  1  1
 12 11  1  0
 13 12  2  0
 14 13  1  0
 15 14  1  0
 15 20  2  0
 16 15  1  0
 17 16  2  0
 17 18  1  0
 18 19  2  0
 19 20  1  0
 20 12  1  0
 21 10  1  0
 21 22  2  0
 23 24  1  0
 24 26  1  0
 25 24  2  0
 27 26  1  0
 28 29  1  0
 28 27  1  6
 29 21  1  0
 30 28  1  0
 31 30  2  0
 32 30  1  0
M  END
$$$$
