LWQ.pdb
     RDKit          3D

 32 33  0  0  1  0  0  0  0  0999 V2000
   29.1843  -22.2517  -17.9537 C   0  0  0  0  0  0  0  0  0  0  0  0
   29.7149  -22.2715  -16.5589 C   0  0  2  0  0  0  0  0  0  0  0  0
   30.7067  -23.4368  -16.4609 C   0  0  0  0  0  0  0  0  0  0  0  0
   28.6897  -22.5091  -15.5005 C   0  0  0  0  0  0  0  0  0  0  0  0
   27.6715  -21.4158  -15.3471 C   0  0  2  0  0  0  0  0  0  0  0  0
   28.2346  -20.0967  -15.3332 N   0  0  0  0  0  0  0  0  0  0  0  0
   26.7893  -21.6373  -14.1688 C   0  0  0  0  0  0  0  0  0  0  0  0
   26.2467  -22.7486  -14.0467 O   0  0  0  0  0  0  0  0  0  0  0  0
   26.5420  -20.6549  -13.1930 N   0  0  0  0  0  0  0  0  0  0  0  0
   25.6717  -20.8759  -12.0221 C   0  0  1  0  0  0  0  0  0  0  0  0
   26.2612  -20.0649  -10.9298 C   0  0  0  0  0  0  0  0  0  0  0  0
   27.4474  -20.5794  -10.2615 C   0  0  0  0  0  0  0  0  0  0  0  0
   28.5203  -21.2715  -10.7812 C   0  0  0  0  0  0  0  0  0  0  0  0
   29.3721  -21.5612   -9.7865 N   0  0  0  0  0  0  0  0  0  0  0  0
   28.8852  -21.0752   -8.6192 C   0  0  0  0  0  0  0  0  0  0  0  0
   29.3729  -21.1052   -7.3098 C   0  0  0  0  0  0  0  0  0  0  0  0
   28.6614  -20.5209   -6.2822 C   0  0  0  0  0  0  0  0  0  0  0  0
   27.4630  -19.9058   -6.5568 C   0  0  0  0  0  0  0  0  0  0  0  0
   26.9902  -19.8815   -7.8519 C   0  0  0  0  0  0  0  0  0  0  0  0
   27.6974  -20.4685   -8.9073 C   0  0  0  0  0  0  0  0  0  0  0  0
   24.2723  -20.6332  -12.3657 C   0  0  0  0  0  0  0  0  0  0  0  0
   24.0307  -19.7751  -13.2989 O   0  0  0  0  0  0  0  0  0  0  0  0
   21.1777  -20.6275  -15.3254 N   0  0  0  0  0  0  0  0  0  0  0  0
   20.1381  -21.5672  -15.0539 C   0  0  0  0  0  0  0  0  0  0  0  0
   19.3977  -21.8849  -15.9971 O   0  0  0  0  0  0  0  0  0  0  0  0
   20.0233  -22.0900  -13.6679 C   0  0  0  0  0  0  0  0  0  0  0  0
   21.4146  -22.2694  -13.1157 C   0  0  0  0  0  0  0  0  0  0  0  0
   21.8739  -21.0844  -12.3041 C   0  0  2  0  0  0  0  0  0  0  0  0
   23.1889  -21.2943  -11.7284 N   0  0  0  0  0  0  0  0  0  0  0  0
   20.9001  -20.8866  -11.2249 C   0  0  0  0  0  0  0  0  0  0  0  0
   21.1276  -21.2986  -10.0752 O   0  0  0  0  0  0  0  0  0  0  0  0
   19.7084  -20.2330  -11.4805 O   0  0  0  0  0  0  0  0  0  0  0  0
  2  3  1  6
  2  1  1  0
  4  2  1  0
  5  4  1  0
  5  6  1  1
  7  9  1  0
  7  5  1  0
  8  7  2  0
 10  9  1  0
 10 11  1  1
 12 11  1  0
 13 12  2  0
 14 13  1  0
 15 14  1  0
 15 20  2  0
 16 15  1  0
 17 16  2  0
 17 18  1  0
 18 19  2  0
 19 20  1  0
 20 12  1  0
 21 10  1  0
 21 22  2  0
 23 24  1  0
 24 26  1  0
 25 24  2  0
 27 26  1  0
 28 29  1  0
 28 27  1  1
 29 21  1  0
 30 28  1  0
 31 30  2  0
 32 30  1  0
M  END
$$$$
