LWQ.pdb
     RDKit          3D

 32 33  0  0  1  0  0  0  0  0999 V2000
   28.4517  -21.5321  -18.7154 C   0  0  0  0  0  0  0  0  0  0  0  0
   27.1773  -22.2980  -18.8447 C   0  0  2  0  0  0  0  0  0  0  0  0
   26.2587  -21.5069  -19.7836 C   0  0  0  0  0  0  0  0  0  0  0  0
   26.4179  -22.4727  -17.5716 C   0  0  0  0  0  0  0  0  0  0  0  0
   27.2007  -23.0847  -16.4454 C   0  0  2  0  0  0  0  0  0  0  0  0
   27.5721  -24.4513  -16.6727 N   0  0  0  0  0  0  0  0  0  0  0  0
   26.5109  -22.9247  -15.1360 C   0  0  0  0  0  0  0  0  0  0  0  0
   25.7004  -23.8018  -14.7922 O   0  0  0  0  0  0  0  0  0  0  0  0
   26.7314  -21.8349  -14.2745 N   0  0  0  0  0  0  0  0  0  0  0  0
   26.0980  -21.7089  -12.9477 C   0  0  1  0  0  0  0  0  0  0  0  0
   26.9699  -20.7904  -12.1765 C   0  0  0  0  0  0  0  0  0  0  0  0
   26.5772  -20.4594  -10.8147 C   0  0  0  0  0  0  0  0  0  0  0  0
   25.3924  -19.9366  -10.3424 C   0  0  0  0  0  0  0  0  0  0  0  0
   25.4879  -19.7772   -9.0141 N   0  0  0  0  0  0  0  0  0  0  0  0
   26.7114  -20.1838   -8.5975 C   0  0  0  0  0  0  0  0  0  0  0  0
   27.3108  -20.2264   -7.3356 C   0  0  0  0  0  0  0  0  0  0  0  0
   28.5992  -20.6966   -7.1861 C   0  0  0  0  0  0  0  0  0  0  0  0
   29.2931  -21.1251   -8.2928 C   0  0  0  0  0  0  0  0  0  0  0  0
   28.6931  -21.0790   -9.5335 C   0  0  0  0  0  0  0  0  0  0  0  0
   27.3874  -20.6056   -9.7052 C   0  0  0  0  0  0  0  0  0  0  0  0
   24.6876  -21.3508  -13.0808 C   0  0  0  0  0  0  0  0  0  0  0  0
   24.3691  -20.5376  -14.0310 O   0  0  0  0  0  0  0  0  0  0  0  0
   19.6206  -23.8372  -10.4180 N   0  0  0  0  0  0  0  0  0  0  0  0
   19.0049  -23.0076  -11.4029 C   0  0  0  0  0  0  0  0  0  0  0  0
   17.7665  -23.0295  -11.4719 O   0  0  0  0  0  0  0  0  0  0  0  0
   19.8913  -22.1851  -12.2662 C   0  0  0  0  0  0  0  0  0  0  0  0
   21.3129  -22.3832  -11.8055 C   0  0  0  0  0  0  0  0  0  0  0  0
   22.3023  -21.5855  -12.6171 C   0  0  2  0  0  0  0  0  0  0  0  0
   23.6728  -21.8555  -12.2251 N   0  0  0  0  0  0  0  0  0  0  0  0
   22.0079  -20.1653  -12.3972 C   0  0  0  0  0  0  0  0  0  0  0  0
   22.5113  -19.5483  -11.4437 O   0  0  0  0  0  0  0  0  0  0  0  0
   21.1588  -19.4942  -13.2583 O   0  0  0  0  0  0  0  0  0  0  0  0
  2  3  1  6
  2  1  1  0
  4  2  1  0
  5  4  1  0
  5  6  1  6
  7  9  1  0
  7  5  1  0
  8  7  2  0
 10  9  1  0
 10 11  1  1
 12 11  1  0
 13 12  2  0
 14 13  1  0
 15 14  1  0
 15 20  2  0
 16 15  1  0
 17 16  2  0
 17 18  1  0
 18 19  2  0
 19 20  1  0
 20 12  1  0
 21 10  1  0
 21 22  2  0
 23 24  1  0
 24 26  1  0
 25 24  2  0
 27 26  1  0
 28 29  1  0
 28 27  1  1
 29 21  1  0
 30 28  1  0
 31 30  2  0
 32 30  1  0
M  END
$$$$
