LWQ.pdb
     RDKit          3D

 32 33  0  0  1  0  0  0  0  0999 V2000
   28.1388  -21.3695  -19.3824 C   0  0  0  0  0  0  0  0  0  0  0  0
   27.7949  -22.7929  -19.0944 C   0  0  2  0  0  0  0  0  0  0  0  0
   26.7664  -23.2382  -20.1408 C   0  0  0  0  0  0  0  0  0  0  0  0
   27.1615  -23.0288  -17.7636 C   0  0  0  0  0  0  0  0  0  0  0  0
   28.0516  -22.7677  -16.5825 C   0  0  2  0  0  0  0  0  0  0  0  0
   29.1759  -23.6542  -16.4963 N   0  0  0  0  0  0  0  0  0  0  0  0
   27.2883  -22.7402  -15.3048 C   0  0  0  0  0  0  0  0  0  0  0  0
   26.5134  -23.6823  -15.0675 O   0  0  0  0  0  0  0  0  0  0  0  0
   27.4016  -21.7051  -14.3591 N   0  0  0  0  0  0  0  0  0  0  0  0
   26.6196  -21.6602  -13.1085 C   0  0  1  0  0  0  0  0  0  0  0  0
   27.3772  -20.7685  -12.1978 C   0  0  0  0  0  0  0  0  0  0  0  0
   26.8063  -20.4849  -10.8893 C   0  0  0  0  0  0  0  0  0  0  0  0
   25.5135  -20.1514  -10.5463 C   0  0  0  0  0  0  0  0  0  0  0  0
   25.4527  -19.9599   -9.2201 N   0  0  0  0  0  0  0  0  0  0  0  0
   26.6784  -20.1598   -8.6785 C   0  0  0  0  0  0  0  0  0  0  0  0
   27.1510  -20.0882   -7.3651 C   0  0  0  0  0  0  0  0  0  0  0  0
   28.4767  -20.3443   -7.0812 C   0  0  0  0  0  0  0  0  0  0  0  0
   29.3340  -20.6722   -8.1046 C   0  0  0  0  0  0  0  0  0  0  0  0
   28.8582  -20.7404   -9.3971 C   0  0  0  0  0  0  0  0  0  0  0  0
   27.5172  -20.4841   -9.7047 C   0  0  0  0  0  0  0  0  0  0  0  0
   25.2253  -21.3202  -13.3833 C   0  0  0  0  0  0  0  0  0  0  0  0
   25.0018  -20.3575  -14.2132 O   0  0  0  0  0  0  0  0  0  0  0  0
   23.7148  -24.4292  -14.9940 N   0  0  0  0  0  0  0  0  0  0  0  0
   22.9295  -23.6498  -15.8958 C   0  0  0  0  0  0  0  0  0  0  0  0
   23.1426  -23.7968  -17.1090 O   0  0  0  0  0  0  0  0  0  0  0  0
   21.9214  -22.7262  -15.3142 C   0  0  0  0  0  0  0  0  0  0  0  0
   22.0412  -22.7839  -13.8126 C   0  0  0  0  0  0  0  0  0  0  0  0
   22.8057  -21.6140  -13.2462 C   0  0  2  0  0  0  0  0  0  0  0  0
   24.1279  -21.9968  -12.7879 N   0  0  0  0  0  0  0  0  0  0  0  0
   22.0342  -21.0915  -12.1132 C   0  0  0  0  0  0  0  0  0  0  0  0
   22.5092  -21.0845  -10.9653 O   0  0  0  0  0  0  0  0  0  0  0  0
   20.7584  -20.5971  -12.3151 O   0  0  0  0  0  0  0  0  0  0  0  0
  2  3  1  6
  2  1  1  0
  4  2  1  0
  5  4  1  0
  5  6  1  1
  7  9  1  0
  7  5  1  0
  8  7  2  0
 10  9  1  0
 10 11  1  1
 12 11  1  0
 13 12  2  0
 14 13  1  0
 15 14  1  0
 15 20  2  0
 16 15  1  0
 17 16  2  0
 17 18  1  0
 18 19  2  0
 19 20  1  0
 20 12  1  0
 21 10  1  0
 21 22  2  0
 23 24  1  0
 24 26  1  0
 25 24  2  0
 27 26  1  0
 28 29  1  0
 28 27  1  1
 29 21  1  0
 30 28  1  0
 31 30  2  0
 32 30  1  0
M  END
$$$$
