LWQ.pdb
     RDKit          3D

 32 33  0  0  1  0  0  0  0  0999 V2000
   24.7091  -19.0853  -16.6789 C   0  0  0  0  0  0  0  0  0  0  0  0
   25.8141  -19.5954  -15.8151 C   0  0  2  0  0  0  0  0  0  0  0  0
   26.7765  -20.3795  -16.7151 C   0  0  0  0  0  0  0  0  0  0  0  0
   25.3867  -20.5407  -14.7419 C   0  0  0  0  0  0  0  0  0  0  0  0
   24.4868  -19.9475  -13.6960 C   0  0  2  0  0  0  0  0  0  0  0  0
   24.5434  -18.5160  -13.6263 N   0  0  0  0  0  0  0  0  0  0  0  0
   24.7077  -20.5611  -12.3579 C   0  0  0  0  0  0  0  0  0  0  0  0
   24.7727  -21.8001  -12.2875 O   0  0  0  0  0  0  0  0  0  0  0  0
   24.8456  -19.8100  -11.1766 N   0  0  0  0  0  0  0  0  0  0  0  0
   25.0842  -20.4170   -9.8529 C   0  0  1  0  0  0  0  0  0  0  0  0
   26.1786  -19.6239   -9.2433 C   0  0  0  0  0  0  0  0  0  0  0  0
   27.1566  -20.3262   -8.4255 C   0  0  0  0  0  0  0  0  0  0  0  0
   27.7858  -21.5325   -8.6469 C   0  0  0  0  0  0  0  0  0  0  0  0
   28.5957  -21.7956   -7.6105 N   0  0  0  0  0  0  0  0  0  0  0  0
   28.5155  -20.7882   -6.7080 C   0  0  0  0  0  0  0  0  0  0  0  0
   29.1422  -20.5740   -5.4772 C   0  0  0  0  0  0  0  0  0  0  0  0
   28.8753  -19.4374   -4.7420 C   0  0  0  0  0  0  0  0  0  0  0  0
   27.9839  -18.5122   -5.2312 C   0  0  0  0  0  0  0  0  0  0  0  0
   27.3708  -18.7325   -6.4465 C   0  0  0  0  0  0  0  0  0  0  0  0
   27.6286  -19.8790   -7.2065 C   0  0  0  0  0  0  0  0  0  0  0  0
   23.8342  -20.5323   -9.1049 C   0  0  0  0  0  0  0  0  0  0  0  0
   23.0270  -19.5261   -9.1397 O   0  0  0  0  0  0  0  0  0  0  0  0
   19.5786  -25.0542   -5.6517 N   0  0  0  0  0  0  0  0  0  0  0  0
   19.6321  -24.2825   -6.8513 C   0  0  0  0  0  0  0  0  0  0  0  0
   19.1499  -24.7892   -7.8758 O   0  0  0  0  0  0  0  0  0  0  0  0
   20.2587  -22.9373   -6.7807 C   0  0  0  0  0  0  0  0  0  0  0  0
   21.5403  -22.9727   -7.5738 C   0  0  0  0  0  0  0  0  0  0  0  0
   22.2209  -21.6286   -7.6368 C   0  0  2  0  0  0  0  0  0  0  0  0
   23.4779  -21.6870   -8.3589 N   0  0  0  0  0  0  0  0  0  0  0  0
   22.4758  -21.1996   -6.2573 C   0  0  0  0  0  0  0  0  0  0  0  0
   23.6342  -21.1252   -5.8147 O   0  0  0  0  0  0  0  0  0  0  0  0
   21.4180  -20.8708   -5.4292 O   0  0  0  0  0  0  0  0  0  0  0  0
  2  3  1  6
  2  1  1  0
  4  2  1  0
  5  4  1  0
  5  6  1  1
  7  9  1  0
  7  5  1  0
  8  7  2  0
 10  9  1  0
 10 11  1  1
 12 11  1  0
 13 12  2  0
 14 13  1  0
 15 14  1  0
 15 20  2  0
 16 15  1  0
 17 16  2  0
 17 18  1  0
 18 19  2  0
 19 20  1  0
 20 12  1  0
 21 10  1  0
 21 22  2  0
 23 24  1  0
 24 26  1  0
 25 24  2  0
 27 26  1  0
 28 29  1  0
 28 27  1  1
 29 21  1  0
 30 28  1  0
 31 30  2  0
 32 30  1  0
M  END
$$$$
