LWQ.pdb
     RDKit          3D

 32 33  0  0  1  0  0  0  0  0999 V2000
   23.0470  -26.1220  -18.0344 C   0  0  0  0  0  0  0  0  0  0  0  0
   24.5354  -26.0785  -17.9332 C   0  0  2  0  0  0  0  0  0  0  0  0
   25.0253  -27.5187  -17.7411 C   0  0  0  0  0  0  0  0  0  0  0  0
   25.0634  -25.3024  -16.7727 C   0  0  0  0  0  0  0  0  0  0  0  0
   24.6493  -23.8593  -16.7339 C   0  0  2  0  0  0  0  0  0  0  0  0
   25.6591  -22.9535  -17.1998 N   0  0  0  0  0  0  0  0  0  0  0  0
   24.1455  -23.4600  -15.3913 C   0  0  0  0  0  0  0  0  0  0  0  0
   24.8794  -23.6615  -14.4089 O   0  0  0  0  0  0  0  0  0  0  0  0
   22.8861  -22.8692  -15.1828 N   0  0  0  0  0  0  0  0  0  0  0  0
   22.4291  -22.3764  -13.8692 C   0  0  1  0  0  0  0  0  0  0  0  0
   22.6250  -20.9071  -13.9056 C   0  0  0  0  0  0  0  0  0  0  0  0
   22.1845  -20.1311  -12.7557 C   0  0  0  0  0  0  0  0  0  0  0  0
   22.4783  -20.2940  -11.4188 C   0  0  0  0  0  0  0  0  0  0  0  0
   21.8304  -19.3538  -10.7150 N   0  0  0  0  0  0  0  0  0  0  0  0
   21.1139  -18.5721  -11.5584 C   0  0  0  0  0  0  0  0  0  0  0  0
   20.2794  -17.4719  -11.3431 C   0  0  0  0  0  0  0  0  0  0  0  0
   19.6566  -16.8453  -12.4028 C   0  0  0  0  0  0  0  0  0  0  0  0
   19.8637  -17.3132  -13.6788 C   0  0  0  0  0  0  0  0  0  0  0  0
   20.6889  -18.3993  -13.8810 C   0  0  0  0  0  0  0  0  0  0  0  0
   21.3292  -19.0479  -12.8191 C   0  0  0  0  0  0  0  0  0  0  0  0
   21.0879  -22.8731  -13.5694 C   0  0  0  0  0  0  0  0  0  0  0  0
   20.2566  -22.9667  -14.5520 O   0  0  0  0  0  0  0  0  0  0  0  0
   18.6584  -25.4108   -8.4047 N   0  0  0  0  0  0  0  0  0  0  0  0
   17.6323  -25.7027   -9.3531 C   0  0  0  0  0  0  0  0  0  0  0  0
   16.6968  -26.4245   -8.9753 O   0  0  0  0  0  0  0  0  0  0  0  0
   17.7633  -25.1217  -10.7142 C   0  0  0  0  0  0  0  0  0  0  0  0
   19.0680  -24.3695  -10.7814 C   0  0  0  0  0  0  0  0  0  0  0  0
   19.3226  -23.7697  -12.1414 C   0  0  2  0  0  0  0  0  0  0  0  0
   20.6726  -23.2532  -12.2657 N   0  0  0  0  0  0  0  0  0  0  0  0
   18.3667  -22.6720  -12.3238 C   0  0  0  0  0  0  0  0  0  0  0  0
   18.6165  -21.5303  -11.9027 O   0  0  0  0  0  0  0  0  0  0  0  0
   17.1671  -22.9010  -12.9728 O   0  0  0  0  0  0  0  0  0  0  0  0
  2  3  1  1
  2  1  1  0
  4  2  1  0
  5  4  1  0
  5  6  1  1
  7  9  1  0
  7  5  1  0
  8  7  2  0
 10  9  1  0
 10 11  1  6
 12 11  1  0
 13 12  2  0
 14 13  1  0
 15 14  1  0
 15 20  2  0
 16 15  1  0
 17 16  2  0
 17 18  1  0
 18 19  2  0
 19 20  1  0
 20 12  1  0
 21 10  1  0
 21 22  2  0
 23 24  1  0
 24 26  1  0
 25 24  2  0
 27 26  1  0
 28 29  1  0
 28 27  1  1
 29 21  1  0
 30 28  1  0
 31 30  2  0
 32 30  1  0
M  END
$$$$
