LWQ.pdb
     RDKit          3D

 32 33  0  0  1  0  0  0  0  0999 V2000
   30.6003  -23.1797  -18.4953 C   0  0  0  0  0  0  0  0  0  0  0  0
   29.8915  -21.9416  -18.9335 C   0  0  2  0  0  0  0  0  0  0  0  0
   30.9571  -20.9426  -19.4000 C   0  0  0  0  0  0  0  0  0  0  0  0
   29.1152  -21.2501  -17.8625 C   0  0  0  0  0  0  0  0  0  0  0  0
   28.0440  -22.0825  -17.2180 C   0  0  2  0  0  0  0  0  0  0  0  0
   27.5065  -23.1001  -18.0740 N   0  0  0  0  0  0  0  0  0  0  0  0
   26.9622  -21.2433  -16.6338 C   0  0  0  0  0  0  0  0  0  0  0  0
   27.2614  -20.4619  -15.7150 O   0  0  0  0  0  0  0  0  0  0  0  0
   25.6257  -21.2922  -17.0694 N   0  0  0  0  0  0  0  0  0  0  0  0
   24.5785  -20.3762  -16.5778 C   0  0  1  0  0  0  0  0  0  0  0  0
   23.6543  -20.1792  -17.7204 C   0  0  0  0  0  0  0  0  0  0  0  0
   22.4473  -19.3975  -17.4950 C   0  0  0  0  0  0  0  0  0  0  0  0
   22.2912  -18.1799  -16.8679 C   0  0  0  0  0  0  0  0  0  0  0  0
   20.9907  -17.8517  -16.8764 N   0  0  0  0  0  0  0  0  0  0  0  0
   20.2830  -18.8268  -17.4962 C   0  0  0  0  0  0  0  0  0  0  0  0
   18.9198  -18.9744  -17.7667 C   0  0  0  0  0  0  0  0  0  0  0  0
   18.4523  -20.0916  -18.4276 C   0  0  0  0  0  0  0  0  0  0  0  0
   19.3415  -21.0637  -18.8204 C   0  0  0  0  0  0  0  0  0  0  0  0
   20.6845  -20.9089  -18.5489 C   0  0  0  0  0  0  0  0  0  0  0  0
   21.1776  -19.7830  -17.8797 C   0  0  0  0  0  0  0  0  0  0  0  0
   24.0100  -20.8670  -15.3244 C   0  0  0  0  0  0  0  0  0  0  0  0
   23.8993  -22.1450  -15.1833 O   0  0  0  0  0  0  0  0  0  0  0  0
   26.0067  -21.4308   -9.2915 N   0  0  0  0  0  0  0  0  0  0  0  0
   24.8118  -21.0727   -9.9855 C   0  0  0  0  0  0  0  0  0  0  0  0
   23.7431  -21.1626   -9.3622 O   0  0  0  0  0  0  0  0  0  0  0  0
   24.9399  -20.6217  -11.3953 C   0  0  0  0  0  0  0  0  0  0  0  0
   23.6224  -20.0248  -11.8202 C   0  0  0  0  0  0  0  0  0  0  0  0
   23.0787  -20.6547  -13.0778 C   0  0  2  0  0  0  0  0  0  0  0  0
   23.5864  -20.0100  -14.2742 N   0  0  0  0  0  0  0  0  0  0  0  0
   21.6183  -20.5219  -13.0401 C   0  0  0  0  0  0  0  0  0  0  0  0
   21.0560  -19.5139  -13.4996 O   0  0  0  0  0  0  0  0  0  0  0  0
   20.8469  -21.5279  -12.4872 O   0  0  0  0  0  0  0  0  0  0  0  0
  2  3  1  1
  2  1  1  0
  4  2  1  0
  5  4  1  0
  5  6  1  6
  7  9  1  0
  7  5  1  0
  8  7  2  0
 10  9  1  0
 10 11  1  6
 12 11  1  0
 13 12  2  0
 14 13  1  0
 15 14  1  0
 15 20  2  0
 16 15  1  0
 17 16  2  0
 17 18  1  0
 18 19  2  0
 19 20  1  0
 20 12  1  0
 21 10  1  0
 21 22  2  0
 23 24  1  0
 24 26  1  0
 25 24  2  0
 27 26  1  0
 28 29  1  0
 28 27  1  1
 29 21  1  0
 30 28  1  0
 31 30  2  0
 32 30  1  0
M  END
$$$$
