LWQ.pdb
     RDKit          3D

 32 33  0  0  1  0  0  0  0  0999 V2000
   28.2259  -21.4158  -15.7105 C   0  0  0  0  0  0  0  0  0  0  0  0
   27.9267  -19.9613  -15.5608 C   0  0  2  0  0  0  0  0  0  0  0  0
   28.9799  -19.3702  -14.6160 C   0  0  0  0  0  0  0  0  0  0  0  0
   26.6007  -19.6528  -14.9489 C   0  0  0  0  0  0  0  0  0  0  0  0
   25.4171  -20.2116  -15.6854 C   0  0  2  0  0  0  0  0  0  0  0  0
   25.3551  -19.8214  -17.0643 N   0  0  0  0  0  0  0  0  0  0  0  0
   24.1365  -19.9199  -14.9850 C   0  0  0  0  0  0  0  0  0  0  0  0
   24.1471  -19.0682  -14.0800 O   0  0  0  0  0  0  0  0  0  0  0  0
   22.9224  -20.5581  -15.2966 N   0  0  0  0  0  0  0  0  0  0  0  0
   21.6312  -20.1873  -14.6860 C   0  0  1  0  0  0  0  0  0  0  0  0
   20.8832  -19.4671  -15.7444 C   0  0  0  0  0  0  0  0  0  0  0  0
   21.2611  -18.0911  -16.0311 C   0  0  0  0  0  0  0  0  0  0  0  0
   22.2161  -17.6024  -16.8968 C   0  0  0  0  0  0  0  0  0  0  0  0
   22.2289  -16.2636  -16.8170 N   0  0  0  0  0  0  0  0  0  0  0  0
   21.3021  -15.8561  -15.9166 C   0  0  0  0  0  0  0  0  0  0  0  0
   20.9181  -14.5895  -15.4675 C   0  0  0  0  0  0  0  0  0  0  0  0
   19.9236  -14.4520  -14.5211 C   0  0  0  0  0  0  0  0  0  0  0  0
   19.3099  -15.5755  -14.0201 C   0  0  0  0  0  0  0  0  0  0  0  0
   19.6958  -16.8207  -14.4695 C   0  0  0  0  0  0  0  0  0  0  0  0
   20.7022  -16.9804  -15.4288 C   0  0  0  0  0  0  0  0  0  0  0  0
   20.9926  -21.3538  -14.0804 C   0  0  0  0  0  0  0  0  0  0  0  0
   21.1506  -22.4903  -14.6710 O   0  0  0  0  0  0  0  0  0  0  0  0
   17.9792  -24.2771   -9.5764 N   0  0  0  0  0  0  0  0  0  0  0  0
   17.2521  -23.0825   -9.8626 C   0  0  0  0  0  0  0  0  0  0  0  0
   16.0940  -23.0026   -9.4251 O   0  0  0  0  0  0  0  0  0  0  0  0
   17.9356  -22.0312  -10.6594 C   0  0  0  0  0  0  0  0  0  0  0  0
   19.3425  -22.4937  -10.9405 C   0  0  0  0  0  0  0  0  0  0  0  0
   19.6555  -22.5364  -12.4150 C   0  0  2  0  0  0  0  0  0  0  0  0
   20.2233  -21.2881  -12.8885 N   0  0  0  0  0  0  0  0  0  0  0  0
   18.3976  -22.7947  -13.1242 C   0  0  0  0  0  0  0  0  0  0  0  0
   17.9586  -23.9504  -13.2469 O   0  0  0  0  0  0  0  0  0  0  0  0
   17.6822  -21.7433  -13.6679 O   0  0  0  0  0  0  0  0  0  0  0  0
  2  3  1  1
  2  1  1  0
  4  2  1  0
  5  4  1  0
  5  6  1  6
  7  9  1  0
  7  5  1  0
  8  7  2  0
 10  9  1  0
 10 11  1  6
 12 11  1  0
 13 12  2  0
 14 13  1  0
 15 14  1  0
 15 20  2  0
 16 15  1  0
 17 16  2  0
 17 18  1  0
 18 19  2  0
 19 20  1  0
 20 12  1  0
 21 10  1  0
 21 22  2  0
 23 24  1  0
 24 26  1  0
 25 24  2  0
 27 26  1  0
 28 29  1  0
 28 27  1  1
 29 21  1  0
 30 28  1  0
 31 30  2  0
 32 30  1  0
M  END
$$$$
