LWQ.pdb
     RDKit          3D

 32 33  0  0  1  0  0  0  0  0999 V2000
   27.7841  -20.7292  -19.9160 C   0  0  0  0  0  0  0  0  0  0  0  0
   27.8802  -22.1252  -19.3970 C   0  0  2  0  0  0  0  0  0  0  0  0
   27.1560  -23.0373  -20.3944 C   0  0  0  0  0  0  0  0  0  0  0  0
   27.2230  -22.3506  -18.0760 C   0  0  0  0  0  0  0  0  0  0  0  0
   27.7086  -21.4624  -16.9665 C   0  0  2  0  0  0  0  0  0  0  0  0
   29.1261  -21.5202  -16.7556 N   0  0  0  0  0  0  0  0  0  0  0  0
   26.9653  -21.6979  -15.6985 C   0  0  0  0  0  0  0  0  0  0  0  0
   26.6918  -22.8706  -15.3914 O   0  0  0  0  0  0  0  0  0  0  0  0
   26.5603  -20.6628  -14.8365 N   0  0  0  0  0  0  0  0  0  0  0  0
   25.8756  -20.8993  -13.5509 C   0  0  1  0  0  0  0  0  0  0  0  0
   26.4236  -19.8870  -12.6164 C   0  0  0  0  0  0  0  0  0  0  0  0
   26.6204  -20.2758  -11.2277 C   0  0  0  0  0  0  0  0  0  0  0  0
   25.7551  -20.1898  -10.1582 C   0  0  0  0  0  0  0  0  0  0  0  0
   26.3746  -20.6501   -9.0612 N   0  0  0  0  0  0  0  0  0  0  0  0
   27.6321  -21.0390   -9.3827 C   0  0  0  0  0  0  0  0  0  0  0  0
   28.6738  -21.5799   -8.6239 C   0  0  0  0  0  0  0  0  0  0  0  0
   29.8817  -21.8929   -9.2126 C   0  0  0  0  0  0  0  0  0  0  0  0
   30.0545  -21.6678  -10.5577 C   0  0  0  0  0  0  0  0  0  0  0  0
   29.0207  -21.1337  -11.2977 C   0  0  0  0  0  0  0  0  0  0  0  0
   27.7885  -20.8099  -10.7187 C   0  0  0  0  0  0  0  0  0  0  0  0
   24.4266  -20.9347  -13.7365 C   0  0  0  0  0  0  0  0  0  0  0  0
   23.9211  -20.1344  -14.6137 O   0  0  0  0  0  0  0  0  0  0  0  0
   18.4112  -24.0868  -11.5270 N   0  0  0  0  0  0  0  0  0  0  0  0
   19.2822  -24.1012  -12.6579 C   0  0  0  0  0  0  0  0  0  0  0  0
   19.4536  -25.1884  -13.2302 O   0  0  0  0  0  0  0  0  0  0  0  0
   19.9139  -22.8181  -13.0605 C   0  0  0  0  0  0  0  0  0  0  0  0
   21.4036  -22.9464  -12.8690 C   0  0  0  0  0  0  0  0  0  0  0  0
   22.1531  -21.7131  -13.3064 C   0  0  2  0  0  0  0  0  0  0  0  0
   23.5699  -21.8009  -13.0068 N   0  0  0  0  0  0  0  0  0  0  0  0
   21.5773  -20.5709  -12.5882 C   0  0  0  0  0  0  0  0  0  0  0  0
   22.1185  -20.1207  -11.5646 O   0  0  0  0  0  0  0  0  0  0  0  0
   20.4154  -19.9791  -13.0493 O   0  0  0  0  0  0  0  0  0  0  0  0
  2  3  1  6
  2  1  1  0
  4  2  1  0
  5  4  1  0
  5  6  1  1
  7  9  1  0
  7  5  1  0
  8  7  2  0
 10  9  1  0
 10 11  1  1
 12 11  1  0
 13 12  2  0
 14 13  1  0
 15 14  1  0
 15 20  2  0
 16 15  1  0
 17 16  2  0
 17 18  1  0
 18 19  2  0
 19 20  1  0
 20 12  1  0
 21 10  1  0
 21 22  2  0
 23 24  1  0
 24 26  1  0
 25 24  2  0
 27 26  1  0
 28 29  1  0
 28 27  1  1
 29 21  1  0
 30 28  1  0
 31 30  2  0
 32 30  1  0
M  END
$$$$
