LWQ.pdb
     RDKit          3D

 32 33  0  0  1  0  0  0  0  0999 V2000
   28.8550  -19.4644  -16.7380 C   0  0  0  0  0  0  0  0  0  0  0  0
   27.8521  -18.9736  -15.7477 C   0  0  2  0  0  0  0  0  0  0  0  0
   27.8338  -17.4427  -15.8322 C   0  0  0  0  0  0  0  0  0  0  0  0
   28.1592  -19.3069  -14.3255 C   0  0  0  0  0  0  0  0  0  0  0  0
   28.1335  -20.7724  -13.9980 C   0  0  2  0  0  0  0  0  0  0  0  0
   27.7879  -21.6093  -15.1103 N   0  0  0  0  0  0  0  0  0  0  0  0
   27.2755  -21.0644  -12.8171 C   0  0  0  0  0  0  0  0  0  0  0  0
   26.1768  -21.6104  -13.0148 O   0  0  0  0  0  0  0  0  0  0  0  0
   27.6468  -20.7540  -11.4964 N   0  0  0  0  0  0  0  0  0  0  0  0
   26.7575  -20.9534  -10.3359 C   0  0  1  0  0  0  0  0  0  0  0  0
   27.5935  -20.6789   -9.1425 C   0  0  0  0  0  0  0  0  0  0  0  0
   26.9285  -20.5783   -7.8518 C   0  0  0  0  0  0  0  0  0  0  0  0
   25.6038  -20.7764   -7.5260 C   0  0  0  0  0  0  0  0  0  0  0  0
   25.4423  -20.5531   -6.2134 N   0  0  0  0  0  0  0  0  0  0  0  0
   26.6326  -20.2113   -5.6637 C   0  0  0  0  0  0  0  0  0  0  0  0
   27.0077  -19.8830   -4.3580 C   0  0  0  0  0  0  0  0  0  0  0  0
   28.3177  -19.5665   -4.0626 C   0  0  0  0  0  0  0  0  0  0  0  0
   29.2564  -19.5764   -5.0668 C   0  0  0  0  0  0  0  0  0  0  0  0
   28.8765  -19.9017   -6.3518 C   0  0  0  0  0  0  0  0  0  0  0  0
   27.5530  -20.2255   -6.6710 C   0  0  0  0  0  0  0  0  0  0  0  0
   25.5256  -20.1829  -10.4909 C   0  0  0  0  0  0  0  0  0  0  0  0
   25.6354  -18.9653  -10.9044 O   0  0  0  0  0  0  0  0  0  0  0  0
   23.2830  -21.8391  -14.8426 N   0  0  0  0  0  0  0  0  0  0  0  0
   22.1532  -20.9971  -14.6146 C   0  0  0  0  0  0  0  0  0  0  0  0
   21.3574  -20.8459  -15.5541 O   0  0  0  0  0  0  0  0  0  0  0  0
   22.0182  -20.3690  -13.2750 C   0  0  0  0  0  0  0  0  0  0  0  0
   23.1921  -20.7993  -12.4328 C   0  0  0  0  0  0  0  0  0  0  0  0
   23.1470  -20.2263  -11.0387 C   0  0  2  0  0  0  0  0  0  0  0  0
   24.2372  -20.7119  -10.2138 N   0  0  0  0  0  0  0  0  0  0  0  0
   21.8705  -20.6294  -10.4387 C   0  0  0  0  0  0  0  0  0  0  0  0
   20.7899  -20.2489  -10.9191 O   0  0  0  0  0  0  0  0  0  0  0  0
   21.8589  -21.4450   -9.3217 O   0  0  0  0  0  0  0  0  0  0  0  0
  2  3  1  1
  2  1  1  0
  4  2  1  0
  5  4  1  0
  5  6  1  6
  7  9  1  0
  7  5  1  0
  8  7  2  0
 10  9  1  0
 10 11  1  1
 12 11  1  0
 13 12  2  0
 14 13  1  0
 15 14  1  0
 15 20  2  0
 16 15  1  0
 17 16  2  0
 17 18  1  0
 18 19  2  0
 19 20  1  0
 20 12  1  0
 21 10  1  0
 21 22  2  0
 23 24  1  0
 24 26  1  0
 25 24  2  0
 27 26  1  0
 28 29  1  0
 28 27  1  6
 29 21  1  0
 30 28  1  0
 31 30  2  0
 32 30  1  0
M  END
$$$$
