WGN.pdb
     RDKit          3D

 27 28  0  0  1  0  0  0  0  0999 V2000
   25.6096  -21.2387  -10.8048 N   0  0  0  0  0  0  0  0  0  0  0  0
   26.7778  -20.3993  -10.6003 C   0  0  1  0  0  0  0  0  0  0  0  0
   27.6450  -20.9884   -9.5038 C   0  0  0  0  0  0  0  0  0  0  0  0
   27.0467  -20.6126   -8.1880 C   0  0  0  0  0  0  0  0  0  0  0  0
   25.7252  -20.6738   -7.8525 C   0  0  0  0  0  0  0  0  0  0  0  0
   25.5529  -20.2501   -6.5830 N   0  0  0  0  0  0  0  0  0  0  0  0
   26.7687  -19.9126   -6.0914 C   0  0  0  0  0  0  0  0  0  0  0  0
   27.2135  -19.4284   -4.8840 C   0  0  0  0  0  0  0  0  0  0  0  0
   28.5557  -19.1752   -4.6788 C   0  0  0  0  0  0  0  0  0  0  0  0
   29.4917  -19.4013   -5.6801 C   0  0  0  0  0  0  0  0  0  0  0  0
   29.0438  -19.8844   -6.8834 C   0  0  0  0  0  0  0  0  0  0  0  0
   27.7125  -20.1292   -7.0699 C   0  0  0  0  0  0  0  0  0  0  0  0
   27.6133  -20.3823  -11.8420 C   0  0  0  0  0  0  0  0  0  0  0  0
   28.7691  -19.8721  -11.8439 O   0  0  0  0  0  0  0  0  0  0  0  0
   27.0889  -20.9522  -13.0335 N   0  0  0  0  0  0  0  0  0  0  0  0
   26.2439  -20.2355  -13.9290 C   0  0  0  0  0  0  0  0  0  0  0  0
   24.9839  -20.9972  -14.2850 C   0  0  0  0  0  0  0  0  0  0  0  0
   24.6693  -21.0422  -15.5212 O   0  0  0  0  0  0  0  0  0  0  0  0
   20.1092  -21.8291  -10.5951 N   0  0  0  0  0  0  0  0  0  0  0  0
   20.7240  -22.1609  -11.8237 C   0  0  0  0  0  0  0  0  0  0  0  0
   20.0012  -22.4734  -12.8001 O   0  0  0  0  0  0  0  0  0  0  0  0
   22.1755  -22.1310  -11.9186 C   0  0  0  0  0  0  0  0  0  0  0  0
   22.7476  -21.5630  -13.1857 C   0  0  2  0  0  0  0  0  0  0  0  0
   24.1698  -21.6326  -13.3532 N   0  0  0  0  0  0  0  0  0  0  0  0
   22.2205  -20.2281  -13.4701 C   0  0  0  0  0  0  0  0  0  0  0  0
   22.6385  -19.0926  -12.7757 O   0  0  0  0  0  0  0  0  0  0  0  0
   21.3498  -20.0330  -14.3689 O   0  0  0  0  0  0  0  0  0  0  0  0
  2  1  1  6
  3  4  1  0
  3  2  1  0
  4  5  2  0
  5  6  1  0
  7  6  1  0
  8  7  2  0
  9  8  1  0
 10 11  1  0
 10  9  2  0
 11 12  2  0
 12  4  1  0
 12  7  1  0
 13  2  1  0
 13 15  1  0
 14 13  2  0
 16 15  1  0
 17 16  1  0
 18 17  2  0
 19 20  1  0
 20 21  2  0
 22 20  1  0
 23 24  1  0
 23 22  1  1
 24 17  1  0
 25 23  1  0
 26 25  1  0
 27 25  2  0
M  END
$$$$
