WGN.pdb
     RDKit          3D

 27 28  0  0  1  0  0  0  0  0999 V2000
   24.8865  -20.3417   -9.8231 N   0  0  0  0  0  0  0  0  0  0  0  0
   26.2911  -20.2865  -10.1906 C   0  0  1  0  0  0  0  0  0  0  0  0
   27.1011  -21.1550   -9.2467 C   0  0  0  0  0  0  0  0  0  0  0  0
   27.1059  -20.5004   -7.9043 C   0  0  0  0  0  0  0  0  0  0  0  0
   26.0167  -20.0335   -7.2274 C   0  0  0  0  0  0  0  0  0  0  0  0
   26.4014  -19.4998   -6.0493 N   0  0  0  0  0  0  0  0  0  0  0  0
   27.7471  -19.6212   -5.9604 C   0  0  0  0  0  0  0  0  0  0  0  0
   28.6806  -19.2702   -5.0140 C   0  0  0  0  0  0  0  0  0  0  0  0
   30.0211  -19.5350   -5.2159 C   0  0  0  0  0  0  0  0  0  0  0  0
   30.4643  -20.1607   -6.3743 C   0  0  0  0  0  0  0  0  0  0  0  0
   29.5297  -20.5092   -7.3161 C   0  0  0  0  0  0  0  0  0  0  0  0
   28.2075  -20.2398   -7.1008 C   0  0  0  0  0  0  0  0  0  0  0  0
   26.4790  -20.8565  -11.5617 C   0  0  0  0  0  0  0  0  0  0  0  0
   25.5659  -21.5279  -12.1202 O   0  0  0  0  0  0  0  0  0  0  0  0
   27.7084  -20.6331  -12.2385 N   0  0  0  0  0  0  0  0  0  0  0  0
   27.7804  -20.1303  -13.5695 C   0  0  0  0  0  0  0  0  0  0  0  0
   26.7063  -20.7008  -14.4724 C   0  0  0  0  0  0  0  0  0  0  0  0
   26.9763  -20.7633  -15.7185 O   0  0  0  0  0  0  0  0  0  0  0  0
   24.5256  -25.4168  -15.1790 N   0  0  0  0  0  0  0  0  0  0  0  0
   24.9644  -24.1186  -14.8329 C   0  0  0  0  0  0  0  0  0  0  0  0
   26.1948  -23.8745  -14.8268 O   0  0  0  0  0  0  0  0  0  0  0  0
   23.9768  -23.1057  -14.4933 C   0  0  0  0  0  0  0  0  0  0  0  0
   24.3647  -21.6807  -14.7660 C   0  0  2  0  0  0  0  0  0  0  0  0
   25.4680  -21.1465  -14.0224 N   0  0  0  0  0  0  0  0  0  0  0  0
   23.2045  -20.7894  -14.7540 C   0  0  0  0  0  0  0  0  0  0  0  0
   23.1436  -19.6475  -13.9549 O   0  0  0  0  0  0  0  0  0  0  0  0
   22.1867  -21.0107  -15.4745 O   0  0  0  0  0  0  0  0  0  0  0  0
  2  1  1  1
  3  4  1  0
  3  2  1  0
  4  5  2  0
  5  6  1  0
  7  6  1  0
  8  7  2  0
  9  8  1  0
 10 11  1  0
 10  9  2  0
 11 12  2  0
 12  4  1  0
 12  7  1  0
 13  2  1  0
 13 15  1  0
 14 13  2  0
 16 15  1  0
 17 16  1  0
 18 17  2  0
 19 20  1  0
 20 21  2  0
 22 20  1  0
 23 24  1  0
 23 22  1  1
 24 17  1  0
 25 23  1  0
 26 25  1  0
 27 25  2  0
M  END
$$$$
