WGN.pdb
     RDKit          3D

 27 28  0  0  1  0  0  0  0  0999 V2000
   24.8155  -20.3562  -10.4985 N   0  0  0  0  0  0  0  0  0  0  0  0
   26.2506  -20.1339  -10.4528 C   0  0  1  0  0  0  0  0  0  0  0  0
   26.9139  -21.2388   -9.6524 C   0  0  0  0  0  0  0  0  0  0  0  0
   26.6229  -21.0021   -8.2069 C   0  0  0  0  0  0  0  0  0  0  0  0
   25.4155  -21.1533   -7.5888 C   0  0  0  0  0  0  0  0  0  0  0  0
   25.5271  -20.8451   -6.2798 N   0  0  0  0  0  0  0  0  0  0  0  0
   26.8135  -20.4926   -6.0465 C   0  0  0  0  0  0  0  0  0  0  0  0
   27.5098  -20.0899   -4.9315 C   0  0  0  0  0  0  0  0  0  0  0  0
   28.8559  -19.7917   -5.0121 C   0  0  0  0  0  0  0  0  0  0  0  0
   29.5436  -19.8894   -6.2153 C   0  0  0  0  0  0  0  0  0  0  0  0
   28.8453  -20.2914   -7.3256 C   0  0  0  0  0  0  0  0  0  0  0  0
   27.5137  -20.5825   -7.2283 C   0  0  0  0  0  0  0  0  0  0  0  0
   26.8193  -20.2083  -11.8353 C   0  0  0  0  0  0  0  0  0  0  0  0
   26.3864  -21.0476  -12.6747 O   0  0  0  0  0  0  0  0  0  0  0  0
   27.8631  -19.3157  -12.2002 N   0  0  0  0  0  0  0  0  0  0  0  0
   27.9008  -18.6376  -13.4526 C   0  0  0  0  0  0  0  0  0  0  0  0
   27.7741  -19.5773  -14.6339 C   0  0  0  0  0  0  0  0  0  0  0  0
   26.7721  -19.3999  -15.4045 O   0  0  0  0  0  0  0  0  0  0  0  0
   30.9088  -23.8028  -17.7298 N   0  0  0  0  0  0  0  0  0  0  0  0
   29.6842  -23.5799  -17.0603 C   0  0  0  0  0  0  0  0  0  0  0  0
   28.6534  -24.1678  -17.4670 O   0  0  0  0  0  0  0  0  0  0  0  0
   29.6558  -22.6754  -15.9211 C   0  0  0  0  0  0  0  0  0  0  0  0
   28.6890  -21.5294  -16.0057 C   0  0  2  0  0  0  0  0  0  0  0  0
   28.6725  -20.6020  -14.9125 N   0  0  0  0  0  0  0  0  0  0  0  0
   27.3454  -21.9772  -16.3731 C   0  0  0  0  0  0  0  0  0  0  0  0
   26.4736  -22.5657  -15.4567 O   0  0  0  0  0  0  0  0  0  0  0  0
   26.9008  -21.8527  -17.5525 O   0  0  0  0  0  0  0  0  0  0  0  0
  2  1  1  6
  3  4  1  0
  3  2  1  0
  4  5  2  0
  5  6  1  0
  7  6  1  0
  8  7  2  0
  9  8  1  0
 10 11  1  0
 10  9  2  0
 11 12  2  0
 12  4  1  0
 12  7  1  0
 13  2  1  0
 13 15  1  0
 14 13  2  0
 16 15  1  0
 17 16  1  0
 18 17  2  0
 19 20  1  0
 20 21  2  0
 22 20  1  0
 23 24  1  0
 23 22  1  1
 24 17  1  0
 25 23  1  0
 26 25  1  0
 27 25  2  0
M  END
$$$$
