WGN.pdb
     RDKit          3D

 27 28  0  0  1  0  0  0  0  0999 V2000
   27.6006  -21.9714  -10.4848 N   0  0  0  0  0  0  0  0  0  0  0  0
   26.5864  -21.1192   -9.8880 C   0  0  1  0  0  0  0  0  0  0  0  0
   27.2432  -19.9010   -9.2666 C   0  0  0  0  0  0  0  0  0  0  0  0
   28.2554  -20.3751   -8.2762 C   0  0  0  0  0  0  0  0  0  0  0  0
   29.3393  -21.1616   -8.5397 C   0  0  0  0  0  0  0  0  0  0  0  0
   30.0268  -21.3934   -7.4019 N   0  0  0  0  0  0  0  0  0  0  0  0
   29.3866  -20.7537   -6.3947 C   0  0  0  0  0  0  0  0  0  0  0  0
   29.6108  -20.6271   -5.0442 C   0  0  0  0  0  0  0  0  0  0  0  0
   28.7539  -19.8850   -4.2551 C   0  0  0  0  0  0  0  0  0  0  0  0
   27.6461  -19.2471   -4.7990 C   0  0  0  0  0  0  0  0  0  0  0  0
   27.4258  -19.3759   -6.1469 C   0  0  0  0  0  0  0  0  0  0  0  0
   28.2833  -20.1140   -6.9131 C   0  0  0  0  0  0  0  0  0  0  0  0
   25.6626  -20.6106  -10.9500 C   0  0  0  0  0  0  0  0  0  0  0  0
   26.0857  -20.3448  -12.1105 O   0  0  0  0  0  0  0  0  0  0  0  0
   24.2884  -20.4273  -10.6382 N   0  0  0  0  0  0  0  0  0  0  0  0
   23.3406  -19.9261  -11.5764 C   0  0  0  0  0  0  0  0  0  0  0  0
   22.2832  -20.9459  -11.9458 C   0  0  0  0  0  0  0  0  0  0  0  0
   22.5941  -22.1752  -11.7989 O   0  0  0  0  0  0  0  0  0  0  0  0
   18.0083  -24.1028  -12.2771 N   0  0  0  0  0  0  0  0  0  0  0  0
   17.8449  -22.7028  -12.1728 C   0  0  0  0  0  0  0  0  0  0  0  0
   16.7313  -22.1983  -12.4537 O   0  0  0  0  0  0  0  0  0  0  0  0
   18.9723  -21.8894  -11.7440 C   0  0  0  0  0  0  0  0  0  0  0  0
   19.9397  -21.4758  -12.8157 C   0  0  2  0  0  0  0  0  0  0  0  0
   21.0209  -20.6174  -12.4287 N   0  0  0  0  0  0  0  0  0  0  0  0
   19.2513  -20.9947  -14.0137 C   0  0  0  0  0  0  0  0  0  0  0  0
   19.0866  -19.6374  -14.2905 O   0  0  0  0  0  0  0  0  0  0  0  0
   18.7651  -21.7928  -14.8685 O   0  0  0  0  0  0  0  0  0  0  0  0
  2  1  1  6
  3  4  1  0
  3  2  1  0
  4  5  2  0
  5  6  1  0
  7  6  1  0
  8  7  2  0
  9  8  1  0
 10 11  1  0
 10  9  2  0
 11 12  2  0
 12  4  1  0
 12  7  1  0
 13  2  1  0
 13 15  1  0
 14 13  2  0
 16 15  1  0
 17 16  1  0
 18 17  2  0
 19 20  1  0
 20 21  2  0
 22 20  1  0
 23 24  1  0
 23 22  1  1
 24 17  1  0
 25 23  1  0
 26 25  1  0
 27 25  2  0
M  END
$$$$
