WGN.pdb
     RDKit          3D

 27 28  0  0  1  0  0  0  0  0999 V2000
   25.8463  -21.3203   -8.2193 N   0  0  0  0  0  0  0  0  0  0  0  0
   26.1473  -20.1426   -9.0152 C   0  0  1  0  0  0  0  0  0  0  0  0
   27.5975  -20.1822   -9.4587 C   0  0  0  0  0  0  0  0  0  0  0  0
   28.4382  -20.4981   -8.2656 C   0  0  0  0  0  0  0  0  0  0  0  0
   29.4477  -21.4146   -8.2063 C   0  0  0  0  0  0  0  0  0  0  0  0
   29.9796  -21.4335   -6.9663 N   0  0  0  0  0  0  0  0  0  0  0  0
   29.3126  -20.5243   -6.2167 C   0  0  0  0  0  0  0  0  0  0  0  0
   29.4047  -20.1066   -4.9101 C   0  0  0  0  0  0  0  0  0  0  0  0
   28.5584  -19.1302   -4.4221 C   0  0  0  0  0  0  0  0  0  0  0  0
   27.5943  -18.5435   -5.2321 C   0  0  0  0  0  0  0  0  0  0  0  0
   27.5055  -18.9630   -6.5352 C   0  0  0  0  0  0  0  0  0  0  0  0
   28.3504  -19.9302   -7.0018 C   0  0  0  0  0  0  0  0  0  0  0  0
   25.3195  -20.1484  -10.2622 C   0  0  0  0  0  0  0  0  0  0  0  0
   25.6437  -19.4501  -11.2640 O   0  0  0  0  0  0  0  0  0  0  0  0
   24.1515  -20.9564  -10.3104 N   0  0  0  0  0  0  0  0  0  0  0  0
   22.8529  -20.4276  -10.5623 C   0  0  0  0  0  0  0  0  0  0  0  0
   22.5202  -20.3641  -12.0387 C   0  0  0  0  0  0  0  0  0  0  0  0
   21.4064  -19.8263  -12.3544 O   0  0  0  0  0  0  0  0  0  0  0  0
   26.7782  -21.0722  -14.5717 N   0  0  0  0  0  0  0  0  0  0  0  0
   25.5185  -21.7023  -14.6883 C   0  0  0  0  0  0  0  0  0  0  0  0
   25.3816  -22.8719  -14.2560 O   0  0  0  0  0  0  0  0  0  0  0  0
   24.4196  -20.9765  -15.3065 C   0  0  0  0  0  0  0  0  0  0  0  0
   23.1873  -20.7942  -14.4676 C   0  0  2  0  0  0  0  0  0  0  0  0
   23.3473  -20.8539  -13.0441 N   0  0  0  0  0  0  0  0  0  0  0  0
   22.0814  -21.6294  -14.9368 C   0  0  0  0  0  0  0  0  0  0  0  0
   21.6184  -22.7333  -14.2205 O   0  0  0  0  0  0  0  0  0  0  0  0
   21.4825  -21.3911  -16.0270 O   0  0  0  0  0  0  0  0  0  0  0  0
  2  1  1  1
  3  4  1  0
  3  2  1  0
  4  5  2  0
  5  6  1  0
  7  6  1  0
  8  7  2  0
  9  8  1  0
 10 11  1  0
 10  9  2  0
 11 12  2  0
 12  4  1  0
 12  7  1  0
 13  2  1  0
 13 15  1  0
 14 13  2  0
 16 15  1  0
 17 16  1  0
 18 17  2  0
 19 20  1  0
 20 21  2  0
 22 20  1  0
 23 24  1  0
 23 22  1  6
 24 17  1  0
 25 23  1  0
 26 25  1  0
 27 25  2  0
M  END
$$$$
