WGN.pdb
     RDKit          3D

 27 28  0  0  1  0  0  0  0  0999 V2000
   23.5966  -18.9904  -15.9078 N   0  0  0  0  0  0  0  0  0  0  0  0
   22.2645  -19.4046  -15.5016 C   0  0  1  0  0  0  0  0  0  0  0  0
   21.2339  -18.8012  -16.4371 C   0  0  0  0  0  0  0  0  0  0  0  0
   21.2142  -17.3247  -16.2140 C   0  0  0  0  0  0  0  0  0  0  0  0
   21.8034  -16.3790  -17.0021 C   0  0  0  0  0  0  0  0  0  0  0  0
   21.5829  -15.1504  -16.4893 N   0  0  0  0  0  0  0  0  0  0  0  0
   20.8462  -15.2990  -15.3628 C   0  0  0  0  0  0  0  0  0  0  0  0
   20.3266  -14.4271  -14.4355 C   0  0  0  0  0  0  0  0  0  0  0  0
   19.5949  -14.8956  -13.3618 C   0  0  0  0  0  0  0  0  0  0  0  0
   19.3626  -16.2541  -13.1875 C   0  0  0  0  0  0  0  0  0  0  0  0
   19.8827  -17.1208  -14.1149 C   0  0  0  0  0  0  0  0  0  0  0  0
   20.6046  -16.6407  -15.1711 C   0  0  0  0  0  0  0  0  0  0  0  0
   22.1357  -20.8905  -15.6263 C   0  0  0  0  0  0  0  0  0  0  0  0
   22.5040  -21.4918  -16.6747 O   0  0  0  0  0  0  0  0  0  0  0  0
   21.5891  -21.6284  -14.5418 N   0  0  0  0  0  0  0  0  0  0  0  0
   21.4433  -23.0454  -14.5636 C   0  0  0  0  0  0  0  0  0  0  0  0
   20.9912  -23.6104  -13.2328 C   0  0  0  0  0  0  0  0  0  0  0  0
   21.8375  -23.5790  -12.2777 O   0  0  0  0  0  0  0  0  0  0  0  0
   19.3477  -25.5490   -8.6357 N   0  0  0  0  0  0  0  0  0  0  0  0
   18.7316  -24.4951   -9.3481 C   0  0  0  0  0  0  0  0  0  0  0  0
   17.6313  -24.0493   -8.9428 O   0  0  0  0  0  0  0  0  0  0  0  0
   19.3908  -23.9603  -10.5296 C   0  0  0  0  0  0  0  0  0  0  0  0
   19.1828  -24.7196  -11.8084 C   0  0  2  0  0  0  0  0  0  0  0  0
   19.7304  -24.1521  -13.0058 N   0  0  0  0  0  0  0  0  0  0  0  0
   17.7886  -25.1301  -11.9767 C   0  0  0  0  0  0  0  0  0  0  0  0
   16.8712  -24.3850  -12.7179 O   0  0  0  0  0  0  0  0  0  0  0  0
   17.3388  -26.1921  -11.4533 O   0  0  0  0  0  0  0  0  0  0  0  0
  2  1  1  6
  3  4  1  0
  3  2  1  0
  4  5  2  0
  5  6  1  0
  7  6  1  0
  8  7  2  0
  9  8  1  0
 10 11  1  0
 10  9  2  0
 11 12  2  0
 12  4  1  0
 12  7  1  0
 13  2  1  0
 13 15  1  0
 14 13  2  0
 16 15  1  0
 17 16  1  0
 18 17  2  0
 19 20  1  0
 20 21  2  0
 22 20  1  0
 23 24  1  0
 23 22  1  1
 24 17  1  0
 25 23  1  0
 26 25  1  0
 27 25  2  0
M  END
$$$$
