WGN.pdb
     RDKit          3D

 27 28  0  0  1  0  0  0  0  0999 V2000
   28.3954  -21.6536  -12.8110 N   0  0  0  0  0  0  0  0  0  0  0  0
   27.3025  -21.1534  -11.9946 C   0  0  1  0  0  0  0  0  0  0  0  0
   27.8116  -20.0627  -11.0713 C   0  0  0  0  0  0  0  0  0  0  0  0
   28.8288  -20.6655  -10.1591 C   0  0  0  0  0  0  0  0  0  0  0  0
   29.9692  -21.3147  -10.5344 C   0  0  0  0  0  0  0  0  0  0  0  0
   30.6427  -21.7303   -9.4414 N   0  0  0  0  0  0  0  0  0  0  0  0
   29.9365  -21.3487   -8.3509 C   0  0  0  0  0  0  0  0  0  0  0  0
   30.1184  -21.4856   -6.9951 C   0  0  0  0  0  0  0  0  0  0  0  0
   29.1945  -20.9728   -6.1058 C   0  0  0  0  0  0  0  0  0  0  0  0
   28.0600  -20.3063   -6.5515 C   0  0  0  0  0  0  0  0  0  0  0  0
   27.8820  -20.1719   -7.9051 C   0  0  0  0  0  0  0  0  0  0  0  0
   28.8057  -20.6855   -8.7712 C   0  0  0  0  0  0  0  0  0  0  0  0
   26.2646  -20.5222  -12.8689 C   0  0  0  0  0  0  0  0  0  0  0  0
   26.5223  -19.4856  -13.5438 O   0  0  0  0  0  0  0  0  0  0  0  0
   24.9707  -21.1062  -12.9344 N   0  0  0  0  0  0  0  0  0  0  0  0
   23.9038  -20.5438  -13.6927 C   0  0  0  0  0  0  0  0  0  0  0  0
   22.6193  -21.3386  -13.5794 C   0  0  0  0  0  0  0  0  0  0  0  0
   22.7076  -22.6008  -13.7482 O   0  0  0  0  0  0  0  0  0  0  0  0
   20.3139  -19.4533  -10.4824 N   0  0  0  0  0  0  0  0  0  0  0  0
   19.8049  -20.7317  -10.8050 C   0  0  0  0  0  0  0  0  0  0  0  0
   19.9020  -21.6552   -9.9616 O   0  0  0  0  0  0  0  0  0  0  0  0
   19.1849  -20.9383  -12.1048 C   0  0  0  0  0  0  0  0  0  0  0  0
   20.0919  -21.4024  -13.2082 C   0  0  2  0  0  0  0  0  0  0  0  0
   21.3768  -20.7745  -13.3100 N   0  0  0  0  0  0  0  0  0  0  0  0
   19.3984  -21.4578  -14.4953 C   0  0  0  0  0  0  0  0  0  0  0  0
   19.8319  -20.7439  -15.6127 O   0  0  0  0  0  0  0  0  0  0  0  0
   18.3596  -22.1628  -14.6627 O   0  0  0  0  0  0  0  0  0  0  0  0
  2  1  1  6
  3  4  1  0
  3  2  1  0
  4  5  2  0
  5  6  1  0
  7  6  1  0
  8  7  2  0
  9  8  1  0
 10 11  1  0
 10  9  2  0
 11 12  2  0
 12  4  1  0
 12  7  1  0
 13  2  1  0
 13 15  1  0
 14 13  2  0
 16 15  1  0
 17 16  1  0
 18 17  2  0
 19 20  1  0
 20 21  2  0
 22 20  1  0
 23 24  1  0
 23 22  1  1
 24 17  1  0
 25 23  1  0
 26 25  1  0
 27 25  2  0
M  END
$$$$
