WGN.pdb
     RDKit          3D

 27 28  0  0  1  0  0  0  0  0999 V2000
   26.2408  -21.9855  -10.1533 N   0  0  0  0  0  0  0  0  0  0  0  0
   26.6834  -20.6738  -10.5946 C   0  0  1  0  0  0  0  0  0  0  0  0
   27.6924  -20.1162   -9.6085 C   0  0  0  0  0  0  0  0  0  0  0  0
   27.0907  -20.1819   -8.2432 C   0  0  0  0  0  0  0  0  0  0  0  0
   25.7808  -20.4243   -7.9466 C   0  0  0  0  0  0  0  0  0  0  0  0
   25.6005  -20.4032   -6.6094 N   0  0  0  0  0  0  0  0  0  0  0  0
   26.7994  -20.1463   -6.0348 C   0  0  0  0  0  0  0  0  0  0  0  0
   27.2301  -20.0092   -4.7364 C   0  0  0  0  0  0  0  0  0  0  0  0
   28.5564  -19.7406   -4.4597 C   0  0  0  0  0  0  0  0  0  0  0  0
   29.4902  -19.6022   -5.4789 C   0  0  0  0  0  0  0  0  0  0  0  0
   29.0564  -19.7397   -6.7731 C   0  0  0  0  0  0  0  0  0  0  0  0
   27.7407  -20.0051   -7.0294 C   0  0  0  0  0  0  0  0  0  0  0  0
   27.3915  -20.7931  -11.9078 C   0  0  0  0  0  0  0  0  0  0  0  0
   28.5510  -21.2895  -11.9814 O   0  0  0  0  0  0  0  0  0  0  0  0
   26.7401  -20.3378  -13.0859 N   0  0  0  0  0  0  0  0  0  0  0  0
   25.7016  -19.3626  -13.0700 C   0  0  0  0  0  0  0  0  0  0  0  0
   24.3670  -19.9176  -13.5232 C   0  0  0  0  0  0  0  0  0  0  0  0
   24.2060  -20.0732  -14.7799 O   0  0  0  0  0  0  0  0  0  0  0  0
   19.0822  -21.6040  -11.2829 N   0  0  0  0  0  0  0  0  0  0  0  0
   20.3300  -20.9420  -11.2327 C   0  0  0  0  0  0  0  0  0  0  0  0
   20.3700  -19.7492  -10.8464 O   0  0  0  0  0  0  0  0  0  0  0  0
   21.5292  -21.6629  -11.6312 C   0  0  0  0  0  0  0  0  0  0  0  0
   22.2335  -21.1561  -12.8570 C   0  0  2  0  0  0  0  0  0  0  0  0
   23.3311  -20.2553  -12.6586 N   0  0  0  0  0  0  0  0  0  0  0  0
   21.2904  -20.6677  -13.8633 C   0  0  0  0  0  0  0  0  0  0  0  0
   20.5181  -21.5254  -14.6469 O   0  0  0  0  0  0  0  0  0  0  0  0
   21.1253  -19.4303  -14.0769 O   0  0  0  0  0  0  0  0  0  0  0  0
  2  1  1  1
  3  4  1  0
  3  2  1  0
  4  5  2  0
  5  6  1  0
  7  6  1  0
  8  7  2  0
  9  8  1  0
 10 11  1  0
 10  9  2  0
 11 12  2  0
 12  4  1  0
 12  7  1  0
 13  2  1  0
 13 15  1  0
 14 13  2  0
 16 15  1  0
 17 16  1  0
 18 17  2  0
 19 20  1  0
 20 21  2  0
 22 20  1  0
 23 24  1  0
 23 22  1  1
 24 17  1  0
 25 23  1  0
 26 25  1  0
 27 25  2  0
M  END
$$$$
