WGN.pdb
     RDKit          3D

 27 28  0  0  1  0  0  0  0  0999 V2000
   25.9182  -19.5582  -11.9882 N   0  0  0  0  0  0  0  0  0  0  0  0
   27.1191  -20.3761  -12.0000 C   0  0  1  0  0  0  0  0  0  0  0  0
   26.9684  -21.5196  -11.0146 C   0  0  0  0  0  0  0  0  0  0  0  0
   26.6331  -20.9398   -9.6799 C   0  0  0  0  0  0  0  0  0  0  0  0
   25.3985  -20.5387   -9.2585 C   0  0  0  0  0  0  0  0  0  0  0  0
   25.4752  -20.0606   -7.9989 N   0  0  0  0  0  0  0  0  0  0  0  0
   26.7660  -20.1523   -7.6001 C   0  0  0  0  0  0  0  0  0  0  0  0
   27.4372  -19.8301   -6.4443 C   0  0  0  0  0  0  0  0  0  0  0  0
   28.7966  -20.0490   -6.3357 C   0  0  0  0  0  0  0  0  0  0  0  0
   29.5228  -20.5988   -7.3846 C   0  0  0  0  0  0  0  0  0  0  0  0
   28.8495  -20.9189   -8.5362 C   0  0  0  0  0  0  0  0  0  0  0  0
   27.5045  -20.6955   -8.6271 C   0  0  0  0  0  0  0  0  0  0  0  0
   27.2962  -20.9970  -13.3502 C   0  0  0  0  0  0  0  0  0  0  0  0
   27.2798  -22.2515  -13.4989 O   0  0  0  0  0  0  0  0  0  0  0  0
   27.4852  -20.1527  -14.4777 N   0  0  0  0  0  0  0  0  0  0  0  0
   27.4430  -20.6300  -15.8193 C   0  0  0  0  0  0  0  0  0  0  0  0
   26.0304  -20.8344  -16.3265 C   0  0  0  0  0  0  0  0  0  0  0  0
   25.8973  -21.0878  -17.5705 O   0  0  0  0  0  0  0  0  0  0  0  0
   23.6748  -23.6636  -13.8391 N   0  0  0  0  0  0  0  0  0  0  0  0
   22.8823  -23.1323  -14.8818 C   0  0  0  0  0  0  0  0  0  0  0  0
   22.4011  -23.9130  -15.7377 O   0  0  0  0  0  0  0  0  0  0  0  0
   22.6494  -21.6971  -14.9317 C   0  0  0  0  0  0  0  0  0  0  0  0
   23.5164  -20.9150  -15.8763 C   0  0  2  0  0  0  0  0  0  0  0  0
   24.8972  -20.7584  -15.5236 N   0  0  0  0  0  0  0  0  0  0  0  0
   22.8954  -19.6475  -16.2617 C   0  0  0  0  0  0  0  0  0  0  0  0
   22.2068  -19.4840  -17.4638 O   0  0  0  0  0  0  0  0  0  0  0  0
   22.9517  -18.6244  -15.5172 O   0  0  0  0  0  0  0  0  0  0  0  0
  2  1  1  6
  3  4  1  0
  3  2  1  0
  4  5  2  0
  5  6  1  0
  7  6  1  0
  8  7  2  0
  9  8  1  0
 10 11  1  0
 10  9  2  0
 11 12  2  0
 12  4  1  0
 12  7  1  0
 13  2  1  0
 13 15  1  0
 14 13  2  0
 16 15  1  0
 17 16  1  0
 18 17  2  0
 19 20  1  0
 20 21  2  0
 22 20  1  0
 23 24  1  0
 23 22  1  1
 24 17  1  0
 25 23  1  0
 26 25  1  0
 27 25  2  0
M  END
$$$$
