WGN.pdb
     RDKit          3D

 27 28  0  0  1  0  0  0  0  0999 V2000
   26.7465  -22.2721  -13.0685 N   0  0  0  0  0  0  0  0  0  0  0  0
   25.7951  -21.3302  -12.5039 C   0  0  1  0  0  0  0  0  0  0  0  0
   26.5077  -20.0428  -12.1349 C   0  0  0  0  0  0  0  0  0  0  0  0
   27.5565  -20.3678  -11.1226 C   0  0  0  0  0  0  0  0  0  0  0  0
   28.8551  -20.6993  -11.3802 C   0  0  0  0  0  0  0  0  0  0  0  0
   29.5084  -20.9328  -10.2228 N   0  0  0  0  0  0  0  0  0  0  0  0
   28.6299  -20.7515   -9.2085 C   0  0  0  0  0  0  0  0  0  0  0  0
   28.7143  -20.8436   -7.8394 C   0  0  0  0  0  0  0  0  0  0  0  0
   27.6113  -20.5905   -7.0477 C   0  0  0  0  0  0  0  0  0  0  0  0
   26.3900  -20.2366   -7.6074 C   0  0  0  0  0  0  0  0  0  0  0  0
   26.3098  -20.1459   -8.9739 C   0  0  0  0  0  0  0  0  0  0  0  0
   27.4107  -20.3998   -9.7425 C   0  0  0  0  0  0  0  0  0  0  0  0
   24.7681  -20.9699  -13.5313 C   0  0  0  0  0  0  0  0  0  0  0  0
   25.0640  -20.2472  -14.5245 O   0  0  0  0  0  0  0  0  0  0  0  0
   23.4407  -21.4539  -13.3782 N   0  0  0  0  0  0  0  0  0  0  0  0
   22.3743  -21.0797  -14.2456 C   0  0  0  0  0  0  0  0  0  0  0  0
   21.0320  -21.6154  -13.7918 C   0  0  0  0  0  0  0  0  0  0  0  0
   20.0111  -21.2560  -14.4686 O   0  0  0  0  0  0  0  0  0  0  0  0
   18.7976  -24.4542   -8.9332 N   0  0  0  0  0  0  0  0  0  0  0  0
   18.7664  -23.2162   -9.6143 C   0  0  0  0  0  0  0  0  0  0  0  0
   17.7419  -22.4981   -9.5233 O   0  0  0  0  0  0  0  0  0  0  0  0
   19.9219  -22.8127  -10.4007 C   0  0  0  0  0  0  0  0  0  0  0  0
   19.7016  -22.6643  -11.8788 C   0  0  2  0  0  0  0  0  0  0  0  0
   20.8600  -22.4571  -12.6980 N   0  0  0  0  0  0  0  0  0  0  0  0
   18.6341  -21.7091  -12.1765 C   0  0  0  0  0  0  0  0  0  0  0  0
   17.3716  -22.1076  -12.6163 O   0  0  0  0  0  0  0  0  0  0  0  0
   18.8027  -20.4603  -12.0493 O   0  0  0  0  0  0  0  0  0  0  0  0
  2  1  1  6
  3  4  1  0
  3  2  1  0
  4  5  2  0
  5  6  1  0
  7  6  1  0
  8  7  2  0
  9  8  1  0
 10 11  1  0
 10  9  2  0
 11 12  2  0
 12  4  1  0
 12  7  1  0
 13  2  1  0
 13 15  1  0
 14 13  2  0
 16 15  1  0
 17 16  1  0
 18 17  2  0
 19 20  1  0
 20 21  2  0
 22 20  1  0
 23 24  1  0
 23 22  1  1
 24 17  1  0
 25 23  1  0
 26 25  1  0
 27 25  2  0
M  END
$$$$
