WGN.pdb
     RDKit          3D

 27 28  0  0  1  0  0  0  0  0999 V2000
   25.2980  -20.1926   -9.6850 N   0  0  0  0  0  0  0  0  0  0  0  0
   26.7209  -20.2372   -9.9756 C   0  0  1  0  0  0  0  0  0  0  0  0
   27.4309  -21.0729   -8.9273 C   0  0  0  0  0  0  0  0  0  0  0  0
   27.3903  -20.3264   -7.6344 C   0  0  0  0  0  0  0  0  0  0  0  0
   26.4042  -19.4789   -7.2196 C   0  0  0  0  0  0  0  0  0  0  0  0
   26.7074  -18.9812   -6.0025 N   0  0  0  0  0  0  0  0  0  0  0  0
   27.8960  -19.5086   -5.6248 C   0  0  0  0  0  0  0  0  0  0  0  0
   28.6921  -19.3779   -4.5115 C   0  0  0  0  0  0  0  0  0  0  0  0
   29.8851  -20.0671   -4.4147 C   0  0  0  0  0  0  0  0  0  0  0  0
   30.3142  -20.9090   -5.4331 C   0  0  0  0  0  0  0  0  0  0  0  0
   29.5171  -21.0367   -6.5422 C   0  0  0  0  0  0  0  0  0  0  0  0
   28.3400  -20.3474   -6.6221 C   0  0  0  0  0  0  0  0  0  0  0  0
   26.9489  -20.9172  -11.2893 C   0  0  0  0  0  0  0  0  0  0  0  0
   26.8854  -22.1748  -11.3929 O   0  0  0  0  0  0  0  0  0  0  0  0
   27.2408  -20.1263  -12.4333 N   0  0  0  0  0  0  0  0  0  0  0  0
   27.1598  -20.6283  -13.7641 C   0  0  0  0  0  0  0  0  0  0  0  0
   25.7339  -20.8660  -14.2168 C   0  0  0  0  0  0  0  0  0  0  0  0
   25.5441  -20.9993  -15.4721 O   0  0  0  0  0  0  0  0  0  0  0  0
   20.4554  -23.0370  -13.2111 N   0  0  0  0  0  0  0  0  0  0  0  0
   20.9665  -21.7739  -12.8358 C   0  0  0  0  0  0  0  0  0  0  0  0
   20.1836  -20.7958  -12.7731 O   0  0  0  0  0  0  0  0  0  0  0  0
   22.3840  -21.6459  -12.5347 C   0  0  0  0  0  0  0  0  0  0  0  0
   23.2584  -21.1475  -13.6493 C   0  0  2  0  0  0  0  0  0  0  0  0
   24.6460  -20.9413  -13.3534 N   0  0  0  0  0  0  0  0  0  0  0  0
   22.6622  -20.0024  -14.3378 C   0  0  0  0  0  0  0  0  0  0  0  0
   21.8059  -20.1457  -15.4297 O   0  0  0  0  0  0  0  0  0  0  0  0
   22.8951  -18.8115  -13.9748 O   0  0  0  0  0  0  0  0  0  0  0  0
  2  1  1  1
  3  4  1  0
  3  2  1  0
  4  5  2  0
  5  6  1  0
  7  6  1  0
  8  7  2  0
  9  8  1  0
 10 11  1  0
 10  9  2  0
 11 12  2  0
 12  4  1  0
 12  7  1  0
 13  2  1  0
 13 15  1  0
 14 13  2  0
 16 15  1  0
 17 16  1  0
 18 17  2  0
 19 20  1  0
 20 21  2  0
 22 20  1  0
 23 24  1  0
 23 22  1  1
 24 17  1  0
 25 23  1  0
 26 25  1  0
 27 25  2  0
M  END
$$$$
