WGN.pdb
     RDKit          3D

 27 28  0  0  1  0  0  0  0  0999 V2000
   26.2182  -19.4271  -11.0254 N   0  0  0  0  0  0  0  0  0  0  0  0
   26.4047  -20.8414  -11.3012 C   0  0  1  0  0  0  0  0  0  0  0  0
   26.0915  -21.6506  -10.0569 C   0  0  0  0  0  0  0  0  0  0  0  0
   26.6962  -20.9504   -8.8846 C   0  0  0  0  0  0  0  0  0  0  0  0
   26.0447  -20.1377   -8.0027 C   0  0  0  0  0  0  0  0  0  0  0  0
   26.9107  -19.6767   -7.0761 N   0  0  0  0  0  0  0  0  0  0  0  0
   28.1305  -20.1930   -7.3574 C   0  0  0  0  0  0  0  0  0  0  0  0
   29.3733  -20.0852   -6.7796 C   0  0  0  0  0  0  0  0  0  0  0  0
   30.4579  -20.7533   -7.3134 C   0  0  0  0  0  0  0  0  0  0  0  0
   30.3266  -21.5506   -8.4435 C   0  0  0  0  0  0  0  0  0  0  0  0
   29.0849  -21.6555   -9.0171 C   0  0  0  0  0  0  0  0  0  0  0  0
   28.0225  -20.9876   -8.4764 C   0  0  0  0  0  0  0  0  0  0  0  0
   25.4367  -21.2845  -12.3532 C   0  0  0  0  0  0  0  0  0  0  0  0
   24.3237  -20.7053  -12.5016 O   0  0  0  0  0  0  0  0  0  0  0  0
   25.7847  -22.3759  -13.1943 N   0  0  0  0  0  0  0  0  0  0  0  0
   24.9755  -22.8014  -14.2869 C   0  0  0  0  0  0  0  0  0  0  0  0
   23.4926  -22.6789  -14.0028 C   0  0  0  0  0  0  0  0  0  0  0  0
   22.9398  -23.6594  -13.4008 O   0  0  0  0  0  0  0  0  0  0  0  0
   18.5772  -20.8413  -13.8412 N   0  0  0  0  0  0  0  0  0  0  0  0
   19.3387  -19.8350  -14.4777 C   0  0  0  0  0  0  0  0  0  0  0  0
   18.7742  -18.7659  -14.8122 O   0  0  0  0  0  0  0  0  0  0  0  0
   20.7528  -20.0695  -14.7265 C   0  0  0  0  0  0  0  0  0  0  0  0
   21.3066  -21.3765  -14.2363 C   0  0  2  0  0  0  0  0  0  0  0  0
   22.7207  -21.5783  -14.3598 N   0  0  0  0  0  0  0  0  0  0  0  0
   20.5380  -22.5156  -14.7388 C   0  0  0  0  0  0  0  0  0  0  0  0
   19.5231  -23.1216  -13.9980 O   0  0  0  0  0  0  0  0  0  0  0  0
   20.7567  -23.0147  -15.8821 O   0  0  0  0  0  0  0  0  0  0  0  0
  2  1  1  1
  3  4  1  0
  3  2  1  0
  4  5  2  0
  5  6  1  0
  7  6  1  0
  8  7  2  0
  9  8  1  0
 10 11  1  0
 10  9  2  0
 11 12  2  0
 12  4  1  0
 12  7  1  0
 13  2  1  0
 13 15  1  0
 14 13  2  0
 16 15  1  0
 17 16  1  0
 18 17  2  0
 19 20  1  0
 20 21  2  0
 22 20  1  0
 23 24  1  0
 23 22  1  6
 24 17  1  0
 25 23  1  0
 26 25  1  0
 27 25  2  0
M  END
$$$$
