WGN.pdb
     RDKit          3D

 27 28  0  0  1  0  0  0  0  0999 V2000
   26.3008  -22.4255  -12.1740 N   0  0  0  0  0  0  0  0  0  0  0  0
   25.7747  -21.1796  -11.6430 C   0  0  1  0  0  0  0  0  0  0  0  0
   26.8715  -20.1319  -11.6155 C   0  0  0  0  0  0  0  0  0  0  0  0
   27.9395  -20.6039  -10.6845 C   0  0  0  0  0  0  0  0  0  0  0  0
   29.1234  -21.1837  -11.0380 C   0  0  0  0  0  0  0  0  0  0  0  0
   29.8359  -21.4855   -9.9324 N   0  0  0  0  0  0  0  0  0  0  0  0
   29.1113  -21.0993   -8.8556 C   0  0  0  0  0  0  0  0  0  0  0  0
   29.3144  -21.1467   -7.4967 C   0  0  0  0  0  0  0  0  0  0  0  0
   28.3611  -20.6575   -6.6253 C   0  0  0  0  0  0  0  0  0  0  0  0
   27.1750  -20.1055   -7.0925 C   0  0  0  0  0  0  0  0  0  0  0  0
   26.9761  -20.0601   -8.4491 C   0  0  0  0  0  0  0  0  0  0  0  0
   27.9294  -20.5487   -9.2974 C   0  0  0  0  0  0  0  0  0  0  0  0
   24.7054  -20.6541  -12.5488 C   0  0  0  0  0  0  0  0  0  0  0  0
   24.1576  -19.5364  -12.3321 O   0  0  0  0  0  0  0  0  0  0  0  0
   24.3068  -21.4326  -13.6689 N   0  0  0  0  0  0  0  0  0  0  0  0
   23.4653  -22.5768  -13.5578 C   0  0  0  0  0  0  0  0  0  0  0  0
   21.9959  -22.2432  -13.7136 C   0  0  0  0  0  0  0  0  0  0  0  0
   21.5076  -22.3336  -14.8896 O   0  0  0  0  0  0  0  0  0  0  0  0
   20.0722  -22.8545   -9.2994 N   0  0  0  0  0  0  0  0  0  0  0  0
   19.3813  -22.9945  -10.5243 C   0  0  0  0  0  0  0  0  0  0  0  0
   19.0556  -24.1427  -10.9106 O   0  0  0  0  0  0  0  0  0  0  0  0
   19.0696  -21.8040  -11.3002 C   0  0  0  0  0  0  0  0  0  0  0  0
   19.7485  -21.6830  -12.6344 C   0  0  2  0  0  0  0  0  0  0  0  0
   21.1722  -21.8493  -12.6643 N   0  0  0  0  0  0  0  0  0  0  0  0
   19.3145  -20.4884  -13.3592 C   0  0  0  0  0  0  0  0  0  0  0  0
   18.2178  -20.4907  -14.2213 O   0  0  0  0  0  0  0  0  0  0  0  0
   19.9176  -19.3810  -13.2403 O   0  0  0  0  0  0  0  0  0  0  0  0
  2  1  1  6
  3  4  1  0
  3  2  1  0
  4  5  2  0
  5  6  1  0
  7  6  1  0
  8  7  2  0
  9  8  1  0
 10 11  1  0
 10  9  2  0
 11 12  2  0
 12  4  1  0
 12  7  1  0
 13  2  1  0
 13 15  1  0
 14 13  2  0
 16 15  1  0
 17 16  1  0
 18 17  2  0
 19 20  1  0
 20 21  2  0
 22 20  1  0
 23 24  1  0
 23 22  1  1
 24 17  1  0
 25 23  1  0
 26 25  1  0
 27 25  2  0
M  END
$$$$
