AME.pdb
     RDKit          3D

 23 22  0  0  1  0  0  0  0  0999 V2000
   16.6950  -24.0539   -5.7600 C   0  0  0  0  0  0  0  0  0  0  0  0
   17.2804  -25.4133   -5.9480 C   0  0  2  0  0  0  0  0  0  0  0  0
   16.5798  -26.1162   -7.0277 N   0  0  0  0  0  0  0  0  0  0  0  0
   17.1789  -26.1836   -4.6834 C   0  0  0  0  0  0  0  0  0  0  0  0
   16.0598  -26.5253   -4.2658 O   0  0  0  0  0  0  0  0  0  0  0  0
   20.7266  -31.2846    0.0781 C   0  0  0  0  0  0  0  0  0  0  0  0
   20.9640  -30.0530   -1.2162 S   0  0  0  0  0  0  0  0  0  0  0  0
   19.4271  -29.1114   -1.4199 C   0  0  0  0  0  0  0  0  0  0  0  0
   19.5338  -28.1388   -2.5681 C   0  0  0  0  0  0  0  0  0  0  0  0
   18.3030  -27.3086   -2.7256 C   0  0  2  0  0  0  0  0  0  0  0  0
   18.3331  -26.5277   -3.9588 N   0  0  0  0  0  0  0  0  0  0  0  0
   17.9795  -26.4365   -1.5929 C   0  0  0  0  0  0  0  0  0  0  0  0
   18.5737  -25.3421   -1.3620 O   0  0  0  0  0  0  0  0  0  0  0  0
   16.9538  -26.8143   -0.6949 N   0  0  0  0  0  0  0  0  0  0  0  0
   16.5774  -26.0409    0.4898 C   0  0  1  0  0  0  0  0  0  0  0  0
   15.4027  -25.1850    0.2799 C   0  0  0  0  0  0  0  0  0  0  0  0
   15.4710  -23.9768   -0.5470 C   0  0  0  0  0  0  0  0  0  0  0  0
   14.2926  -23.1293   -0.6687 C   0  0  0  0  0  0  0  0  0  0  0  0
   13.2286  -23.5757   -1.1452 O   0  0  0  0  0  0  0  0  0  0  0  0
   16.6474  -26.8470    1.7106 C   0  0  0  0  0  0  0  0  0  0  0  0
   16.9069  -28.2036    1.7693 O   0  0  0  0  0  0  0  0  0  0  0  0
   14.2810  -21.8013   -0.2700 O   0  0  0  0  0  0  0  0  0  0  0  0
   16.4581  -26.2748    2.8126 O   0  0  0  0  0  0  0  0  0  0  0  0
  2  1  1  1
  2  3  1  0
  4  5  2  0
  4  2  1  0
  7  8  1  0
  7  6  1  0
  8  9  1  0
 10  9  1  1
 10 11  1  0
 11  4  1  0
 12 10  1  0
 12 14  1  0
 13 12  2  0
 15 14  1  0
 15 20  1  0
 16 17  1  0
 15 16  1  6
 18 22  1  0
 18 17  1  0
 19 18  2  0
 20 21  1  0
 23 20  2  0
M  END
$$$$
