AME.pdb
     RDKit          3D

 23 22  0  0  1  0  0  0  0  0999 V2000
   17.4873  -12.0319  -12.7497 C   0  0  0  0  0  0  0  0  0  0  0  0
   16.3153  -11.8879  -11.8376 C   0  0  2  0  0  0  0  0  0  0  0  0
   15.2015  -12.7121  -12.3180 N   0  0  0  0  0  0  0  0  0  0  0  0
   15.9060  -10.4630  -11.7662 C   0  0  0  0  0  0  0  0  0  0  0  0
   15.2993   -9.9542  -12.7234 O   0  0  0  0  0  0  0  0  0  0  0  0
   15.2535   -6.2549   -6.2358 C   0  0  0  0  0  0  0  0  0  0  0  0
   13.9704   -6.2052   -7.5005 S   0  0  0  0  0  0  0  0  0  0  0  0
   14.7239   -6.5445   -9.1153 C   0  0  0  0  0  0  0  0  0  0  0  0
   15.1770   -7.9800   -9.2126 C   0  0  0  0  0  0  0  0  0  0  0  0
   15.8522   -8.2759  -10.5109 C   0  0  2  0  0  0  0  0  0  0  0  0
   16.1978   -9.6892  -10.6295 N   0  0  0  0  0  0  0  0  0  0  0  0
   17.0240   -7.4502  -10.8166 C   0  0  0  0  0  0  0  0  0  0  0  0
   18.1276   -7.5495  -10.2032 O   0  0  0  0  0  0  0  0  0  0  0  0
   16.9443   -6.4836  -11.8465 N   0  0  0  0  0  0  0  0  0  0  0  0
   18.0541   -5.6134  -12.2397 C   0  0  1  0  0  0  0  0  0  0  0  0
   19.0371   -6.2757  -13.1066 C   0  0  0  0  0  0  0  0  0  0  0  0
   20.0486   -7.1871  -12.5639 C   0  0  0  0  0  0  0  0  0  0  0  0
   20.8837   -7.9515  -13.4803 C   0  0  0  0  0  0  0  0  0  0  0  0
   21.2431   -9.1141  -13.2016 O   0  0  0  0  0  0  0  0  0  0  0  0
   17.5913   -4.2721  -12.6027 C   0  0  0  0  0  0  0  0  0  0  0  0
   16.2755   -3.8976  -12.8015 O   0  0  0  0  0  0  0  0  0  0  0  0
   21.3214   -7.4446  -14.6944 O   0  0  0  0  0  0  0  0  0  0  0  0
   18.4495   -3.3671  -12.7516 O   0  0  0  0  0  0  0  0  0  0  0  0
  2  1  1  6
  2  3  1  0
  4  5  2  0
  4  2  1  0
  7  8  1  0
  7  6  1  0
  8  9  1  0
 10  9  1  1
 10 11  1  0
 11  4  1  0
 12 10  1  0
 12 14  1  0
 13 12  2  0
 15 14  1  0
 15 20  1  0
 16 17  1  0
 15 16  1  6
 18 22  1  0
 18 17  1  0
 19 18  2  0
 20 21  1  0
 23 20  2  0
M  END
$$$$
