AME.pdb
     RDKit          3D

 23 22  0  0  1  0  0  0  0  0999 V2000
   17.5578  -12.0190  -15.6918 C   0  0  0  0  0  0  0  0  0  0  0  0
   18.1926  -10.9178  -16.4732 C   0  0  2  0  0  0  0  0  0  0  0  0
   18.5580  -11.3974  -17.8100 N   0  0  0  0  0  0  0  0  0  0  0  0
   19.3957  -10.4232  -15.7585 C   0  0  0  0  0  0  0  0  0  0  0  0
   19.2742   -9.9473  -14.6174 O   0  0  0  0  0  0  0  0  0  0  0  0
   27.2452  -10.7167  -15.1573 C   0  0  0  0  0  0  0  0  0  0  0  0
   25.7571  -11.3709  -15.9356 S   0  0  0  0  0  0  0  0  0  0  0  0
   24.3462  -10.3282  -15.4746 C   0  0  0  0  0  0  0  0  0  0  0  0
   23.0714  -10.8280  -16.1076 C   0  0  0  0  0  0  0  0  0  0  0  0
   21.8840  -10.0132  -15.7135 C   0  0  2  0  0  0  0  0  0  0  0  0
   20.6646  -10.4892  -16.3596 N   0  0  0  0  0  0  0  0  0  0  0  0
   22.0174   -8.5666  -15.9077 C   0  0  0  0  0  0  0  0  0  0  0  0
   22.0318   -8.0132  -17.0469 O   0  0  0  0  0  0  0  0  0  0  0  0
   22.1383   -7.7215  -14.7797 N   0  0  0  0  0  0  0  0  0  0  0  0
   22.0397   -6.2619  -14.8363 C   0  0  1  0  0  0  0  0  0  0  0  0
   20.9043   -5.7835  -15.6353 C   0  0  0  0  0  0  0  0  0  0  0  0
   20.5506   -4.3622  -15.6927 C   0  0  0  0  0  0  0  0  0  0  0  0
   19.3681   -3.9520  -16.4377 C   0  0  0  0  0  0  0  0  0  0  0  0
   19.1284   -4.4221  -17.5691 O   0  0  0  0  0  0  0  0  0  0  0  0
   22.2835   -5.6491  -13.5286 C   0  0  0  0  0  0  0  0  0  0  0  0
   22.7547   -4.3676  -13.3120 O   0  0  0  0  0  0  0  0  0  0  0  0
   18.4542   -3.0329  -15.9450 O   0  0  0  0  0  0  0  0  0  0  0  0
   22.0503   -6.3309  -12.4997 O   0  0  0  0  0  0  0  0  0  0  0  0
  2  1  1  1
  2  3  1  0
  4  5  2  0
  4  2  1  0
  7  8  1  0
  7  6  1  0
  8  9  1  0
 10  9  1  6
 10 11  1  0
 11  4  1  0
 12 10  1  0
 12 14  1  0
 13 12  2  0
 15 14  1  0
 15 20  1  0
 16 17  1  0
 15 16  1  1
 18 22  1  0
 18 17  1  0
 19 18  2  0
 20 21  1  0
 23 20  2  0
M  END
$$$$
