AME.pdb
     RDKit          3D

 23 22  0  0  1  0  0  0  0  0999 V2000
   23.5837  -13.9667  -17.8175 C   0  0  0  0  0  0  0  0  0  0  0  0
   23.9765  -12.7229  -17.0930 C   0  0  2  0  0  0  0  0  0  0  0  0
   24.2527  -13.0282  -15.6855 N   0  0  0  0  0  0  0  0  0  0  0  0
   22.8903  -11.7167  -17.1966 C   0  0  0  0  0  0  0  0  0  0  0  0
   22.5661  -11.2826  -18.3146 O   0  0  0  0  0  0  0  0  0  0  0  0
   17.9105  -13.1445  -14.4829 C   0  0  0  0  0  0  0  0  0  0  0  0
   17.6602  -12.6062  -16.1846 S   0  0  0  0  0  0  0  0  0  0  0  0
   19.1646  -11.7754  -16.7651 C   0  0  0  0  0  0  0  0  0  0  0  0
   19.8305  -11.0131  -15.6466 C   0  0  0  0  0  0  0  0  0  0  0  0
   21.0896  -10.3426  -16.0870 C   0  0  2  0  0  0  0  0  0  0  0  0
   22.2292  -11.2541  -16.0457 N   0  0  0  0  0  0  0  0  0  0  0  0
   21.4221   -9.0991  -15.3861 C   0  0  0  0  0  0  0  0  0  0  0  0
   22.0459   -9.0636  -14.2844 O   0  0  0  0  0  0  0  0  0  0  0  0
   21.0369   -7.8593  -15.9483 N   0  0  0  0  0  0  0  0  0  0  0  0
   21.3954   -6.5575  -15.3824 C   0  0  1  0  0  0  0  0  0  0  0  0
   21.5833   -5.5116  -16.3959 C   0  0  0  0  0  0  0  0  0  0  0  0
   22.4768   -5.7044  -17.5417 C   0  0  0  0  0  0  0  0  0  0  0  0
   22.6148   -4.6385  -18.5247 C   0  0  0  0  0  0  0  0  0  0  0  0
   21.9972   -3.5616  -18.3933 O   0  0  0  0  0  0  0  0  0  0  0  0
   20.6018   -6.2447  -14.1919 C   0  0  0  0  0  0  0  0  0  0  0  0
   19.5199   -6.9698  -13.7285 O   0  0  0  0  0  0  0  0  0  0  0  0
   23.4252   -4.7525  -19.6441 O   0  0  0  0  0  0  0  0  0  0  0  0
   20.9150   -5.2321  -13.5178 O   0  0  0  0  0  0  0  0  0  0  0  0
  2  1  1  6
  2  3  1  0
  4  5  2  0
  4  2  1  0
  7  8  1  0
  7  6  1  0
  8  9  1  0
 10  9  1  1
 10 11  1  0
 11  4  1  0
 12 10  1  0
 12 14  1  0
 13 12  2  0
 15 14  1  0
 15 20  1  0
 16 17  1  0
 15 16  1  6
 18 22  1  0
 18 17  1  0
 19 18  2  0
 20 21  1  0
 23 20  2  0
M  END
$$$$
