AME.pdb
     RDKit          3D

 23 22  0  0  1  0  0  0  0  0999 V2000
   20.8505  -13.7247  -17.3166 C   0  0  0  0  0  0  0  0  0  0  0  0
   21.1094  -12.3413  -17.8119 C   0  0  2  0  0  0  0  0  0  0  0  0
   22.0170  -12.3823  -18.9631 N   0  0  0  0  0  0  0  0  0  0  0  0
   21.6965  -11.5196  -16.7242 C   0  0  0  0  0  0  0  0  0  0  0  0
   21.0914  -11.4158  -15.6442 O   0  0  0  0  0  0  0  0  0  0  0  0
   27.6358  -13.4420  -15.1816 C   0  0  0  0  0  0  0  0  0  0  0  0
   27.2089  -11.7461  -15.6174 S   0  0  0  0  0  0  0  0  0  0  0  0
   25.4066  -11.5558  -15.5401 C   0  0  0  0  0  0  0  0  0  0  0  0
   24.9972  -10.1339  -15.8340 C   0  0  0  0  0  0  0  0  0  0  0  0
   23.5148   -9.9735  -15.9086 C   0  0  2  0  0  0  0  0  0  0  0  0
   22.9254  -10.8621  -16.9057 N   0  0  0  0  0  0  0  0  0  0  0  0
   23.0370   -8.6039  -16.1190 C   0  0  0  0  0  0  0  0  0  0  0  0
   22.7544   -8.1301  -17.2590 O   0  0  0  0  0  0  0  0  0  0  0  0
   22.8746   -7.7452  -15.0065 N   0  0  0  0  0  0  0  0  0  0  0  0
   22.2107   -6.4419  -15.0687 C   0  0  1  0  0  0  0  0  0  0  0  0
   20.9693   -6.4554  -15.8530 C   0  0  0  0  0  0  0  0  0  0  0  0
   20.1073   -5.2736  -15.9465 C   0  0  0  0  0  0  0  0  0  0  0  0
   18.8287   -5.3772  -16.6365 C   0  0  0  0  0  0  0  0  0  0  0  0
   18.0517   -4.4019  -16.6959 O   0  0  0  0  0  0  0  0  0  0  0  0
   22.2099   -5.7692  -13.7677 C   0  0  0  0  0  0  0  0  0  0  0  0
   22.2618   -4.4027  -13.5646 O   0  0  0  0  0  0  0  0  0  0  0  0
   18.4053   -6.5424  -17.2576 O   0  0  0  0  0  0  0  0  0  0  0  0
   22.1578   -6.4778  -12.7320 O   0  0  0  0  0  0  0  0  0  0  0  0
  2  1  1  1
  2  3  1  0
  4  5  2  0
  4  2  1  0
  7  8  1  0
  7  6  1  0
  8  9  1  0
 10  9  1  6
 10 11  1  0
 11  4  1  0
 12 10  1  0
 12 14  1  0
 13 12  2  0
 15 14  1  0
 15 20  1  0
 16 17  1  0
 15 16  1  1
 18 22  1  0
 18 17  1  0
 19 18  2  0
 20 21  1  0
 23 20  2  0
M  END
$$$$
