AME.pdb
     RDKit          3D

 23 22  0  0  1  0  0  0  0  0999 V2000
   21.8228  -13.0664  -18.3927 C   0  0  0  0  0  0  0  0  0  0  0  0
   22.2031  -11.6782  -18.7856 C   0  0  2  0  0  0  0  0  0  0  0  0
   23.3203  -11.7138  -19.7349 N   0  0  0  0  0  0  0  0  0  0  0  0
   22.5790  -10.8996  -17.5792 C   0  0  0  0  0  0  0  0  0  0  0  0
   21.7543  -10.7633  -16.6601 O   0  0  0  0  0  0  0  0  0  0  0  0
   28.1533  -13.1778  -15.1613 C   0  0  0  0  0  0  0  0  0  0  0  0
   27.8289  -11.4277  -15.4440 S   0  0  0  0  0  0  0  0  0  0  0  0
   26.0617  -11.2059  -15.7876 C   0  0  0  0  0  0  0  0  0  0  0  0
   25.7295   -9.7511  -16.0089 C   0  0  0  0  0  0  0  0  0  0  0  0
   24.2833   -9.5384  -16.3124 C   0  0  2  0  0  0  0  0  0  0  0  0
   23.8543  -10.3188  -17.4692 N   0  0  0  0  0  0  0  0  0  0  0  0
   23.8701   -8.1415  -16.4742 C   0  0  0  0  0  0  0  0  0  0  0  0
   23.9335   -7.5174  -17.5745 O   0  0  0  0  0  0  0  0  0  0  0  0
   23.3710   -7.4299  -15.3580 N   0  0  0  0  0  0  0  0  0  0  0  0
   22.7536   -6.1050  -15.4415 C   0  0  1  0  0  0  0  0  0  0  0  0
   21.7520   -5.9934  -16.5095 C   0  0  0  0  0  0  0  0  0  0  0  0
   20.9532   -4.7776  -16.6889 C   0  0  0  0  0  0  0  0  0  0  0  0
   19.9231   -4.7475  -17.7183 C   0  0  0  0  0  0  0  0  0  0  0  0
   20.1887   -5.0509  -18.8998 O   0  0  0  0  0  0  0  0  0  0  0  0
   22.4272   -5.5726  -14.1168 C   0  0  0  0  0  0  0  0  0  0  0  0
   22.3689   -4.2341  -13.7757 O   0  0  0  0  0  0  0  0  0  0  0  0
   18.6104   -4.3876  -17.4537 O   0  0  0  0  0  0  0  0  0  0  0  0
   22.1746   -6.3869  -13.1944 O   0  0  0  0  0  0  0  0  0  0  0  0
  2  1  1  1
  2  3  1  0
  4  5  2  0
  4  2  1  0
  7  8  1  0
  7  6  1  0
  8  9  1  0
 10  9  1  6
 10 11  1  0
 11  4  1  0
 12 10  1  0
 12 14  1  0
 13 12  2  0
 15 14  1  0
 15 20  1  0
 16 17  1  0
 15 16  1  6
 18 22  1  0
 18 17  1  0
 19 18  2  0
 20 21  1  0
 23 20  2  0
M  END
$$$$
