AME.pdb
     RDKit          3D

 23 22  0  0  1  0  0  0  0  0999 V2000
   27.2790  -20.0537  -16.4224 C   0  0  0  0  0  0  0  0  0  0  0  0
   27.8973  -21.0469  -15.4964 C   0  0  2  0  0  0  0  0  0  0  0  0
   28.2460  -22.2677  -16.2303 N   0  0  0  0  0  0  0  0  0  0  0  0
   26.9539  -21.3620  -14.3946 C   0  0  0  0  0  0  0  0  0  0  0  0
   26.1317  -22.2818  -14.5404 O   0  0  0  0  0  0  0  0  0  0  0  0
   25.3578  -20.5519   -6.7027 C   0  0  0  0  0  0  0  0  0  0  0  0
   26.4925  -20.1795   -8.0525 S   0  0  0  0  0  0  0  0  0  0  0  0
   25.7342  -20.6972   -9.6169 C   0  0  0  0  0  0  0  0  0  0  0  0
   26.6829  -20.4980  -10.7727 C   0  0  0  0  0  0  0  0  0  0  0  0
   26.0730  -20.8805  -12.0807 C   0  0  2  0  0  0  0  0  0  0  0  0
   26.9839  -20.6316  -13.1940 N   0  0  0  0  0  0  0  0  0  0  0  0
   24.7645  -20.2851  -12.3663 C   0  0  0  0  0  0  0  0  0  0  0  0
   24.6046  -19.0695  -12.6837 O   0  0  0  0  0  0  0  0  0  0  0  0
   23.6029  -21.0890  -12.2899 N   0  0  0  0  0  0  0  0  0  0  0  0
   22.2582  -20.6178  -12.6262 C   0  0  1  0  0  0  0  0  0  0  0  0
   21.7331  -21.1902  -13.8725 C   0  0  0  0  0  0  0  0  0  0  0  0
   22.3631  -20.9177  -15.1676 C   0  0  0  0  0  0  0  0  0  0  0  0
   21.7807  -21.4846  -16.3764 C   0  0  0  0  0  0  0  0  0  0  0  0
   20.7701  -22.2153  -16.3190 O   0  0  0  0  0  0  0  0  0  0  0  0
   21.3853  -20.5798  -11.4507 C   0  0  0  0  0  0  0  0  0  0  0  0
   20.1974  -19.8803  -11.3486 O   0  0  0  0  0  0  0  0  0  0  0  0
   22.3026  -21.2512  -17.6396 O   0  0  0  0  0  0  0  0  0  0  0  0
   21.7278  -21.2339  -10.4345 O   0  0  0  0  0  0  0  0  0  0  0  0
  2  1  1  6
  2  3  1  0
  4  5  2  0
  4  2  1  0
  7  8  1  0
  7  6  1  0
  8  9  1  0
 10  9  1  1
 10 11  1  0
 11  4  1  0
 12 10  1  0
 12 14  1  0
 13 12  2  0
 15 14  1  0
 15 20  1  0
 16 17  1  0
 15 16  1  6
 18 22  1  0
 18 17  1  0
 19 18  2  0
 20 21  1  0
 23 20  2  0
M  END
$$$$
