AME.pdb
     RDKit          3D

 23 22  0  0  1  0  0  0  0  0999 V2000
   27.4811  -18.5380  -14.5515 C   0  0  0  0  0  0  0  0  0  0  0  0
   28.0503  -19.7766  -13.9449 C   0  0  2  0  0  0  0  0  0  0  0  0
   28.5979  -20.6430  -14.9938 N   0  0  0  0  0  0  0  0  0  0  0  0
   26.9966  -20.4940  -13.1847 C   0  0  0  0  0  0  0  0  0  0  0  0
   26.3934  -21.4382  -13.7214 O   0  0  0  0  0  0  0  0  0  0  0  0
   29.2001  -20.5202   -6.9093 C   0  0  0  0  0  0  0  0  0  0  0  0
   27.4768  -20.2907   -7.3841 S   0  0  0  0  0  0  0  0  0  0  0  0
   27.2827  -20.7461   -9.1292 C   0  0  0  0  0  0  0  0  0  0  0  0
   25.8681  -20.5118   -9.5979 C   0  0  0  0  0  0  0  0  0  0  0  0
   25.6930  -20.8146  -11.0493 C   0  0  2  0  0  0  0  0  0  0  0  0
   26.6781  -20.1154  -11.8690 N   0  0  0  0  0  0  0  0  0  0  0  0
   24.3481  -20.5858  -11.5850 C   0  0  0  0  0  0  0  0  0  0  0  0
   23.7116  -19.5012  -11.4347 O   0  0  0  0  0  0  0  0  0  0  0  0
   23.7045  -21.6147  -12.3119 N   0  0  0  0  0  0  0  0  0  0  0  0
   22.4080  -21.4608  -12.9745 C   0  0  1  0  0  0  0  0  0  0  0  0
   22.2734  -20.1961  -13.7085 C   0  0  0  0  0  0  0  0  0  0  0  0
   21.0462  -19.8568  -14.4347 C   0  0  0  0  0  0  0  0  0  0  0  0
   19.9380  -19.2452  -13.7139 C   0  0  0  0  0  0  0  0  0  0  0  0
   20.1072  -18.2097  -13.0373 O   0  0  0  0  0  0  0  0  0  0  0  0
   21.9814  -22.6995  -13.6293 C   0  0  0  0  0  0  0  0  0  0  0  0
   22.7511  -23.8369  -13.7865 O   0  0  0  0  0  0  0  0  0  0  0  0
   18.6528  -19.7652  -13.7354 O   0  0  0  0  0  0  0  0  0  0  0  0
   20.8166  -22.7544  -14.0963 O   0  0  0  0  0  0  0  0  0  0  0  0
  2  1  1  6
  2  3  1  0
  4  5  2  0
  4  2  1  0
  7  8  1  0
  7  6  1  0
  8  9  1  0
 10  9  1  1
 10 11  1  0
 11  4  1  0
 12 10  1  0
 12 14  1  0
 13 12  2  0
 15 14  1  0
 15 20  1  0
 16 17  1  0
 15 16  1  6
 18 22  1  0
 18 17  1  0
 19 18  2  0
 20 21  1  0
 23 20  2  0
M  END
$$$$
