AME.pdb
     RDKit          3D

 23 22  0  0  1  0  0  0  0  0999 V2000
   27.1403  -13.3165  -15.6232 C   0  0  0  0  0  0  0  0  0  0  0  0
   25.8112  -13.9757  -15.4647 C   0  0  2  0  0  0  0  0  0  0  0  0
   25.8827  -15.3661  -15.9254 N   0  0  0  0  0  0  0  0  0  0  0  0
   24.7855  -13.2310  -16.2371 C   0  0  0  0  0  0  0  0  0  0  0  0
   24.7028  -13.4031  -17.4646 O   0  0  0  0  0  0  0  0  0  0  0  0
   19.1587  -13.6239  -18.1526 C   0  0  0  0  0  0  0  0  0  0  0  0
   20.0347  -14.5738  -16.8962 S   0  0  0  0  0  0  0  0  0  0  0  0
   21.1774  -13.4725  -16.0178 C   0  0  0  0  0  0  0  0  0  0  0  0
   21.9133  -12.5735  -16.9800 C   0  0  0  0  0  0  0  0  0  0  0  0
   22.8369  -11.6301  -16.2829 C   0  0  2  0  0  0  0  0  0  0  0  0
   23.9116  -12.3379  -15.5934 N   0  0  0  0  0  0  0  0  0  0  0  0
   22.1980  -10.6817  -15.3660 C   0  0  0  0  0  0  0  0  0  0  0  0
   22.0423  -10.9033  -14.1288 O   0  0  0  0  0  0  0  0  0  0  0  0
   21.7210   -9.4465  -15.8640 N   0  0  0  0  0  0  0  0  0  0  0  0
   21.1367   -8.3973  -15.0267 C   0  0  1  0  0  0  0  0  0  0  0  0
   21.8954   -7.1402  -15.0507 C   0  0  0  0  0  0  0  0  0  0  0  0
   21.4887   -5.9826  -14.2490 C   0  0  0  0  0  0  0  0  0  0  0  0
   22.3073   -4.7779  -14.2709 C   0  0  0  0  0  0  0  0  0  0  0  0
   23.3551   -4.7274  -14.9476 O   0  0  0  0  0  0  0  0  0  0  0  0
   19.6799   -8.3388  -15.1655 C   0  0  0  0  0  0  0  0  0  0  0  0
   18.7776   -8.1394  -14.1373 O   0  0  0  0  0  0  0  0  0  0  0  0
   21.9786   -3.6362  -13.5560 O   0  0  0  0  0  0  0  0  0  0  0  0
   19.1857   -8.4799  -16.3117 O   0  0  0  0  0  0  0  0  0  0  0  0
  2  1  1  6
  2  3  1  0
  4  5  2  0
  4  2  1  0
  7  8  1  0
  7  6  1  0
  8  9  1  0
 10  9  1  1
 10 11  1  0
 11  4  1  0
 12 10  1  0
 12 14  1  0
 13 12  2  0
 15 14  1  0
 15 20  1  0
 16 17  1  0
 15 16  1  6
 18 22  1  0
 18 17  1  0
 19 18  2  0
 20 21  1  0
 23 20  2  0
M  END
$$$$
