AME.pdb
     RDKit          3D

 23 22  0  0  1  0  0  0  0  0999 V2000
   19.3578  -11.7458  -17.5767 C   0  0  0  0  0  0  0  0  0  0  0  0
   20.7785  -11.4792  -17.9464 C   0  0  2  0  0  0  0  0  0  0  0  0
   21.5142  -12.7431  -18.0553 N   0  0  0  0  0  0  0  0  0  0  0  0
   21.4080  -10.6050  -16.9253 C   0  0  0  0  0  0  0  0  0  0  0  0
   20.7457  -10.2476  -15.9369 O   0  0  0  0  0  0  0  0  0  0  0  0
   27.3881  -12.6395  -14.8520 C   0  0  0  0  0  0  0  0  0  0  0  0
   27.0196  -11.0078  -15.5227 S   0  0  0  0  0  0  0  0  0  0  0  0
   25.2237  -10.7544  -15.4977 C   0  0  0  0  0  0  0  0  0  0  0  0
   24.8542   -9.4231  -16.1034 C   0  0  0  0  0  0  0  0  0  0  0  0
   23.3767   -9.2202  -16.1711 C   0  0  2  0  0  0  0  0  0  0  0  0
   22.7406  -10.1811  -17.0674 N   0  0  0  0  0  0  0  0  0  0  0  0
   22.9398   -7.8622  -16.5075 C   0  0  0  0  0  0  0  0  0  0  0  0
   22.6567   -7.4910  -17.6848 O   0  0  0  0  0  0  0  0  0  0  0  0
   22.8204   -6.8957  -15.4813 N   0  0  0  0  0  0  0  0  0  0  0  0
   22.2120   -5.5769  -15.6660 C   0  0  1  0  0  0  0  0  0  0  0  0
   20.8937   -5.6267  -16.3109 C   0  0  0  0  0  0  0  0  0  0  0  0
   20.0358   -4.4413  -16.3969 C   0  0  0  0  0  0  0  0  0  0  0  0
   18.6539   -4.5921  -16.8319 C   0  0  0  0  0  0  0  0  0  0  0  0
   18.2047   -5.7086  -17.1636 O   0  0  0  0  0  0  0  0  0  0  0  0
   22.3819   -4.7291  -14.4839 C   0  0  0  0  0  0  0  0  0  0  0  0
   22.4734   -3.3497  -14.4852 O   0  0  0  0  0  0  0  0  0  0  0  0
   17.7704   -3.5257  -16.9021 O   0  0  0  0  0  0  0  0  0  0  0  0
   22.4529   -5.2842  -13.3594 O   0  0  0  0  0  0  0  0  0  0  0  0
  2  1  1  1
  2  3  1  0
  4  5  2  0
  4  2  1  0
  7  8  1  0
  7  6  1  0
  8  9  1  0
 10  9  1  6
 10 11  1  0
 11  4  1  0
 12 10  1  0
 12 14  1  0
 13 12  2  0
 15 14  1  0
 15 20  1  0
 16 17  1  0
 15 16  1  1
 18 22  1  0
 18 17  1  0
 19 18  2  0
 20 21  1  0
 23 20  2  0
M  END
$$$$
