AME.pdb
     RDKit          3D

 23 22  0  0  1  0  0  0  0  0999 V2000
   17.6588  -10.2299  -18.3390 C   0  0  0  0  0  0  0  0  0  0  0  0
   18.8513  -11.1263  -18.3610 C   0  0  2  0  0  0  0  0  0  0  0  0
   18.4436  -12.5101  -18.0975 N   0  0  0  0  0  0  0  0  0  0  0  0
   19.8355  -10.6785  -17.3443 C   0  0  0  0  0  0  0  0  0  0  0  0
   19.4750  -10.5487  -16.1625 O   0  0  0  0  0  0  0  0  0  0  0  0
   27.3313  -10.3687  -15.1068 C   0  0  0  0  0  0  0  0  0  0  0  0
   26.0905  -11.0499  -16.2224 S   0  0  0  0  0  0  0  0  0  0  0  0
   24.5282  -10.1617  -15.9758 C   0  0  0  0  0  0  0  0  0  0  0  0
   23.4590  -10.6736  -16.9088 C   0  0  0  0  0  0  0  0  0  0  0  0
   22.1726   -9.9304  -16.7610 C   0  0  2  0  0  0  0  0  0  0  0  0
   21.1653  -10.4022  -17.7064 N   0  0  0  0  0  0  0  0  0  0  0  0
   22.2747   -8.4700  -16.8310 C   0  0  0  0  0  0  0  0  0  0  0  0
   22.2594   -7.8200  -17.9179 O   0  0  0  0  0  0  0  0  0  0  0  0
   22.3982   -7.7232  -15.6358 N   0  0  0  0  0  0  0  0  0  0  0  0
   22.1643   -6.2809  -15.5442 C   0  0  1  0  0  0  0  0  0  0  0  0
   21.0260   -5.8211  -16.3499 C   0  0  0  0  0  0  0  0  0  0  0  0
   20.5356   -4.4422  -16.2696 C   0  0  0  0  0  0  0  0  0  0  0  0
   19.4159   -4.0344  -17.1072 C   0  0  0  0  0  0  0  0  0  0  0  0
   18.2392   -4.1589  -16.7093 O   0  0  0  0  0  0  0  0  0  0  0  0
   22.2895   -5.7959  -14.1679 C   0  0  0  0  0  0  0  0  0  0  0  0
   22.7326   -4.5421  -13.7901 O   0  0  0  0  0  0  0  0  0  0  0  0
   19.5854   -3.4931  -18.3725 O   0  0  0  0  0  0  0  0  0  0  0  0
   21.9712   -6.5718  -13.2328 O   0  0  0  0  0  0  0  0  0  0  0  0
  2  1  1  1
  2  3  1  0
  4  5  2  0
  4  2  1  0
  7  8  1  0
  7  6  1  0
  8  9  1  0
 10  9  1  6
 10 11  1  0
 11  4  1  0
 12 10  1  0
 12 14  1  0
 13 12  2  0
 15 14  1  0
 15 20  1  0
 16 17  1  0
 15 16  1  1
 18 22  1  0
 18 17  1  0
 19 18  2  0
 20 21  1  0
 23 20  2  0
M  END
$$$$
