AME.pdb
     RDKit          3D

 23 22  0  0  1  0  0  0  0  0999 V2000
   30.6988  -21.5573  -21.6296 C   0  0  0  0  0  0  0  0  0  0  0  0
   30.1247  -20.8689  -20.4369 C   0  0  2  0  0  0  0  0  0  0  0  0
   30.9006  -19.6623  -20.1323 N   0  0  0  0  0  0  0  0  0  0  0  0
   30.1304  -21.7904  -19.2734 C   0  0  0  0  0  0  0  0  0  0  0  0
   31.2100  -22.2496  -18.8648 O   0  0  0  0  0  0  0  0  0  0  0  0
   26.1348  -22.2615  -13.9914 C   0  0  0  0  0  0  0  0  0  0  0  0
   26.9330  -20.8039  -14.6888 S   0  0  0  0  0  0  0  0  0  0  0  0
   28.2212  -21.3380  -15.8487 C   0  0  0  0  0  0  0  0  0  0  0  0
   27.8584  -22.6510  -16.4968 C   0  0  0  0  0  0  0  0  0  0  0  0
   28.8638  -23.0795  -17.5139 C   0  0  2  0  0  0  0  0  0  0  0  0
   28.9302  -22.1453  -18.6338 N   0  0  0  0  0  0  0  0  0  0  0  0
   28.7109  -24.4478  -18.0165 C   0  0  0  0  0  0  0  0  0  0  0  0
   28.7817  -24.7532  -19.2436 O   0  0  0  0  0  0  0  0  0  0  0  0
   28.4705  -25.5014  -17.1035 N   0  0  0  0  0  0  0  0  0  0  0  0
   28.7613  -26.9088  -17.3830 C   0  0  1  0  0  0  0  0  0  0  0  0
   30.0956  -27.1272  -17.9560 C   0  0  0  0  0  0  0  0  0  0  0  0
   30.3638  -28.2361  -18.8762 C   0  0  0  0  0  0  0  0  0  0  0  0
   31.7310  -28.4844  -19.3132 C   0  0  0  0  0  0  0  0  0  0  0  0
   32.6012  -28.8721  -18.5064 O   0  0  0  0  0  0  0  0  0  0  0  0
   28.3141  -27.7829  -16.2962 C   0  0  0  0  0  0  0  0  0  0  0  0
   28.1688  -29.1556  -16.3711 O   0  0  0  0  0  0  0  0  0  0  0  0
   32.1409  -28.3093  -20.6262 O   0  0  0  0  0  0  0  0  0  0  0  0
   28.0327  -27.2593  -15.1897 O   0  0  0  0  0  0  0  0  0  0  0  0
  2  1  1  6
  2  3  1  0
  4  5  2  0
  4  2  1  0
  7  8  1  0
  7  6  1  0
  8  9  1  0
 10  9  1  1
 10 11  1  0
 11  4  1  0
 12 10  1  0
 12 14  1  0
 13 12  2  0
 15 14  1  0
 15 20  1  0
 16 17  1  0
 15 16  1  1
 18 22  1  0
 18 17  1  0
 19 18  2  0
 20 21  1  0
 23 20  2  0
M  END
$$$$
