SRW.pdb
     RDKit          3D

 32 33  0  0  1  0  0  0  0  0999 V2000
   19.4796  -26.2070   -8.7608 O   0  0  0  0  0  0  0  0  0  0  0  0
   19.2399  -24.8994   -9.1629 C   0  0  0  0  0  0  0  0  0  0  0  0
   19.5156  -23.9526   -8.0096 C   0  0  2  0  0  0  0  0  0  0  0  0
   18.3983  -24.0796   -7.0736 N   0  0  0  0  0  0  0  0  0  0  0  0
   19.5435  -22.5632   -8.5078 C   0  0  0  0  0  0  0  0  0  0  0  0
   18.4697  -21.9276   -8.6093 O   0  0  0  0  0  0  0  0  0  0  0  0
   24.8742  -19.9852  -13.1684 N   0  0  0  0  0  0  0  0  0  0  0  0
   25.4048  -21.1689  -12.6052 C   0  0  0  0  0  0  0  0  0  0  0  0
   26.0452  -22.0382  -13.3145 N   0  0  0  0  0  0  0  0  0  0  0  0
   25.2174  -21.3958  -11.2036 N   0  0  0  0  0  0  0  0  0  0  0  0
   24.4453  -20.4927  -10.4093 C   0  0  0  0  0  0  0  0  0  0  0  0
   23.0226  -20.9975  -10.3199 C   0  0  0  0  0  0  0  0  0  0  0  0
   22.1495  -20.0305   -9.5848 C   0  0  0  0  0  0  0  0  0  0  0  0
   20.7545  -20.6075   -9.4663 C   0  0  2  0  0  0  0  0  0  0  0  0
   20.7475  -21.9152   -8.8786 N   0  0  0  0  0  0  0  0  0  0  0  0
   20.0910  -20.6688  -10.8068 C   0  0  0  0  0  0  0  0  0  0  0  0
   20.0584  -21.7651  -11.4489 O   0  0  0  0  0  0  0  0  0  0  0  0
   26.3698  -22.9447  -12.9696 N   0  0  0  0  0  0  0  0  0  0  0  0
   19.4856  -19.5548  -11.4134 C   0  0  2  0  0  0  0  0  0  0  0  0
   19.1213  -19.5436  -12.8164 C   0  0  0  0  0  0  0  0  0  0  0  0
   20.2897  -19.6579  -13.7278 C   0  0  0  0  0  0  0  0  0  0  0  0
   20.5881  -18.3286  -14.3118 C   0  0  0  0  0  0  0  0  0  0  0  0
   20.2003  -17.0782  -13.8189 N   0  0  0  0  0  0  0  0  0  0  0  0
   20.6555  -16.1129  -14.6323 C   0  0  0  0  0  0  0  0  0  0  0  0
   21.3302  -16.6584  -15.6474 C   0  0  0  0  0  0  0  0  0  0  0  0
   21.9918  -16.1086  -16.7482 C   0  0  0  0  0  0  0  0  0  0  0  0
   22.5923  -16.9777  -17.6156 C   0  0  0  0  0  0  0  0  0  0  0  0
   22.5860  -18.3379  -17.4745 C   0  0  0  0  0  0  0  0  0  0  0  0
   21.9235  -18.8675  -16.3742 C   0  0  0  0  0  0  0  0  0  0  0  0
   21.2993  -18.0270  -15.4665 C   0  0  0  0  0  0  0  0  0  0  0  0
   18.1367  -20.6021  -13.1327 O   0  0  0  0  0  0  0  0  0  0  0  0
   18.0868  -21.7099  -12.5549 O   0  0  0  0  0  0  0  0  0  0  0  0
  1  2  1  0
  3  2  1  0
  3  4  1  1
  5  6  2  0
  5  3  1  0
  8  9  2  0
  8  7  1  0
 10  8  1  0
 11 12  1  0
 11 10  1  0
 13 12  1  0
 14 13  1  6
 14 15  1  0
 15  5  1  0
 16 14  1  0
 16 17  2  0
 18 16  1  0
 19 18  1  0
 19 30  1  0
 19 20  1  1
 21 20  1  0
 22 21  2  0
 23 22  1  0
 24 23  1  0
 24 29  2  0
 25 26  2  0
 25 24  1  0
 26 27  1  0
 27 28  2  0
 29 28  1  0
 29 21  1  0
 30 31  2  0
 30 32  1  0
M  END
$$$$
