SRW.pdb
     RDKit          3D

 32 33  0  0  1  0  0  0  0  0999 V2000
   25.7899  -16.1845  -15.2024 O   0  0  0  0  0  0  0  0  0  0  0  0
   27.0982  -16.3633  -14.7720 C   0  0  0  0  0  0  0  0  0  0  0  0
   27.8657  -17.1767  -15.7977 C   0  0  2  0  0  0  0  0  0  0  0  0
   27.7155  -16.4966  -17.0843 N   0  0  0  0  0  0  0  0  0  0  0  0
   27.2633  -18.5195  -15.9134 C   0  0  0  0  0  0  0  0  0  0  0  0
   26.5302  -18.7791  -16.8944 O   0  0  0  0  0  0  0  0  0  0  0  0
   30.2070  -25.7310  -16.1576 N   0  0  0  0  0  0  0  0  0  0  0  0
   29.1952  -25.1772  -16.9759 C   0  0  0  0  0  0  0  0  0  0  0  0
   28.3896  -25.9161  -17.6643 N   0  0  0  0  0  0  0  0  0  0  0  0
   29.0737  -23.7513  -17.0319 N   0  0  0  0  0  0  0  0  0  0  0  0
   29.8822  -22.9114  -16.2052 C   0  0  0  0  0  0  0  0  0  0  0  0
   28.9894  -22.0971  -15.2961 C   0  0  0  0  0  0  0  0  0  0  0  0
   27.6976  -21.7557  -15.9688 C   0  0  0  0  0  0  0  0  0  0  0  0
   26.8953  -20.8362  -15.0722 C   0  0  2  0  0  0  0  0  0  0  0  0
   27.4839  -19.5346  -14.9502 N   0  0  0  0  0  0  0  0  0  0  0  0
   26.7366  -21.4324  -13.7083 C   0  0  0  0  0  0  0  0  0  0  0  0
   27.4884  -22.3898  -13.3430 O   0  0  0  0  0  0  0  0  0  0  0  0
   27.7026  -25.5603  -18.3334 N   0  0  0  0  0  0  0  0  0  0  0  0
   25.7789  -20.9832  -12.7828 C   0  0  1  0  0  0  0  0  0  0  0  0
   25.6122  -21.6031  -11.4831 C   0  0  0  0  0  0  0  0  0  0  0  0
   26.8640  -21.6358  -10.6827 C   0  0  0  0  0  0  0  0  0  0  0  0
   26.7279  -20.7246   -9.5216 C   0  0  0  0  0  0  0  0  0  0  0  0
   25.7195  -19.7816   -9.2961 N   0  0  0  0  0  0  0  0  0  0  0  0
   25.9501  -19.1447   -8.1377 C   0  0  0  0  0  0  0  0  0  0  0  0
   27.0660  -19.6169   -7.5766 C   0  0  0  0  0  0  0  0  0  0  0  0
   27.7360  -19.3024   -6.3918 C   0  0  0  0  0  0  0  0  0  0  0  0
   28.8803  -19.9974   -6.1165 C   0  0  0  0  0  0  0  0  0  0  0  0
   29.4049  -20.9715   -6.9203 C   0  0  0  0  0  0  0  0  0  0  0  0
   28.7257  -21.2715   -8.0946 C   0  0  0  0  0  0  0  0  0  0  0  0
   27.5609  -20.5941   -8.4174 C   0  0  0  0  0  0  0  0  0  0  0  0
   24.5376  -20.9513  -10.7017 O   0  0  0  0  0  0  0  0  0  0  0  0
   24.0512  -19.8321  -10.9746 O   0  0  0  0  0  0  0  0  0  0  0  0
  1  2  1  0
  3  2  1  0
  3  4  1  6
  5  6  2  0
  5  3  1  0
  8  9  2  0
  8  7  1  0
 10  8  1  0
 11 12  1  0
 11 10  1  0
 13 12  1  0
 14 13  1  6
 14 15  1  0
 15  5  1  0
 16 14  1  0
 16 17  2  0
 18 16  1  0
 19 18  1  0
 19 30  1  0
 19 20  1  1
 21 20  1  0
 22 21  2  0
 23 22  1  0
 24 23  1  0
 24 29  2  0
 25 26  2  0
 25 24  1  0
 26 27  1  0
 27 28  2  0
 29 28  1  0
 29 21  1  0
 30 31  2  0
 30 32  1  0
M  END
$$$$
