SRW.pdb
     RDKit          3D

 32 33  0  0  1  0  0  0  0  0999 V2000
   30.1940  -39.9963   -2.8242 O   0  0  0  0  0  0  0  0  0  0  0  0
   29.7229  -38.7573   -2.4097 C   0  0  0  0  0  0  0  0  0  0  0  0
   30.5683  -37.6582   -3.0261 C   0  0  2  0  0  0  0  0  0  0  0  0
   31.8769  -37.7060   -2.3734 N   0  0  0  0  0  0  0  0  0  0  0  0
   29.9574  -36.3456   -2.7377 C   0  0  0  0  0  0  0  0  0  0  0  0
   30.5834  -35.5203   -2.0346 O   0  0  0  0  0  0  0  0  0  0  0  0
   24.4309  -32.0985   -7.7331 N   0  0  0  0  0  0  0  0  0  0  0  0
   25.7019  -32.7134   -7.8120 C   0  0  0  0  0  0  0  0  0  0  0  0
   26.2206  -33.0728   -8.9393 N   0  0  0  0  0  0  0  0  0  0  0  0
   26.4232  -32.9374   -6.5952 N   0  0  0  0  0  0  0  0  0  0  0  0
   25.9055  -32.4899   -5.3405 C   0  0  0  0  0  0  0  0  0  0  0  0
   26.8760  -32.8569   -4.2404 C   0  0  0  0  0  0  0  0  0  0  0  0
   27.2964  -34.2888   -4.3438 C   0  0  0  0  0  0  0  0  0  0  0  0
   28.2096  -34.6262   -3.1841 C   0  0  2  0  0  0  0  0  0  0  0  0
   28.6801  -35.9798   -3.2292 N   0  0  0  0  0  0  0  0  0  0  0  0
   27.5164  -34.3913   -1.8783 C   0  0  0  0  0  0  0  0  0  0  0  0
   26.5572  -35.1464   -1.5244 O   0  0  0  0  0  0  0  0  0  0  0  0
   27.1097  -33.5684   -9.0385 N   0  0  0  0  0  0  0  0  0  0  0  0
   27.8737  -33.3566   -0.9967 C   0  0  2  0  0  0  0  0  0  0  0  0
   27.2301  -33.1834    0.2906 C   0  0  0  0  0  0  0  0  0  0  0  0
   27.9101  -32.1868    1.1583 C   0  0  0  0  0  0  0  0  0  0  0  0
   27.3002  -32.2151    2.5090 C   0  0  0  0  0  0  0  0  0  0  0  0
   27.6400  -33.0527    3.5766 N   0  0  0  0  0  0  0  0  0  0  0  0
   26.8539  -32.7807    4.6297 C   0  0  0  0  0  0  0  0  0  0  0  0
   26.0033  -31.8000    4.3173 C   0  0  0  0  0  0  0  0  0  0  0  0
   24.9958  -31.1552    5.0390 C   0  0  0  0  0  0  0  0  0  0  0  0
   24.2989  -30.1700    4.3974 C   0  0  0  0  0  0  0  0  0  0  0  0
   24.5239  -29.7800    3.1061 C   0  0  0  0  0  0  0  0  0  0  0  0
   25.5294  -30.4318    2.4031 C   0  0  0  0  0  0  0  0  0  0  0  0
   26.2639  -31.4375    3.0106 C   0  0  0  0  0  0  0  0  0  0  0  0
   25.8022  -32.8238    0.1425 O   0  0  0  0  0  0  0  0  0  0  0  0
   25.3515  -32.1009   -0.7729 O   0  0  0  0  0  0  0  0  0  0  0  0
  1  2  1  0
  3  2  1  0
  3  4  1  1
  5  6  2  0
  5  3  1  0
  8  9  2  0
  8  7  1  0
 10  8  1  0
 11 12  1  0
 11 10  1  0
 13 12  1  0
 14 13  1  6
 14 15  1  0
 15  5  1  0
 16 14  1  0
 16 17  2  0
 18 16  1  0
 19 18  1  0
 19 30  1  0
 19 20  1  6
 21 20  1  0
 22 21  2  0
 23 22  1  0
 24 23  1  0
 24 29  2  0
 25 26  2  0
 25 24  1  0
 26 27  1  0
 27 28  2  0
 29 28  1  0
 29 21  1  0
 30 31  2  0
 30 32  1  0
M  END
$$$$
