SRW.pdb
     RDKit          3D

 32 33  0  0  1  0  0  0  0  0999 V2000
   23.3291  -20.9971   -8.7527 O   0  0  0  0  0  0  0  0  0  0  0  0
   23.6180  -21.0496  -10.1101 C   0  0  0  0  0  0  0  0  0  0  0  0
   25.1144  -20.9084  -10.3188 C   0  0  2  0  0  0  0  0  0  0  0  0
   25.6262  -20.0925   -9.2175 N   0  0  0  0  0  0  0  0  0  0  0  0
   25.3705  -20.1894  -11.5824 C   0  0  0  0  0  0  0  0  0  0  0  0
   25.6388  -18.9671  -11.5478 O   0  0  0  0  0  0  0  0  0  0  0  0
   29.6668  -23.3339  -15.8784 N   0  0  0  0  0  0  0  0  0  0  0  0
   28.5835  -24.2157  -16.0996 C   0  0  0  0  0  0  0  0  0  0  0  0
   28.6772  -25.4852  -15.8796 N   0  0  0  0  0  0  0  0  0  0  0  0
   27.3516  -23.6680  -16.5827 N   0  0  0  0  0  0  0  0  0  0  0  0
   27.1827  -22.2566  -16.7317 C   0  0  0  0  0  0  0  0  0  0  0  0
   26.1240  -21.7756  -15.7649 C   0  0  0  0  0  0  0  0  0  0  0  0
   26.6382  -20.6626  -14.9078 C   0  0  0  0  0  0  0  0  0  0  0  0
   25.5033  -20.1124  -14.0698 C   0  0  2  0  0  0  0  0  0  0  0  0
   25.3244  -20.8333  -12.8435 N   0  0  0  0  0  0  0  0  0  0  0  0
   24.2199  -20.1289  -14.8400 C   0  0  0  0  0  0  0  0  0  0  0  0
   23.8509  -21.1894  -15.4354 O   0  0  0  0  0  0  0  0  0  0  0  0
   27.9390  -26.1654  -16.0760 N   0  0  0  0  0  0  0  0  0  0  0  0
   23.3759  -19.0100  -14.9463 C   0  0  2  0  0  0  0  0  0  0  0  0
   22.5039  -18.8071  -16.0863 C   0  0  0  0  0  0  0  0  0  0  0  0
   23.2201  -18.8441  -17.3880 C   0  0  0  0  0  0  0  0  0  0  0  0
   22.2785  -18.4884  -18.4761 C   0  0  0  0  0  0  0  0  0  0  0  0
   21.2422  -17.5500  -18.4292 N   0  0  0  0  0  0  0  0  0  0  0  0
   20.6078  -17.5208  -19.6114 C   0  0  0  0  0  0  0  0  0  0  0  0
   21.1708  -18.3960  -20.4481 C   0  0  0  0  0  0  0  0  0  0  0  0
   20.8975  -18.7507  -21.7714 C   0  0  0  0  0  0  0  0  0  0  0  0
   21.6902  -19.7087  -22.3390 C   0  0  0  0  0  0  0  0  0  0  0  0
   22.7236  -20.3352  -21.6988 C   0  0  0  0  0  0  0  0  0  0  0  0
   22.9813  -19.9703  -20.3833 C   0  0  0  0  0  0  0  0  0  0  0  0
   22.2051  -19.0037  -19.7643 C   0  0  0  0  0  0  0  0  0  0  0  0
   21.3907  -19.7821  -16.1017 O   0  0  0  0  0  0  0  0  0  0  0  0
   21.4708  -20.9317  -16.5873 O   0  0  0  0  0  0  0  0  0  0  0  0
  1  2  1  0
  3  2  1  0
  3  4  1  1
  5  6  2  0
  5  3  1  0
  8  9  2  0
  8  7  1  0
 10  8  1  0
 11 12  1  0
 11 10  1  0
 13 12  1  0
 14 13  1  6
 14 15  1  0
 15  5  1  0
 16 14  1  0
 16 17  2  0
 18 16  1  0
 19 18  1  0
 19 30  1  0
 19 20  1  6
 21 20  1  0
 22 21  2  0
 23 22  1  0
 24 23  1  0
 24 29  2  0
 25 26  2  0
 25 24  1  0
 26 27  1  0
 27 28  2  0
 29 28  1  0
 29 21  1  0
 30 31  2  0
 30 32  1  0
M  END
$$$$
