SRW.pdb
     RDKit          3D

 32 33  0  0  1  0  0  0  0  0999 V2000
   28.5932  -18.9232  -17.0400 O   0  0  0  0  0  0  0  0  0  0  0  0
   28.9177  -20.2510  -16.7939 C   0  0  0  0  0  0  0  0  0  0  0  0
   29.1071  -20.4617  -15.3031 C   0  0  2  0  0  0  0  0  0  0  0  0
   29.5203  -21.8526  -15.1154 N   0  0  0  0  0  0  0  0  0  0  0  0
   27.8186  -20.2664  -14.6097 C   0  0  0  0  0  0  0  0  0  0  0  0
   27.2628  -19.1455  -14.6549 O   0  0  0  0  0  0  0  0  0  0  0  0
   22.7615  -24.8275  -13.9764 N   0  0  0  0  0  0  0  0  0  0  0  0
   23.5296  -24.9298  -15.1593 C   0  0  0  0  0  0  0  0  0  0  0  0
   23.9950  -26.0595  -15.5788 N   0  0  0  0  0  0  0  0  0  0  0  0
   23.7907  -23.7343  -15.9034 N   0  0  0  0  0  0  0  0  0  0  0  0
   23.2658  -22.4746  -15.4789 C   0  0  0  0  0  0  0  0  0  0  0  0
   24.3988  -21.6006  -14.9899 C   0  0  0  0  0  0  0  0  0  0  0  0
   24.8455  -22.0074  -13.6214 C   0  0  0  0  0  0  0  0  0  0  0  0
   25.9610  -21.0899  -13.1668 C   0  0  2  0  0  0  0  0  0  0  0  0
   27.1806  -21.3059  -13.8889 N   0  0  0  0  0  0  0  0  0  0  0  0
   26.2218  -21.2583  -11.7025 C   0  0  0  0  0  0  0  0  0  0  0  0
   27.3243  -21.7518  -11.3071 O   0  0  0  0  0  0  0  0  0  0  0  0
   24.5974  -26.1722  -16.3977 N   0  0  0  0  0  0  0  0  0  0  0  0
   25.2937  -20.8929  -10.7122 C   0  0  1  0  0  0  0  0  0  0  0  0
   25.5914  -21.0029   -9.2978 C   0  0  0  0  0  0  0  0  0  0  0  0
   26.7786  -20.2105   -8.8837 C   0  0  0  0  0  0  0  0  0  0  0  0
   26.9470  -20.3107   -7.4145 C   0  0  0  0  0  0  0  0  0  0  0  0
   26.2128  -21.1055   -6.5279 N   0  0  0  0  0  0  0  0  0  0  0  0
   26.6580  -20.9130   -5.2767 C   0  0  0  0  0  0  0  0  0  0  0  0
   27.6563  -20.0262   -5.2837 C   0  0  0  0  0  0  0  0  0  0  0  0
   28.4496  -19.4861   -4.2685 C   0  0  0  0  0  0  0  0  0  0  0  0
   29.4041  -18.5793   -4.6357 C   0  0  0  0  0  0  0  0  0  0  0  0
   29.6287  -18.1719   -5.9217 C   0  0  0  0  0  0  0  0  0  0  0  0
   28.8306  -18.7191   -6.9185 C   0  0  0  0  0  0  0  0  0  0  0  0
   27.8493  -19.6426   -6.5960 C   0  0  0  0  0  0  0  0  0  0  0  0
   24.4270  -20.6290   -8.4646 O   0  0  0  0  0  0  0  0  0  0  0  0
   24.2111  -21.0782   -7.3177 O   0  0  0  0  0  0  0  0  0  0  0  0
  1  2  1  0
  3  2  1  0
  3  4  1  6
  5  6  2  0
  5  3  1  0
  8  9  2  0
  8  7  1  0
 10  8  1  0
 11 12  1  0
 11 10  1  0
 13 12  1  0
 14 13  1  6
 14 15  1  0
 15  5  1  0
 16 14  1  0
 16 17  2  0
 18 16  1  0
 19 18  1  0
 19 30  1  0
 19 20  1  1
 21 20  1  0
 22 21  2  0
 23 22  1  0
 24 23  1  0
 24 29  2  0
 25 26  2  0
 25 24  1  0
 26 27  1  0
 27 28  2  0
 29 28  1  0
 29 21  1  0
 30 31  2  0
 30 32  1  0
M  END
$$$$
