SRW.pdb
     RDKit          3D

 32 33  0  0  1  0  0  0  0  0999 V2000
   29.6318  -21.2396  -13.6993 O   0  0  0  0  0  0  0  0  0  0  0  0
   29.5708  -22.0151  -14.8498 C   0  0  0  0  0  0  0  0  0  0  0  0
   28.4203  -21.5455  -15.7208 C   0  0  2  0  0  0  0  0  0  0  0  0
   28.9047  -20.3992  -16.4902 N   0  0  0  0  0  0  0  0  0  0  0  0
   27.3079  -21.0887  -14.8646 C   0  0  0  0  0  0  0  0  0  0  0  0
   27.2343  -19.8793  -14.5499 O   0  0  0  0  0  0  0  0  0  0  0  0
   23.2305  -25.5138  -16.3399 N   0  0  0  0  0  0  0  0  0  0  0  0
   22.8760  -25.5053  -14.9709 C   0  0  0  0  0  0  0  0  0  0  0  0
   23.0044  -26.5510  -14.2232 N   0  0  0  0  0  0  0  0  0  0  0  0
   22.3602  -24.2919  -14.4118 N   0  0  0  0  0  0  0  0  0  0  0  0
   22.2266  -23.1134  -15.2093 C   0  0  0  0  0  0  0  0  0  0  0  0
   23.4509  -22.2449  -15.0260 C   0  0  0  0  0  0  0  0  0  0  0  0
   24.0076  -22.3775  -13.6439 C   0  0  0  0  0  0  0  0  0  0  0  0
   25.2534  -21.5252  -13.5234 C   0  0  2  0  0  0  0  0  0  0  0  0
   26.3118  -21.9724  -14.3809 N   0  0  0  0  0  0  0  0  0  0  0  0
   25.7445  -21.5019  -12.1095 C   0  0  0  0  0  0  0  0  0  0  0  0
   26.8144  -22.1138  -11.7994 O   0  0  0  0  0  0  0  0  0  0  0  0
   22.8148  -26.5741  -13.2184 N   0  0  0  0  0  0  0  0  0  0  0  0
   25.0736  -20.8245  -11.0767 C   0  0  1  0  0  0  0  0  0  0  0  0
   25.5361  -20.8601   -9.7034 C   0  0  0  0  0  0  0  0  0  0  0  0
   26.9635  -20.4743   -9.5537 C   0  0  0  0  0  0  0  0  0  0  0  0
   27.2064  -20.0231   -8.1629 C   0  0  0  0  0  0  0  0  0  0  0  0
   26.3041  -19.3800   -7.3090 N   0  0  0  0  0  0  0  0  0  0  0  0
   26.9002  -19.1244   -6.1343 C   0  0  0  0  0  0  0  0  0  0  0  0
   28.1600  -19.5663   -6.1613 C   0  0  0  0  0  0  0  0  0  0  0  0
   29.1896  -19.5489   -5.2172 C   0  0  0  0  0  0  0  0  0  0  0  0
   30.3847  -20.1013   -5.5843 C   0  0  0  0  0  0  0  0  0  0  0  0
   30.6330  -20.6641   -6.8057 C   0  0  0  0  0  0  0  0  0  0  0  0
   29.5980  -20.6728   -7.7324 C   0  0  0  0  0  0  0  0  0  0  0  0
   28.3676  -20.1248   -7.4069 C   0  0  0  0  0  0  0  0  0  0  0  0
   24.6967  -20.0170   -8.8232 O   0  0  0  0  0  0  0  0  0  0  0  0
   24.7989  -19.9834   -7.5774 O   0  0  0  0  0  0  0  0  0  0  0  0
  1  2  1  0
  3  2  1  0
  3  4  1  6
  5  6  2  0
  5  3  1  0
  8  9  2  0
  8  7  1  0
 10  8  1  0
 11 12  1  0
 11 10  1  0
 13 12  1  0
 14 13  1  1
 14 15  1  0
 15  5  1  0
 16 14  1  0
 16 17  2  0
 18 16  1  0
 19 18  1  0
 19 30  1  0
 19 20  1  1
 21 20  1  0
 22 21  2  0
 23 22  1  0
 24 23  1  0
 24 29  2  0
 25 26  2  0
 25 24  1  0
 26 27  1  0
 27 28  2  0
 29 28  1  0
 29 21  1  0
 30 31  2  0
 30 32  1  0
M  END
$$$$
