SRW.pdb
     RDKit          3D

 32 33  0  0  1  0  0  0  0  0999 V2000
   29.1979  -18.5428  -12.6492 O   0  0  0  0  0  0  0  0  0  0  0  0
   29.5121  -18.6176  -14.0000 C   0  0  0  0  0  0  0  0  0  0  0  0
   28.2525  -18.4390  -14.8271 C   0  0  2  0  0  0  0  0  0  0  0  0
   27.9436  -17.0089  -14.8354 N   0  0  0  0  0  0  0  0  0  0  0  0
   27.1320  -19.1485  -14.1789 C   0  0  0  0  0  0  0  0  0  0  0  0
   26.2750  -18.4908  -13.5462 O   0  0  0  0  0  0  0  0  0  0  0  0
   22.5187  -26.6645  -13.1447 N   0  0  0  0  0  0  0  0  0  0  0  0
   21.8873  -25.6453  -13.8945 C   0  0  0  0  0  0  0  0  0  0  0  0
   20.6036  -25.5880  -14.0282 N   0  0  0  0  0  0  0  0  0  0  0  0
   22.7109  -24.6538  -14.5187 N   0  0  0  0  0  0  0  0  0  0  0  0
   24.1049  -24.5601  -14.2175 C   0  0  0  0  0  0  0  0  0  0  0  0
   24.3995  -23.1954  -13.6362 C   0  0  0  0  0  0  0  0  0  0  0  0
   25.5868  -22.5696  -14.2968 C   0  0  0  0  0  0  0  0  0  0  0  0
   25.8728  -21.2322  -13.6469 C   0  0  2  0  0  0  0  0  0  0  0  0
   26.9867  -20.5562  -14.2450 N   0  0  0  0  0  0  0  0  0  0  0  0
   26.1299  -21.3995  -12.1818 C   0  0  0  0  0  0  0  0  0  0  0  0
   27.2193  -21.9193  -11.7841 O   0  0  0  0  0  0  0  0  0  0  0  0
   20.1081  -24.8923  -14.5909 N   0  0  0  0  0  0  0  0  0  0  0  0
   25.2121  -21.0046  -11.1931 C   0  0  1  0  0  0  0  0  0  0  0  0
   25.4777  -21.1820   -9.7792 C   0  0  0  0  0  0  0  0  0  0  0  0
   26.7537  -20.5606   -9.3384 C   0  0  0  0  0  0  0  0  0  0  0  0
   26.7722  -20.4750   -7.8587 C   0  0  0  0  0  0  0  0  0  0  0  0
   25.8154  -20.9722   -6.9675 N   0  0  0  0  0  0  0  0  0  0  0  0
   26.1832  -20.6891   -5.7084 C   0  0  0  0  0  0  0  0  0  0  0  0
   27.3419  -20.0253   -5.7146 C   0  0  0  0  0  0  0  0  0  0  0  0
   28.1416  -19.5077   -4.6927 C   0  0  0  0  0  0  0  0  0  0  0  0
   29.2924  -18.8689   -5.0613 C   0  0  0  0  0  0  0  0  0  0  0  0
   29.7055  -18.7063   -6.3548 C   0  0  0  0  0  0  0  0  0  0  0  0
   28.8981  -19.2272   -7.3583 C   0  0  0  0  0  0  0  0  0  0  0  0
   27.7215  -19.8836   -7.0346 C   0  0  0  0  0  0  0  0  0  0  0  0
   24.3632  -20.6763   -8.9472 O   0  0  0  0  0  0  0  0  0  0  0  0
   23.5047  -19.8588   -9.3453 O   0  0  0  0  0  0  0  0  0  0  0  0
  1  2  1  0
  3  2  1  0
  3  4  1  1
  5  6  2  0
  5  3  1  0
  8  9  2  0
  8  7  1  0
 10  8  1  0
 11 12  1  0
 11 10  1  0
 13 12  1  0
 14 13  1  6
 14 15  1  0
 15  5  1  0
 16 14  1  0
 16 17  2  0
 18 16  1  0
 19 18  1  0
 19 30  1  0
 19 20  1  1
 21 20  1  0
 22 21  2  0
 23 22  1  0
 24 23  1  0
 24 29  2  0
 25 26  2  0
 25 24  1  0
 26 27  1  0
 27 28  2  0
 29 28  1  0
 29 21  1  0
 30 31  2  0
 30 32  1  0
M  END
$$$$
