SRW.pdb
     RDKit          3D

 32 33  0  0  1  0  0  0  0  0999 V2000
   29.6654  -21.8313  -13.9482 O   0  0  0  0  0  0  0  0  0  0  0  0
   29.3864  -22.4101  -15.1795 C   0  0  0  0  0  0  0  0  0  0  0  0
   28.5114  -21.4765  -15.9952 C   0  0  2  0  0  0  0  0  0  0  0  0
   29.3627  -20.3755  -16.4465 N   0  0  0  0  0  0  0  0  0  0  0  0
   27.4513  -20.9160  -15.1342 C   0  0  0  0  0  0  0  0  0  0  0  0
   27.5631  -19.7434  -14.7102 O   0  0  0  0  0  0  0  0  0  0  0  0
   21.6013  -24.0713  -14.5125 N   0  0  0  0  0  0  0  0  0  0  0  0
   21.4880  -23.1645  -15.5916 C   0  0  0  0  0  0  0  0  0  0  0  0
   21.4001  -23.5646  -16.8168 N   0  0  0  0  0  0  0  0  0  0  0  0
   21.4720  -21.7624  -15.2999 N   0  0  0  0  0  0  0  0  0  0  0  0
   21.4513  -21.2924  -13.9504 C   0  0  0  0  0  0  0  0  0  0  0  0
   22.8486  -20.8815  -13.5432 C   0  0  0  0  0  0  0  0  0  0  0  0
   23.8801  -21.5467  -14.3984 C   0  0  0  0  0  0  0  0  0  0  0  0
   25.2576  -21.0913  -13.9649 C   0  0  2  0  0  0  0  0  0  0  0  0
   26.3027  -21.6589  -14.7656 N   0  0  0  0  0  0  0  0  0  0  0  0
   25.5004  -21.4327  -12.5278 C   0  0  0  0  0  0  0  0  0  0  0  0
   26.3612  -22.3165  -12.2225 O   0  0  0  0  0  0  0  0  0  0  0  0
   21.3095  -22.9452  -17.6257 N   0  0  0  0  0  0  0  0  0  0  0  0
   24.8137  -20.8165  -11.4675 C   0  0  1  0  0  0  0  0  0  0  0  0
   25.1988  -21.0095  -10.0835 C   0  0  0  0  0  0  0  0  0  0  0  0
   26.6217  -20.6731   -9.8169 C   0  0  0  0  0  0  0  0  0  0  0  0
   26.7709  -20.2584   -8.4017 C   0  0  0  0  0  0  0  0  0  0  0  0
   25.7512  -20.0351   -7.4704 N   0  0  0  0  0  0  0  0  0  0  0  0
   26.2867  -19.6634   -6.2974 C   0  0  0  0  0  0  0  0  0  0  0  0
   27.6176  -19.6270   -6.3995 C   0  0  0  0  0  0  0  0  0  0  0  0
   28.6284  -19.3084   -5.4893 C   0  0  0  0  0  0  0  0  0  0  0  0
   29.9180  -19.3755   -5.9373 C   0  0  0  0  0  0  0  0  0  0  0  0
   30.2768  -19.7313   -7.2081 C   0  0  0  0  0  0  0  0  0  0  0  0
   29.2590  -20.0450   -8.1001 C   0  0  0  0  0  0  0  0  0  0  0  0
   27.9356  -19.9917   -7.6928 C   0  0  0  0  0  0  0  0  0  0  0  0
   24.3254  -20.2480   -9.1630 O   0  0  0  0  0  0  0  0  0  0  0  0
   23.7894  -19.1546   -9.4474 O   0  0  0  0  0  0  0  0  0  0  0  0
  1  2  1  0
  3  2  1  0
  3  4  1  1
  5  6  2  0
  5  3  1  0
  8  9  2  0
  8  7  1  0
 10  8  1  0
 11 12  1  0
 11 10  1  0
 13 12  1  0
 14 13  1  6
 14 15  1  0
 15  5  1  0
 16 14  1  0
 16 17  2  0
 18 16  1  0
 19 18  1  0
 19 30  1  0
 19 20  1  1
 21 20  1  0
 22 21  2  0
 23 22  1  0
 24 23  1  0
 24 29  2  0
 25 26  2  0
 25 24  1  0
 26 27  1  0
 27 28  2  0
 29 28  1  0
 29 21  1  0
 30 31  2  0
 30 32  1  0
M  END
$$$$
