SRW.pdb
     RDKit          3D

 32 33  0  0  1  0  0  0  0  0999 V2000
   27.3096  -23.7629  -17.2795 O   0  0  0  0  0  0  0  0  0  0  0  0
   27.9039  -22.9668  -18.2500 C   0  0  0  0  0  0  0  0  0  0  0  0
   29.0282  -22.1591  -17.6285 C   0  0  2  0  0  0  0  0  0  0  0  0
   30.0959  -23.1000  -17.2891 N   0  0  0  0  0  0  0  0  0  0  0  0
   28.5529  -21.5317  -16.3796 C   0  0  0  0  0  0  0  0  0  0  0  0
   29.0861  -21.8508  -15.2928 O   0  0  0  0  0  0  0  0  0  0  0  0
   26.9793  -13.8603  -15.0118 N   0  0  0  0  0  0  0  0  0  0  0  0
   26.7916  -14.7113  -16.1255 C   0  0  0  0  0  0  0  0  0  0  0  0
   27.2450  -14.4153  -17.2984 N   0  0  0  0  0  0  0  0  0  0  0  0
   26.0743  -15.9354  -15.9299 N   0  0  0  0  0  0  0  0  0  0  0  0
   25.6655  -16.3474  -14.6239 C   0  0  0  0  0  0  0  0  0  0  0  0
   26.2714  -17.6978  -14.3137 C   0  0  0  0  0  0  0  0  0  0  0  0
   26.6877  -18.4053  -15.5643 C   0  0  0  0  0  0  0  0  0  0  0  0
   27.2366  -19.7705  -15.2067 C   0  0  2  0  0  0  0  0  0  0  0  0
   27.5085  -20.5747  -16.3621 N   0  0  0  0  0  0  0  0  0  0  0  0
   26.2884  -20.5044  -14.3105 C   0  0  0  0  0  0  0  0  0  0  0  0
   25.1730  -20.9110  -14.7641 O   0  0  0  0  0  0  0  0  0  0  0  0
   27.1264  -14.9968  -18.1314 N   0  0  0  0  0  0  0  0  0  0  0  0
   26.5670  -20.7776  -12.9602 C   0  0  2  0  0  0  0  0  0  0  0  0
   25.6765  -21.5683  -12.1337 C   0  0  0  0  0  0  0  0  0  0  0  0
   26.3382  -22.1292  -10.9269 C   0  0  0  0  0  0  0  0  0  0  0  0
   26.3820  -21.0949   -9.8661 C   0  0  0  0  0  0  0  0  0  0  0  0
   25.3377  -20.2638   -9.4469 N   0  0  0  0  0  0  0  0  0  0  0  0
   25.7722  -19.4537   -8.4693 C   0  0  0  0  0  0  0  0  0  0  0  0
   27.0589  -19.7031   -8.2141 C   0  0  0  0  0  0  0  0  0  0  0  0
   27.9685  -19.1514   -7.3086 C   0  0  0  0  0  0  0  0  0  0  0  0
   29.2393  -19.6546   -7.3131 C   0  0  0  0  0  0  0  0  0  0  0  0
   29.6715  -20.6542   -8.1402 C   0  0  0  0  0  0  0  0  0  0  0  0
   28.7539  -21.1914   -9.0343 C   0  0  0  0  0  0  0  0  0  0  0  0
   27.4533  -20.7145   -9.0675 C   0  0  0  0  0  0  0  0  0  0  0  0
   24.4775  -20.7990  -11.7329 O   0  0  0  0  0  0  0  0  0  0  0  0
   24.4562  -19.5572  -11.5878 O   0  0  0  0  0  0  0  0  0  0  0  0
  1  2  1  0
  3  2  1  0
  3  4  1  1
  5  6  2  0
  5  3  1  0
  8  9  2  0
  8  7  1  0
 10  8  1  0
 11 12  1  0
 11 10  1  0
 13 12  1  0
 14 13  1  6
 14 15  1  0
 15  5  1  0
 16 14  1  0
 16 17  2  0
 18 16  1  0
 19 18  1  0
 19 30  1  0
 19 20  1  6
 21 20  1  0
 22 21  2  0
 23 22  1  0
 24 23  1  0
 24 29  2  0
 25 26  2  0
 25 24  1  0
 26 27  1  0
 27 28  2  0
 29 28  1  0
 29 21  1  0
 30 31  2  0
 30 32  1  0
M  END
$$$$
