SRW.pdb
     RDKit          3D

 32 33  0  0  1  0  0  0  0  0999 V2000
   24.1997  -13.8253  -15.8632 O   0  0  0  0  0  0  0  0  0  0  0  0
   25.5755  -13.6902  -15.7303 C   0  0  0  0  0  0  0  0  0  0  0  0
   26.2741  -14.5125  -16.7973 C   0  0  2  0  0  0  0  0  0  0  0  0
   25.7780  -14.0457  -18.0922 N   0  0  0  0  0  0  0  0  0  0  0  0
   25.9028  -15.9334  -16.6469 C   0  0  0  0  0  0  0  0  0  0  0  0
   25.0808  -16.4391  -17.4442 O   0  0  0  0  0  0  0  0  0  0  0  0
   25.2532  -21.8418  -11.7168 N   0  0  0  0  0  0  0  0  0  0  0  0
   25.7287  -22.7832  -12.6589 C   0  0  0  0  0  0  0  0  0  0  0  0
   25.1519  -23.9251  -12.8378 N   0  0  0  0  0  0  0  0  0  0  0  0
   26.8868  -22.4443  -13.4303 N   0  0  0  0  0  0  0  0  0  0  0  0
   27.3656  -21.0989  -13.4856 C   0  0  0  0  0  0  0  0  0  0  0  0
   26.4474  -20.2777  -14.3627 C   0  0  0  0  0  0  0  0  0  0  0  0
   27.0068  -18.9115  -14.6040 C   0  0  0  0  0  0  0  0  0  0  0  0
   26.0390  -18.1189  -15.4572 C   0  0  2  0  0  0  0  0  0  0  0  0
   26.4446  -16.7543  -15.6273 N   0  0  0  0  0  0  0  0  0  0  0  0
   24.6635  -18.1517  -14.8673 C   0  0  0  0  0  0  0  0  0  0  0  0
   24.4370  -17.5820  -13.7540 O   0  0  0  0  0  0  0  0  0  0  0  0
   25.4853  -24.6513  -13.4763 N   0  0  0  0  0  0  0  0  0  0  0  0
   23.5785  -18.7929  -15.4894 C   0  0  2  0  0  0  0  0  0  0  0  0
   22.2690  -18.8667  -14.8719 C   0  0  0  0  0  0  0  0  0  0  0  0
   21.1541  -18.6553  -15.8316 C   0  0  0  0  0  0  0  0  0  0  0  0
   21.0789  -17.2184  -16.1874 C   0  0  0  0  0  0  0  0  0  0  0  0
   21.9457  -16.1973  -15.7837 N   0  0  0  0  0  0  0  0  0  0  0  0
   21.5403  -15.0299  -16.3069 C   0  0  0  0  0  0  0  0  0  0  0  0
   20.4422  -15.2213  -17.0422 C   0  0  0  0  0  0  0  0  0  0  0  0
   19.6376  -14.3540  -17.7852 C   0  0  0  0  0  0  0  0  0  0  0  0
   18.5630  -14.8971  -18.4321 C   0  0  0  0  0  0  0  0  0  0  0  0
   18.2296  -16.2230  -18.3976 C   0  0  0  0  0  0  0  0  0  0  0  0
   19.0406  -17.0711  -17.6539 C   0  0  0  0  0  0  0  0  0  0  0  0
   20.1419  -16.5677  -16.9803 C   0  0  0  0  0  0  0  0  0  0  0  0
   22.0749  -20.1474  -14.1562 O   0  0  0  0  0  0  0  0  0  0  0  0
   22.8677  -21.1126  -14.2164 O   0  0  0  0  0  0  0  0  0  0  0  0
  1  2  1  0
  3  2  1  0
  3  4  1  6
  5  6  2  0
  5  3  1  0
  8  9  2  0
  8  7  1  0
 10  8  1  0
 11 12  1  0
 11 10  1  0
 13 12  1  0
 14 13  1  1
 14 15  1  0
 15  5  1  0
 16 14  1  0
 16 17  2  0
 18 16  1  0
 19 18  1  0
 19 30  1  0
 19 20  1  6
 21 20  1  0
 22 21  2  0
 23 22  1  0
 24 23  1  0
 24 29  2  0
 25 26  2  0
 25 24  1  0
 26 27  1  0
 27 28  2  0
 29 28  1  0
 29 21  1  0
 30 31  2  0
 30 32  1  0
M  END
$$$$
