SRW.pdb
     RDKit          3D

 32 33  0  0  1  0  0  0  0  0999 V2000
   29.2073  -21.5934  -18.3472 O   0  0  0  0  0  0  0  0  0  0  0  0
   29.1233  -21.6197  -16.9612 C   0  0  0  0  0  0  0  0  0  0  0  0
   28.7433  -23.0146  -16.4999 C   0  0  2  0  0  0  0  0  0  0  0  0
   29.5443  -23.9578  -17.2804 N   0  0  0  0  0  0  0  0  0  0  0  0
   27.3191  -23.2621  -16.7989 C   0  0  0  0  0  0  0  0  0  0  0  0
   26.9837  -23.5772  -17.9631 O   0  0  0  0  0  0  0  0  0  0  0  0
   28.0162  -27.3652  -17.9974 N   0  0  0  0  0  0  0  0  0  0  0  0
   27.1653  -27.9428  -17.0268 C   0  0  0  0  0  0  0  0  0  0  0  0
   27.6088  -28.7461  -16.1175 N   0  0  0  0  0  0  0  0  0  0  0  0
   25.7713  -27.6167  -17.0673 N   0  0  0  0  0  0  0  0  0  0  0  0
   25.2545  -26.7191  -18.0521 C   0  0  0  0  0  0  0  0  0  0  0  0
   25.5271  -25.2951  -17.6219 C   0  0  0  0  0  0  0  0  0  0  0  0
   24.7251  -24.9312  -16.4127 C   0  0  0  0  0  0  0  0  0  0  0  0
   24.9371  -23.4659  -16.0952 C   0  0  2  0  0  0  0  0  0  0  0  0
   26.3081  -23.1564  -15.8121 N   0  0  0  0  0  0  0  0  0  0  0  0
   24.0901  -23.0476  -14.9341 C   0  0  0  0  0  0  0  0  0  0  0  0
   24.2382  -23.6119  -13.8049 O   0  0  0  0  0  0  0  0  0  0  0  0
   27.0260  -29.2077  -15.4150 N   0  0  0  0  0  0  0  0  0  0  0  0
   23.1140  -22.0400  -15.0217 C   0  0  1  0  0  0  0  0  0  0  0  0
   22.5417  -21.4162  -13.8450 C   0  0  0  0  0  0  0  0  0  0  0  0
   23.5518  -20.7466  -12.9847 C   0  0  0  0  0  0  0  0  0  0  0  0
   24.3132  -19.7660  -13.7945 C   0  0  0  0  0  0  0  0  0  0  0  0
   23.7990  -18.8266  -14.6945 N   0  0  0  0  0  0  0  0  0  0  0  0
   24.8062  -18.1266  -15.2387 C   0  0  0  0  0  0  0  0  0  0  0  0
   25.9714  -18.5534  -14.7454 C   0  0  0  0  0  0  0  0  0  0  0  0
   27.2945  -18.1685  -14.9754 C   0  0  0  0  0  0  0  0  0  0  0  0
   28.2687  -18.8327  -14.2841 C   0  0  0  0  0  0  0  0  0  0  0  0
   28.0315  -19.8404  -13.3905 C   0  0  0  0  0  0  0  0  0  0  0  0
   26.7100  -20.2104  -13.1739 C   0  0  0  0  0  0  0  0  0  0  0  0
   25.6869  -19.5663  -13.8511 C   0  0  0  0  0  0  0  0  0  0  0  0
   21.4746  -20.4549  -14.2017 O   0  0  0  0  0  0  0  0  0  0  0  0
   21.1922  -20.1224  -15.3736 O   0  0  0  0  0  0  0  0  0  0  0  0
  1  2  1  0
  3  2  1  0
  3  4  1  6
  5  6  2  0
  5  3  1  0
  8  9  2  0
  8  7  1  0
 10  8  1  0
 11 12  1  0
 11 10  1  0
 13 12  1  0
 14 13  1  1
 14 15  1  0
 15  5  1  0
 16 14  1  0
 16 17  2  0
 18 16  1  0
 19 18  1  0
 19 30  1  0
 19 20  1  1
 21 20  1  0
 22 21  2  0
 23 22  1  0
 24 23  1  0
 24 29  2  0
 25 26  2  0
 25 24  1  0
 26 27  1  0
 27 28  2  0
 29 28  1  0
 29 21  1  0
 30 31  2  0
 30 32  1  0
M  END
$$$$
