SRW.pdb
     RDKit          3D

 32 33  0  0  1  0  0  0  0  0999 V2000
   33.9931  -35.0309   -5.5878 O   0  0  0  0  0  0  0  0  0  0  0  0
   34.2377  -36.0863   -6.4567 C   0  0  0  0  0  0  0  0  0  0  0  0
   33.0982  -36.2017   -7.4523 C   0  0  2  0  0  0  0  0  0  0  0  0
   33.1128  -34.9847   -8.2642 N   0  0  0  0  0  0  0  0  0  0  0  0
   31.8135  -36.2564   -6.7273 C   0  0  0  0  0  0  0  0  0  0  0  0
   31.0695  -35.2495   -6.7232 O   0  0  0  0  0  0  0  0  0  0  0  0
   28.4121  -43.7156   -4.6416 N   0  0  0  0  0  0  0  0  0  0  0  0
   29.6779  -43.2084   -5.0161 C   0  0  0  0  0  0  0  0  0  0  0  0
   30.7460  -43.9341   -4.9768 N   0  0  0  0  0  0  0  0  0  0  0  0
   29.7609  -41.8460   -5.4499 N   0  0  0  0  0  0  0  0  0  0  0  0
   28.5847  -41.0469   -5.5927 C   0  0  0  0  0  0  0  0  0  0  0  0
   28.9748  -39.6638   -6.0636 C   0  0  0  0  0  0  0  0  0  0  0  0
   29.7496  -38.9321   -5.0138 C   0  0  0  0  0  0  0  0  0  0  0  0
   30.0570  -37.5329   -5.5042 C   0  0  2  0  0  0  0  0  0  0  0  0
   31.3854  -37.4130   -6.0300 N   0  0  0  0  0  0  0  0  0  0  0  0
   29.8727  -36.5339   -4.4048 C   0  0  0  0  0  0  0  0  0  0  0  0
   30.5912  -36.6022   -3.3586 O   0  0  0  0  0  0  0  0  0  0  0  0
   31.6780  -43.6122   -5.2486 N   0  0  0  0  0  0  0  0  0  0  0  0
   28.9261  -35.4966   -4.4632 C   0  0  2  0  0  0  0  0  0  0  0  0
   28.7645  -34.5384   -3.3875 C   0  0  0  0  0  0  0  0  0  0  0  0
   28.7177  -33.1294   -3.8577 C   0  0  0  0  0  0  0  0  0  0  0  0
   27.4769  -32.9141   -4.6394 C   0  0  0  0  0  0  0  0  0  0  0  0
   26.1582  -33.0094   -4.1825 N   0  0  0  0  0  0  0  0  0  0  0  0
   25.3124  -32.7523   -5.1920 C   0  0  0  0  0  0  0  0  0  0  0  0
   26.0030  -32.4892   -6.3042 C   0  0  0  0  0  0  0  0  0  0  0  0
   25.6132  -32.1668   -7.6064 C   0  0  0  0  0  0  0  0  0  0  0  0
   26.6053  -31.9557   -8.5226 C   0  0  0  0  0  0  0  0  0  0  0  0
   27.9422  -32.0397   -8.2468 C   0  0  0  0  0  0  0  0  0  0  0  0
   28.3119  -32.3614   -6.9469 C   0  0  0  0  0  0  0  0  0  0  0  0
   27.3424  -32.5844   -5.9824 C   0  0  0  0  0  0  0  0  0  0  0  0
   27.5654  -34.8318   -2.5712 O   0  0  0  0  0  0  0  0  0  0  0  0
   27.2573  -34.2137   -1.5288 O   0  0  0  0  0  0  0  0  0  0  0  0
  1  2  1  0
  3  2  1  0
  3  4  1  6
  5  6  2  0
  5  3  1  0
  8  9  2  0
  8  7  1  0
 10  8  1  0
 11 12  1  0
 11 10  1  0
 13 12  1  0
 14 13  1  1
 14 15  1  0
 15  5  1  0
 16 14  1  0
 16 17  2  0
 18 16  1  0
 19 18  1  0
 19 30  1  0
 19 20  1  6
 21 20  1  0
 22 21  2  0
 23 22  1  0
 24 23  1  0
 24 29  2  0
 25 26  2  0
 25 24  1  0
 26 27  1  0
 27 28  2  0
 29 28  1  0
 29 21  1  0
 30 31  2  0
 30 32  1  0
M  END
$$$$
