SRW.pdb
     RDKit          3D

 32 33  0  0  1  0  0  0  0  0999 V2000
   20.8121  -18.6998  -11.3056 O   0  0  0  0  0  0  0  0  0  0  0  0
   20.8418  -18.8175  -12.6891 C   0  0  0  0  0  0  0  0  0  0  0  0
   20.9553  -20.2809  -13.0740 C   0  0  2  0  0  0  0  0  0  0  0  0
   19.8046  -20.9692  -12.4887 N   0  0  0  0  0  0  0  0  0  0  0  0
   22.1824  -20.8522  -12.4847 C   0  0  0  0  0  0  0  0  0  0  0  0
   22.1526  -21.2880  -11.3115 O   0  0  0  0  0  0  0  0  0  0  0  0
   28.1146  -24.6649  -15.7654 N   0  0  0  0  0  0  0  0  0  0  0  0
   26.9009  -25.3904  -15.7445 C   0  0  0  0  0  0  0  0  0  0  0  0
   26.8698  -26.6691  -15.5635 N   0  0  0  0  0  0  0  0  0  0  0  0
   25.6773  -24.6700  -15.9315 N   0  0  0  0  0  0  0  0  0  0  0  0
   25.6554  -23.2411  -15.9144 C   0  0  0  0  0  0  0  0  0  0  0  0
   24.7443  -22.7689  -14.8036 C   0  0  0  0  0  0  0  0  0  0  0  0
   25.5138  -22.0548  -13.7379 C   0  0  0  0  0  0  0  0  0  0  0  0
   24.5580  -21.5842  -12.6620 C   0  0  2  0  0  0  0  0  0  0  0  0
   23.4027  -20.9275  -13.2004 N   0  0  0  0  0  0  0  0  0  0  0  0
   25.2477  -20.6592  -11.7083 C   0  0  0  0  0  0  0  0  0  0  0  0
   24.6382  -19.6364  -11.2637 O   0  0  0  0  0  0  0  0  0  0  0  0
   26.0146  -27.2246  -15.4845 N   0  0  0  0  0  0  0  0  0  0  0  0
   26.5658  -20.8610  -11.2637 C   0  0  2  0  0  0  0  0  0  0  0  0
   27.0619  -20.2792  -10.0322 C   0  0  0  0  0  0  0  0  0  0  0  0
   26.3044  -20.7141   -8.8298 C   0  0  0  0  0  0  0  0  0  0  0  0
   26.7640  -19.9384   -7.6534 C   0  0  0  0  0  0  0  0  0  0  0  0
   26.7095  -18.5518   -7.4766 N   0  0  0  0  0  0  0  0  0  0  0  0
   27.2314  -18.2294   -6.2831 C   0  0  0  0  0  0  0  0  0  0  0  0
   27.6332  -19.3355   -5.6520 C   0  0  0  0  0  0  0  0  0  0  0  0
   28.2318  -19.5511   -4.4083 C   0  0  0  0  0  0  0  0  0  0  0  0
   28.5180  -20.8433   -4.0671 C   0  0  0  0  0  0  0  0  0  0  0  0
   28.2575  -21.9273   -4.8591 C   0  0  0  0  0  0  0  0  0  0  0  0
   27.6619  -21.6947   -6.0925 C   0  0  0  0  0  0  0  0  0  0  0  0
   27.3526  -20.4018   -6.4833 C   0  0  0  0  0  0  0  0  0  0  0  0
   28.5031  -20.5553   -9.8404 O   0  0  0  0  0  0  0  0  0  0  0  0
   29.1102  -21.5142  -10.3653 O   0  0  0  0  0  0  0  0  0  0  0  0
  1  2  1  0
  3  2  1  0
  3  4  1  1
  5  6  2  0
  5  3  1  0
  8  9  2  0
  8  7  1  0
 10  8  1  0
 11 12  1  0
 11 10  1  0
 13 12  1  0
 14 13  1  6
 14 15  1  0
 15  5  1  0
 16 14  1  0
 16 17  2  0
 18 16  1  0
 19 18  1  0
 19 30  1  0
 19 20  1  1
 21 20  1  0
 22 21  2  0
 23 22  1  0
 24 23  1  0
 24 29  2  0
 25 26  2  0
 25 24  1  0
 26 27  1  0
 27 28  2  0
 29 28  1  0
 29 21  1  0
 30 31  2  0
 30 32  1  0
M  END
$$$$
