SRW.pdb
     RDKit          3D

 32 33  0  0  1  0  0  0  0  0999 V2000
   30.5766  -19.5938  -15.0831 O   0  0  0  0  0  0  0  0  0  0  0  0
   29.4586  -19.7814  -14.2808 C   0  0  0  0  0  0  0  0  0  0  0  0
   28.2112  -19.8149  -15.1443 C   0  0  2  0  0  0  0  0  0  0  0  0
   28.0577  -18.4823  -15.7284 N   0  0  0  0  0  0  0  0  0  0  0  0
   27.0324  -20.0854  -14.2978 C   0  0  0  0  0  0  0  0  0  0  0  0
   26.4450  -19.1293  -13.7427 O   0  0  0  0  0  0  0  0  0  0  0  0
   24.9884  -24.3709  -17.6355 N   0  0  0  0  0  0  0  0  0  0  0  0
   25.4034  -25.3042  -16.6574 C   0  0  0  0  0  0  0  0  0  0  0  0
   26.4182  -26.0825  -16.8398 N   0  0  0  0  0  0  0  0  0  0  0  0
   24.6647  -25.3761  -15.4326 N   0  0  0  0  0  0  0  0  0  0  0  0
   23.6238  -24.4397  -15.1457 C   0  0  0  0  0  0  0  0  0  0  0  0
   24.2341  -23.0848  -14.8656 C   0  0  0  0  0  0  0  0  0  0  0  0
   24.8008  -23.0208  -13.4827 C   0  0  0  0  0  0  0  0  0  0  0  0
   25.3987  -21.6491  -13.2509 C   0  0  2  0  0  0  0  0  0  0  0  0
   26.5353  -21.3951  -14.0870 N   0  0  0  0  0  0  0  0  0  0  0  0
   25.7967  -21.4801  -11.8178 C   0  0  0  0  0  0  0  0  0  0  0  0
   26.9736  -21.7838  -11.4462 O   0  0  0  0  0  0  0  0  0  0  0  0
   26.7042  -26.8252  -16.1973 N   0  0  0  0  0  0  0  0  0  0  0  0
   24.9215  -20.9920  -10.8322 C   0  0  1  0  0  0  0  0  0  0  0  0
   25.2852  -20.9512   -9.4296 C   0  0  0  0  0  0  0  0  0  0  0  0
   26.5966  -20.2978   -9.1812 C   0  0  0  0  0  0  0  0  0  0  0  0
   26.7900  -20.1249   -7.7218 C   0  0  0  0  0  0  0  0  0  0  0  0
   25.7985  -20.0152   -6.7411 N   0  0  0  0  0  0  0  0  0  0  0  0
   26.3714  -19.8608   -5.5374 C   0  0  0  0  0  0  0  0  0  0  0  0
   27.7005  -19.8620   -5.6660 C   0  0  0  0  0  0  0  0  0  0  0  0
   28.7409  -19.7365   -4.7422 C   0  0  0  0  0  0  0  0  0  0  0  0
   30.0178  -19.7818   -5.2277 C   0  0  0  0  0  0  0  0  0  0  0  0
   30.3372  -19.9406   -6.5480 C   0  0  0  0  0  0  0  0  0  0  0  0
   29.2902  -20.0638   -7.4528 C   0  0  0  0  0  0  0  0  0  0  0  0
   27.9782  -20.0242   -7.0089 C   0  0  0  0  0  0  0  0  0  0  0  0
   24.2389  -20.2957   -8.6137 O   0  0  0  0  0  0  0  0  0  0  0  0
   24.3046  -20.1492   -7.3736 O   0  0  0  0  0  0  0  0  0  0  0  0
  1  2  1  0
  3  2  1  0
  3  4  1  1
  5  6  2  0
  5  3  1  0
  8  9  2  0
  8  7  1  0
 10  8  1  0
 11 12  1  0
 11 10  1  0
 13 12  1  0
 14 13  1  1
 14 15  1  0
 15  5  1  0
 16 14  1  0
 16 17  2  0
 18 16  1  0
 19 18  1  0
 19 30  1  0
 19 20  1  1
 21 20  1  0
 22 21  2  0
 23 22  1  0
 24 23  1  0
 24 29  2  0
 25 26  2  0
 25 24  1  0
 26 27  1  0
 27 28  2  0
 29 28  1  0
 29 21  1  0
 30 31  2  0
 30 32  1  0
M  END
$$$$
