SRW.pdb
     RDKit          3D

 32 33  0  0  1  0  0  0  0  0999 V2000
   27.6520  -18.1087  -14.6493 O   0  0  0  0  0  0  0  0  0  0  0  0
   28.5994  -17.4880  -15.4531 C   0  0  0  0  0  0  0  0  0  0  0  0
   28.6700  -18.1928  -16.7951 C   0  0  2  0  0  0  0  0  0  0  0  0
   28.1086  -17.2787  -17.7900 N   0  0  0  0  0  0  0  0  0  0  0  0
   27.8307  -19.4067  -16.7595 C   0  0  0  0  0  0  0  0  0  0  0  0
   26.7008  -19.3858  -17.2982 O   0  0  0  0  0  0  0  0  0  0  0  0
   25.7404  -26.8059  -18.2971 N   0  0  0  0  0  0  0  0  0  0  0  0
   26.5966  -27.2622  -17.2682 C   0  0  0  0  0  0  0  0  0  0  0  0
   26.3435  -28.3323  -16.5902 N   0  0  0  0  0  0  0  0  0  0  0  0
   27.7765  -26.5028  -16.9818 N   0  0  0  0  0  0  0  0  0  0  0  0
   28.0521  -25.2832  -17.6740 C   0  0  0  0  0  0  0  0  0  0  0  0
   27.3540  -24.1410  -16.9706 C   0  0  0  0  0  0  0  0  0  0  0  0
   28.2557  -22.9550  -16.8361 C   0  0  0  0  0  0  0  0  0  0  0  0
   27.4874  -21.8123  -16.2063 C   0  0  2  0  0  0  0  0  0  0  0  0
   28.2568  -20.6046  -16.1346 N   0  0  0  0  0  0  0  0  0  0  0  0
   27.0232  -22.1802  -14.8316 C   0  0  0  0  0  0  0  0  0  0  0  0
   27.6994  -22.9972  -14.1311 O   0  0  0  0  0  0  0  0  0  0  0  0
   26.8743  -28.6416  -15.7724 N   0  0  0  0  0  0  0  0  0  0  0  0
   25.8515  -21.6611  -14.2543 C   0  0  1  0  0  0  0  0  0  0  0  0
   25.6961  -21.5182  -12.8202 C   0  0  0  0  0  0  0  0  0  0  0  0
   26.7924  -20.7415  -12.1848 C   0  0  0  0  0  0  0  0  0  0  0  0
   26.5552  -20.6634  -10.7237 C   0  0  0  0  0  0  0  0  0  0  0  0
   25.3286  -20.5064  -10.0698 N   0  0  0  0  0  0  0  0  0  0  0  0
   25.5272  -20.4712   -8.7432 C   0  0  0  0  0  0  0  0  0  0  0  0
   26.8298  -20.5973   -8.4777 C   0  0  0  0  0  0  0  0  0  0  0  0
   27.5543  -20.6228   -7.2835 C   0  0  0  0  0  0  0  0  0  0  0  0
   28.9100  -20.7692   -7.3770 C   0  0  0  0  0  0  0  0  0  0  0  0
   29.5945  -20.8911   -8.5546 C   0  0  0  0  0  0  0  0  0  0  0  0
   28.8584  -20.8638   -9.7325 C   0  0  0  0  0  0  0  0  0  0  0  0
   27.4812  -20.7173   -9.6893 C   0  0  0  0  0  0  0  0  0  0  0  0
   24.3904  -20.9158  -12.4704 O   0  0  0  0  0  0  0  0  0  0  0  0
   24.0246  -19.7754  -12.8296 O   0  0  0  0  0  0  0  0  0  0  0  0
  1  2  1  0
  3  2  1  0
  3  4  1  6
  5  6  2  0
  5  3  1  0
  8  9  2  0
  8  7  1  0
 10  8  1  0
 11 12  1  0
 11 10  1  0
 13 12  1  0
 14 13  1  1
 14 15  1  0
 15  5  1  0
 16 14  1  0
 16 17  2  0
 18 16  1  0
 19 18  1  0
 19 30  1  0
 19 20  1  1
 21 20  1  0
 22 21  2  0
 23 22  1  0
 24 23  1  0
 24 29  2  0
 25 26  2  0
 25 24  1  0
 26 27  1  0
 27 28  2  0
 29 28  1  0
 29 21  1  0
 30 31  2  0
 30 32  1  0
M  END
$$$$
