SRW.pdb
     RDKit          3D

 32 33  0  0  1  0  0  0  0  0999 V2000
   26.3765  -17.7926  -14.2639 O   0  0  0  0  0  0  0  0  0  0  0  0
   27.7258  -17.6893  -14.5764 C   0  0  0  0  0  0  0  0  0  0  0  0
   28.2303  -19.0199  -15.1034 C   0  0  2  0  0  0  0  0  0  0  0  0
   27.3922  -19.3732  -16.2494 N   0  0  0  0  0  0  0  0  0  0  0  0
   28.0569  -20.0582  -14.0684 C   0  0  0  0  0  0  0  0  0  0  0  0
   27.0431  -20.7919  -14.1011 O   0  0  0  0  0  0  0  0  0  0  0  0
   33.8601  -24.3289  -11.3049 N   0  0  0  0  0  0  0  0  0  0  0  0
   33.6246  -24.1461  -12.6873 C   0  0  0  0  0  0  0  0  0  0  0  0
   33.9637  -25.0328  -13.5634 N   0  0  0  0  0  0  0  0  0  0  0  0
   32.9897  -22.9347  -13.1123 N   0  0  0  0  0  0  0  0  0  0  0  0
   32.3151  -22.0907  -12.1768 C   0  0  0  0  0  0  0  0  0  0  0  0
   30.8780  -22.5420  -12.0432 C   0  0  0  0  0  0  0  0  0  0  0  0
   30.0733  -21.5612  -11.2506 C   0  0  0  0  0  0  0  0  0  0  0  0
   28.7994  -21.2373  -12.0022 C   0  0  2  0  0  0  0  0  0  0  0  0
   29.0004  -20.2589  -13.0308 N   0  0  0  0  0  0  0  0  0  0  0  0
   27.7395  -20.7512  -11.0635 C   0  0  0  0  0  0  0  0  0  0  0  0
   27.5486  -19.5036  -10.9135 O   0  0  0  0  0  0  0  0  0  0  0  0
   33.8129  -24.9420  -14.5710 N   0  0  0  0  0  0  0  0  0  0  0  0
   26.9209  -21.6170  -10.3180 C   0  0  1  0  0  0  0  0  0  0  0  0
   25.8667  -21.1269   -9.4522 C   0  0  0  0  0  0  0  0  0  0  0  0
   26.2662  -19.9381   -8.6548 C   0  0  0  0  0  0  0  0  0  0  0  0
   26.3484  -20.3128   -7.2231 C   0  0  0  0  0  0  0  0  0  0  0  0
   25.5863  -21.2752   -6.5522 N   0  0  0  0  0  0  0  0  0  0  0  0
   25.9489  -21.3162   -5.2609 C   0  0  0  0  0  0  0  0  0  0  0  0
   26.9184  -20.4261   -5.0353 C   0  0  0  0  0  0  0  0  0  0  0  0
   27.6321  -20.0746   -3.8869 C   0  0  0  0  0  0  0  0  0  0  0  0
   28.5791  -19.0971   -4.0133 C   0  0  0  0  0  0  0  0  0  0  0  0
   28.8686  -18.4484   -5.1819 C   0  0  0  0  0  0  0  0  0  0  0  0
   28.1493  -18.8104   -6.3140 C   0  0  0  0  0  0  0  0  0  0  0  0
   27.1787  -19.7963   -6.2362 C   0  0  0  0  0  0  0  0  0  0  0  0
   24.6328  -20.8261  -10.2119 O   0  0  0  0  0  0  0  0  0  0  0  0
   23.5363  -20.5374   -9.6844 O   0  0  0  0  0  0  0  0  0  0  0  0
  1  2  1  0
  3  2  1  0
  3  4  1  6
  5  6  2  0
  5  3  1  0
  8  9  2  0
  8  7  1  0
 10  8  1  0
 11 12  1  0
 11 10  1  0
 13 12  1  0
 14 13  1  1
 14 15  1  0
 15  5  1  0
 16 14  1  0
 16 17  2  0
 18 16  1  0
 19 18  1  0
 19 30  1  0
 19 20  1  1
 21 20  1  0
 22 21  2  0
 23 22  1  0
 24 23  1  0
 24 29  2  0
 25 26  2  0
 25 24  1  0
 26 27  1  0
 27 28  2  0
 29 28  1  0
 29 21  1  0
 30 31  2  0
 30 32  1  0
M  END
$$$$
