EIT.pdb
     RDKit          3D

 25 24  0  0  1  0  0  0  0  0999 V2000
    8.0950  -14.4861   20.4163 N   0  0  0  0  0  0  0  0  0  0  0  0
    7.4900  -15.2219   21.4555 C   0  0  1  0  0  0  0  0  0  0  0  0
    7.3224  -16.6647   21.1658 C   0  0  0  0  0  0  0  0  0  0  0  0
    7.1923  -16.9559   19.7165 C   0  0  0  0  0  0  0  0  0  0  0  0
    6.8733  -18.3393   19.3559 C   0  0  0  0  0  0  0  0  0  0  0  0
    5.7930  -18.7728   18.9049 O   0  0  0  0  0  0  0  0  0  0  0  0
    8.1305  -14.9899   22.7889 C   0  0  0  0  0  0  0  0  0  0  0  0
    9.4025  -14.9108   22.8907 O   0  0  0  0  0  0  0  0  0  0  0  0
    7.8586  -19.3573   19.5101 O   0  0  0  0  0  0  0  0  0  0  0  0
    6.0232  -11.5531   26.4016 C   0  0  0  0  0  0  0  0  0  0  0  0
    7.0048  -12.3377   25.5597 C   0  0  0  0  0  0  0  0  0  0  0  0
    7.4610  -13.6239   26.1585 C   0  0  2  0  0  0  0  0  0  0  0  0
    8.2255  -13.4139   27.4629 C   0  0  0  0  0  0  0  0  0  0  0  0
    8.0620  -14.6265   25.2750 C   0  0  2  0  0  0  0  0  0  0  0  0
    7.4597  -14.8426   23.9999 N   0  0  0  0  0  0  0  0  0  0  0  0
    8.3518  -15.8819   25.9970 C   0  0  0  0  0  0  0  0  0  0  0  0
    7.4138  -16.5590   26.5546 O   0  0  0  0  0  0  0  0  0  0  0  0
    9.8385  -19.0818   24.5998 C   0  0  0  0  0  0  0  0  0  0  0  0
   10.5918  -18.7025   25.8274 C   0  0  1  0  0  0  0  0  0  0  0  0
   11.7711  -18.0475   25.4738 O   0  0  0  0  0  0  0  0  0  0  0  0
    9.8376  -17.7789   26.7668 C   0  0  2  0  0  0  0  0  0  0  0  0
    9.6342  -16.4713   26.1563 N   0  0  0  0  0  0  0  0  0  0  0  0
   10.5562  -17.5947   28.0338 C   0  0  0  0  0  0  0  0  0  0  0  0
   10.7814  -18.5721   28.9866 O   0  0  0  0  0  0  0  0  0  0  0  0
   11.0257  -16.4373   28.3075 O   0  0  0  0  0  0  0  0  0  0  0  0
  2  1  1  6
  3  2  1  0
  4  3  1  0
  5  4  1  0
  6  5  2  0
  7  2  1  0
  7  8  2  0
  9  5  1  0
 10 11  1  0
 11 12  1  0
 12 14  1  0
 12 13  1  1
 14 15  1  6
 15  7  1  0
 16 14  1  0
 17 16  2  0
 19 20  1  0
 19 18  1  6
 21 22  1  6
 21 19  1  0
 22 16  1  0
 23 21  1  0
 24 23  1  0
 25 23  2  0
M  END
$$$$
