EIT.pdb
     RDKit          3D

 25 24  0  0  1  0  0  0  0  0999 V2000
    7.8052  -14.1835   20.2241 N   0  0  0  0  0  0  0  0  0  0  0  0
    7.3346  -14.9696   21.2955 C   0  0  1  0  0  0  0  0  0  0  0  0
    7.2910  -16.4231   21.0144 C   0  0  0  0  0  0  0  0  0  0  0  0
    6.6906  -16.7430   19.6956 C   0  0  0  0  0  0  0  0  0  0  0  0
    6.5886  -18.1635   19.3533 C   0  0  0  0  0  0  0  0  0  0  0  0
    6.2131  -18.6545   18.2688 O   0  0  0  0  0  0  0  0  0  0  0  0
    8.0249  -14.6708   22.5902 C   0  0  0  0  0  0  0  0  0  0  0  0
    9.2860  -14.4624   22.6180 O   0  0  0  0  0  0  0  0  0  0  0  0
    6.9419  -19.1521   20.3171 O   0  0  0  0  0  0  0  0  0  0  0  0
    5.9141  -11.4691   26.4452 C   0  0  0  0  0  0  0  0  0  0  0  0
    6.9145  -12.1504   25.5379 C   0  0  0  0  0  0  0  0  0  0  0  0
    7.4367  -13.4524   26.0411 C   0  0  2  0  0  0  0  0  0  0  0  0
    8.2069  -13.2979   27.3499 C   0  0  0  0  0  0  0  0  0  0  0  0
    8.0720  -14.3621   25.0842 C   0  0  2  0  0  0  0  0  0  0  0  0
    7.4144  -14.5900   23.8389 N   0  0  0  0  0  0  0  0  0  0  0  0
    8.5212  -15.6085   25.7367 C   0  0  0  0  0  0  0  0  0  0  0  0
    7.6789  -16.4264   26.2573 O   0  0  0  0  0  0  0  0  0  0  0  0
   11.9469  -19.2029   26.1403 C   0  0  0  0  0  0  0  0  0  0  0  0
   11.3922  -17.9389   25.5811 C   0  0  1  0  0  0  0  0  0  0  0  0
   10.9259  -18.1606   24.2857 O   0  0  0  0  0  0  0  0  0  0  0  0
   10.2361  -17.3557   26.3734 C   0  0  2  0  0  0  0  0  0  0  0  0
    9.8681  -16.0412   25.8630 N   0  0  0  0  0  0  0  0  0  0  0  0
   10.5696  -17.2258   27.7974 C   0  0  0  0  0  0  0  0  0  0  0  0
   10.5488  -18.2470   28.7304 O   0  0  0  0  0  0  0  0  0  0  0  0
   10.9122  -16.0772   28.2425 O   0  0  0  0  0  0  0  0  0  0  0  0
  2  1  1  6
  3  2  1  0
  4  3  1  0
  5  4  1  0
  6  5  2  0
  7  2  1  0
  7  8  2  0
  9  5  1  0
 10 11  1  0
 11 12  1  0
 12 14  1  0
 12 13  1  1
 14 15  1  6
 15  7  1  0
 16 14  1  0
 17 16  2  0
 19 20  1  0
 19 18  1  1
 21 22  1  6
 21 19  1  0
 22 16  1  0
 23 21  1  0
 24 23  1  0
 25 23  2  0
M  END
$$$$
