EIT.pdb
     RDKit          3D

 25 24  0  0  1  0  0  0  0  0999 V2000
    9.2710  -14.8099   20.6503 N   0  0  0  0  0  0  0  0  0  0  0  0
    8.6631  -15.6493   21.6058 C   0  0  1  0  0  0  0  0  0  0  0  0
    8.8214  -17.0972   21.3365 C   0  0  0  0  0  0  0  0  0  0  0  0
    8.5495  -17.4593   19.9233 C   0  0  0  0  0  0  0  0  0  0  0  0
    8.7047  -18.8726   19.5713 C   0  0  0  0  0  0  0  0  0  0  0  0
    8.2130  -19.8567   20.1613 O   0  0  0  0  0  0  0  0  0  0  0  0
    9.0315  -15.2989   23.0141 C   0  0  0  0  0  0  0  0  0  0  0  0
   10.2415  -15.0171   23.3153 O   0  0  0  0  0  0  0  0  0  0  0  0
    9.4904  -19.2395   18.4404 O   0  0  0  0  0  0  0  0  0  0  0  0
    6.0172  -11.9862   25.9612 C   0  0  0  0  0  0  0  0  0  0  0  0
    7.1943  -12.7183   25.3559 C   0  0  0  0  0  0  0  0  0  0  0  0
    7.6589  -13.9079   26.1240 C   0  0  2  0  0  0  0  0  0  0  0  0
    8.1632  -13.5349   27.5157 C   0  0  0  0  0  0  0  0  0  0  0  0
    8.4952  -14.8951   25.4363 C   0  0  2  0  0  0  0  0  0  0  0  0
    8.1556  -15.2423   24.0949 N   0  0  0  0  0  0  0  0  0  0  0  0
    8.7572  -16.0722   26.2889 C   0  0  0  0  0  0  0  0  0  0  0  0
    7.7932  -16.7630   26.7816 O   0  0  0  0  0  0  0  0  0  0  0  0
   10.6939  -19.2272   25.3591 C   0  0  0  0  0  0  0  0  0  0  0  0
   11.1916  -18.7285   26.6712 C   0  0  1  0  0  0  0  0  0  0  0  0
   12.3778  -18.0186   26.4872 O   0  0  0  0  0  0  0  0  0  0  0  0
   10.2310  -17.8039   27.3970 C   0  0  2  0  0  0  0  0  0  0  0  0
   10.0385  -16.5667   26.6512 N   0  0  0  0  0  0  0  0  0  0  0  0
   10.7186  -17.4667   28.7404 C   0  0  0  0  0  0  0  0  0  0  0  0
   11.0601  -16.2016   29.1840 O   0  0  0  0  0  0  0  0  0  0  0  0
   10.8500  -18.4070   29.5968 O   0  0  0  0  0  0  0  0  0  0  0  0
  2  1  1  6
  3  2  1  0
  4  3  1  0
  5  4  1  0
  6  5  2  0
  7  2  1  0
  7  8  2  0
  9  5  1  0
 10 11  1  0
 11 12  1  0
 12 14  1  0
 12 13  1  1
 14 15  1  6
 15  7  1  0
 16 14  1  0
 17 16  2  0
 19 20  1  0
 19 18  1  6
 21 22  1  6
 21 19  1  0
 22 16  1  0
 23 21  1  0
 24 23  1  0
 25 23  2  0
M  END
$$$$
