EIT.pdb
     RDKit          3D

 25 24  0  0  1  0  0  0  0  0999 V2000
    7.8642  -13.2836   20.0585 N   0  0  0  0  0  0  0  0  0  0  0  0
    7.1858  -14.0982   20.9876 C   0  0  1  0  0  0  0  0  0  0  0  0
    6.8750  -15.4599   20.4945 C   0  0  0  0  0  0  0  0  0  0  0  0
    7.7466  -15.8850   19.3712 C   0  0  0  0  0  0  0  0  0  0  0  0
    7.5055  -17.2246   18.8303 C   0  0  0  0  0  0  0  0  0  0  0  0
    7.0903  -17.5156   17.6895 O   0  0  0  0  0  0  0  0  0  0  0  0
    7.8430  -14.1271   22.3327 C   0  0  0  0  0  0  0  0  0  0  0  0
    9.1176  -14.1139   22.4305 O   0  0  0  0  0  0  0  0  0  0  0  0
    7.7514  -18.3712   19.6403 O   0  0  0  0  0  0  0  0  0  0  0  0
    5.7672  -11.5019   26.7238 C   0  0  0  0  0  0  0  0  0  0  0  0
    6.6566  -12.0889   25.6502 C   0  0  0  0  0  0  0  0  0  0  0  0
    7.1660  -13.4602   25.9345 C   0  0  2  0  0  0  0  0  0  0  0  0
    7.9259  -13.5308   27.2565 C   0  0  0  0  0  0  0  0  0  0  0  0
    7.8038  -14.2037   24.8448 C   0  0  2  0  0  0  0  0  0  0  0  0
    7.1858  -14.1695   23.5594 N   0  0  0  0  0  0  0  0  0  0  0  0
    8.1829  -15.5671   25.2673 C   0  0  0  0  0  0  0  0  0  0  0  0
    7.2912  -16.4425   25.5637 O   0  0  0  0  0  0  0  0  0  0  0  0
   10.3322  -17.9585   23.1602 C   0  0  0  0  0  0  0  0  0  0  0  0
   10.8312  -17.9497   24.5635 C   0  0  1  0  0  0  0  0  0  0  0  0
   11.9397  -17.1097   24.6648 O   0  0  0  0  0  0  0  0  0  0  0  0
    9.8181  -17.4704   25.5873 C   0  0  2  0  0  0  0  0  0  0  0  0
    9.5094  -16.0597   25.3906 N   0  0  0  0  0  0  0  0  0  0  0  0
   10.3100  -17.6526   26.9587 C   0  0  0  0  0  0  0  0  0  0  0  0
   10.5559  -18.8659   27.5763 O   0  0  0  0  0  0  0  0  0  0  0  0
   10.5389  -16.6143   27.6689 O   0  0  0  0  0  0  0  0  0  0  0  0
  2  1  1  6
  3  2  1  0
  4  3  1  0
  5  4  1  0
  6  5  2  0
  7  2  1  0
  7  8  2  0
  9  5  1  0
 10 11  1  0
 11 12  1  0
 12 14  1  0
 12 13  1  1
 14 15  1  6
 15  7  1  0
 16 14  1  0
 17 16  2  0
 19 20  1  0
 19 18  1  6
 21 22  1  6
 21 19  1  0
 22 16  1  0
 23 21  1  0
 24 23  1  0
 25 23  2  0
M  END
$$$$
