EIT.pdb
     RDKit          3D

 25 24  0  0  1  0  0  0  0  0999 V2000
   10.6377  -17.0639   15.7271 N   0  0  0  0  0  0  0  0  0  0  0  0
    9.7486  -17.4104   16.7647 C   0  0  1  0  0  0  0  0  0  0  0  0
    9.6659  -18.8636   17.0391 C   0  0  0  0  0  0  0  0  0  0  0  0
    9.6745  -19.6899   15.8066 C   0  0  0  0  0  0  0  0  0  0  0  0
    9.5416  -21.1369   15.9912 C   0  0  0  0  0  0  0  0  0  0  0  0
   10.3971  -22.0120   15.7450 O   0  0  0  0  0  0  0  0  0  0  0  0
    9.9679  -16.6167   18.0152 C   0  0  0  0  0  0  0  0  0  0  0  0
   11.1497  -16.2834   18.3711 O   0  0  0  0  0  0  0  0  0  0  0  0
    8.3276  -21.6773   16.5063 O   0  0  0  0  0  0  0  0  0  0  0  0
    6.6731  -12.4746   19.7499 C   0  0  0  0  0  0  0  0  0  0  0  0
    7.8502  -13.3593   19.4038 C   0  0  0  0  0  0  0  0  0  0  0  0
    8.1761  -14.4000   20.4195 C   0  0  2  0  0  0  0  0  0  0  0  0
    8.3540  -13.8083   21.8152 C   0  0  0  0  0  0  0  0  0  0  0  0
    9.1736  -15.4169   20.0761 C   0  0  2  0  0  0  0  0  0  0  0  0
    8.9738  -16.1754   18.8844 N   0  0  0  0  0  0  0  0  0  0  0  0
    9.5183  -16.2544   21.2428 C   0  0  0  0  0  0  0  0  0  0  0  0
    8.6841  -17.1076   21.7175 O   0  0  0  0  0  0  0  0  0  0  0  0
   13.0109  -18.4024   24.0863 C   0  0  0  0  0  0  0  0  0  0  0  0
   12.5552  -17.5402   22.9606 C   0  0  1  0  0  0  0  0  0  0  0  0
   12.7771  -18.1915   21.7476 O   0  0  0  0  0  0  0  0  0  0  0  0
   11.0820  -17.1769   23.0043 C   0  0  2  0  0  0  0  0  0  0  0  0
   10.7502  -16.2277   21.9493 N   0  0  0  0  0  0  0  0  0  0  0  0
   10.7105  -16.5860   24.2960 C   0  0  0  0  0  0  0  0  0  0  0  0
   10.3157  -17.2851   25.4227 O   0  0  0  0  0  0  0  0  0  0  0  0
   10.7447  -15.3137   24.4187 O   0  0  0  0  0  0  0  0  0  0  0  0
  2  1  1  6
  3  2  1  0
  4  3  1  0
  5  4  1  0
  6  5  2  0
  7  2  1  0
  7  8  2  0
  9  5  1  0
 10 11  1  0
 11 12  1  0
 12 14  1  0
 12 13  1  1
 14 15  1  6
 15  7  1  0
 16 14  1  0
 17 16  2  0
 19 20  1  0
 19 18  1  1
 21 22  1  6
 21 19  1  0
 22 16  1  0
 23 21  1  0
 24 23  1  0
 25 23  2  0
M  END
$$$$
