EIT.pdb
     RDKit          3D

 25 24  0  0  1  0  0  0  0  0999 V2000
    8.9019  -18.3814   15.9916 N   0  0  0  0  0  0  0  0  0  0  0  0
    8.1304  -18.2200   17.1604 C   0  0  1  0  0  0  0  0  0  0  0  0
    7.7414  -19.4897   17.8164 C   0  0  0  0  0  0  0  0  0  0  0  0
    8.7762  -20.5467   17.6979 C   0  0  0  0  0  0  0  0  0  0  0  0
    8.4462  -21.8498   18.2799 C   0  0  0  0  0  0  0  0  0  0  0  0
    8.1199  -22.8890   17.6701 O   0  0  0  0  0  0  0  0  0  0  0  0
    8.7305  -17.2502   18.1306 C   0  0  0  0  0  0  0  0  0  0  0  0
    9.9967  -17.0786   18.1744 O   0  0  0  0  0  0  0  0  0  0  0  0
    8.4816  -22.0241   19.6939 O   0  0  0  0  0  0  0  0  0  0  0  0
    7.8073  -11.7909   20.7908 C   0  0  0  0  0  0  0  0  0  0  0  0
    8.5723  -13.0953   20.7550 C   0  0  0  0  0  0  0  0  0  0  0  0
    7.8736  -14.2166   20.0654 C   0  0  2  0  0  0  0  0  0  0  0  0
    6.4260  -14.3648   20.5263 C   0  0  0  0  0  0  0  0  0  0  0  0
    8.5818  -15.4911   19.9197 C   0  0  2  0  0  0  0  0  0  0  0  0
    8.0259  -16.4697   19.0430 N   0  0  0  0  0  0  0  0  0  0  0  0
    8.9744  -16.0465   21.2306 C   0  0  0  0  0  0  0  0  0  0  0  0
    8.0934  -16.3458   22.1158 O   0  0  0  0  0  0  0  0  0  0  0  0
   10.4239  -19.3932   21.8877 C   0  0  0  0  0  0  0  0  0  0  0  0
   11.3096  -18.3728   22.5141 C   0  0  1  0  0  0  0  0  0  0  0  0
   12.3552  -18.0589   21.6464 O   0  0  0  0  0  0  0  0  0  0  0  0
   10.6164  -17.0678   22.8615 C   0  0  2  0  0  0  0  0  0  0  0  0
   10.3035  -16.3098   21.6567 N   0  0  0  0  0  0  0  0  0  0  0  0
   11.4487  -16.2311   23.7351 C   0  0  0  0  0  0  0  0  0  0  0  0
   11.7372  -16.4848   25.0642 O   0  0  0  0  0  0  0  0  0  0  0  0
   11.9648  -15.1662   23.2509 O   0  0  0  0  0  0  0  0  0  0  0  0
  2  1  1  6
  3  2  1  0
  4  3  1  0
  5  4  1  0
  6  5  2  0
  7  2  1  0
  7  8  2  0
  9  5  1  0
 10 11  1  0
 11 12  1  0
 12 14  1  0
 12 13  1  1
 14 15  1  1
 15  7  1  0
 16 14  1  0
 17 16  2  0
 19 20  1  0
 19 18  1  6
 21 22  1  6
 21 19  1  0
 22 16  1  0
 23 21  1  0
 24 23  1  0
 25 23  2  0
M  END
$$$$
