EIT.pdb
     RDKit          3D

 25 24  0  0  1  0  0  0  0  0999 V2000
    8.4344  -14.4073   20.0075 N   0  0  0  0  0  0  0  0  0  0  0  0
    7.5610  -14.8743   21.0106 C   0  0  1  0  0  0  0  0  0  0  0  0
    7.0339  -16.2384   20.7757 C   0  0  0  0  0  0  0  0  0  0  0  0
    8.0849  -17.2849   20.8252 C   0  0  0  0  0  0  0  0  0  0  0  0
    7.6485  -18.6593   20.5681 C   0  0  0  0  0  0  0  0  0  0  0  0
    8.3494  -19.6920   20.5934 O   0  0  0  0  0  0  0  0  0  0  0  0
    8.1177  -14.7201   22.3920 C   0  0  0  0  0  0  0  0  0  0  0  0
    9.3809  -14.7467   22.5872 O   0  0  0  0  0  0  0  0  0  0  0  0
    6.2849  -18.9220   20.2478 O   0  0  0  0  0  0  0  0  0  0  0  0
    5.6395  -11.4760   26.1093 C   0  0  0  0  0  0  0  0  0  0  0  0
    6.6368  -12.1858   25.2208 C   0  0  0  0  0  0  0  0  0  0  0  0
    7.1817  -13.4570   25.7758 C   0  0  2  0  0  0  0  0  0  0  0  0
    7.8813  -13.2482   27.1163 C   0  0  0  0  0  0  0  0  0  0  0  0
    7.8960  -14.3603   24.8698 C   0  0  2  0  0  0  0  0  0  0  0  0
    7.3731  -14.5410   23.5547 N   0  0  0  0  0  0  0  0  0  0  0  0
    8.2414  -15.6334   25.5339 C   0  0  0  0  0  0  0  0  0  0  0  0
    7.3309  -16.4701   25.8804 O   0  0  0  0  0  0  0  0  0  0  0  0
   10.2894  -18.5560   24.2523 C   0  0  0  0  0  0  0  0  0  0  0  0
   10.8155  -18.1565   25.5871 C   0  0  1  0  0  0  0  0  0  0  0  0
   11.9427  -17.3508   25.4282 O   0  0  0  0  0  0  0  0  0  0  0  0
    9.8324  -17.3777   26.4423 C   0  0  2  0  0  0  0  0  0  0  0  0
    9.5533  -16.0736   25.8546 N   0  0  0  0  0  0  0  0  0  0  0  0
   10.3443  -17.1752   27.8034 C   0  0  0  0  0  0  0  0  0  0  0  0
   10.5956  -18.1709   28.7305 O   0  0  0  0  0  0  0  0  0  0  0  0
   10.5873  -15.9822   28.1939 O   0  0  0  0  0  0  0  0  0  0  0  0
  2  1  1  6
  3  2  1  0
  4  3  1  0
  5  4  1  0
  6  5  2  0
  7  2  1  0
  7  8  2  0
  9  5  1  0
 10 11  1  0
 11 12  1  0
 12 14  1  0
 12 13  1  1
 14 15  1  6
 15  7  1  0
 16 14  1  0
 17 16  2  0
 19 20  1  0
 19 18  1  6
 21 22  1  6
 21 19  1  0
 22 16  1  0
 23 21  1  0
 24 23  1  0
 25 23  2  0
M  END
$$$$
