EIT.pdb
     RDKit          3D

 25 24  0  0  1  0  0  0  0  0999 V2000
    8.4127  -14.4572   20.2921 N   0  0  0  0  0  0  0  0  0  0  0  0
    7.7502  -15.1817   21.3038 C   0  0  1  0  0  0  0  0  0  0  0  0
    7.6519  -16.6374   21.0490 C   0  0  0  0  0  0  0  0  0  0  0  0
    7.1181  -16.9576   19.7019 C   0  0  0  0  0  0  0  0  0  0  0  0
    6.9708  -18.3790   19.3803 C   0  0  0  0  0  0  0  0  0  0  0  0
    7.8771  -19.2338   19.3009 O   0  0  0  0  0  0  0  0  0  0  0  0
    8.2745  -14.8881   22.6752 C   0  0  0  0  0  0  0  0  0  0  0  0
    9.5319  -14.7756   22.8768 O   0  0  0  0  0  0  0  0  0  0  0  0
    5.6771  -18.9161   19.1178 O   0  0  0  0  0  0  0  0  0  0  0  0
    5.9118  -11.4558   26.2870 C   0  0  0  0  0  0  0  0  0  0  0  0
    6.8123  -12.2859   25.3992 C   0  0  0  0  0  0  0  0  0  0  0  0
    7.2936  -13.5596   26.0051 C   0  0  2  0  0  0  0  0  0  0  0  0
    7.9644  -13.3374   27.3581 C   0  0  0  0  0  0  0  0  0  0  0  0
    7.9972  -14.5150   25.1454 C   0  0  2  0  0  0  0  0  0  0  0  0
    7.5039  -14.7141   23.8217 N   0  0  0  0  0  0  0  0  0  0  0  0
    8.2754  -15.7802   25.8545 C   0  0  0  0  0  0  0  0  0  0  0  0
    7.3236  -16.4920   26.3409 O   0  0  0  0  0  0  0  0  0  0  0  0
    9.9946  -18.7827   24.3305 C   0  0  0  0  0  0  0  0  0  0  0  0
   10.6179  -18.5137   25.6562 C   0  0  1  0  0  0  0  0  0  0  0  0
   11.8140  -17.8180   25.4829 O   0  0  0  0  0  0  0  0  0  0  0  0
    9.7592  -17.6892   26.5981 C   0  0  2  0  0  0  0  0  0  0  0  0
    9.5605  -16.3435   26.0751 N   0  0  0  0  0  0  0  0  0  0  0  0
   10.3671  -17.5859   27.9306 C   0  0  0  0  0  0  0  0  0  0  0  0
   10.8279  -16.4235   28.5226 O   0  0  0  0  0  0  0  0  0  0  0  0
   10.4957  -18.6499   28.6280 O   0  0  0  0  0  0  0  0  0  0  0  0
  2  1  1  6
  3  2  1  0
  4  3  1  0
  5  4  1  0
  6  5  2  0
  7  2  1  0
  7  8  2  0
  9  5  1  0
 10 11  1  0
 11 12  1  0
 12 14  1  0
 12 13  1  1
 14 15  1  6
 15  7  1  0
 16 14  1  0
 17 16  2  0
 19 20  1  0
 19 18  1  6
 21 22  1  6
 21 19  1  0
 22 16  1  0
 23 21  1  0
 24 23  1  0
 25 23  2  0
M  END
$$$$
