EIT.pdb
     RDKit          3D

 25 24  0  0  1  0  0  0  0  0999 V2000
    8.8046  -14.7777   20.5774 N   0  0  0  0  0  0  0  0  0  0  0  0
    8.0622  -15.3694   21.6195 C   0  0  1  0  0  0  0  0  0  0  0  0
    7.8509  -16.8275   21.4682 C   0  0  0  0  0  0  0  0  0  0  0  0
    7.9934  -17.2938   20.0666 C   0  0  0  0  0  0  0  0  0  0  0  0
    7.6876  -18.7039   19.8146 C   0  0  0  0  0  0  0  0  0  0  0  0
    7.3593  -19.5677   20.6539 O   0  0  0  0  0  0  0  0  0  0  0  0
    8.5774  -15.0172   22.9805 C   0  0  0  0  0  0  0  0  0  0  0  0
    9.8330  -14.8880   23.1835 O   0  0  0  0  0  0  0  0  0  0  0  0
    7.7507  -19.2167   18.4864 O   0  0  0  0  0  0  0  0  0  0  0  0
    5.6836  -11.7211   26.1937 C   0  0  0  0  0  0  0  0  0  0  0  0
    6.8715  -12.3375   25.4886 C   0  0  0  0  0  0  0  0  0  0  0  0
    7.4952  -13.4911   26.1965 C   0  0  2  0  0  0  0  0  0  0  0  0
    8.1623  -13.0730   27.5043 C   0  0  0  0  0  0  0  0  0  0  0  0
    8.2807  -14.4459   25.4102 C   0  0  2  0  0  0  0  0  0  0  0  0
    7.7998  -14.8026   24.1153 N   0  0  0  0  0  0  0  0  0  0  0  0
    8.6823  -15.6143   26.2192 C   0  0  0  0  0  0  0  0  0  0  0  0
    7.8097  -16.4426   26.6684 O   0  0  0  0  0  0  0  0  0  0  0  0
   10.9258  -18.5075   25.2089 C   0  0  0  0  0  0  0  0  0  0  0  0
   11.3965  -17.9764   26.5183 C   0  0  1  0  0  0  0  0  0  0  0  0
   12.4851  -17.1278   26.3195 O   0  0  0  0  0  0  0  0  0  0  0  0
   10.3534  -17.1850   27.2865 C   0  0  2  0  0  0  0  0  0  0  0  0
   10.0124  -15.9555   26.5822 N   0  0  0  0  0  0  0  0  0  0  0  0
   10.8253  -16.8352   28.6322 C   0  0  0  0  0  0  0  0  0  0  0  0
   11.1499  -17.7315   29.6349 O   0  0  0  0  0  0  0  0  0  0  0  0
   10.9561  -15.5992   28.9320 O   0  0  0  0  0  0  0  0  0  0  0  0
  2  1  1  6
  3  2  1  0
  4  3  1  0
  5  4  1  0
  6  5  2  0
  7  2  1  0
  7  8  2  0
  9  5  1  0
 10 11  1  0
 11 12  1  0
 12 14  1  0
 12 13  1  1
 14 15  1  6
 15  7  1  0
 16 14  1  0
 17 16  2  0
 19 20  1  0
 19 18  1  6
 21 22  1  6
 21 19  1  0
 22 16  1  0
 23 21  1  0
 24 23  1  0
 25 23  2  0
M  END
$$$$
