EIT.pdb
     RDKit          3D

 25 24  0  0  1  0  0  0  0  0999 V2000
    8.0391  -14.0240   20.0481 N   0  0  0  0  0  0  0  0  0  0  0  0
    7.2490  -14.5808   21.0742 C   0  0  1  0  0  0  0  0  0  0  0  0
    6.7512  -15.9465   20.7897 C   0  0  0  0  0  0  0  0  0  0  0  0
    7.7507  -16.7979   20.0983 C   0  0  0  0  0  0  0  0  0  0  0  0
    7.3436  -18.1743   19.8062 C   0  0  0  0  0  0  0  0  0  0  0  0
    7.7812  -19.2193   20.3304 O   0  0  0  0  0  0  0  0  0  0  0  0
    7.8903  -14.4893   22.4241 C   0  0  0  0  0  0  0  0  0  0  0  0
    9.1636  -14.5050   22.5379 O   0  0  0  0  0  0  0  0  0  0  0  0
    6.3402  -18.4238   18.8254 O   0  0  0  0  0  0  0  0  0  0  0  0
    5.8167  -11.3544   26.4259 C   0  0  0  0  0  0  0  0  0  0  0  0
    6.7625  -12.0586   25.4787 C   0  0  0  0  0  0  0  0  0  0  0  0
    7.2041  -13.4120   25.9197 C   0  0  2  0  0  0  0  0  0  0  0  0
    7.9416  -13.3712   27.2555 C   0  0  0  0  0  0  0  0  0  0  0  0
    7.8216  -14.2978   24.9294 C   0  0  2  0  0  0  0  0  0  0  0  0
    7.2189  -14.3832   23.6392 N   0  0  0  0  0  0  0  0  0  0  0  0
    8.1393  -15.6194   25.5070 C   0  0  0  0  0  0  0  0  0  0  0  0
    7.2111  -16.4009   25.9275 O   0  0  0  0  0  0  0  0  0  0  0  0
    9.8902  -18.6118   23.8950 C   0  0  0  0  0  0  0  0  0  0  0  0
   10.5448  -18.3053   25.1972 C   0  0  1  0  0  0  0  0  0  0  0  0
   11.7012  -17.5569   24.9795 O   0  0  0  0  0  0  0  0  0  0  0  0
    9.6815  -17.5141   26.1633 C   0  0  2  0  0  0  0  0  0  0  0  0
    9.4406  -16.1676   25.6605 N   0  0  0  0  0  0  0  0  0  0  0  0
   10.3085  -17.4118   27.4870 C   0  0  0  0  0  0  0  0  0  0  0  0
   10.5706  -18.4668   28.3426 O   0  0  0  0  0  0  0  0  0  0  0  0
   10.6522  -16.2562   27.9128 O   0  0  0  0  0  0  0  0  0  0  0  0
  2  1  1  6
  3  2  1  0
  4  3  1  0
  5  4  1  0
  6  5  2  0
  7  2  1  0
  7  8  2  0
  9  5  1  0
 10 11  1  0
 11 12  1  0
 12 14  1  0
 12 13  1  1
 14 15  1  6
 15  7  1  0
 16 14  1  0
 17 16  2  0
 19 20  1  0
 19 18  1  6
 21 22  1  6
 21 19  1  0
 22 16  1  0
 23 21  1  0
 24 23  1  0
 25 23  2  0
M  END
$$$$
