FQK.pdb
     RDKit          3D

 30 30  0  0  1  0  0  0  0  0999 V2000
   28.6271  -21.2603   -9.3285 N   0  0  0  0  0  0  0  0  0  0  0  0
   27.2265  -20.8856   -9.2524 C   0  0  1  0  0  0  0  0  0  0  0  0
   27.1646  -19.4711   -8.7224 C   0  0  0  0  0  0  0  0  0  0  0  0
   27.5058  -19.4683   -7.2906 C   0  0  0  0  0  0  0  0  0  0  0  0
   26.6808  -20.0128   -6.3223 C   0  0  0  0  0  0  0  0  0  0  0  0
   26.9902  -20.0148   -4.9799 C   0  0  0  0  0  0  0  0  0  0  0  0
   28.1777  -19.4504   -4.5601 C   0  0  0  0  0  0  0  0  0  0  0  0
   29.0204  -18.9023   -5.4840 C   0  0  0  0  0  0  0  0  0  0  0  0
   28.6916  -18.9102   -6.8272 C   0  0  0  0  0  0  0  0  0  0  0  0
   26.5941  -21.0122  -10.5834 C   0  0  0  0  0  0  0  0  0  0  0  0
   27.2632  -20.8169  -11.6233 O   0  0  0  0  0  0  0  0  0  0  0  0
   26.0392  -23.6284  -14.4239 N   0  0  0  0  0  0  0  0  0  0  0  0
   24.6372  -23.6967  -14.5854 C   0  0  0  0  0  0  0  0  0  0  0  0
   24.1739  -24.0088  -15.7075 O   0  0  0  0  0  0  0  0  0  0  0  0
   23.7593  -23.4102  -13.4425 C   0  0  0  0  0  0  0  0  0  0  0  0
   24.4171  -22.9527  -12.1912 C   0  0  0  0  0  0  0  0  0  0  0  0
   24.6166  -21.5001  -11.9914 C   0  0  2  0  0  0  0  0  0  0  0  0
   25.2359  -21.3535  -10.6657 N   0  0  0  0  0  0  0  0  0  0  0  0
   23.4770  -20.5966  -12.0994 C   0  0  0  0  0  0  0  0  0  0  0  0
   22.6949  -20.3002  -11.1594 O   0  0  0  0  0  0  0  0  0  0  0  0
   23.1357  -19.9415  -13.3469 N   0  0  0  0  0  0  0  0  0  0  0  0
   21.9825  -19.0890  -13.4726 C   0  0  1  0  0  0  0  0  0  0  0  0
   21.8796  -18.3627  -14.7688 C   0  0  0  0  0  0  0  0  0  0  0  0
   20.7574  -17.3553  -14.8419 C   0  0  0  0  0  0  0  0  0  0  0  0
   20.7960  -16.5996  -16.1527 C   0  0  0  0  0  0  0  0  0  0  0  0
   19.6460  -15.6162  -16.2511 C   0  0  0  0  0  0  0  0  0  0  0  0
   19.7810  -14.9112  -17.5313 N   0  0  0  0  0  0  0  0  0  0  0  0
   20.7127  -19.8917  -13.3339 C   0  0  0  0  0  0  0  0  0  0  0  0
   19.6986  -19.3399  -12.5578 O   0  0  0  0  0  0  0  0  0  0  0  0
   20.6187  -20.9929  -13.9047 O   0  0  0  0  0  0  0  0  0  0  0  0
  2  1  1  6
  2 10  1  0
  3  2  1  0
  3  4  1  0
  4  5  2  0
  5  6  1  0
  7  6  2  0
  8  7  1  0
  9  4  1  0
  9  8  2  0
 10 11  2  0
 12 13  1  0
 13 15  1  0
 14 13  2  0
 16 15  1  0
 17 16  1  1
 17 19  1  0
 18 17  1  0
 18 10  1  0
 19 21  1  0
 19 20  2  0
 21 22  1  0
 22 28  1  0
 22 23  1  6
 24 25  1  0
 24 23  1  0
 26 25  1  0
 27 26  1  0
 28 30  2  0
 28 29  1  0
M  END
$$$$
