FQK.pdb
     RDKit          3D

 30 30  0  0  1  0  0  0  0  0999 V2000
   27.7220  -22.1556  -11.3175 N   0  0  0  0  0  0  0  0  0  0  0  0
   26.7021  -21.3108  -10.7224 C   0  0  1  0  0  0  0  0  0  0  0  0
   27.3082  -19.9398  -10.5259 C   0  0  0  0  0  0  0  0  0  0  0  0
   27.8107  -19.8184   -9.1478 C   0  0  0  0  0  0  0  0  0  0  0  0
   29.0395  -20.3160   -8.7513 C   0  0  0  0  0  0  0  0  0  0  0  0
   29.5189  -20.2083   -7.4644 C   0  0  0  0  0  0  0  0  0  0  0  0
   28.7499  -19.5760   -6.5084 C   0  0  0  0  0  0  0  0  0  0  0  0
   27.5308  -19.0708   -6.8585 C   0  0  0  0  0  0  0  0  0  0  0  0
   27.0672  -19.1891   -8.1559 C   0  0  0  0  0  0  0  0  0  0  0  0
   25.5043  -21.2738  -11.5891 C   0  0  0  0  0  0  0  0  0  0  0  0
   25.6134  -21.4287  -12.8266 O   0  0  0  0  0  0  0  0  0  0  0  0
   20.1068  -22.9340   -9.0709 N   0  0  0  0  0  0  0  0  0  0  0  0
   19.7007  -22.6868  -10.4014 C   0  0  0  0  0  0  0  0  0  0  0  0
   18.5192  -22.9471  -10.7295 O   0  0  0  0  0  0  0  0  0  0  0  0
   20.6613  -22.1276  -11.3625 C   0  0  0  0  0  0  0  0  0  0  0  0
   22.0387  -21.8782  -10.8641 C   0  0  0  0  0  0  0  0  0  0  0  0
   23.0382  -21.3257  -11.8051 C   0  0  2  0  0  0  0  0  0  0  0  0
   24.2454  -21.0626  -11.0075 N   0  0  0  0  0  0  0  0  0  0  0  0
   22.7075  -20.1437  -12.5926 C   0  0  0  0  0  0  0  0  0  0  0  0
   22.5711  -18.9806  -12.1325 O   0  0  0  0  0  0  0  0  0  0  0  0
   22.4978  -20.2132  -14.0255 N   0  0  0  0  0  0  0  0  0  0  0  0
   22.1284  -19.0582  -14.8013 C   0  0  1  0  0  0  0  0  0  0  0  0
   22.6598  -19.0430  -16.1927 C   0  0  0  0  0  0  0  0  0  0  0  0
   22.3299  -17.7989  -16.9820 C   0  0  0  0  0  0  0  0  0  0  0  0
   22.9810  -17.8388  -18.3477 C   0  0  0  0  0  0  0  0  0  0  0  0
   22.8248  -16.5130  -19.0669 C   0  0  0  0  0  0  0  0  0  0  0  0
   23.5466  -16.6180  -20.3406 N   0  0  0  0  0  0  0  0  0  0  0  0
   20.6278  -18.9569  -14.9190 C   0  0  0  0  0  0  0  0  0  0  0  0
   20.0809  -17.6779  -14.9368 O   0  0  0  0  0  0  0  0  0  0  0  0
   19.9477  -19.9957  -14.9941 O   0  0  0  0  0  0  0  0  0  0  0  0
  2  1  1  6
  2 10  1  0
  3  2  1  0
  3  4  1  0
  4  5  2  0
  5  6  1  0
  7  6  2  0
  8  7  1  0
  9  4  1  0
  9  8  2  0
 10 11  2  0
 12 13  1  0
 13 15  1  0
 14 13  2  0
 16 15  1  0
 17 16  1  1
 17 19  1  0
 18 17  1  0
 18 10  1  0
 19 21  1  0
 19 20  2  0
 21 22  1  0
 22 28  1  0
 22 23  1  6
 24 25  1  0
 24 23  1  0
 26 25  1  0
 27 26  1  0
 28 30  2  0
 28 29  1  0
M  END
$$$$
