FQK.pdb
     RDKit          3D

 30 30  0  0  1  0  0  0  0  0999 V2000
   25.1915  -19.1811   -8.4097 N   0  0  0  0  0  0  0  0  0  0  0  0
   26.3426  -19.8286   -9.0127 C   0  0  1  0  0  0  0  0  0  0  0  0
   26.7511  -20.9646   -8.1027 C   0  0  0  0  0  0  0  0  0  0  0  0
   27.2939  -20.4178   -6.8486 C   0  0  0  0  0  0  0  0  0  0  0  0
   28.5678  -19.8862   -6.7518 C   0  0  0  0  0  0  0  0  0  0  0  0
   29.0856  -19.3726   -5.5832 C   0  0  0  0  0  0  0  0  0  0  0  0
   28.3107  -19.3797   -4.4411 C   0  0  0  0  0  0  0  0  0  0  0  0
   27.0475  -19.8954   -4.4939 C   0  0  0  0  0  0  0  0  0  0  0  0
   26.5459  -20.4063   -5.6769 C   0  0  0  0  0  0  0  0  0  0  0  0
   26.0062  -20.2964  -10.3748 C   0  0  0  0  0  0  0  0  0  0  0  0
   24.8142  -20.3308  -10.7559 O   0  0  0  0  0  0  0  0  0  0  0  0
   27.6703  -17.9571  -13.6923 N   0  0  0  0  0  0  0  0  0  0  0  0
   28.0486  -18.7160  -14.8224 C   0  0  0  0  0  0  0  0  0  0  0  0
   28.1863  -18.1316  -15.9227 O   0  0  0  0  0  0  0  0  0  0  0  0
   28.2779  -20.1608  -14.6839 C   0  0  0  0  0  0  0  0  0  0  0  0
   28.1338  -20.7338  -13.3206 C   0  0  0  0  0  0  0  0  0  0  0  0
   26.7980  -20.7088  -12.6843 C   0  0  2  0  0  0  0  0  0  0  0  0
   27.0390  -20.7009  -11.2336 N   0  0  0  0  0  0  0  0  0  0  0  0
   25.8267  -21.7464  -13.0111 C   0  0  0  0  0  0  0  0  0  0  0  0
   25.5896  -22.7644  -12.3108 O   0  0  0  0  0  0  0  0  0  0  0  0
   25.0246  -21.6906  -14.2175 N   0  0  0  0  0  0  0  0  0  0  0  0
   23.6541  -22.1305  -14.2457 C   0  0  1  0  0  0  0  0  0  0  0  0
   22.7643  -21.4699  -13.2506 C   0  0  0  0  0  0  0  0  0  0  0  0
   21.3514  -22.0010  -13.2149 C   0  0  0  0  0  0  0  0  0  0  0  0
   20.5221  -21.2579  -12.1899 C   0  0  0  0  0  0  0  0  0  0  0  0
   19.1300  -21.8490  -12.0802 C   0  0  0  0  0  0  0  0  0  0  0  0
   18.4044  -21.0751  -11.0659 N   0  0  0  0  0  0  0  0  0  0  0  0
   23.0423  -21.8714  -15.6001 C   0  0  0  0  0  0  0  0  0  0  0  0
   22.3799  -22.9333  -16.2073 O   0  0  0  0  0  0  0  0  0  0  0  0
   23.1488  -20.7440  -16.1148 O   0  0  0  0  0  0  0  0  0  0  0  0
  2  1  1  1
  2 10  1  0
  3  2  1  0
  3  4  1  0
  4  5  2  0
  5  6  1  0
  7  6  2  0
  8  7  1  0
  9  4  1  0
  9  8  2  0
 10 11  2  0
 12 13  1  0
 13 15  1  0
 14 13  2  0
 16 15  1  0
 17 16  1  6
 17 19  1  0
 18 17  1  0
 18 10  1  0
 19 21  1  0
 19 20  2  0
 21 22  1  0
 22 28  1  0
 22 23  1  1
 24 25  1  0
 24 23  1  0
 26 25  1  0
 27 26  1  0
 28 30  2  0
 28 29  1  0
M  END
$$$$
