FQK.pdb
     RDKit          3D

 30 30  0  0  1  0  0  0  0  0999 V2000
   29.5459  -19.3387  -12.6295 N   0  0  0  0  0  0  0  0  0  0  0  0
   28.8699  -20.4788  -13.2219 C   0  0  1  0  0  0  0  0  0  0  0  0
   28.4375  -21.3857  -12.0923 C   0  0  0  0  0  0  0  0  0  0  0  0
   29.6237  -21.8546  -11.3579 C   0  0  0  0  0  0  0  0  0  0  0  0
   29.8333  -21.5793  -10.0181 C   0  0  0  0  0  0  0  0  0  0  0  0
   30.9400  -22.0126   -9.3216 C   0  0  0  0  0  0  0  0  0  0  0  0
   31.8989  -22.7599   -9.9752 C   0  0  0  0  0  0  0  0  0  0  0  0
   31.7301  -23.0536  -11.2979 C   0  0  0  0  0  0  0  0  0  0  0  0
   30.6120  -22.6093  -11.9794 C   0  0  0  0  0  0  0  0  0  0  0  0
   27.7266  -20.0217  -14.0412 C   0  0  0  0  0  0  0  0  0  0  0  0
   27.0003  -19.0818  -13.6457 O   0  0  0  0  0  0  0  0  0  0  0  0
   28.9742  -21.4643  -18.7409 N   0  0  0  0  0  0  0  0  0  0  0  0
   27.6827  -21.3476  -19.3017 C   0  0  0  0  0  0  0  0  0  0  0  0
   27.4160  -21.9947  -20.3415 O   0  0  0  0  0  0  0  0  0  0  0  0
   26.6853  -20.4835  -18.6555 C   0  0  0  0  0  0  0  0  0  0  0  0
   27.1134  -19.7726  -17.4229 C   0  0  0  0  0  0  0  0  0  0  0  0
   26.4317  -20.0977  -16.1503 C   0  0  2  0  0  0  0  0  0  0  0  0
   27.4663  -20.6544  -15.2658 N   0  0  0  0  0  0  0  0  0  0  0  0
   25.2726  -20.9826  -16.1615 C   0  0  0  0  0  0  0  0  0  0  0  0
   25.3136  -22.2331  -16.0293 O   0  0  0  0  0  0  0  0  0  0  0  0
   23.9253  -20.4761  -16.3351 N   0  0  0  0  0  0  0  0  0  0  0  0
   22.7807  -21.3480  -16.3824 C   0  0  1  0  0  0  0  0  0  0  0  0
   21.4636  -20.6554  -16.3186 C   0  0  0  0  0  0  0  0  0  0  0  0
   20.2642  -21.5678  -16.4119 C   0  0  0  0  0  0  0  0  0  0  0  0
   18.9811  -20.7671  -16.4696 C   0  0  0  0  0  0  0  0  0  0  0  0
   17.7682  -21.6771  -16.4708 C   0  0  0  0  0  0  0  0  0  0  0  0
   16.5845  -20.8287  -16.6533 N   0  0  0  0  0  0  0  0  0  0  0  0
   22.7775  -22.1492  -17.6607 C   0  0  0  0  0  0  0  0  0  0  0  0
   23.6267  -21.7213  -18.6760 O   0  0  0  0  0  0  0  0  0  0  0  0
   22.0334  -23.1410  -17.7602 O   0  0  0  0  0  0  0  0  0  0  0  0
  2  1  1  1
  2 10  1  0
  3  2  1  0
  3  4  1  0
  4  5  2  0
  5  6  1  0
  7  6  2  0
  8  7  1  0
  9  4  1  0
  9  8  2  0
 10 11  2  0
 12 13  1  0
 13 15  1  0
 14 13  2  0
 16 15  1  0
 17 16  1  6
 17 19  1  0
 18 17  1  0
 18 10  1  0
 19 21  1  0
 19 20  2  0
 21 22  1  0
 22 28  1  0
 22 23  1  6
 24 25  1  0
 24 23  1  0
 26 25  1  0
 27 26  1  0
 28 30  2  0
 28 29  1  0
M  END
$$$$
