FQK.pdb
     RDKit          3D

 30 30  0  0  1  0  0  0  0  0999 V2000
   30.3086  -29.0604  -21.1094 N   0  0  0  0  0  0  0  0  0  0  0  0
   29.1444  -28.6739  -20.3327 C   0  0  1  0  0  0  0  0  0  0  0  0
   28.0840  -28.2120  -21.3061 C   0  0  0  0  0  0  0  0  0  0  0  0
   28.5731  -27.0350  -22.0424 C   0  0  0  0  0  0  0  0  0  0  0  0
   28.8504  -27.0607  -23.3979 C   0  0  0  0  0  0  0  0  0  0  0  0
   29.3090  -25.9654  -24.0962 C   0  0  0  0  0  0  0  0  0  0  0  0
   29.5081  -24.7740  -23.4285 C   0  0  0  0  0  0  0  0  0  0  0  0
   29.2462  -24.7064  -22.0902 C   0  0  0  0  0  0  0  0  0  0  0  0
   28.7864  -25.8172  -21.4069 C   0  0  0  0  0  0  0  0  0  0  0  0
   28.6864  -29.8106  -19.5046 C   0  0  0  0  0  0  0  0  0  0  0  0
   28.8973  -30.9881  -19.8738 O   0  0  0  0  0  0  0  0  0  0  0  0
   29.5749  -32.9278  -16.0852 N   0  0  0  0  0  0  0  0  0  0  0  0
   28.5876  -32.7251  -15.0950 C   0  0  0  0  0  0  0  0  0  0  0  0
   28.3878  -33.6280  -14.2489 O   0  0  0  0  0  0  0  0  0  0  0  0
   27.8275  -31.4678  -15.0733 C   0  0  0  0  0  0  0  0  0  0  0  0
   28.1388  -30.4789  -16.1377 C   0  0  0  0  0  0  0  0  0  0  0  0
   27.5569  -30.6858  -17.4825 C   0  0  2  0  0  0  0  0  0  0  0  0
   28.0130  -29.5526  -18.3014 N   0  0  0  0  0  0  0  0  0  0  0  0
   26.1138  -30.8403  -17.6252 C   0  0  0  0  0  0  0  0  0  0  0  0
   25.2683  -29.9195  -17.4827 O   0  0  0  0  0  0  0  0  0  0  0  0
   25.5099  -32.1168  -17.9531 N   0  0  0  0  0  0  0  0  0  0  0  0
   24.0915  -32.2636  -18.1508 C   0  0  1  0  0  0  0  0  0  0  0  0
   23.6852  -33.5015  -18.8727 C   0  0  0  0  0  0  0  0  0  0  0  0
   22.1969  -33.6568  -19.0736 C   0  0  0  0  0  0  0  0  0  0  0  0
   21.8864  -34.9199  -19.8474 C   0  0  0  0  0  0  0  0  0  0  0  0
   20.3919  -35.0909  -20.0381 C   0  0  0  0  0  0  0  0  0  0  0  0
   20.1832  -36.3588  -20.7474 N   0  0  0  0  0  0  0  0  0  0  0  0
   23.3717  -32.2896  -16.8253 C   0  0  0  0  0  0  0  0  0  0  0  0
   22.0477  -31.8628  -16.8175 O   0  0  0  0  0  0  0  0  0  0  0  0
   23.9726  -32.6824  -15.8095 O   0  0  0  0  0  0  0  0  0  0  0  0
  2  1  1  6
  2 10  1  0
  3  2  1  0
  3  4  1  0
  4  5  2  0
  5  6  1  0
  7  6  2  0
  8  7  1  0
  9  4  1  0
  9  8  2  0
 10 11  2  0
 12 13  1  0
 13 15  1  0
 14 13  2  0
 16 15  1  0
 17 16  1  1
 17 19  1  0
 18 17  1  0
 18 10  1  0
 19 21  1  0
 19 20  2  0
 21 22  1  0
 22 28  1  0
 22 23  1  1
 24 25  1  0
 24 23  1  0
 26 25  1  0
 27 26  1  0
 28 30  2  0
 28 29  1  0
M  END
$$$$
