FQK.pdb
     RDKit          3D

 30 30  0  0  1  0  0  0  0  0999 V2000
   26.7324  -35.5591  -10.8857 N   0  0  0  0  0  0  0  0  0  0  0  0
   26.1533  -34.2305  -10.7996 C   0  0  1  0  0  0  0  0  0  0  0  0
   25.2590  -34.0477  -12.0047 C   0  0  0  0  0  0  0  0  0  0  0  0
   26.0827  -33.9941  -13.2233 C   0  0  0  0  0  0  0  0  0  0  0  0
   26.9844  -32.9749  -13.4746 C   0  0  0  0  0  0  0  0  0  0  0  0
   27.7594  -32.9149  -14.6118 C   0  0  0  0  0  0  0  0  0  0  0  0
   27.6454  -33.9116  -15.5597 C   0  0  0  0  0  0  0  0  0  0  0  0
   26.7670  -34.9357  -15.3501 C   0  0  0  0  0  0  0  0  0  0  0  0
   25.9978  -34.9779  -14.2018 C   0  0  0  0  0  0  0  0  0  0  0  0
   25.4146  -34.0802   -9.5271 C   0  0  0  0  0  0  0  0  0  0  0  0
   24.9661  -35.0867   -8.9329 O   0  0  0  0  0  0  0  0  0  0  0  0
   24.8578  -32.2895   -4.0905 N   0  0  0  0  0  0  0  0  0  0  0  0
   26.0898  -32.7488   -4.6076 C   0  0  0  0  0  0  0  0  0  0  0  0
   26.8878  -33.3317   -3.8365 O   0  0  0  0  0  0  0  0  0  0  0  0
   26.4040  -32.5421   -6.0281 C   0  0  0  0  0  0  0  0  0  0  0  0
   25.3791  -31.8425   -6.8454 C   0  0  0  0  0  0  0  0  0  0  0  0
   24.5033  -32.6531   -7.7205 C   0  0  2  0  0  0  0  0  0  0  0  0
   25.2229  -32.7965   -8.9950 N   0  0  0  0  0  0  0  0  0  0  0  0
   23.1379  -32.2108   -7.9791 C   0  0  0  0  0  0  0  0  0  0  0  0
   22.8174  -31.2298   -8.6989 O   0  0  0  0  0  0  0  0  0  0  0  0
   21.9925  -32.8887   -7.4044 N   0  0  0  0  0  0  0  0  0  0  0  0
   20.6406  -32.5088   -7.7212 C   0  0  1  0  0  0  0  0  0  0  0  0
   19.7267  -33.6446   -8.0267 C   0  0  0  0  0  0  0  0  0  0  0  0
   18.3282  -33.2408   -8.4274 C   0  0  0  0  0  0  0  0  0  0  0  0
   17.4773  -34.4589   -8.7156 C   0  0  0  0  0  0  0  0  0  0  0  0
   16.1261  -34.0615   -9.2774 C   0  0  0  0  0  0  0  0  0  0  0  0
   15.3130  -35.2803   -9.3658 N   0  0  0  0  0  0  0  0  0  0  0  0
   20.0169  -31.7601   -6.5696 C   0  0  0  0  0  0  0  0  0  0  0  0
   18.8476  -31.0547   -6.8345 O   0  0  0  0  0  0  0  0  0  0  0  0
   20.5570  -31.7986   -5.4497 O   0  0  0  0  0  0  0  0  0  0  0  0
  2  1  1  6
  2 10  1  0
  3  2  1  0
  3  4  1  0
  4  5  2  0
  5  6  1  0
  7  6  2  0
  8  7  1  0
  9  4  1  0
  9  8  2  0
 10 11  2  0
 12 13  1  0
 13 15  1  0
 14 13  2  0
 16 15  1  0
 17 16  1  1
 17 19  1  0
 18 17  1  0
 18 10  1  0
 19 21  1  0
 19 20  2  0
 21 22  1  0
 22 28  1  0
 22 23  1  1
 24 25  1  0
 24 23  1  0
 26 25  1  0
 27 26  1  0
 28 30  2  0
 28 29  1  0
M  END
$$$$
