FQK.pdb
     RDKit          3D

 30 30  0  0  1  0  0  0  0  0999 V2000
   25.0179  -18.4573  -17.5068 N   0  0  0  0  0  0  0  0  0  0  0  0
   24.4969  -18.0951  -16.2009 C   0  0  1  0  0  0  0  0  0  0  0  0
   23.9409  -16.6934  -16.3084 C   0  0  0  0  0  0  0  0  0  0  0  0
   25.0358  -15.7517  -16.5926 C   0  0  0  0  0  0  0  0  0  0  0  0
   26.0679  -15.5114  -15.7027 C   0  0  0  0  0  0  0  0  0  0  0  0
   27.0968  -14.6318  -15.9585 C   0  0  0  0  0  0  0  0  0  0  0  0
   27.1170  -13.9466  -17.1564 C   0  0  0  0  0  0  0  0  0  0  0  0
   26.1169  -14.1550  -18.0623 C   0  0  0  0  0  0  0  0  0  0  0  0
   25.0927  -15.0423  -17.7868 C   0  0  0  0  0  0  0  0  0  0  0  0
   23.4718  -19.0722  -15.7745 C   0  0  0  0  0  0  0  0  0  0  0  0
   22.6900  -19.5758  -16.6126 O   0  0  0  0  0  0  0  0  0  0  0  0
   25.2789  -21.2703  -11.1226 N   0  0  0  0  0  0  0  0  0  0  0  0
   25.5070  -21.8934  -12.3700 C   0  0  0  0  0  0  0  0  0  0  0  0
   26.6303  -22.4031  -12.5930 O   0  0  0  0  0  0  0  0  0  0  0  0
   24.4297  -21.9372  -13.3683 C   0  0  0  0  0  0  0  0  0  0  0  0
   23.1453  -21.2895  -12.9959 C   0  0  0  0  0  0  0  0  0  0  0  0
   22.4431  -20.4806  -14.0169 C   0  0  2  0  0  0  0  0  0  0  0  0
   23.3865  -19.4270  -14.4200 N   0  0  0  0  0  0  0  0  0  0  0  0
   21.1523  -19.8823  -13.6968 C   0  0  0  0  0  0  0  0  0  0  0  0
   20.9872  -18.8248  -13.0353 O   0  0  0  0  0  0  0  0  0  0  0  0
   19.9039  -20.4802  -14.1281 N   0  0  0  0  0  0  0  0  0  0  0  0
   18.6333  -19.8402  -13.9085 C   0  0  1  0  0  0  0  0  0  0  0  0
   17.7762  -19.7184  -15.1206 C   0  0  0  0  0  0  0  0  0  0  0  0
   16.5393  -18.8721  -14.9381 C   0  0  0  0  0  0  0  0  0  0  0  0
   15.6469  -18.9519  -16.1578 C   0  0  0  0  0  0  0  0  0  0  0  0
   14.4348  -18.0531  -16.0084 C   0  0  0  0  0  0  0  0  0  0  0  0
   13.5820  -18.2691  -17.1833 N   0  0  0  0  0  0  0  0  0  0  0  0
   17.8235  -20.6052  -12.8912 C   0  0  0  0  0  0  0  0  0  0  0  0
   16.7375  -19.9464  -12.3241 O   0  0  0  0  0  0  0  0  0  0  0  0
   18.1473  -21.7708  -12.6017 O   0  0  0  0  0  0  0  0  0  0  0  0
  2  1  1  6
  2 10  1  0
  3  2  1  0
  3  4  1  0
  4  5  2  0
  5  6  1  0
  7  6  2  0
  8  7  1  0
  9  4  1  0
  9  8  2  0
 10 11  2  0
 12 13  1  0
 13 15  1  0
 14 13  2  0
 16 15  1  0
 17 16  1  1
 17 19  1  0
 18 17  1  0
 18 10  1  0
 19 21  1  0
 19 20  2  0
 21 22  1  0
 22 28  1  0
 22 23  1  6
 24 25  1  0
 24 23  1  0
 26 25  1  0
 27 26  1  0
 28 30  2  0
 28 29  1  0
M  END
$$$$
