FQK.pdb
     RDKit          3D

 30 30  0  0  1  0  0  0  0  0999 V2000
   28.4853  -19.4073  -16.6120 N   0  0  0  0  0  0  0  0  0  0  0  0
   27.5012  -18.6538  -15.8558 C   0  0  1  0  0  0  0  0  0  0  0  0
   26.6182  -17.9361  -16.8510 C   0  0  0  0  0  0  0  0  0  0  0  0
   27.3280  -16.7588  -17.3770 C   0  0  0  0  0  0  0  0  0  0  0  0
   27.5107  -15.6022  -16.6395 C   0  0  0  0  0  0  0  0  0  0  0  0
   28.1726  -14.4948  -17.1223 C   0  0  0  0  0  0  0  0  0  0  0  0
   28.6864  -14.5206  -18.4030 C   0  0  0  0  0  0  0  0  0  0  0  0
   28.5277  -15.6430  -19.1641 C   0  0  0  0  0  0  0  0  0  0  0  0
   27.8600  -16.7446  -18.6612 C   0  0  0  0  0  0  0  0  0  0  0  0
   26.7314  -19.5619  -14.9781 C   0  0  0  0  0  0  0  0  0  0  0  0
   26.5151  -20.7451  -15.3254 O   0  0  0  0  0  0  0  0  0  0  0  0
   26.8974  -22.0842  -10.4989 N   0  0  0  0  0  0  0  0  0  0  0  0
   25.6837  -21.6073   -9.9551 C   0  0  0  0  0  0  0  0  0  0  0  0
   25.0731  -22.3210   -9.1250 O   0  0  0  0  0  0  0  0  0  0  0  0
   25.1707  -20.2928  -10.3648 C   0  0  0  0  0  0  0  0  0  0  0  0
   25.8722  -19.6211  -11.4893 C   0  0  0  0  0  0  0  0  0  0  0  0
   25.5018  -19.9936  -12.8728 C   0  0  2  0  0  0  0  0  0  0  0  0
   26.2468  -19.0808  -13.7527 N   0  0  0  0  0  0  0  0  0  0  0  0
   24.0963  -20.0063  -13.2618 C   0  0  0  0  0  0  0  0  0  0  0  0
   23.4092  -18.9873  -13.5314 O   0  0  0  0  0  0  0  0  0  0  0  0
   23.3443  -21.2409  -13.3721 N   0  0  0  0  0  0  0  0  0  0  0  0
   21.9710  -21.2639  -13.8032 C   0  0  1  0  0  0  0  0  0  0  0  0
   21.5869  -22.4589  -14.6052 C   0  0  0  0  0  0  0  0  0  0  0  0
   21.1303  -23.6461  -13.7920 C   0  0  0  0  0  0  0  0  0  0  0  0
   20.7752  -24.8107  -14.6911 C   0  0  0  0  0  0  0  0  0  0  0  0
   19.6370  -24.4521  -15.6266 C   0  0  0  0  0  0  0  0  0  0  0  0
   19.3592  -25.6341  -16.4513 N   0  0  0  0  0  0  0  0  0  0  0  0
   21.0421  -21.2339  -12.6149 C   0  0  0  0  0  0  0  0  0  0  0  0
   21.5989  -21.5131  -11.3711 O   0  0  0  0  0  0  0  0  0  0  0  0
   19.8390  -20.9669  -12.7844 O   0  0  0  0  0  0  0  0  0  0  0  0
  2  1  1  6
  2 10  1  0
  3  2  1  0
  3  4  1  0
  4  5  2  0
  5  6  1  0
  7  6  2  0
  8  7  1  0
  9  4  1  0
  9  8  2  0
 10 11  2  0
 12 13  1  0
 13 15  1  0
 14 13  2  0
 16 15  1  0
 17 16  1  1
 17 19  1  0
 18 17  1  0
 18 10  1  0
 19 21  1  0
 19 20  2  0
 21 22  1  0
 22 28  1  0
 22 23  1  1
 24 25  1  0
 24 23  1  0
 26 25  1  0
 27 26  1  0
 28 30  2  0
 28 29  1  0
M  END
$$$$
