FQK.pdb
     RDKit          3D

 30 30  0  0  1  0  0  0  0  0999 V2000
   24.6957  -20.5059  -19.8810 N   0  0  0  0  0  0  0  0  0  0  0  0
   23.9159  -19.7800  -18.8947 C   0  0  1  0  0  0  0  0  0  0  0  0
   22.6004  -19.4098  -19.5410 C   0  0  0  0  0  0  0  0  0  0  0  0
   22.8388  -18.4289  -20.6122 C   0  0  0  0  0  0  0  0  0  0  0  0
   23.2532  -17.1324  -20.3628 C   0  0  0  0  0  0  0  0  0  0  0  0
   23.4784  -16.2065  -21.3576 C   0  0  0  0  0  0  0  0  0  0  0  0
   23.2868  -16.5710  -22.6750 C   0  0  0  0  0  0  0  0  0  0  0  0
   22.8782  -17.8413  -22.9641 C   0  0  0  0  0  0  0  0  0  0  0  0
   22.6573  -18.7563  -21.9510 C   0  0  0  0  0  0  0  0  0  0  0  0
   23.7306  -20.6089  -17.6839 C   0  0  0  0  0  0  0  0  0  0  0  0
   23.6026  -21.8505  -17.7803 O   0  0  0  0  0  0  0  0  0  0  0  0
   25.4167  -22.8169  -11.5293 N   0  0  0  0  0  0  0  0  0  0  0  0
   25.3991  -22.1225  -12.7596 C   0  0  0  0  0  0  0  0  0  0  0  0
   26.0727  -22.5727  -13.7160 O   0  0  0  0  0  0  0  0  0  0  0  0
   24.5924  -20.9017  -12.8935 C   0  0  0  0  0  0  0  0  0  0  0  0
   24.5343  -20.2822  -14.2428 C   0  0  0  0  0  0  0  0  0  0  0  0
   23.5638  -20.8190  -15.2224 C   0  0  2  0  0  0  0  0  0  0  0  0
   23.6996  -19.9865  -16.4271 N   0  0  0  0  0  0  0  0  0  0  0  0
   22.1556  -20.9210  -14.8571 C   0  0  0  0  0  0  0  0  0  0  0  0
   21.3497  -19.9565  -14.7993 O   0  0  0  0  0  0  0  0  0  0  0  0
   21.5442  -22.1901  -14.5144 N   0  0  0  0  0  0  0  0  0  0  0  0
   20.1744  -22.2874  -14.0826 C   0  0  1  0  0  0  0  0  0  0  0  0
   19.6344  -23.6742  -14.0218 C   0  0  0  0  0  0  0  0  0  0  0  0
   20.2398  -24.5418  -12.9447 C   0  0  0  0  0  0  0  0  0  0  0  0
   19.7717  -25.9747  -13.0804 C   0  0  0  0  0  0  0  0  0  0  0  0
   20.4365  -26.8671  -12.0503 C   0  0  0  0  0  0  0  0  0  0  0  0
   19.9001  -28.2211  -12.2326 N   0  0  0  0  0  0  0  0  0  0  0  0
   20.0125  -21.7078  -12.6992 C   0  0  0  0  0  0  0  0  0  0  0  0
   18.7125  -21.4971  -12.2512 O   0  0  0  0  0  0  0  0  0  0  0  0
   21.0230  -21.4448  -12.0232 O   0  0  0  0  0  0  0  0  0  0  0  0
  2  1  1  6
  2 10  1  0
  3  2  1  0
  3  4  1  0
  4  5  2  0
  5  6  1  0
  7  6  2  0
  8  7  1  0
  9  4  1  0
  9  8  2  0
 10 11  2  0
 12 13  1  0
 13 15  1  0
 14 13  2  0
 16 15  1  0
 17 16  1  1
 17 19  1  0
 18 17  1  0
 18 10  1  0
 19 21  1  0
 19 20  2  0
 21 22  1  0
 22 28  1  0
 22 23  1  1
 24 25  1  0
 24 23  1  0
 26 25  1  0
 27 26  1  0
 28 30  2  0
 28 29  1  0
M  END
$$$$
