FQK.pdb
     RDKit          3D

 30 30  0  0  1  0  0  0  0  0999 V2000
   27.9583  -20.6382  -15.6166 N   0  0  0  0  0  0  0  0  0  0  0  0
   27.0284  -19.7830  -14.9012 C   0  0  1  0  0  0  0  0  0  0  0  0
   26.3450  -18.9030  -15.9230 C   0  0  0  0  0  0  0  0  0  0  0  0
   27.3043  -17.9123  -16.4373 C   0  0  0  0  0  0  0  0  0  0  0  0
   27.8940  -18.0171  -17.6848 C   0  0  0  0  0  0  0  0  0  0  0  0
   28.7932  -17.0961  -18.1754 C   0  0  0  0  0  0  0  0  0  0  0  0
   29.1360  -16.0076  -17.3990 C   0  0  0  0  0  0  0  0  0  0  0  0
   28.5765  -15.8669  -16.1615 C   0  0  0  0  0  0  0  0  0  0  0  0
   27.6756  -16.8025  -15.6870 C   0  0  0  0  0  0  0  0  0  0  0  0
   26.0651  -20.6065  -14.1387 C   0  0  0  0  0  0  0  0  0  0  0  0
   25.5644  -21.6327  -14.6519 O   0  0  0  0  0  0  0  0  0  0  0  0
   25.4670  -20.7337   -7.8925 N   0  0  0  0  0  0  0  0  0  0  0  0
   26.5735  -20.7047   -8.7706 C   0  0  0  0  0  0  0  0  0  0  0  0
   27.7275  -20.6472   -8.2849 O   0  0  0  0  0  0  0  0  0  0  0  0
   26.3505  -20.7499  -10.2223 C   0  0  0  0  0  0  0  0  0  0  0  0
   24.9378  -20.7811  -10.6820 C   0  0  0  0  0  0  0  0  0  0  0  0
   24.6714  -20.9719  -12.1250 C   0  0  2  0  0  0  0  0  0  0  0  0
   25.7197  -20.2231  -12.8343 N   0  0  0  0  0  0  0  0  0  0  0  0
   23.3658  -20.6151  -12.6681 C   0  0  0  0  0  0  0  0  0  0  0  0
   23.0408  -19.4730  -13.0841 O   0  0  0  0  0  0  0  0  0  0  0  0
   22.2917  -21.5830  -12.7758 N   0  0  0  0  0  0  0  0  0  0  0  0
   21.0052  -21.2400  -13.3232 C   0  0  1  0  0  0  0  0  0  0  0  0
   20.4342  -22.2487  -14.2586 C   0  0  0  0  0  0  0  0  0  0  0  0
   19.0589  -21.9155  -14.7851 C   0  0  0  0  0  0  0  0  0  0  0  0
   18.5673  -22.9927  -15.7279 C   0  0  0  0  0  0  0  0  0  0  0  0
   17.2073  -22.6407  -16.2988 C   0  0  0  0  0  0  0  0  0  0  0  0
   16.7756  -23.7707  -17.1300 N   0  0  0  0  0  0  0  0  0  0  0  0
   19.9909  -21.0614  -12.2208 C   0  0  0  0  0  0  0  0  0  0  0  0
   20.3972  -21.3859  -10.9305 O   0  0  0  0  0  0  0  0  0  0  0  0
   18.8536  -20.6402  -12.4971 O   0  0  0  0  0  0  0  0  0  0  0  0
  2  1  1  6
  2 10  1  0
  3  2  1  0
  3  4  1  0
  4  5  2  0
  5  6  1  0
  7  6  2  0
  8  7  1  0
  9  4  1  0
  9  8  2  0
 10 11  2  0
 12 13  1  0
 13 15  1  0
 14 13  2  0
 16 15  1  0
 17 16  1  1
 17 19  1  0
 18 17  1  0
 18 10  1  0
 19 21  1  0
 19 20  2  0
 21 22  1  0
 22 28  1  0
 22 23  1  6
 24 25  1  0
 24 23  1  0
 26 25  1  0
 27 26  1  0
 28 30  2  0
 28 29  1  0
M  END
$$$$
