FQK.pdb
     RDKit          3D

 30 30  0  0  1  0  0  0  0  0999 V2000
   27.4261  -19.0831  -16.0178 N   0  0  0  0  0  0  0  0  0  0  0  0
   26.4227  -18.5630  -15.1065 C   0  0  1  0  0  0  0  0  0  0  0  0
   25.5284  -17.6367  -15.8989 C   0  0  0  0  0  0  0  0  0  0  0  0
   26.2622  -16.4018  -16.2195 C   0  0  0  0  0  0  0  0  0  0  0  0
   26.6616  -16.0792  -17.5045 C   0  0  0  0  0  0  0  0  0  0  0  0
   27.3492  -14.9267  -17.8152 C   0  0  0  0  0  0  0  0  0  0  0  0
   27.6648  -14.0367  -16.8086 C   0  0  0  0  0  0  0  0  0  0  0  0
   27.2888  -14.3175  -15.5264 C   0  0  0  0  0  0  0  0  0  0  0  0
   26.5990  -15.4801  -15.2348 C   0  0  0  0  0  0  0  0  0  0  0  0
   25.6691  -19.6772  -14.4916 C   0  0  0  0  0  0  0  0  0  0  0  0
   25.5015  -20.7490  -15.1166 O   0  0  0  0  0  0  0  0  0  0  0  0
   25.4617  -20.6348   -8.4191 N   0  0  0  0  0  0  0  0  0  0  0  0
   26.4681  -20.9444   -9.3612 C   0  0  0  0  0  0  0  0  0  0  0  0
   27.6159  -21.2293   -8.9458 O   0  0  0  0  0  0  0  0  0  0  0  0
   26.1490  -20.9335  -10.7954 C   0  0  0  0  0  0  0  0  0  0  0  0
   24.7409  -20.6371  -11.1657 C   0  0  0  0  0  0  0  0  0  0  0  0
   24.3790  -20.6208  -12.6005 C   0  0  2  0  0  0  0  0  0  0  0  0
   25.1448  -19.5179  -13.2002 N   0  0  0  0  0  0  0  0  0  0  0  0
   22.9774  -20.5074  -12.9870 C   0  0  0  0  0  0  0  0  0  0  0  0
   22.2898  -19.4557  -12.9212 O   0  0  0  0  0  0  0  0  0  0  0  0
   22.2302  -21.6406  -13.4964 N   0  0  0  0  0  0  0  0  0  0  0  0
   20.8383  -21.5422  -13.8502 C   0  0  1  0  0  0  0  0  0  0  0  0
   20.3718  -22.5512  -14.8416 C   0  0  0  0  0  0  0  0  0  0  0  0
   18.9026  -22.4726  -15.1804 C   0  0  0  0  0  0  0  0  0  0  0  0
   18.5270  -23.5281  -16.1981 C   0  0  0  0  0  0  0  0  0  0  0  0
   17.1079  -23.3291  -16.6940 C   0  0  0  0  0  0  0  0  0  0  0  0
   16.8270  -24.3994  -17.6583 N   0  0  0  0  0  0  0  0  0  0  0  0
   19.9681  -21.7127  -12.6297 C   0  0  0  0  0  0  0  0  0  0  0  0
   20.3478  -22.6896  -11.7151 O   0  0  0  0  0  0  0  0  0  0  0  0
   18.9651  -20.9909  -12.4868 O   0  0  0  0  0  0  0  0  0  0  0  0
  2  1  1  6
  2 10  1  0
  3  2  1  0
  3  4  1  0
  4  5  2  0
  5  6  1  0
  7  6  2  0
  8  7  1  0
  9  4  1  0
  9  8  2  0
 10 11  2  0
 12 13  1  0
 13 15  1  0
 14 13  2  0
 16 15  1  0
 17 16  1  1
 17 19  1  0
 18 17  1  0
 18 10  1  0
 19 21  1  0
 19 20  2  0
 21 22  1  0
 22 28  1  0
 22 23  1  6
 24 25  1  0
 24 23  1  0
 26 25  1  0
 27 26  1  0
 28 30  2  0
 28 29  1  0
M  END
$$$$
