FQK.pdb
     RDKit          3D

 30 30  0  0  1  0  0  0  0  0999 V2000
   27.8825  -20.5327  -11.1876 N   0  0  0  0  0  0  0  0  0  0  0  0
   26.6897  -21.2626  -10.7973 C   0  0  1  0  0  0  0  0  0  0  0  0
   26.1249  -20.5837   -9.5704 C   0  0  0  0  0  0  0  0  0  0  0  0
   27.1724  -20.4784   -8.5418 C   0  0  0  0  0  0  0  0  0  0  0  0
   28.1646  -21.4296   -8.3821 C   0  0  0  0  0  0  0  0  0  0  0  0
   29.1490  -21.3410   -7.4226 C   0  0  0  0  0  0  0  0  0  0  0  0
   29.1633  -20.2571   -6.5683 C   0  0  0  0  0  0  0  0  0  0  0  0
   28.2017  -19.2957   -6.6925 C   0  0  0  0  0  0  0  0  0  0  0  0
   27.2219  -19.4029   -7.6624 C   0  0  0  0  0  0  0  0  0  0  0  0
   25.7228  -21.2906  -11.9162 C   0  0  0  0  0  0  0  0  0  0  0  0
   25.5034  -20.2579  -12.5890 O   0  0  0  0  0  0  0  0  0  0  0  0
   24.6401  -26.5640  -14.9682 N   0  0  0  0  0  0  0  0  0  0  0  0
   23.7919  -25.6749  -15.6656 C   0  0  0  0  0  0  0  0  0  0  0  0
   23.1924  -26.0886  -16.6857 O   0  0  0  0  0  0  0  0  0  0  0  0
   23.6258  -24.2980  -15.1803 C   0  0  0  0  0  0  0  0  0  0  0  0
   24.3441  -23.9374  -13.9306 C   0  0  0  0  0  0  0  0  0  0  0  0
   24.2143  -22.5553  -13.4180 C   0  0  2  0  0  0  0  0  0  0  0  0
   25.0551  -22.4879  -12.2134 N   0  0  0  0  0  0  0  0  0  0  0  0
   22.8907  -22.0211  -13.1187 C   0  0  0  0  0  0  0  0  0  0  0  0
   22.4382  -21.8093  -11.9640 O   0  0  0  0  0  0  0  0  0  0  0  0
   21.9490  -21.6789  -14.1666 N   0  0  0  0  0  0  0  0  0  0  0  0
   20.6906  -21.0391  -13.8849 C   0  0  1  0  0  0  0  0  0  0  0  0
   20.3432  -19.9133  -14.7963 C   0  0  0  0  0  0  0  0  0  0  0  0
   19.0133  -19.2574  -14.5125 C   0  0  0  0  0  0  0  0  0  0  0  0
   18.7612  -18.1134  -15.4709 C   0  0  0  0  0  0  0  0  0  0  0  0
   17.4526  -17.4148  -15.1565 C   0  0  0  0  0  0  0  0  0  0  0  0
   17.2848  -16.3369  -16.1384 N   0  0  0  0  0  0  0  0  0  0  0  0
   19.5581  -22.0307  -13.9845 C   0  0  0  0  0  0  0  0  0  0  0  0
   19.6538  -23.0008  -14.9770 O   0  0  0  0  0  0  0  0  0  0  0  0
   18.6007  -21.9486  -13.1946 O   0  0  0  0  0  0  0  0  0  0  0  0
  2  1  1  6
  2 10  1  0
  3  2  1  0
  3  4  1  0
  4  5  2  0
  5  6  1  0
  7  6  2  0
  8  7  1  0
  9  4  1  0
  9  8  2  0
 10 11  2  0
 12 13  1  0
 13 15  1  0
 14 13  2  0
 16 15  1  0
 17 16  1  1
 17 19  1  0
 18 17  1  0
 18 10  1  0
 19 21  1  0
 19 20  2  0
 21 22  1  0
 22 28  1  0
 22 23  1  6
 24 25  1  0
 24 23  1  0
 26 25  1  0
 27 26  1  0
 28 30  2  0
 28 29  1  0
M  END
$$$$
