FQK.pdb
     RDKit          3D

 30 30  0  0  1  0  0  0  0  0999 V2000
   25.7611  -19.0762  -10.6664 N   0  0  0  0  0  0  0  0  0  0  0  0
   25.4288  -20.4726  -10.8845 C   0  0  1  0  0  0  0  0  0  0  0  0
   25.4048  -21.1486   -9.5325 C   0  0  0  0  0  0  0  0  0  0  0  0
   26.6838  -20.9130   -8.8433 C   0  0  0  0  0  0  0  0  0  0  0  0
   27.8545  -21.5627   -9.1927 C   0  0  0  0  0  0  0  0  0  0  0  0
   29.0563  -21.3501   -8.5540 C   0  0  0  0  0  0  0  0  0  0  0  0
   29.1162  -20.4480   -7.5112 C   0  0  0  0  0  0  0  0  0  0  0  0
   27.9832  -19.7855   -7.1349 C   0  0  0  0  0  0  0  0  0  0  0  0
   26.7861  -20.0129   -7.7888 C   0  0  0  0  0  0  0  0  0  0  0  0
   24.1323  -20.5821  -11.5877 C   0  0  0  0  0  0  0  0  0  0  0  0
   23.1124  -20.0222  -11.1255 O   0  0  0  0  0  0  0  0  0  0  0  0
   23.4082  -17.5228  -14.9022 N   0  0  0  0  0  0  0  0  0  0  0  0
   22.8530  -18.7561  -15.3109 C   0  0  0  0  0  0  0  0  0  0  0  0
   21.6325  -18.8044  -15.5919 O   0  0  0  0  0  0  0  0  0  0  0  0
   23.7123  -19.9444  -15.4044 C   0  0  0  0  0  0  0  0  0  0  0  0
   23.1292  -21.2303  -14.9414 C   0  0  0  0  0  0  0  0  0  0  0  0
   22.7850  -21.3717  -13.5092 C   0  0  2  0  0  0  0  0  0  0  0  0
   24.0599  -21.3209  -12.7779 N   0  0  0  0  0  0  0  0  0  0  0  0
   22.0149  -22.5281  -13.0659 C   0  0  0  0  0  0  0  0  0  0  0  0
   22.4400  -23.4330  -12.3021 O   0  0  0  0  0  0  0  0  0  0  0  0
   20.6438  -22.7408  -13.4864 N   0  0  0  0  0  0  0  0  0  0  0  0
   19.6919  -23.4418  -12.6648 C   0  0  1  0  0  0  0  0  0  0  0  0
   19.4211  -22.8104  -11.3433 C   0  0  0  0  0  0  0  0  0  0  0  0
   18.3658  -23.5037  -10.5156 C   0  0  0  0  0  0  0  0  0  0  0  0
   18.8247  -23.6646   -9.0823 C   0  0  0  0  0  0  0  0  0  0  0  0
   17.7731  -24.3688   -8.2472 C   0  0  0  0  0  0  0  0  0  0  0  0
   18.2646  -24.4061   -6.8647 N   0  0  0  0  0  0  0  0  0  0  0  0
   18.3606  -23.5447  -13.3669 C   0  0  0  0  0  0  0  0  0  0  0  0
   18.0524  -22.5465  -14.2853 O   0  0  0  0  0  0  0  0  0  0  0  0
   17.6026  -24.4960  -13.1063 O   0  0  0  0  0  0  0  0  0  0  0  0
  2  1  1  1
  2 10  1  0
  3  2  1  0
  3  4  1  0
  4  5  2  0
  5  6  1  0
  7  6  2  0
  8  7  1  0
  9  4  1  0
  9  8  2  0
 10 11  2  0
 12 13  1  0
 13 15  1  0
 14 13  2  0
 16 15  1  0
 17 16  1  6
 17 19  1  0
 18 17  1  0
 18 10  1  0
 19 21  1  0
 19 20  2  0
 21 22  1  0
 22 28  1  0
 22 23  1  1
 24 25  1  0
 24 23  1  0
 26 25  1  0
 27 26  1  0
 28 30  2  0
 28 29  1  0
M  END
$$$$
