FQK.pdb
     RDKit          3D

 30 30  0  0  1  0  0  0  0  0999 V2000
   26.4163  -18.5335   -8.2135 N   0  0  0  0  0  0  0  0  0  0  0  0
   26.8453  -19.8519   -8.6444 C   0  0  1  0  0  0  0  0  0  0  0  0
   26.4802  -20.8272   -7.5486 C   0  0  0  0  0  0  0  0  0  0  0  0
   27.2530  -20.5142   -6.3357 C   0  0  0  0  0  0  0  0  0  0  0  0
   26.6601  -20.1095   -5.1526 C   0  0  0  0  0  0  0  0  0  0  0  0
   27.3739  -19.8136   -4.0122 C   0  0  0  0  0  0  0  0  0  0  0  0
   28.7499  -19.9200   -4.0305 C   0  0  0  0  0  0  0  0  0  0  0  0
   29.3742  -20.3163   -5.1783 C   0  0  0  0  0  0  0  0  0  0  0  0
   28.6397  -20.6089   -6.3128 C   0  0  0  0  0  0  0  0  0  0  0  0
   26.2092  -20.1963   -9.9345 C   0  0  0  0  0  0  0  0  0  0  0  0
   25.0306  -19.8473  -10.1721 O   0  0  0  0  0  0  0  0  0  0  0  0
   26.7696  -19.9832  -15.4964 N   0  0  0  0  0  0  0  0  0  0  0  0
   27.8817  -19.3380  -14.9105 C   0  0  0  0  0  0  0  0  0  0  0  0
   28.3223  -18.2927  -15.4437 O   0  0  0  0  0  0  0  0  0  0  0  0
   28.4886  -19.8969  -13.6946 C   0  0  0  0  0  0  0  0  0  0  0  0
   27.8015  -21.0610  -13.0777 C   0  0  0  0  0  0  0  0  0  0  0  0
   26.5631  -20.8187  -12.3047 C   0  0  2  0  0  0  0  0  0  0  0  0
   26.9425  -20.9186  -10.8875 N   0  0  0  0  0  0  0  0  0  0  0  0
   25.3873  -21.6447  -12.5536 C   0  0  0  0  0  0  0  0  0  0  0  0
   25.2146  -22.8114  -12.1154 O   0  0  0  0  0  0  0  0  0  0  0  0
   24.2781  -21.1735  -13.3595 N   0  0  0  0  0  0  0  0  0  0  0  0
   23.0809  -21.9517  -13.5428 C   0  0  1  0  0  0  0  0  0  0  0  0
   21.8426  -21.3339  -12.9920 C   0  0  0  0  0  0  0  0  0  0  0  0
   20.5864  -22.1465  -13.1948 C   0  0  0  0  0  0  0  0  0  0  0  0
   19.3871  -21.4430  -12.5969 C   0  0  0  0  0  0  0  0  0  0  0  0
   18.3729  -22.4410  -12.0726 C   0  0  0  0  0  0  0  0  0  0  0  0
   17.3384  -21.6811  -11.3608 N   0  0  0  0  0  0  0  0  0  0  0  0
   22.8214  -22.1870  -15.0102 C   0  0  0  0  0  0  0  0  0  0  0  0
   21.8544  -23.1322  -15.3366 O   0  0  0  0  0  0  0  0  0  0  0  0
   23.4657  -21.5429  -15.8571 O   0  0  0  0  0  0  0  0  0  0  0  0
  2  1  1  1
  2 10  1  0
  3  2  1  0
  3  4  1  0
  4  5  2  0
  5  6  1  0
  7  6  2  0
  8  7  1  0
  9  4  1  0
  9  8  2  0
 10 11  2  0
 12 13  1  0
 13 15  1  0
 14 13  2  0
 16 15  1  0
 17 16  1  6
 17 19  1  0
 18 17  1  0
 18 10  1  0
 19 21  1  0
 19 20  2  0
 21 22  1  0
 22 28  1  0
 22 23  1  6
 24 25  1  0
 24 23  1  0
 26 25  1  0
 27 26  1  0
 28 30  2  0
 28 29  1  0
M  END
$$$$
