DNE.pdb
     RDKit          3D

 26 25  0  0  1  0  0  0  0  0999 V2000
    9.3078  -17.4065   17.9525 N   0  0  0  0  0  0  0  0  0  0  0  0
    9.2275  -18.1240   19.1962 C   0  0  1  0  0  0  0  0  0  0  0  0
    9.9014  -19.4610   19.0982 C   0  0  0  0  0  0  0  0  0  0  0  0
    9.4128  -20.2734   17.9770 C   0  0  0  0  0  0  0  0  0  0  0  0
    8.2016  -20.4637   17.7923 O   0  0  0  0  0  0  0  0  0  0  0  0
    9.7286  -17.3557   20.3468 C   0  0  0  0  0  0  0  0  0  0  0  0
   10.9062  -16.8501   20.2420 O   0  0  0  0  0  0  0  0  0  0  0  0
   10.3840  -20.8316   17.1157 O   0  0  0  0  0  0  0  0  0  0  0  0
   10.4662  -14.6123   24.7429 N   0  0  0  0  0  0  0  0  0  0  0  0
    9.1491  -15.1255   24.7367 C   0  0  0  0  0  0  0  0  0  0  0  0
    8.3948  -14.8278   25.6942 O   0  0  0  0  0  0  0  0  0  0  0  0
    8.6144  -15.9805   23.6805 C   0  0  0  0  0  0  0  0  0  0  0  0
    9.5540  -16.3794   22.6052 C   0  0  2  0  0  0  0  0  0  0  0  0
    8.9986  -17.1524   21.5432 N   0  0  0  0  0  0  0  0  0  0  0  0
   10.6868  -17.1133   23.2876 C   0  0  0  0  0  0  0  0  0  0  0  0
   10.6113  -18.3024   23.6193 O   0  0  0  0  0  0  0  0  0  0  0  0
   11.8803  -16.4097   23.5569 N   0  0  0  0  0  0  0  0  0  0  0  0
   13.0806  -17.0970   23.9684 C   0  0  1  0  0  0  0  0  0  0  0  0
   14.2370  -16.3170   23.3799 C   0  0  0  0  0  0  0  0  0  0  0  0
   15.5060  -17.0939   23.7697 C   0  0  0  0  0  0  0  0  0  0  0  0
   16.7111  -16.3837   23.3049 C   0  0  0  0  0  0  0  0  0  0  0  0
   17.4193  -15.7807   24.1414 O   0  0  0  0  0  0  0  0  0  0  0  0
   13.1856  -17.2982   25.4031 C   0  0  0  0  0  0  0  0  0  0  0  0
   13.8362  -18.2570   25.8540 O   0  0  0  0  0  0  0  0  0  0  0  0
   17.0854  -16.3657   21.9749 O   0  0  0  0  0  0  0  0  0  0  0  0
   12.5723  -16.4382   26.2823 O   0  0  0  0  0  0  0  0  0  0  0  0
  2  3  1  0
  2  1  1  6
  4  8  1  0
  4  3  1  0
  5  4  2  0
  6  2  1  0
  7  6  2  0
  9 10  1  0
 10 12  1  0
 11 10  2  0
 13 12  1  1
 13 14  1  0
 14  6  1  0
 15 17  1  0
 15 13  1  0
 16 15  2  0
 18 23  1  0
 18 17  1  0
 18 19  1  1
 19 20  1  0
 21 22  2  0
 21 20  1  0
 23 26  1  0
 24 23  2  0
 25 21  1  0
M  END
$$$$
