DNE.pdb
     RDKit          3D

 26 25  0  0  1  0  0  0  0  0999 V2000
   12.2739  -16.2722   16.7702 N   0  0  0  0  0  0  0  0  0  0  0  0
   13.0624  -15.4601   17.6572 C   0  0  1  0  0  0  0  0  0  0  0  0
   13.6695  -14.2944   16.9333 C   0  0  0  0  0  0  0  0  0  0  0  0
   14.5301  -14.6946   15.8132 C   0  0  0  0  0  0  0  0  0  0  0  0
   15.4159  -15.5515   15.9488 O   0  0  0  0  0  0  0  0  0  0  0  0
   12.3286  -15.0222   18.8552 C   0  0  0  0  0  0  0  0  0  0  0  0
   13.0292  -14.5852   19.8408 O   0  0  0  0  0  0  0  0  0  0  0  0
   14.3064  -14.0593   14.5710 O   0  0  0  0  0  0  0  0  0  0  0  0
    8.1123  -12.0473   19.1912 N   0  0  0  0  0  0  0  0  0  0  0  0
    8.4170  -13.4141   18.9984 C   0  0  0  0  0  0  0  0  0  0  0  0
    8.3240  -13.8819   17.8379 O   0  0  0  0  0  0  0  0  0  0  0  0
    8.8352  -14.3132   20.0704 C   0  0  0  0  0  0  0  0  0  0  0  0
   10.2862  -14.6007   20.1722 C   0  0  2  0  0  0  0  0  0  0  0  0
   10.9184  -15.0612   18.9798 N   0  0  0  0  0  0  0  0  0  0  0  0
   10.4390  -15.5987   21.2984 C   0  0  0  0  0  0  0  0  0  0  0  0
   10.0344  -16.7648   21.2197 O   0  0  0  0  0  0  0  0  0  0  0  0
   11.0702  -15.1798   22.4891 N   0  0  0  0  0  0  0  0  0  0  0  0
   11.1417  -16.0417   23.6444 C   0  0  1  0  0  0  0  0  0  0  0  0
   12.5685  -15.9613   24.1440 C   0  0  0  0  0  0  0  0  0  0  0  0
   13.4463  -16.4568   22.9821 C   0  0  0  0  0  0  0  0  0  0  0  0
   14.8735  -16.3815   23.3427 C   0  0  0  0  0  0  0  0  0  0  0  0
   15.3679  -17.2864   24.0509 O   0  0  0  0  0  0  0  0  0  0  0  0
   10.1511  -15.7473   24.6651 C   0  0  0  0  0  0  0  0  0  0  0  0
   10.0297  -16.4936   25.6522 O   0  0  0  0  0  0  0  0  0  0  0  0
   15.6836  -15.3447   22.9206 O   0  0  0  0  0  0  0  0  0  0  0  0
    9.3358  -14.6461   24.5595 O   0  0  0  0  0  0  0  0  0  0  0  0
  2  3  1  0
  2  1  1  6
  4  8  1  0
  4  3  1  0
  5  4  2  0
  6  2  1  0
  7  6  2  0
  9 10  1  0
 10 12  1  0
 11 10  2  0
 13 12  1  6
 13 14  1  0
 14  6  1  0
 15 17  1  0
 15 13  1  0
 16 15  2  0
 18 23  1  0
 18 17  1  0
 18 19  1  1
 19 20  1  0
 21 22  2  0
 21 20  1  0
 23 26  1  0
 24 23  2  0
 25 21  1  0
M  END
$$$$
