DNE.pdb
     RDKit          3D

 26 25  0  0  1  0  0  0  0  0999 V2000
   10.3015  -17.6921   17.3531 N   0  0  0  0  0  0  0  0  0  0  0  0
   11.3634  -16.7832   17.6911 C   0  0  1  0  0  0  0  0  0  0  0  0
   11.8691  -16.0608   16.4771 C   0  0  0  0  0  0  0  0  0  0  0  0
   12.5482  -16.9437   15.5207 C   0  0  0  0  0  0  0  0  0  0  0  0
   12.5785  -18.1729   15.6800 O   0  0  0  0  0  0  0  0  0  0  0  0
   11.0063  -15.8413   18.7638 C   0  0  0  0  0  0  0  0  0  0  0  0
   11.9064  -14.9951   19.1202 O   0  0  0  0  0  0  0  0  0  0  0  0
   13.1685  -16.3314   14.4084 O   0  0  0  0  0  0  0  0  0  0  0  0
    9.2615  -12.6976   18.8460 N   0  0  0  0  0  0  0  0  0  0  0  0
    8.2161  -13.0948   19.7106 C   0  0  0  0  0  0  0  0  0  0  0  0
    7.1491  -12.4349   19.6891 O   0  0  0  0  0  0  0  0  0  0  0  0
    8.3044  -14.2289   20.6262 C   0  0  0  0  0  0  0  0  0  0  0  0
    9.5543  -15.0255   20.5830 C   0  0  2  0  0  0  0  0  0  0  0  0
    9.7494  -15.8216   19.4160 N   0  0  0  0  0  0  0  0  0  0  0  0
    9.5560  -15.8731   21.8357 C   0  0  0  0  0  0  0  0  0  0  0  0
    8.7301  -16.7712   22.0380 O   0  0  0  0  0  0  0  0  0  0  0  0
   10.5426  -15.6273   22.8144 N   0  0  0  0  0  0  0  0  0  0  0  0
   10.6002  -16.3986   24.0328 C   0  0  1  0  0  0  0  0  0  0  0  0
   12.0686  -16.6386   24.3120 C   0  0  0  0  0  0  0  0  0  0  0  0
   12.5211  -17.6943   23.2889 C   0  0  0  0  0  0  0  0  0  0  0  0
   13.9717  -17.9322   23.3975 C   0  0  0  0  0  0  0  0  0  0  0  0
   14.5614  -18.5166   22.4617 O   0  0  0  0  0  0  0  0  0  0  0  0
    9.8872  -15.7993   25.1473 C   0  0  0  0  0  0  0  0  0  0  0  0
    9.8514  -16.3749   26.2488 O   0  0  0  0  0  0  0  0  0  0  0  0
   14.7016  -17.5271   24.4986 O   0  0  0  0  0  0  0  0  0  0  0  0
    9.2436  -14.5932   25.0059 O   0  0  0  0  0  0  0  0  0  0  0  0
  2  3  1  0
  2  1  1  6
  4  8  1  0
  4  3  1  0
  5  4  2  0
  6  2  1  0
  7  6  2  0
  9 10  1  0
 10 12  1  0
 11 10  2  0
 13 12  1  6
 13 14  1  0
 14  6  1  0
 15 17  1  0
 15 13  1  0
 16 15  2  0
 18 23  1  0
 18 17  1  0
 18 19  1  1
 19 20  1  0
 21 22  2  0
 21 20  1  0
 23 26  1  0
 24 23  2  0
 25 21  1  0
M  END
$$$$
