DNE.pdb
     RDKit          3D

 26 25  0  0  1  0  0  0  0  0999 V2000
   14.2011  -13.7483   17.5723 N   0  0  0  0  0  0  0  0  0  0  0  0
   13.1187  -14.6905   17.6647 C   0  0  1  0  0  0  0  0  0  0  0  0
   13.6129  -16.1017   17.5394 C   0  0  0  0  0  0  0  0  0  0  0  0
   14.2077  -16.3913   16.2287 C   0  0  0  0  0  0  0  0  0  0  0  0
   14.2978  -15.5214   15.3499 O   0  0  0  0  0  0  0  0  0  0  0  0
   12.2954  -14.5174   18.8720 C   0  0  0  0  0  0  0  0  0  0  0  0
   12.8674  -13.9939   19.8977 O   0  0  0  0  0  0  0  0  0  0  0  0
   14.6733  -17.7075   16.0102 O   0  0  0  0  0  0  0  0  0  0  0  0
    8.7090  -12.7090   18.8849 N   0  0  0  0  0  0  0  0  0  0  0  0
    8.0710  -13.8564   19.4089 C   0  0  0  0  0  0  0  0  0  0  0  0
    6.8348  -13.9777   19.2311 O   0  0  0  0  0  0  0  0  0  0  0  0
    8.7663  -14.9095   20.1437 C   0  0  0  0  0  0  0  0  0  0  0  0
   10.2444  -14.8127   20.2098 C   0  0  2  0  0  0  0  0  0  0  0  0
   10.9336  -14.8951   18.9640 N   0  0  0  0  0  0  0  0  0  0  0  0
   10.6946  -15.8979   21.1622 C   0  0  0  0  0  0  0  0  0  0  0  0
   10.5836  -17.1028   20.9057 O   0  0  0  0  0  0  0  0  0  0  0  0
   11.2652  -15.5179   22.3958 N   0  0  0  0  0  0  0  0  0  0  0  0
   11.5522  -16.4912   23.4219 C   0  0  1  0  0  0  0  0  0  0  0  0
   13.0055  -16.2933   23.7973 C   0  0  0  0  0  0  0  0  0  0  0  0
   13.8152  -16.6679   22.5443 C   0  0  0  0  0  0  0  0  0  0  0  0
   15.2611  -16.5825   22.8176 C   0  0  0  0  0  0  0  0  0  0  0  0
   15.6428  -16.2575   23.9638 O   0  0  0  0  0  0  0  0  0  0  0  0
   10.6468  -16.4402   24.5565 C   0  0  0  0  0  0  0  0  0  0  0  0
    9.7582  -15.5721   24.6087 O   0  0  0  0  0  0  0  0  0  0  0  0
   16.2085  -16.8533   21.8489 O   0  0  0  0  0  0  0  0  0  0  0  0
   10.7548  -17.3444   25.5859 O   0  0  0  0  0  0  0  0  0  0  0  0
  2  3  1  0
  2  1  1  1
  4  8  1  0
  4  3  1  0
  5  4  2  0
  6  2  1  0
  7  6  2  0
  9 10  1  0
 10 12  1  0
 11 10  2  0
 13 12  1  6
 13 14  1  0
 14  6  1  0
 15 17  1  0
 15 13  1  0
 16 15  2  0
 18 23  1  0
 18 17  1  0
 18 19  1  1
 19 20  1  0
 21 22  2  0
 21 20  1  0
 23 26  1  0
 24 23  2  0
 25 21  1  0
M  END
$$$$
