DNE.pdb
     RDKit          3D

 26 25  0  0  1  0  0  0  0  0999 V2000
   13.5850  -19.7617   19.5312 N   0  0  0  0  0  0  0  0  0  0  0  0
   13.6826  -18.3702   19.1816 C   0  0  1  0  0  0  0  0  0  0  0  0
   12.8715  -18.0576   17.9586 C   0  0  0  0  0  0  0  0  0  0  0  0
   13.4015  -18.6803   16.7392 C   0  0  0  0  0  0  0  0  0  0  0  0
   13.8630  -19.8311   16.7455 O   0  0  0  0  0  0  0  0  0  0  0  0
   13.3469  -17.4645   20.2917 C   0  0  0  0  0  0  0  0  0  0  0  0
   13.6051  -16.2161   20.1241 O   0  0  0  0  0  0  0  0  0  0  0  0
   13.3645  -17.9100   15.5551 O   0  0  0  0  0  0  0  0  0  0  0  0
   10.5436  -16.6743   25.7648 N   0  0  0  0  0  0  0  0  0  0  0  0
   10.9737  -16.3341   24.4620 C   0  0  0  0  0  0  0  0  0  0  0  0
   11.0396  -15.1178   24.1607 O   0  0  0  0  0  0  0  0  0  0  0  0
   11.3473  -17.3149   23.4467 C   0  0  0  0  0  0  0  0  0  0  0  0
   12.4474  -16.9375   22.5271 C   0  0  2  0  0  0  0  0  0  0  0  0
   12.7706  -17.8878   21.5141 N   0  0  0  0  0  0  0  0  0  0  0  0
   13.6431  -16.6367   23.4031 C   0  0  0  0  0  0  0  0  0  0  0  0
   13.6277  -15.7669   24.2822 O   0  0  0  0  0  0  0  0  0  0  0  0
   14.8260  -17.3812   23.2075 N   0  0  0  0  0  0  0  0  0  0  0  0
   16.0122  -17.1250   23.9886 C   0  0  1  0  0  0  0  0  0  0  0  0
   16.8947  -18.3447   23.8292 C   0  0  0  0  0  0  0  0  0  0  0  0
   18.3408  -17.8232   23.8792 C   0  0  0  0  0  0  0  0  0  0  0  0
   19.2949  -18.9173   23.6232 C   0  0  0  0  0  0  0  0  0  0  0  0
   19.6890  -19.1159   22.4527 O   0  0  0  0  0  0  0  0  0  0  0  0
   16.6799  -15.8776   23.6599 C   0  0  0  0  0  0  0  0  0  0  0  0
   16.5576  -15.3831   22.5257 O   0  0  0  0  0  0  0  0  0  0  0  0
   19.7705  -19.7284   24.6358 O   0  0  0  0  0  0  0  0  0  0  0  0
   17.4536  -15.2257   24.5900 O   0  0  0  0  0  0  0  0  0  0  0  0
  2  3  1  0
  2  1  1  1
  4  8  1  0
  4  3  1  0
  5  4  2  0
  6  2  1  0
  7  6  2  0
  9 10  1  0
 10 12  1  0
 11 10  2  0
 13 12  1  1
 13 14  1  0
 14  6  1  0
 15 17  1  0
 15 13  1  0
 16 15  2  0
 18 23  1  0
 18 17  1  0
 18 19  1  6
 19 20  1  0
 21 22  2  0
 21 20  1  0
 23 26  1  0
 24 23  2  0
 25 21  1  0
M  END
$$$$
