DNE.pdb
     RDKit          3D

 26 25  0  0  1  0  0  0  0  0999 V2000
    7.6957  -15.7552   15.9174 N   0  0  0  0  0  0  0  0  0  0  0  0
    8.5445  -14.5984   15.8206 C   0  0  1  0  0  0  0  0  0  0  0  0
    7.9777  -13.5849   14.8704 C   0  0  0  0  0  0  0  0  0  0  0  0
    7.3870  -14.1868   13.6685 C   0  0  0  0  0  0  0  0  0  0  0  0
    6.8224  -15.2901   13.7052 O   0  0  0  0  0  0  0  0  0  0  0  0
    8.8567  -13.9925   17.1248 C   0  0  0  0  0  0  0  0  0  0  0  0
    9.7380  -13.0564   17.1368 O   0  0  0  0  0  0  0  0  0  0  0  0
    7.4906  -13.4541   12.4647 O   0  0  0  0  0  0  0  0  0  0  0  0
    6.9071  -16.1750   20.3059 N   0  0  0  0  0  0  0  0  0  0  0  0
    7.0603  -14.9777   21.0414 C   0  0  0  0  0  0  0  0  0  0  0  0
    6.2562  -14.7530   21.9780 O   0  0  0  0  0  0  0  0  0  0  0  0
    8.1006  -13.9877   20.7762 C   0  0  0  0  0  0  0  0  0  0  0  0
    8.9468  -14.2132   19.5798 C   0  0  2  0  0  0  0  0  0  0  0  0
    8.2533  -14.3826   18.3452 N   0  0  0  0  0  0  0  0  0  0  0  0
    9.8109  -15.4135   19.8962 C   0  0  0  0  0  0  0  0  0  0  0  0
    9.9034  -16.3898   19.1427 O   0  0  0  0  0  0  0  0  0  0  0  0
   10.5422  -15.4180   21.1033 N   0  0  0  0  0  0  0  0  0  0  0  0
   11.9261  -15.8254   21.1413 C   0  0  1  0  0  0  0  0  0  0  0  0
   12.6373  -15.0044   20.0868 C   0  0  0  0  0  0  0  0  0  0  0  0
   14.1028  -15.4708   20.1125 C   0  0  0  0  0  0  0  0  0  0  0  0
   14.8854  -14.7767   19.0740 C   0  0  0  0  0  0  0  0  0  0  0  0
   15.9448  -15.2998   18.6629 O   0  0  0  0  0  0  0  0  0  0  0  0
   12.5345  -15.7341   22.4570 C   0  0  0  0  0  0  0  0  0  0  0  0
   12.0131  -15.0303   23.3395 O   0  0  0  0  0  0  0  0  0  0  0  0
   14.4843  -13.5681   18.5376 O   0  0  0  0  0  0  0  0  0  0  0  0
   13.6896  -16.4193   22.7488 O   0  0  0  0  0  0  0  0  0  0  0  0
  2  3  1  0
  2  1  1  1
  4  8  1  0
  4  3  1  0
  5  4  2  0
  6  2  1  0
  7  6  2  0
  9 10  1  0
 10 12  1  0
 11 10  2  0
 13 12  1  1
 13 14  1  0
 14  6  1  0
 15 17  1  0
 15 13  1  0
 16 15  2  0
 18 23  1  0
 18 17  1  0
 18 19  1  6
 19 20  1  0
 21 22  2  0
 21 20  1  0
 23 26  1  0
 24 23  2  0
 25 21  1  0
M  END
$$$$
