DNE.pdb
     RDKit          3D

 26 25  0  0  1  0  0  0  0  0999 V2000
    8.7881  -16.3325   16.8839 N   0  0  0  0  0  0  0  0  0  0  0  0
    8.7888  -14.8982   16.9865 C   0  0  1  0  0  0  0  0  0  0  0  0
    7.6786  -14.2938   16.1780 C   0  0  0  0  0  0  0  0  0  0  0  0
    7.6914  -14.7167   14.7721 C   0  0  0  0  0  0  0  0  0  0  0  0
    7.2641  -15.8273   14.4241 O   0  0  0  0  0  0  0  0  0  0  0  0
    8.7648  -14.4121   18.3752 C   0  0  0  0  0  0  0  0  0  0  0  0
    8.3549  -13.2082   18.5646 O   0  0  0  0  0  0  0  0  0  0  0  0
    8.2138  -13.8022   13.8300 O   0  0  0  0  0  0  0  0  0  0  0  0
    7.7109  -12.7215   23.2227 N   0  0  0  0  0  0  0  0  0  0  0  0
    7.4383  -13.9736   22.6261 C   0  0  0  0  0  0  0  0  0  0  0  0
    6.9831  -14.8883   23.3544 O   0  0  0  0  0  0  0  0  0  0  0  0
    7.6540  -14.2646   21.2114 C   0  0  0  0  0  0  0  0  0  0  0  0
    9.0243  -14.6685   20.8146 C   0  0  2  0  0  0  0  0  0  0  0  0
    9.1671  -15.1837   19.4925 N   0  0  0  0  0  0  0  0  0  0  0  0
    9.4835  -15.6709   21.8499 C   0  0  0  0  0  0  0  0  0  0  0  0
    8.8984  -16.7417   22.0513 O   0  0  0  0  0  0  0  0  0  0  0  0
   10.6285  -15.3698   22.6180 N   0  0  0  0  0  0  0  0  0  0  0  0
   11.5840  -16.3912   22.9737 C   0  0  1  0  0  0  0  0  0  0  0  0
   12.9522  -15.8025   22.7032 C   0  0  0  0  0  0  0  0  0  0  0  0
   13.9619  -16.8925   23.1012 C   0  0  0  0  0  0  0  0  0  0  0  0
   15.3425  -16.4226   22.8865 C   0  0  0  0  0  0  0  0  0  0  0  0
   16.2723  -17.2594   22.8758 O   0  0  0  0  0  0  0  0  0  0  0  0
   11.4284  -16.9036   24.3239 C   0  0  0  0  0  0  0  0  0  0  0  0
   12.1308  -17.8507   24.7180 O   0  0  0  0  0  0  0  0  0  0  0  0
   15.6418  -15.0876   22.6932 O   0  0  0  0  0  0  0  0  0  0  0  0
   10.5083  -16.3545   25.1846 O   0  0  0  0  0  0  0  0  0  0  0  0
  2  3  1  0
  2  1  1  1
  4  8  1  0
  4  3  1  0
  5  4  2  0
  6  2  1  0
  7  6  2  0
  9 10  1  0
 10 12  1  0
 11 10  2  0
 13 12  1  1
 13 14  1  0
 14  6  1  0
 15 17  1  0
 15 13  1  0
 16 15  2  0
 18 23  1  0
 18 17  1  0
 18 19  1  1
 19 20  1  0
 21 22  2  0
 21 20  1  0
 23 26  1  0
 24 23  2  0
 25 21  1  0
M  END
$$$$
