DNE.pdb
     RDKit          3D

 26 25  0  0  1  0  0  0  0  0999 V2000
   13.2355  -19.1108   16.9088 N   0  0  0  0  0  0  0  0  0  0  0  0
   13.6844  -19.5800   18.1919 C   0  0  1  0  0  0  0  0  0  0  0  0
   15.1827  -19.6125   18.2662 C   0  0  0  0  0  0  0  0  0  0  0  0
   15.8028  -20.3004   17.1270 C   0  0  0  0  0  0  0  0  0  0  0  0
   16.4525  -21.3460   17.2751 O   0  0  0  0  0  0  0  0  0  0  0  0
   13.1091  -18.8321   19.3210 C   0  0  0  0  0  0  0  0  0  0  0  0
   13.8833  -18.0028   19.9261 O   0  0  0  0  0  0  0  0  0  0  0  0
   15.6284  -19.7182   15.8514 O   0  0  0  0  0  0  0  0  0  0  0  0
    9.2736  -15.5553   21.9147 N   0  0  0  0  0  0  0  0  0  0  0  0
    9.2388  -16.9527   21.7049 C   0  0  0  0  0  0  0  0  0  0  0  0
    8.6226  -17.6598   22.5384 O   0  0  0  0  0  0  0  0  0  0  0  0
    9.8764  -17.6215   20.5742 C   0  0  0  0  0  0  0  0  0  0  0  0
   11.2567  -18.1201   20.7857 C   0  0  2  0  0  0  0  0  0  0  0  0
   11.7745  -18.9788   19.7717 N   0  0  0  0  0  0  0  0  0  0  0  0
   11.2555  -18.8000   22.1367 C   0  0  0  0  0  0  0  0  0  0  0  0
   10.7538  -19.9146   22.3254 O   0  0  0  0  0  0  0  0  0  0  0  0
   11.8528  -18.1328   23.2275 N   0  0  0  0  0  0  0  0  0  0  0  0
   12.3145  -18.8554   24.3883 C   0  0  1  0  0  0  0  0  0  0  0  0
   13.5828  -19.5664   23.9665 C   0  0  0  0  0  0  0  0  0  0  0  0
   13.9967  -20.4308   25.1695 C   0  0  0  0  0  0  0  0  0  0  0  0
   15.2627  -21.1327   24.8915 C   0  0  0  0  0  0  0  0  0  0  0  0
   15.3528  -21.8333   23.8590 O   0  0  0  0  0  0  0  0  0  0  0  0
   12.4769  -18.0312   25.5732 C   0  0  0  0  0  0  0  0  0  0  0  0
   12.7490  -16.8231   25.4619 O   0  0  0  0  0  0  0  0  0  0  0  0
   16.3544  -21.0388   25.7334 O   0  0  0  0  0  0  0  0  0  0  0  0
   12.3337  -18.5678   26.8303 O   0  0  0  0  0  0  0  0  0  0  0  0
  2  3  1  0
  2  1  1  6
  4  8  1  0
  4  3  1  0
  5  4  2  0
  6  2  1  0
  7  6  2  0
  9 10  1  0
 10 12  1  0
 11 10  2  0
 13 12  1  6
 13 14  1  0
 14  6  1  0
 15 17  1  0
 15 13  1  0
 16 15  2  0
 18 23  1  0
 18 17  1  0
 18 19  1  6
 19 20  1  0
 21 22  2  0
 21 20  1  0
 23 26  1  0
 24 23  2  0
 25 21  1  0
M  END
$$$$
