DNE.pdb
     RDKit          3D

 26 25  0  0  1  0  0  0  0  0999 V2000
    8.1814  -16.5628   16.6448 N   0  0  0  0  0  0  0  0  0  0  0  0
    9.1251  -15.4798   16.5773 C   0  0  1  0  0  0  0  0  0  0  0  0
    8.5724  -14.3235   15.7971 C   0  0  0  0  0  0  0  0  0  0  0  0
    8.2100  -14.6770   14.4189 C   0  0  0  0  0  0  0  0  0  0  0  0
    7.1353  -15.2351   14.1528 O   0  0  0  0  0  0  0  0  0  0  0  0
    9.6151  -15.0493   17.8964 C   0  0  0  0  0  0  0  0  0  0  0  0
   10.6150  -14.2411   17.9117 O   0  0  0  0  0  0  0  0  0  0  0  0
    9.1410  -14.3545   13.4060 O   0  0  0  0  0  0  0  0  0  0  0  0
   10.9594  -14.7828   22.9703 N   0  0  0  0  0  0  0  0  0  0  0  0
    9.5927  -15.1258   22.8588 C   0  0  0  0  0  0  0  0  0  0  0  0
    8.9149  -15.2010   23.9119 O   0  0  0  0  0  0  0  0  0  0  0  0
    8.9230  -15.3963   21.5896 C   0  0  0  0  0  0  0  0  0  0  0  0
    9.7200  -15.1875   20.3568 C   0  0  2  0  0  0  0  0  0  0  0  0
    9.0577  -15.4746   19.1269 N   0  0  0  0  0  0  0  0  0  0  0  0
   10.9704  -16.0230   20.5181 C   0  0  0  0  0  0  0  0  0  0  0  0
   10.9745  -17.2536   20.3945 O   0  0  0  0  0  0  0  0  0  0  0  0
   12.1833  -15.3689   20.8226 N   0  0  0  0  0  0  0  0  0  0  0  0
   13.4105  -16.1072   21.0006 C   0  0  1  0  0  0  0  0  0  0  0  0
   14.2212  -15.8893   19.7407 C   0  0  0  0  0  0  0  0  0  0  0  0
   14.5290  -14.3829   19.6976 C   0  0  0  0  0  0  0  0  0  0  0  0
   15.3642  -14.0584   18.5272 C   0  0  0  0  0  0  0  0  0  0  0  0
   16.5578  -13.7298   18.7070 O   0  0  0  0  0  0  0  0  0  0  0  0
   14.1293  -15.7766   22.2186 C   0  0  0  0  0  0  0  0  0  0  0  0
   13.7230  -14.8612   22.9555 O   0  0  0  0  0  0  0  0  0  0  0  0
   14.8715  -14.1089   17.2372 O   0  0  0  0  0  0  0  0  0  0  0  0
   15.2638  -16.4648   22.5767 O   0  0  0  0  0  0  0  0  0  0  0  0
  2  3  1  0
  2  1  1  1
  4  8  1  0
  4  3  1  0
  5  4  2  0
  6  2  1  0
  7  6  2  0
  9 10  1  0
 10 12  1  0
 11 10  2  0
 13 12  1  1
 13 14  1  0
 14  6  1  0
 15 17  1  0
 15 13  1  0
 16 15  2  0
 18 23  1  0
 18 17  1  0
 18 19  1  6
 19 20  1  0
 21 22  2  0
 21 20  1  0
 23 26  1  0
 24 23  2  0
 25 21  1  0
M  END
$$$$
