DNE.pdb
     RDKit          3D

 26 25  0  0  1  0  0  0  0  0999 V2000
   16.2469  -17.2517   15.2446 N   0  0  0  0  0  0  0  0  0  0  0  0
   15.3050  -17.9882   16.0436 C   0  0  1  0  0  0  0  0  0  0  0  0
   15.8186  -19.3613   16.3636 C   0  0  0  0  0  0  0  0  0  0  0  0
   15.9212  -20.2291   15.1838 C   0  0  0  0  0  0  0  0  0  0  0  0
   15.2809  -21.2874   15.0985 O   0  0  0  0  0  0  0  0  0  0  0  0
   14.8898  -17.2753   17.2621 C   0  0  0  0  0  0  0  0  0  0  0  0
   15.7102  -16.4070   17.7378 O   0  0  0  0  0  0  0  0  0  0  0  0
   16.7837  -19.8066   14.1474 O   0  0  0  0  0  0  0  0  0  0  0  0
   10.0796  -17.8583   20.3882 N   0  0  0  0  0  0  0  0  0  0  0  0
   10.9855  -17.6206   19.3295 C   0  0  0  0  0  0  0  0  0  0  0  0
   11.0434  -18.4630   18.4014 O   0  0  0  0  0  0  0  0  0  0  0  0
   11.8570  -16.4514   19.2518 C   0  0  0  0  0  0  0  0  0  0  0  0
   13.3051  -16.7097   19.0655 C   0  0  2  0  0  0  0  0  0  0  0  0
   13.6600  -17.4948   17.9291 N   0  0  0  0  0  0  0  0  0  0  0  0
   13.7868  -17.3482   20.3493 C   0  0  0  0  0  0  0  0  0  0  0  0
   13.9649  -18.5665   20.4659 O   0  0  0  0  0  0  0  0  0  0  0  0
   14.0433  -16.5168   21.4605 N   0  0  0  0  0  0  0  0  0  0  0  0
   14.4670  -17.0651   22.7265 C   0  0  1  0  0  0  0  0  0  0  0  0
   15.6498  -16.2322   23.1729 C   0  0  0  0  0  0  0  0  0  0  0  0
   16.8043  -16.6063   22.2279 C   0  0  0  0  0  0  0  0  0  0  0  0
   18.0179  -15.8404   22.5646 C   0  0  0  0  0  0  0  0  0  0  0  0
   17.8960  -14.7217   23.1111 O   0  0  0  0  0  0  0  0  0  0  0  0
   13.4094  -17.1511   23.7183 C   0  0  0  0  0  0  0  0  0  0  0  0
   12.3133  -16.6014   23.5128 O   0  0  0  0  0  0  0  0  0  0  0  0
   19.2861  -16.3203   22.2990 O   0  0  0  0  0  0  0  0  0  0  0  0
   13.5995  -17.8372   24.8939 O   0  0  0  0  0  0  0  0  0  0  0  0
  2  3  1  0
  2  1  1  1
  4  8  1  0
  4  3  1  0
  5  4  2  0
  6  2  1  0
  7  6  2  0
  9 10  1  0
 10 12  1  0
 11 10  2  0
 13 12  1  1
 13 14  1  0
 14  6  1  0
 15 17  1  0
 15 13  1  0
 16 15  2  0
 18 23  1  0
 18 17  1  0
 18 19  1  1
 19 20  1  0
 21 22  2  0
 21 20  1  0
 23 26  1  0
 24 23  2  0
 25 21  1  0
M  END
$$$$
