DNE.pdb
     RDKit          3D

 26 25  0  0  1  0  0  0  0  0999 V2000
    9.2877  -17.2627   15.3104 N   0  0  0  0  0  0  0  0  0  0  0  0
   10.4757  -16.4564   15.2316 C   0  0  1  0  0  0  0  0  0  0  0  0
   10.4548  -15.5728   14.0191 C   0  0  0  0  0  0  0  0  0  0  0  0
   10.4506  -16.3234   12.7573 C   0  0  0  0  0  0  0  0  0  0  0  0
    9.5718  -17.1600   12.5023 O   0  0  0  0  0  0  0  0  0  0  0  0
   10.7368  -15.6803   16.4543 C   0  0  0  0  0  0  0  0  0  0  0  0
   11.8806  -15.0997   16.5432 O   0  0  0  0  0  0  0  0  0  0  0  0
   11.4939  -16.0521   11.8437 O   0  0  0  0  0  0  0  0  0  0  0  0
    8.0756  -11.8290   18.8573 N   0  0  0  0  0  0  0  0  0  0  0  0
    8.1327  -13.2203   18.6145 C   0  0  0  0  0  0  0  0  0  0  0  0
    7.4184  -13.6892   17.6957 O   0  0  0  0  0  0  0  0  0  0  0  0
    8.9754  -14.1437   19.3692 C   0  0  0  0  0  0  0  0  0  0  0  0
   10.1296  -14.7339   18.6495 C   0  0  2  0  0  0  0  0  0  0  0  0
    9.8146  -15.5463   17.5206 N   0  0  0  0  0  0  0  0  0  0  0  0
   10.9185  -15.5071   19.6826 C   0  0  0  0  0  0  0  0  0  0  0  0
   10.6651  -16.6809   19.9785 O   0  0  0  0  0  0  0  0  0  0  0  0
   11.9890  -14.8600   20.3361 N   0  0  0  0  0  0  0  0  0  0  0  0
   12.8936  -15.5860   21.1947 C   0  0  1  0  0  0  0  0  0  0  0  0
   14.2185  -14.8566   21.1257 C   0  0  0  0  0  0  0  0  0  0  0  0
   15.2143  -15.7243   21.9140 C   0  0  0  0  0  0  0  0  0  0  0  0
   16.5599  -15.1232   21.8860 C   0  0  0  0  0  0  0  0  0  0  0  0
   17.1051  -14.9098   20.7805 O   0  0  0  0  0  0  0  0  0  0  0  0
   12.4031  -15.7730   22.5490 C   0  0  0  0  0  0  0  0  0  0  0  0
   11.4692  -15.0731   22.9779 O   0  0  0  0  0  0  0  0  0  0  0  0
   17.2369  -14.7847   23.0420 O   0  0  0  0  0  0  0  0  0  0  0  0
   12.9582  -16.7204   23.3754 O   0  0  0  0  0  0  0  0  0  0  0  0
  2  3  1  0
  2  1  1  1
  4  8  1  0
  4  3  1  0
  5  4  2  0
  6  2  1  0
  7  6  2  0
  9 10  1  0
 10 12  1  0
 11 10  2  0
 13 12  1  1
 13 14  1  0
 14  6  1  0
 15 17  1  0
 15 13  1  0
 16 15  2  0
 18 23  1  0
 18 17  1  0
 18 19  1  1
 19 20  1  0
 21 22  2  0
 21 20  1  0
 23 26  1  0
 24 23  2  0
 25 21  1  0
M  END
$$$$
