DNE.pdb
     RDKit          3D

 26 25  0  0  1  0  0  0  0  0999 V2000
   14.8596  -13.7256   17.0133 N   0  0  0  0  0  0  0  0  0  0  0  0
   13.9828  -14.7798   17.4467 C   0  0  1  0  0  0  0  0  0  0  0  0
   14.7581  -15.9872   17.8852 C   0  0  0  0  0  0  0  0  0  0  0  0
   16.0704  -16.0982   17.2363 C   0  0  0  0  0  0  0  0  0  0  0  0
   17.0243  -16.6623   17.7923 O   0  0  0  0  0  0  0  0  0  0  0  0
   13.0252  -14.3549   18.4800 C   0  0  0  0  0  0  0  0  0  0  0  0
   12.6743  -13.1179   18.4766 O   0  0  0  0  0  0  0  0  0  0  0  0
   16.2010  -15.5323   15.9481 O   0  0  0  0  0  0  0  0  0  0  0  0
    9.3415  -12.9042   19.1139 N   0  0  0  0  0  0  0  0  0  0  0  0
    9.3264  -14.1197   18.3925 C   0  0  0  0  0  0  0  0  0  0  0  0
    8.5871  -14.1973   17.3817 O   0  0  0  0  0  0  0  0  0  0  0  0
   10.1219  -15.2899   18.7537 C   0  0  0  0  0  0  0  0  0  0  0  0
   11.1134  -15.1126   19.8418 C   0  0  2  0  0  0  0  0  0  0  0  0
   12.4842  -15.2188   19.4632 N   0  0  0  0  0  0  0  0  0  0  0  0
   10.7550  -16.1257   20.9062 C   0  0  0  0  0  0  0  0  0  0  0  0
   10.1519  -17.1760   20.6556 O   0  0  0  0  0  0  0  0  0  0  0  0
   11.1253  -15.8595   22.2418 N   0  0  0  0  0  0  0  0  0  0  0  0
   10.9919  -16.8614   23.2719 C   0  0  1  0  0  0  0  0  0  0  0  0
   12.3560  -17.5016   23.4177 C   0  0  0  0  0  0  0  0  0  0  0  0
   13.3305  -16.3470   23.7060 C   0  0  0  0  0  0  0  0  0  0  0  0
   14.7109  -16.8510   23.8211 C   0  0  0  0  0  0  0  0  0  0  0  0
   15.1236  -17.2374   24.9370 O   0  0  0  0  0  0  0  0  0  0  0  0
   10.4498  -16.3575   24.5217 C   0  0  0  0  0  0  0  0  0  0  0  0
   10.2458  -17.1325   25.4722 O   0  0  0  0  0  0  0  0  0  0  0  0
   15.5625  -16.9135   22.7347 O   0  0  0  0  0  0  0  0  0  0  0  0
   10.1547  -15.0241   24.6754 O   0  0  0  0  0  0  0  0  0  0  0  0
  2  3  1  0
  2  1  1  1
  4  8  1  0
  4  3  1  0
  5  4  2  0
  6  2  1  0
  7  6  2  0
  9 10  1  0
 10 12  1  0
 11 10  2  0
 13 12  1  6
 13 14  1  0
 14  6  1  0
 15 17  1  0
 15 13  1  0
 16 15  2  0
 18 23  1  0
 18 17  1  0
 18 19  1  1
 19 20  1  0
 21 22  2  0
 21 20  1  0
 23 26  1  0
 24 23  2  0
 25 21  1  0
M  END
$$$$
