LRL.pdb
     RDKit          3D

 28 27  0  0  1  0  0  0  0  0999 V2000
   17.0987  -23.4915  -15.7579 C   0  0  0  0  0  0  0  0  0  0  0  0
   17.4390  -22.7440  -14.4914 C   0  0  1  0  0  0  0  0  0  0  0  0
   16.1438  -22.5300  -13.7386 C   0  0  0  0  0  0  0  0  0  0  0  0
   18.4138  -23.5764  -13.6829 C   0  0  0  0  0  0  0  0  0  0  0  0
   18.8693  -22.8519  -12.4435 C   0  0  2  0  0  0  0  0  0  0  0  0
   19.8994  -21.8782  -12.7621 N   0  0  0  0  0  0  0  0  0  0  0  0
   19.3842  -23.8662  -11.4845 C   0  0  0  0  0  0  0  0  0  0  0  0
   20.5393  -24.3197  -11.6189 O   0  0  0  0  0  0  0  0  0  0  0  0
   16.2131  -26.0871   -5.3512 N   0  0  0  0  0  0  0  0  0  0  0  0
   17.4954  -25.9266   -4.7765 C   0  0  0  0  0  0  0  0  0  0  0  0
   17.8741  -26.7412   -3.8589 N   0  0  0  0  0  0  0  0  0  0  0  0
   18.3857  -24.8895   -5.1804 N   0  0  0  0  0  0  0  0  0  0  0  0
   18.0382  -23.9031   -6.1655 C   0  0  0  0  0  0  0  0  0  0  0  0
   18.8766  -24.1450   -7.4008 C   0  0  0  0  0  0  0  0  0  0  0  0
   18.3367  -25.2164   -8.2745 C   0  0  0  0  0  0  0  0  0  0  0  0
   19.0613  -25.4217   -9.5816 C   0  0  2  0  0  0  0  0  0  0  0  0
   18.5663  -24.3055  -10.4354 N   0  0  0  0  0  0  0  0  0  0  0  0
   18.6927  -26.7075  -10.2184 C   0  0  0  0  0  0  0  0  0  0  0  0
   18.1658  -26.6437  -11.3740 O   0  0  0  0  0  0  0  0  0  0  0  0
   18.7722  -26.6065   -3.3383 C   0  0  0  0  0  0  0  0  0  0  0  0
   21.5116  -30.6167  -12.4625 C   0  0  2  0  0  0  0  0  0  0  0  0
   20.4355  -29.5067  -12.6884 C   0  0  0  0  0  0  0  0  0  0  0  0
   19.2092  -30.3141  -13.1393 C   0  0  0  0  0  0  0  0  0  0  0  0
   20.2336  -28.8061  -11.3991 C   0  0  2  0  0  0  0  0  0  0  0  0
   19.1328  -29.1747  -10.5062 N   0  0  0  0  0  0  0  0  0  0  0  0
   18.8792  -27.9857   -9.6544 C   0  0  0  0  0  0  0  0  0  0  0  0
   19.2056  -30.3385   -9.6546 O   0  0  0  0  0  0  0  0  0  0  0  0
   19.6924  -30.4301   -8.4984 O   0  0  0  0  0  0  0  0  0  0  0  0
  2  1  1  6
  2  3  1  0
  4  2  1  0
  5  4  1  0
  5  6  1  6
  7  5  1  0
  7  8  2  0
  9 10  1  0
 10 11  2  0
 10 12  1  0
 12 13  1  0
 13 14  1  0
 14 15  1  0
 16 15  1  1
 17 16  1  0
 17  7  1  0
 18 16  1  0
 19 18  2  0
 21 20  1  6
 21 22  1  0
 21 23  1  0
 24 23  1  6
 24 25  1  0
 24 26  1  0
 25 18  1  0
 26 28  1  0
 27 26  2  0
M  END
$$$$
