LRL.pdb
     RDKit          3D

 28 27  0  0  1  0  0  0  0  0999 V2000
   32.9494  -21.8276  -10.9376 C   0  0  0  0  0  0  0  0  0  0  0  0
   31.5211  -22.0347  -10.4955 C   0  0  1  0  0  0  0  0  0  0  0  0
   31.3992  -21.4625   -9.0999 C   0  0  0  0  0  0  0  0  0  0  0  0
   30.6034  -21.3182  -11.4656 C   0  0  0  0  0  0  0  0  0  0  0  0
   29.1671  -21.3718  -11.0155 C   0  0  2  0  0  0  0  0  0  0  0  0
   28.8205  -22.7029  -10.5478 N   0  0  0  0  0  0  0  0  0  0  0  0
   28.3119  -20.9812  -12.1687 C   0  0  0  0  0  0  0  0  0  0  0  0
   28.4340  -19.8485  -12.6784 O   0  0  0  0  0  0  0  0  0  0  0  0
   25.0354  -25.5112  -15.6251 N   0  0  0  0  0  0  0  0  0  0  0  0
   24.4976  -25.0316  -16.8422 C   0  0  0  0  0  0  0  0  0  0  0  0
   23.4074  -25.5440  -17.2872 N   0  0  0  0  0  0  0  0  0  0  0  0
   25.1241  -23.9965  -17.5953 N   0  0  0  0  0  0  0  0  0  0  0  0
   26.3412  -23.3565  -17.1789 C   0  0  0  0  0  0  0  0  0  0  0  0
   26.0016  -22.3189  -16.1321 C   0  0  0  0  0  0  0  0  0  0  0  0
   26.7468  -22.5030  -14.8617 C   0  0  0  0  0  0  0  0  0  0  0  0
   26.5120  -21.4500  -13.8073 C   0  0  2  0  0  0  0  0  0  0  0  0
   27.3740  -21.8904  -12.6746 N   0  0  0  0  0  0  0  0  0  0  0  0
   25.1020  -21.4317  -13.3532 C   0  0  0  0  0  0  0  0  0  0  0  0
   24.2089  -21.4843  -14.2569 O   0  0  0  0  0  0  0  0  0  0  0  0
   23.0132  -25.2774  -18.2196 C   0  0  0  0  0  0  0  0  0  0  0  0
   24.9509  -19.5798   -8.2894 C   0  0  2  0  0  0  0  0  0  0  0  0
   24.6793  -20.6358   -9.4085 C   0  0  0  0  0  0  0  0  0  0  0  0
   24.1740  -21.8477   -8.6116 C   0  0  0  0  0  0  0  0  0  0  0  0
   23.6607  -20.0705  -10.3233 C   0  0  2  0  0  0  0  0  0  0  0  0
   23.4172  -20.6657  -11.6391 N   0  0  0  0  0  0  0  0  0  0  0  0
   24.6726  -21.3644  -12.0124 C   0  0  0  0  0  0  0  0  0  0  0  0
   22.9877  -19.8679  -12.7635 O   0  0  0  0  0  0  0  0  0  0  0  0
   23.6953  -19.3216  -13.6482 O   0  0  0  0  0  0  0  0  0  0  0  0
  2  1  1  6
  2  3  1  0
  4  2  1  0
  5  4  1  0
  5  6  1  6
  7  5  1  0
  7  8  2  0
  9 10  1  0
 10 11  2  0
 10 12  1  0
 12 13  1  0
 13 14  1  0
 14 15  1  0
 16 15  1  6
 17 16  1  0
 17  7  1  0
 18 16  1  0
 19 18  2  0
 21 20  1  1
 21 22  1  0
 21 23  1  0
 24 23  1  1
 24 25  1  0
 24 26  1  0
 25 18  1  0
 26 28  1  0
 27 26  2  0
M  END
$$$$
