LRL.pdb
     RDKit          3D

 28 27  0  0  1  0  0  0  0  0999 V2000
   29.1221  -20.1682   -7.4609 C   0  0  0  0  0  0  0  0  0  0  0  0
   27.6201  -20.2412   -7.5922 C   0  0  1  0  0  0  0  0  0  0  0  0
   27.0525  -19.0209   -6.9002 C   0  0  0  0  0  0  0  0  0  0  0  0
   27.2610  -20.2551   -9.0644 C   0  0  0  0  0  0  0  0  0  0  0  0
   25.7697  -20.2840   -9.2731 C   0  0  2  0  0  0  0  0  0  0  0  0
   25.1730  -21.4180   -8.5884 N   0  0  0  0  0  0  0  0  0  0  0  0
   25.5145  -20.3609  -10.7369 C   0  0  0  0  0  0  0  0  0  0  0  0
   25.8439  -19.4112  -11.4767 O   0  0  0  0  0  0  0  0  0  0  0  0
   25.2899  -23.9718  -17.3952 N   0  0  0  0  0  0  0  0  0  0  0  0
   26.0356  -24.7912  -16.5160 C   0  0  0  0  0  0  0  0  0  0  0  0
   27.2104  -25.1741  -16.8658 N   0  0  0  0  0  0  0  0  0  0  0  0
   25.5284  -25.2088  -15.2513 N   0  0  0  0  0  0  0  0  0  0  0  0
   24.2417  -24.8055  -14.7553 C   0  0  0  0  0  0  0  0  0  0  0  0
   24.2778  -23.3175  -14.4868 C   0  0  0  0  0  0  0  0  0  0  0  0
   24.6464  -22.9835  -13.0884 C   0  0  0  0  0  0  0  0  0  0  0  0
   24.6128  -21.5171  -12.7356 C   0  0  2  0  0  0  0  0  0  0  0  0
   24.9048  -21.5018  -11.2746 N   0  0  0  0  0  0  0  0  0  0  0  0
   23.2719  -20.9286  -12.9592 C   0  0  0  0  0  0  0  0  0  0  0  0
   22.4526  -20.9857  -11.9883 O   0  0  0  0  0  0  0  0  0  0  0  0
   27.8270  -25.7209  -16.2204 C   0  0  0  0  0  0  0  0  0  0  0  0
   21.2210  -15.8068  -14.3853 C   0  0  2  0  0  0  0  0  0  0  0  0
   21.1423  -17.1480  -13.5876 C   0  0  0  0  0  0  0  0  0  0  0  0
   19.6292  -17.3930  -13.4905 C   0  0  0  0  0  0  0  0  0  0  0  0
   21.8537  -18.1821  -14.3741 C   0  0  2  0  0  0  0  0  0  0  0  0
   21.5324  -19.6022  -14.2155 N   0  0  0  0  0  0  0  0  0  0  0  0
   22.8341  -20.3127  -14.1490 C   0  0  0  0  0  0  0  0  0  0  0  0
   20.6819  -20.2957  -15.1540 O   0  0  0  0  0  0  0  0  0  0  0  0
   19.4252  -20.3418  -15.1815 O   0  0  0  0  0  0  0  0  0  0  0  0
  2  1  1  6
  2  3  1  0
  4  2  1  0
  5  4  1  0
  5  6  1  1
  7  5  1  0
  7  8  2  0
  9 10  1  0
 10 11  2  0
 10 12  1  0
 12 13  1  0
 13 14  1  0
 14 15  1  0
 16 15  1  1
 17 16  1  0
 17  7  1  0
 18 16  1  0
 19 18  2  0
 21 20  1  1
 21 22  1  0
 21 23  1  0
 24 23  1  1
 24 25  1  0
 24 26  1  0
 25 18  1  0
 26 28  1  0
 27 26  2  0
M  END
$$$$
