LRL.pdb
     RDKit          3D

 28 27  0  0  1  0  0  0  0  0999 V2000
   28.2148  -20.6566   -8.3822 C   0  0  0  0  0  0  0  0  0  0  0  0
   26.9180  -21.0844   -9.0253 C   0  0  1  0  0  0  0  0  0  0  0  0
   25.7952  -20.5440   -8.1666 C   0  0  0  0  0  0  0  0  0  0  0  0
   26.8603  -20.5145  -10.4284 C   0  0  0  0  0  0  0  0  0  0  0  0
   25.5633  -20.8551  -11.1143 C   0  0  2  0  0  0  0  0  0  0  0  0
   25.4040  -22.2942  -11.2350 N   0  0  0  0  0  0  0  0  0  0  0  0
   25.5741  -20.2136  -12.4566 C   0  0  0  0  0  0  0  0  0  0  0  0
   25.7425  -18.9809  -12.5559 O   0  0  0  0  0  0  0  0  0  0  0  0
   28.9332  -24.9032  -16.7029 N   0  0  0  0  0  0  0  0  0  0  0  0
   29.7081  -24.0217  -15.9136 C   0  0  0  0  0  0  0  0  0  0  0  0
   30.6813  -24.4952  -15.2225 N   0  0  0  0  0  0  0  0  0  0  0  0
   29.4468  -22.6218  -15.8573 N   0  0  0  0  0  0  0  0  0  0  0  0
   28.3931  -21.9944  -16.6060 C   0  0  0  0  0  0  0  0  0  0  0  0
   27.6250  -21.0809  -15.6770 C   0  0  0  0  0  0  0  0  0  0  0  0
   26.1528  -21.1999  -15.8237 C   0  0  0  0  0  0  0  0  0  0  0  0
   25.3318  -20.3122  -14.9217 C   0  0  2  0  0  0  0  0  0  0  0  0
   25.3946  -21.0004  -13.6017 N   0  0  0  0  0  0  0  0  0  0  0  0
   23.9173  -20.2447  -15.3564 C   0  0  0  0  0  0  0  0  0  0  0  0
   23.0378  -20.5619  -14.4945 O   0  0  0  0  0  0  0  0  0  0  0  0
   31.2950  -23.8789  -14.6400 C   0  0  0  0  0  0  0  0  0  0  0  0
   20.1109  -17.9405  -14.6104 C   0  0  2  0  0  0  0  0  0  0  0  0
   20.8861  -17.2561  -15.7817 C   0  0  0  0  0  0  0  0  0  0  0  0
   21.1317  -15.8400  -15.2401 C   0  0  0  0  0  0  0  0  0  0  0  0
   22.1340  -18.0226  -16.0042 C   0  0  1  0  0  0  0  0  0  0  0  0
   22.1376  -19.2321  -16.8299 N   0  0  0  0  0  0  0  0  0  0  0  0
   23.4696  -19.8578  -16.6358 C   0  0  0  0  0  0  0  0  0  0  0  0
   21.8587  -19.1834  -18.2459 O   0  0  0  0  0  0  0  0  0  0  0  0
   20.7409  -19.1222  -18.8192 O   0  0  0  0  0  0  0  0  0  0  0  0
  2  1  1  1
  2  3  1  0
  4  2  1  0
  5  4  1  0
  5  6  1  6
  7  5  1  0
  7  8  2  0
  9 10  1  0
 10 11  2  0
 10 12  1  0
 12 13  1  0
 13 14  1  0
 14 15  1  0
 16 15  1  6
 17 16  1  0
 17  7  1  0
 18 16  1  0
 19 18  2  0
 21 20  1  6
 21 22  1  0
 21 23  1  0
 24 23  1  1
 24 25  1  0
 24 26  1  0
 25 18  1  0
 26 28  1  0
 27 26  2  0
M  END
$$$$
