LRL.pdb
     RDKit          3D

 28 27  0  0  1  0  0  0  0  0999 V2000
   26.8772  -20.6188   -8.1224 C   0  0  0  0  0  0  0  0  0  0  0  0
   25.9387  -21.1528   -9.1771 C   0  0  1  0  0  0  0  0  0  0  0  0
   24.5496  -20.6669   -8.8248 C   0  0  0  0  0  0  0  0  0  0  0  0
   26.3783  -20.6281  -10.5292 C   0  0  0  0  0  0  0  0  0  0  0  0
   25.3906  -20.9802  -11.6105 C   0  0  2  0  0  0  0  0  0  0  0  0
   25.3179  -22.4192  -11.7966 N   0  0  0  0  0  0  0  0  0  0  0  0
   25.8278  -20.3099  -12.8647 C   0  0  0  0  0  0  0  0  0  0  0  0
   26.1294  -19.0989  -12.8506 O   0  0  0  0  0  0  0  0  0  0  0  0
   30.4698  -24.2370  -15.4715 N   0  0  0  0  0  0  0  0  0  0  0  0
   30.7318  -23.6707  -16.7408 C   0  0  0  0  0  0  0  0  0  0  0  0
   31.9234  -23.7292  -17.2158 N   0  0  0  0  0  0  0  0  0  0  0  0
   29.7175  -23.0353  -17.5145 N   0  0  0  0  0  0  0  0  0  0  0  0
   28.3245  -23.0856  -17.1660 C   0  0  0  0  0  0  0  0  0  0  0  0
   28.0435  -21.9916  -16.1602 C   0  0  0  0  0  0  0  0  0  0  0  0
   26.6610  -21.4585  -16.2456 C   0  0  0  0  0  0  0  0  0  0  0  0
   26.3324  -20.3370  -15.2915 C   0  0  2  0  0  0  0  0  0  0  0  0
   25.8977  -21.0455  -14.0549 N   0  0  0  0  0  0  0  0  0  0  0  0
   25.2085  -19.5074  -15.7847 C   0  0  0  0  0  0  0  0  0  0  0  0
   24.0355  -19.9571  -15.5874 O   0  0  0  0  0  0  0  0  0  0  0  0
   32.1786  -23.2722  -18.1224 C   0  0  0  0  0  0  0  0  0  0  0  0
   24.6538  -14.0558  -15.3085 C   0  0  2  0  0  0  0  0  0  0  0  0
   24.1786  -15.5441  -15.2852 C   0  0  0  0  0  0  0  0  0  0  0  0
   22.6915  -15.4165  -14.9231 C   0  0  0  0  0  0  0  0  0  0  0  0
   24.4062  -16.1106  -16.6348 C   0  0  2  0  0  0  0  0  0  0  0  0
   24.1365  -17.5227  -16.9139 N   0  0  0  0  0  0  0  0  0  0  0  0
   25.3315  -18.2692  -16.4467 C   0  0  0  0  0  0  0  0  0  0  0  0
   23.8022  -17.9820  -18.2415 O   0  0  0  0  0  0  0  0  0  0  0  0
   24.5191  -18.6301  -19.0465 O   0  0  0  0  0  0  0  0  0  0  0  0
  2  1  1  1
  2  3  1  0
  4  2  1  0
  5  4  1  0
  5  6  1  6
  7  5  1  0
  7  8  2  0
  9 10  1  0
 10 11  2  0
 10 12  1  0
 12 13  1  0
 13 14  1  0
 14 15  1  0
 16 15  1  6
 17 16  1  0
 17  7  1  0
 18 16  1  0
 19 18  2  0
 21 20  1  1
 21 22  1  0
 21 23  1  0
 24 23  1  1
 24 25  1  0
 24 26  1  0
 25 18  1  0
 26 28  1  0
 27 26  2  0
M  END
$$$$
