LRL.pdb
     RDKit          3D

 28 27  0  0  1  0  0  0  0  0999 V2000
   26.2995  -13.9793  -19.6817 C   0  0  0  0  0  0  0  0  0  0  0  0
   26.1633  -14.3136  -18.2160 C   0  0  1  0  0  0  0  0  0  0  0  0
   25.1564  -13.3477  -17.6304 C   0  0  0  0  0  0  0  0  0  0  0  0
   25.6895  -15.7473  -18.0866 C   0  0  0  0  0  0  0  0  0  0  0  0
   25.3406  -16.0915  -16.6624 C   0  0  2  0  0  0  0  0  0  0  0  0
   26.5350  -16.1549  -15.8377 N   0  0  0  0  0  0  0  0  0  0  0  0
   24.6365  -17.4021  -16.6684 C   0  0  0  0  0  0  0  0  0  0  0  0
   23.5254  -17.5091  -17.2269 O   0  0  0  0  0  0  0  0  0  0  0  0
   25.5666  -26.0040  -15.7810 N   0  0  0  0  0  0  0  0  0  0  0  0
   26.2013  -25.0828  -16.6465 C   0  0  0  0  0  0  0  0  0  0  0  0
   26.5729  -25.4757  -17.8113 N   0  0  0  0  0  0  0  0  0  0  0  0
   26.4442  -23.7295  -16.2714 N   0  0  0  0  0  0  0  0  0  0  0  0
   26.0165  -23.1799  -15.0147 C   0  0  0  0  0  0  0  0  0  0  0  0
   24.9333  -22.1589  -15.2834 C   0  0  0  0  0  0  0  0  0  0  0  0
   25.4655  -20.8114  -15.6057 C   0  0  0  0  0  0  0  0  0  0  0  0
   24.4340  -19.7661  -15.9508 C   0  0  2  0  0  0  0  0  0  0  0  0
   25.2277  -18.5088  -16.0454 N   0  0  0  0  0  0  0  0  0  0  0  0
   23.4260  -19.6129  -14.8761 C   0  0  0  0  0  0  0  0  0  0  0  0
   23.7701  -18.9271  -13.8620 O   0  0  0  0  0  0  0  0  0  0  0  0
   26.9717  -24.8121  -18.5157 C   0  0  0  0  0  0  0  0  0  0  0  0
   20.3157  -16.0028  -13.4069 C   0  0  2  0  0  0  0  0  0  0  0  0
   20.1705  -17.5152  -13.0427 C   0  0  0  0  0  0  0  0  0  0  0  0
   18.6653  -17.7616  -13.2233 C   0  0  0  0  0  0  0  0  0  0  0  0
   21.0081  -18.2885  -13.9885 C   0  0  1  0  0  0  0  0  0  0  0  0
   21.1094  -19.7460  -13.8864 N   0  0  0  0  0  0  0  0  0  0  0  0
   22.1262  -20.1580  -14.8864 C   0  0  0  0  0  0  0  0  0  0  0  0
   19.9529  -20.5978  -14.0345 O   0  0  0  0  0  0  0  0  0  0  0  0
   19.0544  -20.8473  -13.1903 O   0  0  0  0  0  0  0  0  0  0  0  0
  2  1  1  6
  2  3  1  0
  4  2  1  0
  5  4  1  0
  5  6  1  1
  7  5  1  0
  7  8  2  0
  9 10  1  0
 10 11  2  0
 10 12  1  0
 12 13  1  0
 13 14  1  0
 14 15  1  0
 16 15  1  1
 17 16  1  0
 17  7  1  0
 18 16  1  0
 19 18  2  0
 21 20  1  1
 21 22  1  0
 21 23  1  0
 24 23  1  1
 24 25  1  0
 24 26  1  0
 25 18  1  0
 26 28  1  0
 27 26  2  0
M  END
$$$$
