LRL.pdb
     RDKit          3D

 28 27  0  0  1  0  0  0  0  0999 V2000
   27.6057  -17.7616  -18.5802 C   0  0  0  0  0  0  0  0  0  0  0  0
   28.0208  -18.2640  -17.2187 C   0  0  1  0  0  0  0  0  0  0  0  0
   29.0274  -17.2776  -16.6676 C   0  0  0  0  0  0  0  0  0  0  0  0
   26.7919  -18.3466  -16.3358 C   0  0  0  0  0  0  0  0  0  0  0  0
   27.1421  -18.7676  -14.9327 C   0  0  2  0  0  0  0  0  0  0  0  0
   28.2951  -19.6516  -14.9301 N   0  0  0  0  0  0  0  0  0  0  0  0
   25.9554  -19.4507  -14.3508 C   0  0  0  0  0  0  0  0  0  0  0  0
   24.8552  -18.8624  -14.3129 O   0  0  0  0  0  0  0  0  0  0  0  0
   25.8810  -26.3183  -15.5851 N   0  0  0  0  0  0  0  0  0  0  0  0
   25.9586  -25.5882  -16.7940 C   0  0  0  0  0  0  0  0  0  0  0  0
   26.7572  -25.9908  -17.7156 N   0  0  0  0  0  0  0  0  0  0  0  0
   25.1797  -24.4177  -17.0272 N   0  0  0  0  0  0  0  0  0  0  0  0
   24.1568  -23.9689  -16.1236 C   0  0  0  0  0  0  0  0  0  0  0  0
   24.5987  -22.6567  -15.5149 C   0  0  0  0  0  0  0  0  0  0  0  0
   24.8322  -22.7391  -14.0515 C   0  0  0  0  0  0  0  0  0  0  0  0
   24.8611  -21.4209  -13.3186 C   0  0  2  0  0  0  0  0  0  0  0  0
   26.0825  -20.7522  -13.8487 N   0  0  0  0  0  0  0  0  0  0  0  0
   25.0171  -21.6078  -11.8573 C   0  0  0  0  0  0  0  0  0  0  0  0
   24.1302  -22.3061  -11.2717 O   0  0  0  0  0  0  0  0  0  0  0  0
   26.8694  -25.4675  -18.6152 C   0  0  0  0  0  0  0  0  0  0  0  0
   29.1829  -20.3624   -7.5340 C   0  0  2  0  0  0  0  0  0  0  0  0
   27.6538  -20.6482   -7.6803 C   0  0  0  0  0  0  0  0  0  0  0  0
   27.0168  -19.3986   -7.0546 C   0  0  0  0  0  0  0  0  0  0  0  0
   27.3593  -20.7948   -9.1246 C   0  0  1  0  0  0  0  0  0  0  0  0
   26.0141  -21.1429   -9.5872 N   0  0  0  0  0  0  0  0  0  0  0  0
   26.0611  -21.0820  -11.0696 C   0  0  0  0  0  0  0  0  0  0  0  0
   24.8479  -20.4195   -9.1379 O   0  0  0  0  0  0  0  0  0  0  0  0
   24.3780  -19.3418   -9.5848 O   0  0  0  0  0  0  0  0  0  0  0  0
  2  1  1  6
  2  3  1  0
  4  2  1  0
  5  4  1  0
  5  6  1  6
  7  5  1  0
  7  8  2  0
  9 10  1  0
 10 11  2  0
 10 12  1  0
 12 13  1  0
 13 14  1  0
 14 15  1  0
 16 15  1  6
 17 16  1  0
 17  7  1  0
 18 16  1  0
 19 18  2  0
 21 20  1  1
 21 22  1  0
 21 23  1  0
 24 23  1  6
 24 25  1  0
 24 26  1  0
 25 18  1  0
 26 28  1  0
 27 26  2  0
M  END
$$$$
