LRL.pdb
     RDKit          3D

 28 27  0  0  1  0  0  0  0  0999 V2000
   26.2752  -16.4705  -20.1677 C   0  0  0  0  0  0  0  0  0  0  0  0
   26.4374  -17.1364  -18.8228 C   0  0  1  0  0  0  0  0  0  0  0  0
   26.6421  -16.0371  -17.8031 C   0  0  0  0  0  0  0  0  0  0  0  0
   25.1866  -17.9379  -18.5234 C   0  0  0  0  0  0  0  0  0  0  0  0
   25.2396  -18.5606  -17.1530 C   0  0  2  0  0  0  0  0  0  0  0  0
   26.4329  -19.3750  -17.0002 N   0  0  0  0  0  0  0  0  0  0  0  0
   24.0144  -19.3864  -16.9786 C   0  0  0  0  0  0  0  0  0  0  0  0
   22.8927  -18.8938  -17.2174 O   0  0  0  0  0  0  0  0  0  0  0  0
   23.1827  -25.8638  -13.0124 N   0  0  0  0  0  0  0  0  0  0  0  0
   22.1557  -26.3415  -13.8596 C   0  0  0  0  0  0  0  0  0  0  0  0
   21.1070  -26.8646  -13.3347 N   0  0  0  0  0  0  0  0  0  0  0  0
   22.2432  -26.2628  -15.2800 N   0  0  0  0  0  0  0  0  0  0  0  0
   23.1224  -25.3509  -15.9579 C   0  0  0  0  0  0  0  0  0  0  0  0
   22.6095  -23.9442  -15.7438 C   0  0  0  0  0  0  0  0  0  0  0  0
   23.3271  -22.9293  -16.5550 C   0  0  0  0  0  0  0  0  0  0  0  0
   22.8786  -21.5019  -16.3627 C   0  0  2  0  0  0  0  0  0  0  0  0
   24.1297  -20.7140  -16.5465 N   0  0  0  0  0  0  0  0  0  0  0  0
   22.3651  -21.2669  -14.9931 C   0  0  0  0  0  0  0  0  0  0  0  0
   23.1319  -20.6428  -14.1935 O   0  0  0  0  0  0  0  0  0  0  0  0
   20.3061  -27.1995  -13.9198 C   0  0  0  0  0  0  0  0  0  0  0  0
   20.9952  -17.2574  -12.9535 C   0  0  2  0  0  0  0  0  0  0  0  0
   21.2178  -18.7336  -12.4925 C   0  0  0  0  0  0  0  0  0  0  0  0
   20.5366  -18.7624  -11.1163 C   0  0  0  0  0  0  0  0  0  0  0  0
   20.5675  -19.6186  -13.4865 C   0  0  2  0  0  0  0  0  0  0  0  0
   20.5188  -21.0685  -13.2857 N   0  0  0  0  0  0  0  0  0  0  0  0
   21.1052  -21.6724  -14.5084 C   0  0  0  0  0  0  0  0  0  0  0  0
   19.2813  -21.7508  -12.9886 O   0  0  0  0  0  0  0  0  0  0  0  0
   18.6747  -21.8232  -11.8892 O   0  0  0  0  0  0  0  0  0  0  0  0
  2  1  1  6
  2  3  1  0
  4  2  1  0
  5  4  1  0
  5  6  1  6
  7  5  1  0
  7  8  2  0
  9 10  1  0
 10 11  2  0
 10 12  1  0
 12 13  1  0
 13 14  1  0
 14 15  1  0
 16 15  1  1
 17 16  1  0
 17  7  1  0
 18 16  1  0
 19 18  2  0
 21 20  1  1
 21 22  1  0
 21 23  1  0
 24 23  1  1
 24 25  1  0
 24 26  1  0
 25 18  1  0
 26 28  1  0
 27 26  2  0
M  END
$$$$
