LRL.pdb
     RDKit          3D

 28 27  0  0  1  0  0  0  0  0999 V2000
   14.1704  -29.5498   -7.1247 C   0  0  0  0  0  0  0  0  0  0  0  0
   14.8585  -29.0733   -8.3809 C   0  0  1  0  0  0  0  0  0  0  0  0
   13.8028  -28.9861   -9.4616 C   0  0  0  0  0  0  0  0  0  0  0  0
   15.4810  -27.7184   -8.1098 C   0  0  0  0  0  0  0  0  0  0  0  0
   16.1703  -27.1686   -9.3309 C   0  0  2  0  0  0  0  0  0  0  0  0
   17.5358  -27.6570   -9.4186 N   0  0  0  0  0  0  0  0  0  0  0  0
   16.1487  -25.6838   -9.2383 C   0  0  0  0  0  0  0  0  0  0  0  0
   17.1277  -25.0759   -8.7588 O   0  0  0  0  0  0  0  0  0  0  0  0
   17.5705  -19.8871  -14.6711 N   0  0  0  0  0  0  0  0  0  0  0  0
   16.6244  -19.2323  -13.8486 C   0  0  0  0  0  0  0  0  0  0  0  0
   16.4375  -17.9704  -13.9957 N   0  0  0  0  0  0  0  0  0  0  0  0
   15.8681  -19.9250  -12.8589 N   0  0  0  0  0  0  0  0  0  0  0  0
   15.9913  -21.3382  -12.6309 C   0  0  0  0  0  0  0  0  0  0  0  0
   14.9961  -21.7389  -11.5647 C   0  0  0  0  0  0  0  0  0  0  0  0
   15.0629  -23.1793  -11.2129 C   0  0  0  0  0  0  0  0  0  0  0  0
   15.1065  -23.4908   -9.7375 C   0  0  2  0  0  0  0  0  0  0  0  0
   15.0266  -24.9779   -9.6911 N   0  0  0  0  0  0  0  0  0  0  0  0
   13.9371  -22.9289   -9.0223 C   0  0  0  0  0  0  0  0  0  0  0  0
   12.7944  -23.3799   -9.3507 O   0  0  0  0  0  0  0  0  0  0  0  0
   15.7052  -17.4547  -13.4539 C   0  0  0  0  0  0  0  0  0  0  0  0
   13.2625  -22.0526   -3.6756 C   0  0  2  0  0  0  0  0  0  0  0  0
   13.0380  -22.5024   -5.1550 C   0  0  0  0  0  0  0  0  0  0  0  0
   11.7016  -23.2556   -5.0783 C   0  0  0  0  0  0  0  0  0  0  0  0
   12.9752  -21.2820   -5.9921 C   0  0  2  0  0  0  0  0  0  0  0  0
   12.7465  -21.3703   -7.4359 N   0  0  0  0  0  0  0  0  0  0  0  0
   13.9870  -21.9455   -8.0137 C   0  0  0  0  0  0  0  0  0  0  0  0
   12.3740  -20.2135   -8.2158 O   0  0  0  0  0  0  0  0  0  0  0  0
   13.0445  -19.6183   -9.0979 O   0  0  0  0  0  0  0  0  0  0  0  0
  2  1  1  1
  2  3  1  0
  4  2  1  0
  5  4  1  0
  5  6  1  1
  7  5  1  0
  7  8  2  0
  9 10  1  0
 10 11  2  0
 10 12  1  0
 12 13  1  0
 13 14  1  0
 14 15  1  0
 16 15  1  6
 17 16  1  0
 17  7  1  0
 18 16  1  0
 19 18  2  0
 21 20  1  1
 21 22  1  0
 21 23  1  0
 24 23  1  1
 24 25  1  0
 24 26  1  0
 25 18  1  0
 26 28  1  0
 27 26  2  0
M  END
$$$$
