LRL.pdb
     RDKit          3D

 28 27  0  0  1  0  0  0  0  0999 V2000
   26.9619  -16.0276  -19.2985 C   0  0  0  0  0  0  0  0  0  0  0  0
   27.7296  -17.3015  -19.0409 C   0  0  1  0  0  0  0  0  0  0  0  0
   28.9364  -16.9332  -18.2054 C   0  0  0  0  0  0  0  0  0  0  0  0
   26.8275  -18.2723  -18.3057 C   0  0  0  0  0  0  0  0  0  0  0  0
   27.6075  -19.4158  -17.7119 C   0  0  2  0  0  0  0  0  0  0  0  0
   28.0738  -20.3187  -18.7502 N   0  0  0  0  0  0  0  0  0  0  0  0
   26.7171  -20.1290  -16.7569 C   0  0  0  0  0  0  0  0  0  0  0  0
   25.7974  -20.8550  -17.1870 O   0  0  0  0  0  0  0  0  0  0  0  0
   25.7455  -19.3834   -8.3612 N   0  0  0  0  0  0  0  0  0  0  0  0
   25.2585  -20.6865   -8.6171 C   0  0  0  0  0  0  0  0  0  0  0  0
   24.2607  -21.1240   -7.9376 N   0  0  0  0  0  0  0  0  0  0  0  0
   25.8375  -21.5344   -9.6055 N   0  0  0  0  0  0  0  0  0  0  0  0
   26.6816  -21.0414  -10.6585 C   0  0  0  0  0  0  0  0  0  0  0  0
   25.9175  -21.1227  -11.9613 C   0  0  0  0  0  0  0  0  0  0  0  0
   26.7002  -20.6488  -13.1299 C   0  0  0  0  0  0  0  0  0  0  0  0
   25.9781  -20.6732  -14.4542 C   0  0  2  0  0  0  0  0  0  0  0  0
   26.9186  -19.9798  -15.3787 N   0  0  0  0  0  0  0  0  0  0  0  0
   24.7104  -19.9084  -14.4031 C   0  0  0  0  0  0  0  0  0  0  0  0
   24.8032  -18.6417  -14.4669 O   0  0  0  0  0  0  0  0  0  0  0  0
   23.8397  -22.0650   -8.1197 C   0  0  0  0  0  0  0  0  0  0  0  0
   21.6053  -17.6697  -17.7073 C   0  0  2  0  0  0  0  0  0  0  0  0
   21.1751  -18.1963  -16.3006 C   0  0  0  0  0  0  0  0  0  0  0  0
   19.9078  -19.0042  -16.6172 C   0  0  0  0  0  0  0  0  0  0  0  0
   22.2823  -19.0267  -15.7727 C   0  0  1  0  0  0  0  0  0  0  0  0
   22.2039  -19.6264  -14.4389 N   0  0  0  0  0  0  0  0  0  0  0  0
   23.4201  -20.4650  -14.2935 C   0  0  0  0  0  0  0  0  0  0  0  0
   21.0608  -20.4054  -14.0247 O   0  0  0  0  0  0  0  0  0  0  0  0
   20.9095  -21.6533  -14.0689 O   0  0  0  0  0  0  0  0  0  0  0  0
  2  1  1  1
  2  3  1  0
  4  2  1  0
  5  4  1  0
  5  6  1  6
  7  5  1  0
  7  8  2  0
  9 10  1  0
 10 11  2  0
 10 12  1  0
 12 13  1  0
 13 14  1  0
 14 15  1  0
 16 15  1  1
 17 16  1  0
 17  7  1  0
 18 16  1  0
 19 18  2  0
 21 20  1  1
 21 22  1  0
 21 23  1  0
 24 23  1  1
 24 25  1  0
 24 26  1  0
 25 18  1  0
 26 28  1  0
 27 26  2  0
M  END
$$$$
