FQT.pdb
     RDKit          3D

 28 28  0  0  1  0  0  0  0  0999 V2000
   22.2974  -14.9225  -16.9470 N   0  0  0  0  0  0  0  0  0  0  0  0
   22.5356  -13.6918  -16.2422 C   0  0  1  0  0  0  0  0  0  0  0  0
   23.8926  -13.1012  -16.5063 C   0  0  0  0  0  0  0  0  0  0  0  0
   24.9341  -14.1192  -16.2149 C   0  0  0  0  0  0  0  0  0  0  0  0
   25.4196  -14.1847  -14.9323 C   0  0  0  0  0  0  0  0  0  0  0  0
   26.3905  -15.1254  -14.6375 C   0  0  0  0  0  0  0  0  0  0  0  0
   26.8693  -15.9811  -15.5901 C   0  0  0  0  0  0  0  0  0  0  0  0
   26.3796  -15.9104  -16.8709 C   0  0  0  0  0  0  0  0  0  0  0  0
   25.4070  -14.9749  -17.1853 C   0  0  0  0  0  0  0  0  0  0  0  0
   21.4936  -12.6636  -16.5828 C   0  0  0  0  0  0  0  0  0  0  0  0
   20.6036  -12.9025  -17.4288 O   0  0  0  0  0  0  0  0  0  0  0  0
   17.3481  -11.4522  -17.7193 N   0  0  0  0  0  0  0  0  0  0  0  0
   17.0462  -10.3387  -16.9005 C   0  0  0  0  0  0  0  0  0  0  0  0
   16.0344   -9.6113  -17.0479 O   0  0  0  0  0  0  0  0  0  0  0  0
   18.0003  -10.0183  -15.7929 C   0  0  0  0  0  0  0  0  0  0  0  0
   19.1276  -11.0117  -15.7885 C   0  0  0  0  0  0  0  0  0  0  0  0
   20.4600  -10.4092  -16.0808 C   0  0  2  0  0  0  0  0  0  0  0  0
   21.5280  -11.4028  -15.9282 N   0  0  0  0  0  0  0  0  0  0  0  0
   20.7917   -9.1840  -15.3345 C   0  0  0  0  0  0  0  0  0  0  0  0
   21.0512   -9.1974  -14.1312 O   0  0  0  0  0  0  0  0  0  0  0  0
   22.3509   -4.4583  -15.4671 C   0  0  0  0  0  0  0  0  0  0  0  0
   21.9236   -5.6972  -16.1993 C   0  0  1  0  0  0  0  0  0  0  0  0
   23.0305   -6.3673  -16.7313 O   0  0  0  0  0  0  0  0  0  0  0  0
   21.2032   -6.6820  -15.3102 C   0  0  2  0  0  0  0  0  0  0  0  0
   20.8331   -7.8894  -15.9690 N   0  0  0  0  0  0  0  0  0  0  0  0
   19.9994   -5.9996  -14.7831 C   0  0  0  0  0  0  0  0  0  0  0  0
   19.0055   -5.8562  -15.5351 O   0  0  0  0  0  0  0  0  0  0  0  0
   19.9196   -5.5078  -13.4861 O   0  0  0  0  0  0  0  0  0  0  0  0
  2  1  1  6
  2  3  1  0
  3  4  1  0
  4  9  2  0
  5  6  2  0
  5  4  1  0
  6  7  1  0
  7  8  2  0
  9  8  1  0
 10 18  1  0
 10  2  1  0
 11 10  2  0
 13 12  1  0
 13 15  1  0
 14 13  2  0
 17 16  1  1
 16 15  1  0
 17 18  1  0
 19 20  2  0
 19 17  1  0
 22 21  1  1
 22 23  1  0
 24 22  1  0
 24 25  1  6
 25 19  1  0
 26 24  1  0
 27 26  2  0
 28 26  1  0
M  END
$$$$
