FQT.pdb
     RDKit          3D

 28 28  0  0  1  0  0  0  0  0999 V2000
   28.2166  -21.1968   -8.9166 N   0  0  0  0  0  0  0  0  0  0  0  0
   26.8644  -20.7159   -8.8259 C   0  0  1  0  0  0  0  0  0  0  0  0
   26.7150  -19.5052   -7.9474 C   0  0  0  0  0  0  0  0  0  0  0  0
   27.5321  -19.6874   -6.7205 C   0  0  0  0  0  0  0  0  0  0  0  0
   27.0345  -20.5094   -5.7399 C   0  0  0  0  0  0  0  0  0  0  0  0
   27.7786  -20.6941   -4.5881 C   0  0  0  0  0  0  0  0  0  0  0  0
   28.9868  -20.0794   -4.4114 C   0  0  0  0  0  0  0  0  0  0  0  0
   29.4789  -19.2585   -5.3960 C   0  0  0  0  0  0  0  0  0  0  0  0
   28.7482  -19.0612   -6.5566 C   0  0  0  0  0  0  0  0  0  0  0  0
   26.3147  -20.3889  -10.1860 C   0  0  0  0  0  0  0  0  0  0  0  0
   27.0302  -19.8482  -11.0582 O   0  0  0  0  0  0  0  0  0  0  0  0
   25.2511  -21.9292  -14.8121 N   0  0  0  0  0  0  0  0  0  0  0  0
   26.5466  -21.7627  -14.2686 C   0  0  0  0  0  0  0  0  0  0  0  0
   27.5587  -21.4573  -14.9445 O   0  0  0  0  0  0  0  0  0  0  0  0
   26.7074  -21.9662  -12.7946 C   0  0  0  0  0  0  0  0  0  0  0  0
   25.3944  -22.3776  -12.1910 C   0  0  0  0  0  0  0  0  0  0  0  0
   24.5371  -21.2293  -11.7786 C   0  0  2  0  0  0  0  0  0  0  0  0
   24.9596  -20.7025  -10.4766 N   0  0  0  0  0  0  0  0  0  0  0  0
   23.0851  -21.4738  -11.7840 C   0  0  0  0  0  0  0  0  0  0  0  0
   22.5364  -22.1916  -10.9479 O   0  0  0  0  0  0  0  0  0  0  0  0
   21.3666  -18.2066  -11.7077 C   0  0  0  0  0  0  0  0  0  0  0  0
   20.6848  -19.5130  -11.4209 C   0  0  1  0  0  0  0  0  0  0  0  0
   19.3080  -19.3292  -11.2533 O   0  0  0  0  0  0  0  0  0  0  0  0
   20.8586  -20.5191  -12.5330 C   0  0  2  0  0  0  0  0  0  0  0  0
   22.2140  -20.8856  -12.7718 N   0  0  0  0  0  0  0  0  0  0  0  0
   20.2673  -19.9293  -13.7558 C   0  0  0  0  0  0  0  0  0  0  0  0
   19.0280  -19.7393  -13.7992 O   0  0  0  0  0  0  0  0  0  0  0  0
   21.0266  -19.5746  -14.8639 O   0  0  0  0  0  0  0  0  0  0  0  0
  2  1  1  6
  2  3  1  0
  3  4  1  0
  4  9  2  0
  5  6  2  0
  5  4  1  0
  6  7  1  0
  7  8  2  0
  9  8  1  0
 10 18  1  0
 10  2  1  0
 11 10  2  0
 13 12  1  0
 13 15  1  0
 14 13  2  0
 17 16  1  1
 16 15  1  0
 17 18  1  0
 19 20  2  0
 19 17  1  0
 22 21  1  6
 22 23  1  0
 24 22  1  0
 24 25  1  6
 25 19  1  0
 26 24  1  0
 27 26  2  0
 28 26  1  0
M  END
$$$$
