FQT.pdb
     RDKit          3D

 28 28  0  0  1  0  0  0  0  0999 V2000
   25.3727  -21.4989   -7.3572 N   0  0  0  0  0  0  0  0  0  0  0  0
   26.1164  -20.6177   -8.2165 C   0  0  1  0  0  0  0  0  0  0  0  0
   27.5978  -20.6390   -7.9618 C   0  0  0  0  0  0  0  0  0  0  0  0
   27.8670  -20.1159   -6.5979 C   0  0  0  0  0  0  0  0  0  0  0  0
   27.5714  -18.7980   -6.3513 C   0  0  0  0  0  0  0  0  0  0  0  0
   27.8138  -18.2889   -5.0878 C   0  0  0  0  0  0  0  0  0  0  0  0
   28.3365  -19.0661   -4.0921 C   0  0  0  0  0  0  0  0  0  0  0  0
   28.6299  -20.3834   -4.3453 C   0  0  0  0  0  0  0  0  0  0  0  0
   28.3941  -20.9114   -5.6044 C   0  0  0  0  0  0  0  0  0  0  0  0
   25.8767  -20.9448   -9.6638 C   0  0  0  0  0  0  0  0  0  0  0  0
   26.0944  -22.0929  -10.1105 O   0  0  0  0  0  0  0  0  0  0  0  0
   21.0722  -19.7473  -12.7112 N   0  0  0  0  0  0  0  0  0  0  0  0
   21.3835  -20.8117  -11.8328 C   0  0  0  0  0  0  0  0  0  0  0  0
   20.5290  -21.5800  -11.3286 O   0  0  0  0  0  0  0  0  0  0  0  0
   22.8249  -21.0247  -11.4910 C   0  0  0  0  0  0  0  0  0  0  0  0
   23.6785  -20.0524  -12.2548 C   0  0  0  0  0  0  0  0  0  0  0  0
   25.1347  -20.1668  -11.9543 C   0  0  2  0  0  0  0  0  0  0  0  0
   25.3952  -19.9273  -10.5310 N   0  0  0  0  0  0  0  0  0  0  0  0
   26.0310  -19.3436  -12.7833 C   0  0  0  0  0  0  0  0  0  0  0  0
   26.8674  -18.5850  -12.2930 O   0  0  0  0  0  0  0  0  0  0  0  0
   28.8476  -19.4740  -13.4674 C   0  0  0  0  0  0  0  0  0  0  0  0
   28.3465  -19.5692  -14.8793 C   0  0  1  0  0  0  0  0  0  0  0  0
   28.1719  -20.9052  -15.2561 O   0  0  0  0  0  0  0  0  0  0  0  0
   27.0157  -18.8834  -15.0742 C   0  0  2  0  0  0  0  0  0  0  0  0
   25.9840  -19.3756  -14.2245 N   0  0  0  0  0  0  0  0  0  0  0  0
   26.6340  -19.0600  -16.4941 C   0  0  0  0  0  0  0  0  0  0  0  0
   25.6146  -19.7379  -16.7681 O   0  0  0  0  0  0  0  0  0  0  0  0
   27.3573  -18.5059  -17.5429 O   0  0  0  0  0  0  0  0  0  0  0  0
  2  1  1  1
  2  3  1  0
  3  4  1  0
  4  9  2  0
  5  6  2  0
  5  4  1  0
  6  7  1  0
  7  8  2  0
  9  8  1  0
 10 18  1  0
 10  2  1  0
 11 10  2  0
 13 12  1  0
 13 15  1  0
 14 13  2  0
 17 16  1  6
 16 15  1  0
 17 18  1  0
 19 20  2  0
 19 17  1  0
 22 21  1  1
 22 23  1  0
 24 22  1  0
 24 25  1  1
 25 19  1  0
 26 24  1  0
 27 26  2  0
 28 26  1  0
M  END
$$$$
