FQT.pdb
     RDKit          3D

 28 28  0  0  1  0  0  0  0  0999 V2000
   16.4022  -10.9404  -14.3090 N   0  0  0  0  0  0  0  0  0  0  0  0
   16.9861  -10.0291  -15.2559 C   0  0  1  0  0  0  0  0  0  0  0  0
   16.0712   -9.6799  -16.3964 C   0  0  0  0  0  0  0  0  0  0  0  0
   15.8552  -10.8854  -17.2368 C   0  0  0  0  0  0  0  0  0  0  0  0
   14.6898  -11.5881  -17.0552 C   0  0  0  0  0  0  0  0  0  0  0  0
   14.4671  -12.7146  -17.8270 C   0  0  0  0  0  0  0  0  0  0  0  0
   15.3767  -13.1355  -18.7567 C   0  0  0  0  0  0  0  0  0  0  0  0
   16.5403  -12.4282  -18.9334 C   0  0  0  0  0  0  0  0  0  0  0  0
   16.7812  -11.2974  -18.1698 C   0  0  0  0  0  0  0  0  0  0  0  0
   17.4185   -8.7558  -14.5844 C   0  0  0  0  0  0  0  0  0  0  0  0
   16.9360   -8.4110  -13.4830 O   0  0  0  0  0  0  0  0  0  0  0  0
   22.8690   -6.7618  -13.7030 N   0  0  0  0  0  0  0  0  0  0  0  0
   22.2077   -5.5911  -13.2631 C   0  0  0  0  0  0  0  0  0  0  0  0
   22.7633   -4.6709  -12.6157 O   0  0  0  0  0  0  0  0  0  0  0  0
   20.7552   -5.4529  -13.5965 C   0  0  0  0  0  0  0  0  0  0  0  0
   20.2657   -6.7043  -14.2687 C   0  0  0  0  0  0  0  0  0  0  0  0
   18.8263   -6.6545  -14.6554 C   0  0  2  0  0  0  0  0  0  0  0  0
   18.3915   -7.9370  -15.2185 N   0  0  0  0  0  0  0  0  0  0  0  0
   18.4351   -5.5475  -15.5440 C   0  0  0  0  0  0  0  0  0  0  0  0
   18.7030   -5.5431  -16.7455 O   0  0  0  0  0  0  0  0  0  0  0  0
   14.9958   -4.2535  -16.5552 C   0  0  0  0  0  0  0  0  0  0  0  0
   15.7357   -3.1596  -15.8413 C   0  0  1  0  0  0  0  0  0  0  0  0
   15.3752   -3.1149  -14.4902 O   0  0  0  0  0  0  0  0  0  0  0  0
   17.2337   -3.3410  -15.8875 C   0  0  2  0  0  0  0  0  0  0  0  0
   17.7120   -4.3971  -15.0601 N   0  0  0  0  0  0  0  0  0  0  0  0
   17.8451   -2.0561  -15.4778 C   0  0  0  0  0  0  0  0  0  0  0  0
   18.4622   -1.9987  -14.3871 O   0  0  0  0  0  0  0  0  0  0  0  0
   17.7661   -0.9042  -16.2505 O   0  0  0  0  0  0  0  0  0  0  0  0
  2  1  1  1
  2  3  1  0
  3  4  1  0
  4  9  2  0
  5  6  2  0
  5  4  1  0
  6  7  1  0
  7  8  2  0
  9  8  1  0
 10 18  1  0
 10  2  1  0
 11 10  2  0
 13 12  1  0
 13 15  1  0
 14 13  2  0
 17 16  1  6
 16 15  1  0
 17 18  1  0
 19 20  2  0
 19 17  1  0
 22 21  1  1
 22 23  1  0
 24 22  1  0
 24 25  1  1
 25 19  1  0
 26 24  1  0
 27 26  2  0
 28 26  1  0
M  END
$$$$
