FQT.pdb
     RDKit          3D

 28 28  0  0  1  0  0  0  0  0999 V2000
   27.3739  -22.3157  -13.1332 N   0  0  0  0  0  0  0  0  0  0  0  0
   26.6108  -21.7094  -12.0757 C   0  0  1  0  0  0  0  0  0  0  0  0
   27.1812  -20.4042  -11.5952 C   0  0  0  0  0  0  0  0  0  0  0  0
   28.2866  -20.6754  -10.6409 C   0  0  0  0  0  0  0  0  0  0  0  0
   28.0101  -20.5727   -9.3000 C   0  0  0  0  0  0  0  0  0  0  0  0
   29.0245  -20.8209   -8.3924 C   0  0  0  0  0  0  0  0  0  0  0  0
   30.2830  -21.1627   -8.8027 C   0  0  0  0  0  0  0  0  0  0  0  0
   30.5529  -21.2637  -10.1452 C   0  0  0  0  0  0  0  0  0  0  0  0
   29.5500  -21.0189  -11.0693 C   0  0  0  0  0  0  0  0  0  0  0  0
   25.1870  -21.4804  -12.4994 C   0  0  0  0  0  0  0  0  0  0  0  0
   24.8548  -21.5397  -13.7040 O   0  0  0  0  0  0  0  0  0  0  0  0
   20.6230  -22.0220   -8.3270 N   0  0  0  0  0  0  0  0  0  0  0  0
   19.8135  -21.8431   -9.4733 C   0  0  0  0  0  0  0  0  0  0  0  0
   18.5610  -21.9200   -9.4685 O   0  0  0  0  0  0  0  0  0  0  0  0
   20.5053  -21.5442  -10.7663 C   0  0  0  0  0  0  0  0  0  0  0  0
   21.9911  -21.4916  -10.5486 C   0  0  0  0  0  0  0  0  0  0  0  0
   22.7710  -21.2264  -11.7916 C   0  0  2  0  0  0  0  0  0  0  0  0
   24.2098  -21.1925  -11.5088 N   0  0  0  0  0  0  0  0  0  0  0  0
   22.3734  -20.0356  -12.5609 C   0  0  0  0  0  0  0  0  0  0  0  0
   22.4468  -18.8981  -12.0960 O   0  0  0  0  0  0  0  0  0  0  0  0
   23.6233  -18.3650  -15.7456 C   0  0  0  0  0  0  0  0  0  0  0  0
   22.2162  -18.8360  -15.9736 C   0  0  1  0  0  0  0  0  0  0  0  0
   22.2054  -20.0729  -16.6273 O   0  0  0  0  0  0  0  0  0  0  0  0
   21.4447  -19.0150  -14.6883 C   0  0  2  0  0  0  0  0  0  0  0  0
   21.8720  -20.1288  -13.9102 N   0  0  0  0  0  0  0  0  0  0  0  0
   20.0165  -19.1641  -15.0500 C   0  0  0  0  0  0  0  0  0  0  0  0
   19.4513  -20.2656  -14.8468 O   0  0  0  0  0  0  0  0  0  0  0  0
   19.2691  -18.1340  -15.6074 O   0  0  0  0  0  0  0  0  0  0  0  0
  2  1  1  6
  2  3  1  0
  3  4  1  0
  4  9  2  0
  5  6  2  0
  5  4  1  0
  6  7  1  0
  7  8  2  0
  9  8  1  0
 10 18  1  0
 10  2  1  0
 11 10  2  0
 13 12  1  0
 13 15  1  0
 14 13  2  0
 17 16  1  1
 16 15  1  0
 17 18  1  0
 19 20  2  0
 19 17  1  0
 22 21  1  1
 22 23  1  0
 24 22  1  0
 24 25  1  6
 25 19  1  0
 26 24  1  0
 27 26  2  0
 28 26  1  0
M  END
$$$$
