FQT.pdb
     RDKit          3D

 28 28  0  0  1  0  0  0  0  0999 V2000
   26.8850  -18.1512   -8.1909 N   0  0  0  0  0  0  0  0  0  0  0  0
   27.1270  -19.5022   -8.6200 C   0  0  1  0  0  0  0  0  0  0  0  0
   26.8830  -20.5263   -7.5468 C   0  0  0  0  0  0  0  0  0  0  0  0
   27.7947  -20.2638   -6.4040 C   0  0  0  0  0  0  0  0  0  0  0  0
   29.1112  -20.6282   -6.5426 C   0  0  0  0  0  0  0  0  0  0  0  0
   29.9790  -20.3933   -5.4910 C   0  0  0  0  0  0  0  0  0  0  0  0
   29.5535  -19.8114   -4.3294 C   0  0  0  0  0  0  0  0  0  0  0  0
   28.2356  -19.4493   -4.1972 C   0  0  0  0  0  0  0  0  0  0  0  0
   27.3514  -19.6764   -5.2395 C   0  0  0  0  0  0  0  0  0  0  0  0
   26.2809  -19.8504   -9.8125 C   0  0  0  0  0  0  0  0  0  0  0  0
   25.0967  -19.4571   -9.9003 O   0  0  0  0  0  0  0  0  0  0  0  0
   28.9660  -22.0558  -14.9510 N   0  0  0  0  0  0  0  0  0  0  0  0
   28.7749  -20.6550  -14.8982 C   0  0  0  0  0  0  0  0  0  0  0  0
   29.3885  -19.8340  -15.6221 O   0  0  0  0  0  0  0  0  0  0  0  0
   27.7763  -20.1319  -13.9139 C   0  0  0  0  0  0  0  0  0  0  0  0
   27.1315  -21.2768  -13.1851 C   0  0  0  0  0  0  0  0  0  0  0  0
   26.1637  -20.8505  -12.1338 C   0  0  2  0  0  0  0  0  0  0  0  0
   26.8439  -20.6392  -10.8517 N   0  0  0  0  0  0  0  0  0  0  0  0
   24.9869  -21.7165  -11.9511 C   0  0  0  0  0  0  0  0  0  0  0  0
   24.9297  -22.5695  -11.0654 O   0  0  0  0  0  0  0  0  0  0  0  0
   22.0995  -19.4506  -11.6125 C   0  0  0  0  0  0  0  0  0  0  0  0
   22.0782  -20.9011  -11.2264 C   0  0  1  0  0  0  0  0  0  0  0  0
   20.7936  -21.2927  -10.8343 O   0  0  0  0  0  0  0  0  0  0  0  0
   22.4859  -21.8129  -12.3583 C   0  0  2  0  0  0  0  0  0  0  0  0
   23.8256  -21.6183  -12.8011 N   0  0  0  0  0  0  0  0  0  0  0  0
   21.5414  -21.5778  -13.4743 C   0  0  0  0  0  0  0  0  0  0  0  0
   20.3405  -21.9121  -13.3330 O   0  0  0  0  0  0  0  0  0  0  0  0
   21.9264  -21.0005  -14.6779 O   0  0  0  0  0  0  0  0  0  0  0  0
  2  1  1  1
  2  3  1  0
  3  4  1  0
  4  9  2  0
  5  6  2  0
  5  4  1  0
  6  7  1  0
  7  8  2  0
  9  8  1  0
 10 18  1  0
 10  2  1  0
 11 10  2  0
 13 12  1  0
 13 15  1  0
 14 13  2  0
 17 16  1  6
 16 15  1  0
 17 18  1  0
 19 20  2  0
 19 17  1  0
 22 21  1  6
 22 23  1  0
 24 22  1  0
 24 25  1  6
 25 19  1  0
 26 24  1  0
 27 26  2  0
 28 26  1  0
M  END
$$$$
