FQT.pdb
     RDKit          3D

 28 28  0  0  1  0  0  0  0  0999 V2000
   22.2345  -25.9130  -16.4263 N   0  0  0  0  0  0  0  0  0  0  0  0
   23.2580  -24.9076  -16.5252 C   0  0  1  0  0  0  0  0  0  0  0  0
   24.2211  -25.1399  -17.6558 C   0  0  0  0  0  0  0  0  0  0  0  0
   24.9541  -26.4101  -17.4206 C   0  0  0  0  0  0  0  0  0  0  0  0
   24.5994  -27.4998  -18.1768 C   0  0  0  0  0  0  0  0  0  0  0  0
   25.2686  -28.6938  -17.9750 C   0  0  0  0  0  0  0  0  0  0  0  0
   26.2656  -28.8064  -17.0464 C   0  0  0  0  0  0  0  0  0  0  0  0
   26.6156  -27.7128  -16.2933 C   0  0  0  0  0  0  0  0  0  0  0  0
   25.9568  -26.5084  -16.4811 C   0  0  0  0  0  0  0  0  0  0  0  0
   22.6575  -23.5389  -16.6840 C   0  0  0  0  0  0  0  0  0  0  0  0
   21.5457  -23.3821  -17.2355 O   0  0  0  0  0  0  0  0  0  0  0  0
   20.7766  -20.0833  -13.8145 N   0  0  0  0  0  0  0  0  0  0  0  0
   21.3012  -18.8657  -14.3078 C   0  0  0  0  0  0  0  0  0  0  0  0
   20.6997  -17.7660  -14.2493 O   0  0  0  0  0  0  0  0  0  0  0  0
   22.6589  -18.9040  -14.9362 C   0  0  0  0  0  0  0  0  0  0  0  0
   23.1660  -20.3181  -14.9674 C   0  0  0  0  0  0  0  0  0  0  0  0
   22.8067  -21.0576  -16.2115 C   0  0  2  0  0  0  0  0  0  0  0  0
   23.3715  -22.4110  -16.1968 N   0  0  0  0  0  0  0  0  0  0  0  0
   23.1306  -20.3826  -17.4794 C   0  0  0  0  0  0  0  0  0  0  0  0
   24.2903  -20.2127  -17.8559 O   0  0  0  0  0  0  0  0  0  0  0  0
   21.4553  -18.2444  -21.7126 C   0  0  0  0  0  0  0  0  0  0  0  0
   21.1768  -19.0670  -20.4881 C   0  0  1  0  0  0  0  0  0  0  0  0
   20.8451  -20.3808  -20.8362 O   0  0  0  0  0  0  0  0  0  0  0  0
   22.3624  -19.1484  -19.5570 C   0  0  2  0  0  0  0  0  0  0  0  0
   22.1064  -19.8776  -18.3605 N   0  0  0  0  0  0  0  0  0  0  0  0
   22.7622  -17.7601  -19.2319 C   0  0  0  0  0  0  0  0  0  0  0  0
   22.2049  -17.1779  -18.2705 O   0  0  0  0  0  0  0  0  0  0  0  0
   23.7322  -17.0687  -19.9470 O   0  0  0  0  0  0  0  0  0  0  0  0
  2  1  1  6
  2  3  1  0
  3  4  1  0
  4  9  2  0
  5  6  2  0
  5  4  1  0
  6  7  1  0
  7  8  2  0
  9  8  1  0
 10 18  1  0
 10  2  1  0
 11 10  2  0
 13 12  1  0
 13 15  1  0
 14 13  2  0
 17 16  1  1
 16 15  1  0
 17 18  1  0
 19 20  2  0
 19 17  1  0
 22 21  1  6
 22 23  1  0
 24 22  1  0
 24 25  1  1
 25 19  1  0
 26 24  1  0
 27 26  2  0
 28 26  1  0
M  END
$$$$
