FQT.pdb
     RDKit          3D

 28 28  0  0  1  0  0  0  0  0999 V2000
   24.5768  -20.9268   -9.1944 N   0  0  0  0  0  0  0  0  0  0  0  0
   25.6275  -20.1207   -9.7551 C   0  0  1  0  0  0  0  0  0  0  0  0
   27.0068  -20.5822   -9.3748 C   0  0  0  0  0  0  0  0  0  0  0  0
   27.3049  -20.1416   -7.9881 C   0  0  0  0  0  0  0  0  0  0  0  0
   27.2432  -18.7965   -7.7199 C   0  0  0  0  0  0  0  0  0  0  0  0
   27.5170  -18.3628   -6.4349 C   0  0  0  0  0  0  0  0  0  0  0  0
   27.8441  -19.2402   -5.4388 C   0  0  0  0  0  0  0  0  0  0  0  0
   27.9040  -20.5842   -5.7136 C   0  0  0  0  0  0  0  0  0  0  0  0
   27.6331  -21.0376   -6.9946 C   0  0  0  0  0  0  0  0  0  0  0  0
   25.5352  -20.0792  -11.2547 C   0  0  0  0  0  0  0  0  0  0  0  0
   24.8964  -20.9499  -11.8862 O   0  0  0  0  0  0  0  0  0  0  0  0
   26.7407  -14.9426  -14.5378 N   0  0  0  0  0  0  0  0  0  0  0  0
   26.5108  -15.8166  -15.6262 C   0  0  0  0  0  0  0  0  0  0  0  0
   26.5011  -15.4554  -16.8279 O   0  0  0  0  0  0  0  0  0  0  0  0
   26.2652  -17.2591  -15.3124 C   0  0  0  0  0  0  0  0  0  0  0  0
   26.3646  -17.4819  -13.8298 C   0  0  0  0  0  0  0  0  0  0  0  0
   26.1013  -18.8899  -13.4151 C   0  0  2  0  0  0  0  0  0  0  0  0
   26.1871  -19.0305  -11.9578 N   0  0  0  0  0  0  0  0  0  0  0  0
   26.9184  -19.9207  -14.0768 C   0  0  0  0  0  0  0  0  0  0  0  0
   28.0807  -20.1520  -13.7436 O   0  0  0  0  0  0  0  0  0  0  0  0
   26.1106  -23.8688  -14.9874 C   0  0  0  0  0  0  0  0  0  0  0  0
   26.3295  -22.9667  -16.1672 C   0  0  1  0  0  0  0  0  0  0  0  0
   25.1094  -22.5085  -16.6761 O   0  0  0  0  0  0  0  0  0  0  0  0
   27.1459  -21.7441  -15.8242 C   0  0  2  0  0  0  0  0  0  0  0  0
   26.4059  -20.7251  -15.1588 N   0  0  0  0  0  0  0  0  0  0  0  0
   27.7079  -21.2211  -17.0906 C   0  0  0  0  0  0  0  0  0  0  0  0
   27.2408  -20.1594  -17.5685 O   0  0  0  0  0  0  0  0  0  0  0  0
   28.7348  -21.8562  -17.7778 O   0  0  0  0  0  0  0  0  0  0  0  0
  2  1  1  6
  2  3  1  0
  3  4  1  0
  4  9  2  0
  5  6  2  0
  5  4  1  0
  6  7  1  0
  7  8  2  0
  9  8  1  0
 10 18  1  0
 10  2  1  0
 11 10  2  0
 13 12  1  0
 13 15  1  0
 14 13  2  0
 17 16  1  1
 16 15  1  0
 17 18  1  0
 19 20  2  0
 19 17  1  0
 22 21  1  1
 22 23  1  0
 24 22  1  0
 24 25  1  6
 25 19  1  0
 26 24  1  0
 27 26  2  0
 28 26  1  0
M  END
$$$$
