FQT.pdb
     RDKit          3D

 28 28  0  0  1  0  0  0  0  0999 V2000
   22.4467  -11.1014  -15.8751 N   0  0  0  0  0  0  0  0  0  0  0  0
   22.5737   -9.7909  -15.2967 C   0  0  1  0  0  0  0  0  0  0  0  0
   23.5441   -8.9039  -16.0257 C   0  0  0  0  0  0  0  0  0  0  0  0
   24.8893   -9.5333  -16.0092 C   0  0  0  0  0  0  0  0  0  0  0  0
   25.3307  -10.1236  -17.1675 C   0  0  0  0  0  0  0  0  0  0  0  0
   26.5809  -10.7162  -17.1756 C   0  0  0  0  0  0  0  0  0  0  0  0
   27.3754  -10.7243  -16.0631 C   0  0  0  0  0  0  0  0  0  0  0  0
   26.9281  -10.1322  -14.9078 C   0  0  0  0  0  0  0  0  0  0  0  0
   25.6788   -9.5336  -14.8803 C   0  0  0  0  0  0  0  0  0  0  0  0
   21.2428   -9.0948  -15.2380 C   0  0  0  0  0  0  0  0  0  0  0  0
   20.3754   -9.2856  -16.1189 O   0  0  0  0  0  0  0  0  0  0  0  0
   18.4532   -7.1518  -10.1321 N   0  0  0  0  0  0  0  0  0  0  0  0
   17.5540   -6.5922  -11.0699 C   0  0  0  0  0  0  0  0  0  0  0  0
   16.4330   -6.1144  -10.7706 O   0  0  0  0  0  0  0  0  0  0  0  0
   17.9771   -6.5747  -12.5054 C   0  0  0  0  0  0  0  0  0  0  0  0
   19.2822   -7.3028  -12.6606 C   0  0  0  0  0  0  0  0  0  0  0  0
   19.7357   -7.4274  -14.0757 C   0  0  2  0  0  0  0  0  0  0  0  0
   20.9747   -8.2076  -14.1609 N   0  0  0  0  0  0  0  0  0  0  0  0
   19.8741   -6.1658  -14.8221 C   0  0  0  0  0  0  0  0  0  0  0  0
   20.7823   -5.3656  -14.5977 O   0  0  0  0  0  0  0  0  0  0  0  0
   18.4775   -3.3530  -18.7236 C   0  0  0  0  0  0  0  0  0  0  0  0
   18.4135   -4.6556  -17.9801 C   0  0  1  0  0  0  0  0  0  0  0  0
   19.1066   -5.6565  -18.6695 O   0  0  0  0  0  0  0  0  0  0  0  0
   19.0241   -4.5722  -16.6019 C   0  0  2  0  0  0  0  0  0  0  0  0
   18.9518   -5.7889  -15.8650 N   0  0  0  0  0  0  0  0  0  0  0  0
   18.3192   -3.4927  -15.8733 C   0  0  0  0  0  0  0  0  0  0  0  0
   18.7233   -2.3118  -15.9997 O   0  0  0  0  0  0  0  0  0  0  0  0
   17.2244   -3.7292  -15.0514 O   0  0  0  0  0  0  0  0  0  0  0  0
  2  1  1  6
  2  3  1  0
  3  4  1  0
  4  9  2  0
  5  6  2  0
  5  4  1  0
  6  7  1  0
  7  8  2  0
  9  8  1  0
 10 18  1  0
 10  2  1  0
 11 10  2  0
 13 12  1  0
 13 15  1  0
 14 13  2  0
 17 16  1  1
 16 15  1  0
 17 18  1  0
 19 20  2  0
 19 17  1  0
 22 21  1  6
 22 23  1  0
 24 22  1  0
 24 25  1  1
 25 19  1  0
 26 24  1  0
 27 26  2  0
 28 26  1  0
M  END
$$$$
