FQT.pdb
     RDKit          3D

 28 28  0  0  1  0  0  0  0  0999 V2000
   24.1843  -19.2087  -18.7491 N   0  0  0  0  0  0  0  0  0  0  0  0
   24.2191  -19.3744  -17.3210 C   0  0  1  0  0  0  0  0  0  0  0  0
   24.1358  -18.0786  -16.5635 C   0  0  0  0  0  0  0  0  0  0  0  0
   25.3022  -17.2297  -16.9170 C   0  0  0  0  0  0  0  0  0  0  0  0
   25.0524  -16.0282  -17.5325 C   0  0  0  0  0  0  0  0  0  0  0  0
   26.1237  -15.2207  -17.8711 C   0  0  0  0  0  0  0  0  0  0  0  0
   27.4119  -15.5939  -17.6064 C   0  0  0  0  0  0  0  0  0  0  0  0
   27.6550  -16.7969  -16.9906 C   0  0  0  0  0  0  0  0  0  0  0  0
   26.5950  -17.6192  -16.6440 C   0  0  0  0  0  0  0  0  0  0  0  0
   23.1078  -20.2721  -16.8539 C   0  0  0  0  0  0  0  0  0  0  0  0
   22.0048  -20.2940  -17.4437 O   0  0  0  0  0  0  0  0  0  0  0  0
   24.2135  -25.1493  -13.1664 N   0  0  0  0  0  0  0  0  0  0  0  0
   22.8074  -25.2843  -13.2443 C   0  0  0  0  0  0  0  0  0  0  0  0
   22.1562  -26.1958  -12.6788 O   0  0  0  0  0  0  0  0  0  0  0  0
   22.0612  -24.2712  -14.0545 C   0  0  0  0  0  0  0  0  0  0  0  0
   23.0122  -23.2251  -14.5631 C   0  0  0  0  0  0  0  0  0  0  0  0
   22.3431  -22.1068  -15.2880 C   0  0  2  0  0  0  0  0  0  0  0  0
   23.3227  -21.1058  -15.7234 N   0  0  0  0  0  0  0  0  0  0  0  0
   21.2274  -21.4560  -14.5812 C   0  0  0  0  0  0  0  0  0  0  0  0
   21.3904  -20.8217  -13.5388 O   0  0  0  0  0  0  0  0  0  0  0  0
   18.3763  -18.9707  -16.0150 C   0  0  0  0  0  0  0  0  0  0  0  0
   17.8110  -20.2240  -15.4124 C   0  0  1  0  0  0  0  0  0  0  0  0
   17.5237  -21.1674  -16.4048 O   0  0  0  0  0  0  0  0  0  0  0  0
   18.7605  -20.8858  -14.4430 C   0  0  2  0  0  0  0  0  0  0  0  0
   19.8712  -21.5219  -15.0678 N   0  0  0  0  0  0  0  0  0  0  0  0
   17.9778  -21.8744  -13.6666 C   0  0  0  0  0  0  0  0  0  0  0  0
   17.0787  -21.4641  -12.8939 O   0  0  0  0  0  0  0  0  0  0  0  0
   18.1948  -23.2439  -13.7551 O   0  0  0  0  0  0  0  0  0  0  0  0
  2  1  1  6
  2  3  1  0
  3  4  1  0
  4  9  2  0
  5  6  2  0
  5  4  1  0
  6  7  1  0
  7  8  2  0
  9  8  1  0
 10 18  1  0
 10  2  1  0
 11 10  2  0
 13 12  1  0
 13 15  1  0
 14 13  2  0
 17 16  1  1
 16 15  1  0
 17 18  1  0
 19 20  2  0
 19 17  1  0
 22 21  1  6
 22 23  1  0
 24 22  1  0
 24 25  1  6
 25 19  1  0
 26 24  1  0
 27 26  2  0
 28 26  1  0
M  END
$$$$
