FQT.pdb
     RDKit          3D

 28 28  0  0  1  0  0  0  0  0999 V2000
   26.5947  -22.5327  -10.0397 N   0  0  0  0  0  0  0  0  0  0  0  0
   26.1281  -21.2461  -10.4812 C   0  0  1  0  0  0  0  0  0  0  0  0
   27.1975  -20.1895  -10.4893 C   0  0  0  0  0  0  0  0  0  0  0  0
   27.6366  -19.9276   -9.0948 C   0  0  0  0  0  0  0  0  0  0  0  0
   28.7657  -20.5704   -8.6511 C   0  0  0  0  0  0  0  0  0  0  0  0
   29.1937  -20.3416   -7.3554 C   0  0  0  0  0  0  0  0  0  0  0  0
   28.5196  -19.4963   -6.5187 C   0  0  0  0  0  0  0  0  0  0  0  0
   27.3911  -18.8565   -6.9686 C   0  0  0  0  0  0  0  0  0  0  0  0
   26.9470  -19.0729   -8.2631 C   0  0  0  0  0  0  0  0  0  0  0  0
   25.5313  -21.3310  -11.8581 C   0  0  0  0  0  0  0  0  0  0  0  0
   26.0239  -22.0809  -12.7297 O   0  0  0  0  0  0  0  0  0  0  0  0
   20.1730  -22.9504  -12.8655 N   0  0  0  0  0  0  0  0  0  0  0  0
   20.3416  -21.9190  -11.9121 C   0  0  0  0  0  0  0  0  0  0  0  0
   19.5328  -21.6819  -10.9824 O   0  0  0  0  0  0  0  0  0  0  0  0
   21.5643  -21.0640  -12.0299 C   0  0  0  0  0  0  0  0  0  0  0  0
   22.4103  -21.5405  -13.1765 C   0  0  0  0  0  0  0  0  0  0  0  0
   23.6291  -20.7129  -13.4080 C   0  0  2  0  0  0  0  0  0  0  0  0
   24.3894  -20.5430  -12.1653 N   0  0  0  0  0  0  0  0  0  0  0  0
   23.4098  -19.4086  -14.0551 C   0  0  0  0  0  0  0  0  0  0  0  0
   22.9630  -18.4383  -13.4433 O   0  0  0  0  0  0  0  0  0  0  0  0
   24.1275  -16.5187  -18.0961 C   0  0  0  0  0  0  0  0  0  0  0  0
   24.1820  -17.8874  -17.4820 C   0  0  1  0  0  0  0  0  0  0  0  0
   25.5067  -18.3049  -17.3140 O   0  0  0  0  0  0  0  0  0  0  0  0
   23.5309  -17.9433  -16.1210 C   0  0  2  0  0  0  0  0  0  0  0  0
   23.7058  -19.1870  -15.4493 N   0  0  0  0  0  0  0  0  0  0  0  0
   22.0889  -17.6656  -16.3117 C   0  0  0  0  0  0  0  0  0  0  0  0
   21.3261  -18.6102  -16.6274 O   0  0  0  0  0  0  0  0  0  0  0  0
   21.5388  -16.3994  -16.1561 O   0  0  0  0  0  0  0  0  0  0  0  0
  2  1  1  6
  2  3  1  0
  3  4  1  0
  4  9  2  0
  5  6  2  0
  5  4  1  0
  6  7  1  0
  7  8  2  0
  9  8  1  0
 10 18  1  0
 10  2  1  0
 11 10  2  0
 13 12  1  0
 13 15  1  0
 14 13  2  0
 17 16  1  1
 16 15  1  0
 17 18  1  0
 19 20  2  0
 19 17  1  0
 22 21  1  1
 22 23  1  0
 24 22  1  0
 24 25  1  6
 25 19  1  0
 26 24  1  0
 27 26  2  0
 28 26  1  0
M  END
$$$$
