FQT.pdb
     RDKit          3D

 28 28  0  0  1  0  0  0  0  0999 V2000
   25.2938  -20.8358   -8.0073 N   0  0  0  0  0  0  0  0  0  0  0  0
   26.6040  -20.4811   -8.4823 C   0  0  1  0  0  0  0  0  0  0  0  0
   27.7188  -21.0311   -7.6371 C   0  0  0  0  0  0  0  0  0  0  0  0
   27.8602  -20.2009   -6.4136 C   0  0  0  0  0  0  0  0  0  0  0  0
   27.0589  -19.0918   -6.3003 C   0  0  0  0  0  0  0  0  0  0  0  0
   27.1732  -18.3034   -5.1691 C   0  0  0  0  0  0  0  0  0  0  0  0
   28.0599  -18.6060   -4.1735 C   0  0  0  0  0  0  0  0  0  0  0  0
   28.8584  -19.7166   -4.2930 C   0  0  0  0  0  0  0  0  0  0  0  0
   28.7584  -20.5184   -5.4186 C   0  0  0  0  0  0  0  0  0  0  0  0
   26.8081  -20.9408   -9.8987 C   0  0  0  0  0  0  0  0  0  0  0  0
   27.4668  -21.9733  -10.1534 O   0  0  0  0  0  0  0  0  0  0  0  0
   24.5612  -24.1325  -13.4804 N   0  0  0  0  0  0  0  0  0  0  0  0
   23.6444  -23.0986  -13.1774 C   0  0  0  0  0  0  0  0  0  0  0  0
   22.3994  -23.2076  -13.2903 O   0  0  0  0  0  0  0  0  0  0  0  0
   24.2062  -21.7988  -12.6931 C   0  0  0  0  0  0  0  0  0  0  0  0
   25.7039  -21.8892  -12.6138 C   0  0  0  0  0  0  0  0  0  0  0  0
   26.3722  -20.5795  -12.3649 C   0  0  2  0  0  0  0  0  0  0  0  0
   26.2399  -20.1840  -10.9588 N   0  0  0  0  0  0  0  0  0  0  0  0
   25.9693  -19.4718  -13.2473 C   0  0  0  0  0  0  0  0  0  0  0  0
   25.0159  -18.7377  -12.9871 O   0  0  0  0  0  0  0  0  0  0  0  0
   28.7098  -17.0998  -15.4087 C   0  0  0  0  0  0  0  0  0  0  0  0
   27.5517  -17.6518  -16.1884 C   0  0  1  0  0  0  0  0  0  0  0  0
   27.9324  -18.7919  -16.9044 O   0  0  0  0  0  0  0  0  0  0  0  0
   26.3942  -18.0559  -15.3076 C   0  0  2  0  0  0  0  0  0  0  0  0
   26.6687  -19.1778  -14.4740 N   0  0  0  0  0  0  0  0  0  0  0  0
   25.2471  -18.3503  -16.1966 C   0  0  0  0  0  0  0  0  0  0  0  0
   24.8556  -19.5370  -16.3086 O   0  0  0  0  0  0  0  0  0  0  0  0
   24.5804  -17.3668  -16.9166 O   0  0  0  0  0  0  0  0  0  0  0  0
  2  1  1  1
  2  3  1  0
  3  4  1  0
  4  9  2  0
  5  6  2  0
  5  4  1  0
  6  7  1  0
  7  8  2  0
  9  8  1  0
 10 18  1  0
 10  2  1  0
 11 10  2  0
 13 12  1  0
 13 15  1  0
 14 13  2  0
 17 16  1  1
 16 15  1  0
 17 18  1  0
 19 20  2  0
 19 17  1  0
 22 21  1  1
 22 23  1  0
 24 22  1  0
 24 25  1  6
 25 19  1  0
 26 24  1  0
 27 26  2  0
 28 26  1  0
M  END
$$$$
