IVN.pdb
     RDKit          3D

 24 23  0  0  1  0  0  0  0  0999 V2000
    6.8720  -11.6534   27.8783 C   0  0  0  0  0  0  0  0  0  0  0  0
    6.2121  -12.7979   27.1400 C   0  0  0  0  0  0  0  0  0  0  0  0
    7.1146  -13.3816   26.0733 C   0  0  2  0  0  0  0  0  0  0  0  0
    7.4296  -12.2623   25.0995 C   0  0  0  0  0  0  0  0  0  0  0  0
    6.3226  -14.4737   25.3802 C   0  0  2  0  0  0  0  0  0  0  0  0
    5.9554  -15.5267   26.3084 N   0  0  0  0  0  0  0  0  0  0  0  0
    7.0840  -15.0957   24.2793 C   0  0  0  0  0  0  0  0  0  0  0  0
    7.7705  -16.1618   24.4551 O   0  0  0  0  0  0  0  0  0  0  0  0
    7.8814  -13.0024   20.7684 C   0  0  0  0  0  0  0  0  0  0  0  0
    7.4644  -14.4260   20.6289 C   0  0  1  0  0  0  0  0  0  0  0  0
    7.8720  -15.0684   19.3390 C   0  0  0  0  0  0  0  0  0  0  0  0
    7.8468  -15.2540   21.8612 C   0  0  2  0  0  0  0  0  0  0  0  0
    7.1252  -14.5830   22.9575 N   0  0  0  0  0  0  0  0  0  0  0  0
    9.3076  -15.2237   22.1230 C   0  0  0  0  0  0  0  0  0  0  0  0
    9.7367  -14.5292   23.1098 O   0  0  0  0  0  0  0  0  0  0  0  0
   10.6850  -17.4290   25.4378 N   0  0  0  0  0  0  0  0  0  0  0  0
   11.5743  -17.2483   24.3400 C   0  0  0  0  0  0  0  0  0  0  0  0
   12.7260  -16.8688   24.5857 O   0  0  0  0  0  0  0  0  0  0  0  0
   11.0930  -17.5146   22.9995 C   0  0  0  0  0  0  0  0  0  0  0  0
   11.5038  -16.4965   21.9735 C   0  0  2  0  0  0  0  0  0  0  0  0
   10.2761  -15.9120   21.3585 N   0  0  0  0  0  0  0  0  0  0  0  0
   12.3806  -16.9796   20.9087 C   0  0  0  0  0  0  0  0  0  0  0  0
   13.7259  -16.7505   20.8555 O   0  0  0  0  0  0  0  0  0  0  0  0
   11.9080  -17.6677   19.9363 O   0  0  0  0  0  0  0  0  0  0  0  0
  1  2  1  0
  2  3  1  0
  3  5  1  0
  3  4  1  6
  5  6  1  1
  7  8  2  0
  7  5  1  0
 10 11  1  6
 10  9  1  0
 12 10  1  0
 12 13  1  1
 13  7  1  0
 14 12  1  0
 15 14  2  0
 17 16  1  0
 18 17  2  0
 20 19  1  1
 19 17  1  0
 20 21  1  0
 21 14  1  0
 22 20  1  0
 22 23  1  0
 24 22  2  0
M  END
$$$$
