IVN.pdb
     RDKit          3D

 24 23  0  0  1  0  0  0  0  0999 V2000
    6.8605  -11.9224   27.9868 C   0  0  0  0  0  0  0  0  0  0  0  0
    6.1274  -12.8890   27.0822 C   0  0  0  0  0  0  0  0  0  0  0  0
    7.0792  -13.7161   26.2437 C   0  0  2  0  0  0  0  0  0  0  0  0
    7.8852  -12.7452   25.4023 C   0  0  0  0  0  0  0  0  0  0  0  0
    6.2245  -14.5984   25.3541 C   0  0  2  0  0  0  0  0  0  0  0  0
    5.4368  -15.5306   26.1390 N   0  0  0  0  0  0  0  0  0  0  0  0
    7.0399  -15.3882   24.4107 C   0  0  0  0  0  0  0  0  0  0  0  0
    7.4266  -16.5766   24.6880 O   0  0  0  0  0  0  0  0  0  0  0  0
    8.9959  -15.6147   19.8314 C   0  0  0  0  0  0  0  0  0  0  0  0
    8.0946  -15.0473   20.8734 C   0  0  1  0  0  0  0  0  0  0  0  0
    6.6502  -14.9928   20.4816 C   0  0  0  0  0  0  0  0  0  0  0  0
    8.3233  -15.7018   22.2407 C   0  0  2  0  0  0  0  0  0  0  0  0
    7.4604  -14.9159   23.1411 N   0  0  0  0  0  0  0  0  0  0  0  0
    9.7380  -15.6007   22.6787 C   0  0  0  0  0  0  0  0  0  0  0  0
   10.0986  -14.5675   23.3443 O   0  0  0  0  0  0  0  0  0  0  0  0
   10.5856  -18.9140   24.1980 N   0  0  0  0  0  0  0  0  0  0  0  0
   11.3727  -18.0992   25.0614 C   0  0  0  0  0  0  0  0  0  0  0  0
   11.7368  -18.5837   26.1400 O   0  0  0  0  0  0  0  0  0  0  0  0
   11.7067  -16.7537   24.6401 C   0  0  0  0  0  0  0  0  0  0  0  0
   12.0159  -16.6151   23.1762 C   0  0  2  0  0  0  0  0  0  0  0  0
   10.7323  -16.5694   22.4163 N   0  0  0  0  0  0  0  0  0  0  0  0
   12.8677  -17.6544   22.6014 C   0  0  0  0  0  0  0  0  0  0  0  0
   14.2073  -17.7712   22.8397 O   0  0  0  0  0  0  0  0  0  0  0  0
   12.3767  -18.5393   21.8150 O   0  0  0  0  0  0  0  0  0  0  0  0
  1  2  1  0
  2  3  1  0
  3  5  1  0
  3  4  1  6
  5  6  1  1
  7  8  2  0
  7  5  1  0
 10 11  1  6
 10  9  1  0
 12 10  1  0
 12 13  1  1
 13  7  1  0
 14 12  1  0
 15 14  2  0
 17 16  1  0
 18 17  2  0
 20 19  1  1
 19 17  1  0
 20 21  1  0
 21 14  1  0
 22 20  1  0
 22 23  1  0
 24 22  2  0
M  END
$$$$
