IVN.pdb
     RDKit          3D

 24 23  0  0  1  0  0  0  0  0999 V2000
    6.3689  -11.8394   28.1010 C   0  0  0  0  0  0  0  0  0  0  0  0
    5.8270  -12.9724   27.2565 C   0  0  0  0  0  0  0  0  0  0  0  0
    6.9205  -13.6764   26.4807 C   0  0  2  0  0  0  0  0  0  0  0  0
    7.6131  -12.6229   25.6377 C   0  0  0  0  0  0  0  0  0  0  0  0
    6.2375  -14.6965   25.5902 C   0  0  2  0  0  0  0  0  0  0  0  0
    5.5402  -15.6974   26.3760 N   0  0  0  0  0  0  0  0  0  0  0  0
    7.1981  -15.4028   24.7202 C   0  0  0  0  0  0  0  0  0  0  0  0
    7.7581  -16.4948   25.0845 O   0  0  0  0  0  0  0  0  0  0  0  0
    9.2277  -15.5667   20.1593 C   0  0  0  0  0  0  0  0  0  0  0  0
    8.3213  -14.9929   21.1934 C   0  0  1  0  0  0  0  0  0  0  0  0
    6.9038  -14.8129   20.7450 C   0  0  0  0  0  0  0  0  0  0  0  0
    8.4405  -15.7355   22.5293 C   0  0  2  0  0  0  0  0  0  0  0  0
    7.5808  -14.9489   23.4321 N   0  0  0  0  0  0  0  0  0  0  0  0
    9.8345  -15.7468   23.0394 C   0  0  0  0  0  0  0  0  0  0  0  0
   10.3149  -14.6643   23.5271 O   0  0  0  0  0  0  0  0  0  0  0  0
   13.8410  -19.3146   25.8789 N   0  0  0  0  0  0  0  0  0  0  0  0
   13.5684  -18.1919   25.0460 C   0  0  0  0  0  0  0  0  0  0  0  0
   14.5021  -17.4213   24.7909 O   0  0  0  0  0  0  0  0  0  0  0  0
   12.2228  -18.0063   24.5415 C   0  0  0  0  0  0  0  0  0  0  0  0
   12.0590  -16.8374   23.6116 C   0  0  2  0  0  0  0  0  0  0  0  0
   10.6850  -16.8749   23.0303 N   0  0  0  0  0  0  0  0  0  0  0  0
   13.0296  -16.7458   22.5227 C   0  0  0  0  0  0  0  0  0  0  0  0
   13.1057  -17.6277   21.4827 O   0  0  0  0  0  0  0  0  0  0  0  0
   13.8889  -15.7955   22.4930 O   0  0  0  0  0  0  0  0  0  0  0  0
  1  2  1  0
  2  3  1  0
  3  5  1  0
  3  4  1  6
  5  6  1  1
  7  8  2  0
  7  5  1  0
 10 11  1  6
 10  9  1  0
 12 10  1  0
 12 13  1  1
 13  7  1  0
 14 12  1  0
 15 14  2  0
 17 16  1  0
 18 17  2  0
 20 19  1  6
 19 17  1  0
 20 21  1  0
 21 14  1  0
 22 20  1  0
 22 23  1  0
 24 22  2  0
M  END
$$$$
