IVN.pdb
     RDKit          3D

 24 23  0  0  1  0  0  0  0  0999 V2000
    6.8022  -12.2092   28.2102 C   0  0  0  0  0  0  0  0  0  0  0  0
    6.1573  -13.1601   27.2252 C   0  0  0  0  0  0  0  0  0  0  0  0
    7.1813  -13.8566   26.3539 C   0  0  2  0  0  0  0  0  0  0  0  0
    7.9260  -12.7747   25.5956 C   0  0  0  0  0  0  0  0  0  0  0  0
    6.4091  -14.7371   25.3902 C   0  0  2  0  0  0  0  0  0  0  0  0
    5.6200  -15.7269   26.0994 N   0  0  0  0  0  0  0  0  0  0  0  0
    7.3024  -15.4598   24.4638 C   0  0  0  0  0  0  0  0  0  0  0  0
    7.8303  -16.5830   24.7779 O   0  0  0  0  0  0  0  0  0  0  0  0
    9.3377  -15.5735   19.9117 C   0  0  0  0  0  0  0  0  0  0  0  0
    8.4567  -14.9784   20.9556 C   0  0  1  0  0  0  0  0  0  0  0  0
    7.0204  -14.8449   20.5530 C   0  0  0  0  0  0  0  0  0  0  0  0
    8.6399  -15.6656   22.3137 C   0  0  2  0  0  0  0  0  0  0  0  0
    7.6507  -14.9891   23.1720 N   0  0  0  0  0  0  0  0  0  0  0  0
   10.0055  -15.4666   22.8606 C   0  0  0  0  0  0  0  0  0  0  0  0
   10.1433  -14.7486   23.9121 O   0  0  0  0  0  0  0  0  0  0  0  0
   10.5751  -17.4671   26.3140 N   0  0  0  0  0  0  0  0  0  0  0  0
   11.7125  -17.2232   25.4922 C   0  0  0  0  0  0  0  0  0  0  0  0
   12.7023  -16.6978   26.0166 O   0  0  0  0  0  0  0  0  0  0  0  0
   11.6577  -17.5982   24.0936 C   0  0  0  0  0  0  0  0  0  0  0  0
   12.2648  -16.5960   23.1529 C   0  0  2  0  0  0  0  0  0  0  0  0
   11.1824  -16.0163   22.3048 N   0  0  0  0  0  0  0  0  0  0  0  0
   13.3278  -17.0970   22.2840 C   0  0  0  0  0  0  0  0  0  0  0  0
   13.1334  -17.9787   21.2593 O   0  0  0  0  0  0  0  0  0  0  0  0
   14.5403  -16.7170   22.4509 O   0  0  0  0  0  0  0  0  0  0  0  0
  1  2  1  0
  2  3  1  0
  3  5  1  0
  3  4  1  6
  5  6  1  1
  7  8  2  0
  7  5  1  0
 10 11  1  6
 10  9  1  0
 12 10  1  0
 12 13  1  1
 13  7  1  0
 14 12  1  0
 15 14  2  0
 17 16  1  0
 18 17  2  0
 20 19  1  6
 19 17  1  0
 20 21  1  0
 21 14  1  0
 22 20  1  0
 22 23  1  0
 24 22  2  0
M  END
$$$$
