IVN.pdb
     RDKit          3D

 24 23  0  0  1  0  0  0  0  0999 V2000
    8.7533  -12.4089   28.0572 C   0  0  0  0  0  0  0  0  0  0  0  0
    7.8057  -13.3809   27.3882 C   0  0  0  0  0  0  0  0  0  0  0  0
    7.4253  -12.9342   25.9922 C   0  0  2  0  0  0  0  0  0  0  0  0
    6.5847  -11.6807   26.1427 C   0  0  0  0  0  0  0  0  0  0  0  0
    6.5985  -14.0516   25.3856 C   0  0  2  0  0  0  0  0  0  0  0  0
    5.6116  -14.5463   26.3272 N   0  0  0  0  0  0  0  0  0  0  0  0
    7.4337  -15.1965   24.9729 C   0  0  0  0  0  0  0  0  0  0  0  0
    7.4202  -16.3043   25.6143 O   0  0  0  0  0  0  0  0  0  0  0  0
   10.2955  -17.0752   21.3539 C   0  0  0  0  0  0  0  0  0  0  0  0
    9.4473  -16.0161   21.9695 C   0  0  1  0  0  0  0  0  0  0  0  0
    8.2727  -15.6008   21.1384 C   0  0  0  0  0  0  0  0  0  0  0  0
    9.0708  -16.3581   23.4157 C   0  0  2  0  0  0  0  0  0  0  0  0
    8.3070  -15.1765   23.8555 N   0  0  0  0  0  0  0  0  0  0  0  0
   10.2667  -16.5375   24.2766 C   0  0  0  0  0  0  0  0  0  0  0  0
   10.9253  -15.4979   24.6311 O   0  0  0  0  0  0  0  0  0  0  0  0
   12.0329  -16.3305   28.9671 N   0  0  0  0  0  0  0  0  0  0  0  0
   11.1869  -17.3539   28.4517 C   0  0  0  0  0  0  0  0  0  0  0  0
   10.9410  -18.3223   29.1814 O   0  0  0  0  0  0  0  0  0  0  0  0
   10.6590  -17.2144   27.1096 C   0  0  0  0  0  0  0  0  0  0  0  0
   11.4523  -17.9233   26.0484 C   0  0  2  0  0  0  0  0  0  0  0  0
   10.7418  -17.7835   24.7436 N   0  0  0  0  0  0  0  0  0  0  0  0
   11.7209  -19.3395   26.2900 C   0  0  0  0  0  0  0  0  0  0  0  0
   10.8134  -20.3404   26.0904 O   0  0  0  0  0  0  0  0  0  0  0  0
   12.8665  -19.7225   26.7182 O   0  0  0  0  0  0  0  0  0  0  0  0
  1  2  1  0
  2  3  1  0
  3  5  1  0
  3  4  1  1
  5  6  1  1
  7  8  2  0
  7  5  1  0
 10 11  1  6
 10  9  1  0
 12 10  1  0
 12 13  1  1
 13  7  1  0
 14 12  1  0
 15 14  2  0
 17 16  1  0
 18 17  2  0
 20 19  1  1
 19 17  1  0
 20 21  1  0
 21 14  1  0
 22 20  1  0
 22 23  1  0
 24 22  2  0
M  END
$$$$
