IVN.pdb
     RDKit          3D

 24 23  0  0  1  0  0  0  0  0999 V2000
    7.9702  -12.3473   27.9741 C   0  0  0  0  0  0  0  0  0  0  0  0
    7.0014  -13.1711   27.1536 C   0  0  0  0  0  0  0  0  0  0  0  0
    7.6950  -13.9112   26.0293 C   0  0  2  0  0  0  0  0  0  0  0  0
    8.4302  -12.8728   25.2037 C   0  0  0  0  0  0  0  0  0  0  0  0
    6.6070  -14.5670   25.2008 C   0  0  2  0  0  0  0  0  0  0  0  0
    5.8367  -15.5068   25.9938 N   0  0  0  0  0  0  0  0  0  0  0  0
    7.1584  -15.3044   24.0472 C   0  0  0  0  0  0  0  0  0  0  0  0
    7.4135  -16.5573   24.1098 O   0  0  0  0  0  0  0  0  0  0  0  0
    6.1502  -14.3108   20.2359 C   0  0  0  0  0  0  0  0  0  0  0  0
    7.6083  -14.5333   20.4470 C   0  0  1  0  0  0  0  0  0  0  0  0
    8.4240  -13.2792   20.5141 C   0  0  0  0  0  0  0  0  0  0  0  0
    7.8745  -15.4880   21.6166 C   0  0  2  0  0  0  0  0  0  0  0  0
    7.4500  -14.7086   22.7935 N   0  0  0  0  0  0  0  0  0  0  0  0
    9.3116  -15.8405   21.7339 C   0  0  0  0  0  0  0  0  0  0  0  0
   10.1323  -15.3486   20.8825 O   0  0  0  0  0  0  0  0  0  0  0  0
   14.0406  -15.4550   24.3833 N   0  0  0  0  0  0  0  0  0  0  0  0
   13.4598  -15.6902   23.1043 C   0  0  0  0  0  0  0  0  0  0  0  0
   14.2193  -15.9604   22.1656 O   0  0  0  0  0  0  0  0  0  0  0  0
   12.0204  -15.6027   22.9635 C   0  0  0  0  0  0  0  0  0  0  0  0
   11.3212  -16.9278   22.8494 C   0  0  2  0  0  0  0  0  0  0  0  0
    9.8535  -16.6876   22.7263 N   0  0  0  0  0  0  0  0  0  0  0  0
   11.5550  -17.8701   23.9419 C   0  0  0  0  0  0  0  0  0  0  0  0
   10.5682  -18.4175   24.7112 O   0  0  0  0  0  0  0  0  0  0  0  0
   12.7449  -18.2404   24.2407 O   0  0  0  0  0  0  0  0  0  0  0  0
  1  2  1  0
  2  3  1  0
  3  5  1  0
  3  4  1  6
  5  6  1  1
  7  8  2  0
  7  5  1  0
 10 11  1  1
 10  9  1  0
 12 10  1  0
 12 13  1  1
 13  7  1  0
 14 12  1  0
 15 14  2  0
 17 16  1  0
 18 17  2  0
 20 19  1  1
 19 17  1  0
 20 21  1  0
 21 14  1  0
 22 20  1  0
 22 23  1  0
 24 22  2  0
M  END
$$$$
