IVN.pdb
     RDKit          3D

 24 23  0  0  1  0  0  0  0  0999 V2000
    6.4746  -12.0763   28.0140 C   0  0  0  0  0  0  0  0  0  0  0  0
    5.8772  -13.1528   27.1339 C   0  0  0  0  0  0  0  0  0  0  0  0
    6.9233  -13.8276   26.2718 C   0  0  2  0  0  0  0  0  0  0  0  0
    7.6017  -12.7373   25.4647 C   0  0  0  0  0  0  0  0  0  0  0  0
    6.1837  -14.7797   25.3515 C   0  0  2  0  0  0  0  0  0  0  0  0
    5.4556  -15.7819   26.1069 N   0  0  0  0  0  0  0  0  0  0  0  0
    7.0999  -15.4893   24.4374 C   0  0  0  0  0  0  0  0  0  0  0  0
    7.4540  -16.7014   24.6476 O   0  0  0  0  0  0  0  0  0  0  0  0
    7.0127  -14.7533   20.4782 C   0  0  0  0  0  0  0  0  0  0  0  0
    8.3947  -14.8185   21.0314 C   0  0  1  0  0  0  0  0  0  0  0  0
    9.0641  -13.4879   21.1869 C   0  0  0  0  0  0  0  0  0  0  0  0
    8.4597  -15.6772   22.2996 C   0  0  2  0  0  0  0  0  0  0  0  0
    7.6595  -14.9090   23.2704 N   0  0  0  0  0  0  0  0  0  0  0  0
    9.8491  -15.8324   22.7985 C   0  0  0  0  0  0  0  0  0  0  0  0
   10.7361  -16.2974   22.0000 O   0  0  0  0  0  0  0  0  0  0  0  0
   10.2716  -16.5153   26.7871 N   0  0  0  0  0  0  0  0  0  0  0  0
   11.1372  -15.3969   26.9565 C   0  0  0  0  0  0  0  0  0  0  0  0
   11.1918  -14.8728   28.0758 O   0  0  0  0  0  0  0  0  0  0  0  0
   11.9059  -14.9298   25.8206 C   0  0  0  0  0  0  0  0  0  0  0  0
   11.6848  -15.7065   24.5534 C   0  0  2  0  0  0  0  0  0  0  0  0
   10.2767  -15.5014   24.1037 N   0  0  0  0  0  0  0  0  0  0  0  0
   11.9518  -17.1415   24.6284 C   0  0  0  0  0  0  0  0  0  0  0  0
   11.0426  -18.1113   24.3153 O   0  0  0  0  0  0  0  0  0  0  0  0
   13.0974  -17.5730   25.0074 O   0  0  0  0  0  0  0  0  0  0  0  0
  1  2  1  0
  2  3  1  0
  3  5  1  0
  3  4  1  6
  5  6  1  1
  7  8  2  0
  7  5  1  0
 10 11  1  1
 10  9  1  0
 12 10  1  0
 12 13  1  1
 13  7  1  0
 14 12  1  0
 15 14  2  0
 17 16  1  0
 18 17  2  0
 20 19  1  1
 19 17  1  0
 20 21  1  0
 21 14  1  0
 22 20  1  0
 22 23  1  0
 24 22  2  0
M  END
$$$$
