IVN.pdb
     RDKit          3D

 24 23  0  0  1  0  0  0  0  0999 V2000
    6.3843  -11.8409   27.1925 C   0  0  0  0  0  0  0  0  0  0  0  0
    7.0386  -13.1560   27.5571 C   0  0  0  0  0  0  0  0  0  0  0  0
    7.6548  -13.8372   26.3533 C   0  0  2  0  0  0  0  0  0  0  0  0
    8.2378  -12.7450   25.4773 C   0  0  0  0  0  0  0  0  0  0  0  0
    6.5276  -14.5470   25.6280 C   0  0  2  0  0  0  0  0  0  0  0  0
    5.9755  -15.6188   26.4353 N   0  0  0  0  0  0  0  0  0  0  0  0
    6.9758  -15.1364   24.3512 C   0  0  0  0  0  0  0  0  0  0  0  0
    7.1631  -16.3961   24.2213 O   0  0  0  0  0  0  0  0  0  0  0  0
    8.0994  -12.6067   21.3879 C   0  0  0  0  0  0  0  0  0  0  0  0
    7.4328  -13.8433   20.8912 C   0  0  1  0  0  0  0  0  0  0  0  0
    7.7967  -14.2239   19.4893 C   0  0  0  0  0  0  0  0  0  0  0  0
    7.5711  -15.0023   21.8850 C   0  0  2  0  0  0  0  0  0  0  0  0
    7.2345  -14.3812   23.1788 N   0  0  0  0  0  0  0  0  0  0  0  0
    8.9538  -15.5408   21.9261 C   0  0  0  0  0  0  0  0  0  0  0  0
    9.4162  -16.1160   20.8793 O   0  0  0  0  0  0  0  0  0  0  0  0
   14.1007  -16.0251   22.0569 N   0  0  0  0  0  0  0  0  0  0  0  0
   13.5687  -15.4213   23.2321 C   0  0  0  0  0  0  0  0  0  0  0  0
   14.3157  -15.3067   24.2117 O   0  0  0  0  0  0  0  0  0  0  0  0
   12.1906  -14.9739   23.2254 C   0  0  0  0  0  0  0  0  0  0  0  0
   11.1784  -16.0687   23.0387 C   0  0  2  0  0  0  0  0  0  0  0  0
    9.8129  -15.4667   23.0453 N   0  0  0  0  0  0  0  0  0  0  0  0
   11.2208  -17.1525   24.0184 C   0  0  0  0  0  0  0  0  0  0  0  0
   10.1812  -17.4924   24.8362 O   0  0  0  0  0  0  0  0  0  0  0  0
   12.2786  -17.8618   24.1612 O   0  0  0  0  0  0  0  0  0  0  0  0
  1  2  1  0
  2  3  1  0
  3  5  1  0
  3  4  1  6
  5  6  1  1
  7  8  2  0
  7  5  1  0
 10 11  1  6
 10  9  1  0
 12 10  1  0
 12 13  1  1
 13  7  1  0
 14 12  1  0
 15 14  2  0
 17 16  1  0
 18 17  2  0
 20 19  1  1
 19 17  1  0
 20 21  1  0
 21 14  1  0
 22 20  1  0
 22 23  1  0
 24 22  2  0
M  END
$$$$
