IVN.pdb
     RDKit          3D

 24 23  0  0  1  0  0  0  0  0999 V2000
    9.1794  -13.2844   27.9978 C   0  0  0  0  0  0  0  0  0  0  0  0
    8.1364  -14.2189   27.4241 C   0  0  0  0  0  0  0  0  0  0  0  0
    7.2649  -13.5335   26.3927 C   0  0  2  0  0  0  0  0  0  0  0  0
    6.4205  -12.5148   27.1339 C   0  0  0  0  0  0  0  0  0  0  0  0
    6.3813  -14.6059   25.7847 C   0  0  2  0  0  0  0  0  0  0  0  0
    5.9038  -15.5298   26.7965 N   0  0  0  0  0  0  0  0  0  0  0  0
    7.0939  -15.3953   24.7612 C   0  0  0  0  0  0  0  0  0  0  0  0
    7.4500  -16.6064   24.9737 O   0  0  0  0  0  0  0  0  0  0  0  0
    8.6861  -15.5604   20.0411 C   0  0  0  0  0  0  0  0  0  0  0  0
    7.9079  -14.9745   21.1686 C   0  0  1  0  0  0  0  0  0  0  0  0
    6.4439  -14.8165   20.8959 C   0  0  0  0  0  0  0  0  0  0  0  0
    8.2001  -15.6890   22.4931 C   0  0  2  0  0  0  0  0  0  0  0  0
    7.4418  -14.8982   23.4792 N   0  0  0  0  0  0  0  0  0  0  0  0
    9.6453  -15.6694   22.8313 C   0  0  0  0  0  0  0  0  0  0  0  0
   10.0999  -14.6836   23.5109 O   0  0  0  0  0  0  0  0  0  0  0  0
   13.6351  -18.0576   26.0064 N   0  0  0  0  0  0  0  0  0  0  0  0
   13.4084  -17.2456   24.8585 C   0  0  0  0  0  0  0  0  0  0  0  0
   14.3758  -16.6437   24.3762 O   0  0  0  0  0  0  0  0  0  0  0  0
   12.0680  -17.1630   24.3144 C   0  0  0  0  0  0  0  0  0  0  0  0
   11.9948  -16.6386   22.9082 C   0  0  2  0  0  0  0  0  0  0  0  0
   10.5723  -16.6681   22.4579 N   0  0  0  0  0  0  0  0  0  0  0  0
   12.8164  -17.3373   21.9217 C   0  0  0  0  0  0  0  0  0  0  0  0
   12.4475  -18.4909   21.2906 O   0  0  0  0  0  0  0  0  0  0  0  0
   13.9675  -16.8814   21.5910 O   0  0  0  0  0  0  0  0  0  0  0  0
  1  2  1  0
  2  3  1  0
  3  5  1  0
  3  4  1  1
  5  6  1  1
  7  8  2  0
  7  5  1  0
 10 11  1  6
 10  9  1  0
 12 10  1  0
 12 13  1  1
 13  7  1  0
 14 12  1  0
 15 14  2  0
 17 16  1  0
 18 17  2  0
 20 19  1  1
 19 17  1  0
 20 21  1  0
 21 14  1  0
 22 20  1  0
 22 23  1  0
 24 22  2  0
M  END
$$$$
