IVN.pdb
     RDKit          3D

 24 23  0  0  1  0  0  0  0  0999 V2000
   10.1453  -13.9768   28.9614 C   0  0  0  0  0  0  0  0  0  0  0  0
    9.1070  -14.8524   28.2939 C   0  0  0  0  0  0  0  0  0  0  0  0
    9.3589  -15.0009   26.8081 C   0  0  2  0  0  0  0  0  0  0  0  0
    9.5212  -13.6020   26.2451 C   0  0  0  0  0  0  0  0  0  0  0  0
    8.1283  -15.6645   26.2202 C   0  0  2  0  0  0  0  0  0  0  0  0
    7.8252  -16.9087   26.9024 N   0  0  0  0  0  0  0  0  0  0  0  0
    8.2973  -15.9722   24.7865 C   0  0  0  0  0  0  0  0  0  0  0  0
    8.3838  -17.1772   24.3632 O   0  0  0  0  0  0  0  0  0  0  0  0
    8.1796  -14.0319   20.1925 C   0  0  0  0  0  0  0  0  0  0  0  0
    7.9919  -13.9849   21.6699 C   0  0  1  0  0  0  0  0  0  0  0  0
    6.6594  -13.4617   22.1097 C   0  0  0  0  0  0  0  0  0  0  0  0
    8.3651  -15.3156   22.3332 C   0  0  2  0  0  0  0  0  0  0  0  0
    8.3776  -14.9863   23.7700 N   0  0  0  0  0  0  0  0  0  0  0  0
    9.7056  -15.7935   21.9112 C   0  0  0  0  0  0  0  0  0  0  0  0
    9.8065  -16.4286   20.8036 O   0  0  0  0  0  0  0  0  0  0  0  0
   12.4639  -13.9676   19.4510 N   0  0  0  0  0  0  0  0  0  0  0  0
   12.7096  -15.2307   20.0617 C   0  0  0  0  0  0  0  0  0  0  0  0
   12.6547  -16.2387   19.3465 O   0  0  0  0  0  0  0  0  0  0  0  0
   13.0091  -15.2754   21.4787 C   0  0  0  0  0  0  0  0  0  0  0  0
   12.1814  -16.2545   22.2625 C   0  0  2  0  0  0  0  0  0  0  0  0
   10.8967  -15.5989   22.6457 N   0  0  0  0  0  0  0  0  0  0  0  0
   12.8075  -16.8035   23.4636 C   0  0  0  0  0  0  0  0  0  0  0  0
   13.9795  -17.5045   23.4692 O   0  0  0  0  0  0  0  0  0  0  0  0
   12.2629  -16.6466   24.6130 O   0  0  0  0  0  0  0  0  0  0  0  0
  1  2  1  0
  2  3  1  0
  3  5  1  0
  3  4  1  6
  5  6  1  1
  7  8  2  0
  7  5  1  0
 10 11  1  6
 10  9  1  0
 12 10  1  0
 12 13  1  1
 13  7  1  0
 14 12  1  0
 15 14  2  0
 17 16  1  0
 18 17  2  0
 20 19  1  1
 19 17  1  0
 20 21  1  0
 21 14  1  0
 22 20  1  0
 22 23  1  0
 24 22  2  0
M  END
$$$$
