IVN.pdb
     RDKit          3D

 24 23  0  0  1  0  0  0  0  0999 V2000
    7.6491  -11.8626   20.4898 C   0  0  0  0  0  0  0  0  0  0  0  0
    8.0778  -12.9655   19.5463 C   0  0  0  0  0  0  0  0  0  0  0  0
    7.8946  -14.3390   20.1570 C   0  0  2  0  0  0  0  0  0  0  0  0
    8.8320  -14.4227   21.3464 C   0  0  0  0  0  0  0  0  0  0  0  0
    8.2989  -15.3461   19.0974 C   0  0  2  0  0  0  0  0  0  0  0  0
    7.5112  -15.1835   17.8897 N   0  0  0  0  0  0  0  0  0  0  0  0
    8.1233  -16.7366   19.5601 C   0  0  0  0  0  0  0  0  0  0  0  0
    7.0005  -17.1602   20.0057 O   0  0  0  0  0  0  0  0  0  0  0  0
   10.7390  -19.6393   18.4630 C   0  0  0  0  0  0  0  0  0  0  0  0
    9.4103  -19.9952   19.0358 C   0  0  1  0  0  0  0  0  0  0  0  0
    9.2594  -21.4393   19.4026 C   0  0  0  0  0  0  0  0  0  0  0  0
    9.0040  -19.0415   20.1652 C   0  0  2  0  0  0  0  0  0  0  0  0
    9.1562  -17.7086   19.5544 N   0  0  0  0  0  0  0  0  0  0  0  0
    9.8954  -19.1624   21.3461 C   0  0  0  0  0  0  0  0  0  0  0  0
   10.0161  -20.3084   21.9050 O   0  0  0  0  0  0  0  0  0  0  0  0
   13.5769  -19.7561   24.6354 N   0  0  0  0  0  0  0  0  0  0  0  0
   13.8164  -19.5919   23.2410 C   0  0  0  0  0  0  0  0  0  0  0  0
   14.9810  -19.7010   22.8379 O   0  0  0  0  0  0  0  0  0  0  0  0
   12.6954  -19.3072   22.3682 C   0  0  0  0  0  0  0  0  0  0  0  0
   11.7048  -18.3228   22.9229 C   0  0  2  0  0  0  0  0  0  0  0  0
   10.6329  -18.0972   21.9095 N   0  0  0  0  0  0  0  0  0  0  0  0
   12.2488  -17.0289   23.3303 C   0  0  0  0  0  0  0  0  0  0  0  0
   13.1180  -16.2886   22.5809 O   0  0  0  0  0  0  0  0  0  0  0  0
   11.9225  -16.5090   24.4553 O   0  0  0  0  0  0  0  0  0  0  0  0
  1  2  1  0
  2  3  1  0
  3  5  1  0
  3  4  1  1
  5  6  1  6
  7  8  2  0
  7  5  1  0
 10 11  1  1
 10  9  1  0
 12 10  1  0
 12 13  1  6
 13  7  1  0
 14 12  1  0
 15 14  2  0
 17 16  1  0
 18 17  2  0
 20 19  1  6
 19 17  1  0
 20 21  1  0
 21 14  1  0
 22 20  1  0
 22 23  1  0
 24 22  2  0
M  END
$$$$
