IVN.pdb
     RDKit          3D

 24 23  0  0  1  0  0  0  0  0999 V2000
    7.2184  -11.2001   27.4443 C   0  0  0  0  0  0  0  0  0  0  0  0
    7.2928  -12.7058   27.3110 C   0  0  0  0  0  0  0  0  0  0  0  0
    6.9696  -13.1687   25.9060 C   0  0  2  0  0  0  0  0  0  0  0  0
    5.5346  -12.7648   25.6264 C   0  0  0  0  0  0  0  0  0  0  0  0
    7.1003  -14.6797   25.9025 C   0  0  2  0  0  0  0  0  0  0  0  0
    8.2941  -15.1058   26.6087 N   0  0  0  0  0  0  0  0  0  0  0  0
    7.1739  -15.2256   24.5332 C   0  0  0  0  0  0  0  0  0  0  0  0
    6.1325  -15.6503   23.9218 O   0  0  0  0  0  0  0  0  0  0  0  0
    8.4639  -13.0241   21.9325 C   0  0  0  0  0  0  0  0  0  0  0  0
    7.6407  -14.2606   21.8154 C   0  0  1  0  0  0  0  0  0  0  0  0
    7.0144  -14.4639   20.4704 C   0  0  0  0  0  0  0  0  0  0  0  0
    8.3946  -15.4957   22.3215 C   0  0  2  0  0  0  0  0  0  0  0  0
    8.3751  -15.3282   23.7859 N   0  0  0  0  0  0  0  0  0  0  0  0
    9.7964  -15.5329   21.8345 C   0  0  0  0  0  0  0  0  0  0  0  0
   10.0060  -15.4719   20.5725 O   0  0  0  0  0  0  0  0  0  0  0  0
   12.6305  -19.4449   23.4528 N   0  0  0  0  0  0  0  0  0  0  0  0
   11.2140  -19.3111   23.3864 C   0  0  0  0  0  0  0  0  0  0  0  0
   10.5298  -20.3320   23.5292 O   0  0  0  0  0  0  0  0  0  0  0  0
   10.6461  -17.9981   23.1565 C   0  0  0  0  0  0  0  0  0  0  0  0
   11.6550  -16.9203   22.8765 C   0  0  2  0  0  0  0  0  0  0  0  0
   10.9344  -15.6306   22.6661 N   0  0  0  0  0  0  0  0  0  0  0  0
   12.5430  -17.1554   21.7398 C   0  0  0  0  0  0  0  0  0  0  0  0
   13.9064  -17.1140   21.8061 O   0  0  0  0  0  0  0  0  0  0  0  0
   12.0634  -17.4214   20.5814 O   0  0  0  0  0  0  0  0  0  0  0  0
  1  2  1  0
  2  3  1  0
  3  5  1  0
  3  4  1  1
  5  6  1  1
  7  8  2  0
  7  5  1  0
 10 11  1  6
 10  9  1  0
 12 10  1  0
 12 13  1  1
 13  7  1  0
 14 12  1  0
 15 14  2  0
 17 16  1  0
 18 17  2  0
 20 19  1  6
 19 17  1  0
 20 21  1  0
 21 14  1  0
 22 20  1  0
 22 23  1  0
 24 22  2  0
M  END
$$$$
