IVN.pdb
     RDKit          3D

 24 23  0  0  1  0  0  0  0  0999 V2000
    6.7608  -10.8563   26.9411 C   0  0  0  0  0  0  0  0  0  0  0  0
    7.3314  -12.2564   27.0073 C   0  0  0  0  0  0  0  0  0  0  0  0
    6.8211  -13.1319   25.8820 C   0  0  2  0  0  0  0  0  0  0  0  0
    5.3187  -13.2449   26.0561 C   0  0  0  0  0  0  0  0  0  0  0  0
    7.4738  -14.4901   26.0543 C   0  0  2  0  0  0  0  0  0  0  0  0
    8.8676  -14.3591   26.4358 N   0  0  0  0  0  0  0  0  0  0  0  0
    7.4244  -15.2890   24.8142 C   0  0  0  0  0  0  0  0  0  0  0  0
    6.7059  -16.3445   24.7226 O   0  0  0  0  0  0  0  0  0  0  0  0
    6.5230  -14.1460   21.4181 C   0  0  0  0  0  0  0  0  0  0  0  0
    7.8663  -14.7807   21.3047 C   0  0  1  0  0  0  0  0  0  0  0  0
    8.9972  -13.8135   21.1359 C   0  0  0  0  0  0  0  0  0  0  0  0
    8.1090  -15.8018   22.4220 C   0  0  2  0  0  0  0  0  0  0  0  0
    8.1504  -14.9700   23.6382 N   0  0  0  0  0  0  0  0  0  0  0  0
    9.3984  -16.5178   22.2539 C   0  0  0  0  0  0  0  0  0  0  0  0
    9.5551  -17.2589   21.2211 O   0  0  0  0  0  0  0  0  0  0  0  0
   14.4486  -15.7798   21.0842 N   0  0  0  0  0  0  0  0  0  0  0  0
   13.1238  -15.8209   21.6057 C   0  0  0  0  0  0  0  0  0  0  0  0
   12.2144  -15.3510   20.9108 O   0  0  0  0  0  0  0  0  0  0  0  0
   12.9054  -16.4052   22.9135 C   0  0  0  0  0  0  0  0  0  0  0  0
   11.6989  -17.2961   23.0070 C   0  0  2  0  0  0  0  0  0  0  0  0
   10.4830  -16.4440   23.1564 N   0  0  0  0  0  0  0  0  0  0  0  0
   11.7167  -18.2855   24.0826 C   0  0  0  0  0  0  0  0  0  0  0  0
   10.7518  -18.3966   25.0427 O   0  0  0  0  0  0  0  0  0  0  0  0
   12.6778  -19.1278   24.1784 O   0  0  0  0  0  0  0  0  0  0  0  0
  1  2  1  0
  2  3  1  0
  3  5  1  0
  3  4  1  1
  5  6  1  6
  7  8  2  0
  7  5  1  0
 10 11  1  1
 10  9  1  0
 12 10  1  0
 12 13  1  1
 13  7  1  0
 14 12  1  0
 15 14  2  0
 17 16  1  0
 18 17  2  0
 20 19  1  1
 19 17  1  0
 20 21  1  0
 21 14  1  0
 22 20  1  0
 22 23  1  0
 24 22  2  0
M  END
$$$$
