PHD.pdb
     RDKit          3D

 26 27  0  0  1  0  0  0  0  0999 V2000
    7.6256  -15.4086   18.0404 N   0  0  0  0  0  0  0  0  0  0  0  0
    7.1487  -15.0412   16.7168 C   0  0  0  0  0  0  0  0  0  0  0  0
    7.5178  -13.6088   16.4732 C   0  0  0  0  0  0  0  0  0  0  0  0
    7.9272  -13.0973   17.8324 C   0  0  0  0  0  0  0  0  0  0  0  0
    8.5350  -14.3552   18.4247 C   0  0  1  0  0  0  0  0  0  0  0  0
    8.8184  -14.2899   19.8485 C   0  0  0  0  0  0  0  0  0  0  0  0
    9.7132  -13.5173   20.3406 O   0  0  0  0  0  0  0  0  0  0  0  0
    8.1144  -15.0834   20.7706 N   0  0  0  0  0  0  0  0  0  0  0  0
    8.4203  -15.0154   22.1894 C   0  0  1  0  0  0  0  0  0  0  0  0
    7.0906  -14.9572   22.9464 C   0  0  0  0  0  0  0  0  0  0  0  0
    7.4252  -14.8187   24.3988 C   0  0  0  0  0  0  0  0  0  0  0  0
    7.7581  -13.7000   25.0991 C   0  0  0  0  0  0  0  0  0  0  0  0
    7.9798  -14.0348   26.3689 N   0  0  0  0  0  0  0  0  0  0  0  0
    7.7821  -15.3677   26.4499 C   0  0  0  0  0  0  0  0  0  0  0  0
    7.4438  -15.8640   25.2618 N   0  0  0  0  0  0  0  0  0  0  0  0
    9.1326  -16.2141   22.6711 C   0  0  0  0  0  0  0  0  0  0  0  0
    8.7760  -17.3865   22.3798 O   0  0  0  0  0  0  0  0  0  0  0  0
   10.2620  -16.0672   23.4928 N   0  0  0  0  0  0  0  0  0  0  0  0
   10.9482  -17.1060   24.1763 C   0  0  1  0  0  0  0  0  0  0  0  0
   12.4337  -16.8958   24.3073 C   0  0  0  0  0  0  0  0  0  0  0  0
   13.0954  -16.8159   22.9977 C   0  0  0  0  0  0  0  0  0  0  0  0
   12.8246  -17.6459   22.1103 O   0  0  0  0  0  0  0  0  0  0  0  0
   10.4019  -17.4258   25.5086 C   0  0  0  0  0  0  0  0  0  0  0  0
   10.8821  -18.5210   26.2100 O   0  0  0  0  0  0  0  0  0  0  0  0
   14.0152  -15.8264   22.7445 O   0  0  0  0  0  0  0  0  0  0  0  0
    9.4995  -16.7476   26.0673 O   0  0  0  0  0  0  0  0  0  0  0  0
  1  2  1  0
  2  3  1  0
  4  3  1  0
  5  6  1  1
  5  1  1  0
  5  4  1  0
  6  8  1  0
  7  6  2  0
  8  9  1  0
  9 10  1  1
 10 11  1  0
 11 12  2  0
 11 15  1  0
 12 13  1  0
 13 14  1  0
 15 14  2  0
 16 18  1  0
 16  9  1  0
 17 16  2  0
 19 18  1  0
 19 23  1  0
 20 21  1  0
 19 20  1  1
 21 22  2  0
 23 24  1  0
 25 21  1  0
 26 23  2  0
M  END
$$$$
