PHD.pdb
     RDKit          3D

 26 27  0  0  1  0  0  0  0  0999 V2000
    8.9777  -18.6832   18.5171 N   0  0  0  0  0  0  0  0  0  0  0  0
    8.9545  -19.1256   17.1322 C   0  0  0  0  0  0  0  0  0  0  0  0
   10.2289  -18.6778   16.4821 C   0  0  0  0  0  0  0  0  0  0  0  0
   10.8153  -17.6908   17.4613 C   0  0  0  0  0  0  0  0  0  0  0  0
   10.3448  -18.2951   18.7713 C   0  0  1  0  0  0  0  0  0  0  0  0
   10.5266  -17.4497   19.9391 C   0  0  0  0  0  0  0  0  0  0  0  0
   11.6826  -17.1183   20.3795 O   0  0  0  0  0  0  0  0  0  0  0  0
    9.4269  -16.9461   20.6548 N   0  0  0  0  0  0  0  0  0  0  0  0
    9.6254  -16.1917   21.8806 C   0  0  1  0  0  0  0  0  0  0  0  0
    8.4034  -15.2888   22.0705 C   0  0  0  0  0  0  0  0  0  0  0  0
    8.3920  -14.3287   20.9221 C   0  0  0  0  0  0  0  0  0  0  0  0
    9.2785  -14.2088   19.8961 C   0  0  0  0  0  0  0  0  0  0  0  0
    8.8843  -13.2182   19.0978 N   0  0  0  0  0  0  0  0  0  0  0  0
    7.7485  -12.7260   19.6364 C   0  0  0  0  0  0  0  0  0  0  0  0
    7.4318  -13.3880   20.7471 N   0  0  0  0  0  0  0  0  0  0  0  0
    9.7027  -17.0597   23.0710 C   0  0  0  0  0  0  0  0  0  0  0  0
    8.8458  -17.9459   23.3299 O   0  0  0  0  0  0  0  0  0  0  0  0
   10.7704  -16.9103   23.9710 N   0  0  0  0  0  0  0  0  0  0  0  0
   11.0442  -17.7302   25.0980 C   0  0  1  0  0  0  0  0  0  0  0  0
   12.1088  -18.7713   24.8722 C   0  0  0  0  0  0  0  0  0  0  0  0
   12.3081  -19.6195   26.0555 C   0  0  0  0  0  0  0  0  0  0  0  0
   11.3287  -20.1326   26.6273 O   0  0  0  0  0  0  0  0  0  0  0  0
   11.3707  -16.9869   26.3295 C   0  0  0  0  0  0  0  0  0  0  0  0
   11.3973  -17.6448   27.5495 O   0  0  0  0  0  0  0  0  0  0  0  0
   13.5743  -19.8514   26.5373 O   0  0  0  0  0  0  0  0  0  0  0  0
   11.6347  -15.7555   26.3450 O   0  0  0  0  0  0  0  0  0  0  0  0
  1  2  1  0
  2  3  1  0
  4  3  1  0
  5  6  1  1
  5  1  1  0
  5  4  1  0
  6  8  1  0
  7  6  2  0
  8  9  1  0
  9 10  1  1
 10 11  1  0
 11 12  2  0
 11 15  1  0
 12 13  1  0
 13 14  1  0
 15 14  2  0
 16 18  1  0
 16  9  1  0
 17 16  2  0
 19 18  1  0
 19 23  1  0
 20 21  1  0
 19 20  1  6
 21 22  2  0
 23 24  1  0
 25 21  1  0
 26 23  2  0
M  END
$$$$
