PHD.pdb
     RDKit          3D

 26 27  0  0  1  0  0  0  0  0999 V2000
    7.3954  -19.4025   14.2674 N   0  0  0  0  0  0  0  0  0  0  0  0
    6.3309  -19.1297   13.3152 C   0  0  0  0  0  0  0  0  0  0  0  0
    5.7940  -20.4436   12.8327 C   0  0  0  0  0  0  0  0  0  0  0  0
    6.8130  -21.4529   13.3014 C   0  0  0  0  0  0  0  0  0  0  0  0
    7.2648  -20.8023   14.5957 C   0  0  1  0  0  0  0  0  0  0  0  0
    8.4451  -21.3942   15.2024 C   0  0  0  0  0  0  0  0  0  0  0  0
    8.4530  -21.8489   16.3995 O   0  0  0  0  0  0  0  0  0  0  0  0
    9.6554  -21.4987   14.4956 N   0  0  0  0  0  0  0  0  0  0  0  0
   10.8002  -22.1717   15.0853 C   0  0  1  0  0  0  0  0  0  0  0  0
   11.6887  -22.6623   13.9388 C   0  0  0  0  0  0  0  0  0  0  0  0
   12.7022  -23.5848   14.5410 C   0  0  0  0  0  0  0  0  0  0  0  0
   13.9971  -23.3339   14.8770 C   0  0  0  0  0  0  0  0  0  0  0  0
   14.5356  -24.4430   15.3807 N   0  0  0  0  0  0  0  0  0  0  0  0
   13.5659  -25.3816   15.3540 C   0  0  0  0  0  0  0  0  0  0  0  0
   12.4421  -24.8797   14.8465 N   0  0  0  0  0  0  0  0  0  0  0  0
   11.6258  -21.2659   15.9064 C   0  0  0  0  0  0  0  0  0  0  0  0
   11.7164  -20.0296   15.6830 O   0  0  0  0  0  0  0  0  0  0  0  0
   12.3529  -21.7818   16.9916 N   0  0  0  0  0  0  0  0  0  0  0  0
   13.1222  -21.0343   17.9225 C   0  0  1  0  0  0  0  0  0  0  0  0
   12.3539  -20.5467   19.1226 C   0  0  0  0  0  0  0  0  0  0  0  0
   13.1476  -19.6238   19.9458 C   0  0  0  0  0  0  0  0  0  0  0  0
   13.8131  -18.7210   19.4058 O   0  0  0  0  0  0  0  0  0  0  0  0
   14.3424  -21.7161   18.3939 C   0  0  0  0  0  0  0  0  0  0  0  0
   15.5316  -21.0119   18.5026 O   0  0  0  0  0  0  0  0  0  0  0  0
   13.1603  -19.7511   21.3144 O   0  0  0  0  0  0  0  0  0  0  0  0
   14.3748  -22.9339   18.7134 O   0  0  0  0  0  0  0  0  0  0  0  0
  1  2  1  0
  2  3  1  0
  4  3  1  0
  5  6  1  6
  5  1  1  0
  5  4  1  0
  6  8  1  0
  7  6  2  0
  8  9  1  0
  9 10  1  6
 10 11  1  0
 11 12  2  0
 11 15  1  0
 12 13  1  0
 13 14  1  0
 15 14  2  0
 16 18  1  0
 16  9  1  0
 17 16  2  0
 19 18  1  0
 19 23  1  0
 20 21  1  0
 19 20  1  1
 21 22  2  0
 23 24  1  0
 25 21  1  0
 26 23  2  0
M  END
$$$$
