PHD.pdb
     RDKit          3D

 26 27  0  0  1  0  0  0  0  0999 V2000
    8.1623  -13.5988   19.6987 N   0  0  0  0  0  0  0  0  0  0  0  0
    7.0579  -12.8146   19.1698 C   0  0  0  0  0  0  0  0  0  0  0  0
    7.0384  -12.9886   17.6810 C   0  0  0  0  0  0  0  0  0  0  0  0
    8.3658  -13.6340   17.3677 C   0  0  0  0  0  0  0  0  0  0  0  0
    8.5644  -14.4689   18.6192 C   0  0  1  0  0  0  0  0  0  0  0  0
    9.8892  -15.0469   18.7693 C   0  0  0  0  0  0  0  0  0  0  0  0
   10.3307  -15.9723   18.0021 O   0  0  0  0  0  0  0  0  0  0  0  0
   10.7653  -14.6132   19.7790 N   0  0  0  0  0  0  0  0  0  0  0  0
   12.0884  -15.1988   19.9114 C   0  0  1  0  0  0  0  0  0  0  0  0
   13.1116  -14.0735   19.7340 C   0  0  0  0  0  0  0  0  0  0  0  0
   14.1160  -14.5554   18.7341 C   0  0  0  0  0  0  0  0  0  0  0  0
   14.1727  -15.7496   18.0832 C   0  0  0  0  0  0  0  0  0  0  0  0
   15.2383  -15.7561   17.2842 N   0  0  0  0  0  0  0  0  0  0  0  0
   15.8404  -14.5587   17.4449 C   0  0  0  0  0  0  0  0  0  0  0  0
   15.1732  -13.8131   18.3231 N   0  0  0  0  0  0  0  0  0  0  0  0
   12.3184  -15.7765   21.2492 C   0  0  0  0  0  0  0  0  0  0  0  0
   11.9800  -15.1954   22.3142 O   0  0  0  0  0  0  0  0  0  0  0  0
   12.9411  -17.0299   21.3665 N   0  0  0  0  0  0  0  0  0  0  0  0
   13.2893  -17.6886   22.5757 C   0  0  1  0  0  0  0  0  0  0  0  0
   13.8380  -19.0796   22.3965 C   0  0  0  0  0  0  0  0  0  0  0  0
   14.1032  -19.7362   23.6841 C   0  0  0  0  0  0  0  0  0  0  0  0
   13.8418  -19.1482   24.7497 O   0  0  0  0  0  0  0  0  0  0  0  0
   14.2118  -16.9298   23.4411 C   0  0  0  0  0  0  0  0  0  0  0  0
   13.8913  -16.7108   24.7720 O   0  0  0  0  0  0  0  0  0  0  0  0
   14.6402  -21.0009   23.7201 O   0  0  0  0  0  0  0  0  0  0  0  0
   15.3053  -16.4531   23.0367 O   0  0  0  0  0  0  0  0  0  0  0  0
  1  2  1  0
  2  3  1  0
  4  3  1  0
  5  6  1  1
  5  1  1  0
  5  4  1  0
  6  8  1  0
  7  6  2  0
  8  9  1  0
  9 10  1  1
 10 11  1  0
 11 12  2  0
 11 15  1  0
 12 13  1  0
 13 14  1  0
 15 14  2  0
 16 18  1  0
 16  9  1  0
 17 16  2  0
 19 18  1  0
 19 23  1  0
 20 21  1  0
 19 20  1  6
 21 22  2  0
 23 24  1  0
 25 21  1  0
 26 23  2  0
M  END
$$$$
