PHD.pdb
     RDKit          3D

 26 27  0  0  1  0  0  0  0  0999 V2000
    8.1777  -18.9574   18.8377 N   0  0  0  0  0  0  0  0  0  0  0  0
    7.2364  -19.4113   17.8266 C   0  0  0  0  0  0  0  0  0  0  0  0
    7.2078  -18.3901   16.7295 C   0  0  0  0  0  0  0  0  0  0  0  0
    7.9192  -17.1966   17.3181 C   0  0  0  0  0  0  0  0  0  0  0  0
    8.9278  -17.8946   18.2115 C   0  0  1  0  0  0  0  0  0  0  0  0
    9.6342  -17.0256   19.1376 C   0  0  0  0  0  0  0  0  0  0  0  0
   10.5723  -16.2368   18.7666 O   0  0  0  0  0  0  0  0  0  0  0  0
    9.3190  -17.0072   20.5071 N   0  0  0  0  0  0  0  0  0  0  0  0
    9.9864  -16.0820   21.4069 C   0  0  1  0  0  0  0  0  0  0  0  0
    8.9151  -15.4562   22.3042 C   0  0  0  0  0  0  0  0  0  0  0  0
    8.0383  -14.6275   21.4181 C   0  0  0  0  0  0  0  0  0  0  0  0
    6.6815  -14.6317   21.3084 C   0  0  0  0  0  0  0  0  0  0  0  0
    6.3191  -13.7344   20.3933 N   0  0  0  0  0  0  0  0  0  0  0  0
    7.4601  -13.1752   19.9375 C   0  0  0  0  0  0  0  0  0  0  0  0
    8.5178  -13.7048   20.5484 N   0  0  0  0  0  0  0  0  0  0  0  0
   10.9480  -16.7572   22.2990 C   0  0  0  0  0  0  0  0  0  0  0  0
   10.7476  -17.9036   22.7808 O   0  0  0  0  0  0  0  0  0  0  0  0
   12.1482  -16.1130   22.6410 N   0  0  0  0  0  0  0  0  0  0  0  0
   13.2420  -16.6855   23.3432 C   0  0  1  0  0  0  0  0  0  0  0  0
   14.5151  -15.8832   23.2824 C   0  0  0  0  0  0  0  0  0  0  0  0
   15.6252  -16.5609   23.9663 C   0  0  0  0  0  0  0  0  0  0  0  0
   16.0869  -16.0912   25.0227 O   0  0  0  0  0  0  0  0  0  0  0  0
   12.9601  -17.0091   24.7544 C   0  0  0  0  0  0  0  0  0  0  0  0
   13.6228  -18.0596   25.3703 O   0  0  0  0  0  0  0  0  0  0  0  0
   16.1598  -17.7150   23.4454 O   0  0  0  0  0  0  0  0  0  0  0  0
   12.1307  -16.3735   25.4576 O   0  0  0  0  0  0  0  0  0  0  0  0
  1  2  1  0
  2  3  1  0
  4  3  1  0
  5  6  1  1
  5  1  1  0
  5  4  1  0
  6  8  1  0
  7  6  2  0
  8  9  1  0
  9 10  1  1
 10 11  1  0
 11 12  2  0
 11 15  1  0
 12 13  1  0
 13 14  1  0
 15 14  2  0
 16 18  1  0
 16  9  1  0
 17 16  2  0
 19 18  1  0
 19 23  1  0
 20 21  1  0
 19 20  1  1
 21 22  2  0
 23 24  1  0
 25 21  1  0
 26 23  2  0
M  END
$$$$
