PHD.pdb
     RDKit          3D

 26 27  0  0  1  0  0  0  0  0999 V2000
   12.2569  -16.4255   18.8020 N   0  0  0  0  0  0  0  0  0  0  0  0
   13.0133  -16.5168   17.5635 C   0  0  0  0  0  0  0  0  0  0  0  0
   13.8692  -15.2910   17.4528 C   0  0  0  0  0  0  0  0  0  0  0  0
   13.3214  -14.3623   18.5084 C   0  0  0  0  0  0  0  0  0  0  0  0
   12.8870  -15.3690   19.5575 C   0  0  1  0  0  0  0  0  0  0  0  0
   12.0737  -14.8254   20.6321 C   0  0  0  0  0  0  0  0  0  0  0  0
   12.5420  -14.0286   21.5184 O   0  0  0  0  0  0  0  0  0  0  0  0
   10.7122  -15.1520   20.7546 N   0  0  0  0  0  0  0  0  0  0  0  0
    9.9532  -14.7316   21.9201 C   0  0  1  0  0  0  0  0  0  0  0  0
    8.4685  -14.7903   21.5503 C   0  0  0  0  0  0  0  0  0  0  0  0
    8.3292  -14.1329   20.2128 C   0  0  0  0  0  0  0  0  0  0  0  0
    9.2815  -13.5266   19.4522 C   0  0  0  0  0  0  0  0  0  0  0  0
    8.7177  -13.0736   18.3338 N   0  0  0  0  0  0  0  0  0  0  0  0
    7.4107  -13.4033   18.4073 C   0  0  0  0  0  0  0  0  0  0  0  0
    7.1536  -14.0485   19.5431 N   0  0  0  0  0  0  0  0  0  0  0  0
   10.1414  -15.6343   23.0716 C   0  0  0  0  0  0  0  0  0  0  0  0
    9.4886  -15.5238   24.1432 O   0  0  0  0  0  0  0  0  0  0  0  0
   11.0851  -16.6715   22.9937 N   0  0  0  0  0  0  0  0  0  0  0  0
   11.3658  -17.6334   24.0004 C   0  0  1  0  0  0  0  0  0  0  0  0
   10.4431  -18.8236   24.0050 C   0  0  0  0  0  0  0  0  0  0  0  0
   10.7540  -19.7561   25.0974 C   0  0  0  0  0  0  0  0  0  0  0  0
   10.6710  -19.3801   26.2811 O   0  0  0  0  0  0  0  0  0  0  0  0
   12.7579  -18.1209   24.0086 C   0  0  0  0  0  0  0  0  0  0  0  0
   13.6337  -17.7336   23.0061 O   0  0  0  0  0  0  0  0  0  0  0  0
   11.1373  -21.0465   24.8198 O   0  0  0  0  0  0  0  0  0  0  0  0
   13.2164  -18.8899   24.8943 O   0  0  0  0  0  0  0  0  0  0  0  0
  1  2  1  0
  2  3  1  0
  4  3  1  0
  5  6  1  1
  5  1  1  0
  5  4  1  0
  6  8  1  0
  7  6  2  0
  8  9  1  0
  9 10  1  6
 10 11  1  0
 11 12  2  0
 11 15  1  0
 12 13  1  0
 13 14  1  0
 15 14  2  0
 16 18  1  0
 16  9  1  0
 17 16  2  0
 19 18  1  0
 19 23  1  0
 20 21  1  0
 19 20  1  6
 21 22  2  0
 23 24  1  0
 25 21  1  0
 26 23  2  0
M  END
$$$$
