PHD.pdb
     RDKit          3D

 26 27  0  0  1  0  0  0  0  0999 V2000
    8.4855  -14.5314   18.0630 N   0  0  0  0  0  0  0  0  0  0  0  0
    7.5026  -13.5881   17.5545 C   0  0  0  0  0  0  0  0  0  0  0  0
    7.2611  -12.5555   18.6142 C   0  0  0  0  0  0  0  0  0  0  0  0
    7.8983  -13.1401   19.8507 C   0  0  0  0  0  0  0  0  0  0  0  0
    9.0562  -13.8977   19.2278 C   0  0  1  0  0  0  0  0  0  0  0  0
    9.7551  -14.8006   20.1266 C   0  0  0  0  0  0  0  0  0  0  0  0
   10.1933  -14.4335   21.2725 O   0  0  0  0  0  0  0  0  0  0  0  0
    9.9889  -16.1420   19.7783 N   0  0  0  0  0  0  0  0  0  0  0  0
   10.6547  -17.0412   20.7052 C   0  0  1  0  0  0  0  0  0  0  0  0
   10.3425  -18.4738   20.2639 C   0  0  0  0  0  0  0  0  0  0  0  0
   10.9144  -19.3825   21.3070 C   0  0  0  0  0  0  0  0  0  0  0  0
   12.0970  -20.0564   21.3018 C   0  0  0  0  0  0  0  0  0  0  0  0
   12.2032  -20.7519   22.4327 N   0  0  0  0  0  0  0  0  0  0  0  0
   11.0790  -20.5040   23.1375 C   0  0  0  0  0  0  0  0  0  0  0  0
   10.2814  -19.6730   22.4700 N   0  0  0  0  0  0  0  0  0  0  0  0
   12.1225  -16.8967   20.6755 C   0  0  0  0  0  0  0  0  0  0  0  0
   12.7649  -16.6401   19.6228 O   0  0  0  0  0  0  0  0  0  0  0  0
   12.8591  -17.0477   21.8617 N   0  0  0  0  0  0  0  0  0  0  0  0
   14.2700  -16.9535   21.9958 C   0  0  1  0  0  0  0  0  0  0  0  0
   14.7659  -15.6166   22.4803 C   0  0  0  0  0  0  0  0  0  0  0  0
   16.2336  -15.5445   22.4881 C   0  0  0  0  0  0  0  0  0  0  0  0
   16.8714  -15.6988   21.4303 O   0  0  0  0  0  0  0  0  0  0  0  0
   14.8761  -18.0077   22.8307 C   0  0  0  0  0  0  0  0  0  0  0  0
   16.1357  -18.4977   22.5219 O   0  0  0  0  0  0  0  0  0  0  0  0
   16.9101  -15.3066   23.6607 O   0  0  0  0  0  0  0  0  0  0  0  0
   14.3059  -18.5070   23.8365 O   0  0  0  0  0  0  0  0  0  0  0  0
  1  2  1  0
  2  3  1  0
  4  3  1  0
  5  6  1  1
  5  1  1  0
  5  4  1  0
  6  8  1  0
  7  6  2  0
  8  9  1  0
  9 10  1  6
 10 11  1  0
 11 12  2  0
 11 15  1  0
 12 13  1  0
 13 14  1  0
 15 14  2  0
 16 18  1  0
 16  9  1  0
 17 16  2  0
 19 18  1  0
 19 23  1  0
 20 21  1  0
 19 20  1  1
 21 22  2  0
 23 24  1  0
 25 21  1  0
 26 23  2  0
M  END
$$$$
