PHD.pdb
     RDKit          3D

 26 27  0  0  1  0  0  0  0  0999 V2000
    7.7612  -18.8766   20.3523 N   0  0  0  0  0  0  0  0  0  0  0  0
    6.7348  -19.7426   19.7947 C   0  0  0  0  0  0  0  0  0  0  0  0
    6.7257  -19.5512   18.3079 C   0  0  0  0  0  0  0  0  0  0  0  0
    7.5573  -18.3110   18.0907 C   0  0  0  0  0  0  0  0  0  0  0  0
    8.5559  -18.4510   19.2246 C   0  0  1  0  0  0  0  0  0  0  0  0
    9.3757  -17.2767   19.4708 C   0  0  0  0  0  0  0  0  0  0  0  0
   10.5706  -17.1618   19.0248 O   0  0  0  0  0  0  0  0  0  0  0  0
    8.8914  -16.1921   20.2221 N   0  0  0  0  0  0  0  0  0  0  0  0
    9.7680  -15.0895   20.5784 C   0  0  1  0  0  0  0  0  0  0  0  0
    8.9471  -13.7999   20.4915 C   0  0  0  0  0  0  0  0  0  0  0  0
    8.5417  -13.6405   19.0593 C   0  0  0  0  0  0  0  0  0  0  0  0
    8.8138  -14.4464   17.9966 C   0  0  0  0  0  0  0  0  0  0  0  0
    8.2597  -13.9230   16.9043 N   0  0  0  0  0  0  0  0  0  0  0  0
    7.6433  -12.7884   17.2979 C   0  0  0  0  0  0  0  0  0  0  0  0
    7.8030  -12.5983   18.6059 N   0  0  0  0  0  0  0  0  0  0  0  0
   10.2624  -15.1871   21.9649 C   0  0  0  0  0  0  0  0  0  0  0  0
    9.5615  -14.8809   22.9656 O   0  0  0  0  0  0  0  0  0  0  0  0
   11.5701  -15.6392   22.2054 N   0  0  0  0  0  0  0  0  0  0  0  0
   12.0855  -16.1092   23.4426 C   0  0  1  0  0  0  0  0  0  0  0  0
   11.3152  -17.2525   24.0490 C   0  0  0  0  0  0  0  0  0  0  0  0
   11.8816  -17.6752   25.3373 C   0  0  0  0  0  0  0  0  0  0  0  0
   12.8623  -17.0751   25.8146 O   0  0  0  0  0  0  0  0  0  0  0  0
   13.5146  -16.4731   23.4106 C   0  0  0  0  0  0  0  0  0  0  0  0
   14.2216  -16.4009   22.2203 O   0  0  0  0  0  0  0  0  0  0  0  0
   11.3336  -18.7334   26.0222 O   0  0  0  0  0  0  0  0  0  0  0  0
   14.1536  -16.8572   24.4257 O   0  0  0  0  0  0  0  0  0  0  0  0
  1  2  1  0
  2  3  1  0
  4  3  1  0
  5  6  1  1
  5  1  1  0
  5  4  1  0
  6  8  1  0
  7  6  2  0
  8  9  1  0
  9 10  1  1
 10 11  1  0
 11 12  2  0
 11 15  1  0
 12 13  1  0
 13 14  1  0
 15 14  2  0
 16 18  1  0
 16  9  1  0
 17 16  2  0
 19 18  1  0
 19 23  1  0
 20 21  1  0
 19 20  1  6
 21 22  2  0
 23 24  1  0
 25 21  1  0
 26 23  2  0
M  END
$$$$
