PHD.pdb
     RDKit          3D

 26 27  0  0  1  0  0  0  0  0999 V2000
    7.7152  -18.2955   18.7537 N   0  0  0  0  0  0  0  0  0  0  0  0
    7.1078  -18.5484   17.4569 C   0  0  0  0  0  0  0  0  0  0  0  0
    7.9148  -17.8271   16.4196 C   0  0  0  0  0  0  0  0  0  0  0  0
    8.7982  -16.9005   17.2182 C   0  0  0  0  0  0  0  0  0  0  0  0
    9.0154  -17.7386   18.4644 C   0  0  1  0  0  0  0  0  0  0  0  0
    9.6347  -17.0380   19.5767 C   0  0  0  0  0  0  0  0  0  0  0  0
   10.8414  -16.6112   19.5392 O   0  0  0  0  0  0  0  0  0  0  0  0
    8.9300  -16.7901   20.7673 N   0  0  0  0  0  0  0  0  0  0  0  0
    9.5368  -16.0183   21.8384 C   0  0  1  0  0  0  0  0  0  0  0  0
    8.4501  -15.1172   22.4314 C   0  0  0  0  0  0  0  0  0  0  0  0
    7.9552  -14.2464   21.3189 C   0  0  0  0  0  0  0  0  0  0  0  0
    8.4397  -13.0503   20.8860 C   0  0  0  0  0  0  0  0  0  0  0  0
    7.6916  -12.6230   19.8703 N   0  0  0  0  0  0  0  0  0  0  0  0
    6.7412  -13.5621   19.6777 C   0  0  0  0  0  0  0  0  0  0  0  0
    6.8839  -14.5585   20.5490 N   0  0  0  0  0  0  0  0  0  0  0  0
   10.0307  -16.8696   22.9373 C   0  0  0  0  0  0  0  0  0  0  0  0
    9.4501  -17.9271   23.2993 O   0  0  0  0  0  0  0  0  0  0  0  0
   11.1992  -16.5054   23.6262 N   0  0  0  0  0  0  0  0  0  0  0  0
   11.8896  -17.2894   24.5884 C   0  0  1  0  0  0  0  0  0  0  0  0
   13.3136  -16.8665   24.8366 C   0  0  0  0  0  0  0  0  0  0  0  0
   14.0478  -16.6447   23.5832 C   0  0  0  0  0  0  0  0  0  0  0  0
   14.1796  -17.5733   22.7647 O   0  0  0  0  0  0  0  0  0  0  0  0
   11.2029  -17.4055   25.8886 C   0  0  0  0  0  0  0  0  0  0  0  0
   10.0752  -16.6417   26.1474 O   0  0  0  0  0  0  0  0  0  0  0  0
   14.5923  -15.4133   23.3069 O   0  0  0  0  0  0  0  0  0  0  0  0
   11.5866  -18.1770   26.8072 O   0  0  0  0  0  0  0  0  0  0  0  0
  1  2  1  0
  2  3  1  0
  4  3  1  0
  5  6  1  1
  5  1  1  0
  5  4  1  0
  6  8  1  0
  7  6  2  0
  8  9  1  0
  9 10  1  1
 10 11  1  0
 11 12  2  0
 11 15  1  0
 12 13  1  0
 13 14  1  0
 15 14  2  0
 16 18  1  0
 16  9  1  0
 17 16  2  0
 19 18  1  0
 19 23  1  0
 20 21  1  0
 19 20  1  1
 21 22  2  0
 23 24  1  0
 25 21  1  0
 26 23  2  0
M  END
$$$$
