PHD.pdb
     RDKit          3D

 26 27  0  0  1  0  0  0  0  0999 V2000
    8.8277  -14.9103   19.4126 N   0  0  0  0  0  0  0  0  0  0  0  0
    8.7400  -14.1550   18.1732 C   0  0  0  0  0  0  0  0  0  0  0  0
    7.9568  -12.9064   18.4468 C   0  0  0  0  0  0  0  0  0  0  0  0
    7.3344  -13.1505   19.7996 C   0  0  0  0  0  0  0  0  0  0  0  0
    8.4168  -13.9930   20.4489 C   0  0  1  0  0  0  0  0  0  0  0  0
    8.0361  -14.6253   21.7006 C   0  0  0  0  0  0  0  0  0  0  0  0
    7.6195  -13.9601   22.7125 O   0  0  0  0  0  0  0  0  0  0  0  0
    8.1072  -16.0191   21.8663 N   0  0  0  0  0  0  0  0  0  0  0  0
    7.8468  -16.6239   23.1615 C   0  0  1  0  0  0  0  0  0  0  0  0
    7.7014  -18.1328   22.9460 C   0  0  0  0  0  0  0  0  0  0  0  0
    7.3252  -18.7247   24.2685 C   0  0  0  0  0  0  0  0  0  0  0  0
    6.1753  -18.5711   24.9805 C   0  0  0  0  0  0  0  0  0  0  0  0
    6.2669  -19.2760   26.1068 N   0  0  0  0  0  0  0  0  0  0  0  0
    7.4806  -19.8666   26.0871 C   0  0  0  0  0  0  0  0  0  0  0  0
    8.1405  -19.5438   24.9769 N   0  0  0  0  0  0  0  0  0  0  0  0
    8.9630  -16.4343   24.1073 C   0  0  0  0  0  0  0  0  0  0  0  0
   10.1704  -16.4200   23.7487 O   0  0  0  0  0  0  0  0  0  0  0  0
    8.6925  -16.2599   25.4744 N   0  0  0  0  0  0  0  0  0  0  0  0
    9.6324  -15.9180   26.4828 C   0  0  1  0  0  0  0  0  0  0  0  0
    9.1181  -14.9521   27.5176 C   0  0  0  0  0  0  0  0  0  0  0  0
   10.1526  -14.5945   28.4981 C   0  0  0  0  0  0  0  0  0  0  0  0
   11.0602  -15.4019   28.7700 O   0  0  0  0  0  0  0  0  0  0  0  0
   10.2304  -17.0734   27.1779 C   0  0  0  0  0  0  0  0  0  0  0  0
    9.4144  -18.0543   27.7200 O   0  0  0  0  0  0  0  0  0  0  0  0
   10.1249  -13.3689   29.1198 O   0  0  0  0  0  0  0  0  0  0  0  0
   11.4724  -17.2312   27.3151 O   0  0  0  0  0  0  0  0  0  0  0  0
  1  2  1  0
  2  3  1  0
  4  3  1  0
  5  6  1  1
  5  1  1  0
  5  4  1  0
  6  8  1  0
  7  6  2  0
  8  9  1  0
  9 10  1  6
 10 11  1  0
 11 12  2  0
 11 15  1  0
 12 13  1  0
 13 14  1  0
 15 14  2  0
 16 18  1  0
 16  9  1  0
 17 16  2  0
 19 18  1  0
 19 23  1  0
 20 21  1  0
 19 20  1  1
 21 22  2  0
 23 24  1  0
 25 21  1  0
 26 23  2  0
M  END
$$$$
