PHD.pdb
     RDKit          3D

 26 27  0  0  1  0  0  0  0  0999 V2000
    9.3534  -13.9041   18.7646 N   0  0  0  0  0  0  0  0  0  0  0  0
    8.7594  -12.8932   17.9045 C   0  0  0  0  0  0  0  0  0  0  0  0
    7.5323  -12.3682   18.5871 C   0  0  0  0  0  0  0  0  0  0  0  0
    7.2829  -13.3510   19.7046 C   0  0  0  0  0  0  0  0  0  0  0  0
    8.7088  -13.7420   20.0461 C   0  0  1  0  0  0  0  0  0  0  0  0
    8.8372  -14.8831   20.9367 C   0  0  0  0  0  0  0  0  0  0  0  0
    8.1614  -14.9951   22.0186 O   0  0  0  0  0  0  0  0  0  0  0  0
    9.7227  -15.9365   20.6513 N   0  0  0  0  0  0  0  0  0  0  0  0
    9.7708  -17.1129   21.5026 C   0  0  1  0  0  0  0  0  0  0  0  0
   10.1108  -18.3127   20.6140 C   0  0  0  0  0  0  0  0  0  0  0  0
    8.8913  -18.6053   19.7967 C   0  0  0  0  0  0  0  0  0  0  0  0
    7.5870  -18.6390   20.1847 C   0  0  0  0  0  0  0  0  0  0  0  0
    6.8306  -18.9449   19.1321 N   0  0  0  0  0  0  0  0  0  0  0  0
    7.6751  -19.1004   18.0905 C   0  0  0  0  0  0  0  0  0  0  0  0
    8.9338  -18.8981   18.4738 N   0  0  0  0  0  0  0  0  0  0  0  0
   10.8307  -17.0264   22.5251 C   0  0  0  0  0  0  0  0  0  0  0  0
   11.8676  -16.3263   22.3801 O   0  0  0  0  0  0  0  0  0  0  0  0
   10.7003  -17.7482   23.7228 N   0  0  0  0  0  0  0  0  0  0  0  0
   11.6422  -17.7967   24.7848 C   0  0  1  0  0  0  0  0  0  0  0  0
   11.0399  -18.0163   26.1475 C   0  0  0  0  0  0  0  0  0  0  0  0
   12.0607  -18.0272   27.2046 C   0  0  0  0  0  0  0  0  0  0  0  0
   13.2369  -17.7181   26.9392 O   0  0  0  0  0  0  0  0  0  0  0  0
   12.7310  -18.7729   24.5918 C   0  0  0  0  0  0  0  0  0  0  0  0
   14.0512  -18.3501   24.6047 O   0  0  0  0  0  0  0  0  0  0  0  0
   11.7240  -18.3777   28.4903 O   0  0  0  0  0  0  0  0  0  0  0  0
   12.5328  -20.0034   24.4102 O   0  0  0  0  0  0  0  0  0  0  0  0
  1  2  1  0
  2  3  1  0
  4  3  1  0
  5  6  1  6
  5  1  1  0
  5  4  1  0
  6  8  1  0
  7  6  2  0
  8  9  1  0
  9 10  1  6
 10 11  1  0
 11 12  2  0
 11 15  1  0
 12 13  1  0
 13 14  1  0
 15 14  2  0
 16 18  1  0
 16  9  1  0
 17 16  2  0
 19 18  1  0
 19 23  1  0
 20 21  1  0
 19 20  1  1
 21 22  2  0
 23 24  1  0
 25 21  1  0
 26 23  2  0
M  END
$$$$
