PHD.pdb
     RDKit          3D

 26 27  0  0  1  0  0  0  0  0999 V2000
    8.5588  -18.5145   17.2909 N   0  0  0  0  0  0  0  0  0  0  0  0
    8.1129  -18.7345   15.9245 C   0  0  0  0  0  0  0  0  0  0  0  0
    8.5492  -17.5604   15.1008 C   0  0  0  0  0  0  0  0  0  0  0  0
    8.9673  -16.5297   16.1205 C   0  0  0  0  0  0  0  0  0  0  0  0
    9.5111  -17.4323   17.2124 C   0  0  1  0  0  0  0  0  0  0  0  0
    9.7822  -16.7718   18.4781 C   0  0  0  0  0  0  0  0  0  0  0  0
   10.6720  -15.8597   18.6053 O   0  0  0  0  0  0  0  0  0  0  0  0
    9.0713  -17.1060   19.6435 N   0  0  0  0  0  0  0  0  0  0  0  0
    9.3410  -16.4208   20.8960 C   0  0  1  0  0  0  0  0  0  0  0  0
    8.0160  -15.8430   21.4012 C   0  0  0  0  0  0  0  0  0  0  0  0
    7.6096  -14.7788   20.4301 C   0  0  0  0  0  0  0  0  0  0  0  0
    6.6744  -14.8313   19.4425 C   0  0  0  0  0  0  0  0  0  0  0  0
    6.6413  -13.6567   18.8156 N   0  0  0  0  0  0  0  0  0  0  0  0
    7.5620  -12.8772   19.4214 C   0  0  0  0  0  0  0  0  0  0  0  0
    8.1625  -13.5413   20.4066 N   0  0  0  0  0  0  0  0  0  0  0  0
    9.8344  -17.3343   21.9440 C   0  0  0  0  0  0  0  0  0  0  0  0
    9.3913  -18.5032   22.0987 O   0  0  0  0  0  0  0  0  0  0  0  0
   10.8435  -16.9042   22.8211 N   0  0  0  0  0  0  0  0  0  0  0  0
   11.9311  -17.6814   23.3010 C   0  0  1  0  0  0  0  0  0  0  0  0
   12.8222  -18.2445   22.2253 C   0  0  0  0  0  0  0  0  0  0  0  0
   13.9204  -19.0450   22.7843 C   0  0  0  0  0  0  0  0  0  0  0  0
   13.7463  -20.2510   23.0392 O   0  0  0  0  0  0  0  0  0  0  0  0
   12.7764  -16.9991   24.2988 C   0  0  0  0  0  0  0  0  0  0  0  0
   12.6222  -15.6400   24.5246 O   0  0  0  0  0  0  0  0  0  0  0  0
   15.1442  -18.4688   23.0286 O   0  0  0  0  0  0  0  0  0  0  0  0
   13.6564  -17.5894   24.9796 O   0  0  0  0  0  0  0  0  0  0  0  0
  1  2  1  0
  2  3  1  0
  4  3  1  0
  5  6  1  1
  5  1  1  0
  5  4  1  0
  6  8  1  0
  7  6  2  0
  8  9  1  0
  9 10  1  1
 10 11  1  0
 11 12  2  0
 11 15  1  0
 12 13  1  0
 13 14  1  0
 15 14  2  0
 16 18  1  0
 16  9  1  0
 17 16  2  0
 19 18  1  0
 19 23  1  0
 20 21  1  0
 19 20  1  6
 21 22  2  0
 23 24  1  0
 25 21  1  0
 26 23  2  0
M  END
$$$$
