PHD.pdb
     RDKit          3D

 26 27  0  0  1  0  0  0  0  0999 V2000
    8.3527  -15.5572   18.1789 N   0  0  0  0  0  0  0  0  0  0  0  0
    7.7886  -15.0430   16.9413 C   0  0  0  0  0  0  0  0  0  0  0  0
    8.2785  -13.6380   16.7582 C   0  0  0  0  0  0  0  0  0  0  0  0
    8.8705  -13.2764   18.0982 C   0  0  0  0  0  0  0  0  0  0  0  0
    9.3998  -14.6296   18.5358 C   0  0  1  0  0  0  0  0  0  0  0  0
    9.8270  -14.7037   19.9228 C   0  0  0  0  0  0  0  0  0  0  0  0
   10.8099  -14.0225   20.3808 O   0  0  0  0  0  0  0  0  0  0  0  0
    9.1736  -15.5393   20.8448 N   0  0  0  0  0  0  0  0  0  0  0  0
    9.6015  -15.5861   22.2325 C   0  0  1  0  0  0  0  0  0  0  0  0
    8.3444  -15.5409   23.1055 C   0  0  0  0  0  0  0  0  0  0  0  0
    7.8174  -14.1416   23.0333 C   0  0  0  0  0  0  0  0  0  0  0  0
    7.8236  -13.1729   23.9895 C   0  0  0  0  0  0  0  0  0  0  0  0
    7.2469  -12.0773   23.4986 N   0  0  0  0  0  0  0  0  0  0  0  0
    6.8838  -12.3743   22.2328 C   0  0  0  0  0  0  0  0  0  0  0  0
    7.2220  -13.6259   21.9301 N   0  0  0  0  0  0  0  0  0  0  0  0
   10.3053  -16.8396   22.5639 C   0  0  0  0  0  0  0  0  0  0  0  0
    9.9262  -17.9680   22.1523 O   0  0  0  0  0  0  0  0  0  0  0  0
   11.4523  -16.7986   23.3733 N   0  0  0  0  0  0  0  0  0  0  0  0
   12.1965  -17.9154   23.8383 C   0  0  1  0  0  0  0  0  0  0  0  0
   13.6072  -17.5977   24.2591 C   0  0  0  0  0  0  0  0  0  0  0  0
   14.4017  -17.0507   23.1505 C   0  0  0  0  0  0  0  0  0  0  0  0
   13.9658  -17.1026   21.9857 O   0  0  0  0  0  0  0  0  0  0  0  0
   11.5452  -18.6754   24.9219 C   0  0  0  0  0  0  0  0  0  0  0  0
   10.4363  -18.1501   25.5671 O   0  0  0  0  0  0  0  0  0  0  0  0
   15.6283  -16.4795   23.3920 O   0  0  0  0  0  0  0  0  0  0  0  0
   11.9437  -19.8050   25.3109 O   0  0  0  0  0  0  0  0  0  0  0  0
  1  2  1  0
  2  3  1  0
  4  3  1  0
  5  6  1  1
  5  1  1  0
  5  4  1  0
  6  8  1  0
  7  6  2  0
  8  9  1  0
  9 10  1  1
 10 11  1  0
 11 12  2  0
 11 15  1  0
 12 13  1  0
 13 14  1  0
 15 14  2  0
 16 18  1  0
 16  9  1  0
 17 16  2  0
 19 18  1  0
 19 23  1  0
 20 21  1  0
 19 20  1  1
 21 22  2  0
 23 24  1  0
 25 21  1  0
 26 23  2  0
M  END
$$$$
