PHD.pdb
     RDKit          3D

 26 27  0  0  1  0  0  0  0  0999 V2000
    8.5372  -14.7227   18.7770 N   0  0  0  0  0  0  0  0  0  0  0  0
    8.2651  -13.7586   17.7231 C   0  0  0  0  0  0  0  0  0  0  0  0
    7.7036  -12.5231   18.3601 C   0  0  0  0  0  0  0  0  0  0  0  0
    7.3687  -12.9533   19.7670 C   0  0  0  0  0  0  0  0  0  0  0  0
    8.4666  -13.9726   20.0085 C   0  0  1  0  0  0  0  0  0  0  0  0
    8.3010  -14.7839   21.2026 C   0  0  0  0  0  0  0  0  0  0  0  0
    8.2252  -14.2785   22.3768 O   0  0  0  0  0  0  0  0  0  0  0  0
    8.2147  -16.1847   21.1278 N   0  0  0  0  0  0  0  0  0  0  0  0
    8.0969  -16.9836   22.3357 C   0  0  1  0  0  0  0  0  0  0  0  0
    7.8249  -18.4288   21.9091 C   0  0  0  0  0  0  0  0  0  0  0  0
    7.4599  -19.1846   23.1486 C   0  0  0  0  0  0  0  0  0  0  0  0
    6.5607  -18.8595   24.1174 C   0  0  0  0  0  0  0  0  0  0  0  0
    6.5570  -19.8174   25.0428 N   0  0  0  0  0  0  0  0  0  0  0  0
    7.4596  -20.7370   24.6405 C   0  0  0  0  0  0  0  0  0  0  0  0
    8.0203  -20.3708   23.4899 N   0  0  0  0  0  0  0  0  0  0  0  0
    9.3430  -16.9999   23.1251 C   0  0  0  0  0  0  0  0  0  0  0  0
   10.3103  -16.2266   22.8951 O   0  0  0  0  0  0  0  0  0  0  0  0
    9.4809  -17.9097   24.1861 N   0  0  0  0  0  0  0  0  0  0  0  0
   10.3752  -17.7958   25.2836 C   0  0  1  0  0  0  0  0  0  0  0  0
   10.2202  -16.5335   26.0904 C   0  0  0  0  0  0  0  0  0  0  0  0
   11.2154  -16.4439   27.1679 C   0  0  0  0  0  0  0  0  0  0  0  0
   12.2209  -17.1775   27.1509 O   0  0  0  0  0  0  0  0  0  0  0  0
   10.3590  -18.9459   26.2070 C   0  0  0  0  0  0  0  0  0  0  0  0
    9.1529  -19.5205   26.5772 O   0  0  0  0  0  0  0  0  0  0  0  0
   11.0429  -15.5515   28.1989 O   0  0  0  0  0  0  0  0  0  0  0  0
   11.4020  -19.4551   26.6962 O   0  0  0  0  0  0  0  0  0  0  0  0
  1  2  1  0
  2  3  1  0
  4  3  1  0
  5  6  1  1
  5  1  1  0
  5  4  1  0
  6  8  1  0
  7  6  2  0
  8  9  1  0
  9 10  1  6
 10 11  1  0
 11 12  2  0
 11 15  1  0
 12 13  1  0
 13 14  1  0
 15 14  2  0
 16 18  1  0
 16  9  1  0
 17 16  2  0
 19 18  1  0
 19 23  1  0
 20 21  1  0
 19 20  1  1
 21 22  2  0
 23 24  1  0
 25 21  1  0
 26 23  2  0
M  END
$$$$
