SPQ.pdb
     RDKit          3D

 23 23  0  0  1  0  0  0  0  0999 V2000
    5.9749  -18.4836   23.2406 O   0  0  0  0  0  0  0  0  0  0  0  0
    5.1518  -17.6048   22.5382 C   0  0  0  0  0  0  0  0  0  0  0  0
    5.5329  -17.5786   21.0445 C   0  0  2  0  0  0  0  0  0  0  0  0
    5.3805  -18.9635   20.5920 N   0  0  0  0  0  0  0  0  0  0  0  0
    6.9355  -17.1496   20.9828 C   0  0  0  0  0  0  0  0  0  0  0  0
    7.8235  -18.0729   21.0218 O   0  0  0  0  0  0  0  0  0  0  0  0
    7.3018  -15.7888   20.8836 N   0  0  0  0  0  0  0  0  0  0  0  0
    6.3581  -14.6597   20.8205 C   0  0  0  0  0  0  0  0  0  0  0  0
    7.1802  -13.5578   21.4438 C   0  0  0  0  0  0  0  0  0  0  0  0
    8.4772  -13.7524   20.6412 C   0  0  0  0  0  0  0  0  0  0  0  0
    8.6411  -15.2658   20.8576 C   0  0  1  0  0  0  0  0  0  0  0  0
    9.2892  -15.3960   22.2002 C   0  0  0  0  0  0  0  0  0  0  0  0
    8.6434  -15.3269   23.2678 O   0  0  0  0  0  0  0  0  0  0  0  0
   10.5665  -16.5910   26.5592 N   0  0  0  0  0  0  0  0  0  0  0  0
   10.7756  -17.9261   26.1254 C   0  0  0  0  0  0  0  0  0  0  0  0
   10.3092  -18.8627   26.8311 O   0  0  0  0  0  0  0  0  0  0  0  0
   11.5314  -18.1984   24.8617 C   0  0  0  0  0  0  0  0  0  0  0  0
   10.7747  -17.5465   23.7036 C   0  0  0  0  0  0  0  0  0  0  0  0
   11.3513  -16.1884   23.3997 C   0  0  2  0  0  0  0  0  0  0  0  0
   10.7032  -15.6070   22.2384 N   0  0  0  0  0  0  0  0  0  0  0  0
   12.8161  -16.2668   23.1393 C   0  0  0  0  0  0  0  0  0  0  0  0
   13.2698  -16.6405   22.0324 O   0  0  0  0  0  0  0  0  0  0  0  0
   13.7322  -15.9221   24.1331 O   0  0  0  0  0  0  0  0  0  0  0  0
  2  1  1  0
  3  2  1  0
  3  4  1  1
  5  3  1  0
  6  5  2  0
  7  5  1  0
  7  8  1  0
  9  8  1  0
 10 11  1  0
 10  9  1  0
 11 12  1  1
 11  7  1  0
 12 20  1  0
 13 12  2  0
 15 17  1  0
 15 14  1  0
 16 15  2  0
 18 17  1  0
 19 21  1  0
 19 18  1  6
 20 19  1  0
 21 22  2  0
 21 23  1  0
M  END
$$$$
