SPQ.pdb
     RDKit          3D

 23 23  0  0  1  0  0  0  0  0999 V2000
    6.6129  -17.7133   18.9255 O   0  0  0  0  0  0  0  0  0  0  0  0
    7.4372  -17.4238   20.0118 C   0  0  0  0  0  0  0  0  0  0  0  0
    8.1349  -16.0627   19.8180 C   0  0  2  0  0  0  0  0  0  0  0  0
    8.9376  -16.2198   18.6027 N   0  0  0  0  0  0  0  0  0  0  0  0
    8.9869  -15.8630   20.9967 C   0  0  0  0  0  0  0  0  0  0  0  0
   10.1560  -16.3868   20.9590 O   0  0  0  0  0  0  0  0  0  0  0  0
    8.5520  -15.1299   22.1233 N   0  0  0  0  0  0  0  0  0  0  0  0
    7.2459  -14.4602   22.2458 C   0  0  0  0  0  0  0  0  0  0  0  0
    7.0318  -14.5104   23.7392 C   0  0  0  0  0  0  0  0  0  0  0  0
    8.4072  -13.9907   24.1893 C   0  0  0  0  0  0  0  0  0  0  0  0
    9.2817  -14.9337   23.3468 C   0  0  1  0  0  0  0  0  0  0  0  0
    9.3500  -16.2041   24.1351 C   0  0  0  0  0  0  0  0  0  0  0  0
    8.3575  -16.9443   24.3041 O   0  0  0  0  0  0  0  0  0  0  0  0
   14.7925  -19.1764   24.9983 N   0  0  0  0  0  0  0  0  0  0  0  0
   13.9403  -19.9490   25.8296 C   0  0  0  0  0  0  0  0  0  0  0  0
   14.4320  -20.9475   26.4243 O   0  0  0  0  0  0  0  0  0  0  0  0
   12.4986  -19.5754   25.9857 C   0  0  0  0  0  0  0  0  0  0  0  0
   12.2469  -18.2993   25.1813 C   0  0  0  0  0  0  0  0  0  0  0  0
   10.8151  -17.8572   25.3349 C   0  0  2  0  0  0  0  0  0  0  0  0
   10.6100  -16.5645   24.7075 N   0  0  0  0  0  0  0  0  0  0  0  0
   10.4291  -17.7574   26.7705 C   0  0  0  0  0  0  0  0  0  0  0  0
   10.3375  -16.6517   27.3531 O   0  0  0  0  0  0  0  0  0  0  0  0
   10.1564  -18.9065   27.5125 O   0  0  0  0  0  0  0  0  0  0  0  0
  2  1  1  0
  3  2  1  0
  3  4  1  6
  5  3  1  0
  6  5  2  0
  7  5  1  0
  7  8  1  0
  9  8  1  0
 10 11  1  0
 10  9  1  0
 11 12  1  1
 11  7  1  0
 12 20  1  0
 13 12  2  0
 15 17  1  0
 15 14  1  0
 16 15  2  0
 18 17  1  0
 19 21  1  0
 19 18  1  1
 20 19  1  0
 21 22  2  0
 21 23  1  0
M  END
$$$$
