SPQ.pdb
     RDKit          3D

 23 23  0  0  1  0  0  0  0  0999 V2000
    5.9693  -16.0837   21.3169 O   0  0  0  0  0  0  0  0  0  0  0  0
    7.1728  -16.0626   22.0199 C   0  0  0  0  0  0  0  0  0  0  0  0
    7.7568  -14.6363   22.0564 C   0  0  2  0  0  0  0  0  0  0  0  0
    8.6933  -14.5831   20.9312 N   0  0  0  0  0  0  0  0  0  0  0  0
    8.4586  -14.5092   23.3396 C   0  0  0  0  0  0  0  0  0  0  0  0
    9.6036  -15.0780   23.4299 O   0  0  0  0  0  0  0  0  0  0  0  0
    7.9102  -13.7964   24.4291 N   0  0  0  0  0  0  0  0  0  0  0  0
    6.6538  -13.0284   24.3930 C   0  0  0  0  0  0  0  0  0  0  0  0
    6.2087  -13.1306   25.8317 C   0  0  0  0  0  0  0  0  0  0  0  0
    7.5326  -12.7466   26.5130 C   0  0  0  0  0  0  0  0  0  0  0  0
    8.4547  -13.7178   25.7577 C   0  0  1  0  0  0  0  0  0  0  0  0
    8.3066  -15.0249   26.4715 C   0  0  0  0  0  0  0  0  0  0  0  0
    7.2647  -15.7117   26.4067 O   0  0  0  0  0  0  0  0  0  0  0  0
   13.5450  -18.2159   24.9931 N   0  0  0  0  0  0  0  0  0  0  0  0
   12.1992  -18.3545   25.4220 C   0  0  0  0  0  0  0  0  0  0  0  0
   11.5401  -19.3478   25.0074 O   0  0  0  0  0  0  0  0  0  0  0  0
   11.5929  -17.3404   26.3419 C   0  0  0  0  0  0  0  0  0  0  0  0
   10.1214  -17.7026   26.5475 C   0  0  0  0  0  0  0  0  0  0  0  0
    9.5281  -16.8744   27.6572 C   0  0  2  0  0  0  0  0  0  0  0  0
    9.4130  -15.4855   27.2518 N   0  0  0  0  0  0  0  0  0  0  0  0
   10.3608  -16.9440   28.8907 C   0  0  0  0  0  0  0  0  0  0  0  0
   10.5446  -18.0225   29.5019 O   0  0  0  0  0  0  0  0  0  0  0  0
   10.9651  -15.7963   29.4037 O   0  0  0  0  0  0  0  0  0  0  0  0
  2  1  1  0
  3  2  1  0
  3  4  1  6
  5  3  1  0
  6  5  2  0
  7  5  1  0
  7  8  1  0
  9  8  1  0
 10 11  1  0
 10  9  1  0
 11 12  1  1
 11  7  1  0
 12 20  1  0
 13 12  2  0
 15 17  1  0
 15 14  1  0
 16 15  2  0
 18 17  1  0
 19 21  1  0
 19 18  1  6
 20 19  1  0
 21 22  2  0
 21 23  1  0
M  END
$$$$
