SPQ.pdb
     RDKit          3D

 23 23  0  0  1  0  0  0  0  0999 V2000
   10.0852  -19.2102   18.9053 O   0  0  0  0  0  0  0  0  0  0  0  0
   10.1005  -18.2701   19.9346 C   0  0  0  0  0  0  0  0  0  0  0  0
   10.0191  -16.8394   19.3660 C   0  0  2  0  0  0  0  0  0  0  0  0
   11.2683  -16.6569   18.6230 N   0  0  0  0  0  0  0  0  0  0  0  0
    9.9511  -15.9378   20.5227 C   0  0  0  0  0  0  0  0  0  0  0  0
   11.0599  -15.6557   21.1003 O   0  0  0  0  0  0  0  0  0  0  0  0
    8.7297  -15.3995   20.9856 N   0  0  0  0  0  0  0  0  0  0  0  0
    7.4338  -15.5235   20.2964 C   0  0  0  0  0  0  0  0  0  0  0  0
    6.4772  -15.4668   21.4627 C   0  0  0  0  0  0  0  0  0  0  0  0
    7.0542  -14.2338   22.1775 C   0  0  0  0  0  0  0  0  0  0  0  0
    8.5278  -14.6712   22.2089 C   0  0  1  0  0  0  0  0  0  0  0  0
    8.6358  -15.5798   23.3931 C   0  0  0  0  0  0  0  0  0  0  0  0
    8.5128  -16.8200   23.3021 O   0  0  0  0  0  0  0  0  0  0  0  0
   10.7180  -15.3358   30.5919 N   0  0  0  0  0  0  0  0  0  0  0  0
   10.2909  -14.8158   29.3423 C   0  0  0  0  0  0  0  0  0  0  0  0
   10.0825  -13.5743   29.2525 O   0  0  0  0  0  0  0  0  0  0  0  0
   10.0977  -15.7297   28.1719 C   0  0  0  0  0  0  0  0  0  0  0  0
    9.6157  -14.8915   26.9870 C   0  0  0  0  0  0  0  0  0  0  0  0
    9.3396  -15.7749   25.7984 C   0  0  2  0  0  0  0  0  0  0  0  0
    8.8899  -14.9835   24.6679 N   0  0  0  0  0  0  0  0  0  0  0  0
    8.2996  -16.7950   26.1106 C   0  0  0  0  0  0  0  0  0  0  0  0
    7.0819  -16.5781   25.9090 O   0  0  0  0  0  0  0  0  0  0  0  0
    8.6588  -18.0337   26.6420 O   0  0  0  0  0  0  0  0  0  0  0  0
  2  1  1  0
  3  2  1  0
  3  4  1  1
  5  3  1  0
  6  5  2  0
  7  5  1  0
  7  8  1  0
  9  8  1  0
 10 11  1  0
 10  9  1  0
 11 12  1  1
 11  7  1  0
 12 20  1  0
 13 12  2  0
 15 17  1  0
 15 14  1  0
 16 15  2  0
 18 17  1  0
 19 21  1  0
 19 18  1  1
 20 19  1  0
 21 22  2  0
 21 23  1  0
M  END
$$$$
