SPQ.pdb
     RDKit          3D

 23 23  0  0  1  0  0  0  0  0999 V2000
   12.1837  -16.5040   19.7686 O   0  0  0  0  0  0  0  0  0  0  0  0
   11.5276  -15.9460   18.6725 C   0  0  0  0  0  0  0  0  0  0  0  0
   11.6450  -14.4089   18.6927 C   0  0  2  0  0  0  0  0  0  0  0  0
   13.0831  -14.1393   18.6200 N   0  0  0  0  0  0  0  0  0  0  0  0
   11.0849  -13.9680   19.9761 C   0  0  0  0  0  0  0  0  0  0  0  0
   11.8970  -13.8935   20.9649 O   0  0  0  0  0  0  0  0  0  0  0  0
    9.7197  -13.6375   20.1268 N   0  0  0  0  0  0  0  0  0  0  0  0
    8.7309  -13.6028   19.0357 C   0  0  0  0  0  0  0  0  0  0  0  0
    7.4608  -13.9292   19.7832 C   0  0  0  0  0  0  0  0  0  0  0  0
    7.6166  -12.9402   20.9502 C   0  0  0  0  0  0  0  0  0  0  0  0
    9.0522  -13.3102   21.3577 C   0  0  1  0  0  0  0  0  0  0  0  0
    8.9077  -14.5225   22.2232 C   0  0  0  0  0  0  0  0  0  0  0  0
    8.9790  -15.6846   21.7694 O   0  0  0  0  0  0  0  0  0  0  0  0
   10.3664  -15.4313   29.4798 N   0  0  0  0  0  0  0  0  0  0  0  0
   10.0376  -14.7269   28.2923 C   0  0  0  0  0  0  0  0  0  0  0  0
    9.7696  -13.4970   28.3829 O   0  0  0  0  0  0  0  0  0  0  0  0
   10.0140  -15.4393   26.9754 C   0  0  0  0  0  0  0  0  0  0  0  0
    9.3900  -14.5041   25.9386 C   0  0  0  0  0  0  0  0  0  0  0  0
    9.2401  -15.2122   24.6175 C   0  0  2  0  0  0  0  0  0  0  0  0
    8.6797  -14.3188   23.6203 N   0  0  0  0  0  0  0  0  0  0  0  0
    8.3569  -16.4059   24.7389 C   0  0  0  0  0  0  0  0  0  0  0  0
    7.1420  -16.3607   24.4347 O   0  0  0  0  0  0  0  0  0  0  0  0
    8.8656  -17.6200   25.2002 O   0  0  0  0  0  0  0  0  0  0  0  0
  2  1  1  0
  3  2  1  0
  3  4  1  1
  5  3  1  0
  6  5  2  0
  7  5  1  0
  7  8  1  0
  9  8  1  0
 10 11  1  0
 10  9  1  0
 11 12  1  1
 11  7  1  0
 12 20  1  0
 13 12  2  0
 15 17  1  0
 15 14  1  0
 16 15  2  0
 18 17  1  0
 19 21  1  0
 19 18  1  1
 20 19  1  0
 21 22  2  0
 21 23  1  0
M  END
$$$$
