SPQ.pdb
     RDKit          3D

 23 23  0  0  1  0  0  0  0  0999 V2000
    8.7651  -16.8857   15.7217 O   0  0  0  0  0  0  0  0  0  0  0  0
    7.6359  -16.0764   15.8363 C   0  0  0  0  0  0  0  0  0  0  0  0
    7.9982  -14.5984   15.5887 C   0  0  2  0  0  0  0  0  0  0  0  0
    8.5119  -14.5605   14.2173 N   0  0  0  0  0  0  0  0  0  0  0  0
    9.0466  -14.2613   16.5594 C   0  0  0  0  0  0  0  0  0  0  0  0
   10.2590  -14.4435   16.1859 O   0  0  0  0  0  0  0  0  0  0  0  0
    8.7471  -13.7582   17.8451 N   0  0  0  0  0  0  0  0  0  0  0  0
    7.3901  -13.5504   18.3788 C   0  0  0  0  0  0  0  0  0  0  0  0
    7.6277  -13.7336   19.8581 C   0  0  0  0  0  0  0  0  0  0  0  0
    8.8547  -12.8197   20.0119 C   0  0  0  0  0  0  0  0  0  0  0  0
    9.6974  -13.3928   18.8607 C   0  0  1  0  0  0  0  0  0  0  0  0
   10.3580  -14.6075   19.4331 C   0  0  0  0  0  0  0  0  0  0  0  0
    9.8369  -15.7422   19.3835 O   0  0  0  0  0  0  0  0  0  0  0  0
   14.8892  -16.4359   16.9771 N   0  0  0  0  0  0  0  0  0  0  0  0
   14.9793  -15.1161   17.4914 C   0  0  0  0  0  0  0  0  0  0  0  0
   15.7653  -14.3074   16.9248 O   0  0  0  0  0  0  0  0  0  0  0  0
   14.1569  -14.7106   18.6752 C   0  0  0  0  0  0  0  0  0  0  0  0
   13.3196  -15.9145   19.1090 C   0  0  0  0  0  0  0  0  0  0  0  0
   12.5007  -15.5719   20.3261 C   0  0  2  0  0  0  0  0  0  0  0  0
   11.6343  -14.4392   20.0560 N   0  0  0  0  0  0  0  0  0  0  0  0
   13.3706  -15.2405   21.4894 C   0  0  0  0  0  0  0  0  0  0  0  0
   14.1714  -16.0747   21.9725 O   0  0  0  0  0  0  0  0  0  0  0  0
   13.3155  -13.9773   22.0785 O   0  0  0  0  0  0  0  0  0  0  0  0
  2  1  1  0
  3  2  1  0
  3  4  1  6
  5  3  1  0
  6  5  2  0
  7  5  1  0
  7  8  1  0
  9  8  1  0
 10 11  1  0
 10  9  1  0
 11 12  1  1
 11  7  1  0
 12 20  1  0
 13 12  2  0
 15 17  1  0
 15 14  1  0
 16 15  2  0
 18 17  1  0
 19 21  1  0
 19 18  1  6
 20 19  1  0
 21 22  2  0
 21 23  1  0
M  END
$$$$
