SPQ.pdb
     RDKit          3D

 23 23  0  0  1  0  0  0  0  0999 V2000
    7.9621  -17.0379   17.4889 O   0  0  0  0  0  0  0  0  0  0  0  0
    8.5689  -16.6913   16.2827 C   0  0  0  0  0  0  0  0  0  0  0  0
    9.1551  -15.2673   16.3580 C   0  0  2  0  0  0  0  0  0  0  0  0
   10.3041  -15.2837   15.4493 N   0  0  0  0  0  0  0  0  0  0  0  0
    9.5794  -15.0676   17.7492 C   0  0  0  0  0  0  0  0  0  0  0  0
   10.6056  -15.7287   18.1400 O   0  0  0  0  0  0  0  0  0  0  0  0
    8.8994  -14.1914   18.6242 N   0  0  0  0  0  0  0  0  0  0  0  0
    7.6702  -13.4498   18.2945 C   0  0  0  0  0  0  0  0  0  0  0  0
    7.0341  -13.3200   19.6571 C   0  0  0  0  0  0  0  0  0  0  0  0
    8.2595  -12.8195   20.4396 C   0  0  0  0  0  0  0  0  0  0  0  0
    9.2611  -13.8932   19.9837 C   0  0  1  0  0  0  0  0  0  0  0  0
    9.0000  -15.0677   20.8736 C   0  0  0  0  0  0  0  0  0  0  0  0
    7.9913  -15.7947   20.7483 O   0  0  0  0  0  0  0  0  0  0  0  0
   12.7733  -19.3458   21.8837 N   0  0  0  0  0  0  0  0  0  0  0  0
   13.2292  -18.0418   22.2093 C   0  0  0  0  0  0  0  0  0  0  0  0
   14.4714  -17.8200   22.1823 O   0  0  0  0  0  0  0  0  0  0  0  0
   12.2493  -16.9695   22.5730 C   0  0  0  0  0  0  0  0  0  0  0  0
   10.8396  -17.5485   22.4449 C   0  0  0  0  0  0  0  0  0  0  0  0
    9.8104  -16.4991   22.7744 C   0  0  2  0  0  0  0  0  0  0  0  0
    9.9552  -15.3499   21.8998 N   0  0  0  0  0  0  0  0  0  0  0  0
    9.9345  -16.0423   24.1871 C   0  0  0  0  0  0  0  0  0  0  0  0
   10.1662  -14.8447   24.4747 O   0  0  0  0  0  0  0  0  0  0  0  0
    9.7943  -16.9470   25.2395 O   0  0  0  0  0  0  0  0  0  0  0  0
  2  1  1  0
  3  2  1  0
  3  4  1  6
  5  3  1  0
  6  5  2  0
  7  5  1  0
  7  8  1  0
  9  8  1  0
 10 11  1  0
 10  9  1  0
 11 12  1  1
 11  7  1  0
 12 20  1  0
 13 12  2  0
 15 17  1  0
 15 14  1  0
 16 15  2  0
 18 17  1  0
 19 21  1  0
 19 18  1  6
 20 19  1  0
 21 22  2  0
 21 23  1  0
M  END
$$$$
