SPQ.pdb
     RDKit          3D

 23 23  0  0  1  0  0  0  0  0999 V2000
    6.7939  -17.6408   16.1573 O   0  0  0  0  0  0  0  0  0  0  0  0
    7.5819  -17.2322   17.2321 C   0  0  0  0  0  0  0  0  0  0  0  0
    8.4888  -16.0538   16.8249 C   0  0  2  0  0  0  0  0  0  0  0  0
    9.4378  -16.6223   15.8645 N   0  0  0  0  0  0  0  0  0  0  0  0
    9.1695  -15.6134   18.0488 C   0  0  0  0  0  0  0  0  0  0  0  0
   10.2253  -16.2573   18.3854 O   0  0  0  0  0  0  0  0  0  0  0  0
    8.6950  -14.5332   18.8258 N   0  0  0  0  0  0  0  0  0  0  0  0
    7.4879  -13.7426   18.5302 C   0  0  0  0  0  0  0  0  0  0  0  0
    7.0752  -13.3116   19.9167 C   0  0  0  0  0  0  0  0  0  0  0  0
    8.4377  -12.8057   20.4185 C   0  0  0  0  0  0  0  0  0  0  0  0
    9.2780  -14.0374   20.0433 C   0  0  1  0  0  0  0  0  0  0  0  0
    9.0683  -15.0045   21.1660 C   0  0  0  0  0  0  0  0  0  0  0  0
    7.9755  -15.5770   21.3646 O   0  0  0  0  0  0  0  0  0  0  0  0
   13.2896  -18.8660   22.2716 N   0  0  0  0  0  0  0  0  0  0  0  0
   12.1277  -19.0360   21.4745 C   0  0  0  0  0  0  0  0  0  0  0  0
   12.1612  -19.8893   20.5453 O   0  0  0  0  0  0  0  0  0  0  0  0
   10.9032  -18.2167   21.7424 C   0  0  0  0  0  0  0  0  0  0  0  0
   11.1999  -17.2869   22.9199 C   0  0  0  0  0  0  0  0  0  0  0  0
   10.0975  -16.2724   23.0770 C   0  0  2  0  0  0  0  0  0  0  0  0
   10.1754  -15.2681   22.0321 N   0  0  0  0  0  0  0  0  0  0  0  0
   10.1715  -15.5913   24.4000 C   0  0  0  0  0  0  0  0  0  0  0  0
   10.4629  -14.3766   24.5007 O   0  0  0  0  0  0  0  0  0  0  0  0
    9.9153  -16.2968   25.5757 O   0  0  0  0  0  0  0  0  0  0  0  0
  2  1  1  0
  3  2  1  0
  3  4  1  6
  5  3  1  0
  6  5  2  0
  7  5  1  0
  7  8  1  0
  9  8  1  0
 10 11  1  0
 10  9  1  0
 11 12  1  1
 11  7  1  0
 12 20  1  0
 13 12  2  0
 15 17  1  0
 15 14  1  0
 16 15  2  0
 18 17  1  0
 19 21  1  0
 19 18  1  6
 20 19  1  0
 21 22  2  0
 21 23  1  0
M  END
$$$$
