SPQ.pdb
     RDKit          3D

 23 23  0  0  1  0  0  0  0  0999 V2000
    6.2748  -18.2859   22.8160 O   0  0  0  0  0  0  0  0  0  0  0  0
    5.5678  -17.3220   22.0989 C   0  0  0  0  0  0  0  0  0  0  0  0
    6.1671  -17.1439   20.6896 C   0  0  2  0  0  0  0  0  0  0  0  0
    6.3572  -18.5062   20.1856 N   0  0  0  0  0  0  0  0  0  0  0  0
    7.4528  -16.4588   20.8703 C   0  0  0  0  0  0  0  0  0  0  0  0
    8.4702  -17.1975   21.1192 O   0  0  0  0  0  0  0  0  0  0  0  0
    7.5764  -15.0547   20.7756 N   0  0  0  0  0  0  0  0  0  0  0  0
    6.4504  -14.1066   20.7225 C   0  0  0  0  0  0  0  0  0  0  0  0
    7.0721  -12.8809   21.3467 C   0  0  0  0  0  0  0  0  0  0  0  0
    8.3785  -12.8441   20.5366 C   0  0  0  0  0  0  0  0  0  0  0  0
    8.8042  -14.3067   20.7451 C   0  0  1  0  0  0  0  0  0  0  0  0
    9.4730  -14.3271   22.0838 C   0  0  0  0  0  0  0  0  0  0  0  0
   10.2768  -13.4420   22.4471 O   0  0  0  0  0  0  0  0  0  0  0  0
    5.9892  -12.5545   25.7988 N   0  0  0  0  0  0  0  0  0  0  0  0
    7.0826  -13.3612   26.2086 C   0  0  0  0  0  0  0  0  0  0  0  0
    7.6196  -13.1164   27.3242 O   0  0  0  0  0  0  0  0  0  0  0  0
    7.5734  -14.4691   25.3288 C   0  0  0  0  0  0  0  0  0  0  0  0
    9.0755  -14.2777   25.1142 C   0  0  0  0  0  0  0  0  0  0  0  0
    9.6447  -15.4340   24.3342 C   0  0  2  0  0  0  0  0  0  0  0  0
    9.1650  -15.4110   22.9645 N   0  0  0  0  0  0  0  0  0  0  0  0
    9.2715  -16.7390   24.9487 C   0  0  0  0  0  0  0  0  0  0  0  0
    9.6826  -17.0745   26.0840 O   0  0  0  0  0  0  0  0  0  0  0  0
    8.4444  -17.6323   24.2678 O   0  0  0  0  0  0  0  0  0  0  0  0
  2  1  1  0
  3  2  1  0
  3  4  1  1
  5  3  1  0
  6  5  2  0
  7  5  1  0
  7  8  1  0
  9  8  1  0
 10 11  1  0
 10  9  1  0
 11 12  1  1
 11  7  1  0
 12 20  1  0
 13 12  2  0
 15 17  1  0
 15 14  1  0
 16 15  2  0
 18 17  1  0
 19 21  1  0
 19 18  1  1
 20 19  1  0
 21 22  2  0
 21 23  1  0
M  END
$$$$
