SPQ.pdb
     RDKit          3D

 23 23  0  0  1  0  0  0  0  0999 V2000
    6.8788  -18.5047   24.6378 O   0  0  0  0  0  0  0  0  0  0  0  0
    5.9281  -17.8347   23.8694 C   0  0  0  0  0  0  0  0  0  0  0  0
    6.2199  -18.0127   22.3660 C   0  0  2  0  0  0  0  0  0  0  0  0
    6.3962  -19.4556   22.1841 N   0  0  0  0  0  0  0  0  0  0  0  0
    7.4669  -17.2860   22.0978 C   0  0  0  0  0  0  0  0  0  0  0  0
    8.5587  -17.9434   22.2341 O   0  0  0  0  0  0  0  0  0  0  0  0
    7.4768  -15.9286   21.7063 N   0  0  0  0  0  0  0  0  0  0  0  0
    6.2779  -15.1065   21.4689 C   0  0  0  0  0  0  0  0  0  0  0  0
    6.7959  -13.7306   21.8110 C   0  0  0  0  0  0  0  0  0  0  0  0
    8.0980  -13.7621   20.9940 C   0  0  0  0  0  0  0  0  0  0  0  0
    8.6400  -15.1084   21.5016 C   0  0  1  0  0  0  0  0  0  0  0  0
    9.3032  -14.7909   22.8051 C   0  0  0  0  0  0  0  0  0  0  0  0
    9.1474  -13.6975   23.3897 O   0  0  0  0  0  0  0  0  0  0  0  0
   10.3291  -13.5622   29.1067 N   0  0  0  0  0  0  0  0  0  0  0  0
    9.7484  -14.1224   27.9391 C   0  0  0  0  0  0  0  0  0  0  0  0
    8.5524  -13.8258   27.6663 O   0  0  0  0  0  0  0  0  0  0  0  0
   10.5475  -15.0391   27.0652 C   0  0  0  0  0  0  0  0  0  0  0  0
    9.8509  -15.1301   25.7068 C   0  0  0  0  0  0  0  0  0  0  0  0
   10.8261  -15.5709   24.6466 C   0  0  2  0  0  0  0  0  0  0  0  0
   10.1430  -15.7926   23.3853 N   0  0  0  0  0  0  0  0  0  0  0  0
   11.5227  -16.8280   25.0393 C   0  0  0  0  0  0  0  0  0  0  0  0
   12.2910  -16.8746   26.0283 O   0  0  0  0  0  0  0  0  0  0  0  0
   11.3355  -18.0005   24.3073 O   0  0  0  0  0  0  0  0  0  0  0  0
  2  1  1  0
  3  2  1  0
  3  4  1  1
  5  3  1  0
  6  5  2  0
  7  5  1  0
  7  8  1  0
  9  8  1  0
 10 11  1  0
 10  9  1  0
 11 12  1  1
 11  7  1  0
 12 20  1  0
 13 12  2  0
 15 17  1  0
 15 14  1  0
 16 15  2  0
 18 17  1  0
 19 21  1  0
 19 18  1  1
 20 19  1  0
 21 22  2  0
 21 23  1  0
M  END
$$$$
