PDA.pdb
     RDKit          3D

 21 21  0  0  1  0  0  0  0  0999 V2000
    8.2160  -14.5432   17.9298 N   0  0  0  0  0  0  0  0  0  0  0  0
    7.0396  -13.7297   18.0305 C   0  0  0  0  0  0  0  0  0  0  0  0
    7.1010  -13.0780   19.4021 C   0  0  0  0  0  0  0  0  0  0  0  0
    8.6161  -12.8478   19.4957 C   0  0  0  0  0  0  0  0  0  0  0  0
    9.1117  -14.1912   18.9909 C   0  0  1  0  0  0  0  0  0  0  0  0
    9.1016  -15.2114   20.0842 C   0  0  0  0  0  0  0  0  0  0  0  0
    8.0404  -15.5261   20.6870 O   0  0  0  0  0  0  0  0  0  0  0  0
   10.2908  -15.8732   20.4922 N   0  0  0  0  0  0  0  0  0  0  0  0
   10.2515  -16.8630   21.6027 C   0  0  1  0  0  0  0  0  0  0  0  0
   11.3955  -17.8070   21.4675 C   0  0  0  0  0  0  0  0  0  0  0  0
   11.1831  -19.0366   22.2293 C   0  0  0  0  0  0  0  0  0  0  0  0
   11.5408  -20.1958   21.9592 O   0  0  0  0  0  0  0  0  0  0  0  0
   10.2457  -16.1021   22.8865 C   0  0  0  0  0  0  0  0  0  0  0  0
   11.1644  -15.3384   23.2310 O   0  0  0  0  0  0  0  0  0  0  0  0
   10.4734  -18.9059   23.4466 O   0  0  0  0  0  0  0  0  0  0  0  0
    7.7776  -14.8548   25.2758 C   0  0  0  0  0  0  0  0  0  0  0  0
    9.1499  -15.4429   25.0144 C   0  0  2  0  0  0  0  0  0  0  0  0
    9.1526  -16.2223   23.7999 N   0  0  0  0  0  0  0  0  0  0  0  0
    9.5351  -16.2607   26.1957 C   0  0  0  0  0  0  0  0  0  0  0  0
    9.6907  -17.5150   26.1457 O   0  0  0  0  0  0  0  0  0  0  0  0
    9.7409  -15.6573   27.4200 O   0  0  0  0  0  0  0  0  0  0  0  0
  1  2  1  0
  3  2  1  0
  4  5  1  0
  4  3  1  0
  5  1  1  0
  6  8  1  0
  5  6  1  1
  7  6  2  0
  9 13  1  0
  9  8  1  0
  9 10  1  1
 11 12  2  0
 11 10  1  0
 13 18  1  0
 14 13  2  0
 15 11  1  0
 17 16  1  1
 18 17  1  0
 19 17  1  0
 19 21  1  0
 20 19  2  0
M  END
$$$$
