PDA.pdb
     RDKit          3D

 21 21  0  0  1  0  0  0  0  0999 V2000
    8.9343  -14.4854   19.3520 N   0  0  0  0  0  0  0  0  0  0  0  0
    7.9764  -14.1951   18.3253 C   0  0  0  0  0  0  0  0  0  0  0  0
    6.9235  -13.3134   18.9762 C   0  0  0  0  0  0  0  0  0  0  0  0
    7.8309  -12.4949   19.9057 C   0  0  0  0  0  0  0  0  0  0  0  0
    8.7018  -13.6080   20.4602 C   0  0  1  0  0  0  0  0  0  0  0  0
    8.0180  -14.3118   21.5887 C   0  0  0  0  0  0  0  0  0  0  0  0
    7.5520  -13.6828   22.5766 O   0  0  0  0  0  0  0  0  0  0  0  0
    7.8624  -15.7240   21.5966 N   0  0  0  0  0  0  0  0  0  0  0  0
    7.0616  -16.3813   22.6649 C   0  0  1  0  0  0  0  0  0  0  0  0
    6.2961  -17.5187   22.0833 C   0  0  0  0  0  0  0  0  0  0  0  0
    5.4656  -18.1875   23.0834 C   0  0  0  0  0  0  0  0  0  0  0  0
    4.9017  -17.7059   24.0807 O   0  0  0  0  0  0  0  0  0  0  0  0
    8.0014  -16.7804   23.7534 C   0  0  0  0  0  0  0  0  0  0  0  0
    7.6416  -17.3895   24.7759 O   0  0  0  0  0  0  0  0  0  0  0  0
    5.2658  -19.5771   22.9055 O   0  0  0  0  0  0  0  0  0  0  0  0
   10.3463  -18.4689   24.6833 C   0  0  0  0  0  0  0  0  0  0  0  0
   10.2982  -16.9539   24.6793 C   0  0  2  0  0  0  0  0  0  0  0  0
    9.3941  -16.4707   23.6638 N   0  0  0  0  0  0  0  0  0  0  0  0
   11.6817  -16.4479   24.4724 C   0  0  0  0  0  0  0  0  0  0  0  0
   12.6497  -16.7579   25.2252 O   0  0  0  0  0  0  0  0  0  0  0  0
   11.9599  -15.5989   23.4202 O   0  0  0  0  0  0  0  0  0  0  0  0
  1  2  1  0
  3  2  1  0
  4  5  1  0
  4  3  1  0
  5  1  1  0
  6  8  1  0
  5  6  1  1
  7  6  2  0
  9 13  1  0
  9  8  1  0
  9 10  1  6
 11 12  2  0
 11 10  1  0
 13 18  1  0
 14 13  2  0
 15 11  1  0
 17 16  1  6
 18 17  1  0
 19 17  1  0
 19 21  1  0
 20 19  2  0
M  END
$$$$
