PDA.pdb
     RDKit          3D

 21 21  0  0  1  0  0  0  0  0999 V2000
    8.2419  -14.7188   19.4771 N   0  0  0  0  0  0  0  0  0  0  0  0
    7.1219  -13.8537   19.2472 C   0  0  0  0  0  0  0  0  0  0  0  0
    7.0944  -12.8883   20.4206 C   0  0  0  0  0  0  0  0  0  0  0  0
    8.6055  -12.7103   20.6261 C   0  0  0  0  0  0  0  0  0  0  0  0
    9.0518  -14.1573   20.5169 C   0  0  1  0  0  0  0  0  0  0  0  0
    8.8623  -14.8760   21.8144 C   0  0  0  0  0  0  0  0  0  0  0  0
    7.7217  -15.0220   22.3306 O   0  0  0  0  0  0  0  0  0  0  0  0
    9.9623  -15.4284   22.5241 N   0  0  0  0  0  0  0  0  0  0  0  0
    9.7306  -16.2216   23.7616 C   0  0  1  0  0  0  0  0  0  0  0  0
   10.4011  -17.5454   23.6360 C   0  0  0  0  0  0  0  0  0  0  0  0
   10.3487  -18.3058   24.8837 C   0  0  0  0  0  0  0  0  0  0  0  0
   11.2562  -18.9329   25.4563 O   0  0  0  0  0  0  0  0  0  0  0  0
   10.2124  -15.4084   24.9166 C   0  0  0  0  0  0  0  0  0  0  0  0
   11.3419  -14.8907   24.9624 O   0  0  0  0  0  0  0  0  0  0  0  0
    9.0977  -18.3425   25.5440 O   0  0  0  0  0  0  0  0  0  0  0  0
    8.8778  -13.4484   27.6889 C   0  0  0  0  0  0  0  0  0  0  0  0
    9.8880  -14.4616   27.1884 C   0  0  2  0  0  0  0  0  0  0  0  0
    9.3717  -15.1839   26.0508 N   0  0  0  0  0  0  0  0  0  0  0  0
   10.2249  -15.3734   28.3144 C   0  0  0  0  0  0  0  0  0  0  0  0
    9.9504  -16.6081   28.3085 O   0  0  0  0  0  0  0  0  0  0  0  0
   10.8674  -14.8851   29.4343 O   0  0  0  0  0  0  0  0  0  0  0  0
  1  2  1  0
  3  2  1  0
  4  5  1  0
  4  3  1  0
  5  1  1  0
  6  8  1  0
  5  6  1  1
  7  6  2  0
  9 13  1  0
  9  8  1  0
  9 10  1  6
 11 12  2  0
 11 10  1  0
 13 18  1  0
 14 13  2  0
 15 11  1  0
 17 16  1  1
 18 17  1  0
 19 17  1  0
 19 21  1  0
 20 19  2  0
M  END
$$$$
