PDA.pdb
     RDKit          3D

 21 21  0  0  1  0  0  0  0  0999 V2000
    9.5452  -13.6627   18.9004 N   0  0  0  0  0  0  0  0  0  0  0  0
    8.9933  -13.8091   17.5852 C   0  0  0  0  0  0  0  0  0  0  0  0
    7.5159  -14.1041   17.7847 C   0  0  0  0  0  0  0  0  0  0  0  0
    7.2499  -13.2074   19.0022 C   0  0  0  0  0  0  0  0  0  0  0  0
    8.4707  -13.5430   19.8401 C   0  0  1  0  0  0  0  0  0  0  0  0
    8.2627  -14.8101   20.6066 C   0  0  0  0  0  0  0  0  0  0  0  0
    7.1415  -15.1110   21.0977 O   0  0  0  0  0  0  0  0  0  0  0  0
    9.3222  -15.7335   20.8148 N   0  0  0  0  0  0  0  0  0  0  0  0
    9.0667  -17.0161   21.5248 C   0  0  1  0  0  0  0  0  0  0  0  0
    9.9538  -18.0761   20.9705 C   0  0  0  0  0  0  0  0  0  0  0  0
   11.3673  -17.7200   21.0816 C   0  0  0  0  0  0  0  0  0  0  0  0
   12.1082  -17.1863   20.2384 O   0  0  0  0  0  0  0  0  0  0  0  0
    9.2588  -16.7709   22.9844 C   0  0  0  0  0  0  0  0  0  0  0  0
    9.0588  -17.6370   23.8537 O   0  0  0  0  0  0  0  0  0  0  0  0
   11.9942  -18.0172   22.3150 O   0  0  0  0  0  0  0  0  0  0  0  0
    8.4113  -14.8178   25.4168 C   0  0  0  0  0  0  0  0  0  0  0  0
    9.7617  -15.2459   24.8777 C   0  0  2  0  0  0  0  0  0  0  0  0
    9.6934  -15.4939   23.4577 N   0  0  0  0  0  0  0  0  0  0  0  0
   10.1974  -16.4538   25.6285 C   0  0  0  0  0  0  0  0  0  0  0  0
    9.4025  -17.1735   26.2994 O   0  0  0  0  0  0  0  0  0  0  0  0
   11.5231  -16.8381   25.6155 O   0  0  0  0  0  0  0  0  0  0  0  0
  1  2  1  0
  3  2  1  0
  4  5  1  0
  4  3  1  0
  5  1  1  0
  6  8  1  0
  5  6  1  6
  7  6  2  0
  9 13  1  0
  9  8  1  0
  9 10  1  6
 11 12  2  0
 11 10  1  0
 13 18  1  0
 14 13  2  0
 15 11  1  0
 17 16  1  1
 18 17  1  0
 19 17  1  0
 19 21  1  0
 20 19  2  0
M  END
$$$$
