PDA.pdb
     RDKit          3D

 21 21  0  0  1  0  0  0  0  0999 V2000
    7.5971  -14.7305   19.5237 N   0  0  0  0  0  0  0  0  0  0  0  0
    6.6600  -13.6453   19.5316 C   0  0  0  0  0  0  0  0  0  0  0  0
    7.2735  -12.5724   20.4159 C   0  0  0  0  0  0  0  0  0  0  0  0
    8.7495  -12.7564   20.0350 C   0  0  0  0  0  0  0  0  0  0  0  0
    8.8378  -14.2715   20.0734 C   0  0  1  0  0  0  0  0  0  0  0  0
    9.0377  -14.7614   21.4721 C   0  0  0  0  0  0  0  0  0  0  0  0
   10.0481  -14.4338   22.1508 O   0  0  0  0  0  0  0  0  0  0  0  0
    8.0948  -15.6191   22.0996 N   0  0  0  0  0  0  0  0  0  0  0  0
    8.2953  -16.0442   23.5115 C   0  0  1  0  0  0  0  0  0  0  0  0
    9.5009  -16.9139   23.6020 C   0  0  0  0  0  0  0  0  0  0  0  0
    9.7619  -17.3461   24.9741 C   0  0  0  0  0  0  0  0  0  0  0  0
    8.9514  -17.6409   25.8690 O   0  0  0  0  0  0  0  0  0  0  0  0
    8.3770  -14.8107   24.3477 C   0  0  0  0  0  0  0  0  0  0  0  0
    9.3994  -14.1079   24.4285 O   0  0  0  0  0  0  0  0  0  0  0  0
   11.1218  -17.4485   25.3516 O   0  0  0  0  0  0  0  0  0  0  0  0
    6.0560  -12.4469   26.0072 C   0  0  0  0  0  0  0  0  0  0  0  0
    7.3691  -13.2017   25.9471 C   0  0  2  0  0  0  0  0  0  0  0  0
    7.2514  -14.3729   25.1124 N   0  0  0  0  0  0  0  0  0  0  0  0
    7.7648  -13.5524   27.3374 C   0  0  0  0  0  0  0  0  0  0  0  0
    7.9844  -12.6856   28.2320 O   0  0  0  0  0  0  0  0  0  0  0  0
    7.9086  -14.8750   27.7052 O   0  0  0  0  0  0  0  0  0  0  0  0
  1  2  1  0
  3  2  1  0
  4  5  1  0
  4  3  1  0
  5  1  1  0
  6  8  1  0
  5  6  1  1
  7  6  2  0
  9 13  1  0
  9  8  1  0
  9 10  1  6
 11 12  2  0
 11 10  1  0
 13 18  1  0
 14 13  2  0
 15 11  1  0
 17 16  1  1
 18 17  1  0
 19 17  1  0
 19 21  1  0
 20 19  2  0
M  END
$$$$
