PDA.pdb
     RDKit          3D

 21 21  0  0  1  0  0  0  0  0999 V2000
    8.9327  -13.1428   18.2280 N   0  0  0  0  0  0  0  0  0  0  0  0
    8.2907  -13.4401   16.9809 C   0  0  0  0  0  0  0  0  0  0  0  0
    7.2412  -14.4937   17.2943 C   0  0  0  0  0  0  0  0  0  0  0  0
    6.7961  -13.9919   18.6754 C   0  0  0  0  0  0  0  0  0  0  0  0
    8.1523  -13.7002   19.2922 C   0  0  1  0  0  0  0  0  0  0  0  0
    8.7722  -14.9469   19.8379 C   0  0  0  0  0  0  0  0  0  0  0  0
    8.1299  -15.7348   20.5832 O   0  0  0  0  0  0  0  0  0  0  0  0
   10.1156  -15.2996   19.5390 N   0  0  0  0  0  0  0  0  0  0  0  0
   10.7221  -16.5147   20.1474 C   0  0  1  0  0  0  0  0  0  0  0  0
   11.8688  -16.9688   19.3126 C   0  0  0  0  0  0  0  0  0  0  0  0
   12.4495  -18.2142   19.8118 C   0  0  0  0  0  0  0  0  0  0  0  0
   13.4416  -18.3770   20.5424 O   0  0  0  0  0  0  0  0  0  0  0  0
   11.0948  -16.1785   21.5529 C   0  0  0  0  0  0  0  0  0  0  0  0
   11.9969  -15.3746   21.8457 O   0  0  0  0  0  0  0  0  0  0  0  0
   11.8036  -19.4099   19.4176 O   0  0  0  0  0  0  0  0  0  0  0  0
    9.5264  -16.1483   24.8330 C   0  0  0  0  0  0  0  0  0  0  0  0
   10.7657  -16.4153   24.0021 C   0  0  2  0  0  0  0  0  0  0  0  0
   10.4108  -16.7836   22.6527 N   0  0  0  0  0  0  0  0  0  0  0  0
   11.5532  -17.4821   24.6762 C   0  0  0  0  0  0  0  0  0  0  0  0
   11.7719  -18.6131   24.1538 O   0  0  0  0  0  0  0  0  0  0  0  0
   12.0859  -17.2637   25.9307 O   0  0  0  0  0  0  0  0  0  0  0  0
  1  2  1  0
  3  2  1  0
  4  5  1  0
  4  3  1  0
  5  1  1  0
  6  8  1  0
  5  6  1  6
  7  6  2  0
  9 13  1  0
  9  8  1  0
  9 10  1  6
 11 12  2  0
 11 10  1  0
 13 18  1  0
 14 13  2  0
 15 11  1  0
 17 16  1  1
 18 17  1  0
 19 17  1  0
 19 21  1  0
 20 19  2  0
M  END
$$$$
