PDA.pdb
     RDKit          3D

 21 21  0  0  1  0  0  0  0  0999 V2000
    8.1774  -14.8905   19.0284 N   0  0  0  0  0  0  0  0  0  0  0  0
    7.2502  -13.9500   18.4701 C   0  0  0  0  0  0  0  0  0  0  0  0
    7.1848  -12.7953   19.4560 C   0  0  0  0  0  0  0  0  0  0  0  0
    8.6545  -12.7693   19.8996 C   0  0  0  0  0  0  0  0  0  0  0  0
    8.8896  -14.2561   20.0972 C   0  0  1  0  0  0  0  0  0  0  0  0
    8.3934  -14.7040   21.4348 C   0  0  0  0  0  0  0  0  0  0  0  0
    7.1890  -14.5592   21.7773 O   0  0  0  0  0  0  0  0  0  0  0  0
    9.2595  -15.3151   22.3809 N   0  0  0  0  0  0  0  0  0  0  0  0
    8.7218  -15.8040   23.6794 C   0  0  1  0  0  0  0  0  0  0  0  0
    9.5720  -16.9191   24.1810 C   0  0  0  0  0  0  0  0  0  0  0  0
    9.5534  -18.0697   23.2792 C   0  0  0  0  0  0  0  0  0  0  0  0
    8.5824  -18.7341   22.8789 O   0  0  0  0  0  0  0  0  0  0  0  0
    8.6487  -14.6368   24.6066 C   0  0  0  0  0  0  0  0  0  0  0  0
    9.5940  -13.8499   24.7886 O   0  0  0  0  0  0  0  0  0  0  0  0
   10.8075  -18.4990   22.7840 O   0  0  0  0  0  0  0  0  0  0  0  0
    5.9678  -12.7470   26.3962 C   0  0  0  0  0  0  0  0  0  0  0  0
    7.3982  -13.2128   26.2101 C   0  0  2  0  0  0  0  0  0  0  0  0
    7.4550  -14.3665   25.3453 N   0  0  0  0  0  0  0  0  0  0  0  0
    7.9688  -13.5013   27.5532 C   0  0  0  0  0  0  0  0  0  0  0  0
    8.3288  -14.6583   27.9161 O   0  0  0  0  0  0  0  0  0  0  0  0
    8.1281  -12.4841   28.4726 O   0  0  0  0  0  0  0  0  0  0  0  0
  1  2  1  0
  3  2  1  0
  4  5  1  0
  4  3  1  0
  5  1  1  0
  6  8  1  0
  5  6  1  1
  7  6  2  0
  9 13  1  0
  9  8  1  0
  9 10  1  1
 11 12  2  0
 11 10  1  0
 13 18  1  0
 14 13  2  0
 15 11  1  0
 17 16  1  1
 18 17  1  0
 19 17  1  0
 19 21  1  0
 20 19  2  0
M  END
$$$$
