PDA.pdb
     RDKit          3D

 21 21  0  0  1  0  0  0  0  0999 V2000
    8.9512  -14.5450   18.7290 N   0  0  0  0  0  0  0  0  0  0  0  0
    7.7733  -14.2663   17.9604 C   0  0  0  0  0  0  0  0  0  0  0  0
    6.8677  -13.4506   18.8682 C   0  0  0  0  0  0  0  0  0  0  0  0
    7.9349  -12.6212   19.5966 C   0  0  0  0  0  0  0  0  0  0  0  0
    8.9488  -13.7114   19.8940 C   0  0  1  0  0  0  0  0  0  0  0  0
    8.5682  -14.4769   21.1209 C   0  0  0  0  0  0  0  0  0  0  0  0
    7.4243  -14.3710   21.6397 O   0  0  0  0  0  0  0  0  0  0  0  0
    9.4810  -15.3605   21.7570 N   0  0  0  0  0  0  0  0  0  0  0  0
    9.0962  -16.0525   23.0169 C   0  0  1  0  0  0  0  0  0  0  0  0
    9.8535  -17.3294   23.1337 C   0  0  0  0  0  0  0  0  0  0  0  0
    9.5681  -18.0219   24.3893 C   0  0  0  0  0  0  0  0  0  0  0  0
   10.1863  -17.9752   25.4665 O   0  0  0  0  0  0  0  0  0  0  0  0
    9.3347  -15.1042   24.1444 C   0  0  0  0  0  0  0  0  0  0  0  0
   10.4521  -14.6289   24.4112 O   0  0  0  0  0  0  0  0  0  0  0  0
    8.4328  -18.8666   24.3960 O   0  0  0  0  0  0  0  0  0  0  0  0
    7.2492  -12.9016   26.3008 C   0  0  0  0  0  0  0  0  0  0  0  0
    8.4986  -13.7137   26.0234 C   0  0  2  0  0  0  0  0  0  0  0  0
    8.2579  -14.6906   24.9889 N   0  0  0  0  0  0  0  0  0  0  0  0
    8.9269  -14.3525   27.2967 C   0  0  0  0  0  0  0  0  0  0  0  0
    8.9343  -15.6051   27.4720 O   0  0  0  0  0  0  0  0  0  0  0  0
    9.3423  -13.5740   28.3581 O   0  0  0  0  0  0  0  0  0  0  0  0
  1  2  1  0
  3  2  1  0
  4  5  1  0
  4  3  1  0
  5  1  1  0
  6  8  1  0
  5  6  1  1
  7  6  2  0
  9 13  1  0
  9  8  1  0
  9 10  1  1
 11 12  2  0
 11 10  1  0
 13 18  1  0
 14 13  2  0
 15 11  1  0
 17 16  1  1
 18 17  1  0
 19 17  1  0
 19 21  1  0
 20 19  2  0
M  END
$$$$
