PDA.pdb
     RDKit          3D

 21 21  0  0  1  0  0  0  0  0999 V2000
    8.2982  -14.8113   19.2141 N   0  0  0  0  0  0  0  0  0  0  0  0
    7.1873  -13.9918   18.8266 C   0  0  0  0  0  0  0  0  0  0  0  0
    7.0092  -12.9773   19.9441 C   0  0  0  0  0  0  0  0  0  0  0  0
    8.4845  -12.7442   20.2998 C   0  0  0  0  0  0  0  0  0  0  0  0
    8.9773  -14.1802   20.3062 C   0  0  1  0  0  0  0  0  0  0  0  0
    8.6685  -14.8469   21.6087 C   0  0  0  0  0  0  0  0  0  0  0  0
    7.4998  -14.8706   22.0802 O   0  0  0  0  0  0  0  0  0  0  0  0
    9.6812  -15.4856   22.3736 N   0  0  0  0  0  0  0  0  0  0  0  0
    9.3375  -16.1553   23.6572 C   0  0  1  0  0  0  0  0  0  0  0  0
    9.8702  -17.5460   23.6503 C   0  0  0  0  0  0  0  0  0  0  0  0
   11.3084  -17.5797   23.3895 C   0  0  0  0  0  0  0  0  0  0  0  0
   12.2514  -17.4308   24.1852 O   0  0  0  0  0  0  0  0  0  0  0  0
    9.8717  -15.3101   24.7653 C   0  0  0  0  0  0  0  0  0  0  0  0
   10.9092  -14.6320   24.6666 O   0  0  0  0  0  0  0  0  0  0  0  0
   11.6977  -17.8140   22.0494 O   0  0  0  0  0  0  0  0  0  0  0  0
    8.8480  -13.3221   27.4819 C   0  0  0  0  0  0  0  0  0  0  0  0
    9.7633  -14.4675   27.0979 C   0  0  2  0  0  0  0  0  0  0  0  0
    9.1939  -15.2425   26.0220 N   0  0  0  0  0  0  0  0  0  0  0  0
    9.9998  -15.2966   28.3101 C   0  0  0  0  0  0  0  0  0  0  0  0
    9.5939  -16.4895   28.4203 O   0  0  0  0  0  0  0  0  0  0  0  0
   10.6908  -14.7736   29.3845 O   0  0  0  0  0  0  0  0  0  0  0  0
  1  2  1  0
  3  2  1  0
  4  5  1  0
  4  3  1  0
  5  1  1  0
  6  8  1  0
  5  6  1  1
  7  6  2  0
  9 13  1  0
  9  8  1  0
  9 10  1  6
 11 12  2  0
 11 10  1  0
 13 18  1  0
 14 13  2  0
 15 11  1  0
 17 16  1  1
 18 17  1  0
 19 17  1  0
 19 21  1  0
 20 19  2  0
M  END
$$$$
