PDA.pdb
     RDKit          3D

 21 21  0  0  1  0  0  0  0  0999 V2000
    7.8638  -14.5690   18.9023 N   0  0  0  0  0  0  0  0  0  0  0  0
    6.9559  -13.4838   18.6700 C   0  0  0  0  0  0  0  0  0  0  0  0
    7.1263  -12.5395   19.8486 C   0  0  0  0  0  0  0  0  0  0  0  0
    8.6390  -12.6890   20.0647 C   0  0  0  0  0  0  0  0  0  0  0  0
    8.7671  -14.1974   19.9503 C   0  0  1  0  0  0  0  0  0  0  0  0
    8.4190  -14.8644   21.2426 C   0  0  0  0  0  0  0  0  0  0  0  0
    7.2236  -15.1000   21.5657 O   0  0  0  0  0  0  0  0  0  0  0  0
    9.4229  -15.2638   22.1652 N   0  0  0  0  0  0  0  0  0  0  0  0
    9.0460  -15.9676   23.4210 C   0  0  1  0  0  0  0  0  0  0  0  0
    9.8588  -17.2080   23.5585 C   0  0  0  0  0  0  0  0  0  0  0  0
    9.5705  -17.9156   24.8049 C   0  0  0  0  0  0  0  0  0  0  0  0
    8.5788  -17.8194   25.5478 O   0  0  0  0  0  0  0  0  0  0  0  0
    9.2192  -15.0049   24.5482 C   0  0  0  0  0  0  0  0  0  0  0  0
   10.2929  -14.4282   24.7939 O   0  0  0  0  0  0  0  0  0  0  0  0
   10.5465  -18.8434   25.2399 O   0  0  0  0  0  0  0  0  0  0  0  0
    6.9669  -12.9142   26.6079 C   0  0  0  0  0  0  0  0  0  0  0  0
    8.2741  -13.6538   26.4042 C   0  0  2  0  0  0  0  0  0  0  0  0
    8.1268  -14.6962   25.4172 N   0  0  0  0  0  0  0  0  0  0  0  0
    8.7081  -14.1966   27.7194 C   0  0  0  0  0  0  0  0  0  0  0  0
    8.7952  -15.4352   27.9601 O   0  0  0  0  0  0  0  0  0  0  0  0
    9.0393  -13.3387   28.7488 O   0  0  0  0  0  0  0  0  0  0  0  0
  1  2  1  0
  3  2  1  0
  4  5  1  0
  4  3  1  0
  5  1  1  0
  6  8  1  0
  5  6  1  1
  7  6  2  0
  9 13  1  0
  9  8  1  0
  9 10  1  1
 11 12  2  0
 11 10  1  0
 13 18  1  0
 14 13  2  0
 15 11  1  0
 17 16  1  1
 18 17  1  0
 19 17  1  0
 19 21  1  0
 20 19  2  0
M  END
$$$$
