PDA.pdb
     RDKit          3D

 21 21  0  0  1  0  0  0  0  0999 V2000
    8.6825  -14.7680   19.4295 N   0  0  0  0  0  0  0  0  0  0  0  0
    7.4548  -14.1683   18.9950 C   0  0  0  0  0  0  0  0  0  0  0  0
    7.0389  -13.2197   20.1072 C   0  0  0  0  0  0  0  0  0  0  0  0
    8.4263  -12.7167   20.5308 C   0  0  0  0  0  0  0  0  0  0  0  0
    9.1811  -14.0338   20.5541 C   0  0  1  0  0  0  0  0  0  0  0  0
    8.9468  -14.7632   21.8383 C   0  0  0  0  0  0  0  0  0  0  0  0
    7.8462  -14.6935   22.4487 O   0  0  0  0  0  0  0  0  0  0  0  0
    9.9568  -15.5697   22.4283 N   0  0  0  0  0  0  0  0  0  0  0  0
    9.6976  -16.2683   23.7163 C   0  0  1  0  0  0  0  0  0  0  0  0
   10.5400  -17.4938   23.7952 C   0  0  0  0  0  0  0  0  0  0  0  0
   10.3784  -18.3455   22.6179 C   0  0  0  0  0  0  0  0  0  0  0  0
    9.3661  -18.9470   22.2205 O   0  0  0  0  0  0  0  0  0  0  0  0
    9.9472  -15.2927   24.8179 C   0  0  0  0  0  0  0  0  0  0  0  0
   11.0343  -14.7120   24.9815 O   0  0  0  0  0  0  0  0  0  0  0  0
   11.5250  -18.5191   21.8070 O   0  0  0  0  0  0  0  0  0  0  0  0
    7.9707  -13.3008   27.2534 C   0  0  0  0  0  0  0  0  0  0  0  0
    9.2053  -14.0853   26.8562 C   0  0  2  0  0  0  0  0  0  0  0  0
    8.9177  -14.9757   25.7577 N   0  0  0  0  0  0  0  0  0  0  0  0
    9.6885  -14.8242   28.0534 C   0  0  0  0  0  0  0  0  0  0  0  0
   10.1134  -14.2471   29.0957 O   0  0  0  0  0  0  0  0  0  0  0  0
    9.6877  -16.2045   28.0640 O   0  0  0  0  0  0  0  0  0  0  0  0
  1  2  1  0
  3  2  1  0
  4  5  1  0
  4  3  1  0
  5  1  1  0
  6  8  1  0
  5  6  1  1
  7  6  2  0
  9 13  1  0
  9  8  1  0
  9 10  1  1
 11 12  2  0
 11 10  1  0
 13 18  1  0
 14 13  2  0
 15 11  1  0
 17 16  1  1
 18 17  1  0
 19 17  1  0
 19 21  1  0
 20 19  2  0
M  END
$$$$
