IFC.pdb
     RDKit          3D

 26 26  0  0  1  0  0  0  0  0999 V2000
   18.9766  -21.6218  -14.2568 C   0  0  0  0  0  0  0  0  0  0  0  0
   19.6190  -21.6953  -12.8914 C   0  0  0  0  0  0  0  0  0  0  0  0
   20.9615  -20.9981  -12.8716 C   0  0  2  0  0  0  0  0  0  0  0  0
   21.8696  -21.5770  -13.9426 C   0  0  0  0  0  0  0  0  0  0  0  0
   21.6135  -21.0246  -11.5182 C   0  0  2  0  0  0  0  0  0  0  0  0
   20.7189  -20.3384  -10.5897 N   0  0  0  0  0  0  0  0  0  0  0  0
   22.9361  -20.3594  -11.4899 C   0  0  0  0  0  0  0  0  0  0  0  0
   23.1209  -19.1256  -11.5239 O   0  0  0  0  0  0  0  0  0  0  0  0
   24.1264  -21.1421  -11.4185 N   0  0  0  0  0  0  0  0  0  0  0  0
   25.4631  -20.6076  -11.3690 C   0  0  1  0  0  0  0  0  0  0  0  0
   26.3141  -21.2235  -10.3262 C   0  0  0  0  0  0  0  0  0  0  0  0
   26.3950  -20.5821   -9.0173 C   0  0  0  0  0  0  0  0  0  0  0  0
   25.9492  -21.2188   -7.8796 C   0  0  0  0  0  0  0  0  0  0  0  0
   26.0434  -20.6578   -6.6259 C   0  0  0  0  0  0  0  0  0  0  0  0
   26.6037  -19.4022   -6.4610 C   0  0  0  0  0  0  0  0  0  0  0  0
   27.0518  -18.7529   -7.5717 C   0  0  0  0  0  0  0  0  0  0  0  0
   26.9586  -19.3118   -8.8250 C   0  0  0  0  0  0  0  0  0  0  0  0
   26.0442  -20.7790  -12.7194 C   0  0  0  0  0  0  0  0  0  0  0  0
   25.7841  -21.7920  -13.4335 O   0  0  0  0  0  0  0  0  0  0  0  0
   26.9102  -19.7825  -13.2311 N   0  0  0  0  0  0  0  0  0  0  0  0
   27.4601  -19.7458  -14.5503 C   0  0  1  0  0  0  0  0  0  0  0  0
   28.1107  -18.4680  -14.9505 C   0  0  0  0  0  0  0  0  0  0  0  0
   27.1203  -17.0155  -14.6108 S   0  0  0  0  0  0  0  0  0  0  0  0
   28.2833  -20.9460  -14.8916 C   0  0  0  0  0  0  0  0  0  0  0  0
   28.6302  -21.7186  -13.9688 O   0  0  0  0  0  0  0  0  0  0  0  0
   28.6740  -21.2287  -16.1765 O   0  0  0  0  0  0  0  0  0  0  0  0
  2  1  1  0
  3  2  1  0
  3  4  1  6
  5  3  1  0
  5  6  1  1
  7  8  2  0
  7  5  1  0
  9  7  1  0
 10 11  1  1
 10  9  1  0
 11 12  1  0
 12 17  2  0
 12 13  1  0
 13 14  2  0
 14 15  1  0
 16 15  2  0
 17 16  1  0
 18 10  1  0
 19 18  2  0
 20 18  1  0
 21 22  1  1
 21 20  1  0
 22 23  1  0
 24 26  1  0
 24 21  1  0
 25 24  2  0
M  END
$$$$
