IFC.pdb
     RDKit          3D

 26 26  0  0  1  0  0  0  0  0999 V2000
   28.3831  -20.0940  -18.5796 C   0  0  0  0  0  0  0  0  0  0  0  0
   27.3069  -21.0860  -18.2056 C   0  0  0  0  0  0  0  0  0  0  0  0
   27.4185  -21.5057  -16.7563 C   0  0  2  0  0  0  0  0  0  0  0  0
   27.4199  -23.0206  -16.6471 C   0  0  0  0  0  0  0  0  0  0  0  0
   26.3608  -20.8880  -15.8861 C   0  0  2  0  0  0  0  0  0  0  0  0
   26.5378  -19.4395  -15.9464 N   0  0  0  0  0  0  0  0  0  0  0  0
   26.4357  -21.3220  -14.4724 C   0  0  0  0  0  0  0  0  0  0  0  0
   26.1780  -22.4709  -14.0587 O   0  0  0  0  0  0  0  0  0  0  0  0
   26.8277  -20.3948  -13.4619 N   0  0  0  0  0  0  0  0  0  0  0  0
   26.8387  -20.6716  -12.0483 C   0  0  1  0  0  0  0  0  0  0  0  0
   27.8789  -19.9282  -11.3025 C   0  0  0  0  0  0  0  0  0  0  0  0
   27.8739  -19.9872   -9.8438 C   0  0  0  0  0  0  0  0  0  0  0  0
   28.6556  -20.8938   -9.1616 C   0  0  0  0  0  0  0  0  0  0  0  0
   28.7019  -20.9524   -7.7868 C   0  0  0  0  0  0  0  0  0  0  0  0
   27.9451  -20.0796   -7.0230 C   0  0  0  0  0  0  0  0  0  0  0  0
   27.1642  -19.1738   -7.6754 C   0  0  0  0  0  0  0  0  0  0  0  0
   27.1166  -19.1139   -9.0488 C   0  0  0  0  0  0  0  0  0  0  0  0
   25.4817  -20.3686  -11.5411 C   0  0  0  0  0  0  0  0  0  0  0  0
   24.8737  -19.3039  -11.8581 O   0  0  0  0  0  0  0  0  0  0  0  0
   24.8418  -21.2948  -10.6823 N   0  0  0  0  0  0  0  0  0  0  0  0
   23.5711  -21.1150  -10.0520 C   0  0  1  0  0  0  0  0  0  0  0  0
   22.3864  -21.5686  -10.8312 C   0  0  0  0  0  0  0  0  0  0  0  0
   22.6487  -21.5828  -12.6024 S   0  0  0  0  0  0  0  0  0  0  0  0
   23.5367  -21.5707   -8.6287 C   0  0  0  0  0  0  0  0  0  0  0  0
   24.5282  -22.1835   -8.1701 O   0  0  0  0  0  0  0  0  0  0  0  0
   22.4586  -21.3449   -7.8100 O   0  0  0  0  0  0  0  0  0  0  0  0
  2  1  1  0
  3  2  1  0
  3  4  1  6
  5  3  1  0
  5  6  1  1
  7  8  2  0
  7  5  1  0
  9  7  1  0
 10 11  1  1
 10  9  1  0
 11 12  1  0
 12 17  2  0
 12 13  1  0
 13 14  2  0
 14 15  1  0
 16 15  2  0
 17 16  1  0
 18 10  1  0
 19 18  2  0
 20 18  1  0
 21 22  1  6
 21 20  1  0
 22 23  1  0
 24 26  1  0
 24 21  1  0
 25 24  2  0
M  END
$$$$
