IFC.pdb
     RDKit          3D

 26 26  0  0  1  0  0  0  0  0999 V2000
   16.0788  -13.5886  -20.3328 C   0  0  0  0  0  0  0  0  0  0  0  0
   17.3601  -13.6585  -19.5356 C   0  0  0  0  0  0  0  0  0  0  0  0
   17.4561  -12.5244  -18.5390 C   0  0  2  0  0  0  0  0  0  0  0  0
   17.4185  -11.1878  -19.2594 C   0  0  0  0  0  0  0  0  0  0  0  0
   18.6551  -12.6363  -17.6404 C   0  0  2  0  0  0  0  0  0  0  0  0
   18.5910  -13.9418  -16.9885 N   0  0  0  0  0  0  0  0  0  0  0  0
   18.7107  -11.5833  -16.6008 C   0  0  0  0  0  0  0  0  0  0  0  0
   17.9833  -11.5344  -15.5879 O   0  0  0  0  0  0  0  0  0  0  0  0
   19.6510  -10.5170  -16.7159 N   0  0  0  0  0  0  0  0  0  0  0  0
   19.8040   -9.4463  -15.7644 C   0  0  1  0  0  0  0  0  0  0  0  0
   21.2103   -9.1777  -15.3890 C   0  0  0  0  0  0  0  0  0  0  0  0
   21.5035   -8.0210  -14.5479 C   0  0  0  0  0  0  0  0  0  0  0  0
   21.8653   -6.8102  -15.0971 C   0  0  0  0  0  0  0  0  0  0  0  0
   22.1135   -5.6906  -14.3354 C   0  0  0  0  0  0  0  0  0  0  0  0
   22.0054   -5.7443  -12.9558 C   0  0  0  0  0  0  0  0  0  0  0  0
   21.6488   -6.9310  -12.3897 C   0  0  0  0  0  0  0  0  0  0  0  0
   21.4004   -8.0506  -13.1491 C   0  0  0  0  0  0  0  0  0  0  0  0
   19.1589   -8.2521  -16.3548 C   0  0  0  0  0  0  0  0  0  0  0  0
   19.2996   -7.9542  -17.5775 O   0  0  0  0  0  0  0  0  0  0  0  0
   18.3581   -7.4218  -15.5337 N   0  0  0  0  0  0  0  0  0  0  0  0
   17.7921   -6.1643  -15.9108 C   0  0  1  0  0  0  0  0  0  0  0  0
   16.3145   -6.1419  -16.0913 C   0  0  0  0  0  0  0  0  0  0  0  0
   15.6411   -4.5007  -16.3346 S   0  0  0  0  0  0  0  0  0  0  0  0
   18.2935   -5.0126  -15.1004 C   0  0  0  0  0  0  0  0  0  0  0  0
   18.2429   -5.0899  -13.8512 O   0  0  0  0  0  0  0  0  0  0  0  0
   18.8030   -3.8752  -15.6752 O   0  0  0  0  0  0  0  0  0  0  0  0
  2  1  1  0
  3  2  1  0
  3  4  1  6
  5  3  1  0
  5  6  1  1
  7  8  2  0
  7  5  1  0
  9  7  1  0
 10 11  1  6
 10  9  1  0
 11 12  1  0
 12 17  2  0
 12 13  1  0
 13 14  2  0
 14 15  1  0
 16 15  2  0
 17 16  1  0
 18 10  1  0
 19 18  2  0
 20 18  1  0
 21 22  1  1
 21 20  1  0
 22 23  1  0
 24 26  1  0
 24 21  1  0
 25 24  2  0
M  END
$$$$
