IFC.pdb
     RDKit          3D

 26 26  0  0  1  0  0  0  0  0999 V2000
   26.4697  -18.8263  -20.5679 C   0  0  0  0  0  0  0  0  0  0  0  0
   27.4359  -19.3913  -19.5533 C   0  0  0  0  0  0  0  0  0  0  0  0
   26.7110  -19.9594  -18.3531 C   0  0  2  0  0  0  0  0  0  0  0  0
   25.7725  -18.9196  -17.7660 C   0  0  0  0  0  0  0  0  0  0  0  0
   27.6451  -20.5127  -17.3144 C   0  0  2  0  0  0  0  0  0  0  0  0
   28.4013  -21.5944  -17.9399 N   0  0  0  0  0  0  0  0  0  0  0  0
   26.9484  -21.0427  -16.1201 C   0  0  0  0  0  0  0  0  0  0  0  0
   26.1881  -22.0324  -16.1119 O   0  0  0  0  0  0  0  0  0  0  0  0
   27.1243  -20.4112  -14.8534 N   0  0  0  0  0  0  0  0  0  0  0  0
   26.3886  -20.7393  -13.6592 C   0  0  1  0  0  0  0  0  0  0  0  0
   27.0873  -20.3708  -12.4074 C   0  0  0  0  0  0  0  0  0  0  0  0
   26.3520  -20.4360  -11.1479 C   0  0  0  0  0  0  0  0  0  0  0  0
   26.0797  -21.6421  -10.5399 C   0  0  0  0  0  0  0  0  0  0  0  0
   25.4206  -21.7375   -9.3349 C   0  0  0  0  0  0  0  0  0  0  0  0
   24.9978  -20.5953   -8.6759 C   0  0  0  0  0  0  0  0  0  0  0  0
   25.2557  -19.3908   -9.2578 C   0  0  0  0  0  0  0  0  0  0  0  0
   25.9142  -19.2936  -10.4615 C   0  0  0  0  0  0  0  0  0  0  0  0
   25.0733  -20.0695  -13.7678 C   0  0  0  0  0  0  0  0  0  0  0  0
   24.9641  -18.8778  -14.1817 O   0  0  0  0  0  0  0  0  0  0  0  0
   23.9036  -20.7799  -13.4045 N   0  0  0  0  0  0  0  0  0  0  0  0
   22.5681  -20.2708  -13.4396 C   0  0  1  0  0  0  0  0  0  0  0  0
   22.1566  -19.6053  -14.7061 C   0  0  0  0  0  0  0  0  0  0  0  0
   20.4317  -19.1265  -14.7435 S   0  0  0  0  0  0  0  0  0  0  0  0
   21.5440  -21.2352  -12.9335 C   0  0  0  0  0  0  0  0  0  0  0  0
   20.3523  -20.8582  -12.8523 O   0  0  0  0  0  0  0  0  0  0  0  0
   21.8632  -22.5145  -12.5527 O   0  0  0  0  0  0  0  0  0  0  0  0
  2  1  1  0
  3  2  1  0
  3  4  1  1
  5  3  1  0
  5  6  1  6
  7  8  2  0
  7  5  1  0
  9  7  1  0
 10 11  1  1
 10  9  1  0
 11 12  1  0
 12 17  2  0
 12 13  1  0
 13 14  2  0
 14 15  1  0
 16 15  2  0
 17 16  1  0
 18 10  1  0
 19 18  2  0
 20 18  1  0
 21 22  1  6
 21 20  1  0
 22 23  1  0
 24 26  1  0
 24 21  1  0
 25 24  2  0
M  END
$$$$
