IFC.pdb
     RDKit          3D

 26 26  0  0  1  0  0  0  0  0999 V2000
   25.9791  -19.6431  -15.6078 C   0  0  0  0  0  0  0  0  0  0  0  0
   25.1054  -19.9294  -14.4091 C   0  0  0  0  0  0  0  0  0  0  0  0
   25.9171  -20.4449  -13.2412 C   0  0  2  0  0  0  0  0  0  0  0  0
   26.7556  -21.6366  -13.6699 C   0  0  0  0  0  0  0  0  0  0  0  0
   25.0739  -20.7640  -12.0392 C   0  0  2  0  0  0  0  0  0  0  0  0
   24.2324  -19.5996  -11.7754 N   0  0  0  0  0  0  0  0  0  0  0  0
   25.8688  -21.0658  -10.8270 C   0  0  0  0  0  0  0  0  0  0  0  0
   26.3722  -22.1751  -10.5555 O   0  0  0  0  0  0  0  0  0  0  0  0
   26.1091  -20.0455   -9.8598 N   0  0  0  0  0  0  0  0  0  0  0  0
   26.7934  -20.2411   -8.6074 C   0  0  1  0  0  0  0  0  0  0  0  0
   27.7779  -19.1814   -8.2931 C   0  0  0  0  0  0  0  0  0  0  0  0
   28.4451  -19.2060   -6.9948 C   0  0  0  0  0  0  0  0  0  0  0  0
   28.2391  -18.2099   -6.0654 C   0  0  0  0  0  0  0  0  0  0  0  0
   28.8238  -18.2207   -4.8190 C   0  0  0  0  0  0  0  0  0  0  0  0
   29.6604  -19.2598   -4.4472 C   0  0  0  0  0  0  0  0  0  0  0  0
   29.8792  -20.2566   -5.3496 C   0  0  0  0  0  0  0  0  0  0  0  0
   29.2959  -20.2475   -6.5953 C   0  0  0  0  0  0  0  0  0  0  0  0
   25.7519  -20.3465   -7.5611 C   0  0  0  0  0  0  0  0  0  0  0  0
   24.5424  -20.0508   -7.7921 O   0  0  0  0  0  0  0  0  0  0  0  0
   26.1140  -20.7947   -6.2677 N   0  0  0  0  0  0  0  0  0  0  0  0
   25.2103  -21.2031   -5.2379 C   0  0  1  0  0  0  0  0  0  0  0  0
   24.1602  -22.1786   -5.6405 C   0  0  0  0  0  0  0  0  0  0  0  0
   23.1124  -22.7110   -4.2897 S   0  0  0  0  0  0  0  0  0  0  0  0
   25.8868  -21.5765   -3.9582 C   0  0  0  0  0  0  0  0  0  0  0  0
   25.5835  -20.9538   -2.9146 O   0  0  0  0  0  0  0  0  0  0  0  0
   26.8284  -22.5724   -3.8874 O   0  0  0  0  0  0  0  0  0  0  0  0
  2  1  1  0
  3  2  1  0
  3  4  1  6
  5  3  1  0
  5  6  1  1
  7  8  2  0
  7  5  1  0
  9  7  1  0
 10 11  1  1
 10  9  1  0
 11 12  1  0
 12 17  2  0
 12 13  1  0
 13 14  2  0
 14 15  1  0
 16 15  2  0
 17 16  1  0
 18 10  1  0
 19 18  2  0
 20 18  1  0
 21 22  1  6
 21 20  1  0
 22 23  1  0
 24 26  1  0
 24 21  1  0
 25 24  2  0
M  END
$$$$
