IFC.pdb
     RDKit          3D

 26 26  0  0  1  0  0  0  0  0999 V2000
   27.3236  -11.1062  -22.5771 C   0  0  0  0  0  0  0  0  0  0  0  0
   26.2904  -10.0659  -22.2132 C   0  0  0  0  0  0  0  0  0  0  0  0
   25.7661  -10.2720  -20.8090 C   0  0  2  0  0  0  0  0  0  0  0  0
   25.1988  -11.6730  -20.6609 C   0  0  0  0  0  0  0  0  0  0  0  0
   24.7708   -9.2243  -20.3975 C   0  0  2  0  0  0  0  0  0  0  0  0
   25.4604   -7.9369  -20.4151 N   0  0  0  0  0  0  0  0  0  0  0  0
   24.2068   -9.4479  -19.0468 C   0  0  0  0  0  0  0  0  0  0  0  0
   23.5860  -10.4691  -18.6872 O   0  0  0  0  0  0  0  0  0  0  0  0
   24.3555   -8.4505  -18.0381 N   0  0  0  0  0  0  0  0  0  0  0  0
   23.9741   -8.6098  -16.6582 C   0  0  1  0  0  0  0  0  0  0  0  0
   25.1149   -8.5751  -15.7157 C   0  0  0  0  0  0  0  0  0  0  0  0
   26.1439   -9.6052  -15.8210 C   0  0  0  0  0  0  0  0  0  0  0  0
   25.9831  -10.8401  -15.2313 C   0  0  0  0  0  0  0  0  0  0  0  0
   26.9169  -11.8459  -15.3410 C   0  0  0  0  0  0  0  0  0  0  0  0
   28.0795  -11.6457  -16.0664 C   0  0  0  0  0  0  0  0  0  0  0  0
   28.2607  -10.4323  -16.6587 C   0  0  0  0  0  0  0  0  0  0  0  0
   27.3289   -9.4264  -16.5502 C   0  0  0  0  0  0  0  0  0  0  0  0
   22.9872   -7.5478  -16.3603 C   0  0  0  0  0  0  0  0  0  0  0  0
   23.0848   -6.3879  -16.8590 O   0  0  0  0  0  0  0  0  0  0  0  0
   21.9008   -7.8355  -15.4990 N   0  0  0  0  0  0  0  0  0  0  0  0
   20.7855   -6.9791  -15.2407 C   0  0  1  0  0  0  0  0  0  0  0  0
   20.2013   -6.2934  -16.4260 C   0  0  0  0  0  0  0  0  0  0  0  0
   18.8498   -5.1883  -16.0281 S   0  0  0  0  0  0  0  0  0  0  0  0
   19.7474   -7.5942  -14.3582 C   0  0  0  0  0  0  0  0  0  0  0  0
   19.4566   -8.8012  -14.5241 O   0  0  0  0  0  0  0  0  0  0  0  0
   19.1013   -6.8842  -13.3774 O   0  0  0  0  0  0  0  0  0  0  0  0
  2  1  1  0
  3  2  1  0
  3  4  1  6
  5  3  1  0
  5  6  1  1
  7  8  2  0
  7  5  1  0
  9  7  1  0
 10 11  1  1
 10  9  1  0
 11 12  1  0
 12 17  2  0
 12 13  1  0
 13 14  2  0
 14 15  1  0
 16 15  2  0
 17 16  1  0
 18 10  1  0
 19 18  2  0
 20 18  1  0
 21 22  1  6
 21 20  1  0
 22 23  1  0
 24 26  1  0
 24 21  1  0
 25 24  2  0
M  END
$$$$
