IFC.pdb
     RDKit          3D

 26 26  0  0  1  0  0  0  0  0999 V2000
   26.9385  -20.7250  -20.1133 C   0  0  0  0  0  0  0  0  0  0  0  0
   27.6279  -21.4155  -18.9599 C   0  0  0  0  0  0  0  0  0  0  0  0
   26.7289  -21.4991  -17.7459 C   0  0  2  0  0  0  0  0  0  0  0  0
   26.2292  -20.1160  -17.3664 C   0  0  0  0  0  0  0  0  0  0  0  0
   27.3810  -22.1915  -16.5828 C   0  0  2  0  0  0  0  0  0  0  0  0
   27.6256  -23.5755  -16.9805 N   0  0  0  0  0  0  0  0  0  0  0  0
   26.5530  -22.1845  -15.3552 C   0  0  0  0  0  0  0  0  0  0  0  0
   25.4973  -22.8311  -15.1967 O   0  0  0  0  0  0  0  0  0  0  0  0
   26.9458  -21.3942  -14.2348 N   0  0  0  0  0  0  0  0  0  0  0  0
   26.2434  -21.3378  -12.9784 C   0  0  1  0  0  0  0  0  0  0  0  0
   27.0621  -20.8200  -11.8593 C   0  0  0  0  0  0  0  0  0  0  0  0
   26.4214  -20.5932  -10.5673 C   0  0  0  0  0  0  0  0  0  0  0  0
   26.1817  -21.6327   -9.6952 C   0  0  0  0  0  0  0  0  0  0  0  0
   25.6126  -21.4492   -8.4551 C   0  0  0  0  0  0  0  0  0  0  0  0
   25.2524  -20.1811   -8.0308 C   0  0  0  0  0  0  0  0  0  0  0  0
   25.4798  -19.1372   -8.8761 C   0  0  0  0  0  0  0  0  0  0  0  0
   26.0483  -19.3186  -10.1154 C   0  0  0  0  0  0  0  0  0  0  0  0
   25.0352  -20.5118  -13.1989 C   0  0  0  0  0  0  0  0  0  0  0  0
   25.1023  -19.3559  -13.7119 O   0  0  0  0  0  0  0  0  0  0  0  0
   23.7686  -21.0276  -12.8321 N   0  0  0  0  0  0  0  0  0  0  0  0
   22.5146  -20.3575  -12.9820 C   0  0  1  0  0  0  0  0  0  0  0  0
   22.2204  -19.8196  -14.3387 C   0  0  0  0  0  0  0  0  0  0  0  0
   21.2903  -20.9445  -15.3759 S   0  0  0  0  0  0  0  0  0  0  0  0
   21.3608  -21.1031  -12.3925 C   0  0  0  0  0  0  0  0  0  0  0  0
   21.5525  -22.2637  -11.9622 O   0  0  0  0  0  0  0  0  0  0  0  0
   20.1017  -20.5635  -12.3093 O   0  0  0  0  0  0  0  0  0  0  0  0
  2  1  1  0
  3  2  1  0
  3  4  1  1
  5  3  1  0
  5  6  1  6
  7  8  2  0
  7  5  1  0
  9  7  1  0
 10 11  1  1
 10  9  1  0
 11 12  1  0
 12 17  2  0
 12 13  1  0
 13 14  2  0
 14 15  1  0
 16 15  2  0
 17 16  1  0
 18 10  1  0
 19 18  2  0
 20 18  1  0
 21 22  1  6
 21 20  1  0
 22 23  1  0
 24 26  1  0
 24 21  1  0
 25 24  2  0
M  END
$$$$
