IFC.pdb
     RDKit          3D

 26 26  0  0  1  0  0  0  0  0999 V2000
   26.8827  -15.9224  -15.0484 C   0  0  0  0  0  0  0  0  0  0  0  0
   27.7882  -16.9940  -15.6086 C   0  0  0  0  0  0  0  0  0  0  0  0
   27.7018  -18.2710  -14.8018 C   0  0  2  0  0  0  0  0  0  0  0  0
   29.0520  -18.9659  -14.7726 C   0  0  0  0  0  0  0  0  0  0  0  0
   26.6147  -19.1914  -15.2797 C   0  0  2  0  0  0  0  0  0  0  0  0
   25.3896  -18.4028  -15.3828 N   0  0  0  0  0  0  0  0  0  0  0  0
   26.3730  -20.3365  -14.3725 C   0  0  0  0  0  0  0  0  0  0  0  0
   27.1800  -21.2632  -14.1542 O   0  0  0  0  0  0  0  0  0  0  0  0
   25.1377  -20.4386  -13.6669 N   0  0  0  0  0  0  0  0  0  0  0  0
   24.7746  -21.5246  -12.7929 C   0  0  1  0  0  0  0  0  0  0  0  0
   24.3444  -21.0883  -11.4455 C   0  0  0  0  0  0  0  0  0  0  0  0
   25.3638  -20.8278  -10.4335 C   0  0  0  0  0  0  0  0  0  0  0  0
   26.5151  -21.5818  -10.3668 C   0  0  0  0  0  0  0  0  0  0  0  0
   27.5123  -21.3403   -9.4488 C   0  0  0  0  0  0  0  0  0  0  0  0
   27.3892  -20.3048   -8.5375 C   0  0  0  0  0  0  0  0  0  0  0  0
   26.2593  -19.5451   -8.5841 C   0  0  0  0  0  0  0  0  0  0  0  0
   25.2620  -19.7849   -9.5006 C   0  0  0  0  0  0  0  0  0  0  0  0
   23.7144  -22.2939  -13.4820 C   0  0  0  0  0  0  0  0  0  0  0  0
   22.8395  -21.7271  -14.2009 O   0  0  0  0  0  0  0  0  0  0  0  0
   23.6785  -23.7022  -13.3395 N   0  0  0  0  0  0  0  0  0  0  0  0
   22.7468  -24.5855  -13.9686 C   0  0  1  0  0  0  0  0  0  0  0  0
   23.0169  -26.0407  -13.8080 C   0  0  0  0  0  0  0  0  0  0  0  0
   21.7659  -27.0928  -14.5389 S   0  0  0  0  0  0  0  0  0  0  0  0
   21.3171  -24.2308  -13.7143 C   0  0  0  0  0  0  0  0  0  0  0  0
   20.9495  -24.0271  -12.5344 O   0  0  0  0  0  0  0  0  0  0  0  0
   20.3947  -24.1241  -14.7250 O   0  0  0  0  0  0  0  0  0  0  0  0
  2  1  1  0
  3  2  1  0
  3  4  1  6
  5  3  1  0
  5  6  1  1
  7  8  2  0
  7  5  1  0
  9  7  1  0
 10 11  1  1
 10  9  1  0
 11 12  1  0
 12 17  2  0
 12 13  1  0
 13 14  2  0
 14 15  1  0
 16 15  2  0
 17 16  1  0
 18 10  1  0
 19 18  2  0
 20 18  1  0
 21 22  1  1
 21 20  1  0
 22 23  1  0
 24 26  1  0
 24 21  1  0
 25 24  2  0
M  END
$$$$
