IFC.pdb
     RDKit          3D

 26 26  0  0  1  0  0  0  0  0999 V2000
   21.7332  -19.5317  -18.1996 C   0  0  0  0  0  0  0  0  0  0  0  0
   23.0130  -19.0191  -17.5819 C   0  0  0  0  0  0  0  0  0  0  0  0
   23.3727  -19.7898  -16.3307 C   0  0  2  0  0  0  0  0  0  0  0  0
   22.7459  -19.1346  -15.1122 C   0  0  0  0  0  0  0  0  0  0  0  0
   24.8547  -19.9709  -16.1621 C   0  0  2  0  0  0  0  0  0  0  0  0
   25.3212  -20.8016  -17.2692 N   0  0  0  0  0  0  0  0  0  0  0  0
   25.2256  -20.6217  -14.8848 C   0  0  0  0  0  0  0  0  0  0  0  0
   25.1895  -21.8501  -14.6671 O   0  0  0  0  0  0  0  0  0  0  0  0
   25.6659  -19.8302  -13.7829 N   0  0  0  0  0  0  0  0  0  0  0  0
   26.0486  -20.3499  -12.4951 C   0  0  1  0  0  0  0  0  0  0  0  0
   27.1283  -19.5801  -11.8375 C   0  0  0  0  0  0  0  0  0  0  0  0
   27.5542  -19.9727  -10.4975 C   0  0  0  0  0  0  0  0  0  0  0  0
   27.0031  -19.3963   -9.3738 C   0  0  0  0  0  0  0  0  0  0  0  0
   27.3555  -19.7682   -8.0960 C   0  0  0  0  0  0  0  0  0  0  0  0
   28.3003  -20.7598   -7.8909 C   0  0  0  0  0  0  0  0  0  0  0  0
   28.8593  -21.3446   -8.9870 C   0  0  0  0  0  0  0  0  0  0  0  0
   28.5084  -20.9743  -10.2643 C   0  0  0  0  0  0  0  0  0  0  0  0
   24.8229  -20.3885  -11.6664 C   0  0  0  0  0  0  0  0  0  0  0  0
   24.0676  -19.3792  -11.5457 O   0  0  0  0  0  0  0  0  0  0  0  0
   24.4806  -21.5864  -10.9936 N   0  0  0  0  0  0  0  0  0  0  0  0
   23.4892  -21.7210   -9.9723 C   0  0  1  0  0  0  0  0  0  0  0  0
   23.9049  -21.3139   -8.6019 C   0  0  0  0  0  0  0  0  0  0  0  0
   22.6365  -21.5538   -7.3610 S   0  0  0  0  0  0  0  0  0  0  0  0
   22.1519  -21.1751  -10.3574 C   0  0  0  0  0  0  0  0  0  0  0  0
   21.1512  -21.9239  -10.2751 O   0  0  0  0  0  0  0  0  0  0  0  0
   21.9830  -19.8871  -10.8000 O   0  0  0  0  0  0  0  0  0  0  0  0
  2  1  1  0
  3  2  1  0
  3  4  1  1
  5  3  1  0
  5  6  1  6
  7  8  2  0
  7  5  1  0
  9  7  1  0
 10 11  1  1
 10  9  1  0
 11 12  1  0
 12 17  2  0
 12 13  1  0
 13 14  2  0
 14 15  1  0
 16 15  2  0
 17 16  1  0
 18 10  1  0
 19 18  2  0
 20 18  1  0
 21 22  1  1
 21 20  1  0
 22 23  1  0
 24 26  1  0
 24 21  1  0
 25 24  2  0
M  END
$$$$
