VEY.pdb
     RDKit          3D

 29 29  0  0  1  0  0  0  0  0999 V2000
    8.2115  -12.0130   19.5697 C   0  0  0  0  0  0  0  0  0  0  0  0
    8.3939  -13.1001   20.6000 C   0  0  1  0  0  0  0  0  0  0  0  0
    7.1402  -13.1354   21.4570 C   0  0  0  0  0  0  0  0  0  0  0  0
    8.5447  -14.4627   19.9799 C   0  0  2  0  0  0  0  0  0  0  0  0
    7.4756  -14.6357   19.0203 N   0  0  0  0  0  0  0  0  0  0  0  0
    8.5216  -15.5595   20.9438 C   0  0  0  0  0  0  0  0  0  0  0  0
    7.4891  -16.2596   21.1852 O   0  0  0  0  0  0  0  0  0  0  0  0
    9.7071  -15.8723   21.6567 N   0  0  0  0  0  0  0  0  0  0  0  0
    9.7491  -16.9626   22.6453 C   0  0  1  0  0  0  0  0  0  0  0  0
   10.5213  -18.1207   22.1483 C   0  0  0  0  0  0  0  0  0  0  0  0
   11.7106  -17.8817   21.3237 C   0  0  0  0  0  0  0  0  0  0  0  0
   12.4943  -18.9731   20.7978 C   0  0  0  0  0  0  0  0  0  0  0  0
   13.4200  -18.8539   19.9838 O   0  0  0  0  0  0  0  0  0  0  0  0
   10.0958  -16.4723   23.9605 C   0  0  0  0  0  0  0  0  0  0  0  0
   11.0713  -15.7110   24.1327 O   0  0  0  0  0  0  0  0  0  0  0  0
   12.2379  -20.3059   21.2012 O   0  0  0  0  0  0  0  0  0  0  0  0
    5.6908  -11.3251   25.5173 O   0  0  0  0  0  0  0  0  0  0  0  0
    6.3329  -12.5024   25.8911 C   0  0  0  0  0  0  0  0  0  0  0  0
    7.6855  -12.5470   26.0569 C   0  0  0  0  0  0  0  0  0  0  0  0
    8.2866  -13.7537   26.4335 C   0  0  0  0  0  0  0  0  0  0  0  0
    7.5271  -14.8895   26.6367 C   0  0  0  0  0  0  0  0  0  0  0  0
    8.1959  -16.1219   27.0250 C   0  0  0  0  0  0  0  0  0  0  0  0
    9.5661  -16.3375   26.4355 C   0  0  2  0  0  0  0  0  0  0  0  0
    9.3149  -16.8519   25.0796 N   0  0  0  0  0  0  0  0  0  0  0  0
   10.3043  -17.3483   27.2256 C   0  0  0  0  0  0  0  0  0  0  0  0
   10.8998  -17.0206   28.4335 O   0  0  0  0  0  0  0  0  0  0  0  0
    6.1549  -14.8308   26.4652 C   0  0  0  0  0  0  0  0  0  0  0  0
    5.5664  -13.6404   26.0942 C   0  0  0  0  0  0  0  0  0  0  0  0
   10.4139  -18.5336   26.8255 O   0  0  0  0  0  0  0  0  0  0  0  0
  2  1  1  6
  3  2  1  0
  4  2  1  0
  4  5  1  6
  6  4  1  0
  7  6  2  0
  8  6  1  0
  9  8  1  0
 10 11  1  0
  9 10  1  6
 12 16  1  0
 12 11  1  0
 13 12  2  0
 14 24  1  0
 14  9  1  0
 15 14  2  0
 18 17  1  0
 19 18  2  0
 20 19  1  0
 21 27  1  0
 21 20  2  0
 23 22  1  1
 22 21  1  0
 23 25  1  0
 23 24  1  0
 25 26  1  0
 27 28  2  0
 28 18  1  0
 29 25  2  0
M  END
$$$$
