VEY.pdb
     RDKit          3D

 29 29  0  0  1  0  0  0  0  0999 V2000
    8.0736  -12.8394   18.4074 C   0  0  0  0  0  0  0  0  0  0  0  0
    8.4990  -13.6261   19.6225 C   0  0  1  0  0  0  0  0  0  0  0  0
    7.4928  -13.3468   20.7256 C   0  0  0  0  0  0  0  0  0  0  0  0
    8.4897  -15.1110   19.3804 C   0  0  2  0  0  0  0  0  0  0  0  0
    7.1893  -15.4682   18.8558 N   0  0  0  0  0  0  0  0  0  0  0  0
    8.7751  -15.9085   20.5700 C   0  0  0  0  0  0  0  0  0  0  0  0
    7.8828  -16.2862   21.3920 O   0  0  0  0  0  0  0  0  0  0  0  0
   10.1151  -16.2896   20.8360 N   0  0  0  0  0  0  0  0  0  0  0  0
   10.4698  -17.0911   22.0190 C   0  0  1  0  0  0  0  0  0  0  0  0
   11.4972  -18.1055   21.7030 C   0  0  0  0  0  0  0  0  0  0  0  0
   12.0248  -18.1820   20.3365 C   0  0  0  0  0  0  0  0  0  0  0  0
   13.3612  -18.6566   20.0705 C   0  0  0  0  0  0  0  0  0  0  0  0
   13.9228  -19.5749   20.6829 O   0  0  0  0  0  0  0  0  0  0  0  0
   10.7225  -16.2537   23.1702 C   0  0  0  0  0  0  0  0  0  0  0  0
   11.2693  -15.1366   23.0523 O   0  0  0  0  0  0  0  0  0  0  0  0
   14.1441  -18.0722   19.0457 O   0  0  0  0  0  0  0  0  0  0  0  0
    5.9810  -11.2381   27.9253 O   0  0  0  0  0  0  0  0  0  0  0  0
    6.6131  -12.2132   27.1587 C   0  0  0  0  0  0  0  0  0  0  0  0
    5.9031  -13.2132   26.5629 C   0  0  0  0  0  0  0  0  0  0  0  0
    6.5826  -14.1713   25.8016 C   0  0  0  0  0  0  0  0  0  0  0  0
    7.9543  -14.1123   25.6504 C   0  0  0  0  0  0  0  0  0  0  0  0
    8.6178  -15.1316   24.8519 C   0  0  0  0  0  0  0  0  0  0  0  0
    9.8149  -15.7877   25.4905 C   0  0  2  0  0  0  0  0  0  0  0  0
   10.3388  -16.6979   24.4593 N   0  0  0  0  0  0  0  0  0  0  0  0
    9.3935  -16.5655   26.6773 C   0  0  0  0  0  0  0  0  0  0  0  0
    8.7947  -17.8085   26.5454 O   0  0  0  0  0  0  0  0  0  0  0  0
    8.6634  -13.0920   26.2605 C   0  0  0  0  0  0  0  0  0  0  0  0
    7.9906  -12.1501   27.0096 C   0  0  0  0  0  0  0  0  0  0  0  0
    9.5653  -16.1227   27.8398 O   0  0  0  0  0  0  0  0  0  0  0  0
  2  1  1  6
  3  2  1  0
  4  2  1  0
  4  5  1  1
  6  4  1  0
  7  6  2  0
  8  6  1  0
  9  8  1  0
 10 11  1  0
  9 10  1  6
 12 16  1  0
 12 11  1  0
 13 12  2  0
 14 24  1  0
 14  9  1  0
 15 14  2  0
 18 17  1  0
 19 18  2  0
 20 19  1  0
 21 27  1  0
 21 20  2  0
 23 22  1  6
 22 21  1  0
 23 25  1  0
 23 24  1  0
 25 26  1  0
 27 28  2  0
 28 18  1  0
 29 25  2  0
M  END
$$$$
