VEY.pdb
     RDKit          3D

 29 29  0  0  1  0  0  0  0  0999 V2000
    8.5333  -12.7338   21.7544 C   0  0  0  0  0  0  0  0  0  0  0  0
    7.6431  -13.5321   20.8343 C   0  0  1  0  0  0  0  0  0  0  0  0
    7.3199  -12.6574   19.6352 C   0  0  0  0  0  0  0  0  0  0  0  0
    8.3182  -14.7703   20.3099 C   0  0  2  0  0  0  0  0  0  0  0  0
    7.4603  -15.3508   19.2995 N   0  0  0  0  0  0  0  0  0  0  0  0
    8.6116  -15.7666   21.3364 C   0  0  0  0  0  0  0  0  0  0  0  0
    7.7521  -16.5903   21.7807 O   0  0  0  0  0  0  0  0  0  0  0  0
    9.9214  -15.8310   21.8765 N   0  0  0  0  0  0  0  0  0  0  0  0
   10.2966  -16.8470   22.8739 C   0  0  1  0  0  0  0  0  0  0  0  0
   11.4486  -17.6556   22.4226 C   0  0  0  0  0  0  0  0  0  0  0  0
   11.3211  -18.4548   21.1993 C   0  0  0  0  0  0  0  0  0  0  0  0
   12.4116  -19.2634   20.7107 C   0  0  0  0  0  0  0  0  0  0  0  0
   13.2296  -18.9070   19.8518 O   0  0  0  0  0  0  0  0  0  0  0  0
   10.3870  -16.2792   24.2005 C   0  0  0  0  0  0  0  0  0  0  0  0
   11.1520  -15.3224   24.4460 O   0  0  0  0  0  0  0  0  0  0  0  0
   12.6191  -20.5725   21.2086 O   0  0  0  0  0  0  0  0  0  0  0  0
    5.9245  -11.3097   25.4762 O   0  0  0  0  0  0  0  0  0  0  0  0
    6.4965  -12.5166   25.8687 C   0  0  0  0  0  0  0  0  0  0  0  0
    5.9156  -13.7091   25.5530 C   0  0  0  0  0  0  0  0  0  0  0  0
    6.5278  -14.8969   25.9695 C   0  0  0  0  0  0  0  0  0  0  0  0
    7.7052  -14.8710   26.6914 C   0  0  0  0  0  0  0  0  0  0  0  0
    8.3039  -16.1308   27.1050 C   0  0  0  0  0  0  0  0  0  0  0  0
    9.7194  -16.3661   26.6441 C   0  0  2  0  0  0  0  0  0  0  0  0
    9.5906  -16.8075   25.2460 N   0  0  0  0  0  0  0  0  0  0  0  0
   10.3438  -17.4379   27.4519 C   0  0  0  0  0  0  0  0  0  0  0  0
   10.7669  -17.2038   28.7508 O   0  0  0  0  0  0  0  0  0  0  0  0
    8.2847  -13.6538   27.0053 C   0  0  0  0  0  0  0  0  0  0  0  0
    7.6788  -12.4859   26.5933 C   0  0  0  0  0  0  0  0  0  0  0  0
   10.5095  -18.5917   26.9849 O   0  0  0  0  0  0  0  0  0  0  0  0
  2  1  1  1
  3  2  1  0
  4  2  1  0
  4  5  1  6
  6  4  1  0
  7  6  2  0
  8  6  1  0
  9  8  1  0
 10 11  1  0
  9 10  1  6
 12 16  1  0
 12 11  1  0
 13 12  2  0
 14 24  1  0
 14  9  1  0
 15 14  2  0
 18 17  1  0
 19 18  2  0
 20 19  1  0
 21 27  1  0
 21 20  2  0
 23 22  1  1
 22 21  1  0
 23 25  1  0
 23 24  1  0
 25 26  1  0
 27 28  2  0
 28 18  1  0
 29 25  2  0
M  END
$$$$
