VEY.pdb
     RDKit          3D

 29 29  0  0  1  0  0  0  0  0999 V2000
    6.8397  -13.5351   19.9636 C   0  0  0  0  0  0  0  0  0  0  0  0
    7.7589  -14.0656   18.8912 C   0  0  1  0  0  0  0  0  0  0  0  0
    7.7076  -13.0970   17.7222 C   0  0  0  0  0  0  0  0  0  0  0  0
    9.1920  -14.1374   19.3440 C   0  0  2  0  0  0  0  0  0  0  0  0
    9.9886  -14.5993   18.2278 N   0  0  0  0  0  0  0  0  0  0  0  0
    9.4080  -15.0092   20.4954 C   0  0  0  0  0  0  0  0  0  0  0  0
    8.7658  -14.9023   21.5866 O   0  0  0  0  0  0  0  0  0  0  0  0
   10.3835  -16.0350   20.4067 N   0  0  0  0  0  0  0  0  0  0  0  0
   10.6698  -16.9288   21.5411 C   0  0  1  0  0  0  0  0  0  0  0  0
   11.8111  -17.8237   21.2563 C   0  0  0  0  0  0  0  0  0  0  0  0
   12.1620  -18.8616   22.2316 C   0  0  0  0  0  0  0  0  0  0  0  0
   13.2882  -19.7396   22.0250 C   0  0  0  0  0  0  0  0  0  0  0  0
   13.2178  -20.8872   21.5647 O   0  0  0  0  0  0  0  0  0  0  0  0
   10.7157  -16.2020   22.7901 C   0  0  0  0  0  0  0  0  0  0  0  0
   11.3737  -15.1460   22.9023 O   0  0  0  0  0  0  0  0  0  0  0  0
   14.6003  -19.3198   22.3519 O   0  0  0  0  0  0  0  0  0  0  0  0
    6.2274  -11.1241   27.8479 O   0  0  0  0  0  0  0  0  0  0  0  0
    6.7877  -12.0775   27.0022 C   0  0  0  0  0  0  0  0  0  0  0  0
    8.0211  -11.8944   26.4505 C   0  0  0  0  0  0  0  0  0  0  0  0
    8.5432  -12.8810   25.6060 C   0  0  0  0  0  0  0  0  0  0  0  0
    7.8254  -14.0284   25.3295 C   0  0  0  0  0  0  0  0  0  0  0  0
    8.4076  -15.0253   24.4440 C   0  0  0  0  0  0  0  0  0  0  0  0
    9.5600  -15.8131   25.0121 C   0  0  2  0  0  0  0  0  0  0  0  0
    9.9972  -16.6860   23.9108 N   0  0  0  0  0  0  0  0  0  0  0  0
    9.0974  -16.6377   26.1510 C   0  0  0  0  0  0  0  0  0  0  0  0
    9.2383  -16.1997   27.4584 O   0  0  0  0  0  0  0  0  0  0  0  0
    6.5745  -14.2021   25.8960 C   0  0  0  0  0  0  0  0  0  0  0  0
    6.0635  -13.2281   26.7274 C   0  0  0  0  0  0  0  0  0  0  0  0
    8.5636  -17.7594   25.9675 O   0  0  0  0  0  0  0  0  0  0  0  0
  2  1  1  1
  3  2  1  0
  4  2  1  0
  4  5  1  6
  6  4  1  0
  7  6  2  0
  8  6  1  0
  9  8  1  0
 10 11  1  0
  9 10  1  6
 12 16  1  0
 12 11  1  0
 13 12  2  0
 14 24  1  0
 14  9  1  0
 15 14  2  0
 18 17  1  0
 19 18  2  0
 20 19  1  0
 21 27  1  0
 21 20  2  0
 23 22  1  6
 22 21  1  0
 23 25  1  0
 23 24  1  0
 25 26  1  0
 27 28  2  0
 28 18  1  0
 29 25  2  0
M  END
$$$$
