VEY.pdb
     RDKit          3D

 29 29  0  0  1  0  0  0  0  0999 V2000
    7.8597  -12.4059   19.4715 C   0  0  0  0  0  0  0  0  0  0  0  0
    8.2797  -13.3541   20.5673 C   0  0  1  0  0  0  0  0  0  0  0  0
    7.2098  -13.3134   21.6448 C   0  0  0  0  0  0  0  0  0  0  0  0
    8.3753  -14.7785   20.0920 C   0  0  2  0  0  0  0  0  0  0  0  0
    7.0942  -15.1465   19.5285 N   0  0  0  0  0  0  0  0  0  0  0  0
    8.7434  -15.7298   21.1370 C   0  0  0  0  0  0  0  0  0  0  0  0
    7.9011  -16.4511   21.7574 O   0  0  0  0  0  0  0  0  0  0  0  0
   10.1102  -15.8676   21.4898 N   0  0  0  0  0  0  0  0  0  0  0  0
   10.5602  -16.8845   22.4547 C   0  0  1  0  0  0  0  0  0  0  0  0
   11.8051  -17.5457   22.0102 C   0  0  0  0  0  0  0  0  0  0  0  0
   12.3590  -18.6368   22.8189 C   0  0  0  0  0  0  0  0  0  0  0  0
   13.5765  -19.3122   22.4401 C   0  0  0  0  0  0  0  0  0  0  0  0
   14.6935  -19.0858   22.9248 O   0  0  0  0  0  0  0  0  0  0  0  0
   10.5483  -16.3736   23.8072 C   0  0  0  0  0  0  0  0  0  0  0  0
   11.3576  -15.4964   24.1765 O   0  0  0  0  0  0  0  0  0  0  0  0
   13.5636  -20.3199   21.4456 O   0  0  0  0  0  0  0  0  0  0  0  0
    6.6140  -10.6868   26.2391 O   0  0  0  0  0  0  0  0  0  0  0  0
    6.9576  -12.0354   26.2710 C   0  0  0  0  0  0  0  0  0  0  0  0
    6.0152  -13.0081   26.1134 C   0  0  0  0  0  0  0  0  0  0  0  0
    6.4084  -14.3509   26.1530 C   0  0  0  0  0  0  0  0  0  0  0  0
    7.7317  -14.6954   26.3488 C   0  0  0  0  0  0  0  0  0  0  0  0
    8.0931  -16.1042   26.3851 C   0  0  0  0  0  0  0  0  0  0  0  0
    9.5467  -16.4143   26.1352 C   0  0  2  0  0  0  0  0  0  0  0  0
    9.5989  -16.8667   24.7356 N   0  0  0  0  0  0  0  0  0  0  0  0
    9.9934  -17.5049   27.0308 C   0  0  0  0  0  0  0  0  0  0  0  0
   10.3880  -17.2473   28.3342 O   0  0  0  0  0  0  0  0  0  0  0  0
    8.6786  -13.6984   26.5074 C   0  0  0  0  0  0  0  0  0  0  0  0
    8.2875  -12.3768   26.4678 C   0  0  0  0  0  0  0  0  0  0  0  0
   10.0287  -18.6967   26.6369 O   0  0  0  0  0  0  0  0  0  0  0  0
  2  1  1  6
  3  2  1  0
  4  2  1  0
  4  5  1  1
  6  4  1  0
  7  6  2  0
  8  6  1  0
  9  8  1  0
 10 11  1  0
  9 10  1  6
 12 16  1  0
 12 11  1  0
 13 12  2  0
 14 24  1  0
 14  9  1  0
 15 14  2  0
 18 17  1  0
 19 18  2  0
 20 19  1  0
 21 27  1  0
 21 20  2  0
 23 22  1  1
 22 21  1  0
 23 25  1  0
 23 24  1  0
 25 26  1  0
 27 28  2  0
 28 18  1  0
 29 25  2  0
M  END
$$$$
