VEY.pdb
     RDKit          3D

 29 29  0  0  1  0  0  0  0  0999 V2000
    8.3673  -12.8912   21.7717 C   0  0  0  0  0  0  0  0  0  0  0  0
    7.3177  -13.8482   21.2630 C   0  0  1  0  0  0  0  0  0  0  0  0
    6.6013  -13.1717   20.1069 C   0  0  0  0  0  0  0  0  0  0  0  0
    7.9106  -15.1244   20.7304 C   0  0  2  0  0  0  0  0  0  0  0  0
    6.8650  -15.8455   20.0371 N   0  0  0  0  0  0  0  0  0  0  0  0
    8.4990  -15.9797   21.7574 C   0  0  0  0  0  0  0  0  0  0  0  0
    7.8292  -16.8117   22.4456 O   0  0  0  0  0  0  0  0  0  0  0  0
    9.8912  -15.8887   22.0121 N   0  0  0  0  0  0  0  0  0  0  0  0
   10.5676  -16.8061   22.9441 C   0  0  1  0  0  0  0  0  0  0  0  0
   11.8729  -17.2558   22.4164 C   0  0  0  0  0  0  0  0  0  0  0  0
   12.6757  -18.1935   23.2087 C   0  0  0  0  0  0  0  0  0  0  0  0
   13.9788  -18.6286   22.7678 C   0  0  0  0  0  0  0  0  0  0  0  0
   14.6222  -19.5611   23.2684 O   0  0  0  0  0  0  0  0  0  0  0  0
   10.5609  -16.2896   24.2945 C   0  0  0  0  0  0  0  0  0  0  0  0
   11.1804  -15.2467   24.5934 O   0  0  0  0  0  0  0  0  0  0  0  0
   14.6275  -17.9843   21.6867 O   0  0  0  0  0  0  0  0  0  0  0  0
    6.5465  -11.1582   26.0817 O   0  0  0  0  0  0  0  0  0  0  0  0
    7.0079  -12.4478   26.3305 C   0  0  0  0  0  0  0  0  0  0  0  0
    6.2851  -13.5412   25.9548 C   0  0  0  0  0  0  0  0  0  0  0  0
    6.7899  -14.8182   26.2264 C   0  0  0  0  0  0  0  0  0  0  0  0
    8.0035  -14.9781   26.8664 C   0  0  0  0  0  0  0  0  0  0  0  0
    8.4869  -16.3248   27.1299 C   0  0  0  0  0  0  0  0  0  0  0  0
    9.9123  -16.6002   26.7250 C   0  0  2  0  0  0  0  0  0  0  0  0
    9.8340  -16.9694   25.3025 N   0  0  0  0  0  0  0  0  0  0  0  0
   10.4512  -17.7350   27.5078 C   0  0  0  0  0  0  0  0  0  0  0  0
   10.7893  -18.9323   26.8968 O   0  0  0  0  0  0  0  0  0  0  0  0
    8.7275  -13.8600   27.2425 C   0  0  0  0  0  0  0  0  0  0  0  0
    8.2271  -12.6038   26.9733 C   0  0  0  0  0  0  0  0  0  0  0  0
   10.6182  -17.6479   28.7493 O   0  0  0  0  0  0  0  0  0  0  0  0
  2  1  1  6
  3  2  1  0
  4  2  1  0
  4  5  1  1
  6  4  1  0
  7  6  2  0
  8  6  1  0
  9  8  1  0
 10 11  1  0
  9 10  1  6
 12 16  1  0
 12 11  1  0
 13 12  2  0
 14 24  1  0
 14  9  1  0
 15 14  2  0
 18 17  1  0
 19 18  2  0
 20 19  1  0
 21 27  1  0
 21 20  2  0
 23 22  1  1
 22 21  1  0
 23 25  1  0
 23 24  1  0
 25 26  1  0
 27 28  2  0
 28 18  1  0
 29 25  2  0
M  END
$$$$
