VEY.pdb
     RDKit          3D

 29 29  0  0  1  0  0  0  0  0999 V2000
    6.3942  -13.6955   21.1912 C   0  0  0  0  0  0  0  0  0  0  0  0
    7.4853  -14.1040   20.2326 C   0  0  1  0  0  0  0  0  0  0  0  0
    7.4519  -13.1385   19.0605 C   0  0  0  0  0  0  0  0  0  0  0  0
    8.8563  -14.0093   20.8453 C   0  0  2  0  0  0  0  0  0  0  0  0
    9.8277  -14.2661   19.8039 N   0  0  0  0  0  0  0  0  0  0  0  0
    9.0744  -14.9295   21.9579 C   0  0  0  0  0  0  0  0  0  0  0  0
    8.3194  -14.9880   22.9783 O   0  0  0  0  0  0  0  0  0  0  0  0
   10.1840  -15.8116   21.9122 N   0  0  0  0  0  0  0  0  0  0  0  0
   10.3753  -16.8655   22.9224 C   0  0  1  0  0  0  0  0  0  0  0  0
   11.4317  -17.8189   22.5232 C   0  0  0  0  0  0  0  0  0  0  0  0
   11.7157  -18.9692   23.3881 C   0  0  0  0  0  0  0  0  0  0  0  0
   12.7429  -19.9263   23.0554 C   0  0  0  0  0  0  0  0  0  0  0  0
   13.9184  -19.8681   23.4408 O   0  0  0  0  0  0  0  0  0  0  0  0
   10.4759  -16.3111   24.2539 C   0  0  0  0  0  0  0  0  0  0  0  0
   11.2872  -15.3982   24.5170 O   0  0  0  0  0  0  0  0  0  0  0  0
   12.4522  -21.0396   22.2302 O   0  0  0  0  0  0  0  0  0  0  0  0
    5.9926  -11.2237   25.7067 O   0  0  0  0  0  0  0  0  0  0  0  0
    6.5820  -12.4318   26.0688 C   0  0  0  0  0  0  0  0  0  0  0  0
    7.7121  -12.4658   26.8308 C   0  0  0  0  0  0  0  0  0  0  0  0
    8.2686  -13.7046   27.1697 C   0  0  0  0  0  0  0  0  0  0  0  0
    7.6872  -14.8824   26.7421 C   0  0  0  0  0  0  0  0  0  0  0  0
    8.3025  -16.1464   27.1170 C   0  0  0  0  0  0  0  0  0  0  0  0
    9.7315  -16.3354   26.6767 C   0  0  2  0  0  0  0  0  0  0  0  0
    9.6367  -16.8021   25.2840 N   0  0  0  0  0  0  0  0  0  0  0  0
   10.3851  -17.3710   27.5082 C   0  0  0  0  0  0  0  0  0  0  0  0
   10.7246  -18.6067   26.9802 O   0  0  0  0  0  0  0  0  0  0  0  0
    6.5401  -14.8341   25.9691 C   0  0  0  0  0  0  0  0  0  0  0  0
    5.9948  -13.6120   25.6373 C   0  0  0  0  0  0  0  0  0  0  0  0
   10.6517  -17.1617   28.7173 O   0  0  0  0  0  0  0  0  0  0  0  0
  2  1  1  1
  3  2  1  0
  4  2  1  0
  4  5  1  6
  6  4  1  0
  7  6  2  0
  8  6  1  0
  9  8  1  0
 10 11  1  0
  9 10  1  6
 12 16  1  0
 12 11  1  0
 13 12  2  0
 14 24  1  0
 14  9  1  0
 15 14  2  0
 18 17  1  0
 19 18  2  0
 20 19  1  0
 21 27  1  0
 21 20  2  0
 23 22  1  1
 22 21  1  0
 23 25  1  0
 23 24  1  0
 25 26  1  0
 27 28  2  0
 28 18  1  0
 29 25  2  0
M  END
$$$$
