VEY.pdb
     RDKit          3D

 29 29  0  0  1  0  0  0  0  0999 V2000
    6.8380  -13.6544   20.0965 C   0  0  0  0  0  0  0  0  0  0  0  0
    7.7493  -14.1952   21.1705 C   0  0  1  0  0  0  0  0  0  0  0  0
    6.9781  -14.1769   22.4790 C   0  0  0  0  0  0  0  0  0  0  0  0
    8.1568  -15.6212   20.9167 C   0  0  2  0  0  0  0  0  0  0  0  0
    6.9523  -16.4032   20.7387 N   0  0  0  0  0  0  0  0  0  0  0  0
    8.9685  -16.2052   21.9809 C   0  0  0  0  0  0  0  0  0  0  0  0
    8.4897  -16.9177   22.9177 O   0  0  0  0  0  0  0  0  0  0  0  0
   10.3678  -15.9737   21.9830 N   0  0  0  0  0  0  0  0  0  0  0  0
   11.2270  -16.4449   23.0819 C   0  0  1  0  0  0  0  0  0  0  0  0
   12.6581  -16.3944   22.7158 C   0  0  0  0  0  0  0  0  0  0  0  0
   13.6537  -16.9029   23.6654 C   0  0  0  0  0  0  0  0  0  0  0  0
   15.0616  -16.9090   23.3496 C   0  0  0  0  0  0  0  0  0  0  0  0
   15.9119  -17.6112   23.9133 O   0  0  0  0  0  0  0  0  0  0  0  0
   10.8609  -15.8341   24.3401 C   0  0  0  0  0  0  0  0  0  0  0  0
   10.5835  -14.6182   24.4147 O   0  0  0  0  0  0  0  0  0  0  0  0
   15.5761  -16.0733   22.3291 O   0  0  0  0  0  0  0  0  0  0  0  0
    5.4937  -11.6881   26.2203 O   0  0  0  0  0  0  0  0  0  0  0  0
    6.2382  -12.8644   26.2326 C   0  0  0  0  0  0  0  0  0  0  0  0
    5.6399  -14.0770   26.4076 C   0  0  0  0  0  0  0  0  0  0  0  0
    6.4299  -15.2324   26.4127 C   0  0  0  0  0  0  0  0  0  0  0  0
    7.7986  -15.1547   26.2434 C   0  0  0  0  0  0  0  0  0  0  0  0
    8.5794  -16.3822   26.2583 C   0  0  0  0  0  0  0  0  0  0  0  0
   10.0150  -16.2403   26.6947 C   0  0  2  0  0  0  0  0  0  0  0  0
   10.8060  -16.6243   25.5144 N   0  0  0  0  0  0  0  0  0  0  0  0
   10.2993  -17.1691   27.8116 C   0  0  0  0  0  0  0  0  0  0  0  0
   11.0664  -18.3076   27.6210 O   0  0  0  0  0  0  0  0  0  0  0  0
    8.3937  -13.9176   26.0666 C   0  0  0  0  0  0  0  0  0  0  0  0
    7.6122  -12.7817   26.0621 C   0  0  0  0  0  0  0  0  0  0  0  0
    9.8539  -16.9541   28.9659 O   0  0  0  0  0  0  0  0  0  0  0  0
  2  1  1  6
  3  2  1  0
  4  2  1  0
  4  5  1  1
  6  4  1  0
  7  6  2  0
  8  6  1  0
  9  8  1  0
 10 11  1  0
  9 10  1  6
 12 16  1  0
 12 11  1  0
 13 12  2  0
 14 24  1  0
 14  9  1  0
 15 14  2  0
 18 17  1  0
 19 18  2  0
 20 19  1  0
 21 27  1  0
 21 20  2  0
 23 22  1  6
 22 21  1  0
 23 25  1  0
 23 24  1  0
 25 26  1  0
 27 28  2  0
 28 18  1  0
 29 25  2  0
M  END
$$$$
