VEY.pdb
     RDKit          3D

 29 29  0  0  1  0  0  0  0  0999 V2000
    8.1457  -12.1260   19.3458 C   0  0  0  0  0  0  0  0  0  0  0  0
    8.4314  -13.1177   20.4464 C   0  0  1  0  0  0  0  0  0  0  0  0
    7.3888  -12.9119   21.5317 C   0  0  0  0  0  0  0  0  0  0  0  0
    8.3119  -14.5440   19.9826 C   0  0  2  0  0  0  0  0  0  0  0  0
    7.0170  -14.7013   19.3563 N   0  0  0  0  0  0  0  0  0  0  0  0
    8.4645  -15.5300   21.0490 C   0  0  0  0  0  0  0  0  0  0  0  0
    7.4843  -16.0927   21.6296 O   0  0  0  0  0  0  0  0  0  0  0  0
    9.7702  -15.8891   21.4705 N   0  0  0  0  0  0  0  0  0  0  0  0
    9.9972  -16.9652   22.4494 C   0  0  1  0  0  0  0  0  0  0  0  0
   11.0431  -17.9052   21.9945 C   0  0  0  0  0  0  0  0  0  0  0  0
   11.3645  -19.0692   22.8272 C   0  0  0  0  0  0  0  0  0  0  0  0
   12.4232  -19.9820   22.4696 C   0  0  0  0  0  0  0  0  0  0  0  0
   13.0065  -19.9986   21.3772 O   0  0  0  0  0  0  0  0  0  0  0  0
   10.1391  -16.4413   23.7895 C   0  0  0  0  0  0  0  0  0  0  0  0
   10.9507  -15.5267   24.0460 O   0  0  0  0  0  0  0  0  0  0  0  0
   12.8775  -20.9570   23.3903 O   0  0  0  0  0  0  0  0  0  0  0  0
    5.9226  -11.1626   25.9588 O   0  0  0  0  0  0  0  0  0  0  0  0
    6.4316  -12.4468   26.1307 C   0  0  0  0  0  0  0  0  0  0  0  0
    5.7645  -13.5395   25.6615 C   0  0  0  0  0  0  0  0  0  0  0  0
    6.3158  -14.8109   25.8581 C   0  0  0  0  0  0  0  0  0  0  0  0
    7.5194  -14.9662   26.5179 C   0  0  0  0  0  0  0  0  0  0  0  0
    8.0525  -16.3074   26.7011 C   0  0  0  0  0  0  0  0  0  0  0  0
    9.4694  -16.5189   26.2328 C   0  0  2  0  0  0  0  0  0  0  0  0
    9.3406  -16.9645   24.8360 N   0  0  0  0  0  0  0  0  0  0  0  0
   10.1165  -17.5787   27.0386 C   0  0  0  0  0  0  0  0  0  0  0  0
   10.6048  -17.3172   28.3091 O   0  0  0  0  0  0  0  0  0  0  0  0
    8.1867  -13.8488   26.9893 C   0  0  0  0  0  0  0  0  0  0  0  0
    7.6405  -12.5980   26.7936 C   0  0  0  0  0  0  0  0  0  0  0  0
   10.2431  -18.7468   26.5955 O   0  0  0  0  0  0  0  0  0  0  0  0
  2  1  1  6
  3  2  1  0
  4  2  1  0
  4  5  1  1
  6  4  1  0
  7  6  2  0
  8  6  1  0
  9  8  1  0
 10 11  1  0
  9 10  1  6
 12 16  1  0
 12 11  1  0
 13 12  2  0
 14 24  1  0
 14  9  1  0
 15 14  2  0
 18 17  1  0
 19 18  2  0
 20 19  1  0
 21 27  1  0
 21 20  2  0
 23 22  1  1
 22 21  1  0
 23 25  1  0
 23 24  1  0
 25 26  1  0
 27 28  2  0
 28 18  1  0
 29 25  2  0
M  END
$$$$
