VEY.pdb
     RDKit          3D

 29 29  0  0  1  0  0  0  0  0999 V2000
    8.4419  -12.6700   21.3423 C   0  0  0  0  0  0  0  0  0  0  0  0
    7.6877  -13.3810   20.2459 C   0  0  1  0  0  0  0  0  0  0  0  0
    7.5878  -12.4295   19.0660 C   0  0  0  0  0  0  0  0  0  0  0  0
    8.4012  -14.6138   19.7611 C   0  0  2  0  0  0  0  0  0  0  0  0
    7.6862  -15.1174   18.6083 N   0  0  0  0  0  0  0  0  0  0  0  0
    8.5163  -15.6671   20.7661 C   0  0  0  0  0  0  0  0  0  0  0  0
    7.5570  -16.4342   21.0913 O   0  0  0  0  0  0  0  0  0  0  0  0
    9.7588  -15.8564   21.4234 N   0  0  0  0  0  0  0  0  0  0  0  0
    9.9363  -16.8896   22.4571 C   0  0  1  0  0  0  0  0  0  0  0  0
   10.9441  -17.8941   22.0574 C   0  0  0  0  0  0  0  0  0  0  0  0
   11.7008  -17.6884   20.8178 C   0  0  0  0  0  0  0  0  0  0  0  0
   12.3695  -18.7809   20.1534 C   0  0  0  0  0  0  0  0  0  0  0  0
   13.5932  -18.8641   19.9815 O   0  0  0  0  0  0  0  0  0  0  0  0
   10.0938  -16.3044   23.7698 C   0  0  0  0  0  0  0  0  0  0  0  0
   10.9397  -15.4103   23.9842 O   0  0  0  0  0  0  0  0  0  0  0  0
   11.6304  -19.8718   19.6354 O   0  0  0  0  0  0  0  0  0  0  0  0
    5.8646  -10.8756   26.1379 O   0  0  0  0  0  0  0  0  0  0  0  0
    6.3744  -12.1643   26.2692 C   0  0  0  0  0  0  0  0  0  0  0  0
    5.6136  -13.2578   25.9781 C   0  0  0  0  0  0  0  0  0  0  0  0
    6.1696  -14.5338   26.1254 C   0  0  0  0  0  0  0  0  0  0  0  0
    7.4713  -14.6928   26.5596 C   0  0  0  0  0  0  0  0  0  0  0  0
    8.0057  -16.0387   26.7001 C   0  0  0  0  0  0  0  0  0  0  0  0
    9.4176  -16.2372   26.2116 C   0  0  2  0  0  0  0  0  0  0  0  0
    9.2719  -16.7425   24.8370 N   0  0  0  0  0  0  0  0  0  0  0  0
   10.1051  -17.2481   27.0462 C   0  0  0  0  0  0  0  0  0  0  0  0
   10.6611  -16.9107   28.2702 O   0  0  0  0  0  0  0  0  0  0  0  0
    8.2330  -13.5747   26.8518 C   0  0  0  0  0  0  0  0  0  0  0  0
    7.6819  -12.3194   26.7054 C   0  0  0  0  0  0  0  0  0  0  0  0
   10.2059  -18.4421   26.6706 O   0  0  0  0  0  0  0  0  0  0  0  0
  2  1  1  1
  3  2  1  0
  4  2  1  0
  4  5  1  6
  6  4  1  0
  7  6  2  0
  8  6  1  0
  9  8  1  0
 10 11  1  0
  9 10  1  6
 12 16  1  0
 12 11  1  0
 13 12  2  0
 14 24  1  0
 14  9  1  0
 15 14  2  0
 18 17  1  0
 19 18  2  0
 20 19  1  0
 21 27  1  0
 21 20  2  0
 23 22  1  1
 22 21  1  0
 23 25  1  0
 23 24  1  0
 25 26  1  0
 27 28  2  0
 28 18  1  0
 29 25  2  0
M  END
$$$$
