VEY.pdb
     RDKit          3D

 29 29  0  0  1  0  0  0  0  0999 V2000
    7.8356  -12.3754   21.3943 C   0  0  0  0  0  0  0  0  0  0  0  0
    7.6483  -13.3609   20.2673 C   0  0  1  0  0  0  0  0  0  0  0  0
    7.7175  -12.5853   18.9630 C   0  0  0  0  0  0  0  0  0  0  0  0
    8.7361  -14.3995   20.2228 C   0  0  2  0  0  0  0  0  0  0  0  0
    8.6017  -15.1318   18.9820 N   0  0  0  0  0  0  0  0  0  0  0  0
    8.7141  -15.3309   21.3474 C   0  0  0  0  0  0  0  0  0  0  0  0
    7.8140  -15.3267   22.2442 O   0  0  0  0  0  0  0  0  0  0  0  0
    9.7459  -16.2976   21.4587 N   0  0  0  0  0  0  0  0  0  0  0  0
    9.7946  -17.2497   22.5807 C   0  0  1  0  0  0  0  0  0  0  0  0
   10.6645  -18.4057   22.2782 C   0  0  0  0  0  0  0  0  0  0  0  0
   10.8041  -19.4714   23.2764 C   0  0  0  0  0  0  0  0  0  0  0  0
   11.6885  -20.5915   23.0638 C   0  0  0  0  0  0  0  0  0  0  0  0
   12.1178  -21.3356   23.9558 O   0  0  0  0  0  0  0  0  0  0  0  0
   10.0312  -16.5756   23.8377 C   0  0  0  0  0  0  0  0  0  0  0  0
   10.9119  -15.6963   23.9467 O   0  0  0  0  0  0  0  0  0  0  0  0
   12.1374  -20.9197   21.7617 O   0  0  0  0  0  0  0  0  0  0  0  0
    6.0323  -11.0051   25.8967 O   0  0  0  0  0  0  0  0  0  0  0  0
    6.5790  -12.2592   26.1542 C   0  0  0  0  0  0  0  0  0  0  0  0
    7.8460  -12.3909   26.6406 C   0  0  0  0  0  0  0  0  0  0  0  0
    8.3527  -13.6727   26.8841 C   0  0  0  0  0  0  0  0  0  0  0  0
    7.5865  -14.7953   26.6377 C   0  0  0  0  0  0  0  0  0  0  0  0
    8.1563  -16.1073   26.9036 C   0  0  0  0  0  0  0  0  0  0  0  0
    9.5182  -16.3624   26.3108 C   0  0  2  0  0  0  0  0  0  0  0  0
    9.2483  -16.9076   24.9706 N   0  0  0  0  0  0  0  0  0  0  0  0
   10.2443  -17.3653   27.1222 C   0  0  0  0  0  0  0  0  0  0  0  0
   10.5046  -18.6345   26.6301 O   0  0  0  0  0  0  0  0  0  0  0  0
    6.3018  -14.6479   26.1440 C   0  0  0  0  0  0  0  0  0  0  0  0
    5.8060  -13.3837   25.9054 C   0  0  0  0  0  0  0  0  0  0  0  0
   10.6461  -17.0967   28.2811 O   0  0  0  0  0  0  0  0  0  0  0  0
  2  1  1  1
  3  2  1  0
  4  2  1  0
  4  5  1  6
  6  4  1  0
  7  6  2  0
  8  6  1  0
  9  8  1  0
 10 11  1  0
  9 10  1  6
 12 16  1  0
 12 11  1  0
 13 12  2  0
 14 24  1  0
 14  9  1  0
 15 14  2  0
 18 17  1  0
 19 18  2  0
 20 19  1  0
 21 27  1  0
 21 20  2  0
 23 22  1  1
 22 21  1  0
 23 25  1  0
 23 24  1  0
 25 26  1  0
 27 28  2  0
 28 18  1  0
 29 25  2  0
M  END
$$$$
