VEY.pdb
     RDKit          3D

 29 29  0  0  1  0  0  0  0  0999 V2000
    8.7831  -12.7201   20.3753 C   0  0  0  0  0  0  0  0  0  0  0  0
    7.6361  -13.4439   19.7144 C   0  0  1  0  0  0  0  0  0  0  0  0
    7.0886  -12.5383   18.6247 C   0  0  0  0  0  0  0  0  0  0  0  0
    8.0676  -14.7237   19.0510 C   0  0  2  0  0  0  0  0  0  0  0  0
    6.9061  -15.3105   18.4183 N   0  0  0  0  0  0  0  0  0  0  0  0
    8.6711  -15.6912   19.9633 C   0  0  0  0  0  0  0  0  0  0  0  0
    8.0028  -16.3877   20.7897 O   0  0  0  0  0  0  0  0  0  0  0  0
   10.0772  -15.8748   19.9377 N   0  0  0  0  0  0  0  0  0  0  0  0
   10.7507  -16.8113   20.8526 C   0  0  1  0  0  0  0  0  0  0  0  0
   11.8102  -17.5791   20.1651 C   0  0  0  0  0  0  0  0  0  0  0  0
   12.6287  -18.5154   20.9428 C   0  0  0  0  0  0  0  0  0  0  0  0
   13.6929  -19.2736   20.3306 C   0  0  0  0  0  0  0  0  0  0  0  0
   14.8359  -18.8470   20.1174 O   0  0  0  0  0  0  0  0  0  0  0  0
   11.1222  -16.1664   22.0921 C   0  0  0  0  0  0  0  0  0  0  0  0
   11.8494  -15.1505   22.1023 O   0  0  0  0  0  0  0  0  0  0  0  0
   13.4816  -20.6118   19.9192 O   0  0  0  0  0  0  0  0  0  0  0  0
   10.4805  -14.6596   30.8443 O   0  0  0  0  0  0  0  0  0  0  0  0
   10.3123  -15.0108   29.5078 C   0  0  0  0  0  0  0  0  0  0  0  0
    9.9006  -14.0965   28.5838 C   0  0  0  0  0  0  0  0  0  0  0  0
    9.7456  -14.4964   27.2514 C   0  0  0  0  0  0  0  0  0  0  0  0
   10.0040  -15.7982   26.8685 C   0  0  0  0  0  0  0  0  0  0  0  0
    9.8266  -16.1685   25.4728 C   0  0  0  0  0  0  0  0  0  0  0  0
   11.0734  -16.1491   24.6262 C   0  0  2  0  0  0  0  0  0  0  0  0
   10.6506  -16.6858   23.3226 N   0  0  0  0  0  0  0  0  0  0  0  0
   12.1031  -17.0310   25.2205 C   0  0  0  0  0  0  0  0  0  0  0  0
   13.1700  -16.5089   25.9346 O   0  0  0  0  0  0  0  0  0  0  0  0
   10.4214  -16.7166   27.8162 C   0  0  0  0  0  0  0  0  0  0  0  0
   10.5729  -16.3190   29.1277 C   0  0  0  0  0  0  0  0  0  0  0  0
   12.0415  -18.2789   25.0954 O   0  0  0  0  0  0  0  0  0  0  0  0
  2  1  1  6
  3  2  1  0
  4  2  1  0
  4  5  1  1
  6  4  1  0
  7  6  2  0
  8  6  1  0
  9  8  1  0
 10 11  1  0
  9 10  1  6
 12 16  1  0
 12 11  1  0
 13 12  2  0
 14 24  1  0
 14  9  1  0
 15 14  2  0
 18 17  1  0
 19 18  2  0
 20 19  1  0
 21 27  1  0
 21 20  2  0
 23 22  1  1
 22 21  1  0
 23 25  1  0
 23 24  1  0
 25 26  1  0
 27 28  2  0
 28 18  1  0
 29 25  2  0
M  END
$$$$
