MGF.pdb
     RDKit          3D

 24 24  0  0  1  0  0  0  0  0999 V2000
   29.5845  -17.4390  -17.0829 C   0  0  0  0  0  0  0  0  0  0  0  0
   28.6080  -18.7684  -17.8215 S   0  0  0  0  0  0  0  0  0  0  0  0
   29.6337  -20.2235  -18.2067 C   0  0  0  0  0  0  0  0  0  0  0  0
   28.7408  -21.2855  -18.7732 C   0  0  0  0  0  0  0  0  0  0  0  0
   27.6010  -21.6071  -17.8393 C   0  0  2  0  0  0  0  0  0  0  0  0
   28.2545  -22.3261  -16.7137 N   0  0  0  0  0  0  0  0  0  0  0  0
   26.5863  -22.5073  -18.3835 C   0  0  0  0  0  0  0  0  0  0  0  0
   26.9901  -23.4483  -19.1613 O   0  0  0  0  0  0  0  0  0  0  0  0
   25.1974  -22.4301  -18.1233 N   0  0  0  0  0  0  0  0  0  0  0  0
   24.3107  -23.3737  -18.7379 C   0  0  0  0  0  0  0  0  0  0  0  0
   23.8071  -24.3939  -17.7926 C   0  0  0  0  0  0  0  0  0  0  0  0
   24.1735  -25.5930  -17.9412 O   0  0  0  0  0  0  0  0  0  0  0  0
   22.9278  -24.0799  -16.7243 N   0  0  0  0  0  0  0  0  0  0  0  0
   22.6148  -25.0338  -15.6614 C   0  0  1  0  0  0  0  0  0  0  0  0
   23.5229  -24.8487  -14.4834 C   0  0  0  0  0  0  0  0  0  0  0  0
   23.5875  -23.4563  -13.9932 C   0  0  0  0  0  0  0  0  0  0  0  0
   22.5416  -22.8902  -13.2573 C   0  0  0  0  0  0  0  0  0  0  0  0
   22.5922  -21.5968  -12.7816 C   0  0  0  0  0  0  0  0  0  0  0  0
   23.6952  -20.8060  -13.0207 C   0  0  0  0  0  0  0  0  0  0  0  0
   24.7309  -21.3518  -13.7437 C   0  0  0  0  0  0  0  0  0  0  0  0
   24.6835  -22.6559  -14.2250 C   0  0  0  0  0  0  0  0  0  0  0  0
   21.1814  -24.9975  -15.3192 C   0  0  0  0  0  0  0  0  0  0  0  0
   20.3828  -23.9241  -15.6791 O   0  0  0  0  0  0  0  0  0  0  0  0
   20.6748  -25.9509  -14.6929 O   0  0  0  0  0  0  0  0  0  0  0  0
  2  3  1  0
  2  1  1  0
  4  3  1  0
  4  5  1  0
  5  6  1  1
  7  5  1  0
  7  9  1  0
  8  7  2  0
 10  9  1  0
 10 11  1  0
 11 12  2  0
 11 13  1  0
 13 14  1  0
 14 15  1  1
 14 22  1  0
 15 16  1  0
 16 17  2  0
 17 18  1  0
 19 18  2  0
 20 19  1  0
 21 20  2  0
 21 16  1  0
 22 23  1  0
 24 22  2  0
M  END
$$$$
