MGF.pdb
     RDKit          3D

 24 24  0  0  1  0  0  0  0  0999 V2000
   22.8417  -24.8428  -13.9011 C   0  0  0  0  0  0  0  0  0  0  0  0
   24.5481  -24.4424  -14.3418 S   0  0  0  0  0  0  0  0  0  0  0  0
   24.8763  -22.6556  -14.2098 C   0  0  0  0  0  0  0  0  0  0  0  0
   23.5949  -21.9260  -14.4771 C   0  0  0  0  0  0  0  0  0  0  0  0
   23.7765  -20.4321  -14.3759 C   0  0  2  0  0  0  0  0  0  0  0  0
   24.8258  -20.1316  -15.3857 N   0  0  0  0  0  0  0  0  0  0  0  0
   24.2780  -19.9524  -13.0896 C   0  0  0  0  0  0  0  0  0  0  0  0
   23.4569  -19.9531  -12.1001 O   0  0  0  0  0  0  0  0  0  0  0  0
   25.5925  -19.4896  -12.8432 N   0  0  0  0  0  0  0  0  0  0  0  0
   25.9528  -19.0568  -11.5252 C   0  0  0  0  0  0  0  0  0  0  0  0
   26.2087  -20.1804  -10.5979 C   0  0  0  0  0  0  0  0  0  0  0  0
   26.1732  -21.3596  -11.0481 O   0  0  0  0  0  0  0  0  0  0  0  0
   26.4925  -19.9874   -9.2212 N   0  0  0  0  0  0  0  0  0  0  0  0
   26.7713  -21.1007   -8.3154 C   0  0  1  0  0  0  0  0  0  0  0  0
   28.1323  -20.9706   -7.7009 C   0  0  0  0  0  0  0  0  0  0  0  0
   28.1435  -20.2156   -6.4309 C   0  0  0  0  0  0  0  0  0  0  0  0
   28.0538  -20.8624   -5.1941 C   0  0  0  0  0  0  0  0  0  0  0  0
   28.0762  -20.1733   -3.9998 C   0  0  0  0  0  0  0  0  0  0  0  0
   28.1895  -18.7999   -3.9864 C   0  0  0  0  0  0  0  0  0  0  0  0
   28.2784  -18.1521   -5.1970 C   0  0  0  0  0  0  0  0  0  0  0  0
   28.2563  -18.8437   -6.4037 C   0  0  0  0  0  0  0  0  0  0  0  0
   25.6875  -21.2693   -7.3306 C   0  0  0  0  0  0  0  0  0  0  0  0
   24.6668  -20.3394   -7.2177 O   0  0  0  0  0  0  0  0  0  0  0  0
   25.6871  -22.2684   -6.5825 O   0  0  0  0  0  0  0  0  0  0  0  0
  2  3  1  0
  2  1  1  0
  4  3  1  0
  4  5  1  0
  5  6  1  6
  7  5  1  0
  7  9  1  0
  8  7  2  0
 10  9  1  0
 10 11  1  0
 11 12  2  0
 11 13  1  0
 13 14  1  0
 14 15  1  1
 14 22  1  0
 15 16  1  0
 16 17  2  0
 17 18  1  0
 19 18  2  0
 20 19  1  0
 21 20  2  0
 21 16  1  0
 22 23  1  0
 24 22  2  0
M  END
$$$$
