MGF.pdb
     RDKit          3D

 24 24  0  0  1  0  0  0  0  0999 V2000
   25.7655  -19.8732  -18.3717 C   0  0  0  0  0  0  0  0  0  0  0  0
   27.2573  -18.8543  -18.4255 S   0  0  0  0  0  0  0  0  0  0  0  0
   27.8722  -18.4717  -16.7541 C   0  0  0  0  0  0  0  0  0  0  0  0
   26.8696  -18.9782  -15.7620 C   0  0  0  0  0  0  0  0  0  0  0  0
   27.0439  -18.3233  -14.4147 C   0  0  2  0  0  0  0  0  0  0  0  0
   28.3772  -18.7975  -13.9578 N   0  0  0  0  0  0  0  0  0  0  0  0
   26.0785  -18.7305  -13.3957 C   0  0  0  0  0  0  0  0  0  0  0  0
   24.8314  -18.6266  -13.6911 O   0  0  0  0  0  0  0  0  0  0  0  0
   26.4031  -19.2315  -12.1126 N   0  0  0  0  0  0  0  0  0  0  0  0
   27.1762  -20.4330  -11.9989 C   0  0  0  0  0  0  0  0  0  0  0  0
   27.5043  -20.7788  -10.5986 C   0  0  0  0  0  0  0  0  0  0  0  0
   28.1360  -21.8477  -10.3691 O   0  0  0  0  0  0  0  0  0  0  0  0
   27.1378  -19.9575   -9.5013 N   0  0  0  0  0  0  0  0  0  0  0  0
   26.3748  -20.4665   -8.3627 C   0  0  1  0  0  0  0  0  0  0  0  0
   26.4412  -19.5216   -7.2009 C   0  0  0  0  0  0  0  0  0  0  0  0
   27.6493  -19.6865   -6.3664 C   0  0  0  0  0  0  0  0  0  0  0  0
   27.6149  -19.4910   -4.9820 C   0  0  0  0  0  0  0  0  0  0  0  0
   28.7303  -19.6538   -4.1877 C   0  0  0  0  0  0  0  0  0  0  0  0
   29.9370  -20.0211   -4.7428 C   0  0  0  0  0  0  0  0  0  0  0  0
   29.9837  -20.2164   -6.1040 C   0  0  0  0  0  0  0  0  0  0  0  0
   28.8607  -20.0532   -6.9084 C   0  0  0  0  0  0  0  0  0  0  0  0
   25.0013  -20.8250   -8.7603 C   0  0  0  0  0  0  0  0  0  0  0  0
   24.4642  -20.3926   -9.9619 O   0  0  0  0  0  0  0  0  0  0  0  0
   24.3066  -21.5315   -8.0013 O   0  0  0  0  0  0  0  0  0  0  0  0
  2  3  1  0
  2  1  1  0
  4  3  1  0
  4  5  1  0
  5  6  1  1
  7  5  1  0
  7  9  1  0
  8  7  2  0
 10  9  1  0
 10 11  1  0
 11 12  2  0
 11 13  1  0
 13 14  1  0
 14 15  1  1
 14 22  1  0
 15 16  1  0
 16 17  2  0
 17 18  1  0
 19 18  2  0
 20 19  1  0
 21 20  2  0
 21 16  1  0
 22 23  1  0
 24 22  2  0
M  END
$$$$
