MGF.pdb
     RDKit          3D

 24 24  0  0  1  0  0  0  0  0999 V2000
   27.3470  -17.5219  -17.4487 C   0  0  0  0  0  0  0  0  0  0  0  0
   27.0429  -16.2266  -16.2255 S   0  0  0  0  0  0  0  0  0  0  0  0
   26.8457  -16.9149  -14.5506 C   0  0  0  0  0  0  0  0  0  0  0  0
   26.9463  -18.4071  -14.6458 C   0  0  0  0  0  0  0  0  0  0  0  0
   26.8087  -19.0590  -13.2927 C   0  0  2  0  0  0  0  0  0  0  0  0
   27.6561  -18.2194  -12.4049 N   0  0  0  0  0  0  0  0  0  0  0  0
   27.3259  -20.4231  -13.2041 C   0  0  0  0  0  0  0  0  0  0  0  0
   26.6784  -21.3402  -13.8311 O   0  0  0  0  0  0  0  0  0  0  0  0
   28.4808  -20.8171  -12.4874 N   0  0  0  0  0  0  0  0  0  0  0  0
   28.6893  -20.3230  -11.1582 C   0  0  0  0  0  0  0  0  0  0  0  0
   27.7912  -20.9471  -10.1623 C   0  0  0  0  0  0  0  0  0  0  0  0
   27.6859  -22.2052  -10.1436 O   0  0  0  0  0  0  0  0  0  0  0  0
   27.0420  -20.1889   -9.2259 N   0  0  0  0  0  0  0  0  0  0  0  0
   26.1586  -20.8121   -8.2416 C   0  0  1  0  0  0  0  0  0  0  0  0
   26.0814  -19.9931   -6.9885 C   0  0  0  0  0  0  0  0  0  0  0  0
   27.3674  -19.8805   -6.2696 C   0  0  0  0  0  0  0  0  0  0  0  0
   27.7636  -20.8326   -5.3249 C   0  0  0  0  0  0  0  0  0  0  0  0
   28.9662  -20.7489   -4.6552 C   0  0  0  0  0  0  0  0  0  0  0  0
   29.8321  -19.7050   -4.8998 C   0  0  0  0  0  0  0  0  0  0  0  0
   29.4534  -18.7617   -5.8272 C   0  0  0  0  0  0  0  0  0  0  0  0
   28.2413  -18.8428   -6.5046 C   0  0  0  0  0  0  0  0  0  0  0  0
   24.8436  -21.1250   -8.8298 C   0  0  0  0  0  0  0  0  0  0  0  0
   24.5532  -20.8150  -10.1485 O   0  0  0  0  0  0  0  0  0  0  0  0
   23.9730  -21.6797   -8.1282 O   0  0  0  0  0  0  0  0  0  0  0  0
  2  3  1  0
  2  1  1  0
  4  3  1  0
  4  5  1  0
  5  6  1  1
  7  5  1  0
  7  9  1  0
  8  7  2  0
 10  9  1  0
 10 11  1  0
 11 12  2  0
 11 13  1  0
 13 14  1  0
 14 15  1  1
 14 22  1  0
 15 16  1  0
 16 17  2  0
 17 18  1  0
 19 18  2  0
 20 19  1  0
 21 20  2  0
 21 16  1  0
 22 23  1  0
 24 22  2  0
M  END
$$$$
