MGF.pdb
     RDKit          3D

 24 24  0  0  1  0  0  0  0  0999 V2000
   25.7404  -22.9321  -18.6427 C   0  0  0  0  0  0  0  0  0  0  0  0
   24.3957  -23.1525  -17.4555 S   0  0  0  0  0  0  0  0  0  0  0  0
   23.7039  -21.5557  -16.9173 C   0  0  0  0  0  0  0  0  0  0  0  0
   24.7066  -20.8918  -16.0229 C   0  0  0  0  0  0  0  0  0  0  0  0
   24.8998  -21.6612  -14.7402 C   0  0  2  0  0  0  0  0  0  0  0  0
   23.6076  -21.4907  -14.0244 N   0  0  0  0  0  0  0  0  0  0  0  0
   25.9436  -21.1452  -13.8567 C   0  0  0  0  0  0  0  0  0  0  0  0
   27.1630  -21.2927  -14.2371 O   0  0  0  0  0  0  0  0  0  0  0  0
   25.7227  -20.4953  -12.6191 N   0  0  0  0  0  0  0  0  0  0  0  0
   26.8414  -19.9994  -11.8730 C   0  0  0  0  0  0  0  0  0  0  0  0
   27.1277  -20.7981  -10.6614 C   0  0  0  0  0  0  0  0  0  0  0  0
   28.2204  -21.4272  -10.5929 O   0  0  0  0  0  0  0  0  0  0  0  0
   26.2237  -20.8866   -9.5715 N   0  0  0  0  0  0  0  0  0  0  0  0
   26.6749  -20.9360   -8.1817 C   0  0  1  0  0  0  0  0  0  0  0  0
   27.5962  -19.7951   -7.8710 C   0  0  0  0  0  0  0  0  0  0  0  0
   28.0628  -19.7700   -6.4693 C   0  0  0  0  0  0  0  0  0  0  0  0
   28.7144  -20.8662   -5.8951 C   0  0  0  0  0  0  0  0  0  0  0  0
   29.1676  -20.8537   -4.5927 C   0  0  0  0  0  0  0  0  0  0  0  0
   28.9893  -19.7401   -3.8006 C   0  0  0  0  0  0  0  0  0  0  0  0
   28.3495  -18.6551   -4.3542 C   0  0  0  0  0  0  0  0  0  0  0  0
   27.8911  -18.6640   -5.6675 C   0  0  0  0  0  0  0  0  0  0  0  0
   25.5336  -21.0482   -7.2555 C   0  0  0  0  0  0  0  0  0  0  0  0
   25.5673  -21.9129   -6.1736 O   0  0  0  0  0  0  0  0  0  0  0  0
   24.5157  -20.3519   -7.4476 O   0  0  0  0  0  0  0  0  0  0  0  0
  2  3  1  0
  2  1  1  0
  4  3  1  0
  4  5  1  0
  5  6  1  1
  7  5  1  0
  7  9  1  0
  8  7  2  0
 10  9  1  0
 10 11  1  0
 11 12  2  0
 11 13  1  0
 13 14  1  0
 14 15  1  1
 14 22  1  0
 15 16  1  0
 16 17  2  0
 17 18  1  0
 19 18  2  0
 20 19  1  0
 21 20  2  0
 21 16  1  0
 22 23  1  0
 24 22  2  0
M  END
$$$$
