MGF.pdb
     RDKit          3D

 24 24  0  0  1  0  0  0  0  0999 V2000
   21.7824  -18.8133  -18.5091 C   0  0  0  0  0  0  0  0  0  0  0  0
   22.7196  -17.5311  -19.3716 S   0  0  0  0  0  0  0  0  0  0  0  0
   24.5112  -17.7030  -19.0918 C   0  0  0  0  0  0  0  0  0  0  0  0
   24.7736  -19.0926  -18.5959 C   0  0  0  0  0  0  0  0  0  0  0  0
   25.0449  -19.1094  -17.1123 C   0  0  2  0  0  0  0  0  0  0  0  0
   26.3244  -18.3642  -16.9757 N   0  0  0  0  0  0  0  0  0  0  0  0
   25.2636  -20.4341  -16.5350 C   0  0  0  0  0  0  0  0  0  0  0  0
   24.2930  -21.2745  -16.6050 O   0  0  0  0  0  0  0  0  0  0  0  0
   26.4556  -20.8685  -15.9079 N   0  0  0  0  0  0  0  0  0  0  0  0
   26.4951  -22.1581  -15.2837 C   0  0  0  0  0  0  0  0  0  0  0  0
   25.9252  -22.1572  -13.9188 C   0  0  0  0  0  0  0  0  0  0  0  0
   25.8673  -23.2473  -13.2841 O   0  0  0  0  0  0  0  0  0  0  0  0
   25.4401  -20.9802  -13.2925 N   0  0  0  0  0  0  0  0  0  0  0  0
   24.9217  -20.9773  -11.9254 C   0  0  1  0  0  0  0  0  0  0  0  0
   25.7450  -20.0950  -11.0363 C   0  0  0  0  0  0  0  0  0  0  0  0
   27.0816  -20.6426  -10.7251 C   0  0  0  0  0  0  0  0  0  0  0  0
   27.3531  -21.2580   -9.4990 C   0  0  0  0  0  0  0  0  0  0  0  0
   28.5912  -21.7858   -9.1984 C   0  0  0  0  0  0  0  0  0  0  0  0
   29.6197  -21.7223  -10.1136 C   0  0  0  0  0  0  0  0  0  0  0  0
   29.3649  -21.1192  -11.3237 C   0  0  0  0  0  0  0  0  0  0  0  0
   28.1174  -20.5859  -11.6305 C   0  0  0  0  0  0  0  0  0  0  0  0
   23.4810  -20.6657  -11.9035 C   0  0  0  0  0  0  0  0  0  0  0  0
   22.7200  -20.8607  -10.7624 O   0  0  0  0  0  0  0  0  0  0  0  0
   22.9336  -20.2176  -12.9319 O   0  0  0  0  0  0  0  0  0  0  0  0
  2  3  1  0
  2  1  1  0
  4  3  1  0
  4  5  1  0
  5  6  1  6
  7  5  1  0
  7  9  1  0
  8  7  2  0
 10  9  1  0
 10 11  1  0
 11 12  2  0
 11 13  1  0
 13 14  1  0
 14 15  1  1
 14 22  1  0
 15 16  1  0
 16 17  2  0
 17 18  1  0
 19 18  2  0
 20 19  1  0
 21 20  2  0
 21 16  1  0
 22 23  1  0
 24 22  2  0
M  END
$$$$
