MGF.pdb
     RDKit          3D

 24 24  0  0  1  0  0  0  0  0999 V2000
   20.4304  -19.9570  -14.0733 C   0  0  0  0  0  0  0  0  0  0  0  0
   20.3427  -20.7728  -12.4630 S   0  0  0  0  0  0  0  0  0  0  0  0
   21.9903  -21.2788  -11.8736 C   0  0  0  0  0  0  0  0  0  0  0  0
   23.0121  -20.7373  -12.8268 C   0  0  0  0  0  0  0  0  0  0  0  0
   24.3997  -21.2187  -12.4838 C   0  0  2  0  0  0  0  0  0  0  0  0
   24.5330  -20.9176  -11.0337 N   0  0  0  0  0  0  0  0  0  0  0  0
   25.4871  -20.5168  -13.1629 C   0  0  0  0  0  0  0  0  0  0  0  0
   25.2805  -20.1445  -14.3762 O   0  0  0  0  0  0  0  0  0  0  0  0
   26.7467  -20.2116  -12.5948 N   0  0  0  0  0  0  0  0  0  0  0  0
   27.6466  -21.2758  -12.2603 C   0  0  0  0  0  0  0  0  0  0  0  0
   27.9118  -21.3736  -10.8084 C   0  0  0  0  0  0  0  0  0  0  0  0
   28.5744  -22.3580  -10.3770 O   0  0  0  0  0  0  0  0  0  0  0  0
   27.4514  -20.4052   -9.8793 N   0  0  0  0  0  0  0  0  0  0  0  0
   27.5630  -20.5920   -8.4335 C   0  0  1  0  0  0  0  0  0  0  0  0
   28.3750  -19.4984   -7.8076 C   0  0  0  0  0  0  0  0  0  0  0  0
   28.4521  -19.5814   -6.3344 C   0  0  0  0  0  0  0  0  0  0  0  0
   29.4104  -20.3745   -5.6951 C   0  0  0  0  0  0  0  0  0  0  0  0
   29.5039  -20.4524   -4.3215 C   0  0  0  0  0  0  0  0  0  0  0  0
   28.6400  -19.7381   -3.5198 C   0  0  0  0  0  0  0  0  0  0  0  0
   27.6925  -18.9542   -4.1370 C   0  0  0  0  0  0  0  0  0  0  0  0
   27.5952  -18.8730   -5.5222 C   0  0  0  0  0  0  0  0  0  0  0  0
   26.2367  -20.7757   -7.8169 C   0  0  0  0  0  0  0  0  0  0  0  0
   25.0783  -20.3980   -8.4763 O   0  0  0  0  0  0  0  0  0  0  0  0
   26.1529  -21.2808   -6.6787 O   0  0  0  0  0  0  0  0  0  0  0  0
  2  3  1  0
  2  1  1  0
  4  3  1  0
  4  5  1  0
  5  6  1  1
  7  5  1  0
  7  9  1  0
  8  7  2  0
 10  9  1  0
 10 11  1  0
 11 12  2  0
 11 13  1  0
 13 14  1  0
 14 15  1  1
 14 22  1  0
 15 16  1  0
 16 17  2  0
 17 18  1  0
 19 18  2  0
 20 19  1  0
 21 20  2  0
 21 16  1  0
 22 23  1  0
 24 22  2  0
M  END
$$$$
