MGF.pdb
     RDKit          3D

 24 24  0  0  1  0  0  0  0  0999 V2000
   20.7333  -20.3650  -10.6081 C   0  0  0  0  0  0  0  0  0  0  0  0
   21.1177  -21.9728  -11.3387 S   0  0  0  0  0  0  0  0  0  0  0  0
   22.5181  -21.8678  -12.4988 C   0  0  0  0  0  0  0  0  0  0  0  0
   22.5605  -20.4759  -13.0525 C   0  0  0  0  0  0  0  0  0  0  0  0
   23.7387  -20.2818  -13.9738 C   0  0  2  0  0  0  0  0  0  0  0  0
   23.6972  -21.4743  -14.8612 N   0  0  0  0  0  0  0  0  0  0  0  0
   25.0463  -20.2864  -13.3207 C   0  0  0  0  0  0  0  0  0  0  0  0
   25.3480  -19.2653  -12.5999 O   0  0  0  0  0  0  0  0  0  0  0  0
   26.0059  -21.3222  -13.4146 N   0  0  0  0  0  0  0  0  0  0  0  0
   27.2373  -21.2113  -12.6895 C   0  0  0  0  0  0  0  0  0  0  0  0
   27.0656  -21.3798  -11.2300 C   0  0  0  0  0  0  0  0  0  0  0  0
   26.6491  -22.4882  -10.7915 O   0  0  0  0  0  0  0  0  0  0  0  0
   27.3502  -20.3457  -10.3013 N   0  0  0  0  0  0  0  0  0  0  0  0
   27.2891  -20.5531   -8.8553 C   0  0  1  0  0  0  0  0  0  0  0  0
   28.3004  -19.7057   -8.1439 C   0  0  0  0  0  0  0  0  0  0  0  0
   28.2369  -19.8112   -6.6715 C   0  0  0  0  0  0  0  0  0  0  0  0
   28.8378  -20.8725   -5.9871 C   0  0  0  0  0  0  0  0  0  0  0  0
   28.7988  -20.9783   -4.6127 C   0  0  0  0  0  0  0  0  0  0  0  0
   28.1544  -20.0240   -3.8555 C   0  0  0  0  0  0  0  0  0  0  0  0
   27.5592  -18.9748   -4.5174 C   0  0  0  0  0  0  0  0  0  0  0  0
   27.5965  -18.8647   -5.9035 C   0  0  0  0  0  0  0  0  0  0  0  0
   25.9137  -20.3868   -8.3517 C   0  0  0  0  0  0  0  0  0  0  0  0
   25.4077  -21.2073   -7.3567 O   0  0  0  0  0  0  0  0  0  0  0  0
   25.1886  -19.4902   -8.8296 O   0  0  0  0  0  0  0  0  0  0  0  0
  2  3  1  0
  2  1  1  0
  4  3  1  0
  4  5  1  0
  5  6  1  6
  7  5  1  0
  7  9  1  0
  8  7  2  0
 10  9  1  0
 10 11  1  0
 11 12  2  0
 11 13  1  0
 13 14  1  0
 14 15  1  1
 14 22  1  0
 15 16  1  0
 16 17  2  0
 17 18  1  0
 19 18  2  0
 20 19  1  0
 21 20  2  0
 21 16  1  0
 22 23  1  0
 24 22  2  0
M  END
$$$$
