MGF.pdb
     RDKit          3D

 24 24  0  0  1  0  0  0  0  0999 V2000
   19.8764  -12.8389  -23.2906 C   0  0  0  0  0  0  0  0  0  0  0  0
   19.9313  -14.4770  -22.5289 S   0  0  0  0  0  0  0  0  0  0  0  0
   20.5063  -14.3980  -20.8023 C   0  0  0  0  0  0  0  0  0  0  0  0
   20.0268  -13.1073  -20.2106 C   0  0  0  0  0  0  0  0  0  0  0  0
   20.1740  -13.0976  -18.7096 C   0  0  2  0  0  0  0  0  0  0  0  0
   18.9022  -13.6951  -18.2230 N   0  0  0  0  0  0  0  0  0  0  0  0
   20.2771  -11.7716  -18.1035 C   0  0  0  0  0  0  0  0  0  0  0  0
   21.4390  -11.2212  -18.0854 O   0  0  0  0  0  0  0  0  0  0  0  0
   19.2039  -11.0433  -17.5373 N   0  0  0  0  0  0  0  0  0  0  0  0
   19.4260   -9.7057  -17.0729 C   0  0  0  0  0  0  0  0  0  0  0  0
   19.6621   -9.6320  -15.6146 C   0  0  0  0  0  0  0  0  0  0  0  0
   19.5977  -10.6939  -14.9345 O   0  0  0  0  0  0  0  0  0  0  0  0
   19.9584   -8.4153  -14.9476 N   0  0  0  0  0  0  0  0  0  0  0  0
   20.2610   -8.3594  -13.5182 C   0  0  1  0  0  0  0  0  0  0  0  0
   21.6813   -7.9426  -13.2817 C   0  0  0  0  0  0  0  0  0  0  0  0
   22.0193   -6.6238  -13.8557 C   0  0  0  0  0  0  0  0  0  0  0  0
   21.6741   -5.4333  -13.2078 C   0  0  0  0  0  0  0  0  0  0  0  0
   21.9939   -4.1951  -13.7237 C   0  0  0  0  0  0  0  0  0  0  0  0
   22.6762   -4.0890  -14.9163 C   0  0  0  0  0  0  0  0  0  0  0  0
   23.0213   -5.2532  -15.5634 C   0  0  0  0  0  0  0  0  0  0  0  0
   22.7007   -6.5039  -15.0461 C   0  0  0  0  0  0  0  0  0  0  0  0
   19.2719   -7.5381  -12.7969 C   0  0  0  0  0  0  0  0  0  0  0  0
   19.1190   -7.6370  -11.4235 O   0  0  0  0  0  0  0  0  0  0  0  0
   18.5568   -6.7373  -13.4336 O   0  0  0  0  0  0  0  0  0  0  0  0
  2  3  1  0
  2  1  1  0
  4  3  1  0
  4  5  1  0
  5  6  1  1
  7  5  1  0
  7  9  1  0
  8  7  2  0
 10  9  1  0
 10 11  1  0
 11 12  2  0
 11 13  1  0
 13 14  1  0
 14 15  1  6
 14 22  1  0
 15 16  1  0
 16 17  2  0
 17 18  1  0
 19 18  2  0
 20 19  1  0
 21 20  2  0
 21 16  1  0
 22 23  1  0
 24 22  2  0
M  END
$$$$
