MGF.pdb
     RDKit          3D

 24 24  0  0  1  0  0  0  0  0999 V2000
   34.5306  -26.0255  -19.6656 C   0  0  0  0  0  0  0  0  0  0  0  0
   35.2235  -26.9406  -21.0616 S   0  0  0  0  0  0  0  0  0  0  0  0
   36.0519  -28.4698  -20.5200 C   0  0  0  0  0  0  0  0  0  0  0  0
   35.0937  -29.2397  -19.6628 C   0  0  0  0  0  0  0  0  0  0  0  0
   35.7150  -30.5116  -19.1422 C   0  0  2  0  0  0  0  0  0  0  0  0
   35.6382  -31.4445  -20.2976 N   0  0  0  0  0  0  0  0  0  0  0  0
   34.9988  -31.1469  -18.0378 C   0  0  0  0  0  0  0  0  0  0  0  0
   35.3640  -30.8383  -16.8442 O   0  0  0  0  0  0  0  0  0  0  0  0
   33.9359  -32.0713  -18.1739 N   0  0  0  0  0  0  0  0  0  0  0  0
   33.1956  -32.4712  -17.0136 C   0  0  0  0  0  0  0  0  0  0  0  0
   31.8540  -31.8523  -16.9424 C   0  0  0  0  0  0  0  0  0  0  0  0
   31.6739  -30.7283  -17.4888 O   0  0  0  0  0  0  0  0  0  0  0  0
   30.7596  -32.4706  -16.2844 N   0  0  0  0  0  0  0  0  0  0  0  0
   29.4165  -31.8930  -16.2869 C   0  0  1  0  0  0  0  0  0  0  0  0
   28.5563  -32.5281  -17.3374 C   0  0  0  0  0  0  0  0  0  0  0  0
   27.1700  -32.0174  -17.3619 C   0  0  0  0  0  0  0  0  0  0  0  0
   26.7623  -31.0507  -18.2867 C   0  0  0  0  0  0  0  0  0  0  0  0
   25.4692  -30.5736  -18.3311 C   0  0  0  0  0  0  0  0  0  0  0  0
   24.5197  -31.0426  -17.4491 C   0  0  0  0  0  0  0  0  0  0  0  0
   24.9087  -31.9938  -16.5343 C   0  0  0  0  0  0  0  0  0  0  0  0
   26.2120  -32.4775  -16.4865 C   0  0  0  0  0  0  0  0  0  0  0  0
   28.8240  -31.9185  -14.9373 C   0  0  0  0  0  0  0  0  0  0  0  0
   29.0385  -32.9834  -14.0774 O   0  0  0  0  0  0  0  0  0  0  0  0
   28.1146  -30.9636  -14.5595 O   0  0  0  0  0  0  0  0  0  0  0  0
  2  3  1  0
  2  1  1  0
  4  3  1  0
  4  5  1  0
  5  6  1  6
  7  5  1  0
  7  9  1  0
  8  7  2  0
 10  9  1  0
 10 11  1  0
 11 12  2  0
 11 13  1  0
 13 14  1  0
 14 15  1  6
 14 22  1  0
 15 16  1  0
 16 17  2  0
 17 18  1  0
 19 18  2  0
 20 19  1  0
 21 20  2  0
 21 16  1  0
 22 23  1  0
 24 22  2  0
M  END
$$$$
