MGF.pdb
     RDKit          3D

 24 24  0  0  1  0  0  0  0  0999 V2000
   26.2243  -18.7951  -20.2022 C   0  0  0  0  0  0  0  0  0  0  0  0
   27.9093  -19.4391  -20.3137 S   0  0  0  0  0  0  0  0  0  0  0  0
   28.2782  -20.5986  -18.9581 C   0  0  0  0  0  0  0  0  0  0  0  0
   27.6149  -20.0877  -17.7152 C   0  0  0  0  0  0  0  0  0  0  0  0
   27.9725  -20.9246  -16.5125 C   0  0  2  0  0  0  0  0  0  0  0  0
   27.2997  -22.2253  -16.7707 N   0  0  0  0  0  0  0  0  0  0  0  0
   27.4603  -20.4299  -15.2361 C   0  0  0  0  0  0  0  0  0  0  0  0
   26.1895  -20.2608  -15.1374 O   0  0  0  0  0  0  0  0  0  0  0  0
   28.2469  -20.1241  -14.1001 N   0  0  0  0  0  0  0  0  0  0  0  0
   27.6387  -19.4811  -12.9728 C   0  0  0  0  0  0  0  0  0  0  0  0
   26.7468  -20.3791  -12.2072 C   0  0  0  0  0  0  0  0  0  0  0  0
   26.6674  -21.5920  -12.5490 O   0  0  0  0  0  0  0  0  0  0  0  0
   25.9758  -19.9329  -11.1029 N   0  0  0  0  0  0  0  0  0  0  0  0
   25.0530  -20.8115  -10.3859 C   0  0  1  0  0  0  0  0  0  0  0  0
   25.1508  -20.6057   -8.9044 C   0  0  0  0  0  0  0  0  0  0  0  0
   26.5284  -20.3710   -8.4246 C   0  0  0  0  0  0  0  0  0  0  0  0
   26.8533  -19.2524   -7.6505 C   0  0  0  0  0  0  0  0  0  0  0  0
   28.1311  -19.0260   -7.1841 C   0  0  0  0  0  0  0  0  0  0  0  0
   29.1477  -19.9110   -7.4711 C   0  0  0  0  0  0  0  0  0  0  0  0
   28.8406  -21.0155   -8.2320 C   0  0  0  0  0  0  0  0  0  0  0  0
   27.5530  -21.2473   -8.7042 C   0  0  0  0  0  0  0  0  0  0  0  0
   23.6825  -20.6886  -10.9146 C   0  0  0  0  0  0  0  0  0  0  0  0
   23.3614  -19.7348  -11.8667 O   0  0  0  0  0  0  0  0  0  0  0  0
   22.7919  -21.4574  -10.4978 O   0  0  0  0  0  0  0  0  0  0  0  0
  2  3  1  0
  2  1  1  0
  4  3  1  0
  4  5  1  0
  5  6  1  6
  7  5  1  0
  7  9  1  0
  8  7  2  0
 10  9  1  0
 10 11  1  0
 11 12  2  0
 11 13  1  0
 13 14  1  0
 14 15  1  1
 14 22  1  0
 15 16  1  0
 16 17  2  0
 17 18  1  0
 19 18  2  0
 20 19  1  0
 21 20  2  0
 21 16  1  0
 22 23  1  0
 24 22  2  0
M  END
$$$$
