MGF.pdb
     RDKit          3D

 24 24  0  0  1  0  0  0  0  0999 V2000
   16.6150  -10.7302  -19.9074 C   0  0  0  0  0  0  0  0  0  0  0  0
   17.7259   -9.5157  -20.6539 S   0  0  0  0  0  0  0  0  0  0  0  0
   19.1248   -9.1188  -19.5569 C   0  0  0  0  0  0  0  0  0  0  0  0
   18.6143   -8.2511  -18.4469 C   0  0  0  0  0  0  0  0  0  0  0  0
   19.7040   -7.9166  -17.4592 C   0  0  2  0  0  0  0  0  0  0  0  0
   20.1031   -9.2387  -16.9078 N   0  0  0  0  0  0  0  0  0  0  0  0
   19.2849   -7.0949  -16.3254 C   0  0  0  0  0  0  0  0  0  0  0  0
   20.1567   -6.2928  -15.8255 O   0  0  0  0  0  0  0  0  0  0  0  0
   17.9991   -7.1078  -15.7345 N   0  0  0  0  0  0  0  0  0  0  0  0
   17.6973   -6.1840  -14.6811 C   0  0  0  0  0  0  0  0  0  0  0  0
   18.0886   -6.6832  -13.3448 C   0  0  0  0  0  0  0  0  0  0  0  0
   17.9466   -7.9117  -13.0900 O   0  0  0  0  0  0  0  0  0  0  0  0
   18.6175   -5.8372  -12.3362 N   0  0  0  0  0  0  0  0  0  0  0  0
   19.0199   -6.3402  -11.0237 C   0  0  1  0  0  0  0  0  0  0  0  0
   20.5061   -6.2596  -10.8456 C   0  0  0  0  0  0  0  0  0  0  0  0
   21.2712   -6.9748  -11.8878 C   0  0  0  0  0  0  0  0  0  0  0  0
   21.6101   -8.3247  -11.7504 C   0  0  0  0  0  0  0  0  0  0  0  0
   22.3122   -9.0097  -12.7197 C   0  0  0  0  0  0  0  0  0  0  0  0
   22.7099   -8.3743  -13.8761 C   0  0  0  0  0  0  0  0  0  0  0  0
   22.3825   -7.0460  -14.0229 C   0  0  0  0  0  0  0  0  0  0  0  0
   21.6744   -6.3517  -13.0475 C   0  0  0  0  0  0  0  0  0  0  0  0
   18.2552   -5.6866   -9.9462 C   0  0  0  0  0  0  0  0  0  0  0  0
   18.2570   -6.1898   -8.6554 O   0  0  0  0  0  0  0  0  0  0  0  0
   17.5922   -4.6598  -10.1990 O   0  0  0  0  0  0  0  0  0  0  0  0
  2  3  1  0
  2  1  1  0
  4  3  1  0
  4  5  1  0
  5  6  1  1
  7  5  1  0
  7  9  1  0
  8  7  2  0
 10  9  1  0
 10 11  1  0
 11 12  2  0
 11 13  1  0
 13 14  1  0
 14 15  1  1
 14 22  1  0
 15 16  1  0
 16 17  2  0
 17 18  1  0
 19 18  2  0
 20 19  1  0
 21 20  2  0
 21 16  1  0
 22 23  1  0
 24 22  2  0
M  END
$$$$
