MGF.pdb
     RDKit          3D

 24 24  0  0  1  0  0  0  0  0999 V2000
   28.1107  -21.0454  -19.6482 C   0  0  0  0  0  0  0  0  0  0  0  0
   27.1375  -19.5242  -19.7203 S   0  0  0  0  0  0  0  0  0  0  0  0
   26.7454  -18.8960  -18.0561 C   0  0  0  0  0  0  0  0  0  0  0  0
   27.5055  -19.7159  -17.0581 C   0  0  0  0  0  0  0  0  0  0  0  0
   26.7585  -19.8323  -15.7531 C   0  0  2  0  0  0  0  0  0  0  0  0
   26.6962  -18.4336  -15.2522 N   0  0  0  0  0  0  0  0  0  0  0  0
   27.4285  -20.6213  -14.7212 C   0  0  0  0  0  0  0  0  0  0  0  0
   27.4994  -21.8920  -14.9048 O   0  0  0  0  0  0  0  0  0  0  0  0
   28.0072  -20.1020  -13.5388 N   0  0  0  0  0  0  0  0  0  0  0  0
   28.5723  -21.0009  -12.5760 C   0  0  0  0  0  0  0  0  0  0  0  0
   27.7332  -21.1559  -11.3679 C   0  0  0  0  0  0  0  0  0  0  0  0
   28.0889  -21.9839  -10.4835 O   0  0  0  0  0  0  0  0  0  0  0  0
   26.5431  -20.4115  -11.1617 N   0  0  0  0  0  0  0  0  0  0  0  0
   25.7096  -20.5806   -9.9725 C   0  0  1  0  0  0  0  0  0  0  0  0
   25.8891  -19.4382   -9.0188 C   0  0  0  0  0  0  0  0  0  0  0  0
   26.8641  -19.7079   -7.9419 C   0  0  0  0  0  0  0  0  0  0  0  0
   26.4660  -19.8241   -6.6063 C   0  0  0  0  0  0  0  0  0  0  0  0
   27.3615  -20.0886   -5.5915 C   0  0  0  0  0  0  0  0  0  0  0  0
   28.7024  -20.2497   -5.8661 C   0  0  0  0  0  0  0  0  0  0  0  0
   29.1065  -20.1375   -7.1766 C   0  0  0  0  0  0  0  0  0  0  0  0
   28.2062  -19.8709   -8.2027 C   0  0  0  0  0  0  0  0  0  0  0  0
   24.3046  -20.8343  -10.3393 C   0  0  0  0  0  0  0  0  0  0  0  0
   23.3738  -21.2296   -9.3923 O   0  0  0  0  0  0  0  0  0  0  0  0
   23.9439  -20.6912  -11.5256 O   0  0  0  0  0  0  0  0  0  0  0  0
  2  3  1  0
  2  1  1  0
  4  3  1  0
  4  5  1  0
  5  6  1  1
  7  5  1  0
  7  9  1  0
  8  7  2  0
 10  9  1  0
 10 11  1  0
 11 12  2  0
 11 13  1  0
 13 14  1  0
 14 15  1  1
 14 22  1  0
 15 16  1  0
 16 17  2  0
 17 18  1  0
 19 18  2  0
 20 19  1  0
 21 20  2  0
 21 16  1  0
 22 23  1  0
 24 22  2  0
M  END
$$$$
