MGF.pdb
     RDKit          3D

 24 24  0  0  1  0  0  0  0  0999 V2000
   13.8632  -14.7703  -21.4993 C   0  0  0  0  0  0  0  0  0  0  0  0
   14.1329  -13.3118  -20.4665 S   0  0  0  0  0  0  0  0  0  0  0  0
   15.6446  -13.4679  -19.4623 C   0  0  0  0  0  0  0  0  0  0  0  0
   15.9391  -12.1304  -18.8537 C   0  0  0  0  0  0  0  0  0  0  0  0
   17.1097  -12.1991  -17.9052 C   0  0  2  0  0  0  0  0  0  0  0  0
   16.5527  -12.8681  -16.6996 N   0  0  0  0  0  0  0  0  0  0  0  0
   17.6322  -10.9062  -17.4675 C   0  0  0  0  0  0  0  0  0  0  0  0
   18.2273  -10.1829  -18.3485 O   0  0  0  0  0  0  0  0  0  0  0  0
   17.5353  -10.3843  -16.1557 N   0  0  0  0  0  0  0  0  0  0  0  0
   18.0191   -9.0627  -15.8844 C   0  0  0  0  0  0  0  0  0  0  0  0
   19.2397   -9.0543  -15.0491 C   0  0  0  0  0  0  0  0  0  0  0  0
   19.4767  -10.0502  -14.3099 O   0  0  0  0  0  0  0  0  0  0  0  0
   20.1566   -7.9716  -15.0443 N   0  0  0  0  0  0  0  0  0  0  0  0
   21.5949   -8.1642  -14.8656 C   0  0  1  0  0  0  0  0  0  0  0  0
   22.1333   -9.1618  -15.8464 C   0  0  0  0  0  0  0  0  0  0  0  0
   23.5794   -9.4253  -15.6959 C   0  0  0  0  0  0  0  0  0  0  0  0
   24.0670  -10.2910  -14.7116 C   0  0  0  0  0  0  0  0  0  0  0  0
   25.4122  -10.5576  -14.5667 C   0  0  0  0  0  0  0  0  0  0  0  0
   26.3363   -9.9686  -15.4024 C   0  0  0  0  0  0  0  0  0  0  0  0
   25.8687   -9.1148  -16.3749 C   0  0  0  0  0  0  0  0  0  0  0  0
   24.5127   -8.8435  -16.5242 C   0  0  0  0  0  0  0  0  0  0  0  0
   22.3095   -6.8748  -14.8755 C   0  0  0  0  0  0  0  0  0  0  0  0
   23.3051   -6.5970  -13.9531 O   0  0  0  0  0  0  0  0  0  0  0  0
   22.0135   -6.0148  -15.7302 O   0  0  0  0  0  0  0  0  0  0  0  0
  2  3  1  0
  2  1  1  0
  4  3  1  0
  4  5  1  0
  5  6  1  1
  7  5  1  0
  7  9  1  0
  8  7  2  0
 10  9  1  0
 10 11  1  0
 11 12  2  0
 11 13  1  0
 13 14  1  0
 14 15  1  6
 14 22  1  0
 15 16  1  0
 16 17  2  0
 17 18  1  0
 19 18  2  0
 20 19  1  0
 21 20  2  0
 21 16  1  0
 22 23  1  0
 24 22  2  0
M  END
$$$$
