MGF.pdb
     RDKit          3D

 24 24  0  0  1  0  0  0  0  0999 V2000
   26.7818  -19.7577  -19.8318 C   0  0  0  0  0  0  0  0  0  0  0  0
   25.9679  -21.1650  -19.0423 S   0  0  0  0  0  0  0  0  0  0  0  0
   26.7586  -21.5996  -17.4599 C   0  0  0  0  0  0  0  0  0  0  0  0
   27.8228  -20.5830  -17.1767 C   0  0  0  0  0  0  0  0  0  0  0  0
   28.5371  -20.8751  -15.8809 C   0  0  2  0  0  0  0  0  0  0  0  0
   28.1426  -22.2733  -15.5639 N   0  0  0  0  0  0  0  0  0  0  0  0
   28.1261  -20.0522  -14.7451 C   0  0  0  0  0  0  0  0  0  0  0  0
   28.5493  -18.8384  -14.7136 O   0  0  0  0  0  0  0  0  0  0  0  0
   27.2997  -20.4803  -13.6790 N   0  0  0  0  0  0  0  0  0  0  0  0
   27.0187  -19.5810  -12.5989 C   0  0  0  0  0  0  0  0  0  0  0  0
   26.8200  -20.2736  -11.3071 C   0  0  0  0  0  0  0  0  0  0  0  0
   26.8243  -21.5361  -11.2880 O   0  0  0  0  0  0  0  0  0  0  0  0
   26.6244  -19.5766  -10.0869 N   0  0  0  0  0  0  0  0  0  0  0  0
   26.2367  -20.2548   -8.8511 C   0  0  1  0  0  0  0  0  0  0  0  0
   26.3901  -19.3498   -7.6661 C   0  0  0  0  0  0  0  0  0  0  0  0
   27.5514  -19.6763   -6.8128 C   0  0  0  0  0  0  0  0  0  0  0  0
   28.6184  -20.4436   -7.2910 C   0  0  0  0  0  0  0  0  0  0  0  0
   29.7152  -20.7458   -6.5116 C   0  0  0  0  0  0  0  0  0  0  0  0
   29.7964  -20.2931   -5.2125 C   0  0  0  0  0  0  0  0  0  0  0  0
   28.7528  -19.5371   -4.7304 C   0  0  0  0  0  0  0  0  0  0  0  0
   27.6449  -19.2302   -5.5135 C   0  0  0  0  0  0  0  0  0  0  0  0
   24.8956  -20.8548   -8.9718 C   0  0  0  0  0  0  0  0  0  0  0  0
   24.5043  -21.9104   -8.1644 O   0  0  0  0  0  0  0  0  0  0  0  0
   24.0951  -20.4051   -9.8173 O   0  0  0  0  0  0  0  0  0  0  0  0
  2  3  1  0
  2  1  1  0
  4  3  1  0
  4  5  1  0
  5  6  1  1
  7  5  1  0
  7  9  1  0
  8  7  2  0
 10  9  1  0
 10 11  1  0
 11 12  2  0
 11 13  1  0
 13 14  1  0
 14 15  1  1
 14 22  1  0
 15 16  1  0
 16 17  2  0
 17 18  1  0
 19 18  2  0
 20 19  1  0
 21 20  2  0
 21 16  1  0
 22 23  1  0
 24 22  2  0
M  END
$$$$
