MGF.pdb
     RDKit          3D

 24 24  0  0  1  0  0  0  0  0999 V2000
   25.9688   -7.7662  -23.4562 C   0  0  0  0  0  0  0  0  0  0  0  0
   25.3167   -8.2342  -21.8370 S   0  0  0  0  0  0  0  0  0  0  0  0
   23.5613   -8.7115  -21.9302 C   0  0  0  0  0  0  0  0  0  0  0  0
   23.1316   -9.1731  -20.5707 C   0  0  0  0  0  0  0  0  0  0  0  0
   21.6547   -9.4757  -20.5295 C   0  0  2  0  0  0  0  0  0  0  0  0
   21.0386   -8.3457  -21.2743 N   0  0  0  0  0  0  0  0  0  0  0  0
   21.0573   -9.4782  -19.1956 C   0  0  0  0  0  0  0  0  0  0  0  0
   21.4299  -10.4045  -18.3853 O   0  0  0  0  0  0  0  0  0  0  0  0
   20.1050   -8.5447  -18.7220 N   0  0  0  0  0  0  0  0  0  0  0  0
   19.6100   -8.6597  -17.3818 C   0  0  0  0  0  0  0  0  0  0  0  0
   20.1578   -7.6292  -16.4730 C   0  0  0  0  0  0  0  0  0  0  0  0
   19.6726   -7.5233  -15.3121 O   0  0  0  0  0  0  0  0  0  0  0  0
   21.2075   -6.7534  -16.8528 N   0  0  0  0  0  0  0  0  0  0  0  0
   21.8041   -5.7963  -15.9224 C   0  0  1  0  0  0  0  0  0  0  0  0
   23.2746   -6.0401  -15.7642 C   0  0  0  0  0  0  0  0  0  0  0  0
   23.6179   -7.4476  -15.4740 C   0  0  0  0  0  0  0  0  0  0  0  0
   23.2189   -8.0684  -14.2860 C   0  0  0  0  0  0  0  0  0  0  0  0
   23.5199   -9.3847  -14.0062 C   0  0  0  0  0  0  0  0  0  0  0  0
   24.2369  -10.1447  -14.9048 C   0  0  0  0  0  0  0  0  0  0  0  0
   24.6352   -9.5452  -16.0774 C   0  0  0  0  0  0  0  0  0  0  0  0
   24.3334   -8.2177  -16.3632 C   0  0  0  0  0  0  0  0  0  0  0  0
   21.4675   -4.4106  -16.2962 C   0  0  0  0  0  0  0  0  0  0  0  0
   21.8368   -3.3402  -15.4979 O   0  0  0  0  0  0  0  0  0  0  0  0
   20.8375   -4.1947  -17.3517 O   0  0  0  0  0  0  0  0  0  0  0  0
  2  3  1  0
  2  1  1  0
  4  3  1  0
  4  5  1  0
  5  6  1  6
  7  5  1  0
  7  9  1  0
  8  7  2  0
 10  9  1  0
 10 11  1  0
 11 12  2  0
 11 13  1  0
 13 14  1  0
 14 15  1  6
 14 22  1  0
 15 16  1  0
 16 17  2  0
 17 18  1  0
 19 18  2  0
 20 19  1  0
 21 20  2  0
 21 16  1  0
 22 23  1  0
 24 22  2  0
M  END
$$$$
