NFL.pdb
     RDKit          3D

 28 28  0  0  1  0  0  0  0  0999 V2000
   28.4081  -37.9330   -2.1515 N   0  0  0  0  0  0  0  0  0  0  0  0
   29.6511  -37.8606   -2.8244 C   0  0  0  0  0  0  0  0  0  0  0  0
   30.4909  -38.7568   -2.5638 O   0  0  0  0  0  0  0  0  0  0  0  0
   29.9917  -36.8053   -3.7925 C   0  0  0  0  0  0  0  0  0  0  0  0
   28.7896  -35.9460   -4.0351 C   0  0  2  0  0  0  0  0  0  0  0  0
   28.8288  -35.2363   -5.2731 N   0  0  0  0  0  0  0  0  0  0  0  0
   28.4904  -35.0533   -2.8752 C   0  0  0  0  0  0  0  0  0  0  0  0
   29.3770  -34.2080   -2.5387 O   0  0  0  0  0  0  0  0  0  0  0  0
   27.2713  -35.1371   -2.1719 N   0  0  0  0  0  0  0  0  0  0  0  0
   26.9670  -34.2284   -1.0827 C   0  0  1  0  0  0  0  0  0  0  0  0
   25.5783  -33.7486   -1.2247 C   0  0  0  0  0  0  0  0  0  0  0  0
   25.3649  -32.3655   -1.6098 C   0  0  0  0  0  0  0  0  0  0  0  0
   25.2106  -32.0609   -2.9422 C   0  0  0  0  0  0  0  0  0  0  0  0
   24.9960  -30.7437   -3.3662 C   0  0  0  0  0  0  0  0  0  0  0  0
   24.9331  -29.7102   -2.4574 C   0  0  0  0  0  0  0  0  0  0  0  0
   25.0878  -30.0168   -1.1256 C   0  0  0  0  0  0  0  0  0  0  0  0
   25.2977  -31.3109   -0.7201 C   0  0  0  0  0  0  0  0  0  0  0  0
   27.3089  -34.8352    0.2319 C   0  0  0  0  0  0  0  0  0  0  0  0
   26.9273  -36.0102    0.4587 O   0  0  0  0  0  0  0  0  0  0  0  0
   29.3637  -34.9142    5.4591 C   0  0  0  0  0  0  0  0  0  0  0  0
   30.2012  -34.9358    4.2399 C   0  0  1  0  0  0  0  0  0  0  0  0
   30.7386  -36.3749    4.1203 C   0  0  0  0  0  0  0  0  0  0  0  0
   29.6753  -34.4367    2.9724 C   0  0  0  0  0  0  0  0  0  0  0  0
   28.3178  -34.7854    2.5276 C   0  0  2  0  0  0  0  0  0  0  0  0
   28.0330  -34.1562    1.2272 N   0  0  0  0  0  0  0  0  0  0  0  0
   27.1795  -34.5603    3.4014 C   0  0  0  0  0  0  0  0  0  0  0  0
   26.7982  -35.5433    4.3313 O   0  0  0  0  0  0  0  0  0  0  0  0
   26.4984  -33.5198    3.3797 O   0  0  0  0  0  0  0  0  0  0  0  0
  1  2  1  0
  2  3  2  0
  4  5  1  0
  4  2  1  0
  5  7  1  0
  5  6  1  6
  7  8  2  0
  9  7  1  0
 10  9  1  0
 11 12  1  0
 10 11  1  1
 12 17  2  0
 13 12  1  0
 13 14  2  0
 14 15  1  0
 15 16  2  0
 17 16  1  0
 18 10  1  0
 19 18  2  0
 21 20  1  1
 21 22  1  0
 23 21  1  0
 24 25  1  0
 24 23  1  1
 25 18  1  0
 26 24  1  0
 27 26  1  0
 28 26  2  0
M  END
$$$$
