NFL.pdb
     RDKit          3D

 28 28  0  0  1  0  0  0  0  0999 V2000
   26.5002  -18.8712  -20.7696 N   0  0  0  0  0  0  0  0  0  0  0  0
   26.8447  -18.7875  -19.3994 C   0  0  0  0  0  0  0  0  0  0  0  0
   27.6492  -17.8815  -19.0706 O   0  0  0  0  0  0  0  0  0  0  0  0
   26.3126  -19.6953  -18.3700 C   0  0  0  0  0  0  0  0  0  0  0  0
   27.4411  -20.2172  -17.5356 C   0  0  2  0  0  0  0  0  0  0  0  0
   28.2629  -21.1706  -18.2090 N   0  0  0  0  0  0  0  0  0  0  0  0
   26.9784  -20.7047  -16.2014 C   0  0  0  0  0  0  0  0  0  0  0  0
   26.5756  -21.9067  -16.1209 O   0  0  0  0  0  0  0  0  0  0  0  0
   26.9841  -19.8694  -15.0655 N   0  0  0  0  0  0  0  0  0  0  0  0
   26.4298  -20.3150  -13.8011 C   0  0  1  0  0  0  0  0  0  0  0  0
   27.1991  -19.7125  -12.6947 C   0  0  0  0  0  0  0  0  0  0  0  0
   26.7366  -19.9319  -11.3365 C   0  0  0  0  0  0  0  0  0  0  0  0
   27.2685  -20.9726  -10.6113 C   0  0  0  0  0  0  0  0  0  0  0  0
   26.8616  -21.2236   -9.2952 C   0  0  0  0  0  0  0  0  0  0  0  0
   25.9126  -20.4323   -8.6859 C   0  0  0  0  0  0  0  0  0  0  0  0
   25.3818  -19.3923   -9.4128 C   0  0  0  0  0  0  0  0  0  0  0  0
   25.7872  -19.1545  -10.7020 C   0  0  0  0  0  0  0  0  0  0  0  0
   24.9584  -20.0995  -13.7562 C   0  0  0  0  0  0  0  0  0  0  0  0
   24.5190  -18.9557  -14.0322 O   0  0  0  0  0  0  0  0  0  0  0  0
   21.3818  -21.9224  -16.8894 C   0  0  0  0  0  0  0  0  0  0  0  0
   21.9853  -21.1175  -15.8048 C   0  0  1  0  0  0  0  0  0  0  0  0
   21.4539  -19.6838  -15.9951 C   0  0  0  0  0  0  0  0  0  0  0  0
   21.8928  -21.5599  -14.4163 C   0  0  0  0  0  0  0  0  0  0  0  0
   22.5977  -20.8402  -13.3452 C   0  0  2  0  0  0  0  0  0  0  0  0
   24.0431  -21.1114  -13.4181 N   0  0  0  0  0  0  0  0  0  0  0  0
   22.1761  -20.9866  -11.9629 C   0  0  0  0  0  0  0  0  0  0  0  0
   22.9928  -21.6692  -11.0445 O   0  0  0  0  0  0  0  0  0  0  0  0
   21.1045  -20.5319  -11.5249 O   0  0  0  0  0  0  0  0  0  0  0  0
  1  2  1  0
  2  3  2  0
  4  5  1  0
  4  2  1  0
  5  7  1  0
  5  6  1  6
  7  8  2  0
  9  7  1  0
 10  9  1  0
 11 12  1  0
 10 11  1  1
 12 17  2  0
 13 12  1  0
 13 14  2  0
 14 15  1  0
 15 16  2  0
 17 16  1  0
 18 10  1  0
 19 18  2  0
 21 20  1  6
 21 22  1  0
 23 21  1  0
 24 25  1  0
 24 23  1  6
 25 18  1  0
 26 24  1  0
 27 26  1  0
 28 26  2  0
M  END
$$$$
