NFL.pdb
     RDKit          3D

 28 28  0  0  1  0  0  0  0  0999 V2000
   24.8696  -22.4884  -22.2911 N   0  0  0  0  0  0  0  0  0  0  0  0
   26.1100  -21.9049  -21.9387 C   0  0  0  0  0  0  0  0  0  0  0  0
   26.6560  -21.1697  -22.7976 O   0  0  0  0  0  0  0  0  0  0  0  0
   26.7698  -22.1186  -20.6403 C   0  0  0  0  0  0  0  0  0  0  0  0
   26.4520  -20.9755  -19.7267 C   0  0  2  0  0  0  0  0  0  0  0  0
   26.9610  -19.7198  -20.1761 N   0  0  0  0  0  0  0  0  0  0  0  0
   26.8217  -21.2663  -18.3088 C   0  0  0  0  0  0  0  0  0  0  0  0
   26.8750  -22.4844  -17.9521 O   0  0  0  0  0  0  0  0  0  0  0  0
   27.1034  -20.2340  -17.3907 N   0  0  0  0  0  0  0  0  0  0  0  0
   27.1484  -20.4882  -15.9631 C   0  0  1  0  0  0  0  0  0  0  0  0
   28.1237  -19.5735  -15.3379 C   0  0  0  0  0  0  0  0  0  0  0  0
   28.5224  -19.8274  -13.9655 C   0  0  0  0  0  0  0  0  0  0  0  0
   28.0918  -18.9729  -12.9774 C   0  0  0  0  0  0  0  0  0  0  0  0
   28.4425  -19.1765  -11.6372 C   0  0  0  0  0  0  0  0  0  0  0  0
   29.2325  -20.2429  -11.2677 C   0  0  0  0  0  0  0  0  0  0  0  0
   29.6623  -21.0961  -12.2572 C   0  0  0  0  0  0  0  0  0  0  0  0
   29.3130  -20.8880  -13.5679 C   0  0  0  0  0  0  0  0  0  0  0  0
   25.7824  -20.4758  -15.3740 C   0  0  0  0  0  0  0  0  0  0  0  0
   24.8776  -21.1173  -15.9635 O   0  0  0  0  0  0  0  0  0  0  0  0
   25.8989  -20.9822   -9.6871 C   0  0  0  0  0  0  0  0  0  0  0  0
   25.4204  -21.2084  -11.0684 C   0  0  1  0  0  0  0  0  0  0  0  0
   24.4120  -22.3702  -10.9827 C   0  0  0  0  0  0  0  0  0  0  0  0
   24.9132  -20.0960  -11.8670 C   0  0  0  0  0  0  0  0  0  0  0  0
   24.4594  -20.3037  -13.2501 C   0  0  2  0  0  0  0  0  0  0  0  0
   25.4594  -19.7804  -14.1958 N   0  0  0  0  0  0  0  0  0  0  0  0
   23.1489  -19.8383  -13.6694 C   0  0  0  0  0  0  0  0  0  0  0  0
   22.0901  -20.7511  -13.8183 O   0  0  0  0  0  0  0  0  0  0  0  0
   22.8944  -18.6454  -13.9127 O   0  0  0  0  0  0  0  0  0  0  0  0
  1  2  1  0
  2  3  2  0
  4  5  1  0
  4  2  1  0
  5  7  1  0
  5  6  1  6
  7  8  2  0
  9  7  1  0
 10  9  1  0
 11 12  1  0
 10 11  1  1
 12 17  2  0
 13 12  1  0
 13 14  2  0
 14 15  1  0
 15 16  2  0
 17 16  1  0
 18 10  1  0
 19 18  2  0
 21 20  1  1
 21 22  1  0
 23 21  1  0
 24 25  1  0
 24 23  1  1
 25 18  1  0
 26 24  1  0
 27 26  1  0
 28 26  2  0
M  END
$$$$
