NFL.pdb
     RDKit          3D

 28 28  0  0  1  0  0  0  0  0999 V2000
   27.8818  -25.3132  -18.8939 N   0  0  0  0  0  0  0  0  0  0  0  0
   27.6832  -25.6522  -17.5342 C   0  0  0  0  0  0  0  0  0  0  0  0
   27.0881  -26.7325  -17.2995 O   0  0  0  0  0  0  0  0  0  0  0  0
   28.1338  -24.8124  -16.4123 C   0  0  0  0  0  0  0  0  0  0  0  0
   28.7292  -23.5465  -16.9464 C   0  0  2  0  0  0  0  0  0  0  0  0
   30.1453  -23.6029  -17.1174 N   0  0  0  0  0  0  0  0  0  0  0  0
   28.2960  -22.3468  -16.1686 C   0  0  0  0  0  0  0  0  0  0  0  0
   29.0197  -21.9879  -15.1882 O   0  0  0  0  0  0  0  0  0  0  0  0
   27.1279  -21.6310  -16.5017 N   0  0  0  0  0  0  0  0  0  0  0  0
   26.7574  -20.4223  -15.7900 C   0  0  1  0  0  0  0  0  0  0  0  0
   26.6059  -19.3171  -16.7567 C   0  0  0  0  0  0  0  0  0  0  0  0
   26.0927  -18.0478  -16.2746 C   0  0  0  0  0  0  0  0  0  0  0  0
   26.9644  -17.1501  -15.7034 C   0  0  0  0  0  0  0  0  0  0  0  0
   26.5219  -15.9095  -15.2284 C   0  0  0  0  0  0  0  0  0  0  0  0
   25.1949  -15.5504  -15.3194 C   0  0  0  0  0  0  0  0  0  0  0  0
   24.3248  -16.4495  -15.8907 C   0  0  0  0  0  0  0  0  0  0  0  0
   24.7683  -17.6629  -16.3534 C   0  0  0  0  0  0  0  0  0  0  0  0
   25.5920  -20.6630  -14.8971 C   0  0  0  0  0  0  0  0  0  0  0  0
   24.6598  -21.3889  -15.3232 O   0  0  0  0  0  0  0  0  0  0  0  0
   26.2022  -20.4387   -9.3327 C   0  0  0  0  0  0  0  0  0  0  0  0
   25.8530  -20.7303  -10.7403 C   0  0  1  0  0  0  0  0  0  0  0  0
   25.8842  -22.2649  -10.8756 C   0  0  0  0  0  0  0  0  0  0  0  0
   24.6563  -20.1482  -11.3413 C   0  0  0  0  0  0  0  0  0  0  0  0
   24.3211  -20.3970  -12.7512 C   0  0  2  0  0  0  0  0  0  0  0  0
   25.4862  -20.1157  -13.6066 N   0  0  0  0  0  0  0  0  0  0  0  0
   23.1552  -19.7701  -13.3493 C   0  0  0  0  0  0  0  0  0  0  0  0
   23.3132  -18.7972  -14.3518 O   0  0  0  0  0  0  0  0  0  0  0  0
   21.9880  -20.0477  -13.0214 O   0  0  0  0  0  0  0  0  0  0  0  0
  1  2  1  0
  2  3  2  0
  4  5  1  0
  4  2  1  0
  5  7  1  0
  5  6  1  1
  7  8  2  0
  9  7  1  0
 10  9  1  0
 11 12  1  0
 10 11  1  6
 12 17  2  0
 13 12  1  0
 13 14  2  0
 14 15  1  0
 15 16  2  0
 17 16  1  0
 18 10  1  0
 19 18  2  0
 21 20  1  1
 21 22  1  0
 23 21  1  0
 24 25  1  0
 24 23  1  1
 25 18  1  0
 26 24  1  0
 27 26  1  0
 28 26  2  0
M  END
$$$$
