NFL.pdb
     RDKit          3D

 28 28  0  0  1  0  0  0  0  0999 V2000
   25.2589  -19.6221  -14.5799 N   0  0  0  0  0  0  0  0  0  0  0  0
   24.2183  -19.7534  -13.6295 C   0  0  0  0  0  0  0  0  0  0  0  0
   23.0888  -19.3162  -13.9603 O   0  0  0  0  0  0  0  0  0  0  0  0
   24.4005  -20.3656  -12.3033 C   0  0  0  0  0  0  0  0  0  0  0  0
   25.8288  -20.7848  -12.1408 C   0  0  2  0  0  0  0  0  0  0  0  0
   26.2194  -21.8490  -13.0084 N   0  0  0  0  0  0  0  0  0  0  0  0
   26.1793  -21.0545  -10.7139 C   0  0  0  0  0  0  0  0  0  0  0  0
   25.9127  -22.2065  -10.2497 O   0  0  0  0  0  0  0  0  0  0  0  0
   26.7845  -20.0732   -9.9022 N   0  0  0  0  0  0  0  0  0  0  0  0
   27.1088  -20.3406   -8.5137 C   0  0  1  0  0  0  0  0  0  0  0  0
   28.2148  -19.4573   -8.0950 C   0  0  0  0  0  0  0  0  0  0  0  0
   28.6284  -19.4860   -6.7039 C   0  0  0  0  0  0  0  0  0  0  0  0
   28.3063  -18.4244   -5.8908 C   0  0  0  0  0  0  0  0  0  0  0  0
   28.6757  -18.4053   -4.5404 C   0  0  0  0  0  0  0  0  0  0  0  0
   29.3758  -19.4536   -3.9845 C   0  0  0  0  0  0  0  0  0  0  0  0
   29.6973  -20.5141   -4.7992 C   0  0  0  0  0  0  0  0  0  0  0  0
   29.3305  -20.5234   -6.1215 C   0  0  0  0  0  0  0  0  0  0  0  0
   25.8902  -20.2971   -7.6615 C   0  0  0  0  0  0  0  0  0  0  0  0
   24.9813  -19.4867   -7.9692 O   0  0  0  0  0  0  0  0  0  0  0  0
   21.9203  -22.2862   -4.4955 C   0  0  0  0  0  0  0  0  0  0  0  0
   22.2663  -22.5713   -5.9052 C   0  0  1  0  0  0  0  0  0  0  0  0
   21.1717  -21.8974   -6.7549 C   0  0  0  0  0  0  0  0  0  0  0  0
   23.6074  -22.2890   -6.4092 C   0  0  0  0  0  0  0  0  0  0  0  0
   24.4121  -21.1952   -5.8450 C   0  0  2  0  0  0  0  0  0  0  0  0
   25.7119  -21.1153   -6.5324 N   0  0  0  0  0  0  0  0  0  0  0  0
   24.6488  -21.1220   -4.4137 C   0  0  0  0  0  0  0  0  0  0  0  0
   25.4809  -22.0659   -3.7868 O   0  0  0  0  0  0  0  0  0  0  0  0
   24.1468  -20.2495   -3.6832 O   0  0  0  0  0  0  0  0  0  0  0  0
  1  2  1  0
  2  3  2  0
  4  5  1  0
  4  2  1  0
  5  7  1  0
  5  6  1  6
  7  8  2  0
  9  7  1  0
 10  9  1  0
 11 12  1  0
 10 11  1  1
 12 17  2  0
 13 12  1  0
 13 14  2  0
 14 15  1  0
 15 16  2  0
 17 16  1  0
 18 10  1  0
 19 18  2  0
 21 20  1  1
 21 22  1  0
 23 21  1  0
 24 25  1  0
 24 23  1  1
 25 18  1  0
 26 24  1  0
 27 26  1  0
 28 26  2  0
M  END
$$$$
