NFL.pdb
     RDKit          3D

 28 28  0  0  1  0  0  0  0  0999 V2000
   30.0674  -22.9959  -17.7946 N   0  0  0  0  0  0  0  0  0  0  0  0
   28.6673  -22.9633  -17.5901 C   0  0  0  0  0  0  0  0  0  0  0  0
   27.9445  -22.9228  -18.6159 O   0  0  0  0  0  0  0  0  0  0  0  0
   28.0392  -22.9745  -16.2589 C   0  0  0  0  0  0  0  0  0  0  0  0
   26.9809  -21.9168  -16.1992 C   0  0  2  0  0  0  0  0  0  0  0  0
   27.4535  -20.6097  -16.5249 N   0  0  0  0  0  0  0  0  0  0  0  0
   26.2258  -21.9457  -14.9105 C   0  0  0  0  0  0  0  0  0  0  0  0
   25.7815  -23.0675  -14.5134 O   0  0  0  0  0  0  0  0  0  0  0  0
   26.0082  -20.7761  -14.1539 N   0  0  0  0  0  0  0  0  0  0  0  0
   25.2918  -20.8179  -12.8931 C   0  0  1  0  0  0  0  0  0  0  0  0
   26.0760  -20.1051  -11.8655 C   0  0  0  0  0  0  0  0  0  0  0  0
   27.4712  -20.4661  -11.6924 C   0  0  0  0  0  0  0  0  0  0  0  0
   28.3906  -20.0382  -12.6216 C   0  0  0  0  0  0  0  0  0  0  0  0
   29.7493  -20.3535  -12.4978 C   0  0  0  0  0  0  0  0  0  0  0  0
   30.2066  -21.1047  -11.4375 C   0  0  0  0  0  0  0  0  0  0  0  0
   29.2856  -21.5319  -10.5095 C   0  0  0  0  0  0  0  0  0  0  0  0
   27.9562  -21.2176  -10.6396 C   0  0  0  0  0  0  0  0  0  0  0  0
   23.8851  -20.3641  -13.0614 C   0  0  0  0  0  0  0  0  0  0  0  0
   23.2406  -20.0400  -12.0332 O   0  0  0  0  0  0  0  0  0  0  0  0
   19.9935  -17.1449  -15.4702 C   0  0  0  0  0  0  0  0  0  0  0  0
   20.3858  -18.4649  -16.0106 C   0  0  1  0  0  0  0  0  0  0  0  0
   20.1719  -18.3798  -17.5341 C   0  0  0  0  0  0  0  0  0  0  0  0
   21.6789  -19.0500  -15.6673 C   0  0  0  0  0  0  0  0  0  0  0  0
   21.8534  -19.8243  -14.4295 C   0  0  2  0  0  0  0  0  0  0  0  0
   23.2472  -20.2844  -14.3115 N   0  0  0  0  0  0  0  0  0  0  0  0
   20.9775  -20.9454  -14.1364 C   0  0  0  0  0  0  0  0  0  0  0  0
   21.2797  -22.2257  -14.6324 O   0  0  0  0  0  0  0  0  0  0  0  0
   19.9439  -20.8426  -13.4524 O   0  0  0  0  0  0  0  0  0  0  0  0
  1  2  1  0
  2  3  2  0
  4  5  1  0
  4  2  1  0
  5  7  1  0
  5  6  1  1
  7  8  2  0
  9  7  1  0
 10  9  1  0
 11 12  1  0
 10 11  1  1
 12 17  2  0
 13 12  1  0
 13 14  2  0
 14 15  1  0
 15 16  2  0
 17 16  1  0
 18 10  1  0
 19 18  2  0
 21 20  1  6
 21 22  1  0
 23 21  1  0
 24 25  1  0
 24 23  1  6
 25 18  1  0
 26 24  1  0
 27 26  1  0
 28 26  2  0
M  END
$$$$
