NFL.pdb
     RDKit          3D

 28 28  0  0  1  0  0  0  0  0999 V2000
   13.3637  -21.2643    1.4760 N   0  0  0  0  0  0  0  0  0  0  0  0
   14.1283  -22.1061    2.3186 C   0  0  0  0  0  0  0  0  0  0  0  0
   13.6806  -23.2608    2.5250 O   0  0  0  0  0  0  0  0  0  0  0  0
   15.3942  -21.6947    2.9471 C   0  0  0  0  0  0  0  0  0  0  0  0
   15.6620  -20.2557    2.6310 C   0  0  2  0  0  0  0  0  0  0  0  0
   15.6503  -19.9606    1.2344 N   0  0  0  0  0  0  0  0  0  0  0  0
   16.8912  -19.7475    3.3111 C   0  0  0  0  0  0  0  0  0  0  0  0
   18.0151  -20.0777    2.8199 O   0  0  0  0  0  0  0  0  0  0  0  0
   16.8184  -18.9300    4.4575 N   0  0  0  0  0  0  0  0  0  0  0  0
   18.0173  -18.4168    5.0931 C   0  0  1  0  0  0  0  0  0  0  0  0
   17.9384  -16.9444    5.1605 C   0  0  0  0  0  0  0  0  0  0  0  0
   18.1331  -16.1889    3.9365 C   0  0  0  0  0  0  0  0  0  0  0  0
   17.3901  -15.0497    3.7310 C   0  0  0  0  0  0  0  0  0  0  0  0
   17.5440  -14.2815    2.5705 C   0  0  0  0  0  0  0  0  0  0  0  0
   18.4476  -14.6458    1.5965 C   0  0  0  0  0  0  0  0  0  0  0  0
   19.1895  -15.7853    1.8037 C   0  0  0  0  0  0  0  0  0  0  0  0
   19.0314  -16.5315    2.9445 C   0  0  0  0  0  0  0  0  0  0  0  0
   18.2767  -19.1090    6.3842 C   0  0  0  0  0  0  0  0  0  0  0  0
   17.2906  -19.4247    7.0951 O   0  0  0  0  0  0  0  0  0  0  0  0
   21.5533  -23.3975    7.0874 C   0  0  0  0  0  0  0  0  0  0  0  0
   20.4938  -22.3889    7.3073 C   0  0  1  0  0  0  0  0  0  0  0  0
   19.3131  -23.1465    7.9446 C   0  0  0  0  0  0  0  0  0  0  0  0
   20.7924  -21.1433    8.0084 C   0  0  0  0  0  0  0  0  0  0  0  0
   19.7771  -20.0878    8.1396 C   0  0  2  0  0  0  0  0  0  0  0  0
   19.5681  -19.4213    6.8433 N   0  0  0  0  0  0  0  0  0  0  0  0
   19.9116  -19.0641    9.1613 C   0  0  0  0  0  0  0  0  0  0  0  0
   19.7664  -19.3987   10.5191 O   0  0  0  0  0  0  0  0  0  0  0  0
   20.1554  -17.8719    8.9044 O   0  0  0  0  0  0  0  0  0  0  0  0
  1  2  1  0
  2  3  2  0
  4  5  1  0
  4  2  1  0
  5  7  1  0
  5  6  1  6
  7  8  2  0
  9  7  1  0
 10  9  1  0
 11 12  1  0
 10 11  1  1
 12 17  2  0
 13 12  1  0
 13 14  2  0
 14 15  1  0
 15 16  2  0
 17 16  1  0
 18 10  1  0
 19 18  2  0
 21 20  1  1
 21 22  1  0
 23 21  1  0
 24 25  1  0
 24 23  1  6
 25 18  1  0
 26 24  1  0
 27 26  1  0
 28 26  2  0
M  END
$$$$
