NFL.pdb
     RDKit          3D

 28 28  0  0  1  0  0  0  0  0999 V2000
   25.8900  -19.4371  -14.7442 N   0  0  0  0  0  0  0  0  0  0  0  0
   24.7298  -19.6133  -13.9530 C   0  0  0  0  0  0  0  0  0  0  0  0
   23.6639  -19.1134  -14.3891 O   0  0  0  0  0  0  0  0  0  0  0  0
   24.7210  -20.3397  -12.6727 C   0  0  0  0  0  0  0  0  0  0  0  0
   26.1001  -20.8420  -12.3763 C   0  0  2  0  0  0  0  0  0  0  0  0
   26.5095  -21.9272  -13.2086 N   0  0  0  0  0  0  0  0  0  0  0  0
   26.2953  -21.1322  -10.9239 C   0  0  0  0  0  0  0  0  0  0  0  0
   25.8831  -22.2513  -10.4864 O   0  0  0  0  0  0  0  0  0  0  0  0
   26.9134  -20.2047  -10.0604 N   0  0  0  0  0  0  0  0  0  0  0  0
   27.0844  -20.4895   -8.6482 C   0  0  1  0  0  0  0  0  0  0  0  0
   28.2111  -19.6920   -8.1253 C   0  0  0  0  0  0  0  0  0  0  0  0
   28.4245  -19.6624   -6.6899 C   0  0  0  0  0  0  0  0  0  0  0  0
   29.0079  -20.7486   -6.0802 C   0  0  0  0  0  0  0  0  0  0  0  0
   29.2417  -20.7681   -4.6998 C   0  0  0  0  0  0  0  0  0  0  0  0
   28.8926  -19.6956   -3.9087 C   0  0  0  0  0  0  0  0  0  0  0  0
   28.3091  -18.6105   -4.5201 C   0  0  0  0  0  0  0  0  0  0  0  0
   28.0842  -18.6010   -5.8738 C   0  0  0  0  0  0  0  0  0  0  0  0
   25.7982  -20.3481   -7.9142 C   0  0  0  0  0  0  0  0  0  0  0  0
   25.0740  -19.3555   -8.1747 O   0  0  0  0  0  0  0  0  0  0  0  0
   20.5380  -22.4179   -6.9569 C   0  0  0  0  0  0  0  0  0  0  0  0
   21.6546  -21.7236   -6.2790 C   0  0  1  0  0  0  0  0  0  0  0  0
   21.6258  -22.2034   -4.8151 C   0  0  0  0  0  0  0  0  0  0  0  0
   23.0004  -21.7598   -6.8445 C   0  0  0  0  0  0  0  0  0  0  0  0
   24.1125  -21.0504   -6.1949 C   0  0  2  0  0  0  0  0  0  0  0  0
   25.3604  -21.2681   -6.9457 N   0  0  0  0  0  0  0  0  0  0  0  0
   24.3886  -21.2560   -4.7837 C   0  0  0  0  0  0  0  0  0  0  0  0
   23.8249  -20.3991   -3.8221 O   0  0  0  0  0  0  0  0  0  0  0  0
   25.1147  -22.1712   -4.3570 O   0  0  0  0  0  0  0  0  0  0  0  0
  1  2  1  0
  2  3  2  0
  4  5  1  0
  4  2  1  0
  5  7  1  0
  5  6  1  6
  7  8  2  0
  9  7  1  0
 10  9  1  0
 11 12  1  0
 10 11  1  1
 12 17  2  0
 13 12  1  0
 13 14  2  0
 14 15  1  0
 15 16  2  0
 17 16  1  0
 18 10  1  0
 19 18  2  0
 21 20  1  6
 21 22  1  0
 23 21  1  0
 24 25  1  0
 24 23  1  6
 25 18  1  0
 26 24  1  0
 27 26  1  0
 28 26  2  0
M  END
$$$$
