NFL.pdb
     RDKit          3D

 28 28  0  0  1  0  0  0  0  0999 V2000
   26.8213  -19.3232  -19.6210 N   0  0  0  0  0  0  0  0  0  0  0  0
   27.2329  -19.1430  -18.2788 C   0  0  0  0  0  0  0  0  0  0  0  0
   28.1106  -18.2708  -18.0663 O   0  0  0  0  0  0  0  0  0  0  0  0
   26.6887  -19.9160  -17.1504 C   0  0  0  0  0  0  0  0  0  0  0  0
   27.7853  -20.7201  -16.5234 C   0  0  2  0  0  0  0  0  0  0  0  0
   28.2145  -21.8266  -17.3166 N   0  0  0  0  0  0  0  0  0  0  0  0
   27.4632  -21.1158  -15.1193 C   0  0  0  0  0  0  0  0  0  0  0  0
   26.6052  -22.0370  -14.9492 O   0  0  0  0  0  0  0  0  0  0  0  0
   28.0831  -20.4960  -14.0150 N   0  0  0  0  0  0  0  0  0  0  0  0
   27.6557  -20.7762  -12.6572 C   0  0  1  0  0  0  0  0  0  0  0  0
   28.6052  -20.1564  -11.7120 C   0  0  0  0  0  0  0  0  0  0  0  0
   28.2960  -20.2072  -10.2947 C   0  0  0  0  0  0  0  0  0  0  0  0
   28.9501  -21.1217   -9.5023 C   0  0  0  0  0  0  0  0  0  0  0  0
   28.6934  -21.2074   -8.1285 C   0  0  0  0  0  0  0  0  0  0  0  0
   27.7744  -20.3751   -7.5280 C   0  0  0  0  0  0  0  0  0  0  0  0
   27.1213  -19.4615   -8.3221 C   0  0  0  0  0  0  0  0  0  0  0  0
   27.3799  -19.3852   -9.6676 C   0  0  0  0  0  0  0  0  0  0  0  0
   26.2248  -20.4190  -12.4620 C   0  0  0  0  0  0  0  0  0  0  0  0
   25.8051  -19.3533  -12.9774 O   0  0  0  0  0  0  0  0  0  0  0  0
   20.8817  -21.8873  -11.8514 C   0  0  0  0  0  0  0  0  0  0  0  0
   21.7385  -21.3660  -12.9388 C   0  0  1  0  0  0  0  0  0  0  0  0
   21.2444  -19.9334  -13.2179 C   0  0  0  0  0  0  0  0  0  0  0  0
   23.1931  -21.4365  -12.8327 C   0  0  0  0  0  0  0  0  0  0  0  0
   23.8933  -20.8847  -11.6634 C   0  0  2  0  0  0  0  0  0  0  0  0
   25.3270  -21.2141  -11.7287 N   0  0  0  0  0  0  0  0  0  0  0  0
   23.4201  -21.1751  -10.3211 C   0  0  0  0  0  0  0  0  0  0  0  0
   22.3077  -20.4904   -9.8013 O   0  0  0  0  0  0  0  0  0  0  0  0
   23.9525  -22.0183   -9.5778 O   0  0  0  0  0  0  0  0  0  0  0  0
  1  2  1  0
  2  3  2  0
  4  5  1  0
  4  2  1  0
  5  7  1  0
  5  6  1  6
  7  8  2  0
  9  7  1  0
 10  9  1  0
 11 12  1  0
 10 11  1  1
 12 17  2  0
 13 12  1  0
 13 14  2  0
 14 15  1  0
 15 16  2  0
 17 16  1  0
 18 10  1  0
 19 18  2  0
 21 20  1  1
 21 22  1  0
 23 21  1  0
 24 25  1  0
 24 23  1  6
 25 18  1  0
 26 24  1  0
 27 26  1  0
 28 26  2  0
M  END
$$$$
