REY.pdb
     RDKit          3D

 33 33  0  0  1  0  0  0  0  0999 V2000
    7.3296  -13.5960   16.5224 N   0  0  0  0  0  0  0  0  0  0  0  0
    7.8407  -12.9823   17.7214 C   0  0  0  0  0  0  0  0  0  0  0  0
    8.9403  -12.3342   17.6850 N   0  0  0  0  0  0  0  0  0  0  0  0
    7.1476  -13.0883   18.9443 N   0  0  0  0  0  0  0  0  0  0  0  0
    7.6616  -13.8295   20.1083 C   0  0  0  0  0  0  0  0  0  0  0  0
    6.7679  -14.9349   20.5260 C   0  0  0  0  0  0  0  0  0  0  0  0
    7.1935  -15.7774   21.6715 C   0  0  0  0  0  0  0  0  0  0  0  0
    8.1281  -16.8876   21.3648 C   0  0  2  0  0  0  0  0  0  0  0  0
    7.3791  -18.0396   20.8961 N   0  0  0  0  0  0  0  0  0  0  0  0
    8.9569  -17.2687   22.5498 C   0  0  0  0  0  0  0  0  0  0  0  0
    8.4370  -17.8596   23.5447 O   0  0  0  0  0  0  0  0  0  0  0  0
    9.4254  -11.8995   18.4790 N   0  0  0  0  0  0  0  0  0  0  0  0
   10.3402  -17.0118   22.6558 C   0  0  2  0  0  0  0  0  0  0  0  0
   11.1360  -17.2537   23.8340 C   0  0  0  0  0  0  0  0  0  0  0  0
   12.6084  -17.1377   23.6019 C   0  0  0  0  0  0  0  0  0  0  0  0
   13.0410  -18.1895   22.6048 C   0  0  0  0  0  0  0  0  0  0  0  0
   14.4971  -18.0484   22.2947 O   0  0  0  0  0  0  0  0  0  0  0  0
   14.9095  -17.8360   21.1491 C   0  0  0  0  0  0  0  0  0  0  0  0
   10.7597  -16.3741   24.9627 O   0  0  0  0  0  0  0  0  0  0  0  0
   10.2518  -15.2327   24.8047 O   0  0  0  0  0  0  0  0  0  0  0  0
   15.3810  -18.1659   23.3536 O   0  0  0  0  0  0  0  0  0  0  0  0
    6.2521  -11.5581   25.8265 C   0  0  0  0  0  0  0  0  0  0  0  0
    6.8457  -12.7804   26.1212 C   0  0  0  0  0  0  0  0  0  0  0  0
    6.2005  -13.9689   25.8808 C   0  0  0  0  0  0  0  0  0  0  0  0
    6.8042  -15.1651   26.1782 C   0  0  0  0  0  0  0  0  0  0  0  0
    8.0869  -15.2490   26.7330 C   0  0  0  0  0  0  0  0  0  0  0  0
    8.6940  -16.5521   27.0607 C   0  0  2  0  0  0  0  0  0  0  0  0
   10.1500  -16.4018   27.4098 N   0  0  0  0  0  0  0  0  0  0  0  0
   10.9816  -16.8392   26.2850 C   0  0  0  0  0  0  0  0  0  0  0  0
   10.4752  -17.2366   28.5693 O   0  0  0  0  0  0  0  0  0  0  0  0
   10.4482  -16.7025   29.8411 C   0  0  0  0  0  0  0  0  0  0  0  0
    8.7100  -14.0313   26.9635 C   0  0  0  0  0  0  0  0  0  0  0  0
    8.1062  -12.8289   26.6656 O   0  0  0  0  0  0  0  0  0  0  0  0
  2  3  2  0
  2  1  1  0
  4  2  1  0
  5  4  1  0
  6  5  1  0
  7  6  1  0
  8  7  1  0
  8 10  1  0
  8  9  1  1
 10 12  1  0
 10 11  2  0
 12 13  1  0
 13 14  1  6
 14 15  1  0
 16 20  1  0
 16 15  1  0
 17 16  2  0
 18 28  1  0
 18 13  1  0
 19 18  2  0
 22 21  1  0
 23 22  2  0
 24 23  1  0
 25 31  1  0
 25 24  2  0
 27 26  1  6
 26 25  1  0
 27 29  1  0
 27 28  1  0
 29 30  1  0
 31 32  2  0
 32 22  1  0
 33 29  2  0
M  END
$$$$
