REY.pdb
     RDKit          3D

 33 33  0  0  1  0  0  0  0  0999 V2000
   14.2699  -13.9245   18.3052 N   0  0  0  0  0  0  0  0  0  0  0  0
   13.7903  -13.9637   19.6632 C   0  0  0  0  0  0  0  0  0  0  0  0
   14.6208  -14.0598   20.6283 N   0  0  0  0  0  0  0  0  0  0  0  0
   12.4113  -13.9024   19.9489 N   0  0  0  0  0  0  0  0  0  0  0  0
   11.3630  -13.9934   18.9188 C   0  0  0  0  0  0  0  0  0  0  0  0
   10.1573  -13.2003   19.2544 C   0  0  0  0  0  0  0  0  0  0  0  0
    8.9583  -13.3612   18.3944 C   0  0  0  0  0  0  0  0  0  0  0  0
    8.5315  -14.7525   18.1081 C   0  0  2  0  0  0  0  0  0  0  0  0
    7.4029  -14.7378   17.1948 N   0  0  0  0  0  0  0  0  0  0  0  0
    8.1675  -15.4967   19.3531 C   0  0  0  0  0  0  0  0  0  0  0  0
    7.0703  -15.2713   19.9489 O   0  0  0  0  0  0  0  0  0  0  0  0
   14.3977  -14.1212   21.6289 N   0  0  0  0  0  0  0  0  0  0  0  0
    8.9865  -16.4793   19.9485 C   0  0  2  0  0  0  0  0  0  0  0  0
    8.6343  -17.2499   21.1155 C   0  0  0  0  0  0  0  0  0  0  0  0
    9.2672  -18.6038   21.1581 C   0  0  0  0  0  0  0  0  0  0  0  0
    9.5352  -19.0744   19.7460 C   0  0  0  0  0  0  0  0  0  0  0  0
    9.5723  -20.5683   19.6908 O   0  0  0  0  0  0  0  0  0  0  0  0
    9.7370  -21.2613   20.7008 C   0  0  0  0  0  0  0  0  0  0  0  0
    8.9400  -16.5400   22.3772 O   0  0  0  0  0  0  0  0  0  0  0  0
   10.0103  -15.9040   22.5658 O   0  0  0  0  0  0  0  0  0  0  0  0
    9.4130  -21.1569   18.4480 O   0  0  0  0  0  0  0  0  0  0  0  0
    7.0848  -10.5551   28.1223 C   0  0  0  0  0  0  0  0  0  0  0  0
    7.0144  -11.7525   27.4191 C   0  0  0  0  0  0  0  0  0  0  0  0
    7.8894  -12.7824   27.6648 C   0  0  0  0  0  0  0  0  0  0  0  0
    7.8027  -13.9570   26.9601 C   0  0  0  0  0  0  0  0  0  0  0  0
    6.8391  -14.1759   25.9682 C   0  0  0  0  0  0  0  0  0  0  0  0
    6.7914  -15.4429   25.2156 C   0  0  2  0  0  0  0  0  0  0  0  0
    8.1415  -15.7906   24.6491 N   0  0  0  0  0  0  0  0  0  0  0  0
    7.9816  -16.5777   23.4232 C   0  0  0  0  0  0  0  0  0  0  0  0
    8.8962  -16.5957   25.6130 O   0  0  0  0  0  0  0  0  0  0  0  0
    9.6059  -15.9845   26.6261 C   0  0  0  0  0  0  0  0  0  0  0  0
    5.9722  -13.1164   25.7448 C   0  0  0  0  0  0  0  0  0  0  0  0
    6.0569  -11.9361   26.4511 O   0  0  0  0  0  0  0  0  0  0  0  0
  2  3  2  0
  2  1  1  0
  4  2  1  0
  5  4  1  0
  6  5  1  0
  7  6  1  0
  8  7  1  0
  8 10  1  0
  8  9  1  6
 10 12  1  0
 10 11  2  0
 12 13  1  0
 13 14  1  6
 14 15  1  0
 16 20  1  0
 16 15  1  0
 17 16  2  0
 18 28  1  0
 18 13  1  0
 19 18  2  0
 22 21  1  0
 23 22  2  0
 24 23  1  0
 25 31  1  0
 25 24  2  0
 27 26  1  6
 26 25  1  0
 27 29  1  0
 27 28  1  0
 29 30  1  0
 31 32  2  0
 32 22  1  0
 33 29  2  0
M  END
$$$$
