REY.pdb
     RDKit          3D

 33 33  0  0  1  0  0  0  0  0999 V2000
   10.5735  -13.5170   18.7566 N   0  0  0  0  0  0  0  0  0  0  0  0
    9.1557  -13.2738   18.6770 C   0  0  0  0  0  0  0  0  0  0  0  0
    8.6862  -12.5527   17.7336 N   0  0  0  0  0  0  0  0  0  0  0  0
    8.2706  -13.8167   19.6305 N   0  0  0  0  0  0  0  0  0  0  0  0
    7.3113  -14.8924   19.3291 C   0  0  0  0  0  0  0  0  0  0  0  0
    6.3992  -15.1824   20.4601 C   0  0  0  0  0  0  0  0  0  0  0  0
    6.9507  -15.9150   21.6273 C   0  0  0  0  0  0  0  0  0  0  0  0
    7.9137  -17.0032   21.3303 C   0  0  2  0  0  0  0  0  0  0  0  0
    7.1999  -18.1597   20.8194 N   0  0  0  0  0  0  0  0  0  0  0  0
    8.7131  -17.3907   22.5333 C   0  0  0  0  0  0  0  0  0  0  0  0
    8.1426  -17.8057   23.5878 O   0  0  0  0  0  0  0  0  0  0  0  0
    7.6983  -12.3309   17.5614 N   0  0  0  0  0  0  0  0  0  0  0  0
   10.1214  -17.3298   22.5934 C   0  0  2  0  0  0  0  0  0  0  0  0
   10.9130  -17.6688   23.7502 C   0  0  0  0  0  0  0  0  0  0  0  0
   12.3700  -17.8324   23.4574 C   0  0  0  0  0  0  0  0  0  0  0  0
   13.1006  -18.1766   24.7361 C   0  0  0  0  0  0  0  0  0  0  0  0
   14.5683  -18.3072   24.4809 O   0  0  0  0  0  0  0  0  0  0  0  0
   15.2625  -17.3502   24.1208 C   0  0  0  0  0  0  0  0  0  0  0  0
   10.7538  -16.6938   24.8517 O   0  0  0  0  0  0  0  0  0  0  0  0
   11.0240  -15.4699   24.7303 O   0  0  0  0  0  0  0  0  0  0  0  0
   15.1309  -19.5586   24.6655 O   0  0  0  0  0  0  0  0  0  0  0  0
    6.3300  -11.0710   26.7637 C   0  0  0  0  0  0  0  0  0  0  0  0
    6.8719  -12.3355   26.9654 C   0  0  0  0  0  0  0  0  0  0  0  0
    7.9223  -12.5378   27.8270 C   0  0  0  0  0  0  0  0  0  0  0  0
    8.4426  -13.7943   28.0126 C   0  0  0  0  0  0  0  0  0  0  0  0
    7.9477  -14.9245   27.3509 C   0  0  0  0  0  0  0  0  0  0  0  0
    8.5477  -16.2552   27.5584 C   0  0  2  0  0  0  0  0  0  0  0  0
   10.0143  -16.2495   27.2216 N   0  0  0  0  0  0  0  0  0  0  0  0
   10.2740  -17.1603   26.1031 C   0  0  0  0  0  0  0  0  0  0  0  0
   10.7941  -16.7085   28.3741 O   0  0  0  0  0  0  0  0  0  0  0  0
   10.9720  -15.8850   29.4667 C   0  0  0  0  0  0  0  0  0  0  0  0
    6.8881  -14.6854   26.4883 C   0  0  0  0  0  0  0  0  0  0  0  0
    6.3636  -13.4249   26.3003 O   0  0  0  0  0  0  0  0  0  0  0  0
  2  3  2  0
  2  1  1  0
  4  2  1  0
  5  4  1  0
  6  5  1  0
  7  6  1  0
  8  7  1  0
  8 10  1  0
  8  9  1  1
 10 12  1  0
 10 11  2  0
 12 13  1  0
 13 14  1  6
 14 15  1  0
 16 20  1  0
 16 15  1  0
 17 16  2  0
 18 28  1  0
 18 13  1  0
 19 18  2  0
 22 21  1  0
 23 22  2  0
 24 23  1  0
 25 31  1  0
 25 24  2  0
 27 26  1  6
 26 25  1  0
 27 29  1  0
 27 28  1  0
 29 30  1  0
 31 32  2  0
 32 22  1  0
 33 29  2  0
M  END
$$$$
