REY.pdb
     RDKit          3D

 33 33  0  0  1  0  0  0  0  0999 V2000
    8.8644  -13.2482   20.3025 N   0  0  0  0  0  0  0  0  0  0  0  0
    8.7819  -13.1480   18.8678 C   0  0  0  0  0  0  0  0  0  0  0  0
    9.0627  -12.0444   18.2902 N   0  0  0  0  0  0  0  0  0  0  0  0
    8.3893  -14.2517   18.0835 N   0  0  0  0  0  0  0  0  0  0  0  0
    7.2332  -15.1059   18.4034 C   0  0  0  0  0  0  0  0  0  0  0  0
    7.4549  -15.9475   19.6024 C   0  0  0  0  0  0  0  0  0  0  0  0
    7.2835  -17.4152   19.4624 C   0  0  0  0  0  0  0  0  0  0  0  0
    8.5150  -18.2367   19.5550 C   0  0  2  0  0  0  0  0  0  0  0  0
    8.1643  -19.6453   19.5270 N   0  0  0  0  0  0  0  0  0  0  0  0
    9.3016  -17.9339   20.7904 C   0  0  0  0  0  0  0  0  0  0  0  0
    8.8086  -18.1361   21.9417 O   0  0  0  0  0  0  0  0  0  0  0  0
    9.0463  -11.8561   17.2807 N   0  0  0  0  0  0  0  0  0  0  0  0
   10.6139  -17.4159   20.7784 C   0  0  2  0  0  0  0  0  0  0  0  0
   11.3632  -17.0407   21.9521 C   0  0  0  0  0  0  0  0  0  0  0  0
   12.7797  -16.6571   21.6666 C   0  0  0  0  0  0  0  0  0  0  0  0
   13.5375  -16.5390   22.9701 C   0  0  0  0  0  0  0  0  0  0  0  0
   14.9830  -16.2570   22.7110 O   0  0  0  0  0  0  0  0  0  0  0  0
   15.6037  -15.3808   23.3230 C   0  0  0  0  0  0  0  0  0  0  0  0
   10.7166  -15.9483   22.7123 O   0  0  0  0  0  0  0  0  0  0  0  0
   10.5571  -14.7888   22.2478 O   0  0  0  0  0  0  0  0  0  0  0  0
   15.6115  -17.0250   21.7458 O   0  0  0  0  0  0  0  0  0  0  0  0
    5.5608  -11.0944   27.6312 C   0  0  0  0  0  0  0  0  0  0  0  0
    6.2045  -12.0569   26.8615 C   0  0  0  0  0  0  0  0  0  0  0  0
    7.1780  -11.7178   25.9537 C   0  0  0  0  0  0  0  0  0  0  0  0
    7.8020  -12.6832   25.2039 C   0  0  0  0  0  0  0  0  0  0  0  0
    7.4935  -14.0445   25.3133 C   0  0  0  0  0  0  0  0  0  0  0  0
    8.1692  -15.0509   24.4739 C   0  0  1  0  0  0  0  0  0  0  0  0
    9.6188  -15.1910   24.8529 N   0  0  0  0  0  0  0  0  0  0  0  0
   10.2544  -16.2208   24.0261 C   0  0  0  0  0  0  0  0  0  0  0  0
    9.7319  -15.5983   26.2559 O   0  0  0  0  0  0  0  0  0  0  0  0
   10.1759  -16.8638   26.5798 C   0  0  0  0  0  0  0  0  0  0  0  0
    6.5066  -14.3526   26.2380 C   0  0  0  0  0  0  0  0  0  0  0  0
    5.8787  -13.3852   26.9923 O   0  0  0  0  0  0  0  0  0  0  0  0
  2  3  2  0
  2  1  1  0
  4  2  1  0
  5  4  1  0
  6  5  1  0
  7  6  1  0
  8  7  1  0
  8 10  1  0
  8  9  1  1
 10 12  1  0
 10 11  2  0
 12 13  1  0
 13 14  1  6
 14 15  1  0
 16 20  1  0
 16 15  1  0
 17 16  2  0
 18 28  1  0
 18 13  1  0
 19 18  2  0
 22 21  1  0
 23 22  2  0
 24 23  1  0
 25 31  1  0
 25 24  2  0
 27 26  1  6
 26 25  1  0
 27 29  1  0
 27 28  1  0
 29 30  1  0
 31 32  2  0
 32 22  1  0
 33 29  2  0
M  END
$$$$
