REY.pdb
     RDKit          3D

 33 33  0  0  1  0  0  0  0  0999 V2000
    7.0969  -12.5931   18.7087 N   0  0  0  0  0  0  0  0  0  0  0  0
    8.4105  -12.4496   18.1349 C   0  0  0  0  0  0  0  0  0  0  0  0
    9.1659  -11.4899   18.5075 N   0  0  0  0  0  0  0  0  0  0  0  0
    8.8798  -13.3521   17.1590 N   0  0  0  0  0  0  0  0  0  0  0  0
    8.0490  -14.4146   16.5679 C   0  0  0  0  0  0  0  0  0  0  0  0
    7.7758  -15.5229   17.5125 C   0  0  0  0  0  0  0  0  0  0  0  0
    8.5062  -15.5305   18.8046 C   0  0  0  0  0  0  0  0  0  0  0  0
    9.5843  -16.5388   18.9491 C   0  0  2  0  0  0  0  0  0  0  0  0
    9.5451  -17.4583   17.8262 N   0  0  0  0  0  0  0  0  0  0  0  0
    9.4751  -17.2992   20.2321 C   0  0  0  0  0  0  0  0  0  0  0  0
    8.4507  -17.1843   20.9716 O   0  0  0  0  0  0  0  0  0  0  0  0
   10.0611  -11.2123   18.0877 N   0  0  0  0  0  0  0  0  0  0  0  0
   10.4690  -18.1790   20.7106 C   0  0  2  0  0  0  0  0  0  0  0  0
   10.6215  -18.5807   22.0872 C   0  0  0  0  0  0  0  0  0  0  0  0
   11.5698  -19.7200   22.2819 C   0  0  0  0  0  0  0  0  0  0  0  0
   11.5995  -20.1005   23.7454 C   0  0  0  0  0  0  0  0  0  0  0  0
   12.6048  -21.1814   23.9843 O   0  0  0  0  0  0  0  0  0  0  0  0
   12.5463  -21.9309   24.9653 C   0  0  0  0  0  0  0  0  0  0  0  0
   11.0342  -17.4611   22.9622 O   0  0  0  0  0  0  0  0  0  0  0  0
   12.2021  -16.9901   22.9706 O   0  0  0  0  0  0  0  0  0  0  0  0
   13.6198  -21.3149   23.0524 O   0  0  0  0  0  0  0  0  0  0  0  0
   10.6580  -13.9515   31.0677 C   0  0  0  0  0  0  0  0  0  0  0  0
   10.3253  -14.5027   29.8353 C   0  0  0  0  0  0  0  0  0  0  0  0
   10.0419  -13.7128   28.7480 C   0  0  0  0  0  0  0  0  0  0  0  0
    9.7162  -14.2766   27.5397 C   0  0  0  0  0  0  0  0  0  0  0  0
    9.6533  -15.6613   27.3423 C   0  0  0  0  0  0  0  0  0  0  0  0
    9.2771  -16.2304   26.0352 C   0  0  1  0  0  0  0  0  0  0  0  0
   10.4465  -16.2381   25.0881 N   0  0  0  0  0  0  0  0  0  0  0  0
   10.0682  -16.8915   23.8320 C   0  0  0  0  0  0  0  0  0  0  0  0
   11.5605  -16.9878   25.6749 O   0  0  0  0  0  0  0  0  0  0  0  0
   11.4030  -18.3152   26.0164 C   0  0  0  0  0  0  0  0  0  0  0  0
    9.9444  -16.4296   28.4599 C   0  0  0  0  0  0  0  0  0  0  0  0
   10.2718  -15.8661   29.6741 O   0  0  0  0  0  0  0  0  0  0  0  0
  2  3  2  0
  2  1  1  0
  4  2  1  0
  5  4  1  0
  6  5  1  0
  7  6  1  0
  8  7  1  0
  8 10  1  0
  8  9  1  6
 10 12  1  0
 10 11  2  0
 12 13  1  0
 13 14  1  6
 14 15  1  0
 16 20  1  0
 16 15  1  0
 17 16  2  0
 18 28  1  0
 18 13  1  0
 19 18  2  0
 22 21  1  0
 23 22  2  0
 24 23  1  0
 25 31  1  0
 25 24  2  0
 27 26  1  6
 26 25  1  0
 27 29  1  0
 27 28  1  0
 29 30  1  0
 31 32  2  0
 32 22  1  0
 33 29  2  0
M  END
$$$$
