REY.pdb
     RDKit          3D

 33 33  0  0  1  0  0  0  0  0999 V2000
    9.2941  -13.9742   18.8712 N   0  0  0  0  0  0  0  0  0  0  0  0
    8.6548  -14.0993   17.5862 C   0  0  0  0  0  0  0  0  0  0  0  0
    8.4366  -13.0577   16.8804 N   0  0  0  0  0  0  0  0  0  0  0  0
    8.2578  -15.3581   17.0915 N   0  0  0  0  0  0  0  0  0  0  0  0
    8.1350  -16.5603   17.9330 C   0  0  0  0  0  0  0  0  0  0  0  0
    6.7581  -16.7698   18.4384 C   0  0  0  0  0  0  0  0  0  0  0  0
    6.5521  -16.7839   19.9082 C   0  0  0  0  0  0  0  0  0  0  0  0
    6.7944  -18.0746   20.5977 C   0  0  2  0  0  0  0  0  0  0  0  0
    5.8531  -19.0690   20.1151 N   0  0  0  0  0  0  0  0  0  0  0  0
    6.6824  -17.9483   22.0836 C   0  0  0  0  0  0  0  0  0  0  0  0
    5.5558  -17.7677   22.6383 O   0  0  0  0  0  0  0  0  0  0  0  0
    7.9898  -13.0226   15.9564 N   0  0  0  0  0  0  0  0  0  0  0  0
    7.7836  -18.0179   22.9629 C   0  0  2  0  0  0  0  0  0  0  0  0
    7.7228  -17.7685   24.3820 C   0  0  0  0  0  0  0  0  0  0  0  0
    6.8730  -18.7447   25.1304 C   0  0  0  0  0  0  0  0  0  0  0  0
    7.6464  -20.0288   25.3311 C   0  0  0  0  0  0  0  0  0  0  0  0
    7.0220  -20.8517   26.4124 O   0  0  0  0  0  0  0  0  0  0  0  0
    7.6887  -21.3686   27.3157 C   0  0  0  0  0  0  0  0  0  0  0  0
    9.0629  -17.7241   25.0078 O   0  0  0  0  0  0  0  0  0  0  0  0
    9.6029  -18.7257   25.5471 O   0  0  0  0  0  0  0  0  0  0  0  0
    5.6483  -21.0166   26.3649 O   0  0  0  0  0  0  0  0  0  0  0  0
    5.9257  -10.3198   27.9008 C   0  0  0  0  0  0  0  0  0  0  0  0
    6.4067  -11.4465   27.2434 C   0  0  0  0  0  0  0  0  0  0  0  0
    5.5578  -12.4038   26.7436 C   0  0  0  0  0  0  0  0  0  0  0  0
    6.0527  -13.5086   26.0970 C   0  0  0  0  0  0  0  0  0  0  0  0
    7.4230  -13.7262   25.9095 C   0  0  0  0  0  0  0  0  0  0  0  0
    7.9184  -14.9372   25.2299 C   0  0  2  0  0  0  0  0  0  0  0  0
    9.2886  -15.3162   25.7233 N   0  0  0  0  0  0  0  0  0  0  0  0
    9.7724  -16.4950   24.9991 C   0  0  0  0  0  0  0  0  0  0  0  0
    9.2326  -15.6480   27.1494 O   0  0  0  0  0  0  0  0  0  0  0  0
    8.4523  -16.6971   27.5900 C   0  0  0  0  0  0  0  0  0  0  0  0
    8.2521  -12.7414   26.4262 C   0  0  0  0  0  0  0  0  0  0  0  0
    7.7578  -11.6310   27.0757 O   0  0  0  0  0  0  0  0  0  0  0  0
  2  3  2  0
  2  1  1  0
  4  2  1  0
  5  4  1  0
  6  5  1  0
  7  6  1  0
  8  7  1  0
  8 10  1  0
  8  9  1  6
 10 12  1  0
 10 11  2  0
 12 13  1  0
 13 14  1  6
 14 15  1  0
 16 20  1  0
 16 15  1  0
 17 16  2  0
 18 28  1  0
 18 13  1  0
 19 18  2  0
 22 21  1  0
 23 22  2  0
 24 23  1  0
 25 31  1  0
 25 24  2  0
 27 26  1  6
 26 25  1  0
 27 29  1  0
 27 28  1  0
 29 30  1  0
 31 32  2  0
 32 22  1  0
 33 29  2  0
M  END
$$$$
