REY.pdb
     RDKit          3D

 33 33  0  0  1  0  0  0  0  0999 V2000
    9.4960  -13.1077   20.0164 N   0  0  0  0  0  0  0  0  0  0  0  0
    8.1659  -12.9102   19.4993 C   0  0  0  0  0  0  0  0  0  0  0  0
    7.8087  -11.7554   19.0876 N   0  0  0  0  0  0  0  0  0  0  0  0
    7.2425  -13.9738   19.4432 N   0  0  0  0  0  0  0  0  0  0  0  0
    7.2938  -15.1426   20.3375 C   0  0  0  0  0  0  0  0  0  0  0  0
    6.7138  -14.8699   21.6733 C   0  0  0  0  0  0  0  0  0  0  0  0
    6.7406  -15.9617   22.6785 C   0  0  0  0  0  0  0  0  0  0  0  0
    7.5620  -17.1501   22.3425 C   0  0  2  0  0  0  0  0  0  0  0  0
    6.6966  -18.2965   22.1310 N   0  0  0  0  0  0  0  0  0  0  0  0
    8.5645  -17.4604   23.4079 C   0  0  0  0  0  0  0  0  0  0  0  0
    8.2267  -18.0905   24.4559 O   0  0  0  0  0  0  0  0  0  0  0  0
    6.8855  -11.4895   18.7248 N   0  0  0  0  0  0  0  0  0  0  0  0
    9.9245  -17.0912   23.3379 C   0  0  2  0  0  0  0  0  0  0  0  0
   10.8969  -17.3244   24.3771 C   0  0  0  0  0  0  0  0  0  0  0  0
   12.3114  -17.3151   23.8930 C   0  0  0  0  0  0  0  0  0  0  0  0
   13.2272  -17.7409   25.0187 C   0  0  0  0  0  0  0  0  0  0  0  0
   14.6451  -17.7961   24.5469 O   0  0  0  0  0  0  0  0  0  0  0  0
   15.3414  -18.8100   24.6686 C   0  0  0  0  0  0  0  0  0  0  0  0
   10.7694  -16.3670   25.4980 O   0  0  0  0  0  0  0  0  0  0  0  0
   10.9294  -15.1253   25.3626 O   0  0  0  0  0  0  0  0  0  0  0  0
   15.1584  -16.6526   23.9592 O   0  0  0  0  0  0  0  0  0  0  0  0
    6.5653  -12.1049   24.8355 C   0  0  0  0  0  0  0  0  0  0  0  0
    7.1964  -12.9804   25.7120 C   0  0  0  0  0  0  0  0  0  0  0  0
    6.9139  -14.3246   25.7124 C   0  0  0  0  0  0  0  0  0  0  0  0
    7.5485  -15.1725   26.5855 C   0  0  0  0  0  0  0  0  0  0  0  0
    8.5025  -14.7320   27.5107 C   0  0  0  0  0  0  0  0  0  0  0  0
    9.1467  -15.6693   28.4489 C   0  0  2  0  0  0  0  0  0  0  0  0
   10.5310  -16.0366   27.9869 N   0  0  0  0  0  0  0  0  0  0  0  0
   10.4518  -16.8723   26.7856 C   0  0  0  0  0  0  0  0  0  0  0  0
   11.2200  -16.8011   29.0299 O   0  0  0  0  0  0  0  0  0  0  0  0
   11.5081  -16.2166   30.2460 C   0  0  0  0  0  0  0  0  0  0  0  0
    8.7639  -13.3700   27.4843 C   0  0  0  0  0  0  0  0  0  0  0  0
    8.1284  -12.5166   26.6086 O   0  0  0  0  0  0  0  0  0  0  0  0
  2  3  2  0
  2  1  1  0
  4  2  1  0
  5  4  1  0
  6  5  1  0
  7  6  1  0
  8  7  1  0
  8 10  1  0
  8  9  1  1
 10 12  1  0
 10 11  2  0
 12 13  1  0
 13 14  1  6
 14 15  1  0
 16 20  1  0
 16 15  1  0
 17 16  2  0
 18 28  1  0
 18 13  1  0
 19 18  2  0
 22 21  1  0
 23 22  2  0
 24 23  1  0
 25 31  1  0
 25 24  2  0
 27 26  1  6
 26 25  1  0
 27 29  1  0
 27 28  1  0
 29 30  1  0
 31 32  2  0
 32 22  1  0
 33 29  2  0
M  END
$$$$
