REY.pdb
     RDKit          3D

 33 33  0  0  1  0  0  0  0  0999 V2000
    8.7642  -12.2995   18.4591 N   0  0  0  0  0  0  0  0  0  0  0  0
    7.8810  -13.4300   18.3276 C   0  0  0  0  0  0  0  0  0  0  0  0
    7.6334  -13.9125   17.1716 N   0  0  0  0  0  0  0  0  0  0  0  0
    7.2762  -14.0151   19.4586 N   0  0  0  0  0  0  0  0  0  0  0  0
    6.3770  -15.1792   19.3886 C   0  0  0  0  0  0  0  0  0  0  0  0
    7.1026  -16.4698   19.4423 C   0  0  0  0  0  0  0  0  0  0  0  0
    7.1478  -17.1880   20.7405 C   0  0  0  0  0  0  0  0  0  0  0  0
    7.4250  -16.3647   21.9426 C   0  0  2  0  0  0  0  0  0  0  0  0
    7.7802  -15.0163   21.5384 N   0  0  0  0  0  0  0  0  0  0  0  0
    8.5161  -16.9467   22.7836 C   0  0  0  0  0  0  0  0  0  0  0  0
    8.3331  -18.0189   23.4365 O   0  0  0  0  0  0  0  0  0  0  0  0
    7.0164  -14.7042   16.9541 N   0  0  0  0  0  0  0  0  0  0  0  0
    9.7976  -16.3711   22.9157 C   0  0  1  0  0  0  0  0  0  0  0  0
   10.8058  -16.8086   23.8494 C   0  0  0  0  0  0  0  0  0  0  0  0
   12.2042  -16.6556   23.3430 C   0  0  0  0  0  0  0  0  0  0  0  0
   12.3515  -17.4182   22.0453 C   0  0  0  0  0  0  0  0  0  0  0  0
   13.6604  -17.0985   21.3965 O   0  0  0  0  0  0  0  0  0  0  0  0
   13.7674  -16.2352   20.5185 C   0  0  0  0  0  0  0  0  0  0  0  0
   10.6961  -16.1319   25.1607 O   0  0  0  0  0  0  0  0  0  0  0  0
   10.5466  -14.8873   25.2812 O   0  0  0  0  0  0  0  0  0  0  0  0
   14.7659  -17.8153   21.8215 O   0  0  0  0  0  0  0  0  0  0  0  0
    6.1906  -11.6117   26.3448 C   0  0  0  0  0  0  0  0  0  0  0  0
    6.7498  -12.8686   26.5463 C   0  0  0  0  0  0  0  0  0  0  0  0
    7.9767  -13.0215   27.1446 C   0  0  0  0  0  0  0  0  0  0  0  0
    8.5111  -14.2713   27.3350 C   0  0  0  0  0  0  0  0  0  0  0  0
    7.8553  -15.4438   26.9406 C   0  0  0  0  0  0  0  0  0  0  0  0
    8.4715  -16.7682   27.1410 C   0  0  2  0  0  0  0  0  0  0  0  0
    9.9256  -16.6422   27.5073 N   0  0  0  0  0  0  0  0  0  0  0  0
   10.7621  -16.9229   26.3370 C   0  0  0  0  0  0  0  0  0  0  0  0
   10.2638  -17.6114   28.5529 O   0  0  0  0  0  0  0  0  0  0  0  0
   11.0825  -18.6849   28.2686 C   0  0  0  0  0  0  0  0  0  0  0  0
    6.6196  -15.2541   26.3397 C   0  0  0  0  0  0  0  0  0  0  0  0
    6.0807  -14.0004   26.1475 O   0  0  0  0  0  0  0  0  0  0  0  0
  2  3  2  0
  2  1  1  0
  4  2  1  0
  5  4  1  0
  6  5  1  0
  7  6  1  0
  8  7  1  0
  8 10  1  0
  8  9  1  6
 10 12  1  0
 10 11  2  0
 12 13  1  0
 13 14  1  6
 14 15  1  0
 16 20  1  0
 16 15  1  0
 17 16  2  0
 18 28  1  0
 18 13  1  0
 19 18  2  0
 22 21  1  0
 23 22  2  0
 24 23  1  0
 25 31  1  0
 25 24  2  0
 27 26  1  6
 26 25  1  0
 27 29  1  0
 27 28  1  0
 29 30  1  0
 31 32  2  0
 32 22  1  0
 33 29  2  0
M  END
$$$$
