REY.pdb
     RDKit          3D

 33 33  0  0  1  0  0  0  0  0999 V2000
    9.8851  -12.6812   19.0008 N   0  0  0  0  0  0  0  0  0  0  0  0
    8.4447  -12.6559   18.9898 C   0  0  0  0  0  0  0  0  0  0  0  0
    7.8144  -12.8049   17.8893 N   0  0  0  0  0  0  0  0  0  0  0  0
    7.7121  -12.4636   20.1787 N   0  0  0  0  0  0  0  0  0  0  0  0
    6.6255  -13.3554   20.6172 C   0  0  0  0  0  0  0  0  0  0  0  0
    7.0260  -14.7817   20.6383 C   0  0  0  0  0  0  0  0  0  0  0  0
    7.6072  -15.3218   21.8928 C   0  0  0  0  0  0  0  0  0  0  0  0
    8.7004  -16.3128   21.7423 C   0  0  2  0  0  0  0  0  0  0  0  0
    8.2804  -17.3681   20.8379 N   0  0  0  0  0  0  0  0  0  0  0  0
    9.1102  -16.9018   23.0543 C   0  0  0  0  0  0  0  0  0  0  0  0
    8.2414  -17.2938   23.8916 O   0  0  0  0  0  0  0  0  0  0  0  0
    6.8024  -12.9343   17.7720 N   0  0  0  0  0  0  0  0  0  0  0  0
   10.4527  -17.0658   23.4565 C   0  0  2  0  0  0  0  0  0  0  0  0
   10.8732  -17.5804   24.7364 C   0  0  0  0  0  0  0  0  0  0  0  0
   12.1178  -18.4065   24.6752 C   0  0  0  0  0  0  0  0  0  0  0  0
   12.8014  -18.1817   23.3450 C   0  0  0  0  0  0  0  0  0  0  0  0
   14.0448  -19.0070   23.2499 O   0  0  0  0  0  0  0  0  0  0  0  0
   14.7466  -19.0270   22.2327 C   0  0  0  0  0  0  0  0  0  0  0  0
   11.0578  -16.5126   25.7439 O   0  0  0  0  0  0  0  0  0  0  0  0
   11.7310  -15.4710   25.5256 O   0  0  0  0  0  0  0  0  0  0  0  0
   14.3876  -19.7598   24.3600 O   0  0  0  0  0  0  0  0  0  0  0  0
    6.4218  -12.8145   24.0223 C   0  0  0  0  0  0  0  0  0  0  0  0
    7.0773  -13.3937   25.1030 C   0  0  0  0  0  0  0  0  0  0  0  0
    8.0035  -12.6961   25.8394 C   0  0  0  0  0  0  0  0  0  0  0  0
    8.6391  -13.2859   26.9033 C   0  0  0  0  0  0  0  0  0  0  0  0
    8.3903  -14.6062   27.2973 C   0  0  0  0  0  0  0  0  0  0  0  0
    9.1099  -15.2135   28.4319 C   0  0  2  0  0  0  0  0  0  0  0  0
   10.5037  -15.6210   28.0370 N   0  0  0  0  0  0  0  0  0  0  0  0
   10.4472  -16.6702   27.0152 C   0  0  0  0  0  0  0  0  0  0  0  0
   11.2172  -16.1549   29.2002 O   0  0  0  0  0  0  0  0  0  0  0  0
   11.6686  -17.4586   29.2018 C   0  0  0  0  0  0  0  0  0  0  0  0
    7.4507  -15.2821   26.5328 C   0  0  0  0  0  0  0  0  0  0  0  0
    6.8109  -14.6922   25.4643 O   0  0  0  0  0  0  0  0  0  0  0  0
  2  3  2  0
  2  1  1  0
  4  2  1  0
  5  4  1  0
  6  5  1  0
  7  6  1  0
  8  7  1  0
  8 10  1  0
  8  9  1  6
 10 12  1  0
 10 11  2  0
 12 13  1  0
 13 14  1  6
 14 15  1  0
 16 20  1  0
 16 15  1  0
 17 16  2  0
 18 28  1  0
 18 13  1  0
 19 18  2  0
 22 21  1  0
 23 22  2  0
 24 23  1  0
 25 31  1  0
 25 24  2  0
 27 26  1  6
 26 25  1  0
 27 29  1  0
 27 28  1  0
 29 30  1  0
 31 32  2  0
 32 22  1  0
 33 29  2  0
M  END
$$$$
