REY.pdb
     RDKit          3D

 33 33  0  0  1  0  0  0  0  0999 V2000
   16.9446  -22.7173   10.4239 N   0  0  0  0  0  0  0  0  0  0  0  0
   15.6807  -22.9591    9.7763 C   0  0  0  0  0  0  0  0  0  0  0  0
   15.4981  -24.0401    9.1216 N   0  0  0  0  0  0  0  0  0  0  0  0
   14.6352  -22.0161    9.8478 N   0  0  0  0  0  0  0  0  0  0  0  0
   14.7221  -20.7631   10.6165 C   0  0  0  0  0  0  0  0  0  0  0  0
   14.9312  -20.9911   12.0654 C   0  0  0  0  0  0  0  0  0  0  0  0
   13.7657  -20.8277   12.9698 C   0  0  0  0  0  0  0  0  0  0  0  0
   13.4677  -19.4468   13.4218 C   0  0  2  0  0  0  0  0  0  0  0  0
   14.2941  -18.5050   12.6883 N   0  0  0  0  0  0  0  0  0  0  0  0
   13.6862  -19.2766   14.8914 C   0  0  0  0  0  0  0  0  0  0  0  0
   14.7015  -18.6557   15.3309 O   0  0  0  0  0  0  0  0  0  0  0  0
   14.6599  -24.3040    8.5901 N   0  0  0  0  0  0  0  0  0  0  0  0
   12.8099  -19.7751   15.8786 C   0  0  2  0  0  0  0  0  0  0  0  0
   13.0257  -19.6725   17.3007 C   0  0  0  0  0  0  0  0  0  0  0  0
   11.8400  -20.0679   18.1210 C   0  0  0  0  0  0  0  0  0  0  0  0
   12.1058  -19.7400   19.5734 C   0  0  0  0  0  0  0  0  0  0  0  0
   10.9324  -20.1207   20.4186 O   0  0  0  0  0  0  0  0  0  0  0  0
   10.9444  -21.1138   21.1543 C   0  0  0  0  0  0  0  0  0  0  0  0
   14.2004  -20.4500   17.7536 O   0  0  0  0  0  0  0  0  0  0  0  0
   14.4728  -21.5996   17.3179 O   0  0  0  0  0  0  0  0  0  0  0  0
    9.8142  -19.3078   20.3468 O   0  0  0  0  0  0  0  0  0  0  0  0
   22.0721  -22.5931   20.8799 C   0  0  0  0  0  0  0  0  0  0  0  0
   20.9331  -21.8978   20.4897 C   0  0  0  0  0  0  0  0  0  0  0  0
   20.3143  -22.1485   19.2893 C   0  0  0  0  0  0  0  0  0  0  0  0
   19.1902  -21.4515   18.9229 C   0  0  0  0  0  0  0  0  0  0  0  0
   18.6151  -20.4627   19.7303 C   0  0  0  0  0  0  0  0  0  0  0  0
   17.4200  -19.7184   19.2926 C   0  0  2  0  0  0  0  0  0  0  0  0
   16.2026  -20.6029   19.2795 N   0  0  0  0  0  0  0  0  0  0  0  0
   15.0599  -19.8724   18.7240 C   0  0  0  0  0  0  0  0  0  0  0  0
   15.8641  -21.0084   20.6463 O   0  0  0  0  0  0  0  0  0  0  0  0
   16.6139  -21.9689   21.2933 C   0  0  0  0  0  0  0  0  0  0  0  0
   19.2644  -20.2341   20.9345 C   0  0  0  0  0  0  0  0  0  0  0  0
   20.3931  -20.9327   21.3050 O   0  0  0  0  0  0  0  0  0  0  0  0
  2  3  2  0
  2  1  1  0
  4  2  1  0
  5  4  1  0
  6  5  1  0
  7  6  1  0
  8  7  1  0
  8 10  1  0
  8  9  1  6
 10 12  1  0
 10 11  2  0
 12 13  1  0
 13 14  1  6
 14 15  1  0
 16 20  1  0
 16 15  1  0
 17 16  2  0
 18 28  1  0
 18 13  1  0
 19 18  2  0
 22 21  1  0
 23 22  2  0
 24 23  1  0
 25 31  1  0
 25 24  2  0
 27 26  1  6
 26 25  1  0
 27 29  1  0
 27 28  1  0
 29 30  1  0
 31 32  2  0
 32 22  1  0
 33 29  2  0
M  END
$$$$
