REY.pdb
     RDKit          3D

 33 33  0  0  1  0  0  0  0  0999 V2000
    8.0951  -12.2404   20.5335 N   0  0  0  0  0  0  0  0  0  0  0  0
    8.3763  -12.8360   19.2523 C   0  0  0  0  0  0  0  0  0  0  0  0
    9.1313  -12.2287   18.4206 N   0  0  0  0  0  0  0  0  0  0  0  0
    7.8259  -14.0834   18.8942 N   0  0  0  0  0  0  0  0  0  0  0  0
    6.6271  -14.6555   19.5299 C   0  0  0  0  0  0  0  0  0  0  0  0
    6.8945  -15.1875   20.8866 C   0  0  0  0  0  0  0  0  0  0  0  0
    6.5544  -16.6070   21.1558 C   0  0  0  0  0  0  0  0  0  0  0  0
    7.6388  -17.5976   20.9490 C   0  0  2  0  0  0  0  0  0  0  0  0
    7.0976  -18.9409   21.0511 N   0  0  0  0  0  0  0  0  0  0  0  0
    8.7542  -17.4236   21.9298 C   0  0  0  0  0  0  0  0  0  0  0  0
    8.6816  -17.9238   23.0935 O   0  0  0  0  0  0  0  0  0  0  0  0
    9.2973  -12.4838   17.4397 N   0  0  0  0  0  0  0  0  0  0  0  0
    9.9409  -16.7129   21.6516 C   0  0  2  0  0  0  0  0  0  0  0  0
   10.9820  -16.4385   22.6111 C   0  0  0  0  0  0  0  0  0  0  0  0
   12.0300  -15.4966   22.1114 C   0  0  0  0  0  0  0  0  0  0  0  0
   12.7172  -16.1060   20.9099 C   0  0  0  0  0  0  0  0  0  0  0  0
   13.5682  -15.0871   20.2215 O   0  0  0  0  0  0  0  0  0  0  0  0
   14.0975  -14.1505   20.8301 C   0  0  0  0  0  0  0  0  0  0  0  0
   10.4506  -15.9252   23.8931 O   0  0  0  0  0  0  0  0  0  0  0  0
    9.8676  -14.8141   23.9996 O   0  0  0  0  0  0  0  0  0  0  0  0
   13.7450  -15.2326   18.8562 O   0  0  0  0  0  0  0  0  0  0  0  0
    6.5540  -10.9718   26.8880 C   0  0  0  0  0  0  0  0  0  0  0  0
    7.0279  -12.2682   26.7209 C   0  0  0  0  0  0  0  0  0  0  0  0
    6.1768  -13.3458   26.6903 C   0  0  0  0  0  0  0  0  0  0  0  0
    6.6646  -14.6179   26.5238 C   0  0  0  0  0  0  0  0  0  0  0  0
    8.0296  -14.8926   26.3777 C   0  0  0  0  0  0  0  0  0  0  0  0
    8.5186  -16.2751   26.2238 C   0  0  2  0  0  0  0  0  0  0  0  0
   10.0173  -16.3387   26.3430 N   0  0  0  0  0  0  0  0  0  0  0  0
   10.6053  -16.7229   25.0566 C   0  0  0  0  0  0  0  0  0  0  0  0
   10.3978  -17.3455   27.3373 O   0  0  0  0  0  0  0  0  0  0  0  0
   11.0800  -18.4812   26.9522 C   0  0  0  0  0  0  0  0  0  0  0  0
    8.8612  -13.7830   26.4136 C   0  0  0  0  0  0  0  0  0  0  0  0
    8.3739  -12.5047   26.5805 O   0  0  0  0  0  0  0  0  0  0  0  0
  2  3  2  0
  2  1  1  0
  4  2  1  0
  5  4  1  0
  6  5  1  0
  7  6  1  0
  8  7  1  0
  8 10  1  0
  8  9  1  1
 10 12  1  0
 10 11  2  0
 12 13  1  0
 13 14  1  6
 14 15  1  0
 16 20  1  0
 16 15  1  0
 17 16  2  0
 18 28  1  0
 18 13  1  0
 19 18  2  0
 22 21  1  0
 23 22  2  0
 24 23  1  0
 25 31  1  0
 25 24  2  0
 27 26  1  6
 26 25  1  0
 27 29  1  0
 27 28  1  0
 29 30  1  0
 31 32  2  0
 32 22  1  0
 33 29  2  0
M  END
$$$$
