HVH.pdb
     RDKit          3D

 28 29  0  0  1  0  0  0  0  0999 V2000
    8.9531  -15.9484   19.8258 N   0  0  0  0  0  0  0  0  0  0  0  0
    7.9847  -15.9910   20.8770 C   0  0  1  0  0  0  0  0  0  0  0  0
    7.5212  -17.4337   21.0109 C   0  0  0  0  0  0  0  0  0  0  0  0
    6.7410  -17.8480   19.8042 C   0  0  0  0  0  0  0  0  0  0  0  0
    6.5827  -17.1123   18.6501 C   0  0  0  0  0  0  0  0  0  0  0  0
    5.8103  -17.8133   17.7781 N   0  0  0  0  0  0  0  0  0  0  0  0
    5.4959  -18.9714   18.3907 C   0  0  0  0  0  0  0  0  0  0  0  0
    6.0598  -18.9938   19.6200 N   0  0  0  0  0  0  0  0  0  0  0  0
    8.6005  -15.6447   22.2090 C   0  0  0  0  0  0  0  0  0  0  0  0
    9.7399  -16.0553   22.5244 O   0  0  0  0  0  0  0  0  0  0  0  0
    7.4262  -12.3072   24.2706 C   0  0  0  0  0  0  0  0  0  0  0  0
    7.5942  -13.4810   25.1899 C   0  0  1  0  0  0  0  0  0  0  0  0
    6.3109  -13.9856   25.7317 C   0  0  0  0  0  0  0  0  0  0  0  0
    8.4116  -14.5570   24.4765 C   0  0  2  0  0  0  0  0  0  0  0  0
    7.9219  -14.8412   23.1640 N   0  0  0  0  0  0  0  0  0  0  0  0
    8.5231  -15.7794   25.3247 C   0  0  0  0  0  0  0  0  0  0  0  0
    7.5294  -16.5206   25.5439 O   0  0  0  0  0  0  0  0  0  0  0  0
    9.7468  -16.1756   25.9298 N   0  0  0  0  0  0  0  0  0  0  0  0
    9.8370  -17.4387   26.7169 C   0  0  1  0  0  0  0  0  0  0  0  0
   11.0755  -18.0840   26.2286 C   0  0  0  0  0  0  0  0  0  0  0  0
   11.5642  -19.2571   26.9411 C   0  0  0  0  0  0  0  0  0  0  0  0
   12.0852  -19.4770   28.1748 C   0  0  0  0  0  0  0  0  0  0  0  0
   12.3264  -20.8100   28.2994 N   0  0  0  0  0  0  0  0  0  0  0  0
   11.9589  -21.4049   27.1601 C   0  0  0  0  0  0  0  0  0  0  0  0
   11.5014  -20.4854   26.3407 N   0  0  0  0  0  0  0  0  0  0  0  0
   10.0945  -16.9635   28.1215 C   0  0  0  0  0  0  0  0  0  0  0  0
    9.9931  -17.8321   29.0399 O   0  0  0  0  0  0  0  0  0  0  0  0
   10.4261  -15.6714   28.4626 O   0  0  0  0  0  0  0  0  0  0  0  0
  2  1  1  6
  2  9  1  0
  3  2  1  0
  3  4  1  0
  4  5  2  0
  5  6  1  0
  7  6  1  0
  8  4  1  0
  8  7  2  0
  9 10  2  0
 12 11  1  6
 12 14  1  0
 13 12  1  0
 14 16  1  0
 14 15  1  6
 15  9  1  0
 16 18  1  0
 16 17  2  0
 18 19  1  0
 19 26  1  0
 19 20  1  6
 21 20  1  0
 21 25  1  0
 22 21  2  0
 23 22  1  0
 23 24  1  0
 24 25  2  0
 26 27  2  0
 26 28  1  0
M  END
$$$$
