HVH.pdb
     RDKit          3D

 28 29  0  0  1  0  0  0  0  0999 V2000
   10.0252  -14.4289   20.8845 N   0  0  0  0  0  0  0  0  0  0  0  0
    8.8226  -14.0574   21.5629 C   0  0  1  0  0  0  0  0  0  0  0  0
    7.6943  -14.8961   20.9816 C   0  0  0  0  0  0  0  0  0  0  0  0
    7.4795  -14.5594   19.5404 C   0  0  0  0  0  0  0  0  0  0  0  0
    6.7233  -13.5141   19.0567 C   0  0  0  0  0  0  0  0  0  0  0  0
    6.7635  -13.5276   17.6978 N   0  0  0  0  0  0  0  0  0  0  0  0
    7.5383  -14.5730   17.3480 C   0  0  0  0  0  0  0  0  0  0  0  0
    7.9733  -15.1998   18.4649 N   0  0  0  0  0  0  0  0  0  0  0  0
    8.8783  -14.4223   23.0248 C   0  0  0  0  0  0  0  0  0  0  0  0
    9.5968  -15.3622   23.4328 O   0  0  0  0  0  0  0  0  0  0  0  0
    7.6166  -13.1783   27.6793 C   0  0  0  0  0  0  0  0  0  0  0  0
    7.3253  -13.0014   26.2181 C   0  0  1  0  0  0  0  0  0  0  0  0
    7.3755  -11.5869   25.7807 C   0  0  0  0  0  0  0  0  0  0  0  0
    8.2501  -13.9139   25.4137 C   0  0  2  0  0  0  0  0  0  0  0  0
    8.1232  -13.7217   24.0030 N   0  0  0  0  0  0  0  0  0  0  0  0
    8.0633  -15.3379   25.8181 C   0  0  0  0  0  0  0  0  0  0  0  0
    6.9670  -15.9322   25.6454 O   0  0  0  0  0  0  0  0  0  0  0  0
    9.1027  -16.1007   26.4168 N   0  0  0  0  0  0  0  0  0  0  0  0
    8.8651  -17.5061   26.8544 C   0  0  1  0  0  0  0  0  0  0  0  0
    9.9731  -18.2704   26.2403 C   0  0  0  0  0  0  0  0  0  0  0  0
    9.9271  -18.5102   24.8040 C   0  0  0  0  0  0  0  0  0  0  0  0
    9.0414  -18.2254   23.8159 C   0  0  0  0  0  0  0  0  0  0  0  0
    9.5641  -18.6675   22.6404 N   0  0  0  0  0  0  0  0  0  0  0  0
   10.7555  -19.2164   22.8982 C   0  0  0  0  0  0  0  0  0  0  0  0
   10.9826  -19.1275   24.1892 N   0  0  0  0  0  0  0  0  0  0  0  0
    9.1106  -17.4617   28.3386 C   0  0  0  0  0  0  0  0  0  0  0  0
    9.5635  -16.3727   28.8045 O   0  0  0  0  0  0  0  0  0  0  0  0
    8.8785  -18.5085   29.2023 O   0  0  0  0  0  0  0  0  0  0  0  0
  2  1  1  6
  2  9  1  0
  3  2  1  0
  3  4  1  0
  4  5  2  0
  5  6  1  0
  7  6  1  0
  8  4  1  0
  8  7  2  0
  9 10  2  0
 12 11  1  1
 12 14  1  0
 13 12  1  0
 14 16  1  0
 14 15  1  6
 15  9  1  0
 16 18  1  0
 16 17  2  0
 18 19  1  0
 19 26  1  0
 19 20  1  6
 21 20  1  0
 21 25  1  0
 22 21  2  0
 23 22  1  0
 23 24  1  0
 24 25  2  0
 26 27  2  0
 26 28  1  0
M  END
$$$$
