HVH.pdb
     RDKit          3D

 28 29  0  0  1  0  0  0  0  0999 V2000
    9.0616  -15.1275   20.3289 N   0  0  0  0  0  0  0  0  0  0  0  0
    8.0194  -15.4031   21.2683 C   0  0  1  0  0  0  0  0  0  0  0  0
    7.7749  -16.9045   21.2497 C   0  0  0  0  0  0  0  0  0  0  0  0
    7.1763  -17.3222   19.9444 C   0  0  0  0  0  0  0  0  0  0  0  0
    5.8717  -17.7158   19.7406 C   0  0  0  0  0  0  0  0  0  0  0  0
    5.6989  -18.0197   18.4268 N   0  0  0  0  0  0  0  0  0  0  0  0
    6.8878  -17.8147   17.8267 C   0  0  0  0  0  0  0  0  0  0  0  0
    7.7850  -17.3915   18.7463 N   0  0  0  0  0  0  0  0  0  0  0  0
    8.4493  -15.0866   22.6784 C   0  0  0  0  0  0  0  0  0  0  0  0
    9.5628  -15.4538   23.1159 O   0  0  0  0  0  0  0  0  0  0  0  0
    7.2429  -13.1137   27.0918 C   0  0  0  0  0  0  0  0  0  0  0  0
    6.8764  -13.2552   25.6437 C   0  0  1  0  0  0  0  0  0  0  0  0
    6.6868  -11.9545   24.9604 C   0  0  0  0  0  0  0  0  0  0  0  0
    7.9052  -14.1522   24.9568 C   0  0  2  0  0  0  0  0  0  0  0  0
    7.6171  -14.3612   23.5724 N   0  0  0  0  0  0  0  0  0  0  0  0
    8.0711  -15.4307   25.7080 C   0  0  0  0  0  0  0  0  0  0  0  0
    7.1816  -16.3216   25.6943 O   0  0  0  0  0  0  0  0  0  0  0  0
    9.2324  -15.7156   26.4764 N   0  0  0  0  0  0  0  0  0  0  0  0
    9.4466  -17.0684   27.0657 C   0  0  1  0  0  0  0  0  0  0  0  0
   10.4879  -17.6775   26.2094 C   0  0  0  0  0  0  0  0  0  0  0  0
   11.1150  -18.9111   26.6648 C   0  0  0  0  0  0  0  0  0  0  0  0
   10.9915  -19.6956   27.7655 C   0  0  0  0  0  0  0  0  0  0  0  0
   11.8221  -20.7628   27.6183 N   0  0  0  0  0  0  0  0  0  0  0  0
   12.4487  -20.6401   26.4438 C   0  0  0  0  0  0  0  0  0  0  0  0
   12.0331  -19.5362   25.8652 N   0  0  0  0  0  0  0  0  0  0  0  0
   10.0707  -16.7773   28.4040 C   0  0  0  0  0  0  0  0  0  0  0  0
   10.4572  -15.5857   28.6005 O   0  0  0  0  0  0  0  0  0  0  0  0
   10.2439  -17.7059   29.4058 O   0  0  0  0  0  0  0  0  0  0  0  0
  2  1  1  6
  2  9  1  0
  3  2  1  0
  3  4  1  0
  4  5  2  0
  5  6  1  0
  7  6  1  0
  8  4  1  0
  8  7  2  0
  9 10  2  0
 12 11  1  1
 12 14  1  0
 13 12  1  0
 14 16  1  0
 14 15  1  6
 15  9  1  0
 16 18  1  0
 16 17  2  0
 18 19  1  0
 19 26  1  0
 19 20  1  6
 21 20  1  0
 21 25  1  0
 22 21  2  0
 23 22  1  0
 23 24  1  0
 24 25  2  0
 26 27  2  0
 26 28  1  0
M  END
$$$$
