HVH.pdb
     RDKit          3D

 28 29  0  0  1  0  0  0  0  0999 V2000
    9.8983  -13.7203   20.6581 N   0  0  0  0  0  0  0  0  0  0  0  0
    8.6830  -13.7136   21.4115 C   0  0  1  0  0  0  0  0  0  0  0  0
    7.8380  -14.8804   20.9231 C   0  0  0  0  0  0  0  0  0  0  0  0
    7.4684  -14.6948   19.4859 C   0  0  0  0  0  0  0  0  0  0  0  0
    7.9588  -13.7219   18.6425 C   0  0  0  0  0  0  0  0  0  0  0  0
    7.3924  -13.8700   17.4155 N   0  0  0  0  0  0  0  0  0  0  0  0
    6.5599  -14.9259   17.5030 C   0  0  0  0  0  0  0  0  0  0  0  0
    6.6051  -15.4272   18.7585 N   0  0  0  0  0  0  0  0  0  0  0  0
    8.9375  -13.9893   22.8719 C   0  0  0  0  0  0  0  0  0  0  0  0
    9.8466  -14.7679   23.2372 O   0  0  0  0  0  0  0  0  0  0  0  0
    6.0933  -13.0156   25.9838 C   0  0  0  0  0  0  0  0  0  0  0  0
    7.5333  -12.6303   26.1549 C   0  0  1  0  0  0  0  0  0  0  0  0
    7.9595  -12.5825   27.5730 C   0  0  0  0  0  0  0  0  0  0  0  0
    8.3988  -13.5516   25.2964 C   0  0  2  0  0  0  0  0  0  0  0  0
    8.1630  -13.3828   23.8968 N   0  0  0  0  0  0  0  0  0  0  0  0
    8.2516  -14.9697   25.7364 C   0  0  0  0  0  0  0  0  0  0  0  0
    7.1631  -15.5888   25.6069 O   0  0  0  0  0  0  0  0  0  0  0  0
    9.3219  -15.6987   26.3224 N   0  0  0  0  0  0  0  0  0  0  0  0
    9.1418  -17.1189   26.7396 C   0  0  1  0  0  0  0  0  0  0  0  0
   10.3287  -17.8121   26.1925 C   0  0  0  0  0  0  0  0  0  0  0  0
   10.3813  -18.0518   24.7564 C   0  0  0  0  0  0  0  0  0  0  0  0
    9.5126  -17.8829   23.7274 C   0  0  0  0  0  0  0  0  0  0  0  0
   10.1427  -18.2493   22.5788 N   0  0  0  0  0  0  0  0  0  0  0  0
   11.3826  -18.6378   22.8933 C   0  0  0  0  0  0  0  0  0  0  0  0
   11.5360  -18.5235   24.1932 N   0  0  0  0  0  0  0  0  0  0  0  0
    9.2926  -17.0705   28.2363 C   0  0  0  0  0  0  0  0  0  0  0  0
    9.1694  -18.1716   28.8530 O   0  0  0  0  0  0  0  0  0  0  0  0
    9.5504  -15.9283   28.9608 O   0  0  0  0  0  0  0  0  0  0  0  0
  2  1  1  6
  2  9  1  0
  3  2  1  0
  3  4  1  0
  4  5  2  0
  5  6  1  0
  7  6  1  0
  8  4  1  0
  8  7  2  0
  9 10  2  0
 12 11  1  1
 12 14  1  0
 13 12  1  0
 14 16  1  0
 14 15  1  6
 15  9  1  0
 16 18  1  0
 16 17  2  0
 18 19  1  0
 19 26  1  0
 19 20  1  6
 21 20  1  0
 21 25  1  0
 22 21  2  0
 23 22  1  0
 23 24  1  0
 24 25  2  0
 26 27  2  0
 26 28  1  0
M  END
$$$$
