HVH.pdb
     RDKit          3D

 28 29  0  0  1  0  0  0  0  0999 V2000
    8.5638  -15.0345   20.3602 N   0  0  0  0  0  0  0  0  0  0  0  0
    7.7572  -15.2985   21.5109 C   0  0  1  0  0  0  0  0  0  0  0  0
    7.8477  -16.7897   21.7981 C   0  0  0  0  0  0  0  0  0  0  0  0
    7.1085  -17.5698   20.7581 C   0  0  0  0  0  0  0  0  0  0  0  0
    6.4656  -17.0464   19.6576 C   0  0  0  0  0  0  0  0  0  0  0  0
    5.9086  -18.0606   18.9437 N   0  0  0  0  0  0  0  0  0  0  0  0
    6.2065  -19.1992   19.5997 C   0  0  0  0  0  0  0  0  0  0  0  0
    6.9344  -18.9029   20.7006 N   0  0  0  0  0  0  0  0  0  0  0  0
    8.3100  -14.6215   22.7395 C   0  0  0  0  0  0  0  0  0  0  0  0
    9.5224  -14.3242   22.8274 O   0  0  0  0  0  0  0  0  0  0  0  0
    5.7875  -13.9558   26.1793 C   0  0  0  0  0  0  0  0  0  0  0  0
    6.8378  -12.9501   25.8097 C   0  0  1  0  0  0  0  0  0  0  0  0
    7.3297  -12.1682   26.9679 C   0  0  0  0  0  0  0  0  0  0  0  0
    7.9541  -13.6576   25.0426 C   0  0  2  0  0  0  0  0  0  0  0  0
    7.4871  -14.2906   23.8492 N   0  0  0  0  0  0  0  0  0  0  0  0
    8.6933  -14.5947   25.9380 C   0  0  0  0  0  0  0  0  0  0  0  0
    9.1332  -14.2246   27.0580 O   0  0  0  0  0  0  0  0  0  0  0  0
    8.9423  -15.9482   25.5824 N   0  0  0  0  0  0  0  0  0  0  0  0
    9.6807  -16.8577   26.5047 C   0  0  1  0  0  0  0  0  0  0  0  0
    9.1621  -18.2046   26.1798 C   0  0  0  0  0  0  0  0  0  0  0  0
    8.2306  -18.8242   27.1130 C   0  0  0  0  0  0  0  0  0  0  0  0
    8.0820  -18.8148   28.4620 C   0  0  0  0  0  0  0  0  0  0  0  0
    6.9869  -19.5603   28.7710 N   0  0  0  0  0  0  0  0  0  0  0  0
    6.4661  -20.0226   27.6299 C   0  0  0  0  0  0  0  0  0  0  0  0
    7.2020  -19.5882   26.6320 N   0  0  0  0  0  0  0  0  0  0  0  0
   11.1009  -16.7856   26.0118 C   0  0  0  0  0  0  0  0  0  0  0  0
   11.2993  -16.1134   24.9550 O   0  0  0  0  0  0  0  0  0  0  0  0
   12.1744  -17.3920   26.6249 O   0  0  0  0  0  0  0  0  0  0  0  0
  2  1  1  6
  2  9  1  0
  3  2  1  0
  3  4  1  0
  4  5  2  0
  5  6  1  0
  7  6  1  0
  8  4  1  0
  8  7  2  0
  9 10  2  0
 12 11  1  1
 12 14  1  0
 13 12  1  0
 14 16  1  0
 14 15  1  6
 15  9  1  0
 16 18  1  0
 16 17  2  0
 18 19  1  0
 19 26  1  0
 19 20  1  6
 21 20  1  0
 21 25  1  0
 22 21  2  0
 23 22  1  0
 23 24  1  0
 24 25  2  0
 26 27  2  0
 26 28  1  0
M  END
$$$$
