HVH.pdb
     RDKit          3D

 28 29  0  0  1  0  0  0  0  0999 V2000
    8.8613  -17.8333   19.0429 N   0  0  0  0  0  0  0  0  0  0  0  0
   10.1783  -17.4395   19.4366 C   0  0  1  0  0  0  0  0  0  0  0  0
   10.9677  -17.1568   18.1673 C   0  0  0  0  0  0  0  0  0  0  0  0
   10.6896  -18.2009   17.1334 C   0  0  0  0  0  0  0  0  0  0  0  0
   10.3128  -19.5034   17.3784 C   0  0  0  0  0  0  0  0  0  0  0  0
   10.1511  -20.1500   16.1934 N   0  0  0  0  0  0  0  0  0  0  0  0
   10.4262  -19.2525   15.2268 C   0  0  0  0  0  0  0  0  0  0  0  0
   10.7530  -18.0697   15.7957 N   0  0  0  0  0  0  0  0  0  0  0  0
   10.1612  -16.1359   20.1942 C   0  0  0  0  0  0  0  0  0  0  0  0
   11.2222  -15.5907   20.5729 O   0  0  0  0  0  0  0  0  0  0  0  0
    7.8896  -12.8414   19.7736 C   0  0  0  0  0  0  0  0  0  0  0  0
    7.6717  -13.4542   21.1258 C   0  0  1  0  0  0  0  0  0  0  0  0
    6.3490  -14.1069   21.2639 C   0  0  0  0  0  0  0  0  0  0  0  0
    8.8399  -14.3873   21.4418 C   0  0  2  0  0  0  0  0  0  0  0  0
    8.9486  -15.4681   20.5127 N   0  0  0  0  0  0  0  0  0  0  0  0
    8.7715  -14.8522   22.8578 C   0  0  0  0  0  0  0  0  0  0  0  0
    8.8168  -14.0408   23.8193 O   0  0  0  0  0  0  0  0  0  0  0  0
    8.6523  -16.2262   23.2018 N   0  0  0  0  0  0  0  0  0  0  0  0
    8.5761  -16.6537   24.6282 C   0  0  1  0  0  0  0  0  0  0  0  0
    8.1805  -18.0777   24.5606 C   0  0  0  0  0  0  0  0  0  0  0  0
    7.8740  -18.7641   25.8086 C   0  0  0  0  0  0  0  0  0  0  0  0
    7.8214  -18.3952   27.1136 C   0  0  0  0  0  0  0  0  0  0  0  0
    7.4303  -19.4756   27.8420 N   0  0  0  0  0  0  0  0  0  0  0  0
    7.2432  -20.4964   26.9994 C   0  0  0  0  0  0  0  0  0  0  0  0
    7.5056  -20.0819   25.7806 N   0  0  0  0  0  0  0  0  0  0  0  0
   10.0072  -16.6003   25.0911 C   0  0  0  0  0  0  0  0  0  0  0  0
   10.1941  -16.3895   26.3276 O   0  0  0  0  0  0  0  0  0  0  0  0
   11.1018  -16.7627   24.2718 O   0  0  0  0  0  0  0  0  0  0  0  0
  2  1  1  6
  2  9  1  0
  3  2  1  0
  3  4  1  0
  4  5  2  0
  5  6  1  0
  7  6  1  0
  8  4  1  0
  8  7  2  0
  9 10  2  0
 12 11  1  6
 12 14  1  0
 13 12  1  0
 14 16  1  0
 14 15  1  6
 15  9  1  0
 16 18  1  0
 16 17  2  0
 18 19  1  0
 19 26  1  0
 19 20  1  6
 21 20  1  0
 21 25  1  0
 22 21  2  0
 23 22  1  0
 23 24  1  0
 24 25  2  0
 26 27  2  0
 26 28  1  0
M  END
$$$$
