HVH.pdb
     RDKit          3D

 28 29  0  0  1  0  0  0  0  0999 V2000
    9.8113  -16.9551   16.2401 N   0  0  0  0  0  0  0  0  0  0  0  0
    8.8895  -16.8204   17.3249 C   0  0  1  0  0  0  0  0  0  0  0  0
    8.7120  -18.1979   17.9454 C   0  0  0  0  0  0  0  0  0  0  0  0
    7.9009  -19.0769   17.0476 C   0  0  0  0  0  0  0  0  0  0  0  0
    7.3690  -18.7187   15.8281 C   0  0  0  0  0  0  0  0  0  0  0  0
    6.6963  -19.7793   15.3074 N   0  0  0  0  0  0  0  0  0  0  0  0
    6.8134  -20.7823   16.1995 C   0  0  0  0  0  0  0  0  0  0  0  0
    7.5439  -20.3576   17.2556 N   0  0  0  0  0  0  0  0  0  0  0  0
    9.4538  -15.9573   18.4248 C   0  0  0  0  0  0  0  0  0  0  0  0
   10.6864  -15.8915   18.6313 O   0  0  0  0  0  0  0  0  0  0  0  0
    7.6059  -12.4514   19.4659 C   0  0  0  0  0  0  0  0  0  0  0  0
    8.0323  -13.2402   20.6690 C   0  0  1  0  0  0  0  0  0  0  0  0
    6.8970  -13.8564   21.3944 C   0  0  0  0  0  0  0  0  0  0  0  0
    9.0979  -14.2510   20.2475 C   0  0  2  0  0  0  0  0  0  0  0  0
    8.6197  -15.1823   19.2742 N   0  0  0  0  0  0  0  0  0  0  0  0
    9.6864  -14.9219   21.4432 C   0  0  0  0  0  0  0  0  0  0  0  0
   10.1568  -14.2586   22.4044 O   0  0  0  0  0  0  0  0  0  0  0  0
    9.7502  -16.3365   21.5666 N   0  0  0  0  0  0  0  0  0  0  0  0
   10.4193  -16.9726   22.7375 C   0  0  1  0  0  0  0  0  0  0  0  0
   11.4815  -16.0143   23.1144 C   0  0  0  0  0  0  0  0  0  0  0  0
   12.6971  -15.9876   22.3117 C   0  0  0  0  0  0  0  0  0  0  0  0
   13.0972  -16.5910   21.1637 C   0  0  0  0  0  0  0  0  0  0  0  0
   14.3463  -16.1430   20.8648 N   0  0  0  0  0  0  0  0  0  0  0  0
   14.7123  -15.2751   21.8134 C   0  0  0  0  0  0  0  0  0  0  0  0
   13.7332  -15.1745   22.6837 N   0  0  0  0  0  0  0  0  0  0  0  0
    9.3669  -16.9316   23.8126 C   0  0  0  0  0  0  0  0  0  0  0  0
    8.2580  -16.4026   23.4986 O   0  0  0  0  0  0  0  0  0  0  0  0
    9.5313  -17.4226   25.0884 O   0  0  0  0  0  0  0  0  0  0  0  0
  2  1  1  6
  2  9  1  0
  3  2  1  0
  3  4  1  0
  4  5  2  0
  5  6  1  0
  7  6  1  0
  8  4  1  0
  8  7  2  0
  9 10  2  0
 12 11  1  6
 12 14  1  0
 13 12  1  0
 14 16  1  0
 14 15  1  6
 15  9  1  0
 16 18  1  0
 16 17  2  0
 18 19  1  0
 19 26  1  0
 19 20  1  1
 21 20  1  0
 21 25  1  0
 22 21  2  0
 23 22  1  0
 23 24  1  0
 24 25  2  0
 26 27  2  0
 26 28  1  0
M  END
$$$$
