HVH.pdb
     RDKit          3D

 28 29  0  0  1  0  0  0  0  0999 V2000
    9.9764  -18.6828   18.7373 N   0  0  0  0  0  0  0  0  0  0  0  0
   11.1101  -17.9070   19.1340 C   0  0  1  0  0  0  0  0  0  0  0  0
   11.7169  -17.3099   17.8733 C   0  0  0  0  0  0  0  0  0  0  0  0
   12.1362  -18.3920   16.9299 C   0  0  0  0  0  0  0  0  0  0  0  0
   13.4018  -18.9253   16.8200 C   0  0  0  0  0  0  0  0  0  0  0  0
   13.3980  -19.8852   15.8572 N   0  0  0  0  0  0  0  0  0  0  0  0
   12.1398  -19.9421   15.3783 C   0  0  0  0  0  0  0  0  0  0  0  0
   11.3733  -19.0367   16.0282 N   0  0  0  0  0  0  0  0  0  0  0  0
   10.7027  -16.7260   19.9783 C   0  0  0  0  0  0  0  0  0  0  0  0
   11.5387  -15.8694   20.3437 O   0  0  0  0  0  0  0  0  0  0  0  0
    6.6246  -16.4175   21.4326 C   0  0  0  0  0  0  0  0  0  0  0  0
    7.4917  -15.2007   21.2952 C   0  0  1  0  0  0  0  0  0  0  0  0
    7.1140  -14.1079   22.2215 C   0  0  0  0  0  0  0  0  0  0  0  0
    8.9562  -15.6181   21.4214 C   0  0  2  0  0  0  0  0  0  0  0  0
    9.3595  -16.5299   20.3971 N   0  0  0  0  0  0  0  0  0  0  0  0
    9.2382  -16.1342   22.7927 C   0  0  0  0  0  0  0  0  0  0  0  0
    9.2915  -17.3689   23.0326 O   0  0  0  0  0  0  0  0  0  0  0  0
    9.4611  -15.2701   23.8991 N   0  0  0  0  0  0  0  0  0  0  0  0
    9.6908  -15.8209   25.2655 C   0  0  1  0  0  0  0  0  0  0  0  0
    9.7804  -14.6236   26.1299 C   0  0  0  0  0  0  0  0  0  0  0  0
    9.8172  -14.8210   27.5729 C   0  0  0  0  0  0  0  0  0  0  0  0
    9.8457  -15.9057   28.3882 C   0  0  0  0  0  0  0  0  0  0  0  0
    9.9166  -15.4657   29.6734 N   0  0  0  0  0  0  0  0  0  0  0  0
    9.9326  -14.1292   29.6526 C   0  0  0  0  0  0  0  0  0  0  0  0
    9.8738  -13.7330   28.4013 N   0  0  0  0  0  0  0  0  0  0  0  0
    8.3973  -16.5194   25.5881 C   0  0  0  0  0  0  0  0  0  0  0  0
    7.3538  -16.0634   25.0302 O   0  0  0  0  0  0  0  0  0  0  0  0
    8.2806  -17.5998   26.4337 O   0  0  0  0  0  0  0  0  0  0  0  0
  2  1  1  6
  2  9  1  0
  3  2  1  0
  3  4  1  0
  4  5  2  0
  5  6  1  0
  7  6  1  0
  8  4  1  0
  8  7  2  0
  9 10  2  0
 12 11  1  1
 12 14  1  0
 13 12  1  0
 14 16  1  0
 14 15  1  6
 15  9  1  0
 16 18  1  0
 16 17  2  0
 18 19  1  0
 19 26  1  0
 19 20  1  1
 21 20  1  0
 21 25  1  0
 22 21  2  0
 23 22  1  0
 23 24  1  0
 24 25  2  0
 26 27  2  0
 26 28  1  0
M  END
$$$$
