HVH.pdb
     RDKit          3D

 28 29  0  0  1  0  0  0  0  0999 V2000
    8.1246  -17.3772   19.1012 N   0  0  0  0  0  0  0  0  0  0  0  0
    9.0429  -16.7307   19.9861 C   0  0  1  0  0  0  0  0  0  0  0  0
    8.3193  -15.5451   20.6066 C   0  0  0  0  0  0  0  0  0  0  0  0
    8.1127  -14.4669   19.5911 C   0  0  0  0  0  0  0  0  0  0  0  0
    8.5325  -14.4986   18.2791 C   0  0  0  0  0  0  0  0  0  0  0  0
    8.1642  -13.3423   17.6661 N   0  0  0  0  0  0  0  0  0  0  0  0
    7.5228  -12.6047   18.5937 C   0  0  0  0  0  0  0  0  0  0  0  0
    7.4909  -13.2858   19.7618 N   0  0  0  0  0  0  0  0  0  0  0  0
    9.4138  -17.6220   21.1443 C   0  0  0  0  0  0  0  0  0  0  0  0
    8.5653  -18.3595   21.6941 O   0  0  0  0  0  0  0  0  0  0  0  0
   11.8862  -20.3918   21.5343 C   0  0  0  0  0  0  0  0  0  0  0  0
   12.3097  -19.3513   22.5289 C   0  0  1  0  0  0  0  0  0  0  0  0
   13.5376  -18.6263   22.1272 C   0  0  0  0  0  0  0  0  0  0  0  0
   11.1279  -18.4245   22.8110 C   0  0  2  0  0  0  0  0  0  0  0  0
   10.7352  -17.6676   21.6638 N   0  0  0  0  0  0  0  0  0  0  0  0
   11.4075  -17.5646   23.9978 C   0  0  0  0  0  0  0  0  0  0  0  0
   12.0295  -16.4754   23.8889 O   0  0  0  0  0  0  0  0  0  0  0  0
   10.9918  -17.9210   25.3095 N   0  0  0  0  0  0  0  0  0  0  0  0
   11.3731  -17.0874   26.4855 C   0  0  1  0  0  0  0  0  0  0  0  0
   10.2379  -16.1535   26.6528 C   0  0  0  0  0  0  0  0  0  0  0  0
   10.2530  -15.2544   27.7990 C   0  0  0  0  0  0  0  0  0  0  0  0
   11.0761  -15.0774   28.8635 C   0  0  0  0  0  0  0  0  0  0  0  0
   10.5973  -14.0380   29.5989 N   0  0  0  0  0  0  0  0  0  0  0  0
    9.4953  -13.5789   28.9973 C   0  0  0  0  0  0  0  0  0  0  0  0
    9.2803  -14.2991   27.9197 N   0  0  0  0  0  0  0  0  0  0  0  0
   11.3370  -18.0583   27.6349 C   0  0  0  0  0  0  0  0  0  0  0  0
   11.7589  -17.6293   28.7512 O   0  0  0  0  0  0  0  0  0  0  0  0
   10.8838  -19.3558   27.5500 O   0  0  0  0  0  0  0  0  0  0  0  0
  2  1  1  6
  2  9  1  0
  3  2  1  0
  3  4  1  0
  4  5  2  0
  5  6  1  0
  7  6  1  0
  8  4  1  0
  8  7  2  0
  9 10  2  0
 12 11  1  6
 12 14  1  0
 13 12  1  0
 14 16  1  0
 14 15  1  6
 15  9  1  0
 16 18  1  0
 16 17  2  0
 18 19  1  0
 19 26  1  0
 19 20  1  1
 21 20  1  0
 21 25  1  0
 22 21  2  0
 23 22  1  0
 23 24  1  0
 24 25  2  0
 26 27  2  0
 26 28  1  0
M  END
$$$$
