HVH.pdb
     RDKit          3D

 28 29  0  0  1  0  0  0  0  0999 V2000
    9.9324  -17.4308   16.6189 N   0  0  0  0  0  0  0  0  0  0  0  0
    8.8267  -17.2892   17.5145 C   0  0  1  0  0  0  0  0  0  0  0  0
    8.4464  -18.6825   17.9922 C   0  0  0  0  0  0  0  0  0  0  0  0
    7.6374  -19.3906   16.9527 C   0  0  0  0  0  0  0  0  0  0  0  0
    7.2923  -18.8913   15.7158 C   0  0  0  0  0  0  0  0  0  0  0  0
    6.5556  -19.8205   15.0507 N   0  0  0  0  0  0  0  0  0  0  0  0
    6.4482  -20.8833   15.8720 C   0  0  0  0  0  0  0  0  0  0  0  0
    7.1040  -20.6239   17.0261 N   0  0  0  0  0  0  0  0  0  0  0  0
    9.2180  -16.5338   18.7593 C   0  0  0  0  0  0  0  0  0  0  0  0
   10.3455  -16.6821   19.2817 O   0  0  0  0  0  0  0  0  0  0  0  0
    7.8671  -13.3129   22.3126 C   0  0  0  0  0  0  0  0  0  0  0  0
    7.5443  -13.9045   20.9720 C   0  0  1  0  0  0  0  0  0  0  0  0
    7.3227  -12.8830   19.9221 C   0  0  0  0  0  0  0  0  0  0  0  0
    8.6246  -14.9210   20.6051 C   0  0  2  0  0  0  0  0  0  0  0  0
    8.3320  -15.6235   19.3951 N   0  0  0  0  0  0  0  0  0  0  0  0
    8.8925  -15.8382   21.7510 C   0  0  0  0  0  0  0  0  0  0  0  0
    8.0712  -16.7326   22.0833 O   0  0  0  0  0  0  0  0  0  0  0  0
   10.0800  -15.7572   22.5279 N   0  0  0  0  0  0  0  0  0  0  0  0
   10.3109  -16.6862   23.6711 C   0  0  1  0  0  0  0  0  0  0  0  0
   11.6609  -17.2386   23.4240 C   0  0  0  0  0  0  0  0  0  0  0  0
   11.7820  -18.3741   22.5193 C   0  0  0  0  0  0  0  0  0  0  0  0
   10.9016  -19.1543   21.8424 C   0  0  0  0  0  0  0  0  0  0  0  0
   11.6118  -20.0518   21.1072 N   0  0  0  0  0  0  0  0  0  0  0  0
   12.9116  -19.8290   21.3258 C   0  0  0  0  0  0  0  0  0  0  0  0
   13.0248  -18.8275   22.1687 N   0  0  0  0  0  0  0  0  0  0  0  0
   10.4052  -15.7685   24.8602 C   0  0  0  0  0  0  0  0  0  0  0  0
   10.4294  -16.3218   26.0010 O   0  0  0  0  0  0  0  0  0  0  0  0
   10.4652  -14.3949   24.7865 O   0  0  0  0  0  0  0  0  0  0  0  0
  2  1  1  6
  2  9  1  0
  3  2  1  0
  3  4  1  0
  4  5  2  0
  5  6  1  0
  7  6  1  0
  8  4  1  0
  8  7  2  0
  9 10  2  0
 12 11  1  1
 12 14  1  0
 13 12  1  0
 14 16  1  0
 14 15  1  6
 15  9  1  0
 16 18  1  0
 16 17  2  0
 18 19  1  0
 19 26  1  0
 19 20  1  6
 21 20  1  0
 21 25  1  0
 22 21  2  0
 23 22  1  0
 23 24  1  0
 24 25  2  0
 26 27  2  0
 26 28  1  0
M  END
$$$$
