HVH.pdb
     RDKit          3D

 28 29  0  0  1  0  0  0  0  0999 V2000
    9.9361  -17.5734   16.7526 N   0  0  0  0  0  0  0  0  0  0  0  0
    8.8252  -17.3918   17.6344 C   0  0  1  0  0  0  0  0  0  0  0  0
    8.4288  -18.7646   18.1562 C   0  0  0  0  0  0  0  0  0  0  0  0
    7.5929  -19.4873   17.1485 C   0  0  0  0  0  0  0  0  0  0  0  0
    7.2413  -19.0182   15.9016 C   0  0  0  0  0  0  0  0  0  0  0  0
    6.4784  -19.9522   15.2738 N   0  0  0  0  0  0  0  0  0  0  0  0
    6.3615  -20.9880   16.1277 C   0  0  0  0  0  0  0  0  0  0  0  0
    7.0371  -20.7073   17.2653 N   0  0  0  0  0  0  0  0  0  0  0  0
    9.2142  -16.5980   18.8559 C   0  0  0  0  0  0  0  0  0  0  0  0
   10.3354  -16.7405   19.3934 O   0  0  0  0  0  0  0  0  0  0  0  0
    7.9237  -13.1514   22.2131 C   0  0  0  0  0  0  0  0  0  0  0  0
    7.6053  -13.8026   20.8994 C   0  0  1  0  0  0  0  0  0  0  0  0
    7.4822  -12.8355   19.7839 C   0  0  0  0  0  0  0  0  0  0  0  0
    8.6291  -14.9048   20.6310 C   0  0  2  0  0  0  0  0  0  0  0  0
    8.3331  -15.6564   19.4517 N   0  0  0  0  0  0  0  0  0  0  0  0
    8.7971  -15.7692   21.8354 C   0  0  0  0  0  0  0  0  0  0  0  0
    7.9107  -16.5930   22.1825 O   0  0  0  0  0  0  0  0  0  0  0  0
    9.9574  -15.7141   22.6547 N   0  0  0  0  0  0  0  0  0  0  0  0
   10.0772  -16.5702   23.8695 C   0  0  1  0  0  0  0  0  0  0  0  0
   11.4074  -17.2042   23.7380 C   0  0  0  0  0  0  0  0  0  0  0  0
   11.5322  -18.3599   22.8597 C   0  0  0  0  0  0  0  0  0  0  0  0
   10.6596  -19.2483   22.3202 C   0  0  0  0  0  0  0  0  0  0  0  0
   11.3628  -20.1039   21.5303 N   0  0  0  0  0  0  0  0  0  0  0  0
   12.6506  -19.7489   21.5803 C   0  0  0  0  0  0  0  0  0  0  0  0
   12.7632  -18.7068   22.3724 N   0  0  0  0  0  0  0  0  0  0  0  0
   10.1560  -15.5766   24.9971 C   0  0  0  0  0  0  0  0  0  0  0  0
   10.2815  -14.3580   24.6694 O   0  0  0  0  0  0  0  0  0  0  0  0
   10.1016  -15.9029   26.3337 O   0  0  0  0  0  0  0  0  0  0  0  0
  2  1  1  6
  2  9  1  0
  3  2  1  0
  3  4  1  0
  4  5  2  0
  5  6  1  0
  7  6  1  0
  8  4  1  0
  8  7  2  0
  9 10  2  0
 12 11  1  1
 12 14  1  0
 13 12  1  0
 14 16  1  0
 14 15  1  6
 15  9  1  0
 16 18  1  0
 16 17  2  0
 18 19  1  0
 19 26  1  0
 19 20  1  6
 21 20  1  0
 21 25  1  0
 22 21  2  0
 23 22  1  0
 23 24  1  0
 24 25  2  0
 26 27  2  0
 26 28  1  0
M  END
$$$$
