HVH.pdb
     RDKit          3D

 28 29  0  0  1  0  0  0  0  0999 V2000
    9.8945  -17.3591   16.7538 N   0  0  0  0  0  0  0  0  0  0  0  0
    8.8061  -17.0462   17.6266 C   0  0  1  0  0  0  0  0  0  0  0  0
    8.1910  -18.3625   18.0775 C   0  0  0  0  0  0  0  0  0  0  0  0
    7.1722  -18.8314   17.0882 C   0  0  0  0  0  0  0  0  0  0  0  0
    6.8574  -18.2161   15.8963 C   0  0  0  0  0  0  0  0  0  0  0  0
    5.8871  -18.9323   15.2686 N   0  0  0  0  0  0  0  0  0  0  0  0
    5.6070  -19.9802   16.0680 C   0  0  0  0  0  0  0  0  0  0  0  0
    6.3859  -19.9202   17.1722 N   0  0  0  0  0  0  0  0  0  0  0  0
    9.2861  -16.3770   18.8896 C   0  0  0  0  0  0  0  0  0  0  0  0
   10.4417  -16.5715   19.3289 O   0  0  0  0  0  0  0  0  0  0  0  0
    8.0465  -12.6239   20.0408 C   0  0  0  0  0  0  0  0  0  0  0  0
    7.9628  -13.6250   21.1552 C   0  0  1  0  0  0  0  0  0  0  0  0
    6.5726  -14.0189   21.4820 C   0  0  0  0  0  0  0  0  0  0  0  0
    8.8635  -14.8138   20.8230 C   0  0  2  0  0  0  0  0  0  0  0  0
    8.4558  -15.4994   19.6369 N   0  0  0  0  0  0  0  0  0  0  0  0
    8.9856  -15.7240   21.9989 C   0  0  0  0  0  0  0  0  0  0  0  0
    8.1163  -16.6008   22.2449 O   0  0  0  0  0  0  0  0  0  0  0  0
   10.0807  -15.6556   22.9026 N   0  0  0  0  0  0  0  0  0  0  0  0
   10.1848  -16.6010   24.0508 C   0  0  1  0  0  0  0  0  0  0  0  0
   11.6190  -16.9613   24.0964 C   0  0  0  0  0  0  0  0  0  0  0  0
   12.1082  -17.9496   23.1443 C   0  0  0  0  0  0  0  0  0  0  0  0
   11.5456  -18.6690   22.1403 C   0  0  0  0  0  0  0  0  0  0  0  0
   12.5219  -19.4167   21.5586 N   0  0  0  0  0  0  0  0  0  0  0  0
   13.6707  -19.1624   22.1931 C   0  0  0  0  0  0  0  0  0  0  0  0
   13.4348  -18.2861   23.1432 N   0  0  0  0  0  0  0  0  0  0  0  0
    9.8942  -15.7374   25.2486 C   0  0  0  0  0  0  0  0  0  0  0  0
    9.8051  -14.4900   25.0382 O   0  0  0  0  0  0  0  0  0  0  0  0
    9.7230  -16.2088   26.5310 O   0  0  0  0  0  0  0  0  0  0  0  0
  2  1  1  6
  2  9  1  0
  3  2  1  0
  3  4  1  0
  4  5  2  0
  5  6  1  0
  7  6  1  0
  8  4  1  0
  8  7  2  0
  9 10  2  0
 12 11  1  6
 12 14  1  0
 13 12  1  0
 14 16  1  0
 14 15  1  6
 15  9  1  0
 16 18  1  0
 16 17  2  0
 18 19  1  0
 19 26  1  0
 19 20  1  1
 21 20  1  0
 21 25  1  0
 22 21  2  0
 23 22  1  0
 23 24  1  0
 24 25  2  0
 26 27  2  0
 26 28  1  0
M  END
$$$$
