MHQ.pdb
     RDKit          3D

 28 28  0  0  1  0  0  0  0  0999 V2000
    8.8317  -11.5858   18.3278 C   0  0  0  0  0  0  0  0  0  0  0  0
    7.3896  -12.5860   18.6897 S   0  0  0  0  0  0  0  0  0  0  0  0
    7.7652  -14.2011   19.3268 C   0  0  0  0  0  0  0  0  0  0  0  0
    9.2194  -14.4742   19.4698 C   0  0  0  0  0  0  0  0  0  0  0  0
    9.5741  -15.7979   20.0875 C   0  0  2  0  0  0  0  0  0  0  0  0
    8.5030  -16.7586   19.8678 N   0  0  0  0  0  0  0  0  0  0  0  0
    9.7336  -15.6681   21.5732 C   0  0  0  0  0  0  0  0  0  0  0  0
   10.7460  -15.1414   22.0450 O   0  0  0  0  0  0  0  0  0  0  0  0
    8.7601  -16.1291   22.4805 N   0  0  0  0  0  0  0  0  0  0  0  0
    8.5975  -15.9120   23.8509 C   0  0  1  0  0  0  0  0  0  0  0  0
    7.2503  -16.0492   24.4878 C   0  0  0  0  0  0  0  0  0  0  0  0
    6.6873  -14.8051   25.0512 C   0  0  0  0  0  0  0  0  0  0  0  0
    7.3323  -13.5446   25.0416 C   0  0  0  0  0  0  0  0  0  0  0  0
    6.5493  -12.6366   25.6295 N   0  0  0  0  0  0  0  0  0  0  0  0
    5.4349  -13.2714   26.0110 C   0  0  0  0  0  0  0  0  0  0  0  0
    5.5330  -14.5678   25.6577 N   0  0  0  0  0  0  0  0  0  0  0  0
    9.6274  -16.5582   24.6647 C   0  0  0  0  0  0  0  0  0  0  0  0
   10.2172  -17.5653   24.1380 O   0  0  0  0  0  0  0  0  0  0  0  0
   11.3859  -13.6500   29.6342 N   0  0  0  0  0  0  0  0  0  0  0  0
   11.0736  -15.0315   29.8885 C   0  0  0  0  0  0  0  0  0  0  0  0
   11.2231  -15.5600   31.0137 O   0  0  0  0  0  0  0  0  0  0  0  0
   10.5582  -15.8229   28.7499 C   0  0  0  0  0  0  0  0  0  0  0  0
   11.6906  -16.0700   27.7807 C   0  0  0  0  0  0  0  0  0  0  0  0
   11.1327  -16.8447   26.5994 C   0  0  2  0  0  0  0  0  0  0  0  0
   10.0266  -16.1679   25.9760 N   0  0  0  0  0  0  0  0  0  0  0  0
   10.7142  -18.2164   27.0284 C   0  0  0  0  0  0  0  0  0  0  0  0
   11.5390  -19.0537   27.4652 O   0  0  0  0  0  0  0  0  0  0  0  0
    9.3842  -18.5817   26.9451 O   0  0  0  0  0  0  0  0  0  0  0  0
  2  1  1  0
  3  2  1  0
  4  3  1  0
  5  4  1  0
  5  6  1  1
  7  5  1  0
  8  7  2  0
  9  7  1  0
 10  9  1  0
 10 11  1  1
 11 12  1  0
 12 13  2  0
 12 16  1  0
 13 14  1  0
 14 15  1  0
 16 15  2  0
 17 18  2  0
 17 10  1  0
 20 21  2  0
 20 19  1  0
 22 20  1  0
 24 23  1  1
 23 22  1  0
 24 25  1  0
 25 17  1  0
 26 28  1  0
 26 24  1  0
 27 26  2  0
M  END
$$$$
