MHQ.pdb
     RDKit          3D

 28 28  0  0  1  0  0  0  0  0999 V2000
    6.9203  -11.7122   20.2286 C   0  0  0  0  0  0  0  0  0  0  0  0
    7.6331  -11.8733   18.5924 S   0  0  0  0  0  0  0  0  0  0  0  0
    8.0505  -13.5400   18.1414 C   0  0  0  0  0  0  0  0  0  0  0  0
    8.7693  -14.2940   19.2018 C   0  0  0  0  0  0  0  0  0  0  0  0
   10.2195  -13.9409   19.3806 C   0  0  2  0  0  0  0  0  0  0  0  0
   10.8013  -13.5444   18.1067 N   0  0  0  0  0  0  0  0  0  0  0  0
   11.0030  -15.1276   19.8574 C   0  0  0  0  0  0  0  0  0  0  0  0
   10.4869  -15.9432   20.6276 O   0  0  0  0  0  0  0  0  0  0  0  0
   12.3331  -15.3638   19.4595 N   0  0  0  0  0  0  0  0  0  0  0  0
   13.2341  -16.3755   19.8007 C   0  0  1  0  0  0  0  0  0  0  0  0
   14.4364  -16.6414   18.9504 C   0  0  0  0  0  0  0  0  0  0  0  0
   14.1548  -17.2124   17.6175 C   0  0  0  0  0  0  0  0  0  0  0  0
   13.2976  -16.6333   16.6505 C   0  0  0  0  0  0  0  0  0  0  0  0
   13.2677  -17.4037   15.5602 N   0  0  0  0  0  0  0  0  0  0  0  0
   14.0711  -18.4470   15.7979 C   0  0  0  0  0  0  0  0  0  0  0  0
   14.5940  -18.3177   17.0328 N   0  0  0  0  0  0  0  0  0  0  0  0
   13.5878  -16.3797   21.2204 C   0  0  0  0  0  0  0  0  0  0  0  0
   14.3852  -15.4563   21.6088 O   0  0  0  0  0  0  0  0  0  0  0  0
   10.1337  -15.4383   25.6014 N   0  0  0  0  0  0  0  0  0  0  0  0
    9.8674  -16.6621   24.8928 C   0  0  0  0  0  0  0  0  0  0  0  0
    8.7571  -17.2391   24.9384 O   0  0  0  0  0  0  0  0  0  0  0  0
   10.9747  -17.2272   24.0911 C   0  0  0  0  0  0  0  0  0  0  0  0
   12.1873  -16.3398   24.2481 C   0  0  0  0  0  0  0  0  0  0  0  0
   13.3643  -17.0375   23.5886 C   0  0  2  0  0  0  0  0  0  0  0  0
   13.1267  -17.3106   22.1962 N   0  0  0  0  0  0  0  0  0  0  0  0
   13.6850  -18.3095   24.3097 C   0  0  0  0  0  0  0  0  0  0  0  0
   14.0746  -18.3145   25.5015 O   0  0  0  0  0  0  0  0  0  0  0  0
   13.5519  -19.5183   23.6538 O   0  0  0  0  0  0  0  0  0  0  0  0
  2  1  1  0
  3  2  1  0
  4  3  1  0
  5  4  1  0
  5  6  1  6
  7  5  1  0
  8  7  2  0
  9  7  1  0
 10  9  1  0
 10 11  1  6
 11 12  1  0
 12 13  2  0
 12 16  1  0
 13 14  1  0
 14 15  1  0
 16 15  2  0
 17 18  2  0
 17 10  1  0
 20 21  2  0
 20 19  1  0
 22 20  1  0
 24 23  1  1
 23 22  1  0
 24 25  1  0
 25 17  1  0
 26 28  1  0
 26 24  1  0
 27 26  2  0
M  END
$$$$
