MHQ.pdb
     RDKit          3D

 28 28  0  0  1  0  0  0  0  0999 V2000
    8.4326  -11.8752   20.8687 C   0  0  0  0  0  0  0  0  0  0  0  0
    6.8063  -12.5741   20.5899 S   0  0  0  0  0  0  0  0  0  0  0  0
    6.8242  -14.1738   19.8177 C   0  0  0  0  0  0  0  0  0  0  0  0
    7.8738  -15.0880   20.3394 C   0  0  0  0  0  0  0  0  0  0  0  0
    7.9253  -16.4487   19.7024 C   0  0  2  0  0  0  0  0  0  0  0  0
    6.6565  -17.1380   19.8856 N   0  0  0  0  0  0  0  0  0  0  0  0
    8.9733  -17.3028   20.3516 C   0  0  0  0  0  0  0  0  0  0  0  0
    8.6548  -18.1297   21.2117 O   0  0  0  0  0  0  0  0  0  0  0  0
   10.3386  -17.2060   20.0198 N   0  0  0  0  0  0  0  0  0  0  0  0
   11.4518  -17.9207   20.4690 C   0  0  1  0  0  0  0  0  0  0  0  0
   12.5601  -18.2724   19.5270 C   0  0  0  0  0  0  0  0  0  0  0  0
   12.1553  -19.0430   18.3335 C   0  0  0  0  0  0  0  0  0  0  0  0
   12.0659  -20.4548   18.2702 C   0  0  0  0  0  0  0  0  0  0  0  0
   11.6715  -20.8240   17.0489 N   0  0  0  0  0  0  0  0  0  0  0  0
   11.5078  -19.7032   16.3367 C   0  0  0  0  0  0  0  0  0  0  0  0
   11.8011  -18.6466   17.1194 N   0  0  0  0  0  0  0  0  0  0  0  0
   11.9837  -17.4244   21.7383 C   0  0  0  0  0  0  0  0  0  0  0  0
   12.4383  -16.2273   21.7333 O   0  0  0  0  0  0  0  0  0  0  0  0
   11.3289  -18.4155   27.8309 N   0  0  0  0  0  0  0  0  0  0  0  0
   11.1260  -19.4764   26.8801 C   0  0  0  0  0  0  0  0  0  0  0  0
   10.8285  -20.6426   27.2251 O   0  0  0  0  0  0  0  0  0  0  0  0
   11.2843  -19.1340   25.4497 C   0  0  0  0  0  0  0  0  0  0  0  0
   11.6292  -17.6673   25.3388 C   0  0  0  0  0  0  0  0  0  0  0  0
   12.5461  -17.4932   24.1404 C   0  0  2  0  0  0  0  0  0  0  0  0
   12.0381  -18.1485   22.9646 N   0  0  0  0  0  0  0  0  0  0  0  0
   13.9171  -18.0044   24.4563 C   0  0  0  0  0  0  0  0  0  0  0  0
   14.4160  -18.9805   23.8477 O   0  0  0  0  0  0  0  0  0  0  0  0
   14.6633  -17.3914   25.4444 O   0  0  0  0  0  0  0  0  0  0  0  0
  2  1  1  0
  3  2  1  0
  4  3  1  0
  5  4  1  0
  5  6  1  1
  7  5  1  0
  8  7  2  0
  9  7  1  0
 10  9  1  0
 10 11  1  6
 11 12  1  0
 12 13  2  0
 12 16  1  0
 13 14  1  0
 14 15  1  0
 16 15  2  0
 17 18  2  0
 17 10  1  0
 20 21  2  0
 20 19  1  0
 22 20  1  0
 24 23  1  1
 23 22  1  0
 24 25  1  0
 25 17  1  0
 26 28  1  0
 26 24  1  0
 27 26  2  0
M  END
$$$$
