MHQ.pdb
     RDKit          3D

 28 28  0  0  1  0  0  0  0  0999 V2000
    8.1661  -11.6323   20.3960 C   0  0  0  0  0  0  0  0  0  0  0  0
    8.0890  -12.6559   18.9272 S   0  0  0  0  0  0  0  0  0  0  0  0
    7.0971  -14.1181   19.1103 C   0  0  0  0  0  0  0  0  0  0  0  0
    7.0043  -14.6178   20.5072 C   0  0  0  0  0  0  0  0  0  0  0  0
    7.9666  -15.7141   20.8702 C   0  0  2  0  0  0  0  0  0  0  0  0
    7.8309  -16.8293   19.9447 N   0  0  0  0  0  0  0  0  0  0  0  0
    7.6690  -16.2547   22.2372 C   0  0  0  0  0  0  0  0  0  0  0  0
    7.4652  -15.4825   23.1791 O   0  0  0  0  0  0  0  0  0  0  0  0
    7.6086  -17.6357   22.5066 N   0  0  0  0  0  0  0  0  0  0  0  0
    7.4425  -18.3375   23.7031 C   0  0  1  0  0  0  0  0  0  0  0  0
    7.1021  -19.7947   23.6888 C   0  0  0  0  0  0  0  0  0  0  0  0
    6.9612  -20.4244   25.0176 C   0  0  0  0  0  0  0  0  0  0  0  0
    7.9875  -21.1240   25.6977 C   0  0  0  0  0  0  0  0  0  0  0  0
    7.5271  -21.5640   26.8716 N   0  0  0  0  0  0  0  0  0  0  0  0
    6.2512  -21.1714   26.9618 C   0  0  0  0  0  0  0  0  0  0  0  0
    5.9279  -20.4909   25.8449 N   0  0  0  0  0  0  0  0  0  0  0  0
    8.4865  -18.0553   24.6884 C   0  0  0  0  0  0  0  0  0  0  0  0
    9.6831  -17.9753   24.2396 O   0  0  0  0  0  0  0  0  0  0  0  0
   10.0995  -13.5406   29.9600 N   0  0  0  0  0  0  0  0  0  0  0  0
    9.6897  -13.9455   28.6413 C   0  0  0  0  0  0  0  0  0  0  0  0
    9.0729  -13.1824   27.8634 O   0  0  0  0  0  0  0  0  0  0  0  0
   10.0299  -15.3243   28.2272 C   0  0  0  0  0  0  0  0  0  0  0  0
    8.8999  -15.8691   27.3853 C   0  0  0  0  0  0  0  0  0  0  0  0
    9.3252  -17.2283   26.8573 C   0  0  2  0  0  0  0  0  0  0  0  0
    8.2892  -17.8633   26.0868 N   0  0  0  0  0  0  0  0  0  0  0  0
    9.7381  -18.1189   27.9874 C   0  0  0  0  0  0  0  0  0  0  0  0
    8.9973  -19.0378   28.4105 O   0  0  0  0  0  0  0  0  0  0  0  0
   10.9678  -17.9327   28.5891 O   0  0  0  0  0  0  0  0  0  0  0  0
  2  1  1  0
  3  2  1  0
  4  3  1  0
  5  4  1  0
  5  6  1  6
  7  5  1  0
  8  7  2  0
  9  7  1  0
 10  9  1  0
 10 11  1  6
 11 12  1  0
 12 13  2  0
 12 16  1  0
 13 14  1  0
 14 15  1  0
 16 15  2  0
 17 18  2  0
 17 10  1  0
 20 21  2  0
 20 19  1  0
 22 20  1  0
 24 23  1  1
 23 22  1  0
 24 25  1  0
 25 17  1  0
 26 28  1  0
 26 24  1  0
 27 26  2  0
M  END
$$$$
