MHQ.pdb
     RDKit          3D

 28 28  0  0  1  0  0  0  0  0999 V2000
    4.7710  -11.3554   26.9334 C   0  0  0  0  0  0  0  0  0  0  0  0
    5.7518  -10.7518   25.5605 S   0  0  0  0  0  0  0  0  0  0  0  0
    7.1161  -11.8021   25.1234 C   0  0  0  0  0  0  0  0  0  0  0  0
    7.2521  -13.0089   25.9806 C   0  0  0  0  0  0  0  0  0  0  0  0
    8.4979  -13.8220   25.7648 C   0  0  2  0  0  0  0  0  0  0  0  0
    9.4975  -13.0331   25.0598 N   0  0  0  0  0  0  0  0  0  0  0  0
    8.2129  -15.0176   24.9052 C   0  0  0  0  0  0  0  0  0  0  0  0
    7.2648  -15.7622   25.1724 O   0  0  0  0  0  0  0  0  0  0  0  0
    8.9937  -15.3411   23.7786 N   0  0  0  0  0  0  0  0  0  0  0  0
    9.0593  -16.5004   23.0017 C   0  0  1  0  0  0  0  0  0  0  0  0
    9.3347  -16.4169   21.5332 C   0  0  0  0  0  0  0  0  0  0  0  0
    8.5696  -15.3851   20.8038 C   0  0  0  0  0  0  0  0  0  0  0  0
    7.6117  -14.5205   21.3870 C   0  0  0  0  0  0  0  0  0  0  0  0
    7.1098  -13.7117   20.4503 N   0  0  0  0  0  0  0  0  0  0  0  0
    7.7112  -14.0294   19.2980 C   0  0  0  0  0  0  0  0  0  0  0  0
    8.5815  -15.0321   19.5264 N   0  0  0  0  0  0  0  0  0  0  0  0
    9.8468  -17.5669   23.6204 C   0  0  0  0  0  0  0  0  0  0  0  0
   11.1195  -17.4376   23.5642 O   0  0  0  0  0  0  0  0  0  0  0  0
   11.1887  -16.1611   27.8801 N   0  0  0  0  0  0  0  0  0  0  0  0
   11.1474  -17.4401   28.5383 C   0  0  0  0  0  0  0  0  0  0  0  0
   11.7147  -17.6525   29.6341 O   0  0  0  0  0  0  0  0  0  0  0  0
   10.3950  -18.5187   27.8610 C   0  0  0  0  0  0  0  0  0  0  0  0
    9.8524  -17.9841   26.5562 C   0  0  0  0  0  0  0  0  0  0  0  0
    9.8779  -19.1149   25.5424 C   0  0  2  0  0  0  0  0  0  0  0  0
    9.3266  -18.7223   24.2728 N   0  0  0  0  0  0  0  0  0  0  0  0
    9.1399  -20.3047   26.0722 C   0  0  0  0  0  0  0  0  0  0  0  0
    7.9139  -20.4684   25.8668 O   0  0  0  0  0  0  0  0  0  0  0  0
    9.8183  -21.2559   26.8099 O   0  0  0  0  0  0  0  0  0  0  0  0
  2  1  1  0
  3  2  1  0
  4  3  1  0
  5  4  1  0
  5  6  1  6
  7  5  1  0
  8  7  2  0
  9  7  1  0
 10  9  1  0
 10 11  1  6
 11 12  1  0
 12 13  2  0
 12 16  1  0
 13 14  1  0
 14 15  1  0
 16 15  2  0
 17 18  2  0
 17 10  1  0
 20 21  2  0
 20 19  1  0
 22 20  1  0
 24 23  1  1
 23 22  1  0
 24 25  1  0
 25 17  1  0
 26 28  1  0
 26 24  1  0
 27 26  2  0
M  END
$$$$
