MHQ.pdb
     RDKit          3D

 28 28  0  0  1  0  0  0  0  0999 V2000
    6.5597  -10.0942   27.6204 C   0  0  0  0  0  0  0  0  0  0  0  0
    6.6977  -10.9620   26.0587 S   0  0  0  0  0  0  0  0  0  0  0  0
    5.3954  -12.1323   25.7588 C   0  0  0  0  0  0  0  0  0  0  0  0
    5.7957  -13.2799   24.9030 C   0  0  0  0  0  0  0  0  0  0  0  0
    6.9401  -14.1070   25.4189 C   0  0  2  0  0  0  0  0  0  0  0  0
    8.0792  -13.2540   25.7247 N   0  0  0  0  0  0  0  0  0  0  0  0
    7.4042  -15.0835   24.3795 C   0  0  0  0  0  0  0  0  0  0  0  0
    6.6295  -15.9406   23.9434 O   0  0  0  0  0  0  0  0  0  0  0  0
    8.7142  -15.0708   23.8627 N   0  0  0  0  0  0  0  0  0  0  0  0
    9.3644  -15.9277   22.9712 C   0  0  1  0  0  0  0  0  0  0  0  0
    9.9397  -15.4017   21.6938 C   0  0  0  0  0  0  0  0  0  0  0  0
    8.9708  -14.7639   20.7791 C   0  0  0  0  0  0  0  0  0  0  0  0
    7.5759  -15.0073   20.7753 C   0  0  0  0  0  0  0  0  0  0  0  0
    6.9954  -14.2691   19.8260 N   0  0  0  0  0  0  0  0  0  0  0  0
    7.9662  -13.5684   19.2288 C   0  0  0  0  0  0  0  0  0  0  0  0
    9.1419  -13.8757   19.8104 N   0  0  0  0  0  0  0  0  0  0  0  0
   10.2992  -16.8425   23.6267 C   0  0  0  0  0  0  0  0  0  0  0  0
   11.3999  -16.3317   24.0354 O   0  0  0  0  0  0  0  0  0  0  0  0
    7.8922  -21.0835   27.1897 N   0  0  0  0  0  0  0  0  0  0  0  0
    9.2333  -21.0880   27.7113 C   0  0  0  0  0  0  0  0  0  0  0  0
    9.5548  -21.7290   28.7377 O   0  0  0  0  0  0  0  0  0  0  0  0
   10.2409  -20.2920   26.9770 C   0  0  0  0  0  0  0  0  0  0  0  0
    9.5592  -19.5946   25.8231 C   0  0  0  0  0  0  0  0  0  0  0  0
   10.6203  -18.8383   25.0426 C   0  0  2  0  0  0  0  0  0  0  0  0
   10.0929  -18.2353   23.8475 N   0  0  0  0  0  0  0  0  0  0  0  0
   11.7572  -19.7481   24.6952 C   0  0  0  0  0  0  0  0  0  0  0  0
   11.7068  -20.5244   23.7119 O   0  0  0  0  0  0  0  0  0  0  0  0
   12.8993  -19.7410   25.4727 O   0  0  0  0  0  0  0  0  0  0  0  0
  2  1  1  0
  3  2  1  0
  4  3  1  0
  5  4  1  0
  5  6  1  6
  7  5  1  0
  8  7  2  0
  9  7  1  0
 10  9  1  0
 10 11  1  6
 11 12  1  0
 12 13  2  0
 12 16  1  0
 13 14  1  0
 14 15  1  0
 16 15  2  0
 17 18  2  0
 17 10  1  0
 20 21  2  0
 20 19  1  0
 22 20  1  0
 24 23  1  6
 23 22  1  0
 24 25  1  0
 25 17  1  0
 26 28  1  0
 26 24  1  0
 27 26  2  0
M  END
$$$$
