MHQ.pdb
     RDKit          3D

 28 28  0  0  1  0  0  0  0  0999 V2000
    8.4219  -11.1045   20.4153 C   0  0  0  0  0  0  0  0  0  0  0  0
    7.1762  -12.3130   19.9690 S   0  0  0  0  0  0  0  0  0  0  0  0
    7.8349  -13.8470   19.3619 C   0  0  0  0  0  0  0  0  0  0  0  0
    8.1717  -14.8271   20.4276 C   0  0  0  0  0  0  0  0  0  0  0  0
    8.7033  -16.1494   19.9495 C   0  0  2  0  0  0  0  0  0  0  0  0
    7.6865  -16.8519   19.1806 N   0  0  0  0  0  0  0  0  0  0  0  0
    9.0509  -17.0357   21.1085 C   0  0  0  0  0  0  0  0  0  0  0  0
    8.1624  -17.6448   21.7122 O   0  0  0  0  0  0  0  0  0  0  0  0
   10.3752  -17.2122   21.5538 N   0  0  0  0  0  0  0  0  0  0  0  0
   10.9011  -17.9394   22.6245 C   0  0  1  0  0  0  0  0  0  0  0  0
   12.1665  -18.7218   22.4634 C   0  0  0  0  0  0  0  0  0  0  0  0
   12.1108  -19.8183   21.4751 C   0  0  0  0  0  0  0  0  0  0  0  0
   11.2299  -20.9252   21.5390 C   0  0  0  0  0  0  0  0  0  0  0  0
   11.4410  -21.7261   20.4914 N   0  0  0  0  0  0  0  0  0  0  0  0
   12.4197  -21.1711   19.7673 C   0  0  0  0  0  0  0  0  0  0  0  0
   12.8095  -20.0305   20.3691 N   0  0  0  0  0  0  0  0  0  0  0  0
   10.9055  -17.1936   23.8831 C   0  0  0  0  0  0  0  0  0  0  0  0
   11.4852  -16.0520   23.8637 O   0  0  0  0  0  0  0  0  0  0  0  0
    9.0998  -13.7364   26.2580 N   0  0  0  0  0  0  0  0  0  0  0  0
    9.2829  -14.0726   27.6452 C   0  0  0  0  0  0  0  0  0  0  0  0
    9.4891  -13.2075   28.5266 O   0  0  0  0  0  0  0  0  0  0  0  0
    9.2174  -15.5067   28.0018 C   0  0  0  0  0  0  0  0  0  0  0  0
    9.0301  -16.3116   26.7370 C   0  0  0  0  0  0  0  0  0  0  0  0
   10.4019  -16.7553   26.2591 C   0  0  2  0  0  0  0  0  0  0  0  0
   10.3268  -17.6219   25.1131 N   0  0  0  0  0  0  0  0  0  0  0  0
   11.1423  -17.4381   27.3665 C   0  0  0  0  0  0  0  0  0  0  0  0
   11.4200  -16.8496   28.4383 O   0  0  0  0  0  0  0  0  0  0  0  0
   11.5358  -18.7539   27.2149 O   0  0  0  0  0  0  0  0  0  0  0  0
  2  1  1  0
  3  2  1  0
  4  3  1  0
  5  4  1  0
  5  6  1  6
  7  5  1  0
  8  7  2  0
  9  7  1  0
 10  9  1  0
 10 11  1  6
 11 12  1  0
 12 13  2  0
 12 16  1  0
 13 14  1  0
 14 15  1  0
 16 15  2  0
 17 18  2  0
 17 10  1  0
 20 21  2  0
 20 19  1  0
 22 20  1  0
 24 23  1  1
 23 22  1  0
 24 25  1  0
 25 17  1  0
 26 28  1  0
 26 24  1  0
 27 26  2  0
M  END
$$$$
