MHQ.pdb
     RDKit          3D

 28 28  0  0  1  0  0  0  0  0999 V2000
    7.4912  -12.0938   20.4430 C   0  0  0  0  0  0  0  0  0  0  0  0
    7.1530  -12.9943   21.9549 S   0  0  0  0  0  0  0  0  0  0  0  0
    6.3509  -14.5596   21.7058 C   0  0  0  0  0  0  0  0  0  0  0  0
    7.0088  -15.4243   20.6913 C   0  0  0  0  0  0  0  0  0  0  0  0
    8.2341  -16.1584   21.1599 C   0  0  2  0  0  0  0  0  0  0  0  0
    9.0336  -15.3024   22.0239 N   0  0  0  0  0  0  0  0  0  0  0  0
    9.1090  -16.5316   20.0002 C   0  0  0  0  0  0  0  0  0  0  0  0
    8.9298  -17.5993   19.4060 O   0  0  0  0  0  0  0  0  0  0  0  0
   10.1518  -15.7027   19.5433 N   0  0  0  0  0  0  0  0  0  0  0  0
   11.0786  -15.8675   18.5110 C   0  0  1  0  0  0  0  0  0  0  0  0
   11.1450  -14.8843   17.3848 C   0  0  0  0  0  0  0  0  0  0  0  0
   10.0966  -15.0310   16.3545 C   0  0  0  0  0  0  0  0  0  0  0  0
    9.1578  -16.0895   16.2961 C   0  0  0  0  0  0  0  0  0  0  0  0
    8.3546  -15.9177   15.2431 N   0  0  0  0  0  0  0  0  0  0  0  0
    8.7470  -14.7935   14.6328 C   0  0  0  0  0  0  0  0  0  0  0  0
    9.7900  -14.2752   15.3098 N   0  0  0  0  0  0  0  0  0  0  0  0
   12.4198  -16.2067   18.9871 C   0  0  0  0  0  0  0  0  0  0  0  0
   12.7422  -15.7569   20.1418 O   0  0  0  0  0  0  0  0  0  0  0  0
   12.4880  -20.7356   21.3498 N   0  0  0  0  0  0  0  0  0  0  0  0
   13.9268  -20.7271   21.3744 C   0  0  0  0  0  0  0  0  0  0  0  0
   14.5926  -21.4910   22.1098 O   0  0  0  0  0  0  0  0  0  0  0  0
   14.6069  -19.7639   20.4811 C   0  0  0  0  0  0  0  0  0  0  0  0
   13.5699  -18.8395   19.8873 C   0  0  0  0  0  0  0  0  0  0  0  0
   14.2945  -17.8111   19.0361 C   0  0  2  0  0  0  0  0  0  0  0  0
   13.3859  -16.9854   18.2861 N   0  0  0  0  0  0  0  0  0  0  0  0
   15.2531  -18.4881   18.1068 C   0  0  0  0  0  0  0  0  0  0  0  0
   16.4217  -18.7773   18.4569 O   0  0  0  0  0  0  0  0  0  0  0  0
   14.8500  -18.8082   16.8245 O   0  0  0  0  0  0  0  0  0  0  0  0
  2  1  1  0
  3  2  1  0
  4  3  1  0
  5  4  1  0
  5  6  1  1
  7  5  1  0
  8  7  2  0
  9  7  1  0
 10  9  1  0
 10 11  1  1
 11 12  1  0
 12 13  2  0
 12 16  1  0
 13 14  1  0
 14 15  1  0
 16 15  2  0
 17 18  2  0
 17 10  1  0
 20 21  2  0
 20 19  1  0
 22 20  1  0
 24 23  1  6
 23 22  1  0
 24 25  1  0
 25 17  1  0
 26 28  1  0
 26 24  1  0
 27 26  2  0
M  END
$$$$
