MHQ.pdb
     RDKit          3D

 28 28  0  0  1  0  0  0  0  0999 V2000
    7.6220  -11.2707   26.5301 C   0  0  0  0  0  0  0  0  0  0  0  0
    6.6480  -12.3847   27.5408 S   0  0  0  0  0  0  0  0  0  0  0  0
    5.9725  -13.7685   26.6551 C   0  0  0  0  0  0  0  0  0  0  0  0
    6.9748  -14.5325   25.8668 C   0  0  0  0  0  0  0  0  0  0  0  0
    6.4215  -15.6322   25.0041 C   0  0  2  0  0  0  0  0  0  0  0  0
    5.8835  -16.7000   25.8341 N   0  0  0  0  0  0  0  0  0  0  0  0
    7.5016  -16.2466   24.1642 C   0  0  0  0  0  0  0  0  0  0  0  0
    8.1269  -17.2278   24.5780 O   0  0  0  0  0  0  0  0  0  0  0  0
    7.8467  -15.7468   22.8936 N   0  0  0  0  0  0  0  0  0  0  0  0
    8.8106  -16.1575   21.9695 C   0  0  1  0  0  0  0  0  0  0  0  0
    8.7645  -15.6701   20.5555 C   0  0  0  0  0  0  0  0  0  0  0  0
    9.6823  -16.3529   19.6208 C   0  0  0  0  0  0  0  0  0  0  0  0
    9.8791  -17.7535   19.5537 C   0  0  0  0  0  0  0  0  0  0  0  0
   10.7725  -18.0349   18.6019 N   0  0  0  0  0  0  0  0  0  0  0  0
   11.1491  -16.8691   18.0638 C   0  0  0  0  0  0  0  0  0  0  0  0
   10.4879  -15.8727   18.6843 N   0  0  0  0  0  0  0  0  0  0  0  0
   10.1749  -16.1047   22.4953 C   0  0  0  0  0  0  0  0  0  0  0  0
   10.8370  -15.0370   22.2478 O   0  0  0  0  0  0  0  0  0  0  0  0
    9.4641  -14.8024   27.3661 N   0  0  0  0  0  0  0  0  0  0  0  0
   10.8737  -14.9443   27.6187 C   0  0  0  0  0  0  0  0  0  0  0  0
   11.4191  -14.5087   28.6582 O   0  0  0  0  0  0  0  0  0  0  0  0
   11.6735  -15.6378   26.5855 C   0  0  0  0  0  0  0  0  0  0  0  0
   10.7652  -16.0019   25.4343 C   0  0  0  0  0  0  0  0  0  0  0  0
   11.5928  -16.7556   24.4077 C   0  0  2  0  0  0  0  0  0  0  0  0
   10.8222  -17.1255   23.2504 N   0  0  0  0  0  0  0  0  0  0  0  0
   12.2019  -17.9756   25.0253 C   0  0  0  0  0  0  0  0  0  0  0  0
   13.2404  -17.9148   25.7252 O   0  0  0  0  0  0  0  0  0  0  0  0
   11.6119  -19.2089   24.8256 O   0  0  0  0  0  0  0  0  0  0  0  0
  2  1  1  0
  3  2  1  0
  4  3  1  0
  5  4  1  0
  5  6  1  1
  7  5  1  0
  8  7  2  0
  9  7  1  0
 10  9  1  0
 10 11  1  6
 11 12  1  0
 12 13  2  0
 12 16  1  0
 13 14  1  0
 14 15  1  0
 16 15  2  0
 17 18  2  0
 17 10  1  0
 20 21  2  0
 20 19  1  0
 22 20  1  0
 24 23  1  1
 23 22  1  0
 24 25  1  0
 25 17  1  0
 26 28  1  0
 26 24  1  0
 27 26  2  0
M  END
$$$$
