MHQ.pdb
     RDKit          3D

 28 28  0  0  1  0  0  0  0  0999 V2000
    6.4640  -11.9343   19.7115 C   0  0  0  0  0  0  0  0  0  0  0  0
    8.0335  -12.7988   19.6920 S   0  0  0  0  0  0  0  0  0  0  0  0
    7.9032  -14.5500   19.9605 C   0  0  0  0  0  0  0  0  0  0  0  0
    9.2049  -15.2672   19.9308 C   0  0  0  0  0  0  0  0  0  0  0  0
    9.1497  -16.7282   20.2804 C   0  0  2  0  0  0  0  0  0  0  0  0
    8.0969  -17.3874   19.5217 N   0  0  0  0  0  0  0  0  0  0  0  0
    8.8147  -16.9180   21.7300 C   0  0  0  0  0  0  0  0  0  0  0  0
    9.0017  -16.0008   22.5354 O   0  0  0  0  0  0  0  0  0  0  0  0
    8.2834  -18.1222   22.2310 N   0  0  0  0  0  0  0  0  0  0  0  0
    7.9604  -18.5198   23.5307 C   0  0  1  0  0  0  0  0  0  0  0  0
    7.4368  -19.8962   23.7967 C   0  0  0  0  0  0  0  0  0  0  0  0
    7.1091  -20.1866   25.2075 C   0  0  0  0  0  0  0  0  0  0  0  0
    7.8291  -21.0756   26.0421 C   0  0  0  0  0  0  0  0  0  0  0  0
    7.2685  -21.1049   27.2538 N   0  0  0  0  0  0  0  0  0  0  0  0
    6.2229  -20.2707   27.2199 C   0  0  0  0  0  0  0  0  0  0  0  0
    6.1412  -19.7294   25.9889 N   0  0  0  0  0  0  0  0  0  0  0  0
    8.9741  -18.1475   24.5177 C   0  0  0  0  0  0  0  0  0  0  0  0
   10.1819  -18.0910   24.0964 O   0  0  0  0  0  0  0  0  0  0  0  0
   10.6263  -13.2360   29.3668 N   0  0  0  0  0  0  0  0  0  0  0  0
   10.0473  -13.7404   28.1497 C   0  0  0  0  0  0  0  0  0  0  0  0
    9.1973  -13.0985   27.4915 O   0  0  0  0  0  0  0  0  0  0  0  0
   10.5011  -15.0722   27.6930 C   0  0  0  0  0  0  0  0  0  0  0  0
    9.4217  -15.6808   26.8286 C   0  0  0  0  0  0  0  0  0  0  0  0
    9.7508  -17.1512   26.6380 C   0  0  2  0  0  0  0  0  0  0  0  0
    8.7364  -17.8452   25.8901 N   0  0  0  0  0  0  0  0  0  0  0  0
    9.9497  -17.8156   27.9646 C   0  0  0  0  0  0  0  0  0  0  0  0
    9.0201  -18.4235   28.5463 O   0  0  0  0  0  0  0  0  0  0  0  0
   11.1881  -17.7641   28.5750 O   0  0  0  0  0  0  0  0  0  0  0  0
  2  1  1  0
  3  2  1  0
  4  3  1  0
  5  4  1  0
  5  6  1  6
  7  5  1  0
  8  7  2  0
  9  7  1  0
 10  9  1  0
 10 11  1  6
 11 12  1  0
 12 13  2  0
 12 16  1  0
 13 14  1  0
 14 15  1  0
 16 15  2  0
 17 18  2  0
 17 10  1  0
 20 21  2  0
 20 19  1  0
 22 20  1  0
 24 23  1  1
 23 22  1  0
 24 25  1  0
 25 17  1  0
 26 28  1  0
 26 24  1  0
 27 26  2  0
M  END
$$$$
