MHQ.pdb
     RDKit          3D

 28 28  0  0  1  0  0  0  0  0999 V2000
    7.9624  -11.7283   26.3758 C   0  0  0  0  0  0  0  0  0  0  0  0
    6.5839  -12.7671   26.8569 S   0  0  0  0  0  0  0  0  0  0  0  0
    6.8368  -14.4989   26.5530 C   0  0  0  0  0  0  0  0  0  0  0  0
    6.6514  -14.8997   25.1336 C   0  0  0  0  0  0  0  0  0  0  0  0
    6.5790  -16.3797   24.8806 C   0  0  2  0  0  0  0  0  0  0  0  0
    6.4974  -17.1021   26.1416 N   0  0  0  0  0  0  0  0  0  0  0  0
    7.8188  -16.8645   24.1898 C   0  0  0  0  0  0  0  0  0  0  0  0
    8.6598  -17.5205   24.8122 O   0  0  0  0  0  0  0  0  0  0  0  0
    8.0778  -16.6020   22.8306 N   0  0  0  0  0  0  0  0  0  0  0  0
    9.1636  -16.9327   22.0160 C   0  0  1  0  0  0  0  0  0  0  0  0
    9.2130  -16.4749   20.5922 C   0  0  0  0  0  0  0  0  0  0  0  0
   10.3385  -17.0053   19.7959 C   0  0  0  0  0  0  0  0  0  0  0  0
   11.3603  -17.8488   20.2955 C   0  0  0  0  0  0  0  0  0  0  0  0
   12.2175  -18.1427   19.3145 N   0  0  0  0  0  0  0  0  0  0  0  0
   11.7796  -17.5194   18.2145 C   0  0  0  0  0  0  0  0  0  0  0  0
   10.6549  -16.8433   18.5191 N   0  0  0  0  0  0  0  0  0  0  0  0
   10.4574  -16.7402   22.6712 C   0  0  0  0  0  0  0  0  0  0  0  0
   10.9848  -15.5792   22.5546 O   0  0  0  0  0  0  0  0  0  0  0  0
   12.5490  -19.1254   27.7766 N   0  0  0  0  0  0  0  0  0  0  0  0
   11.2473  -19.0988   27.1639 C   0  0  0  0  0  0  0  0  0  0  0  0
   10.2462  -19.6414   27.6847 O   0  0  0  0  0  0  0  0  0  0  0  0
   11.1300  -18.3927   25.8693 C   0  0  0  0  0  0  0  0  0  0  0  0
   12.4877  -17.8493   25.4900 C   0  0  0  0  0  0  0  0  0  0  0  0
   12.4060  -17.3478   24.0586 C   0  0  2  0  0  0  0  0  0  0  0  0
   11.1723  -17.7204   23.4191 N   0  0  0  0  0  0  0  0  0  0  0  0
   13.5667  -17.8574   23.2624 C   0  0  0  0  0  0  0  0  0  0  0  0
   13.4121  -18.6319   22.2886 O   0  0  0  0  0  0  0  0  0  0  0  0
   14.8492  -17.4702   23.6006 O   0  0  0  0  0  0  0  0  0  0  0  0
  2  1  1  0
  3  2  1  0
  4  3  1  0
  5  4  1  0
  5  6  1  1
  7  5  1  0
  8  7  2  0
  9  7  1  0
 10  9  1  0
 10 11  1  6
 11 12  1  0
 12 13  2  0
 12 16  1  0
 13 14  1  0
 14 15  1  0
 16 15  2  0
 17 18  2  0
 17 10  1  0
 20 21  2  0
 20 19  1  0
 22 20  1  0
 24 23  1  1
 23 22  1  0
 24 25  1  0
 25 17  1  0
 26 28  1  0
 26 24  1  0
 27 26  2  0
M  END
$$$$
