YKT.pdb
     RDKit          3D

 29 29  0  0  1  0  0  0  0  0999 V2000
    7.0720  -10.7881   26.2265 O   0  0  0  0  0  0  0  0  0  0  0  0
    7.0494  -12.1708   26.3755 C   0  0  0  0  0  0  0  0  0  0  0  0
    8.2049  -12.9159   26.2728 C   0  0  0  0  0  0  0  0  0  0  0  0
    8.2089  -14.2822   26.4159 C   0  0  0  0  0  0  0  0  0  0  0  0
    7.0417  -14.9517   26.6693 C   0  0  0  0  0  0  0  0  0  0  0  0
    7.0539  -16.4131   26.8211 C   0  0  0  0  0  0  0  0  0  0  0  0
    6.4751  -17.0107   25.5512 C   0  0  2  0  0  0  0  0  0  0  0  0
    6.2189  -18.4131   25.6787 N   0  0  0  0  0  0  0  0  0  0  0  0
    7.4799  -16.8090   24.4695 C   0  0  0  0  0  0  0  0  0  0  0  0
    8.4975  -17.5586   24.4059 O   0  0  0  0  0  0  0  0  0  0  0  0
    5.8669  -14.2550   26.7801 C   0  0  0  0  0  0  0  0  0  0  0  0
    5.8928  -12.8756   26.6309 C   0  0  0  0  0  0  0  0  0  0  0  0
    7.3532  -15.8080   23.4954 N   0  0  0  0  0  0  0  0  0  0  0  0
    8.2436  -15.6208   22.3969 C   0  0  1  0  0  0  0  0  0  0  0  0
    7.8760  -14.3554   21.6607 C   0  0  0  0  0  0  0  0  0  0  0  0
    8.6527  -14.1145   20.4103 C   0  0  0  0  0  0  0  0  0  0  0  0
    7.7966  -13.6357   19.2650 C   0  0  0  0  0  0  0  0  0  0  0  0
    8.6542  -13.3982   18.0415 C   0  0  0  0  0  0  0  0  0  0  0  0
    7.8445  -12.8022   16.9978 N   0  0  0  0  0  0  0  0  0  0  0  0
    9.6643  -15.5012   22.8331 C   0  0  0  0  0  0  0  0  0  0  0  0
    9.9936  -14.6053   23.6530 O   0  0  0  0  0  0  0  0  0  0  0  0
   11.7480  -18.0730   24.5528 C   0  0  0  0  0  0  0  0  0  0  0  0
   12.4508  -17.6913   23.2701 C   0  0  1  0  0  0  0  0  0  0  0  0
   11.9308  -18.5497   22.2741 O   0  0  0  0  0  0  0  0  0  0  0  0
   12.0628  -16.2868   22.8426 C   0  0  2  0  0  0  0  0  0  0  0  0
   10.6797  -16.3695   22.3553 N   0  0  0  0  0  0  0  0  0  0  0  0
   12.9586  -15.8992   21.7390 C   0  0  0  0  0  0  0  0  0  0  0  0
   14.1309  -15.5575   21.9798 O   0  0  0  0  0  0  0  0  0  0  0  0
   12.5036  -15.9134   20.4417 O   0  0  0  0  0  0  0  0  0  0  0  0
  2  1  1  0
  2  3  2  0
  4  3  1  0
  5  4  2  0
  6  5  1  0
  7  6  1  0
  7  8  1  1
  9  7  1  0
 10  9  2  0
 11 12  2  0
 11  5  1  0
 12  2  1  0
 13  9  1  0
 14 13  1  0
 15 16  1  0
 14 15  1  1
 16 17  1  0
 18 17  1  0
 19 18  1  0
 20 14  1  0
 20 21  2  0
 23 22  1  1
 24 23  1  0
 25 23  1  0
 25 26  1  6
 26 20  1  0
 27 25  1  0
 28 27  2  0
 29 27  1  0
M  END
$$$$
