YKT.pdb
     RDKit          3D

 29 29  0  0  1  0  0  0  0  0999 V2000
    5.9761  -10.5144   27.9344 O   0  0  0  0  0  0  0  0  0  0  0  0
    6.4702  -11.6798   27.3580 C   0  0  0  0  0  0  0  0  0  0  0  0
    7.5983  -12.2964   27.8562 C   0  0  0  0  0  0  0  0  0  0  0  0
    8.1060  -13.4477   27.3049 C   0  0  0  0  0  0  0  0  0  0  0  0
    7.4919  -14.0232   26.2248 C   0  0  0  0  0  0  0  0  0  0  0  0
    8.0408  -15.2546   25.6405 C   0  0  0  0  0  0  0  0  0  0  0  0
    6.9377  -15.9071   24.8268 C   0  0  2  0  0  0  0  0  0  0  0  0
    6.5584  -17.1836   25.3513 N   0  0  0  0  0  0  0  0  0  0  0  0
    7.4617  -16.0993   23.4452 C   0  0  0  0  0  0  0  0  0  0  0  0
    8.0175  -17.1909   23.1274 O   0  0  0  0  0  0  0  0  0  0  0  0
    6.3675  -13.4475   25.6936 C   0  0  0  0  0  0  0  0  0  0  0  0
    5.8770  -12.2849   26.2710 C   0  0  0  0  0  0  0  0  0  0  0  0
    7.3687  -15.1099   22.4555 N   0  0  0  0  0  0  0  0  0  0  0  0
    7.9888  -15.1778   21.1728 C   0  0  1  0  0  0  0  0  0  0  0  0
    7.9268  -13.8224   20.5113 C   0  0  0  0  0  0  0  0  0  0  0  0
    8.5474  -13.7621   19.1562 C   0  0  0  0  0  0  0  0  0  0  0  0
    7.5326  -13.7495   18.0408 C   0  0  0  0  0  0  0  0  0  0  0  0
    8.0749  -14.4914   16.8391 C   0  0  0  0  0  0  0  0  0  0  0  0
    9.0026  -13.6356   16.1269 N   0  0  0  0  0  0  0  0  0  0  0  0
    9.4214  -15.5820   21.2566 C   0  0  0  0  0  0  0  0  0  0  0  0
   10.0365  -15.4824   22.3498 O   0  0  0  0  0  0  0  0  0  0  0  0
   11.0357  -17.4099   22.5688 C   0  0  0  0  0  0  0  0  0  0  0  0
   11.4249  -17.8148   21.1654 C   0  0  1  0  0  0  0  0  0  0  0  0
   10.3479  -18.5877   20.6734 O   0  0  0  0  0  0  0  0  0  0  0  0
   11.5041  -16.5997   20.2582 C   0  0  2  0  0  0  0  0  0  0  0  0
   10.1345  -16.0834   20.1371 N   0  0  0  0  0  0  0  0  0  0  0  0
   11.9814  -17.0622   18.9434 C   0  0  0  0  0  0  0  0  0  0  0  0
   13.1978  -17.2413   18.7507 O   0  0  0  0  0  0  0  0  0  0  0  0
   11.0865  -17.2971   17.9265 O   0  0  0  0  0  0  0  0  0  0  0  0
  2  1  1  0
  2  3  2  0
  4  3  1  0
  5  4  2  0
  6  5  1  0
  7  6  1  0
  7  8  1  1
  9  7  1  0
 10  9  2  0
 11 12  2  0
 11  5  1  0
 12  2  1  0
 13  9  1  0
 14 13  1  0
 15 16  1  0
 14 15  1  1
 16 17  1  0
 18 17  1  0
 19 18  1  0
 20 14  1  0
 20 21  2  0
 23 22  1  1
 24 23  1  0
 25 23  1  0
 25 26  1  6
 26 20  1  0
 27 25  1  0
 28 27  2  0
 29 27  1  0
M  END
$$$$
