YKT.pdb
     RDKit          3D

 29 29  0  0  1  0  0  0  0  0999 V2000
   10.9670  -19.2111   30.1978 O   0  0  0  0  0  0  0  0  0  0  0  0
   10.7494  -18.4081   29.0832 C   0  0  0  0  0  0  0  0  0  0  0  0
   11.5083  -17.2785   28.8617 C   0  0  0  0  0  0  0  0  0  0  0  0
   11.3130  -16.4693   27.7688 C   0  0  0  0  0  0  0  0  0  0  0  0
   10.3400  -16.7706   26.8538 C   0  0  0  0  0  0  0  0  0  0  0  0
   10.1371  -15.9003   25.6873 C   0  0  0  0  0  0  0  0  0  0  0  0
   10.3747  -16.7379   24.4437 C   0  0  2  0  0  0  0  0  0  0  0  0
   11.7247  -17.2048   24.3532 N   0  0  0  0  0  0  0  0  0  0  0  0
   10.0934  -15.8702   23.2655 C   0  0  0  0  0  0  0  0  0  0  0  0
   11.0498  -15.3302   22.6370 O   0  0  0  0  0  0  0  0  0  0  0  0
    9.5597  -17.8831   27.0302 C   0  0  0  0  0  0  0  0  0  0  0  0
    9.7792  -18.6822   28.1433 C   0  0  0  0  0  0  0  0  0  0  0  0
    8.7930  -15.6151   22.8061 N   0  0  0  0  0  0  0  0  0  0  0  0
    8.2039  -14.3203   22.7013 C   0  0  1  0  0  0  0  0  0  0  0  0
    7.5008  -14.1933   21.3716 C   0  0  0  0  0  0  0  0  0  0  0  0
    8.4101  -14.1058   20.1925 C   0  0  0  0  0  0  0  0  0  0  0  0
    7.6722  -14.0648   18.8780 C   0  0  0  0  0  0  0  0  0  0  0  0
    8.6534  -14.1582   17.7303 C   0  0  0  0  0  0  0  0  0  0  0  0
    7.9333  -14.0639   16.4761 N   0  0  0  0  0  0  0  0  0  0  0  0
    7.2023  -14.0649   23.7757 C   0  0  0  0  0  0  0  0  0  0  0  0
    6.3283  -14.9321   24.0353 O   0  0  0  0  0  0  0  0  0  0  0  0
    6.1195  -15.0728   26.0362 C   0  0  0  0  0  0  0  0  0  0  0  0
    6.4032  -13.7103   26.6260 C   0  0  1  0  0  0  0  0  0  0  0  0
    7.7856  -13.6978   26.9231 O   0  0  0  0  0  0  0  0  0  0  0  0
    6.1986  -12.6219   25.5871 C   0  0  2  0  0  0  0  0  0  0  0  0
    7.1914  -12.8645   24.5322 N   0  0  0  0  0  0  0  0  0  0  0  0
    6.4714  -11.3308   26.2421 C   0  0  0  0  0  0  0  0  0  0  0  0
    7.5186  -10.7104   25.9826 O   0  0  0  0  0  0  0  0  0  0  0  0
    5.5719  -10.8077   27.1407 O   0  0  0  0  0  0  0  0  0  0  0  0
  2  1  1  0
  2  3  2  0
  4  3  1  0
  5  4  2  0
  6  5  1  0
  7  6  1  0
  7  8  1  6
  9  7  1  0
 10  9  2  0
 11 12  2  0
 11  5  1  0
 12  2  1  0
 13  9  1  0
 14 13  1  0
 15 16  1  0
 14 15  1  6
 16 17  1  0
 18 17  1  0
 19 18  1  0
 20 14  1  0
 20 21  2  0
 23 22  1  6
 24 23  1  0
 25 23  1  0
 25 26  1  6
 26 20  1  0
 27 25  1  0
 28 27  2  0
 29 27  1  0
M  END
$$$$
