YKT.pdb
     RDKit          3D

 29 29  0  0  1  0  0  0  0  0999 V2000
    5.3847  -10.3810   28.1510 O   0  0  0  0  0  0  0  0  0  0  0  0
    5.9934  -11.4528   27.5065 C   0  0  0  0  0  0  0  0  0  0  0  0
    6.9218  -12.2386   28.1558 C   0  0  0  0  0  0  0  0  0  0  0  0
    7.5369  -13.3023   27.5414 C   0  0  0  0  0  0  0  0  0  0  0  0
    7.2371  -13.6150   26.2425 C   0  0  0  0  0  0  0  0  0  0  0  0
    7.8990  -14.7543   25.5921 C   0  0  0  0  0  0  0  0  0  0  0  0
    6.8274  -15.5638   24.8843 C   0  0  2  0  0  0  0  0  0  0  0  0
    6.3840  -16.6782   25.6654 N   0  0  0  0  0  0  0  0  0  0  0  0
    7.4248  -16.0790   23.6202 C   0  0  0  0  0  0  0  0  0  0  0  0
    7.8172  -17.2802   23.5515 O   0  0  0  0  0  0  0  0  0  0  0  0
    6.3205  -12.8634   25.5549 C   0  0  0  0  0  0  0  0  0  0  0  0
    5.7150  -11.7949   26.2007 C   0  0  0  0  0  0  0  0  0  0  0  0
    7.5784  -15.2830   22.4757 N   0  0  0  0  0  0  0  0  0  0  0  0
    8.1957  -15.7087   21.2623 C   0  0  1  0  0  0  0  0  0  0  0  0
    8.0624  -14.6233   20.2218 C   0  0  0  0  0  0  0  0  0  0  0  0
    8.6325  -14.9670   18.8871 C   0  0  0  0  0  0  0  0  0  0  0  0
    8.3832  -13.9049   17.8459 C   0  0  0  0  0  0  0  0  0  0  0  0
    8.9107  -14.3618   16.5037 C   0  0  0  0  0  0  0  0  0  0  0  0
    8.7670  -13.2872   15.5420 N   0  0  0  0  0  0  0  0  0  0  0  0
    9.6472  -16.0006   21.4371 C   0  0  0  0  0  0  0  0  0  0  0  0
   10.3352  -15.3023   22.2260 O   0  0  0  0  0  0  0  0  0  0  0  0
   13.1829  -19.4211   21.0575 C   0  0  0  0  0  0  0  0  0  0  0  0
   11.7578  -18.9378   20.9142 C   0  0  1  0  0  0  0  0  0  0  0  0
   11.0658  -19.4343   22.0430 O   0  0  0  0  0  0  0  0  0  0  0  0
   11.6899  -17.4250   21.0259 C   0  0  2  0  0  0  0  0  0  0  0  0
   10.2987  -17.0507   20.7398 N   0  0  0  0  0  0  0  0  0  0  0  0
   12.5796  -16.8667   19.9928 C   0  0  0  0  0  0  0  0  0  0  0  0
   13.6045  -16.2436   20.3247 O   0  0  0  0  0  0  0  0  0  0  0  0
   12.2814  -17.0318   18.6609 O   0  0  0  0  0  0  0  0  0  0  0  0
  2  1  1  0
  2  3  2  0
  4  3  1  0
  5  4  2  0
  6  5  1  0
  7  6  1  0
  7  8  1  1
  9  7  1  0
 10  9  2  0
 11 12  2  0
 11  5  1  0
 12  2  1  0
 13  9  1  0
 14 13  1  0
 15 16  1  0
 14 15  1  6
 16 17  1  0
 18 17  1  0
 19 18  1  0
 20 14  1  0
 20 21  2  0
 23 22  1  1
 24 23  1  0
 25 23  1  0
 25 26  1  6
 26 20  1  0
 27 25  1  0
 28 27  2  0
 29 27  1  0
M  END
$$$$
