YKT.pdb
     RDKit          3D

 29 29  0  0  1  0  0  0  0  0999 V2000
    5.4878  -10.6242   28.2550 O   0  0  0  0  0  0  0  0  0  0  0  0
    6.1305  -11.6643   27.5918 C   0  0  0  0  0  0  0  0  0  0  0  0
    6.7901  -12.6530   28.2905 C   0  0  0  0  0  0  0  0  0  0  0  0
    7.4322  -13.6904   27.6591 C   0  0  0  0  0  0  0  0  0  0  0  0
    7.4331  -13.7699   26.2921 C   0  0  0  0  0  0  0  0  0  0  0  0
    8.1220  -14.8824   25.6237 C   0  0  0  0  0  0  0  0  0  0  0  0
    7.0592  -15.7869   25.0262 C   0  0  2  0  0  0  0  0  0  0  0  0
    6.8341  -16.9574   25.8186 N   0  0  0  0  0  0  0  0  0  0  0  0
    7.5434  -16.2105   23.6822 C   0  0  0  0  0  0  0  0  0  0  0  0
    7.9644  -17.3909   23.5065 O   0  0  0  0  0  0  0  0  0  0  0  0
    6.7910  -12.8108   25.5534 C   0  0  0  0  0  0  0  0  0  0  0  0
    6.1508  -11.7744   26.2180 C   0  0  0  0  0  0  0  0  0  0  0  0
    7.5569  -15.3486   22.5759 N   0  0  0  0  0  0  0  0  0  0  0  0
    8.1217  -15.6619   21.3041 C   0  0  1  0  0  0  0  0  0  0  0  0
    7.9424  -14.4891   20.3709 C   0  0  0  0  0  0  0  0  0  0  0  0
    8.3685  -14.7422   18.9640 C   0  0  0  0  0  0  0  0  0  0  0  0
    8.0028  -13.6209   18.0243 C   0  0  0  0  0  0  0  0  0  0  0  0
    8.2935  -14.0266   16.5962 C   0  0  0  0  0  0  0  0  0  0  0  0
    7.7782  -13.0140   15.6966 N   0  0  0  0  0  0  0  0  0  0  0  0
    9.5798  -15.9610   21.3898 C   0  0  0  0  0  0  0  0  0  0  0  0
   10.3477  -15.1638   21.9882 O   0  0  0  0  0  0  0  0  0  0  0  0
   11.4084  -18.8253   22.9528 C   0  0  0  0  0  0  0  0  0  0  0  0
   11.7099  -18.8165   21.4716 C   0  0  1  0  0  0  0  0  0  0  0  0
   10.6756  -19.5635   20.8620 O   0  0  0  0  0  0  0  0  0  0  0  0
   11.5875  -17.4123   20.9068 C   0  0  2  0  0  0  0  0  0  0  0  0
   10.1497  -17.1266   20.8155 N   0  0  0  0  0  0  0  0  0  0  0  0
   12.1803  -17.4268   19.5582 C   0  0  0  0  0  0  0  0  0  0  0  0
   11.4519  -17.5744   18.5599 O   0  0  0  0  0  0  0  0  0  0  0  0
   13.5376  -17.2776   19.3979 O   0  0  0  0  0  0  0  0  0  0  0  0
  2  1  1  0
  2  3  2  0
  4  3  1  0
  5  4  2  0
  6  5  1  0
  7  6  1  0
  7  8  1  1
  9  7  1  0
 10  9  2  0
 11 12  2  0
 11  5  1  0
 12  2  1  0
 13  9  1  0
 14 13  1  0
 15 16  1  0
 14 15  1  6
 16 17  1  0
 18 17  1  0
 19 18  1  0
 20 14  1  0
 20 21  2  0
 23 22  1  1
 24 23  1  0
 25 23  1  0
 25 26  1  6
 26 20  1  0
 27 25  1  0
 28 27  2  0
 29 27  1  0
M  END
$$$$
