YKT.pdb
     RDKit          3D

 29 29  0  0  1  0  0  0  0  0999 V2000
    5.4644  -10.0664   27.4259 O   0  0  0  0  0  0  0  0  0  0  0  0
    6.0940  -11.2457   27.0421 C   0  0  0  0  0  0  0  0  0  0  0  0
    5.7494  -11.8872   25.8713 C   0  0  0  0  0  0  0  0  0  0  0  0
    6.3561  -13.0527   25.4704 C   0  0  0  0  0  0  0  0  0  0  0  0
    7.3382  -13.6177   26.2391 C   0  0  0  0  0  0  0  0  0  0  0  0
    7.9826  -14.8645   25.8037 C   0  0  0  0  0  0  0  0  0  0  0  0
    6.9142  -15.7341   25.1660 C   0  0  2  0  0  0  0  0  0  0  0  0
    6.5692  -16.8574   25.9831 N   0  0  0  0  0  0  0  0  0  0  0  0
    7.4652  -16.2378   23.8764 C   0  0  0  0  0  0  0  0  0  0  0  0
    7.7986  -17.4535   23.7647 O   0  0  0  0  0  0  0  0  0  0  0  0
    7.7157  -13.0175   27.4116 C   0  0  0  0  0  0  0  0  0  0  0  0
    7.0857  -11.8410   27.7918 C   0  0  0  0  0  0  0  0  0  0  0  0
    7.6375  -15.4151   22.7537 N   0  0  0  0  0  0  0  0  0  0  0  0
    8.1632  -15.8454   21.4995 C   0  0  1  0  0  0  0  0  0  0  0  0
    8.1224  -14.7003   20.5169 C   0  0  0  0  0  0  0  0  0  0  0  0
    8.5832  -15.0443   19.1406 C   0  0  0  0  0  0  0  0  0  0  0  0
    8.3398  -13.9406   18.1421 C   0  0  0  0  0  0  0  0  0  0  0  0
    8.7199  -14.4056   16.7536 C   0  0  0  0  0  0  0  0  0  0  0  0
    8.4766  -13.3354   15.8071 N   0  0  0  0  0  0  0  0  0  0  0  0
    9.5766  -16.3078   21.6062 C   0  0  0  0  0  0  0  0  0  0  0  0
   10.3845  -15.6854   22.3433 O   0  0  0  0  0  0  0  0  0  0  0  0
   12.8239  -19.9621   20.6803 C   0  0  0  0  0  0  0  0  0  0  0  0
   11.4317  -19.3773   20.6112 C   0  0  1  0  0  0  0  0  0  0  0  0
   10.6701  -20.0772   21.5753 O   0  0  0  0  0  0  0  0  0  0  0  0
   11.4345  -17.9284   21.0656 C   0  0  2  0  0  0  0  0  0  0  0  0
   10.0593  -17.4399   20.9000 N   0  0  0  0  0  0  0  0  0  0  0  0
   12.3389  -17.1874   20.1693 C   0  0  0  0  0  0  0  0  0  0  0  0
   12.0164  -16.9910   18.9834 O   0  0  0  0  0  0  0  0  0  0  0  0
   13.5402  -16.7112   20.6387 O   0  0  0  0  0  0  0  0  0  0  0  0
  2  1  1  0
  2  3  2  0
  4  3  1  0
  5  4  2  0
  6  5  1  0
  7  6  1  0
  7  8  1  1
  9  7  1  0
 10  9  2  0
 11 12  2  0
 11  5  1  0
 12  2  1  0
 13  9  1  0
 14 13  1  0
 15 16  1  0
 14 15  1  6
 16 17  1  0
 18 17  1  0
 19 18  1  0
 20 14  1  0
 20 21  2  0
 23 22  1  1
 24 23  1  0
 25 23  1  0
 25 26  1  6
 26 20  1  0
 27 25  1  0
 28 27  2  0
 29 27  1  0
M  END
$$$$
