YKT.pdb
     RDKit          3D

 29 29  0  0  1  0  0  0  0  0999 V2000
   18.9979  -13.9997   16.9836 O   0  0  0  0  0  0  0  0  0  0  0  0
   17.7286  -14.0803   17.5466 C   0  0  0  0  0  0  0  0  0  0  0  0
   17.4292  -15.0394   18.4908 C   0  0  0  0  0  0  0  0  0  0  0  0
   16.1837  -15.1397   19.0616 C   0  0  0  0  0  0  0  0  0  0  0  0
   15.1883  -14.2719   18.6997 C   0  0  0  0  0  0  0  0  0  0  0  0
   13.8586  -14.3853   19.3146 C   0  0  0  0  0  0  0  0  0  0  0  0
   13.0660  -15.3988   18.5089 C   0  0  2  0  0  0  0  0  0  0  0  0
   12.4656  -14.8186   17.3464 N   0  0  0  0  0  0  0  0  0  0  0  0
   11.9839  -15.9176   19.3922 C   0  0  0  0  0  0  0  0  0  0  0  0
   10.8564  -15.3434   19.4123 O   0  0  0  0  0  0  0  0  0  0  0  0
   15.4371  -13.3012   17.7651 C   0  0  0  0  0  0  0  0  0  0  0  0
   16.7045  -13.2234   17.2053 C   0  0  0  0  0  0  0  0  0  0  0  0
   12.1543  -17.0354   20.2219 N   0  0  0  0  0  0  0  0  0  0  0  0
   11.1528  -17.5720   21.0842 C   0  0  1  0  0  0  0  0  0  0  0  0
   11.3952  -19.0490   21.2795 C   0  0  0  0  0  0  0  0  0  0  0  0
   10.3763  -19.7413   22.1205 C   0  0  0  0  0  0  0  0  0  0  0  0
   10.5609  -21.2375   22.1619 C   0  0  0  0  0  0  0  0  0  0  0  0
    9.3834  -21.8854   22.8564 C   0  0  0  0  0  0  0  0  0  0  0  0
    9.5669  -23.3229   22.8690 N   0  0  0  0  0  0  0  0  0  0  0  0
   11.1559  -16.9253   22.4276 C   0  0  0  0  0  0  0  0  0  0  0  0
   12.2400  -16.7813   23.0500 O   0  0  0  0  0  0  0  0  0  0  0  0
    8.6040  -13.8871   23.5174 C   0  0  0  0  0  0  0  0  0  0  0  0
    8.6627  -15.0535   24.4771 C   0  0  1  0  0  0  0  0  0  0  0  0
    7.6792  -15.9681   24.0347 O   0  0  0  0  0  0  0  0  0  0  0  0
    9.9872  -15.7855   24.3525 C   0  0  2  0  0  0  0  0  0  0  0  0
    9.9681  -16.4566   23.0461 N   0  0  0  0  0  0  0  0  0  0  0  0
   10.0383  -16.7900   25.4290 C   0  0  0  0  0  0  0  0  0  0  0  0
    9.9998  -18.0025   25.1511 O   0  0  0  0  0  0  0  0  0  0  0  0
   10.1284  -16.3922   26.7420 O   0  0  0  0  0  0  0  0  0  0  0  0
  2  1  1  0
  2  3  2  0
  4  3  1  0
  5  4  2  0
  6  5  1  0
  7  6  1  0
  7  8  1  6
  9  7  1  0
 10  9  2  0
 11 12  2  0
 11  5  1  0
 12  2  1  0
 13  9  1  0
 14 13  1  0
 15 16  1  0
 14 15  1  1
 16 17  1  0
 18 17  1  0
 19 18  1  0
 20 14  1  0
 20 21  2  0
 23 22  1  6
 24 23  1  0
 25 23  1  0
 25 26  1  6
 26 20  1  0
 27 25  1  0
 28 27  2  0
 29 27  1  0
M  END
$$$$
