YKT.pdb
     RDKit          3D

 29 29  0  0  1  0  0  0  0  0999 V2000
    6.0220  -10.0617   26.9451 O   0  0  0  0  0  0  0  0  0  0  0  0
    6.3215  -11.3942   26.6823 C   0  0  0  0  0  0  0  0  0  0  0  0
    5.5102  -12.4095   27.1429 C   0  0  0  0  0  0  0  0  0  0  0  0
    5.7842  -13.7330   26.8968 C   0  0  0  0  0  0  0  0  0  0  0  0
    6.8924  -14.0839   26.1731 C   0  0  0  0  0  0  0  0  0  0  0  0
    7.1789  -15.5016   25.9139 C   0  0  0  0  0  0  0  0  0  0  0  0
    6.2978  -15.9436   24.7594 C   0  0  2  0  0  0  0  0  0  0  0  0
    5.6123  -17.1688   25.0376 N   0  0  0  0  0  0  0  0  0  0  0  0
    7.1852  -16.1542   23.5810 C   0  0  0  0  0  0  0  0  0  0  0  0
    7.8037  -17.2498   23.4448 O   0  0  0  0  0  0  0  0  0  0  0  0
    7.7295  -13.1106   25.6938 C   0  0  0  0  0  0  0  0  0  0  0  0
    7.4279  -11.7821   25.9577 C   0  0  0  0  0  0  0  0  0  0  0  0
    7.3749  -15.1782   22.5919 N   0  0  0  0  0  0  0  0  0  0  0  0
    8.3061  -15.2768   21.5159 C   0  0  1  0  0  0  0  0  0  0  0  0
    8.3775  -13.9558   20.7891 C   0  0  0  0  0  0  0  0  0  0  0  0
    9.4667  -13.8615   19.7745 C   0  0  0  0  0  0  0  0  0  0  0  0
    9.0163  -14.2405   18.3861 C   0  0  0  0  0  0  0  0  0  0  0  0
    7.6309  -13.6926   18.1236 C   0  0  0  0  0  0  0  0  0  0  0  0
    7.2415  -14.0072   16.7636 N   0  0  0  0  0  0  0  0  0  0  0  0
    9.6799  -15.6169   21.9850 C   0  0  0  0  0  0  0  0  0  0  0  0
   10.1680  -15.0180   22.9781 O   0  0  0  0  0  0  0  0  0  0  0  0
   13.1615  -19.0342   22.3163 C   0  0  0  0  0  0  0  0  0  0  0  0
   11.8222  -18.5188   21.8414 C   0  0  1  0  0  0  0  0  0  0  0  0
   10.8801  -18.9432   22.8066 O   0  0  0  0  0  0  0  0  0  0  0  0
   11.7876  -17.0011   21.8761 C   0  0  2  0  0  0  0  0  0  0  0  0
   10.4754  -16.6047   21.3487 N   0  0  0  0  0  0  0  0  0  0  0  0
   12.8527  -16.5157   20.9814 C   0  0  0  0  0  0  0  0  0  0  0  0
   12.6926  -16.5499   19.7476 O   0  0  0  0  0  0  0  0  0  0  0  0
   14.0250  -16.0243   21.5051 O   0  0  0  0  0  0  0  0  0  0  0  0
  2  1  1  0
  2  3  2  0
  4  3  1  0
  5  4  2  0
  6  5  1  0
  7  6  1  0
  7  8  1  1
  9  7  1  0
 10  9  2  0
 11 12  2  0
 11  5  1  0
 12  2  1  0
 13  9  1  0
 14 13  1  0
 15 16  1  0
 14 15  1  1
 16 17  1  0
 18 17  1  0
 19 18  1  0
 20 14  1  0
 20 21  2  0
 23 22  1  1
 24 23  1  0
 25 23  1  0
 25 26  1  6
 26 20  1  0
 27 25  1  0
 28 27  2  0
 29 27  1  0
M  END
$$$$
