YKT.pdb
     RDKit          3D

 29 29  0  0  1  0  0  0  0  0999 V2000
    6.7657  -10.3853   26.8002 O   0  0  0  0  0  0  0  0  0  0  0  0
    6.8365  -11.7612   26.6092 C   0  0  0  0  0  0  0  0  0  0  0  0
    5.7611  -12.5751   26.8955 C   0  0  0  0  0  0  0  0  0  0  0  0
    5.8060  -13.9363   26.7155 C   0  0  0  0  0  0  0  0  0  0  0  0
    6.9432  -14.5307   26.2376 C   0  0  0  0  0  0  0  0  0  0  0  0
    6.9837  -15.9872   26.0477 C   0  0  0  0  0  0  0  0  0  0  0  0
    6.3011  -16.2964   24.7275 C   0  0  2  0  0  0  0  0  0  0  0  0
    5.5527  -17.5156   24.7755 N   0  0  0  0  0  0  0  0  0  0  0  0
    7.3700  -16.4369   23.6989 C   0  0  0  0  0  0  0  0  0  0  0  0
    8.0256  -17.5160   23.6136 O   0  0  0  0  0  0  0  0  0  0  0  0
    8.0387  -13.7639   25.9385 C   0  0  0  0  0  0  0  0  0  0  0  0
    7.9648  -12.3915   26.1302 C   0  0  0  0  0  0  0  0  0  0  0  0
    7.6948  -15.4110   22.7994 N   0  0  0  0  0  0  0  0  0  0  0  0
    8.7250  -15.4842   21.8155 C   0  0  1  0  0  0  0  0  0  0  0  0
    8.7190  -14.2233   20.9857 C   0  0  0  0  0  0  0  0  0  0  0  0
    8.2277  -14.3999   19.5884 C   0  0  0  0  0  0  0  0  0  0  0  0
    8.1257  -13.1013   18.8286 C   0  0  0  0  0  0  0  0  0  0  0  0
    7.4951  -13.3418   17.4747 C   0  0  0  0  0  0  0  0  0  0  0  0
    8.3354  -14.2398   16.7080 N   0  0  0  0  0  0  0  0  0  0  0  0
   10.0792  -15.6272   22.4226 C   0  0  0  0  0  0  0  0  0  0  0  0
   10.4489  -14.8289   23.3222 O   0  0  0  0  0  0  0  0  0  0  0  0
   11.6932  -18.2526   24.4540 C   0  0  0  0  0  0  0  0  0  0  0  0
   12.4677  -18.1357   23.1612 C   0  0  1  0  0  0  0  0  0  0  0  0
   11.8155  -18.9887   22.2412 O   0  0  0  0  0  0  0  0  0  0  0  0
   12.3402  -16.7373   22.5832 C   0  0  2  0  0  0  0  0  0  0  0  0
   10.9858  -16.6427   22.0228 N   0  0  0  0  0  0  0  0  0  0  0  0
   13.3364  -16.6139   21.5049 C   0  0  0  0  0  0  0  0  0  0  0  0
   12.9710  -16.6295   20.3153 O   0  0  0  0  0  0  0  0  0  0  0  0
   14.6708  -16.4814   21.8083 O   0  0  0  0  0  0  0  0  0  0  0  0
  2  1  1  0
  2  3  2  0
  4  3  1  0
  5  4  2  0
  6  5  1  0
  7  6  1  0
  7  8  1  1
  9  7  1  0
 10  9  2  0
 11 12  2  0
 11  5  1  0
 12  2  1  0
 13  9  1  0
 14 13  1  0
 15 16  1  0
 14 15  1  1
 16 17  1  0
 18 17  1  0
 19 18  1  0
 20 14  1  0
 20 21  2  0
 23 22  1  1
 24 23  1  0
 25 23  1  0
 25 26  1  6
 26 20  1  0
 27 25  1  0
 28 27  2  0
 29 27  1  0
M  END
$$$$
