YKT.pdb
     RDKit          3D

 29 29  0  0  1  0  0  0  0  0999 V2000
    5.9114  -10.3604   26.8600 O   0  0  0  0  0  0  0  0  0  0  0  0
    6.2359  -11.7036   26.7018 C   0  0  0  0  0  0  0  0  0  0  0  0
    7.5477  -12.1075   26.5712 C   0  0  0  0  0  0  0  0  0  0  0  0
    7.8941  -13.4276   26.4138 C   0  0  0  0  0  0  0  0  0  0  0  0
    6.9254  -14.3947   26.3821 C   0  0  0  0  0  0  0  0  0  0  0  0
    7.3035  -15.8046   26.2135 C   0  0  0  0  0  0  0  0  0  0  0  0
    6.4844  -16.3645   25.0645 C   0  0  2  0  0  0  0  0  0  0  0  0
    5.8983  -17.6311   25.3820 N   0  0  0  0  0  0  0  0  0  0  0  0
    7.4085  -16.5462   23.9098 C   0  0  0  0  0  0  0  0  0  0  0  0
    8.1129  -17.5939   23.8242 O   0  0  0  0  0  0  0  0  0  0  0  0
    5.6070  -14.0430   26.5079 C   0  0  0  0  0  0  0  0  0  0  0  0
    5.2864  -12.7021   26.6656 C   0  0  0  0  0  0  0  0  0  0  0  0
    7.5410  -15.5937   22.8888 N   0  0  0  0  0  0  0  0  0  0  0  0
    8.5428  -15.6194   21.8738 C   0  0  1  0  0  0  0  0  0  0  0  0
    8.3777  -14.4195   20.9730 C   0  0  0  0  0  0  0  0  0  0  0  0
    8.4438  -14.7225   19.5140 C   0  0  0  0  0  0  0  0  0  0  0  0
    8.2412  -13.5053   18.6472 C   0  0  0  0  0  0  0  0  0  0  0  0
    8.2136  -13.9070   17.1889 C   0  0  0  0  0  0  0  0  0  0  0  0
    8.1188  -12.7175   16.3665 N   0  0  0  0  0  0  0  0  0  0  0  0
    9.9223  -15.5826   22.4382 C   0  0  0  0  0  0  0  0  0  0  0  0
   10.2215  -14.7193   23.3033 O   0  0  0  0  0  0  0  0  0  0  0  0
   12.0940  -19.0525   22.4433 C   0  0  0  0  0  0  0  0  0  0  0  0
   12.2424  -17.9226   23.4364 C   0  0  1  0  0  0  0  0  0  0  0  0
   13.5433  -18.0500   23.9756 O   0  0  0  0  0  0  0  0  0  0  0  0
   12.2229  -16.5793   22.7287 C   0  0  2  0  0  0  0  0  0  0  0  0
   10.9310  -16.4954   22.0350 N   0  0  0  0  0  0  0  0  0  0  0  0
   13.3189  -16.5843   21.7442 C   0  0  0  0  0  0  0  0  0  0  0  0
   14.5017  -16.5504   22.1296 O   0  0  0  0  0  0  0  0  0  0  0  0
   13.0393  -16.6263   20.3987 O   0  0  0  0  0  0  0  0  0  0  0  0
  2  1  1  0
  2  3  2  0
  4  3  1  0
  5  4  2  0
  6  5  1  0
  7  6  1  0
  7  8  1  1
  9  7  1  0
 10  9  2  0
 11 12  2  0
 11  5  1  0
 12  2  1  0
 13  9  1  0
 14 13  1  0
 15 16  1  0
 14 15  1  6
 16 17  1  0
 18 17  1  0
 19 18  1  0
 20 14  1  0
 20 21  2  0
 23 22  1  6
 24 23  1  0
 25 23  1  0
 25 26  1  6
 26 20  1  0
 27 25  1  0
 28 27  2  0
 29 27  1  0
M  END
$$$$
