YKT.pdb
     RDKit          3D

 29 29  0  0  1  0  0  0  0  0999 V2000
    7.4959  -14.1278   14.8562 O   0  0  0  0  0  0  0  0  0  0  0  0
    7.6243  -13.8874   16.2201 C   0  0  0  0  0  0  0  0  0  0  0  0
    8.8648  -13.8416   16.8203 C   0  0  0  0  0  0  0  0  0  0  0  0
    9.0181  -13.6060   18.1649 C   0  0  0  0  0  0  0  0  0  0  0  0
    7.9204  -13.4068   18.9588 C   0  0  0  0  0  0  0  0  0  0  0  0
    8.0923  -13.1553   20.3963 C   0  0  0  0  0  0  0  0  0  0  0  0
    9.1121  -14.1520   20.9172 C   0  0  2  0  0  0  0  0  0  0  0  0
    9.2344  -15.2977   20.0682 N   0  0  0  0  0  0  0  0  0  0  0  0
    8.6445  -14.6036   22.2580 C   0  0  0  0  0  0  0  0  0  0  0  0
    8.3361  -13.7493   23.1393 O   0  0  0  0  0  0  0  0  0  0  0  0
    6.6660  -13.4429   18.4086 C   0  0  0  0  0  0  0  0  0  0  0  0
    6.5412  -13.6829   17.0476 C   0  0  0  0  0  0  0  0  0  0  0  0
    8.5258  -15.9580   22.6020 N   0  0  0  0  0  0  0  0  0  0  0  0
    8.1389  -16.4430   23.8864 C   0  0  1  0  0  0  0  0  0  0  0  0
    7.9876  -17.9439   23.8331 C   0  0  0  0  0  0  0  0  0  0  0  0
    7.5828  -18.5749   25.1226 C   0  0  0  0  0  0  0  0  0  0  0  0
    7.5668  -20.0818   25.0646 C   0  0  0  0  0  0  0  0  0  0  0  0
    6.9823  -20.6429   26.3422 C   0  0  0  0  0  0  0  0  0  0  0  0
    6.9914  -22.0906   26.2773 N   0  0  0  0  0  0  0  0  0  0  0  0
    9.1433  -16.1205   24.9399 C   0  0  0  0  0  0  0  0  0  0  0  0
   10.3578  -16.3893   24.7496 O   0  0  0  0  0  0  0  0  0  0  0  0
    9.3544  -12.6829   26.7339 C   0  0  0  0  0  0  0  0  0  0  0  0
    9.2959  -13.7961   27.7548 C   0  0  1  0  0  0  0  0  0  0  0  0
    7.9234  -13.9988   28.0275 O   0  0  0  0  0  0  0  0  0  0  0  0
    9.7909  -15.1007   27.1560 C   0  0  2  0  0  0  0  0  0  0  0  0
    8.7829  -15.5126   26.1703 N   0  0  0  0  0  0  0  0  0  0  0  0
    9.8559  -16.0892   28.2465 C   0  0  0  0  0  0  0  0  0  0  0  0
    9.0893  -17.0696   28.2442 O   0  0  0  0  0  0  0  0  0  0  0  0
   10.7619  -15.9324   29.2687 O   0  0  0  0  0  0  0  0  0  0  0  0
  2  1  1  0
  2  3  2  0
  4  3  1  0
  5  4  2  0
  6  5  1  0
  7  6  1  0
  7  8  1  6
  9  7  1  0
 10  9  2  0
 11 12  2  0
 11  5  1  0
 12  2  1  0
 13  9  1  0
 14 13  1  0
 15 16  1  0
 14 15  1  6
 16 17  1  0
 18 17  1  0
 19 18  1  0
 20 14  1  0
 20 21  2  0
 23 22  1  6
 24 23  1  0
 25 23  1  0
 25 26  1  6
 26 20  1  0
 27 25  1  0
 28 27  2  0
 29 27  1  0
M  END
$$$$
