YKT.pdb
     RDKit          3D

 29 29  0  0  1  0  0  0  0  0999 V2000
   10.0851  -14.0086   30.7883 O   0  0  0  0  0  0  0  0  0  0  0  0
   10.0673  -14.3413   29.4379 C   0  0  0  0  0  0  0  0  0  0  0  0
    9.3378  -13.6002   28.5327 C   0  0  0  0  0  0  0  0  0  0  0  0
    9.3040  -13.9081   27.1943 C   0  0  0  0  0  0  0  0  0  0  0  0
   10.0083  -14.9806   26.7163 C   0  0  0  0  0  0  0  0  0  0  0  0
    9.9673  -15.3038   25.2835 C   0  0  0  0  0  0  0  0  0  0  0  0
    8.6162  -15.9324   24.9939 C   0  0  2  0  0  0  0  0  0  0  0  0
    8.3961  -17.1228   25.7576 N   0  0  0  0  0  0  0  0  0  0  0  0
    8.5941  -16.2870   23.5469 C   0  0  0  0  0  0  0  0  0  0  0  0
    8.6075  -17.5025   23.1948 O   0  0  0  0  0  0  0  0  0  0  0  0
   10.7486  -15.7479   27.5771 C   0  0  0  0  0  0  0  0  0  0  0  0
   10.7643  -15.4135   28.9237 C   0  0  0  0  0  0  0  0  0  0  0  0
    8.5585  -15.3208   22.5309 N   0  0  0  0  0  0  0  0  0  0  0  0
    8.6718  -15.5983   21.1364 C   0  0  1  0  0  0  0  0  0  0  0  0
    8.2982  -14.3676   20.3461 C   0  0  0  0  0  0  0  0  0  0  0  0
    8.3229  -14.5472   18.8656 C   0  0  0  0  0  0  0  0  0  0  0  0
    7.8176  -13.3409   18.1148 C   0  0  0  0  0  0  0  0  0  0  0  0
    7.8965  -13.5883   16.6244 C   0  0  0  0  0  0  0  0  0  0  0  0
    7.3264  -12.4569   15.9206 N   0  0  0  0  0  0  0  0  0  0  0  0
   10.0567  -15.9900   20.7473 C   0  0  0  0  0  0  0  0  0  0  0  0
   11.0285  -15.2611   21.0753 O   0  0  0  0  0  0  0  0  0  0  0  0
   11.8262  -19.3674   21.4032 C   0  0  0  0  0  0  0  0  0  0  0  0
   11.7822  -19.0704   19.9217 C   0  0  1  0  0  0  0  0  0  0  0  0
   10.5546  -19.5970   19.4581 O   0  0  0  0  0  0  0  0  0  0  0  0
   11.7040  -17.5740   19.6759 C   0  0  2  0  0  0  0  0  0  0  0  0
   10.3318  -17.1707   20.0100 N   0  0  0  0  0  0  0  0  0  0  0  0
   11.9553  -17.3495   18.2417 C   0  0  0  0  0  0  0  0  0  0  0  0
   11.0006  -17.1753   17.4626 O   0  0  0  0  0  0  0  0  0  0  0  0
   13.2428  -17.3318   17.7599 O   0  0  0  0  0  0  0  0  0  0  0  0
  2  1  1  0
  2  3  2  0
  4  3  1  0
  5  4  2  0
  6  5  1  0
  7  6  1  0
  7  8  1  1
  9  7  1  0
 10  9  2  0
 11 12  2  0
 11  5  1  0
 12  2  1  0
 13  9  1  0
 14 13  1  0
 15 16  1  0
 14 15  1  6
 16 17  1  0
 18 17  1  0
 19 18  1  0
 20 14  1  0
 20 21  2  0
 23 22  1  1
 24 23  1  0
 25 23  1  0
 25 26  1  6
 26 20  1  0
 27 25  1  0
 28 27  2  0
 29 27  1  0
M  END
$$$$
