YKT.pdb
     RDKit          3D

 29 29  0  0  1  0  0  0  0  0999 V2000
   10.0214  -13.5646   30.8695 O   0  0  0  0  0  0  0  0  0  0  0  0
    9.8941  -14.1964   29.6369 C   0  0  0  0  0  0  0  0  0  0  0  0
   10.5571  -15.3756   29.3705 C   0  0  0  0  0  0  0  0  0  0  0  0
   10.4478  -16.0188   28.1616 C   0  0  0  0  0  0  0  0  0  0  0  0
    9.6616  -15.4942   27.1709 C   0  0  0  0  0  0  0  0  0  0  0  0
    9.5496  -16.1879   25.8804 C   0  0  0  0  0  0  0  0  0  0  0  0
    8.1173  -16.0352   25.4008 C   0  0  2  0  0  0  0  0  0  0  0  0
    7.2139  -16.8915   26.1074 N   0  0  0  0  0  0  0  0  0  0  0  0
    8.0918  -16.4068   23.9581 C   0  0  0  0  0  0  0  0  0  0  0  0
    8.2448  -17.6153   23.6150 O   0  0  0  0  0  0  0  0  0  0  0  0
    8.9826  -14.3239   27.3878 C   0  0  0  0  0  0  0  0  0  0  0  0
    9.1117  -13.6960   28.6185 C   0  0  0  0  0  0  0  0  0  0  0  0
    7.9027  -15.4645   22.9366 N   0  0  0  0  0  0  0  0  0  0  0  0
    8.2052  -15.6816   21.5597 C   0  0  1  0  0  0  0  0  0  0  0  0
    7.9677  -14.4080   20.7852 C   0  0  0  0  0  0  0  0  0  0  0  0
    8.1520  -14.5328   19.3103 C   0  0  0  0  0  0  0  0  0  0  0  0
    7.8190  -13.2658   18.5632 C   0  0  0  0  0  0  0  0  0  0  0  0
    7.8827  -13.5122   17.0719 C   0  0  0  0  0  0  0  0  0  0  0  0
    7.6829  -12.2597   16.3708 N   0  0  0  0  0  0  0  0  0  0  0  0
    9.6238  -16.0889   21.3487 C   0  0  0  0  0  0  0  0  0  0  0  0
   10.5389  -15.5351   22.0115 O   0  0  0  0  0  0  0  0  0  0  0  0
   12.6542  -19.5587   19.4705 C   0  0  0  0  0  0  0  0  0  0  0  0
   11.2803  -18.9494   19.6312 C   0  0  1  0  0  0  0  0  0  0  0  0
   10.5814  -19.8000   20.5185 O   0  0  0  0  0  0  0  0  0  0  0  0
   11.3671  -17.6068   20.3352 C   0  0  2  0  0  0  0  0  0  0  0  0
    9.9939  -17.0920   20.4160 N   0  0  0  0  0  0  0  0  0  0  0  0
   12.1844  -16.7186   19.4905 C   0  0  0  0  0  0  0  0  0  0  0  0
   11.7162  -16.2631   18.4311 O   0  0  0  0  0  0  0  0  0  0  0  0
   13.4648  -16.3903   19.8687 O   0  0  0  0  0  0  0  0  0  0  0  0
  2  1  1  0
  2  3  2  0
  4  3  1  0
  5  4  2  0
  6  5  1  0
  7  6  1  0
  7  8  1  1
  9  7  1  0
 10  9  2  0
 11 12  2  0
 11  5  1  0
 12  2  1  0
 13  9  1  0
 14 13  1  0
 15 16  1  0
 14 15  1  6
 16 17  1  0
 18 17  1  0
 19 18  1  0
 20 14  1  0
 20 21  2  0
 23 22  1  1
 24 23  1  0
 25 23  1  0
 25 26  1  6
 26 20  1  0
 27 25  1  0
 28 27  2  0
 29 27  1  0
M  END
$$$$
