YKT.pdb
     RDKit          3D

 29 29  0  0  1  0  0  0  0  0999 V2000
    8.0412  -12.7452   16.7982 O   0  0  0  0  0  0  0  0  0  0  0  0
    8.0242  -13.1734   18.1215 C   0  0  0  0  0  0  0  0  0  0  0  0
    9.1741  -13.6159   18.7403 C   0  0  0  0  0  0  0  0  0  0  0  0
    9.1835  -14.0438   20.0457 C   0  0  0  0  0  0  0  0  0  0  0  0
    8.0276  -14.0415   20.7796 C   0  0  0  0  0  0  0  0  0  0  0  0
    8.0455  -14.5007   22.1753 C   0  0  0  0  0  0  0  0  0  0  0  0
    8.0613  -16.0186   22.1583 C   0  0  2  0  0  0  0  0  0  0  0  0
    6.8314  -16.5691   21.6756 N   0  0  0  0  0  0  0  0  0  0  0  0
    8.2660  -16.4748   23.5619 C   0  0  0  0  0  0  0  0  0  0  0  0
    7.4849  -16.0773   24.4748 O   0  0  0  0  0  0  0  0  0  0  0  0
    6.8588  -13.6107   20.2086 C   0  0  0  0  0  0  0  0  0  0  0  0
    6.8790  -13.1841   18.8883 C   0  0  0  0  0  0  0  0  0  0  0  0
    9.3040  -17.3422   23.9325 N   0  0  0  0  0  0  0  0  0  0  0  0
    9.5556  -17.7926   25.2623 C   0  0  1  0  0  0  0  0  0  0  0  0
   10.3134  -19.0972   25.2171 C   0  0  0  0  0  0  0  0  0  0  0  0
    9.5865  -20.2166   24.5513 C   0  0  0  0  0  0  0  0  0  0  0  0
   10.4469  -21.4366   24.3377 C   0  0  0  0  0  0  0  0  0  0  0  0
    9.6953  -22.4634   23.5195 C   0  0  0  0  0  0  0  0  0  0  0  0
   10.5114  -23.6525   23.3771 N   0  0  0  0  0  0  0  0  0  0  0  0
   10.3668  -16.8181   26.0466 C   0  0  0  0  0  0  0  0  0  0  0  0
   11.2222  -16.1033   25.4629 O   0  0  0  0  0  0  0  0  0  0  0  0
    9.8652  -13.7581   27.1016 C   0  0  0  0  0  0  0  0  0  0  0  0
   10.1063  -14.4722   28.4119 C   0  0  1  0  0  0  0  0  0  0  0  0
    8.8515  -14.9914   28.8058 O   0  0  0  0  0  0  0  0  0  0  0  0
   11.0030  -15.6805   28.2080 C   0  0  2  0  0  0  0  0  0  0  0  0
   10.2135  -16.6586   27.4482 N   0  0  0  0  0  0  0  0  0  0  0  0
   11.3211  -16.2227   29.5404 C   0  0  0  0  0  0  0  0  0  0  0  0
   12.0364  -15.5708   30.3229 O   0  0  0  0  0  0  0  0  0  0  0  0
   10.8299  -17.4483   29.9234 O   0  0  0  0  0  0  0  0  0  0  0  0
  2  1  1  0
  2  3  2  0
  4  3  1  0
  5  4  2  0
  6  5  1  0
  7  6  1  0
  7  8  1  1
  9  7  1  0
 10  9  2  0
 11 12  2  0
 11  5  1  0
 12  2  1  0
 13  9  1  0
 14 13  1  0
 15 16  1  0
 14 15  1  6
 16 17  1  0
 18 17  1  0
 19 18  1  0
 20 14  1  0
 20 21  2  0
 23 22  1  6
 24 23  1  0
 25 23  1  0
 25 26  1  6
 26 20  1  0
 27 25  1  0
 28 27  2  0
 29 27  1  0
M  END
$$$$
