TRE.pdb
     RDKit          3D

 28 27  0  0  1  0  0  0  0  0999 V2000
   24.0446  -10.4424  -14.4171 C   0  0  0  0  0  0  0  0  0  0  0  0
   24.7252  -10.7134  -15.7204 C   0  0  1  0  0  0  0  0  0  0  0  0
   25.9443  -11.3419  -15.4714 O   0  0  0  0  0  0  0  0  0  0  0  0
   23.8664  -11.4826  -16.6905 C   0  0  2  0  0  0  0  0  0  0  0  0
   24.6543  -11.7122  -17.8805 N   0  0  0  0  0  0  0  0  0  0  0  0
   22.6012  -10.8000  -17.0202 C   0  0  0  0  0  0  0  0  0  0  0  0
   22.6414   -9.7460  -17.7233 O   0  0  0  0  0  0  0  0  0  0  0  0
   15.1879  -14.5524  -16.6878 N   0  0  0  0  0  0  0  0  0  0  0  0
   16.1765  -14.1570  -15.7504 C   0  0  0  0  0  0  0  0  0  0  0  0
   16.3337  -14.7779  -14.6389 N   0  0  0  0  0  0  0  0  0  0  0  0
   17.0432  -13.0411  -16.0110 N   0  0  0  0  0  0  0  0  0  0  0  0
   16.5362  -11.8808  -16.7080 C   0  0  0  0  0  0  0  0  0  0  0  0
   17.6282  -10.8181  -16.8467 C   0  0  0  0  0  0  0  0  0  0  0  0
   18.9687  -11.4758  -16.5471 C   0  0  0  0  0  0  0  0  0  0  0  0
   20.1026  -10.5131  -16.8367 C   0  0  2  0  0  0  0  0  0  0  0  0
   21.3330  -11.2434  -16.6026 N   0  0  0  0  0  0  0  0  0  0  0  0
   19.9730   -9.3305  -15.9784 C   0  0  0  0  0  0  0  0  0  0  0  0
   20.3734   -9.3628  -14.7890 O   0  0  0  0  0  0  0  0  0  0  0  0
   17.0820  -14.4847  -13.9904 N   0  0  0  0  0  0  0  0  0  0  0  0
   19.3989   -8.1190  -16.4481 C   0  0  1  0  0  0  0  0  0  0  0  0
   19.3974   -6.9219  -15.5845 C   0  0  0  0  0  0  0  0  0  0  0  0
   20.8148   -6.4737  -15.4072 C   0  0  0  0  0  0  0  0  0  0  0  0
   20.9937   -5.2184  -14.6191 C   0  0  0  0  0  0  0  0  0  0  0  0
   22.3610   -4.7225  -14.5095 O   0  0  0  0  0  0  0  0  0  0  0  0
   23.3161   -5.3091  -15.0585 C   0  0  0  0  0  0  0  0  0  0  0  0
   18.5019   -5.8939  -16.1604 O   0  0  0  0  0  0  0  0  0  0  0  0
   18.1245   -4.7757  -15.3953 O   0  0  0  0  0  0  0  0  0  0  0  0
   22.6179   -3.5753  -13.7822 O   0  0  0  0  0  0  0  0  0  0  0  0
  2  1  1  1
  2  3  1  0
  4  2  1  0
  4  6  1  0
  4  5  1  6
  6  7  2  0
  9 10  2  0
  9  8  1  0
 11  9  1  0
 12 11  1  0
 13 12  1  0
 14 13  1  0
 15 14  1  1
 16  6  1  0
 16 15  1  0
 17 15  1  0
 17 19  1  0
 18 17  2  0
 20 19  1  0
 20 21  1  1
 21 22  1  0
 22 23  1  0
 23 24  2  0
 23 27  1  0
 25 26  1  0
 25 20  1  0
 28 25  2  0
M  END
$$$$
