TRE.pdb
     RDKit          3D

 28 27  0  0  1  0  0  0  0  0999 V2000
   25.4807  -21.6761   -9.7549 C   0  0  0  0  0  0  0  0  0  0  0  0
   25.1232  -20.7702  -10.8893 C   0  0  1  0  0  0  0  0  0  0  0  0
   26.2795  -20.4658  -11.6059 O   0  0  0  0  0  0  0  0  0  0  0  0
   24.0281  -21.3198  -11.7662 C   0  0  2  0  0  0  0  0  0  0  0  0
   24.5126  -22.5527  -12.3447 N   0  0  0  0  0  0  0  0  0  0  0  0
   23.5933  -20.3803  -12.8167 C   0  0  0  0  0  0  0  0  0  0  0  0
   22.8755  -19.3881  -12.4895 O   0  0  0  0  0  0  0  0  0  0  0  0
   29.0372  -20.7432  -16.5725 N   0  0  0  0  0  0  0  0  0  0  0  0
   28.4738  -22.0258  -16.7954 C   0  0  0  0  0  0  0  0  0  0  0  0
   29.1435  -23.0991  -16.5827 N   0  0  0  0  0  0  0  0  0  0  0  0
   27.1257  -22.1728  -17.2701 N   0  0  0  0  0  0  0  0  0  0  0  0
   26.2668  -21.0147  -17.3741 C   0  0  0  0  0  0  0  0  0  0  0  0
   25.3303  -20.9306  -16.1672 C   0  0  0  0  0  0  0  0  0  0  0  0
   24.3804  -19.7606  -16.3865 C   0  0  0  0  0  0  0  0  0  0  0  0
   23.4206  -19.6374  -15.2204 C   0  0  2  0  0  0  0  0  0  0  0  0
   23.9245  -20.5100  -14.1780 N   0  0  0  0  0  0  0  0  0  0  0  0
   22.0681  -19.9995  -15.6582 C   0  0  0  0  0  0  0  0  0  0  0  0
   21.6659  -21.1848  -15.5618 O   0  0  0  0  0  0  0  0  0  0  0  0
   28.7203  -24.0169  -16.7950 N   0  0  0  0  0  0  0  0  0  0  0  0
   21.1709  -19.0410  -16.2008 C   0  0  1  0  0  0  0  0  0  0  0  0
   19.7247  -19.3325  -16.2511 C   0  0  0  0  0  0  0  0  0  0  0  0
   19.2503  -19.5792  -14.8528 C   0  0  0  0  0  0  0  0  0  0  0  0
   18.0748  -20.4912  -14.7288 C   0  0  0  0  0  0  0  0  0  0  0  0
   17.6151  -20.7597  -13.3709 O   0  0  0  0  0  0  0  0  0  0  0  0
   18.1848  -20.2644  -12.3770 C   0  0  0  0  0  0  0  0  0  0  0  0
   19.0195  -18.2334  -16.9476 O   0  0  0  0  0  0  0  0  0  0  0  0
   17.8169  -18.4860  -17.6317 O   0  0  0  0  0  0  0  0  0  0  0  0
   16.5223  -21.5815  -13.1670 O   0  0  0  0  0  0  0  0  0  0  0  0
  2  1  1  1
  2  3  1  0
  4  2  1  0
  4  6  1  0
  4  5  1  6
  6  7  2  0
  9 10  2  0
  9  8  1  0
 11  9  1  0
 12 11  1  0
 13 12  1  0
 14 13  1  0
 15 14  1  6
 16  6  1  0
 16 15  1  0
 17 15  1  0
 17 19  1  0
 18 17  2  0
 20 19  1  0
 20 21  1  6
 21 22  1  0
 22 23  1  0
 23 24  2  0
 23 27  1  0
 25 26  1  0
 25 20  1  0
 28 25  2  0
M  END
$$$$
