TRE.pdb
     RDKit          3D

 28 27  0  0  1  0  0  0  0  0999 V2000
   18.5154  -10.1713  -16.4033 C   0  0  0  0  0  0  0  0  0  0  0  0
   18.8216  -10.7817  -15.0733 C   0  0  1  0  0  0  0  0  0  0  0  0
   19.6602   -9.9229  -14.3644 O   0  0  0  0  0  0  0  0  0  0  0  0
   17.5881  -11.1579  -14.2941 C   0  0  2  0  0  0  0  0  0  0  0  0
   16.8850  -12.1665  -15.0543 N   0  0  0  0  0  0  0  0  0  0  0  0
   16.7086  -10.0106  -14.0015 C   0  0  0  0  0  0  0  0  0  0  0  0
   15.9200   -9.5998  -14.9049 O   0  0  0  0  0  0  0  0  0  0  0  0
   13.6496   -9.7996   -7.5595 N   0  0  0  0  0  0  0  0  0  0  0  0
   12.6161   -9.5532   -8.4995 C   0  0  0  0  0  0  0  0  0  0  0  0
   11.6251  -10.3568   -8.6333 N   0  0  0  0  0  0  0  0  0  0  0  0
   12.6398   -8.3893   -9.3416 N   0  0  0  0  0  0  0  0  0  0  0  0
   13.7942   -7.5192   -9.3380 C   0  0  0  0  0  0  0  0  0  0  0  0
   14.2931   -7.2832  -10.7650 C   0  0  0  0  0  0  0  0  0  0  0  0
   15.3618   -8.3242  -11.0704 C   0  0  0  0  0  0  0  0  0  0  0  0
   15.8438   -8.1787  -12.4997 C   0  0  2  0  0  0  0  0  0  0  0  0
   16.6831   -9.3294  -12.7707 N   0  0  0  0  0  0  0  0  0  0  0  0
   16.5599   -6.9070  -12.6486 C   0  0  0  0  0  0  0  0  0  0  0  0
   17.6387   -6.7109  -12.0373 O   0  0  0  0  0  0  0  0  0  0  0  0
   10.9203  -10.1823   -9.3677 N   0  0  0  0  0  0  0  0  0  0  0  0
   16.0717   -5.8610  -13.4766 C   0  0  2  0  0  0  0  0  0  0  0  0
   16.8872   -4.6491  -13.6890 C   0  0  0  0  0  0  0  0  0  0  0  0
   17.5703   -4.7738  -15.0153 C   0  0  0  0  0  0  0  0  0  0  0  0
   18.3926   -3.5965  -15.4233 C   0  0  0  0  0  0  0  0  0  0  0  0
   19.0794   -3.7104  -16.7050 O   0  0  0  0  0  0  0  0  0  0  0  0
   19.6793   -2.7418  -17.2145 C   0  0  0  0  0  0  0  0  0  0  0  0
   16.0355   -3.4462  -13.5542 O   0  0  0  0  0  0  0  0  0  0  0  0
   16.6142   -2.1996  -13.2557 O   0  0  0  0  0  0  0  0  0  0  0  0
   19.0727   -4.9159  -17.3816 O   0  0  0  0  0  0  0  0  0  0  0  0
  2  1  1  6
  2  3  1  0
  4  2  1  0
  4  6  1  0
  4  5  1  6
  6  7  2  0
  9 10  2  0
  9  8  1  0
 11  9  1  0
 12 11  1  0
 13 12  1  0
 14 13  1  0
 15 14  1  1
 16  6  1  0
 16 15  1  0
 17 15  1  0
 17 19  1  0
 18 17  2  0
 20 19  1  0
 20 21  1  6
 21 22  1  0
 22 23  1  0
 23 24  2  0
 23 27  1  0
 25 26  1  0
 25 20  1  0
 28 25  2  0
M  END
$$$$
