TRE.pdb
     RDKit          3D

 28 27  0  0  1  0  0  0  0  0999 V2000
   16.0307   -4.7427   -7.4946 C   0  0  0  0  0  0  0  0  0  0  0  0
   14.7244   -5.2567   -8.0091 C   0  0  1  0  0  0  0  0  0  0  0  0
   13.7118   -4.3766   -7.6300 O   0  0  0  0  0  0  0  0  0  0  0  0
   14.7331   -5.5227   -9.4921 C   0  0  2  0  0  0  0  0  0  0  0  0
   13.4217   -6.0120   -9.8532 N   0  0  0  0  0  0  0  0  0  0  0  0
   15.7825   -6.4711   -9.9100 C   0  0  0  0  0  0  0  0  0  0  0  0
   16.9973   -6.1510   -9.7406 O   0  0  0  0  0  0  0  0  0  0  0  0
   15.0890  -14.5719  -13.6146 N   0  0  0  0  0  0  0  0  0  0  0  0
   16.4817  -14.3042  -13.5832 C   0  0  0  0  0  0  0  0  0  0  0  0
   17.3427  -15.1867  -13.9375 N   0  0  0  0  0  0  0  0  0  0  0  0
   16.9836  -13.0291  -13.1512 N   0  0  0  0  0  0  0  0  0  0  0  0
   16.0757  -12.0396  -12.6166 C   0  0  0  0  0  0  0  0  0  0  0  0
   16.8438  -10.7985  -12.1576 C   0  0  0  0  0  0  0  0  0  0  0  0
   15.8334   -9.7776  -11.6513 C   0  0  0  0  0  0  0  0  0  0  0  0
   16.5482   -8.5699  -11.0796 C   0  0  2  0  0  0  0  0  0  0  0  0
   15.5260   -7.7258  -10.4925 N   0  0  0  0  0  0  0  0  0  0  0  0
   17.2984   -7.8948  -12.1443 C   0  0  0  0  0  0  0  0  0  0  0  0
   16.7299   -7.0601  -12.8900 O   0  0  0  0  0  0  0  0  0  0  0  0
   18.3453  -14.9407  -13.9667 N   0  0  0  0  0  0  0  0  0  0  0  0
   18.6766   -8.1520  -12.3731 C   0  0  2  0  0  0  0  0  0  0  0  0
   19.4035   -7.3971  -13.4126 C   0  0  0  0  0  0  0  0  0  0  0  0
   19.4873   -5.9672  -12.9772 C   0  0  0  0  0  0  0  0  0  0  0  0
   20.3640   -5.0952  -13.8137 C   0  0  0  0  0  0  0  0  0  0  0  0
   20.4842   -3.7075  -13.3811 O   0  0  0  0  0  0  0  0  0  0  0  0
   21.5858   -3.1211  -13.3614 C   0  0  0  0  0  0  0  0  0  0  0  0
   20.7154   -8.0341  -13.6645 O   0  0  0  0  0  0  0  0  0  0  0  0
   21.4609   -7.6906  -14.8065 O   0  0  0  0  0  0  0  0  0  0  0  0
   19.3573   -3.0141  -12.9807 O   0  0  0  0  0  0  0  0  0  0  0  0
  2  1  1  6
  2  3  1  0
  4  2  1  0
  4  6  1  0
  4  5  1  1
  6  7  2  0
  9 10  2  0
  9  8  1  0
 11  9  1  0
 12 11  1  0
 13 12  1  0
 14 13  1  0
 15 14  1  6
 16  6  1  0
 16 15  1  0
 17 15  1  0
 17 19  1  0
 18 17  2  0
 20 19  1  0
 20 21  1  1
 21 22  1  0
 22 23  1  0
 23 24  2  0
 23 27  1  0
 25 26  1  0
 25 20  1  0
 28 25  2  0
M  END
$$$$
