TRE.pdb
     RDKit          3D

 28 27  0  0  1  0  0  0  0  0999 V2000
   26.8203  -11.1526  -15.0747 C   0  0  0  0  0  0  0  0  0  0  0  0
   26.9212  -11.8561  -16.3900 C   0  0  1  0  0  0  0  0  0  0  0  0
   28.0083  -12.7281  -16.3538 O   0  0  0  0  0  0  0  0  0  0  0  0
   25.6431  -12.5432  -16.7960 C   0  0  2  0  0  0  0  0  0  0  0  0
   25.9022  -13.2477  -18.0313 N   0  0  0  0  0  0  0  0  0  0  0  0
   24.5042  -11.6182  -16.9462 C   0  0  0  0  0  0  0  0  0  0  0  0
   24.3848  -10.9673  -18.0274 O   0  0  0  0  0  0  0  0  0  0  0  0
   16.1877  -12.3339  -14.4657 N   0  0  0  0  0  0  0  0  0  0  0  0
   16.2388  -11.0948  -15.1545 C   0  0  0  0  0  0  0  0  0  0  0  0
   15.1730  -10.4370  -15.4323 N   0  0  0  0  0  0  0  0  0  0  0  0
   17.4916  -10.5267  -15.5694 N   0  0  0  0  0  0  0  0  0  0  0  0
   18.7260  -11.2313  -15.3064 C   0  0  0  0  0  0  0  0  0  0  0  0
   19.9247  -10.4145  -15.7933 C   0  0  0  0  0  0  0  0  0  0  0  0
   21.1739  -11.2725  -15.6426 C   0  0  0  0  0  0  0  0  0  0  0  0
   22.3945  -10.5114  -16.1193 C   0  0  2  0  0  0  0  0  0  0  0  0
   23.5255  -11.4041  -15.9583 N   0  0  0  0  0  0  0  0  0  0  0  0
   22.5343   -9.2738  -15.3441 C   0  0  0  0  0  0  0  0  0  0  0  0
   22.9100   -9.3138  -14.1469 O   0  0  0  0  0  0  0  0  0  0  0  0
   15.2405   -9.5545  -15.9644 N   0  0  0  0  0  0  0  0  0  0  0  0
   22.2553   -7.9989  -15.9052 C   0  0  2  0  0  0  0  0  0  0  0  0
   22.4756   -6.7784  -15.1047 C   0  0  0  0  0  0  0  0  0  0  0  0
   22.3106   -5.5943  -16.0058 C   0  0  0  0  0  0  0  0  0  0  0  0
   22.5104   -4.2649  -15.3565 C   0  0  0  0  0  0  0  0  0  0  0  0
   22.3009   -3.0998  -16.2086 O   0  0  0  0  0  0  0  0  0  0  0  0
   21.1576   -2.6581  -16.4440 C   0  0  0  0  0  0  0  0  0  0  0  0
   21.5714   -6.7817  -13.9331 O   0  0  0  0  0  0  0  0  0  0  0  0
   22.0264   -6.3141  -12.6871 O   0  0  0  0  0  0  0  0  0  0  0  0
   23.3879   -2.4606  -16.7753 O   0  0  0  0  0  0  0  0  0  0  0  0
  2  1  1  1
  2  3  1  0
  4  2  1  0
  4  6  1  0
  4  5  1  6
  6  7  2  0
  9 10  2  0
  9  8  1  0
 11  9  1  0
 12 11  1  0
 13 12  1  0
 14 13  1  0
 15 14  1  1
 16  6  1  0
 16 15  1  0
 17 15  1  0
 17 19  1  0
 18 17  2  0
 20 19  1  0
 20 21  1  6
 21 22  1  0
 22 23  1  0
 23 24  2  0
 23 27  1  0
 25 26  1  0
 25 20  1  0
 28 25  2  0
M  END
$$$$
