TRE.pdb
     RDKit          3D

 28 27  0  0  1  0  0  0  0  0999 V2000
   15.5287   -6.4445  -16.7506 C   0  0  0  0  0  0  0  0  0  0  0  0
   14.7338   -7.4119  -15.9336 C   0  0  1  0  0  0  0  0  0  0  0  0
   13.4182   -7.4184  -16.3946 O   0  0  0  0  0  0  0  0  0  0  0  0
   15.3380   -8.7916  -15.8921 C   0  0  2  0  0  0  0  0  0  0  0  0
   14.4595   -9.6269  -15.1048 N   0  0  0  0  0  0  0  0  0  0  0  0
   16.7099   -8.8132  -15.3510 C   0  0  0  0  0  0  0  0  0  0  0  0
   16.8840   -8.5730  -14.1186 O   0  0  0  0  0  0  0  0  0  0  0  0
   21.7972  -14.7712  -17.6530 N   0  0  0  0  0  0  0  0  0  0  0  0
   20.7151  -14.9123  -16.7466 C   0  0  0  0  0  0  0  0  0  0  0  0
   20.2246  -16.0629  -16.4613 N   0  0  0  0  0  0  0  0  0  0  0  0
   20.1244  -13.7673  -16.1109 N   0  0  0  0  0  0  0  0  0  0  0  0
   20.4681  -12.4363  -16.5577 C   0  0  0  0  0  0  0  0  0  0  0  0
   19.7359  -11.3838  -15.7227 C   0  0  0  0  0  0  0  0  0  0  0  0
   20.0350  -10.0150  -16.3195 C   0  0  0  0  0  0  0  0  0  0  0  0
   19.2131   -8.9480  -15.6249 C   0  0  2  0  0  0  0  0  0  0  0  0
   17.8570   -9.0860  -16.1187 N   0  0  0  0  0  0  0  0  0  0  0  0
   19.7869   -7.6272  -15.9052 C   0  0  0  0  0  0  0  0  0  0  0  0
   19.8512   -7.2004  -17.0840 O   0  0  0  0  0  0  0  0  0  0  0  0
   19.3880  -16.1274  -15.8591 N   0  0  0  0  0  0  0  0  0  0  0  0
   20.2857   -6.7890  -14.8724 C   0  0  1  0  0  0  0  0  0  0  0  0
   20.7868   -5.4392  -15.1977 C   0  0  0  0  0  0  0  0  0  0  0  0
   19.7977   -4.4391  -14.6852 C   0  0  0  0  0  0  0  0  0  0  0  0
   20.2075   -3.0097  -14.8180 C   0  0  0  0  0  0  0  0  0  0  0  0
   19.2476   -2.0226  -14.3368 O   0  0  0  0  0  0  0  0  0  0  0  0
   19.5089   -0.8022  -14.3350 C   0  0  0  0  0  0  0  0  0  0  0  0
   22.1550   -5.2729  -14.6584 O   0  0  0  0  0  0  0  0  0  0  0  0
   23.0415   -4.3549  -15.2495 O   0  0  0  0  0  0  0  0  0  0  0  0
   18.0145   -2.4369  -13.8688 O   0  0  0  0  0  0  0  0  0  0  0  0
  2  1  1  6
  2  3  1  0
  4  2  1  0
  4  6  1  0
  4  5  1  1
  6  7  2  0
  9 10  2  0
  9  8  1  0
 11  9  1  0
 12 11  1  0
 13 12  1  0
 14 13  1  0
 15 14  1  6
 16  6  1  0
 16 15  1  0
 17 15  1  0
 17 19  1  0
 18 17  2  0
 20 19  1  0
 20 21  1  6
 21 22  1  0
 22 23  1  0
 23 24  2  0
 23 27  1  0
 25 26  1  0
 25 20  1  0
 28 25  2  0
M  END
$$$$
