TRE.pdb
     RDKit          3D

 28 27  0  0  1  0  0  0  0  0999 V2000
   24.4828  -16.1070  -15.2083 C   0  0  0  0  0  0  0  0  0  0  0  0
   23.7369  -14.8485  -15.5164 C   0  0  1  0  0  0  0  0  0  0  0  0
   23.4921  -14.1655  -14.3260 O   0  0  0  0  0  0  0  0  0  0  0  0
   24.4228  -13.9878  -16.5454 C   0  0  2  0  0  0  0  0  0  0  0  0
   25.7500  -13.6959  -16.0525 N   0  0  0  0  0  0  0  0  0  0  0  0
   23.6895  -12.7452  -16.8512 C   0  0  0  0  0  0  0  0  0  0  0  0
   24.2538  -11.6324  -16.6274 O   0  0  0  0  0  0  0  0  0  0  0  0
   16.7424  -12.1028  -21.9965 N   0  0  0  0  0  0  0  0  0  0  0  0
   17.9797  -11.5314  -22.3899 C   0  0  0  0  0  0  0  0  0  0  0  0
   18.2933  -11.3960  -23.6265 N   0  0  0  0  0  0  0  0  0  0  0  0
   18.9334  -11.0805  -21.4145 N   0  0  0  0  0  0  0  0  0  0  0  0
   18.6178  -11.1600  -20.0061 C   0  0  0  0  0  0  0  0  0  0  0  0
   19.8007  -10.6797  -19.1628 C   0  0  0  0  0  0  0  0  0  0  0  0
   20.5663  -11.9049  -18.6813 C   0  0  0  0  0  0  0  0  0  0  0  0
   21.7089  -11.4885  -17.7771 C   0  0  2  0  0  0  0  0  0  0  0  0
   22.3872  -12.7076  -17.3824 N   0  0  0  0  0  0  0  0  0  0  0  0
   21.1802  -10.7379  -16.6329 C   0  0  0  0  0  0  0  0  0  0  0  0
   20.6097  -11.3379  -15.6892 O   0  0  0  0  0  0  0  0  0  0  0  0
   19.1943  -10.9603  -23.8812 N   0  0  0  0  0  0  0  0  0  0  0  0
   21.2891   -9.3242  -16.5452 C   0  0  2  0  0  0  0  0  0  0  0  0
   20.7558   -8.6169  -15.3645 C   0  0  0  0  0  0  0  0  0  0  0  0
   21.7824   -7.6255  -14.9123 C   0  0  0  0  0  0  0  0  0  0  0  0
   21.6224   -6.2458  -15.4596 C   0  0  0  0  0  0  0  0  0  0  0  0
   22.1687   -5.1675  -14.6434 O   0  0  0  0  0  0  0  0  0  0  0  0
   22.6400   -5.3807  -13.5075 C   0  0  0  0  0  0  0  0  0  0  0  0
   19.4401   -8.0235  -15.6922 O   0  0  0  0  0  0  0  0  0  0  0  0
   18.5137   -7.7488  -14.6702 O   0  0  0  0  0  0  0  0  0  0  0  0
   22.1701   -3.8732  -15.1291 O   0  0  0  0  0  0  0  0  0  0  0  0
  2  1  1  1
  2  3  1  0
  4  2  1  0
  4  6  1  0
  4  5  1  1
  6  7  2  0
  9 10  2  0
  9  8  1  0
 11  9  1  0
 12 11  1  0
 13 12  1  0
 14 13  1  0
 15 14  1  6
 16  6  1  0
 16 15  1  0
 17 15  1  0
 17 19  1  0
 18 17  2  0
 20 19  1  0
 20 21  1  6
 21 22  1  0
 22 23  1  0
 23 24  2  0
 23 27  1  0
 25 26  1  0
 25 20  1  0
 28 25  2  0
M  END
$$$$
