TRE.pdb
     RDKit          3D

 28 27  0  0  1  0  0  0  0  0999 V2000
   20.0153  -10.9140  -14.3299 C   0  0  0  0  0  0  0  0  0  0  0  0
   18.9689  -11.6172  -15.1335 C   0  0  1  0  0  0  0  0  0  0  0  0
   19.4952  -12.8173  -15.6091 O   0  0  0  0  0  0  0  0  0  0  0  0
   17.6752  -11.8101  -14.3856 C   0  0  2  0  0  0  0  0  0  0  0  0
   16.7896  -12.5702  -15.2386 N   0  0  0  0  0  0  0  0  0  0  0  0
   17.0460  -10.5429  -13.9691 C   0  0  0  0  0  0  0  0  0  0  0  0
   16.4869   -9.8209  -14.8483 O   0  0  0  0  0  0  0  0  0  0  0  0
   11.6277   -9.2176  -10.5321 N   0  0  0  0  0  0  0  0  0  0  0  0
   11.7980  -10.5112   -9.9754 C   0  0  0  0  0  0  0  0  0  0  0  0
   10.8407  -11.3651   -9.9572 N   0  0  0  0  0  0  0  0  0  0  0  0
   13.0542  -10.9164   -9.4080 N   0  0  0  0  0  0  0  0  0  0  0  0
   14.1854  -10.0172   -9.4428 C   0  0  0  0  0  0  0  0  0  0  0  0
   14.6356   -9.7762  -10.8851 C   0  0  0  0  0  0  0  0  0  0  0  0
   15.9248   -8.9663  -10.8488 C   0  0  0  0  0  0  0  0  0  0  0  0
   16.4733   -8.7887  -12.2503 C   0  0  2  0  0  0  0  0  0  0  0  0
   17.0222  -10.0717  -12.6436 N   0  0  0  0  0  0  0  0  0  0  0  0
   17.4764   -7.7182  -12.2523 C   0  0  0  0  0  0  0  0  0  0  0  0
   18.3446   -7.6605  -11.3474 O   0  0  0  0  0  0  0  0  0  0  0  0
   11.0055  -12.3105   -9.5755 N   0  0  0  0  0  0  0  0  0  0  0  0
   17.5078   -6.7182  -13.2607 C   0  0  1  0  0  0  0  0  0  0  0  0
   18.5835   -5.7075  -13.2618 C   0  0  0  0  0  0  0  0  0  0  0  0
   19.7023   -6.2187  -14.1152 C   0  0  0  0  0  0  0  0  0  0  0  0
   20.8787   -5.3079  -14.2389 C   0  0  0  0  0  0  0  0  0  0  0  0
   21.9140   -5.7257  -15.1774 O   0  0  0  0  0  0  0  0  0  0  0  0
   21.8370   -6.8052  -15.7991 C   0  0  0  0  0  0  0  0  0  0  0  0
   18.0382   -4.4008  -13.6924 O   0  0  0  0  0  0  0  0  0  0  0  0
   18.7669   -3.2199  -13.4629 O   0  0  0  0  0  0  0  0  0  0  0  0
   23.0127   -4.9145  -15.3920 O   0  0  0  0  0  0  0  0  0  0  0  0
  2  1  1  1
  2  3  1  0
  4  2  1  0
  4  6  1  0
  4  5  1  6
  6  7  2  0
  9 10  2  0
  9  8  1  0
 11  9  1  0
 12 11  1  0
 13 12  1  0
 14 13  1  0
 15 14  1  1
 16  6  1  0
 16 15  1  0
 17 15  1  0
 17 19  1  0
 18 17  2  0
 20 19  1  0
 20 21  1  1
 21 22  1  0
 22 23  1  0
 23 24  2  0
 23 27  1  0
 25 26  1  0
 25 20  1  0
 28 25  2  0
M  END
$$$$
