TRE.pdb
     RDKit          3D

 28 27  0  0  1  0  0  0  0  0999 V2000
   26.0929  -23.7923  -19.0744 C   0  0  0  0  0  0  0  0  0  0  0  0
   27.1841  -23.0651  -18.3562 C   0  0  1  0  0  0  0  0  0  0  0  0
   28.4141  -23.4808  -18.8637 O   0  0  0  0  0  0  0  0  0  0  0  0
   27.0220  -21.5675  -18.3893 C   0  0  2  0  0  0  0  0  0  0  0  0
   28.1808  -20.9909  -17.7457 N   0  0  0  0  0  0  0  0  0  0  0  0
   25.7776  -21.0996  -17.7507 C   0  0  0  0  0  0  0  0  0  0  0  0
   25.6126  -21.3060  -16.5109 O   0  0  0  0  0  0  0  0  0  0  0  0
   21.6676  -15.9258  -17.0319 N   0  0  0  0  0  0  0  0  0  0  0  0
   22.4549  -14.9395  -17.6797 C   0  0  0  0  0  0  0  0  0  0  0  0
   22.5220  -13.7373  -17.2372 N   0  0  0  0  0  0  0  0  0  0  0  0
   23.2106  -15.2505  -18.8615 N   0  0  0  0  0  0  0  0  0  0  0  0
   23.1267  -16.5702  -19.4454 C   0  0  0  0  0  0  0  0  0  0  0  0
   23.7051  -17.6172  -18.4913 C   0  0  0  0  0  0  0  0  0  0  0  0
   22.9320  -18.9145  -18.6883 C   0  0  0  0  0  0  0  0  0  0  0  0
   23.5057  -20.0067  -17.8084 C   0  0  2  0  0  0  0  0  0  0  0  0
   24.7445  -20.4297  -18.4315 N   0  0  0  0  0  0  0  0  0  0  0  0
   22.5326  -21.0973  -17.6833 C   0  0  0  0  0  0  0  0  0  0  0  0
   22.3838  -21.9250  -18.6154 O   0  0  0  0  0  0  0  0  0  0  0  0
   23.0790  -13.0340  -17.7487 N   0  0  0  0  0  0  0  0  0  0  0  0
   21.7308  -21.2610  -16.5221 C   0  0  2  0  0  0  0  0  0  0  0  0
   20.8351  -22.4284  -16.4048 C   0  0  0  0  0  0  0  0  0  0  0  0
   20.3685  -22.5167  -14.9850 C   0  0  0  0  0  0  0  0  0  0  0  0
   18.8955  -22.3757  -14.7869 C   0  0  0  0  0  0  0  0  0  0  0  0
   18.4286  -22.4300  -13.4062 O   0  0  0  0  0  0  0  0  0  0  0  0
   19.2256  -22.4457  -12.4458 C   0  0  0  0  0  0  0  0  0  0  0  0
   19.7434  -22.3198  -17.3981 O   0  0  0  0  0  0  0  0  0  0  0  0
   19.1919  -23.4791  -17.9726 O   0  0  0  0  0  0  0  0  0  0  0  0
   17.0721  -22.4655  -13.1421 O   0  0  0  0  0  0  0  0  0  0  0  0
  2  1  1  6
  2  3  1  0
  4  2  1  0
  4  6  1  0
  4  5  1  1
  6  7  2  0
  9 10  2  0
  9  8  1  0
 11  9  1  0
 12 11  1  0
 13 12  1  0
 14 13  1  0
 15 14  1  6
 16  6  1  0
 16 15  1  0
 17 15  1  0
 17 19  1  0
 18 17  2  0
 20 19  1  0
 20 21  1  1
 21 22  1  0
 22 23  1  0
 23 24  2  0
 23 27  1  0
 25 26  1  0
 25 20  1  0
 28 25  2  0
M  END
$$$$
