TRE.pdb
     RDKit          3D

 28 27  0  0  1  0  0  0  0  0999 V2000
   23.9006  -22.3863  -18.6213 C   0  0  0  0  0  0  0  0  0  0  0  0
   25.2130  -22.5467  -17.9234 C   0  0  1  0  0  0  0  0  0  0  0  0
   26.0069  -23.4313  -18.6518 O   0  0  0  0  0  0  0  0  0  0  0  0
   25.9064  -21.2365  -17.6533 C   0  0  2  0  0  0  0  0  0  0  0  0
   27.1633  -21.5359  -17.0053 N   0  0  0  0  0  0  0  0  0  0  0  0
   25.1024  -20.3063  -16.8388 C   0  0  0  0  0  0  0  0  0  0  0  0
   24.9924  -20.5227  -15.5947 O   0  0  0  0  0  0  0  0  0  0  0  0
   26.8742  -16.5900  -19.8205 N   0  0  0  0  0  0  0  0  0  0  0  0
   27.2892  -15.3606  -19.2470 C   0  0  0  0  0  0  0  0  0  0  0  0
   28.4296  -14.8423  -19.5238 N   0  0  0  0  0  0  0  0  0  0  0  0
   26.4449  -14.6459  -18.3302 N   0  0  0  0  0  0  0  0  0  0  0  0
   25.0944  -15.1009  -18.0882 C   0  0  0  0  0  0  0  0  0  0  0  0
   25.1034  -16.4338  -17.3368 C   0  0  0  0  0  0  0  0  0  0  0  0
   23.6676  -16.9327  -17.2420 C   0  0  0  0  0  0  0  0  0  0  0  0
   23.6248  -18.2826  -16.5547 C   0  0  2  0  0  0  0  0  0  0  0  0
   24.4385  -19.1778  -17.3539 N   0  0  0  0  0  0  0  0  0  0  0  0
   22.2327  -18.7310  -16.4412 C   0  0  0  0  0  0  0  0  0  0  0  0
   21.6062  -19.1195  -17.4574 O   0  0  0  0  0  0  0  0  0  0  0  0
   28.7383  -13.9904  -19.0283 N   0  0  0  0  0  0  0  0  0  0  0  0
   21.5455  -18.7448  -15.1979 C   0  0  2  0  0  0  0  0  0  0  0  0
   20.1794  -19.2982  -15.1181 C   0  0  0  0  0  0  0  0  0  0  0  0
   20.0706  -20.0897  -13.8521 C   0  0  0  0  0  0  0  0  0  0  0  0
   18.7467  -20.7379  -13.6160 C   0  0  0  0  0  0  0  0  0  0  0  0
   18.5988  -21.4455  -12.3491 O   0  0  0  0  0  0  0  0  0  0  0  0
   19.5157  -21.4709  -11.5027 C   0  0  0  0  0  0  0  0  0  0  0  0
   19.1911  -18.2030  -15.2377 O   0  0  0  0  0  0  0  0  0  0  0  0
   19.6021  -16.8632  -15.1189 O   0  0  0  0  0  0  0  0  0  0  0  0
   17.4186  -22.1080  -12.0677 O   0  0  0  0  0  0  0  0  0  0  0  0
  2  1  1  6
  2  3  1  0
  4  2  1  0
  4  6  1  0
  4  5  1  1
  6  7  2  0
  9 10  2  0
  9  8  1  0
 11  9  1  0
 12 11  1  0
 13 12  1  0
 14 13  1  0
 15 14  1  6
 16  6  1  0
 16 15  1  0
 17 15  1  0
 17 19  1  0
 18 17  2  0
 20 19  1  0
 20 21  1  6
 21 22  1  0
 22 23  1  0
 23 24  2  0
 23 27  1  0
 25 26  1  0
 25 20  1  0
 28 25  2  0
M  END
$$$$
