TRE.pdb
     RDKit          3D

 28 27  0  0  1  0  0  0  0  0999 V2000
   27.7937  -11.5085  -15.1770 C   0  0  0  0  0  0  0  0  0  0  0  0
   28.2502  -11.5888  -16.5984 C   0  0  1  0  0  0  0  0  0  0  0  0
   29.5770  -12.0159  -16.6233 O   0  0  0  0  0  0  0  0  0  0  0  0
   27.3541  -12.4370  -17.4633 C   0  0  2  0  0  0  0  0  0  0  0  0
   27.9853  -12.5548  -18.7583 N   0  0  0  0  0  0  0  0  0  0  0  0
   25.9862  -11.9005  -17.5910 C   0  0  0  0  0  0  0  0  0  0  0  0
   25.7749  -10.9555  -18.4090 O   0  0  0  0  0  0  0  0  0  0  0  0
   18.0597  -15.4561  -15.9258 N   0  0  0  0  0  0  0  0  0  0  0  0
   17.7755  -14.1513  -16.4043 C   0  0  0  0  0  0  0  0  0  0  0  0
   16.5726  -13.7664  -16.6296 N   0  0  0  0  0  0  0  0  0  0  0  0
   18.8283  -13.2067  -16.6563 N   0  0  0  0  0  0  0  0  0  0  0  0
   20.2094  -13.6165  -16.5375 C   0  0  0  0  0  0  0  0  0  0  0  0
   21.1449  -12.4360  -16.8066 C   0  0  0  0  0  0  0  0  0  0  0  0
   22.5788  -12.9451  -16.7427 C   0  0  0  0  0  0  0  0  0  0  0  0
   23.5519  -11.8004  -16.9403 C   0  0  2  0  0  0  0  0  0  0  0  0
   24.8820  -12.3713  -16.8571 N   0  0  0  0  0  0  0  0  0  0  0  0
   23.3119  -10.7716  -15.9224 C   0  0  0  0  0  0  0  0  0  0  0  0
   23.6643  -10.9616  -14.7326 O   0  0  0  0  0  0  0  0  0  0  0  0
   16.3997  -12.8182  -17.0005 N   0  0  0  0  0  0  0  0  0  0  0  0
   22.6812   -9.5374  -16.2340 C   0  0  2  0  0  0  0  0  0  0  0  0
   22.5354   -8.5017  -15.1924 C   0  0  0  0  0  0  0  0  0  0  0  0
   22.4792   -7.1667  -15.8675 C   0  0  0  0  0  0  0  0  0  0  0  0
   22.2521   -6.0021  -14.9615 C   0  0  0  0  0  0  0  0  0  0  0  0
   22.2600   -4.6885  -15.5956 O   0  0  0  0  0  0  0  0  0  0  0  0
   22.4645   -4.5536  -16.8193 C   0  0  0  0  0  0  0  0  0  0  0  0
   21.3584   -8.8068  -14.3486 O   0  0  0  0  0  0  0  0  0  0  0  0
   21.3669   -8.4845  -12.9796 O   0  0  0  0  0  0  0  0  0  0  0  0
   22.0366   -3.5576  -14.8325 O   0  0  0  0  0  0  0  0  0  0  0  0
  2  1  1  1
  2  3  1  0
  4  2  1  0
  4  6  1  0
  4  5  1  6
  6  7  2  0
  9 10  2  0
  9  8  1  0
 11  9  1  0
 12 11  1  0
 13 12  1  0
 14 13  1  0
 15 14  1  1
 16  6  1  0
 16 15  1  0
 17 15  1  0
 17 19  1  0
 18 17  2  0
 20 19  1  0
 20 21  1  6
 21 22  1  0
 22 23  1  0
 23 24  2  0
 23 27  1  0
 25 26  1  0
 25 20  1  0
 28 25  2  0
M  END
$$$$
