TRE.pdb
     RDKit          3D

 28 27  0  0  1  0  0  0  0  0999 V2000
   22.2228  -20.3755   -7.2635 C   0  0  0  0  0  0  0  0  0  0  0  0
   23.1462  -19.8885   -8.3337 C   0  0  1  0  0  0  0  0  0  0  0  0
   24.4436  -19.8449   -7.8255 O   0  0  0  0  0  0  0  0  0  0  0  0
   23.0517  -20.6862   -9.6085 C   0  0  2  0  0  0  0  0  0  0  0  0
   23.3750  -22.0580   -9.2873 N   0  0  0  0  0  0  0  0  0  0  0  0
   23.9244  -20.1771  -10.6830 C   0  0  0  0  0  0  0  0  0  0  0  0
   23.7285  -19.0054  -11.1250 O   0  0  0  0  0  0  0  0  0  0  0  0
   31.9235  -22.8311  -12.4588 N   0  0  0  0  0  0  0  0  0  0  0  0
   31.3193  -21.9026  -11.5727 C   0  0  0  0  0  0  0  0  0  0  0  0
   31.8711  -21.5799  -10.4605 N   0  0  0  0  0  0  0  0  0  0  0  0
   30.0606  -21.2857  -11.8881 N   0  0  0  0  0  0  0  0  0  0  0  0
   29.3937  -21.6010  -13.1312 C   0  0  0  0  0  0  0  0  0  0  0  0
   28.1171  -20.7710  -13.2812 C   0  0  0  0  0  0  0  0  0  0  0  0
   27.1335  -21.2185  -12.2081 C   0  0  0  0  0  0  0  0  0  0  0  0
   25.8681  -20.3875  -12.2758 C   0  0  2  0  0  0  0  0  0  0  0  0
   24.9757  -20.9123  -11.2608 N   0  0  0  0  0  0  0  0  0  0  0  0
   25.3005  -20.4676  -13.6262 C   0  0  0  0  0  0  0  0  0  0  0  0
   25.0795  -21.5838  -14.1564 O   0  0  0  0  0  0  0  0  0  0  0  0
   31.4145  -20.8878   -9.8446 N   0  0  0  0  0  0  0  0  0  0  0  0
   24.9822  -19.3056  -14.3788 C   0  0  2  0  0  0  0  0  0  0  0  0
   24.1634  -19.4221  -15.6015 C   0  0  0  0  0  0  0  0  0  0  0  0
   23.0255  -18.4552  -15.4940 C   0  0  0  0  0  0  0  0  0  0  0  0
   22.1185  -18.4022  -16.6786 C   0  0  0  0  0  0  0  0  0  0  0  0
   21.0293  -17.4349  -16.6064 O   0  0  0  0  0  0  0  0  0  0  0  0
   21.0091  -16.5353  -15.7416 C   0  0  0  0  0  0  0  0  0  0  0  0
   25.0183  -19.2253  -16.7934 O   0  0  0  0  0  0  0  0  0  0  0  0
   24.6619  -19.8070  -18.0234 O   0  0  0  0  0  0  0  0  0  0  0  0
   19.9878  -17.5062  -17.5127 O   0  0  0  0  0  0  0  0  0  0  0  0
  2  1  1  1
  2  3  1  0
  4  2  1  0
  4  6  1  0
  4  5  1  1
  6  7  2  0
  9 10  2  0
  9  8  1  0
 11  9  1  0
 12 11  1  0
 13 12  1  0
 14 13  1  0
 15 14  1  6
 16  6  1  0
 16 15  1  0
 17 15  1  0
 17 19  1  0
 18 17  2  0
 20 19  1  0
 20 21  1  1
 21 22  1  0
 22 23  1  0
 23 24  2  0
 23 27  1  0
 25 26  1  0
 25 20  1  0
 28 25  2  0
M  END
$$$$
