AMV.pdb
     RDKit          3D

 21 20  0  0  1  0  0  0  0  0999 V2000
   18.9054  -14.2213  -18.6659 C   0  0  0  0  0  0  0  0  0  0  0  0
   19.5378  -12.9196  -19.0446 C   0  0  2  0  0  0  0  0  0  0  0  0
   20.3232  -12.9994  -20.2608 N   0  0  0  0  0  0  0  0  0  0  0  0
   20.3395  -12.3937  -17.9144 C   0  0  0  0  0  0  0  0  0  0  0  0
   19.7514  -12.1304  -16.8424 O   0  0  0  0  0  0  0  0  0  0  0  0
   27.3012  -12.0711  -14.5607 C   0  0  0  0  0  0  0  0  0  0  0  0
   26.5005  -11.9050  -16.1728 S   0  0  0  0  0  0  0  0  0  0  0  0
   24.7934  -11.3398  -16.0184 C   0  0  0  0  0  0  0  0  0  0  0  0
   23.9457  -11.9383  -17.1078 C   0  0  0  0  0  0  0  0  0  0  0  0
   22.4989  -11.5310  -16.9265 C   0  0  2  0  0  0  0  0  0  0  0  0
   21.7317  -12.1716  -17.9766 N   0  0  0  0  0  0  0  0  0  0  0  0
   22.3543  -10.0545  -16.9870 C   0  0  0  0  0  0  0  0  0  0  0  0
   22.8844   -9.4429  -17.9495 O   0  0  0  0  0  0  0  0  0  0  0  0
   19.0545   -8.0476  -16.3657 C   0  0  0  0  0  0  0  0  0  0  0  0
   20.3135   -7.5106  -17.0093 C   0  0  1  0  0  0  0  0  0  0  0  0
   20.1476   -6.0394  -17.1862 C   0  0  0  0  0  0  0  0  0  0  0  0
   21.5058   -7.8839  -16.1544 C   0  0  2  0  0  0  0  0  0  0  0  0
   21.6539   -9.3067  -16.0212 N   0  0  0  0  0  0  0  0  0  0  0  0
   21.4760   -7.1943  -14.8392 C   0  0  0  0  0  0  0  0  0  0  0  0
   21.5160   -5.9381  -14.8069 O   0  0  0  0  0  0  0  0  0  0  0  0
   21.4055   -7.8602  -13.6240 O   0  0  0  0  0  0  0  0  0  0  0  0
  2  1  1  1
  3  2  1  0
  4  2  1  0
  5  4  2  0
  6  7  1  0
  7  8  1  0
  8  9  1  0
 10  9  1  6
 10 11  1  0
 10 12  1  0
 11  4  1  0
 12 13  2  0
 12 18  1  0
 15 16  1  1
 15 14  1  0
 17 15  1  0
 17 18  1  1
 19 17  1  0
 19 21  1  0
 20 19  2  0
M  END
$$$$
