AMV.pdb
     RDKit          3D

 21 20  0  0  1  0  0  0  0  0999 V2000
   26.4441  -16.3846  -16.5969 C   0  0  0  0  0  0  0  0  0  0  0  0
   27.3701  -17.3638  -15.9477 C   0  0  2  0  0  0  0  0  0  0  0  0
   28.4588  -17.7781  -16.8110 N   0  0  0  0  0  0  0  0  0  0  0  0
   26.6070  -18.5284  -15.4397 C   0  0  0  0  0  0  0  0  0  0  0  0
   26.1730  -19.3595  -16.2676 O   0  0  0  0  0  0  0  0  0  0  0  0
   25.1422  -20.4432   -8.7135 C   0  0  0  0  0  0  0  0  0  0  0  0
   26.0297  -21.5650   -9.8187 S   0  0  0  0  0  0  0  0  0  0  0  0
   25.5145  -21.3610  -11.5362 C   0  0  0  0  0  0  0  0  0  0  0  0
   26.1462  -20.1299  -12.1272 C   0  0  0  0  0  0  0  0  0  0  0  0
   25.6918  -19.9465  -13.5596 C   0  0  2  0  0  0  0  0  0  0  0  0
   26.3404  -18.7558  -14.0728 N   0  0  0  0  0  0  0  0  0  0  0  0
   24.2142  -19.8212  -13.6331 C   0  0  0  0  0  0  0  0  0  0  0  0
   23.6949  -18.7134  -13.3418 O   0  0  0  0  0  0  0  0  0  0  0  0
   21.9288  -21.1507  -16.4465 C   0  0  0  0  0  0  0  0  0  0  0  0
   21.2789  -21.5075  -15.1281 C   0  0  1  0  0  0  0  0  0  0  0  0
   21.3845  -22.9840  -14.9483 C   0  0  0  0  0  0  0  0  0  0  0  0
   21.9396  -20.7168  -14.0191 C   0  0  2  0  0  0  0  0  0  0  0  0
   23.3670  -20.8799  -14.0124 N   0  0  0  0  0  0  0  0  0  0  0  0
   21.3319  -21.0126  -12.6965 C   0  0  0  0  0  0  0  0  0  0  0  0
   22.0117  -21.6264  -11.8352 O   0  0  0  0  0  0  0  0  0  0  0  0
   20.0398  -20.6483  -12.3459 O   0  0  0  0  0  0  0  0  0  0  0  0
  2  1  1  6
  3  2  1  0
  4  2  1  0
  5  4  2  0
  6  7  1  0
  7  8  1  0
  8  9  1  0
 10  9  1  1
 10 11  1  0
 10 12  1  0
 11  4  1  0
 12 13  2  0
 12 18  1  0
 15 16  1  1
 15 14  1  0
 17 15  1  0
 17 18  1  1
 19 17  1  0
 19 21  1  0
 20 19  2  0
M  END
$$$$
