AMV.pdb
     RDKit          3D

 21 20  0  0  1  0  0  0  0  0999 V2000
   18.3515  -10.5297  -17.8406 C   0  0  0  0  0  0  0  0  0  0  0  0
   19.3190  -11.5472  -17.3246 C   0  0  2  0  0  0  0  0  0  0  0  0
   18.6713  -12.7126  -16.7546 N   0  0  0  0  0  0  0  0  0  0  0  0
   20.2537  -10.9200  -16.3604 C   0  0  0  0  0  0  0  0  0  0  0  0
   20.7634  -11.6408  -15.4744 O   0  0  0  0  0  0  0  0  0  0  0  0
   26.2586  -11.0857  -14.6357 C   0  0  0  0  0  0  0  0  0  0  0  0
   25.6639   -9.8816  -15.8458 S   0  0  0  0  0  0  0  0  0  0  0  0
   24.1391   -9.0829  -15.3033 C   0  0  0  0  0  0  0  0  0  0  0  0
   22.9820   -9.5391  -16.1500 C   0  0  0  0  0  0  0  0  0  0  0  0
   21.6848   -8.9794  -15.6061 C   0  0  2  0  0  0  0  0  0  0  0  0
   20.6036   -9.5532  -16.3830 N   0  0  0  0  0  0  0  0  0  0  0  0
   21.6724   -7.4971  -15.6908 C   0  0  0  0  0  0  0  0  0  0  0  0
   21.8477   -6.9631  -16.8158 O   0  0  0  0  0  0  0  0  0  0  0  0
   19.8135   -3.2898  -14.5232 C   0  0  0  0  0  0  0  0  0  0  0  0
   19.9141   -4.7879  -14.3404 C   0  0  1  0  0  0  0  0  0  0  0  0
   18.8296   -5.4227  -15.1430 C   0  0  0  0  0  0  0  0  0  0  0  0
   21.3023   -5.2440  -14.7362 C   0  0  2  0  0  0  0  0  0  0  0  0
   21.4745   -6.6612  -14.5752 N   0  0  0  0  0  0  0  0  0  0  0  0
   22.3563   -4.4647  -14.0376 C   0  0  0  0  0  0  0  0  0  0  0  0
   22.7433   -4.8415  -12.9023 O   0  0  0  0  0  0  0  0  0  0  0  0
   22.9504   -3.3285  -14.5678 O   0  0  0  0  0  0  0  0  0  0  0  0
  2  1  1  1
  3  2  1  0
  4  2  1  0
  5  4  2  0
  6  7  1  0
  7  8  1  0
  8  9  1  0
 10  9  1  6
 10 11  1  0
 10 12  1  0
 11  4  1  0
 12 13  2  0
 12 18  1  0
 15 16  1  6
 15 14  1  0
 17 15  1  0
 17 18  1  1
 19 17  1  0
 19 21  1  0
 20 19  2  0
M  END
$$$$
