AMV.pdb
     RDKit          3D

 21 20  0  0  1  0  0  0  0  0999 V2000
   20.1889  -11.6794  -18.7071 C   0  0  0  0  0  0  0  0  0  0  0  0
   21.4847  -12.2081  -18.1788 C   0  0  2  0  0  0  0  0  0  0  0  0
   21.4304  -13.6170  -17.8403 N   0  0  0  0  0  0  0  0  0  0  0  0
   21.9385  -11.3908  -17.0287 C   0  0  0  0  0  0  0  0  0  0  0  0
   21.2425  -11.3919  -15.9894 O   0  0  0  0  0  0  0  0  0  0  0  0
   27.9192  -12.8112  -14.7626 C   0  0  0  0  0  0  0  0  0  0  0  0
   27.3128  -11.2409  -15.4216 S   0  0  0  0  0  0  0  0  0  0  0  0
   25.5112  -11.1450  -15.3740 C   0  0  0  0  0  0  0  0  0  0  0  0
   25.0467   -9.8076  -15.8834 C   0  0  0  0  0  0  0  0  0  0  0  0
   23.5343   -9.7655  -15.9356 C   0  0  2  0  0  0  0  0  0  0  0  0
   23.1132  -10.6090  -17.0369 N   0  0  0  0  0  0  0  0  0  0  0  0
   23.0506   -8.3734  -16.1164 C   0  0  0  0  0  0  0  0  0  0  0  0
   23.2732   -7.8033  -17.2150 O   0  0  0  0  0  0  0  0  0  0  0  0
   20.1382   -4.6858  -15.7148 C   0  0  0  0  0  0  0  0  0  0  0  0
   20.4744   -6.1496  -15.5355 C   0  0  1  0  0  0  0  0  0  0  0  0
   19.9689   -6.8868  -16.7289 C   0  0  0  0  0  0  0  0  0  0  0  0
   21.9666   -6.2939  -15.3257 C   0  0  2  0  0  0  0  0  0  0  0  0
   22.3560   -7.6614  -15.1198 N   0  0  0  0  0  0  0  0  0  0  0  0
   22.4586   -5.3989  -14.2472 C   0  0  0  0  0  0  0  0  0  0  0  0
   22.4379   -5.8065  -13.0580 O   0  0  0  0  0  0  0  0  0  0  0  0
   22.9476   -4.1202  -14.4732 O   0  0  0  0  0  0  0  0  0  0  0  0
  2  1  1  1
  3  2  1  0
  4  2  1  0
  5  4  2  0
  6  7  1  0
  7  8  1  0
  8  9  1  0
 10  9  1  6
 10 11  1  0
 10 12  1  0
 11  4  1  0
 12 13  2  0
 12 18  1  0
 15 16  1  6
 15 14  1  0
 17 15  1  0
 17 18  1  1
 19 17  1  0
 19 21  1  0
 20 19  2  0
M  END
$$$$
