AMV.pdb
     RDKit          3D

 21 20  0  0  1  0  0  0  0  0999 V2000
   25.0875  -26.7319  -11.4113 C   0  0  0  0  0  0  0  0  0  0  0  0
   26.3049  -26.0110  -11.8970 C   0  0  2  0  0  0  0  0  0  0  0  0
   27.4972  -26.3271  -11.1347 N   0  0  0  0  0  0  0  0  0  0  0  0
   26.0538  -24.5506  -11.9309 C   0  0  0  0  0  0  0  0  0  0  0  0
   25.6083  -24.0017  -10.8991 O   0  0  0  0  0  0  0  0  0  0  0  0
   30.7699  -21.5493  -12.0497 C   0  0  0  0  0  0  0  0  0  0  0  0
   29.6196  -20.1626  -11.9040 S   0  0  0  0  0  0  0  0  0  0  0  0
   27.9005  -20.7063  -11.9832 C   0  0  0  0  0  0  0  0  0  0  0  0
   27.7634  -21.8644  -12.9339 C   0  0  0  0  0  0  0  0  0  0  0  0
   26.3141  -22.2912  -13.0310 C   0  0  2  0  0  0  0  0  0  0  0  0
   26.2884  -23.7404  -13.0621 N   0  0  0  0  0  0  0  0  0  0  0  0
   25.6759  -21.7216  -14.2446 C   0  0  0  0  0  0  0  0  0  0  0  0
   26.0693  -22.1240  -15.3693 O   0  0  0  0  0  0  0  0  0  0  0  0
   21.8741  -21.5858  -14.6671 C   0  0  0  0  0  0  0  0  0  0  0  0
   22.4354  -20.2518  -15.1068 C   0  0  1  0  0  0  0  0  0  0  0  0
   22.1266  -19.2510  -14.0456 C   0  0  0  0  0  0  0  0  0  0  0  0
   23.9166  -20.4025  -15.3802 C   0  0  2  0  0  0  0  0  0  0  0  0
   24.6536  -20.7545  -14.1983 N   0  0  0  0  0  0  0  0  0  0  0  0
   24.4749  -19.2039  -16.0569 C   0  0  0  0  0  0  0  0  0  0  0  0
   25.2253  -18.4307  -15.4092 O   0  0  0  0  0  0  0  0  0  0  0  0
   24.2160  -18.8786  -17.3806 O   0  0  0  0  0  0  0  0  0  0  0  0
  2  1  1  1
  3  2  1  0
  4  2  1  0
  5  4  2  0
  6  7  1  0
  7  8  1  0
  8  9  1  0
 10  9  1  6
 10 11  1  0
 10 12  1  0
 11  4  1  0
 12 13  2  0
 12 18  1  0
 15 16  1  1
 15 14  1  0
 17 15  1  0
 17 18  1  1
 19 17  1  0
 19 21  1  0
 20 19  2  0
M  END
$$$$
