AMV.pdb
     RDKit          3D

 21 20  0  0  1  0  0  0  0  0999 V2000
   18.0418  -26.7650   -8.5515 C   0  0  0  0  0  0  0  0  0  0  0  0
   17.6107  -25.5287   -7.8282 C   0  0  2  0  0  0  0  0  0  0  0  0
   18.6970  -24.5975   -7.5927 N   0  0  0  0  0  0  0  0  0  0  0  0
   16.9220  -25.8894   -6.5664 C   0  0  0  0  0  0  0  0  0  0  0  0
   15.8237  -26.4834   -6.6394 O   0  0  0  0  0  0  0  0  0  0  0  0
   20.2163  -26.6242   -1.1061 C   0  0  0  0  0  0  0  0  0  0  0  0
   18.6259  -27.3449   -0.6384 S   0  0  0  0  0  0  0  0  0  0  0  0
   17.3122  -26.8689   -1.7807 C   0  0  0  0  0  0  0  0  0  0  0  0
   17.9005  -26.3237   -3.0536 C   0  0  0  0  0  0  0  0  0  0  0  0
   16.8002  -26.0126   -4.0459 C   0  0  2  0  0  0  0  0  0  0  0  0
   17.4337  -25.6013   -5.2833 N   0  0  0  0  0  0  0  0  0  0  0  0
   15.9060  -24.9473   -3.5262 C   0  0  0  0  0  0  0  0  0  0  0  0
   16.1003  -24.5235   -2.3582 O   0  0  0  0  0  0  0  0  0  0  0  0
   14.1633  -22.0065   -5.7215 C   0  0  0  0  0  0  0  0  0  0  0  0
   13.1960  -22.6495   -4.7526 C   0  0  1  0  0  0  0  0  0  0  0  0
   12.2664  -23.5127   -5.5362 C   0  0  0  0  0  0  0  0  0  0  0  0
   13.9775  -23.4061   -3.6998 C   0  0  2  0  0  0  0  0  0  0  0  0
   14.8526  -24.3892   -4.2755 N   0  0  0  0  0  0  0  0  0  0  0  0
   13.0847  -23.9838   -2.6628 C   0  0  0  0  0  0  0  0  0  0  0  0
   12.8248  -25.2135   -2.6965 O   0  0  0  0  0  0  0  0  0  0  0  0
   12.5101  -23.2397   -1.6424 O   0  0  0  0  0  0  0  0  0  0  0  0
  2  1  1  1
  3  2  1  0
  4  2  1  0
  5  4  2  0
  6  7  1  0
  7  8  1  0
  8  9  1  0
 10  9  1  1
 10 11  1  0
 10 12  1  0
 11  4  1  0
 12 13  2  0
 12 18  1  0
 15 16  1  6
 15 14  1  0
 17 15  1  0
 17 18  1  6
 19 17  1  0
 19 21  1  0
 20 19  2  0
M  END
$$$$
