AMV.pdb
     RDKit          3D

 21 20  0  0  1  0  0  0  0  0999 V2000
   23.3325  -20.8134   -8.1959 C   0  0  0  0  0  0  0  0  0  0  0  0
   24.8244  -20.8104   -8.0862 C   0  0  2  0  0  0  0  0  0  0  0  0
   25.3112  -20.0542   -6.9488 N   0  0  0  0  0  0  0  0  0  0  0  0
   25.4285  -20.3344   -9.3531 C   0  0  0  0  0  0  0  0  0  0  0  0
   25.6906  -19.1164   -9.4639 O   0  0  0  0  0  0  0  0  0  0  0  0
   30.8536  -21.5356  -11.3206 C   0  0  0  0  0  0  0  0  0  0  0  0
   30.1444  -21.4785  -12.9823 S   0  0  0  0  0  0  0  0  0  0  0  0
   28.4520  -20.8515  -12.9678 C   0  0  0  0  0  0  0  0  0  0  0  0
   27.7252  -21.3413  -11.7449 C   0  0  0  0  0  0  0  0  0  0  0  0
   26.3452  -20.7227  -11.6751 C   0  0  2  0  0  0  0  0  0  0  0  0
   25.7264  -21.1768  -10.4453 N   0  0  0  0  0  0  0  0  0  0  0  0
   25.5319  -21.1114  -12.8550 C   0  0  0  0  0  0  0  0  0  0  0  0
   25.1241  -22.2985  -12.9327 O   0  0  0  0  0  0  0  0  0  0  0  0
   22.2522  -19.8482  -13.9924 C   0  0  0  0  0  0  0  0  0  0  0  0
   23.1756  -19.7234  -15.1838 C   0  0  1  0  0  0  0  0  0  0  0  0
   23.5466  -18.2866  -15.3292 C   0  0  0  0  0  0  0  0  0  0  0  0
   24.3669  -20.6363  -14.9861 C   0  0  2  0  0  0  0  0  0  0  0  0
   25.1953  -20.2176  -13.8896 N   0  0  0  0  0  0  0  0  0  0  0  0
   25.1397  -20.8104  -16.2425 C   0  0  0  0  0  0  0  0  0  0  0  0
   24.6773  -21.5519  -17.1465 O   0  0  0  0  0  0  0  0  0  0  0  0
   26.3599  -20.1962  -16.4854 O   0  0  0  0  0  0  0  0  0  0  0  0
  2  1  1  6
  3  2  1  0
  4  2  1  0
  5  4  2  0
  6  7  1  0
  7  8  1  0
  8  9  1  0
 10  9  1  6
 10 11  1  0
 10 12  1  0
 11  4  1  0
 12 13  2  0
 12 18  1  0
 15 16  1  1
 15 14  1  0
 17 15  1  0
 17 18  1  1
 19 17  1  0
 19 21  1  0
 20 19  2  0
M  END
$$$$
