AMV.pdb
     RDKit          3D

 21 20  0  0  1  0  0  0  0  0999 V2000
   28.2073  -19.2556  -15.3705 C   0  0  0  0  0  0  0  0  0  0  0  0
   28.5502  -20.5581  -14.7196 C   0  0  2  0  0  0  0  0  0  0  0  0
   28.8680  -21.6051  -15.6711 N   0  0  0  0  0  0  0  0  0  0  0  0
   27.4631  -20.9715  -13.8009 C   0  0  0  0  0  0  0  0  0  0  0  0
   26.5520  -21.7009  -14.2509 O   0  0  0  0  0  0  0  0  0  0  0  0
   27.7732  -19.9296   -7.3205 C   0  0  0  0  0  0  0  0  0  0  0  0
   25.9981  -20.1839   -7.5488 S   0  0  0  0  0  0  0  0  0  0  0  0
   25.6223  -20.8628   -9.1782 C   0  0  0  0  0  0  0  0  0  0  0  0
   26.6493  -20.4110  -10.1807 C   0  0  0  0  0  0  0  0  0  0  0  0
   26.3033  -20.9394  -11.5566 C   0  0  2  0  0  0  0  0  0  0  0  0
   27.3948  -20.5895  -12.4442 N   0  0  0  0  0  0  0  0  0  0  0  0
   25.0216  -20.3638  -12.0367 C   0  0  0  0  0  0  0  0  0  0  0  0
   24.9806  -19.1336  -12.2947 O   0  0  0  0  0  0  0  0  0  0  0  0
   22.2586  -22.5952  -14.1651 C   0  0  0  0  0  0  0  0  0  0  0  0
   22.4721  -21.0997  -14.2404 C   0  0  1  0  0  0  0  0  0  0  0  0
   21.2940  -20.5014  -14.9313 C   0  0  0  0  0  0  0  0  0  0  0  0
   22.6902  -20.5586  -12.8435 C   0  0  2  0  0  0  0  0  0  0  0  0
   23.8517  -21.1262  -12.2168 N   0  0  0  0  0  0  0  0  0  0  0  0
   21.4723  -20.6972  -12.0046 C   0  0  0  0  0  0  0  0  0  0  0  0
   21.4891  -21.4907  -11.0295 O   0  0  0  0  0  0  0  0  0  0  0  0
   20.2979  -19.9946  -12.2332 O   0  0  0  0  0  0  0  0  0  0  0  0
  2  1  1  6
  3  2  1  0
  4  2  1  0
  5  4  2  0
  6  7  1  0
  7  8  1  0
  8  9  1  0
 10  9  1  1
 10 11  1  0
 10 12  1  0
 11  4  1  0
 12 13  2  0
 12 18  1  0
 15 16  1  1
 15 14  1  0
 17 15  1  0
 17 18  1  1
 19 17  1  0
 19 21  1  0
 20 19  2  0
M  END
$$$$
