AMV.pdb
     RDKit          3D

 21 20  0  0  1  0  0  0  0  0999 V2000
   20.4555  -12.7941  -20.6806 C   0  0  0  0  0  0  0  0  0  0  0  0
   21.3464  -13.6478  -19.8349 C   0  0  2  0  0  0  0  0  0  0  0  0
   20.8564  -15.0035  -19.6783 N   0  0  0  0  0  0  0  0  0  0  0  0
   21.5786  -12.9997  -18.5224 C   0  0  0  0  0  0  0  0  0  0  0  0
   20.7971  -13.2665  -17.5830 O   0  0  0  0  0  0  0  0  0  0  0  0
   26.5942  -14.9835  -15.1614 C   0  0  0  0  0  0  0  0  0  0  0  0
   26.2890  -13.3329  -15.8322 S   0  0  0  0  0  0  0  0  0  0  0  0
   24.5267  -13.0171  -16.0598 C   0  0  0  0  0  0  0  0  0  0  0  0
   24.3132  -11.6419  -16.6318 C   0  0  0  0  0  0  0  0  0  0  0  0
   22.8558  -11.4471  -16.9923 C   0  0  2  0  0  0  0  0  0  0  0  0
   22.6328  -12.0965  -18.2691 N   0  0  0  0  0  0  0  0  0  0  0  0
   22.5178  -10.0030  -17.0637 C   0  0  0  0  0  0  0  0  0  0  0  0
   22.9797   -9.3295  -18.0200 O   0  0  0  0  0  0  0  0  0  0  0  0
   19.6742   -8.4138  -17.9534 C   0  0  0  0  0  0  0  0  0  0  0  0
   19.9476   -7.7283  -16.6331 C   0  0  1  0  0  0  0  0  0  0  0  0
   18.9754   -8.2540  -15.6323 C   0  0  0  0  0  0  0  0  0  0  0  0
   21.3933   -7.9558  -16.2459 C   0  0  2  0  0  0  0  0  0  0  0  0
   21.7068   -9.3516  -16.1147 N   0  0  0  0  0  0  0  0  0  0  0  0
   21.7669   -7.1777  -15.0370 C   0  0  0  0  0  0  0  0  0  0  0  0
   22.0113   -7.7911  -13.9671 O   0  0  0  0  0  0  0  0  0  0  0  0
   21.8648   -5.7939  -15.0139 O   0  0  0  0  0  0  0  0  0  0  0  0
  2  1  1  6
  3  2  1  0
  4  2  1  0
  5  4  2  0
  6  7  1  0
  7  8  1  0
  8  9  1  0
 10  9  1  6
 10 11  1  0
 10 12  1  0
 11  4  1  0
 12 13  2  0
 12 18  1  0
 15 16  1  1
 15 14  1  0
 17 15  1  0
 17 18  1  1
 19 17  1  0
 19 21  1  0
 20 19  2  0
M  END
$$$$
