AMV.pdb
     RDKit          3D

 21 20  0  0  1  0  0  0  0  0999 V2000
   18.4463  -10.2710  -19.0573 C   0  0  0  0  0  0  0  0  0  0  0  0
   19.8661  -10.6589  -18.7899 C   0  0  2  0  0  0  0  0  0  0  0  0
   20.0724  -12.0941  -18.7761 N   0  0  0  0  0  0  0  0  0  0  0  0
   20.3390  -10.0306  -17.5337 C   0  0  0  0  0  0  0  0  0  0  0  0
   19.5119   -9.8512  -16.6127 O   0  0  0  0  0  0  0  0  0  0  0  0
   26.3367  -10.6922  -14.6889 C   0  0  0  0  0  0  0  0  0  0  0  0
   25.1233  -11.8837  -15.3017 S   0  0  0  0  0  0  0  0  0  0  0  0
   23.4735  -11.1611  -15.4177 C   0  0  0  0  0  0  0  0  0  0  0  0
   23.5633   -9.7251  -15.8579 C   0  0  0  0  0  0  0  0  0  0  0  0
   22.1758   -9.1476  -16.0406 C   0  0  2  0  0  0  0  0  0  0  0  0
   21.6716   -9.6213  -17.3145 N   0  0  0  0  0  0  0  0  0  0  0  0
   22.2120   -7.6637  -16.0013 C   0  0  0  0  0  0  0  0  0  0  0  0
   22.7902   -7.0568  -16.9387 O   0  0  0  0  0  0  0  0  0  0  0  0
   20.1535   -5.1262  -16.7629 C   0  0  0  0  0  0  0  0  0  0  0  0
   20.4944   -4.7660  -15.3340 C   0  0  1  0  0  0  0  0  0  0  0  0
   19.3259   -5.1220  -14.4789 C   0  0  0  0  0  0  0  0  0  0  0  0
   21.7712   -5.4745  -14.9347 C   0  0  2  0  0  0  0  0  0  0  0  0
   21.6317   -6.9040  -14.9676 N   0  0  0  0  0  0  0  0  0  0  0  0
   22.2840   -4.9876  -13.6285 C   0  0  0  0  0  0  0  0  0  0  0  0
   22.7167   -3.8103  -13.5424 O   0  0  0  0  0  0  0  0  0  0  0  0
   22.3160   -5.7631  -12.4784 O   0  0  0  0  0  0  0  0  0  0  0  0
  2  1  1  1
  3  2  1  0
  4  2  1  0
  5  4  2  0
  6  7  1  0
  7  8  1  0
  8  9  1  0
 10  9  1  6
 10 11  1  0
 10 12  1  0
 11  4  1  0
 12 13  2  0
 12 18  1  0
 15 16  1  1
 15 14  1  0
 17 15  1  0
 17 18  1  1
 19 17  1  0
 19 21  1  0
 20 19  2  0
M  END
$$$$
