KFF.pdb
     RDKit          3D

 32 33  0  0  1  0  0  0  0  0999 V2000
    8.4738  -18.6710   19.7131 N   0  0  0  0  0  0  0  0  0  0  0  0
    9.8465  -18.1712   19.9064 C   0  0  1  0  0  0  0  0  0  0  0  0
   10.2607  -17.6205   18.5772 C   0  0  0  0  0  0  0  0  0  0  0  0
   10.2697  -18.5953   17.4520 C   0  0  0  0  0  0  0  0  0  0  0  0
   11.6461  -19.2090   17.3452 C   0  0  0  0  0  0  0  0  0  0  0  0
   11.7513  -20.2038   16.2207 C   0  0  0  0  0  0  0  0  0  0  0  0
   13.1284  -20.7231   16.2586 N   0  0  0  0  0  0  0  0  0  0  0  0
    9.8523  -17.1394   20.9629 C   0  0  0  0  0  0  0  0  0  0  0  0
   10.9252  -16.5420   21.2135 O   0  0  0  0  0  0  0  0  0  0  0  0
    8.6961  -16.8209   21.6800 N   0  0  0  0  0  0  0  0  0  0  0  0
    8.6888  -15.8823   22.8112 C   0  0  1  0  0  0  0  0  0  0  0  0
    7.2448  -15.4424   22.9489 C   0  0  0  0  0  0  0  0  0  0  0  0
    7.0064  -14.4900   24.0325 C   0  0  0  0  0  0  0  0  0  0  0  0
    7.4998  -13.2038   24.0099 C   0  0  0  0  0  0  0  0  0  0  0  0
    7.2446  -12.3290   25.0617 C   0  0  0  0  0  0  0  0  0  0  0  0
    6.5046  -12.7159   26.1371 C   0  0  0  0  0  0  0  0  0  0  0  0
    6.0003  -14.0070   26.1764 C   0  0  0  0  0  0  0  0  0  0  0  0
    6.2593  -14.8694   25.1260 C   0  0  0  0  0  0  0  0  0  0  0  0
    9.1493  -16.6082   24.0074 C   0  0  0  0  0  0  0  0  0  0  0  0
    8.7611  -17.7899   24.2211 O   0  0  0  0  0  0  0  0  0  0  0  0
   10.0255  -15.9926   24.9239 N   0  0  0  0  0  0  0  0  0  0  0  0
   10.9034  -16.7557   25.8269 C   0  0  1  0  0  0  0  0  0  0  0  0
   11.6649  -15.7478   26.6231 C   0  0  0  0  0  0  0  0  0  0  0  0
   10.7659  -15.0995   27.5928 C   0  0  0  0  0  0  0  0  0  0  0  0
   10.0802  -13.9542   27.1913 C   0  0  0  0  0  0  0  0  0  0  0  0
    9.2230  -13.3299   28.0712 C   0  0  0  0  0  0  0  0  0  0  0  0
    9.0384  -13.8261   29.3402 C   0  0  0  0  0  0  0  0  0  0  0  0
    9.7137  -14.9559   29.7381 C   0  0  0  0  0  0  0  0  0  0  0  0
   10.5783  -15.5875   28.8534 C   0  0  0  0  0  0  0  0  0  0  0  0
   10.0433  -17.6373   26.6398 C   0  0  0  0  0  0  0  0  0  0  0  0
   10.5437  -18.4471   27.4454 O   0  0  0  0  0  0  0  0  0  0  0  0
    8.6620  -17.6097   26.5520 O   0  0  0  0  0  0  0  0  0  0  0  0
  2  3  1  0
  2  1  1  6
  3  4  1  0
  5  4  1  0
  6  5  1  0
  7  6  1  0
  8  9  2  0
  8  2  1  0
 10  8  1  0
 11 19  1  0
 11 10  1  0
 11 12  1  1
 13 12  1  0
 14 13  2  0
 15 14  1  0
 16 15  2  0
 16 17  1  0
 17 18  2  0
 18 13  1  0
 19 21  1  0
 20 19  2  0
 21 22  1  0
 22 30  1  0
 23 24  1  0
 22 23  1  1
 24 29  2  0
 25 26  2  0
 25 24  1  0
 26 27  1  0
 27 28  2  0
 29 28  1  0
 30 31  2  0
 30 32  1  0
M  END
$$$$
