KFF.pdb
     RDKit          3D

 32 33  0  0  1  0  0  0  0  0999 V2000
   10.1956  -17.6747   17.0006 N   0  0  0  0  0  0  0  0  0  0  0  0
    9.2736  -18.1915   18.0273 C   0  0  1  0  0  0  0  0  0  0  0  0
    9.3746  -19.6827   17.9391 C   0  0  0  0  0  0  0  0  0  0  0  0
   10.6914  -20.2123   17.4893 C   0  0  0  0  0  0  0  0  0  0  0  0
   10.4588  -21.3647   16.5405 C   0  0  0  0  0  0  0  0  0  0  0  0
   11.7407  -22.0115   16.0894 C   0  0  0  0  0  0  0  0  0  0  0  0
   11.3625  -23.0112   15.0768 N   0  0  0  0  0  0  0  0  0  0  0  0
    9.6769  -17.6836   19.3541 C   0  0  0  0  0  0  0  0  0  0  0  0
   10.8980  -17.5384   19.5962 O   0  0  0  0  0  0  0  0  0  0  0  0
    8.7321  -17.3655   20.3331 N   0  0  0  0  0  0  0  0  0  0  0  0
    9.0937  -16.8011   21.6413 C   0  0  1  0  0  0  0  0  0  0  0  0
    7.8973  -15.9675   22.0552 C   0  0  0  0  0  0  0  0  0  0  0  0
    7.7535  -14.7131   21.3178 C   0  0  0  0  0  0  0  0  0  0  0  0
    7.0178  -14.6167   20.1569 C   0  0  0  0  0  0  0  0  0  0  0  0
    6.9042  -13.4007   19.4896 C   0  0  0  0  0  0  0  0  0  0  0  0
    7.5131  -12.2779   19.9611 C   0  0  0  0  0  0  0  0  0  0  0  0
    8.2578  -12.3569   21.1282 C   0  0  0  0  0  0  0  0  0  0  0  0
    8.3647  -13.5702   21.7846 C   0  0  0  0  0  0  0  0  0  0  0  0
    9.3212  -17.9199   22.5722 C   0  0  0  0  0  0  0  0  0  0  0  0
    8.7449  -19.0272   22.3862 O   0  0  0  0  0  0  0  0  0  0  0  0
   10.1821  -17.7664   23.6775 N   0  0  0  0  0  0  0  0  0  0  0  0
   11.1780  -18.7804   24.0624 C   0  0  1  0  0  0  0  0  0  0  0  0
   12.0807  -18.9505   22.8852 C   0  0  0  0  0  0  0  0  0  0  0  0
   13.1163  -19.9508   23.1945 C   0  0  0  0  0  0  0  0  0  0  0  0
   12.7795  -21.2998   23.0942 C   0  0  0  0  0  0  0  0  0  0  0  0
   13.7287  -22.2609   23.3663 C   0  0  0  0  0  0  0  0  0  0  0  0
   15.0035  -21.9015   23.7355 C   0  0  0  0  0  0  0  0  0  0  0  0
   15.3377  -20.5713   23.8349 C   0  0  0  0  0  0  0  0  0  0  0  0
   14.3832  -19.6002   23.5611 C   0  0  0  0  0  0  0  0  0  0  0  0
   11.8603  -18.2921   25.2764 C   0  0  0  0  0  0  0  0  0  0  0  0
   12.3025  -17.1273   25.3324 O   0  0  0  0  0  0  0  0  0  0  0  0
   12.0399  -19.0873   26.3953 O   0  0  0  0  0  0  0  0  0  0  0  0
  2  3  1  0
  2  1  1  6
  3  4  1  0
  5  4  1  0
  6  5  1  0
  7  6  1  0
  8  9  2  0
  8  2  1  0
 10  8  1  0
 11 19  1  0
 11 10  1  0
 11 12  1  1
 13 12  1  0
 14 13  2  0
 15 14  1  0
 16 15  2  0
 16 17  1  0
 17 18  2  0
 18 13  1  0
 19 21  1  0
 20 19  2  0
 21 22  1  0
 22 30  1  0
 23 24  1  0
 22 23  1  6
 24 29  2  0
 25 26  2  0
 25 24  1  0
 26 27  1  0
 27 28  2  0
 29 28  1  0
 30 31  2  0
 30 32  1  0
M  END
$$$$
