KFF.pdb
     RDKit          3D

 32 33  0  0  1  0  0  0  0  0999 V2000
   10.0018  -17.7138   19.0550 N   0  0  0  0  0  0  0  0  0  0  0  0
    9.3423  -18.0077   20.3395 C   0  0  1  0  0  0  0  0  0  0  0  0
   10.0507  -19.2085   20.8855 C   0  0  0  0  0  0  0  0  0  0  0  0
   10.1839  -20.3575   19.9482 C   0  0  0  0  0  0  0  0  0  0  0  0
   10.8704  -21.4974   20.6635 C   0  0  0  0  0  0  0  0  0  0  0  0
   11.0495  -22.7076   19.7869 C   0  0  0  0  0  0  0  0  0  0  0  0
   12.5020  -22.8961   19.6380 N   0  0  0  0  0  0  0  0  0  0  0  0
    9.4588  -16.8381   21.2337 C   0  0  0  0  0  0  0  0  0  0  0  0
   10.4740  -16.1090   21.1402 O   0  0  0  0  0  0  0  0  0  0  0  0
    8.4688  -16.5333   22.1714 N   0  0  0  0  0  0  0  0  0  0  0  0
    8.5331  -15.3563   23.0495 C   0  0  1  0  0  0  0  0  0  0  0  0
    7.1375  -15.2170   23.6246 C   0  0  0  0  0  0  0  0  0  0  0  0
    6.9702  -14.0812   24.5301 C   0  0  0  0  0  0  0  0  0  0  0  0
    6.2936  -14.1811   25.7261 C   0  0  0  0  0  0  0  0  0  0  0  0
    6.1620  -13.0745   26.5597 C   0  0  0  0  0  0  0  0  0  0  0  0
    6.6945  -11.8683   26.2200 C   0  0  0  0  0  0  0  0  0  0  0  0
    7.3787  -11.7498   25.0197 C   0  0  0  0  0  0  0  0  0  0  0  0
    7.5042  -12.8557   24.1977 C   0  0  0  0  0  0  0  0  0  0  0  0
    9.5270  -15.6279   24.1022 C   0  0  0  0  0  0  0  0  0  0  0  0
   10.4147  -14.7725   24.3726 O   0  0  0  0  0  0  0  0  0  0  0  0
    9.4978  -16.8425   24.8167 N   0  0  0  0  0  0  0  0  0  0  0  0
   10.5340  -17.2219   25.7916 C   0  0  1  0  0  0  0  0  0  0  0  0
    9.8620  -17.2622   27.1244 C   0  0  0  0  0  0  0  0  0  0  0  0
   10.0700  -15.9830   27.8238 C   0  0  0  0  0  0  0  0  0  0  0  0
    9.0667  -15.0184   27.7443 C   0  0  0  0  0  0  0  0  0  0  0  0
    9.2255  -13.8150   28.3963 C   0  0  0  0  0  0  0  0  0  0  0  0
   10.3635  -13.5574   29.1238 C   0  0  0  0  0  0  0  0  0  0  0  0
   11.3543  -14.5076   29.2036 C   0  0  0  0  0  0  0  0  0  0  0  0
   11.1971  -15.7218   28.5475 C   0  0  0  0  0  0  0  0  0  0  0  0
   11.0927  -18.5184   25.3617 C   0  0  0  0  0  0  0  0  0  0  0  0
   10.5961  -19.1371   24.3995 O   0  0  0  0  0  0  0  0  0  0  0  0
   12.1778  -19.1026   25.9924 O   0  0  0  0  0  0  0  0  0  0  0  0
  2  3  1  0
  2  1  1  6
  3  4  1  0
  5  4  1  0
  6  5  1  0
  7  6  1  0
  8  9  2  0
  8  2  1  0
 10  8  1  0
 11 19  1  0
 11 10  1  0
 11 12  1  1
 13 12  1  0
 14 13  2  0
 15 14  1  0
 16 15  2  0
 16 17  1  0
 17 18  2  0
 18 13  1  0
 19 21  1  0
 20 19  2  0
 21 22  1  0
 22 30  1  0
 23 24  1  0
 22 23  1  1
 24 29  2  0
 25 26  2  0
 25 24  1  0
 26 27  1  0
 27 28  2  0
 29 28  1  0
 30 31  2  0
 30 32  1  0
M  END
$$$$
