KFF.pdb
     RDKit          3D

 32 33  0  0  1  0  0  0  0  0999 V2000
    9.9160  -16.5045   19.1486 N   0  0  0  0  0  0  0  0  0  0  0  0
    8.7160  -16.5313   20.0033 C   0  0  1  0  0  0  0  0  0  0  0  0
    8.4029  -17.9814   20.2051 C   0  0  0  0  0  0  0  0  0  0  0  0
    8.0476  -18.7396   18.9741 C   0  0  0  0  0  0  0  0  0  0  0  0
    7.5589  -20.1139   19.3679 C   0  0  0  0  0  0  0  0  0  0  0  0
    7.1617  -20.9497   18.1810 C   0  0  0  0  0  0  0  0  0  0  0  0
    6.6347  -22.2122   18.7251 N   0  0  0  0  0  0  0  0  0  0  0  0
    9.0014  -15.8408   21.2772 C   0  0  0  0  0  0  0  0  0  0  0  0
   10.1679  -15.8805   21.7340 O   0  0  0  0  0  0  0  0  0  0  0  0
    8.0056  -15.1519   21.9744 N   0  0  0  0  0  0  0  0  0  0  0  0
    8.2021  -14.6143   23.3283 C   0  0  1  0  0  0  0  0  0  0  0  0
    6.9903  -13.7406   23.5851 C   0  0  0  0  0  0  0  0  0  0  0  0
    6.9141  -13.2006   24.9417 C   0  0  0  0  0  0  0  0  0  0  0  0
    5.9529  -13.5992   25.8446 C   0  0  0  0  0  0  0  0  0  0  0  0
    5.9203  -13.0616   27.1278 C   0  0  0  0  0  0  0  0  0  0  0  0
    6.8315  -12.1315   27.5261 C   0  0  0  0  0  0  0  0  0  0  0  0
    7.8060  -11.7186   26.6301 C   0  0  0  0  0  0  0  0  0  0  0  0
    7.8302  -12.2591   25.3567 C   0  0  0  0  0  0  0  0  0  0  0  0
    8.2580  -15.7499   24.2649 C   0  0  0  0  0  0  0  0  0  0  0  0
    7.3141  -16.5867   24.3045 O   0  0  0  0  0  0  0  0  0  0  0  0
    9.3628  -15.9137   25.1246 N   0  0  0  0  0  0  0  0  0  0  0  0
    9.4783  -17.0335   26.0739 C   0  0  1  0  0  0  0  0  0  0  0  0
    9.7411  -18.2535   25.2542 C   0  0  0  0  0  0  0  0  0  0  0  0
   11.0089  -18.0956   24.5218 C   0  0  0  0  0  0  0  0  0  0  0  0
   12.2001  -18.3081   25.2141 C   0  0  0  0  0  0  0  0  0  0  0  0
   13.4033  -18.1790   24.5551 C   0  0  0  0  0  0  0  0  0  0  0  0
   13.4394  -17.8428   23.2224 C   0  0  0  0  0  0  0  0  0  0  0  0
   12.2655  -17.6328   22.5376 C   0  0  0  0  0  0  0  0  0  0  0  0
   11.0510  -17.7624   23.1990 C   0  0  0  0  0  0  0  0  0  0  0  0
   10.5609  -16.7014   27.0202 C   0  0  0  0  0  0  0  0  0  0  0  0
   10.9066  -17.5136   27.9013 O   0  0  0  0  0  0  0  0  0  0  0  0
   11.2366  -15.4939   26.9780 O   0  0  0  0  0  0  0  0  0  0  0  0
  2  3  1  0
  2  1  1  6
  3  4  1  0
  5  4  1  0
  6  5  1  0
  7  6  1  0
  8  9  2  0
  8  2  1  0
 10  8  1  0
 11 19  1  0
 11 10  1  0
 11 12  1  1
 13 12  1  0
 14 13  2  0
 15 14  1  0
 16 15  2  0
 16 17  1  0
 17 18  2  0
 18 13  1  0
 19 21  1  0
 20 19  2  0
 21 22  1  0
 22 30  1  0
 23 24  1  0
 22 23  1  6
 24 29  2  0
 25 26  2  0
 25 24  1  0
 26 27  1  0
 27 28  2  0
 29 28  1  0
 30 31  2  0
 30 32  1  0
M  END
$$$$
