KFF.pdb
     RDKit          3D

 32 33  0  0  1  0  0  0  0  0999 V2000
    8.6145  -18.9114   19.6300 N   0  0  0  0  0  0  0  0  0  0  0  0
    9.7958  -18.0370   19.5254 C   0  0  1  0  0  0  0  0  0  0  0  0
    9.7679  -17.4948   18.1301 C   0  0  0  0  0  0  0  0  0  0  0  0
    9.4439  -18.4817   17.0634 C   0  0  0  0  0  0  0  0  0  0  0  0
   10.2109  -18.1219   15.8125 C   0  0  0  0  0  0  0  0  0  0  0  0
    9.8172  -18.9643   14.6291 C   0  0  0  0  0  0  0  0  0  0  0  0
   10.6900  -18.5475   13.5191 N   0  0  0  0  0  0  0  0  0  0  0  0
    9.7100  -16.9674   20.5401 C   0  0  0  0  0  0  0  0  0  0  0  0
   10.5802  -16.0653   20.5374 O   0  0  0  0  0  0  0  0  0  0  0  0
    8.6876  -16.9433   21.4922 N   0  0  0  0  0  0  0  0  0  0  0  0
    8.6598  -15.9928   22.6131 C   0  0  1  0  0  0  0  0  0  0  0  0
    7.1941  -15.6616   22.8127 C   0  0  0  0  0  0  0  0  0  0  0  0
    6.9307  -14.7339   23.9117 C   0  0  0  0  0  0  0  0  0  0  0  0
    6.3816  -15.1401   25.1082 C   0  0  0  0  0  0  0  0  0  0  0  0
    6.1518  -14.2230   26.1294 C   0  0  0  0  0  0  0  0  0  0  0  0
    6.4609  -12.9058   25.9770 C   0  0  0  0  0  0  0  0  0  0  0  0
    7.0143  -12.4795   24.7792 C   0  0  0  0  0  0  0  0  0  0  0  0
    7.2390  -13.3988   23.7699 C   0  0  0  0  0  0  0  0  0  0  0  0
    9.2277  -16.6655   23.7941 C   0  0  0  0  0  0  0  0  0  0  0  0
    8.6080  -17.6201   24.3397 O   0  0  0  0  0  0  0  0  0  0  0  0
   10.4654  -16.2516   24.3264 N   0  0  0  0  0  0  0  0  0  0  0  0
   10.8607  -16.5050   25.7220 C   0  0  1  0  0  0  0  0  0  0  0  0
    9.7627  -15.9605   26.5749 C   0  0  0  0  0  0  0  0  0  0  0  0
   10.3237  -15.0398   27.5781 C   0  0  0  0  0  0  0  0  0  0  0  0
   10.0796  -13.6755   27.4290 C   0  0  0  0  0  0  0  0  0  0  0  0
   10.5814  -12.7884   28.3563 C   0  0  0  0  0  0  0  0  0  0  0  0
   11.3197  -13.2366   29.4262 C   0  0  0  0  0  0  0  0  0  0  0  0
   11.5615  -14.5821   29.5751 C   0  0  0  0  0  0  0  0  0  0  0  0
   11.0570  -15.4787   28.6420 C   0  0  0  0  0  0  0  0  0  0  0  0
   11.0679  -17.9590   25.8662 C   0  0  0  0  0  0  0  0  0  0  0  0
   11.5359  -18.4332   26.9204 O   0  0  0  0  0  0  0  0  0  0  0  0
   10.7575  -18.8546   24.8572 O   0  0  0  0  0  0  0  0  0  0  0  0
  2  3  1  0
  2  1  1  6
  3  4  1  0
  5  4  1  0
  6  5  1  0
  7  6  1  0
  8  9  2  0
  8  2  1  0
 10  8  1  0
 11 19  1  0
 11 10  1  0
 11 12  1  1
 13 12  1  0
 14 13  2  0
 15 14  1  0
 16 15  2  0
 16 17  1  0
 17 18  2  0
 18 13  1  0
 19 21  1  0
 20 19  2  0
 21 22  1  0
 22 30  1  0
 23 24  1  0
 22 23  1  1
 24 29  2  0
 25 26  2  0
 25 24  1  0
 26 27  1  0
 27 28  2  0
 29 28  1  0
 30 31  2  0
 30 32  1  0
M  END
$$$$
