KFF.pdb
     RDKit          3D

 32 33  0  0  1  0  0  0  0  0999 V2000
    9.4644  -17.9852   19.4302 N   0  0  0  0  0  0  0  0  0  0  0  0
    8.8316  -18.2072   20.7423 C   0  0  1  0  0  0  0  0  0  0  0  0
    9.4485  -19.4632   21.2747 C   0  0  0  0  0  0  0  0  0  0  0  0
   10.7123  -19.8892   20.6129 C   0  0  0  0  0  0  0  0  0  0  0  0
   11.1258  -21.2338   21.1637 C   0  0  0  0  0  0  0  0  0  0  0  0
   10.2380  -22.3525   20.6890 C   0  0  0  0  0  0  0  0  0  0  0  0
   10.7926  -23.5895   21.2632 N   0  0  0  0  0  0  0  0  0  0  0  0
    9.0890  -17.0460   21.6177 C   0  0  0  0  0  0  0  0  0  0  0  0
   10.0373  -16.2774   21.3331 O   0  0  0  0  0  0  0  0  0  0  0  0
    8.3031  -16.7917   22.7447 N   0  0  0  0  0  0  0  0  0  0  0  0
    8.4372  -15.5732   23.5557 C   0  0  1  0  0  0  0  0  0  0  0  0
    7.0204  -15.2022   23.9468 C   0  0  0  0  0  0  0  0  0  0  0  0
    6.9218  -14.0201   24.8016 C   0  0  0  0  0  0  0  0  0  0  0  0
    6.2150  -14.0182   25.9842 C   0  0  0  0  0  0  0  0  0  0  0  0
    6.1513  -12.8708   26.7693 C   0  0  0  0  0  0  0  0  0  0  0  0
    6.7815  -11.7237   26.3940 C   0  0  0  0  0  0  0  0  0  0  0  0
    7.4973  -11.7077   25.2065 C   0  0  0  0  0  0  0  0  0  0  0  0
    7.5549  -12.8534   24.4329 C   0  0  0  0  0  0  0  0  0  0  0  0
    9.2558  -15.9001   24.7359 C   0  0  0  0  0  0  0  0  0  0  0  0
    8.8547  -15.5904   25.8918 O   0  0  0  0  0  0  0  0  0  0  0  0
   10.4924  -16.5600   24.5876 N   0  0  0  0  0  0  0  0  0  0  0  0
   11.7313  -16.0910   25.2306 C   0  0  1  0  0  0  0  0  0  0  0  0
   11.6296  -16.4766   26.6695 C   0  0  0  0  0  0  0  0  0  0  0  0
   10.7423  -15.5356   27.3739 C   0  0  0  0  0  0  0  0  0  0  0  0
    9.7586  -16.0595   28.2111 C   0  0  0  0  0  0  0  0  0  0  0  0
    8.9191  -15.2058   28.8931 C   0  0  0  0  0  0  0  0  0  0  0  0
    9.0430  -13.8434   28.7551 C   0  0  0  0  0  0  0  0  0  0  0  0
   10.0128  -13.3246   27.9298 C   0  0  0  0  0  0  0  0  0  0  0  0
   10.8607  -14.1825   27.2411 C   0  0  0  0  0  0  0  0  0  0  0  0
   12.8630  -16.7170   24.5199 C   0  0  0  0  0  0  0  0  0  0  0  0
   14.0391  -16.4366   24.8254 O   0  0  0  0  0  0  0  0  0  0  0  0
   12.6800  -17.6320   23.4972 O   0  0  0  0  0  0  0  0  0  0  0  0
  2  3  1  0
  2  1  1  6
  3  4  1  0
  5  4  1  0
  6  5  1  0
  7  6  1  0
  8  9  2  0
  8  2  1  0
 10  8  1  0
 11 19  1  0
 11 10  1  0
 11 12  1  1
 13 12  1  0
 14 13  2  0
 15 14  1  0
 16 15  2  0
 16 17  1  0
 17 18  2  0
 18 13  1  0
 19 21  1  0
 20 19  2  0
 21 22  1  0
 22 30  1  0
 23 24  1  0
 22 23  1  1
 24 29  2  0
 25 26  2  0
 25 24  1  0
 26 27  1  0
 27 28  2  0
 29 28  1  0
 30 31  2  0
 30 32  1  0
M  END
$$$$
