KFF.pdb
     RDKit          3D

 32 33  0  0  1  0  0  0  0  0999 V2000
    9.9303  -17.5626   18.5151 N   0  0  0  0  0  0  0  0  0  0  0  0
    9.3980  -18.0435   19.8022 C   0  0  1  0  0  0  0  0  0  0  0  0
   10.2304  -19.2365   20.1567 C   0  0  0  0  0  0  0  0  0  0  0  0
    9.9738  -20.4618   19.3509 C   0  0  0  0  0  0  0  0  0  0  0  0
    9.7205  -21.6206   20.2865 C   0  0  0  0  0  0  0  0  0  0  0  0
    9.4664  -22.9111   19.5550 C   0  0  0  0  0  0  0  0  0  0  0  0
   10.7053  -23.2186   18.8214 N   0  0  0  0  0  0  0  0  0  0  0  0
    9.5033  -16.9711   20.8121 C   0  0  0  0  0  0  0  0  0  0  0  0
   10.5781  -16.3324   20.9004 O   0  0  0  0  0  0  0  0  0  0  0  0
    8.4383  -16.6593   21.6611 N   0  0  0  0  0  0  0  0  0  0  0  0
    8.5158  -15.6146   22.6922 C   0  0  1  0  0  0  0  0  0  0  0  0
    7.0782  -15.2110   22.9531 C   0  0  0  0  0  0  0  0  0  0  0  0
    6.9145  -14.2210   24.0166 C   0  0  0  0  0  0  0  0  0  0  0  0
    7.2830  -12.9023   23.8640 C   0  0  0  0  0  0  0  0  0  0  0  0
    7.1050  -11.9926   24.9021 C   0  0  0  0  0  0  0  0  0  0  0  0
    6.5651  -12.3767   26.0915 C   0  0  0  0  0  0  0  0  0  0  0  0
    6.1886  -13.7003   26.2625 C   0  0  0  0  0  0  0  0  0  0  0  0
    6.3694  -14.5971   25.2246 C   0  0  0  0  0  0  0  0  0  0  0  0
    9.1380  -16.2035   23.8905 C   0  0  0  0  0  0  0  0  0  0  0  0
    8.8413  -17.3770   24.2478 O   0  0  0  0  0  0  0  0  0  0  0  0
   10.0685  -15.4650   24.6490 N   0  0  0  0  0  0  0  0  0  0  0  0
   10.5391  -15.8951   25.9763 C   0  0  1  0  0  0  0  0  0  0  0  0
   11.0692  -14.6727   26.6504 C   0  0  0  0  0  0  0  0  0  0  0  0
   11.1102  -14.8874   28.1067 C   0  0  0  0  0  0  0  0  0  0  0  0
   10.2739  -14.1138   28.9101 C   0  0  0  0  0  0  0  0  0  0  0  0
   10.2803  -14.2976   30.2757 C   0  0  0  0  0  0  0  0  0  0  0  0
   11.1032  -15.2362   30.8522 C   0  0  0  0  0  0  0  0  0  0  0  0
   11.9289  -16.0004   30.0615 C   0  0  0  0  0  0  0  0  0  0  0  0
   11.9246  -15.8176   28.6846 C   0  0  0  0  0  0  0  0  0  0  0  0
    9.3950  -16.5157   26.6718 C   0  0  0  0  0  0  0  0  0  0  0  0
    9.5119  -17.6304   27.2187 O   0  0  0  0  0  0  0  0  0  0  0  0
    8.1565  -15.9025   26.7523 O   0  0  0  0  0  0  0  0  0  0  0  0
  2  3  1  0
  2  1  1  6
  3  4  1  0
  5  4  1  0
  6  5  1  0
  7  6  1  0
  8  9  2  0
  8  2  1  0
 10  8  1  0
 11 19  1  0
 11 10  1  0
 11 12  1  1
 13 12  1  0
 14 13  2  0
 15 14  1  0
 16 15  2  0
 16 17  1  0
 17 18  2  0
 18 13  1  0
 19 21  1  0
 20 19  2  0
 21 22  1  0
 22 30  1  0
 23 24  1  0
 22 23  1  1
 24 29  2  0
 25 26  2  0
 25 24  1  0
 26 27  1  0
 27 28  2  0
 29 28  1  0
 30 31  2  0
 30 32  1  0
M  END
$$$$
