KFF.pdb
     RDKit          3D

 32 33  0  0  1  0  0  0  0  0999 V2000
    8.7142  -18.0698   19.2475 N   0  0  0  0  0  0  0  0  0  0  0  0
   10.0828  -17.6824   19.6324 C   0  0  1  0  0  0  0  0  0  0  0  0
   10.6363  -16.9482   18.4507 C   0  0  0  0  0  0  0  0  0  0  0  0
   10.7302  -17.7360   17.1909 C   0  0  0  0  0  0  0  0  0  0  0  0
   12.1819  -18.0514   16.9162 C   0  0  0  0  0  0  0  0  0  0  0  0
   12.3695  -18.8831   15.6760 C   0  0  0  0  0  0  0  0  0  0  0  0
   13.8105  -19.1726   15.5893 N   0  0  0  0  0  0  0  0  0  0  0  0
   10.0350  -16.8357   20.8415 C   0  0  0  0  0  0  0  0  0  0  0  0
   11.1057  -16.3549   21.2811 O   0  0  0  0  0  0  0  0  0  0  0  0
    8.8310  -16.5641   21.4965 N   0  0  0  0  0  0  0  0  0  0  0  0
    8.7555  -15.7928   22.7455 C   0  0  1  0  0  0  0  0  0  0  0  0
    7.3210  -15.3094   22.8241 C   0  0  0  0  0  0  0  0  0  0  0  0
    7.0280  -14.4809   23.9927 C   0  0  0  0  0  0  0  0  0  0  0  0
    7.4334  -13.1678   24.0900 C   0  0  0  0  0  0  0  0  0  0  0  0
    7.1287  -12.4145   25.2198 C   0  0  0  0  0  0  0  0  0  0  0  0
    6.4256  -12.9497   26.2557 C   0  0  0  0  0  0  0  0  0  0  0  0
    6.0097  -14.2701   26.1746 C   0  0  0  0  0  0  0  0  0  0  0  0
    6.3175  -15.0108   25.0473 C   0  0  0  0  0  0  0  0  0  0  0  0
    9.0824  -16.6989   23.8601 C   0  0  0  0  0  0  0  0  0  0  0  0
    8.5530  -17.8427   23.9240 O   0  0  0  0  0  0  0  0  0  0  0  0
    9.9871  -16.2993   24.8643 N   0  0  0  0  0  0  0  0  0  0  0  0
   10.5548  -17.2364   25.8480 C   0  0  1  0  0  0  0  0  0  0  0  0
   11.7773  -16.5784   26.3978 C   0  0  0  0  0  0  0  0  0  0  0  0
   11.3874  -15.4833   27.3019 C   0  0  0  0  0  0  0  0  0  0  0  0
   11.1626  -14.2229   26.7505 C   0  0  0  0  0  0  0  0  0  0  0  0
   10.7860  -13.1793   27.5677 C   0  0  0  0  0  0  0  0  0  0  0  0
   10.6301  -13.3700   28.9204 C   0  0  0  0  0  0  0  0  0  0  0  0
   10.8511  -14.6126   29.4662 C   0  0  0  0  0  0  0  0  0  0  0  0
   11.2308  -15.6666   28.6451 C   0  0  0  0  0  0  0  0  0  0  0  0
    9.5119  -17.5041   26.8573 C   0  0  0  0  0  0  0  0  0  0  0  0
    8.4339  -16.8775   26.8393 O   0  0  0  0  0  0  0  0  0  0  0  0
    9.6738  -18.4486   27.8565 O   0  0  0  0  0  0  0  0  0  0  0  0
  2  3  1  0
  2  1  1  6
  3  4  1  0
  5  4  1  0
  6  5  1  0
  7  6  1  0
  8  9  2  0
  8  2  1  0
 10  8  1  0
 11 19  1  0
 11 10  1  0
 11 12  1  1
 13 12  1  0
 14 13  2  0
 15 14  1  0
 16 15  2  0
 16 17  1  0
 17 18  2  0
 18 13  1  0
 19 21  1  0
 20 19  2  0
 21 22  1  0
 22 30  1  0
 23 24  1  0
 22 23  1  1
 24 29  2  0
 25 26  2  0
 25 24  1  0
 26 27  1  0
 27 28  2  0
 29 28  1  0
 30 31  2  0
 30 32  1  0
M  END
$$$$
