KFF.pdb
     RDKit          3D

 32 33  0  0  1  0  0  0  0  0999 V2000
    9.0222  -18.6367   20.8799 N   0  0  0  0  0  0  0  0  0  0  0  0
   10.1517  -17.7275   20.6173 C   0  0  1  0  0  0  0  0  0  0  0  0
   10.0111  -17.3216   19.1830 C   0  0  0  0  0  0  0  0  0  0  0  0
    9.6734  -18.4185   18.2346 C   0  0  0  0  0  0  0  0  0  0  0  0
    9.7681  -17.8923   16.8217 C   0  0  0  0  0  0  0  0  0  0  0  0
    9.5605  -18.9665   15.7882 C   0  0  0  0  0  0  0  0  0  0  0  0
    9.5531  -18.2853   14.4830 N   0  0  0  0  0  0  0  0  0  0  0  0
   10.0782  -16.5712   21.5330 C   0  0  0  0  0  0  0  0  0  0  0  0
   10.9206  -15.6515   21.4083 O   0  0  0  0  0  0  0  0  0  0  0  0
    9.0975  -16.4850   22.5245 N   0  0  0  0  0  0  0  0  0  0  0  0
    8.9631  -15.3264   23.4190 C   0  0  1  0  0  0  0  0  0  0  0  0
    7.4820  -15.0040   23.4263 C   0  0  0  0  0  0  0  0  0  0  0  0
    7.0973  -13.9627   24.3780 C   0  0  0  0  0  0  0  0  0  0  0  0
    7.4756  -12.6464   24.2286 C   0  0  0  0  0  0  0  0  0  0  0  0
    7.0829  -11.6870   25.1571 C   0  0  0  0  0  0  0  0  0  0  0  0
    6.3183  -12.0190   26.2337 C   0  0  0  0  0  0  0  0  0  0  0  0
    5.9285  -13.3393   26.3998 C   0  0  0  0  0  0  0  0  0  0  0  0
    6.3239  -14.2859   25.4713 C   0  0  0  0  0  0  0  0  0  0  0  0
    9.4359  -15.7264   24.7555 C   0  0  0  0  0  0  0  0  0  0  0  0
    9.1198  -15.0458   25.7703 O   0  0  0  0  0  0  0  0  0  0  0  0
   10.2444  -16.8698   24.9152 N   0  0  0  0  0  0  0  0  0  0  0  0
   11.4547  -16.8827   25.7538 C   0  0  1  0  0  0  0  0  0  0  0  0
   10.9879  -17.0501   27.1623 C   0  0  0  0  0  0  0  0  0  0  0  0
   10.4874  -15.7636   27.6753 C   0  0  0  0  0  0  0  0  0  0  0  0
    9.1080  -15.5773   27.7521 C   0  0  0  0  0  0  0  0  0  0  0  0
    8.6072  -14.3890   28.2378 C   0  0  0  0  0  0  0  0  0  0  0  0
    9.4550  -13.3867   28.6467 C   0  0  0  0  0  0  0  0  0  0  0  0
   10.8160  -13.5686   28.5719 C   0  0  0  0  0  0  0  0  0  0  0  0
   11.3239  -14.7653   28.0829 C   0  0  0  0  0  0  0  0  0  0  0  0
   12.3151  -17.9807   25.2721 C   0  0  0  0  0  0  0  0  0  0  0  0
   13.4310  -18.1876   25.7890 O   0  0  0  0  0  0  0  0  0  0  0  0
   11.9335  -18.8225   24.2415 O   0  0  0  0  0  0  0  0  0  0  0  0
  2  3  1  0
  2  1  1  1
  3  4  1  0
  5  4  1  0
  6  5  1  0
  7  6  1  0
  8  9  2  0
  8  2  1  0
 10  8  1  0
 11 19  1  0
 11 10  1  0
 11 12  1  1
 13 12  1  0
 14 13  2  0
 15 14  1  0
 16 15  2  0
 16 17  1  0
 17 18  2  0
 18 13  1  0
 19 21  1  0
 20 19  2  0
 21 22  1  0
 22 30  1  0
 23 24  1  0
 22 23  1  1
 24 29  2  0
 25 26  2  0
 25 24  1  0
 26 27  1  0
 27 28  2  0
 29 28  1  0
 30 31  2  0
 30 32  1  0
M  END
$$$$
