KFF.pdb
     RDKit          3D

 32 33  0  0  1  0  0  0  0  0999 V2000
    9.4220  -17.9174   19.2977 N   0  0  0  0  0  0  0  0  0  0  0  0
    9.0162  -18.1907   20.6876 C   0  0  1  0  0  0  0  0  0  0  0  0
    9.9170  -19.2909   21.1565 C   0  0  0  0  0  0  0  0  0  0  0  0
    9.9891  -20.4846   20.2697 C   0  0  0  0  0  0  0  0  0  0  0  0
    9.3866  -21.6682   20.9898 C   0  0  0  0  0  0  0  0  0  0  0  0
    9.5660  -22.9581   20.2355 C   0  0  0  0  0  0  0  0  0  0  0  0
   10.9246  -23.4317   20.5482 N   0  0  0  0  0  0  0  0  0  0  0  0
    9.1673  -16.9645   21.4966 C   0  0  0  0  0  0  0  0  0  0  0  0
   10.1508  -16.2185   21.2792 O   0  0  0  0  0  0  0  0  0  0  0  0
    8.2440  -16.6249   22.4888 N   0  0  0  0  0  0  0  0  0  0  0  0
    8.4211  -15.4754   23.3876 C   0  0  1  0  0  0  0  0  0  0  0  0
    7.0170  -15.0681   23.7879 C   0  0  0  0  0  0  0  0  0  0  0  0
    6.9484  -13.8379   24.5753 C   0  0  0  0  0  0  0  0  0  0  0  0
    6.4587  -13.8090   25.8627 C   0  0  0  0  0  0  0  0  0  0  0  0
    6.4158  -12.6156   26.5773 C   0  0  0  0  0  0  0  0  0  0  0  0
    6.8536  -11.4489   26.0286 C   0  0  0  0  0  0  0  0  0  0  0  0
    7.3496  -11.4597   24.7337 C   0  0  0  0  0  0  0  0  0  0  0  0
    7.3882  -12.6511   24.0314 C   0  0  0  0  0  0  0  0  0  0  0  0
    9.2062  -15.9239   24.5505 C   0  0  0  0  0  0  0  0  0  0  0  0
    8.7303  -15.8217   25.7149 O   0  0  0  0  0  0  0  0  0  0  0  0
   10.4938  -16.4701   24.3760 N   0  0  0  0  0  0  0  0  0  0  0  0
   11.6283  -16.1399   25.2546 C   0  0  1  0  0  0  0  0  0  0  0  0
   11.3570  -16.8104   26.5608 C   0  0  0  0  0  0  0  0  0  0  0  0
   10.9141  -15.8119   27.5486 C   0  0  0  0  0  0  0  0  0  0  0  0
   10.9707  -14.4650   27.1939 C   0  0  0  0  0  0  0  0  0  0  0  0
   10.5535  -13.5062   28.0913 C   0  0  0  0  0  0  0  0  0  0  0  0
   10.0823  -13.8659   29.3320 C   0  0  0  0  0  0  0  0  0  0  0  0
   10.0255  -15.1941   29.6837 C   0  0  0  0  0  0  0  0  0  0  0  0
   10.4453  -16.1629   28.7812 C   0  0  0  0  0  0  0  0  0  0  0  0
   12.8575  -16.6064   24.5843 C   0  0  0  0  0  0  0  0  0  0  0  0
   13.9686  -16.4857   25.1377 O   0  0  0  0  0  0  0  0  0  0  0  0
   12.8399  -17.1926   23.3302 O   0  0  0  0  0  0  0  0  0  0  0  0
  2  3  1  0
  2  1  1  6
  3  4  1  0
  5  4  1  0
  6  5  1  0
  7  6  1  0
  8  9  2  0
  8  2  1  0
 10  8  1  0
 11 19  1  0
 11 10  1  0
 11 12  1  1
 13 12  1  0
 14 13  2  0
 15 14  1  0
 16 15  2  0
 16 17  1  0
 17 18  2  0
 18 13  1  0
 19 21  1  0
 20 19  2  0
 21 22  1  0
 22 30  1  0
 23 24  1  0
 22 23  1  1
 24 29  2  0
 25 26  2  0
 25 24  1  0
 26 27  1  0
 27 28  2  0
 29 28  1  0
 30 31  2  0
 30 32  1  0
M  END
$$$$
