KFF.pdb
     RDKit          3D

 32 33  0  0  1  0  0  0  0  0999 V2000
    8.8093  -18.5201   20.0033 N   0  0  0  0  0  0  0  0  0  0  0  0
   10.1158  -17.8469   20.1095 C   0  0  1  0  0  0  0  0  0  0  0  0
   10.3485  -17.2158   18.7719 C   0  0  0  0  0  0  0  0  0  0  0  0
   10.0480  -18.0757   17.5943 C   0  0  0  0  0  0  0  0  0  0  0  0
   10.4948  -17.3632   16.3393 C   0  0  0  0  0  0  0  0  0  0  0  0
   10.4121  -18.2367   15.1164 C   0  0  0  0  0  0  0  0  0  0  0  0
   10.9295  -17.4296   13.9990 N   0  0  0  0  0  0  0  0  0  0  0  0
   10.0698  -16.8478   21.1961 C   0  0  0  0  0  0  0  0  0  0  0  0
   11.0644  -16.1059   21.3728 O   0  0  0  0  0  0  0  0  0  0  0  0
    8.9499  -16.7164   22.0213 N   0  0  0  0  0  0  0  0  0  0  0  0
    8.8902  -15.7708   23.1452 C   0  0  1  0  0  0  0  0  0  0  0  0
    7.4797  -15.2162   23.1190 C   0  0  0  0  0  0  0  0  0  0  0  0
    7.1725  -14.3004   24.2166 C   0  0  0  0  0  0  0  0  0  0  0  0
    6.4270  -14.6800   25.3113 C   0  0  0  0  0  0  0  0  0  0  0  0
    6.1623  -13.7760   26.3357 C   0  0  0  0  0  0  0  0  0  0  0  0
    6.6291  -12.4979   26.2866 C   0  0  0  0  0  0  0  0  0  0  0  0
    7.3811  -12.0987   25.1920 C   0  0  0  0  0  0  0  0  0  0  0  0
    7.6391  -13.0047   24.1786 C   0  0  0  0  0  0  0  0  0  0  0  0
    9.1532  -16.5211   24.3853 C   0  0  0  0  0  0  0  0  0  0  0  0
    8.2805  -16.5677   25.2958 O   0  0  0  0  0  0  0  0  0  0  0  0
   10.3787  -17.1927   24.5682 N   0  0  0  0  0  0  0  0  0  0  0  0
   11.1799  -17.0741   25.7979 C   0  0  1  0  0  0  0  0  0  0  0  0
   11.6088  -15.6464   25.8836 C   0  0  0  0  0  0  0  0  0  0  0  0
   11.1014  -15.0499   27.1307 C   0  0  0  0  0  0  0  0  0  0  0  0
   11.6343  -15.4969   28.3388 C   0  0  0  0  0  0  0  0  0  0  0  0
   11.1889  -14.9514   29.5231 C   0  0  0  0  0  0  0  0  0  0  0  0
   10.2246  -13.9713   29.5239 C   0  0  0  0  0  0  0  0  0  0  0  0
    9.6977  -13.5288   28.3333 C   0  0  0  0  0  0  0  0  0  0  0  0
   10.1447  -14.0766   27.1378 C   0  0  0  0  0  0  0  0  0  0  0  0
   10.3321  -17.5146   26.9226 C   0  0  0  0  0  0  0  0  0  0  0  0
   10.8344  -17.7725   28.0346 O   0  0  0  0  0  0  0  0  0  0  0  0
    8.9606  -17.6602   26.8030 O   0  0  0  0  0  0  0  0  0  0  0  0
  2  3  1  0
  2  1  1  6
  3  4  1  0
  5  4  1  0
  6  5  1  0
  7  6  1  0
  8  9  2  0
  8  2  1  0
 10  8  1  0
 11 19  1  0
 11 10  1  0
 11 12  1  1
 13 12  1  0
 14 13  2  0
 15 14  1  0
 16 15  2  0
 16 17  1  0
 17 18  2  0
 18 13  1  0
 19 21  1  0
 20 19  2  0
 21 22  1  0
 22 30  1  0
 23 24  1  0
 22 23  1  1
 24 29  2  0
 25 26  2  0
 25 24  1  0
 26 27  1  0
 27 28  2  0
 29 28  1  0
 30 31  2  0
 30 32  1  0
M  END
$$$$
