KFF.pdb
     RDKit          3D

 32 33  0  0  1  0  0  0  0  0999 V2000
    4.7880  -20.0294   23.6945 N   0  0  0  0  0  0  0  0  0  0  0  0
    5.4838  -19.3078   22.6145 C   0  0  1  0  0  0  0  0  0  0  0  0
    4.5267  -19.2944   21.4632 C   0  0  0  0  0  0  0  0  0  0  0  0
    5.0412  -19.8754   20.1927 C   0  0  0  0  0  0  0  0  0  0  0  0
    4.2367  -21.1090   19.8557 C   0  0  0  0  0  0  0  0  0  0  0  0
    4.6314  -21.7156   18.5361 C   0  0  0  0  0  0  0  0  0  0  0  0
    3.7893  -22.9111   18.3650 N   0  0  0  0  0  0  0  0  0  0  0  0
    5.8250  -17.9452   23.0707 C   0  0  0  0  0  0  0  0  0  0  0  0
    5.4102  -16.9673   22.4054 O   0  0  0  0  0  0  0  0  0  0  0  0
    6.5932  -17.7293   24.2177 N   0  0  0  0  0  0  0  0  0  0  0  0
    7.2113  -16.4340   24.5351 C   0  0  1  0  0  0  0  0  0  0  0  0
    6.7650  -16.1205   25.9494 C   0  0  0  0  0  0  0  0  0  0  0  0
    7.0449  -14.7513   26.3794 C   0  0  0  0  0  0  0  0  0  0  0  0
    6.0811  -13.7670   26.3907 C   0  0  0  0  0  0  0  0  0  0  0  0
    6.3909  -12.4773   26.8122 C   0  0  0  0  0  0  0  0  0  0  0  0
    7.6478  -12.1525   27.2228 C   0  0  0  0  0  0  0  0  0  0  0  0
    8.6304  -13.1309   27.2177 C   0  0  0  0  0  0  0  0  0  0  0  0
    8.3126  -14.4101   26.7971 C   0  0  0  0  0  0  0  0  0  0  0  0
    8.6731  -16.5952   24.4526 C   0  0  0  0  0  0  0  0  0  0  0  0
    9.3587  -16.7146   25.5056 O   0  0  0  0  0  0  0  0  0  0  0  0
    9.3204  -16.6175   23.2008 N   0  0  0  0  0  0  0  0  0  0  0  0
   10.2723  -15.5782   22.7741 C   0  0  1  0  0  0  0  0  0  0  0  0
    9.5830  -14.2691   22.9757 C   0  0  0  0  0  0  0  0  0  0  0  0
    8.8016  -13.9296   21.7745 C   0  0  0  0  0  0  0  0  0  0  0  0
    9.2816  -14.3520   20.5358 C   0  0  0  0  0  0  0  0  0  0  0  0
    8.5686  -14.0600   19.3934 C   0  0  0  0  0  0  0  0  0  0  0  0
    7.3893  -13.3566   19.4645 C   0  0  0  0  0  0  0  0  0  0  0  0
    6.9141  -12.9391   20.6855 C   0  0  0  0  0  0  0  0  0  0  0  0
    7.6304  -13.2320   21.8388 C   0  0  0  0  0  0  0  0  0  0  0  0
   11.4973  -15.7421   23.5807 C   0  0  0  0  0  0  0  0  0  0  0  0
   12.5532  -16.1501   23.0575 O   0  0  0  0  0  0  0  0  0  0  0  0
   11.5361  -15.4551   24.9344 O   0  0  0  0  0  0  0  0  0  0  0  0
  2  3  1  0
  2  1  1  1
  3  4  1  0
  5  4  1  0
  6  5  1  0
  7  6  1  0
  8  9  2  0
  8  2  1  0
 10  8  1  0
 11 19  1  0
 11 10  1  0
 11 12  1  1
 13 12  1  0
 14 13  2  0
 15 14  1  0
 16 15  2  0
 16 17  1  0
 17 18  2  0
 18 13  1  0
 19 21  1  0
 20 19  2  0
 21 22  1  0
 22 30  1  0
 23 24  1  0
 22 23  1  1
 24 29  2  0
 25 26  2  0
 25 24  1  0
 26 27  1  0
 27 28  2  0
 29 28  1  0
 30 31  2  0
 30 32  1  0
M  END
$$$$
