KFF.pdb
     RDKit          3D

 32 33  0  0  1  0  0  0  0  0999 V2000
    8.8232  -19.0620   19.8404 N   0  0  0  0  0  0  0  0  0  0  0  0
   10.1149  -18.3530   19.8322 C   0  0  1  0  0  0  0  0  0  0  0  0
   10.4103  -18.0800   18.3900 C   0  0  0  0  0  0  0  0  0  0  0  0
    9.6793  -18.9315   17.4117 C   0  0  0  0  0  0  0  0  0  0  0  0
   10.0703  -18.5177   16.0123 C   0  0  0  0  0  0  0  0  0  0  0  0
    9.2451  -19.1997   14.9545 C   0  0  0  0  0  0  0  0  0  0  0  0
    9.7975  -18.7676   13.6600 N   0  0  0  0  0  0  0  0  0  0  0  0
   10.0013  -17.1104   20.6223 C   0  0  0  0  0  0  0  0  0  0  0  0
   10.9010  -16.2447   20.5131 O   0  0  0  0  0  0  0  0  0  0  0  0
    8.9210  -16.8853   21.4794 N   0  0  0  0  0  0  0  0  0  0  0  0
    8.8317  -15.7151   22.3644 C   0  0  1  0  0  0  0  0  0  0  0  0
    7.5456  -15.9075   23.1434 C   0  0  0  0  0  0  0  0  0  0  0  0
    7.2479  -14.8325   24.0888 C   0  0  0  0  0  0  0  0  0  0  0  0
    6.5435  -15.0447   25.2536 C   0  0  0  0  0  0  0  0  0  0  0  0
    6.2864  -13.9924   26.1273 C   0  0  0  0  0  0  0  0  0  0  0  0
    6.7206  -12.7303   25.8583 C   0  0  0  0  0  0  0  0  0  0  0  0
    7.4310  -12.4987   24.6902 C   0  0  0  0  0  0  0  0  0  0  0  0
    7.6817  -13.5513   23.8279 C   0  0  0  0  0  0  0  0  0  0  0  0
   10.0076  -15.7248   23.2515 C   0  0  0  0  0  0  0  0  0  0  0  0
   10.9065  -14.8483   23.1230 O   0  0  0  0  0  0  0  0  0  0  0  0
   10.1416  -16.7103   24.2502 N   0  0  0  0  0  0  0  0  0  0  0  0
   10.5079  -16.3948   25.6410 C   0  0  1  0  0  0  0  0  0  0  0  0
    9.3716  -15.6081   26.2064 C   0  0  0  0  0  0  0  0  0  0  0  0
    9.7322  -15.1061   27.5430 C   0  0  0  0  0  0  0  0  0  0  0  0
   10.0241  -16.0366   28.5391 C   0  0  0  0  0  0  0  0  0  0  0  0
   10.3755  -15.5995   29.7977 C   0  0  0  0  0  0  0  0  0  0  0  0
   10.4408  -14.2553   30.0794 C   0  0  0  0  0  0  0  0  0  0  0  0
   10.1535  -13.3358   29.0982 C   0  0  0  0  0  0  0  0  0  0  0  0
    9.7990  -13.7732   27.8285 C   0  0  0  0  0  0  0  0  0  0  0  0
   10.7562  -17.6737   26.3343 C   0  0  0  0  0  0  0  0  0  0  0  0
   11.7843  -17.8354   27.0214 O   0  0  0  0  0  0  0  0  0  0  0  0
    9.8757  -18.7393   26.2596 O   0  0  0  0  0  0  0  0  0  0  0  0
  2  3  1  0
  2  1  1  6
  3  4  1  0
  5  4  1  0
  6  5  1  0
  7  6  1  0
  8  9  2  0
  8  2  1  0
 10  8  1  0
 11 19  1  0
 11 10  1  0
 11 12  1  1
 13 12  1  0
 14 13  2  0
 15 14  1  0
 16 15  2  0
 16 17  1  0
 17 18  2  0
 18 13  1  0
 19 21  1  0
 20 19  2  0
 21 22  1  0
 22 30  1  0
 23 24  1  0
 22 23  1  1
 24 29  2  0
 25 26  2  0
 25 24  1  0
 26 27  1  0
 27 28  2  0
 29 28  1  0
 30 31  2  0
 30 32  1  0
M  END
$$$$
