KFF.pdb
     RDKit          3D

 32 33  0  0  1  0  0  0  0  0999 V2000
    3.5272  -18.9637   22.1885 N   0  0  0  0  0  0  0  0  0  0  0  0
    4.9714  -19.0063   22.4776 C   0  0  1  0  0  0  0  0  0  0  0  0
    5.6168  -19.4832   21.2136 C   0  0  0  0  0  0  0  0  0  0  0  0
    5.3198  -20.8913   20.8318 C   0  0  0  0  0  0  0  0  0  0  0  0
    6.6081  -21.6803   20.8249 C   0  0  0  0  0  0  0  0  0  0  0  0
    6.4295  -23.0768   20.2932 C   0  0  0  0  0  0  0  0  0  0  0  0
    7.7566  -23.7118   20.3513 N   0  0  0  0  0  0  0  0  0  0  0  0
    5.4372  -17.6600   22.8669 C   0  0  0  0  0  0  0  0  0  0  0  0
    5.3216  -16.7226   22.0429 O   0  0  0  0  0  0  0  0  0  0  0  0
    5.9979  -17.4153   24.1231 N   0  0  0  0  0  0  0  0  0  0  0  0
    6.7285  -16.1817   24.4471 C   0  0  1  0  0  0  0  0  0  0  0  0
    6.4851  -15.9565   25.9263 C   0  0  0  0  0  0  0  0  0  0  0  0
    6.9300  -14.6534   26.4180 C   0  0  0  0  0  0  0  0  0  0  0  0
    8.2078  -14.4346   26.8842 C   0  0  0  0  0  0  0  0  0  0  0  0
    8.5898  -13.1761   27.3392 C   0  0  0  0  0  0  0  0  0  0  0  0
    7.7174  -12.1307   27.3372 C   0  0  0  0  0  0  0  0  0  0  0  0
    6.4270  -12.3331   26.8715 C   0  0  0  0  0  0  0  0  0  0  0  0
    6.0567  -13.5879   26.4211 C   0  0  0  0  0  0  0  0  0  0  0  0
    8.1556  -16.4102   24.1627 C   0  0  0  0  0  0  0  0  0  0  0  0
    8.6728  -17.5408   24.3799 O   0  0  0  0  0  0  0  0  0  0  0  0
    8.9569  -15.3718   23.6467 N   0  0  0  0  0  0  0  0  0  0  0  0
   10.2745  -15.6080   23.0332 C   0  0  1  0  0  0  0  0  0  0  0  0
   10.5622  -14.4142   22.1837 C   0  0  0  0  0  0  0  0  0  0  0  0
    9.3890  -14.1049   21.3489 C   0  0  0  0  0  0  0  0  0  0  0  0
    9.1480  -14.9020   20.2309 C   0  0  0  0  0  0  0  0  0  0  0  0
    8.0527  -14.6459   19.4352 C   0  0  0  0  0  0  0  0  0  0  0  0
    7.1964  -13.6123   19.7336 C   0  0  0  0  0  0  0  0  0  0  0  0
    7.4324  -12.8249   20.8360 C   0  0  0  0  0  0  0  0  0  0  0  0
    8.5356  -13.0806   21.6402 C   0  0  0  0  0  0  0  0  0  0  0  0
   11.2423  -15.8127   24.1283 C   0  0  0  0  0  0  0  0  0  0  0  0
   10.9081  -15.6265   25.3153 O   0  0  0  0  0  0  0  0  0  0  0  0
   12.5465  -16.2158   23.8979 O   0  0  0  0  0  0  0  0  0  0  0  0
  2  3  1  0
  2  1  1  6
  3  4  1  0
  5  4  1  0
  6  5  1  0
  7  6  1  0
  8  9  2  0
  8  2  1  0
 10  8  1  0
 11 19  1  0
 11 10  1  0
 11 12  1  1
 13 12  1  0
 14 13  2  0
 15 14  1  0
 16 15  2  0
 16 17  1  0
 17 18  2  0
 18 13  1  0
 19 21  1  0
 20 19  2  0
 21 22  1  0
 22 30  1  0
 23 24  1  0
 22 23  1  1
 24 29  2  0
 25 26  2  0
 25 24  1  0
 26 27  1  0
 27 28  2  0
 29 28  1  0
 30 31  2  0
 30 32  1  0
M  END
$$$$
