KFF.pdb
     RDKit          3D

 32 33  0  0  1  0  0  0  0  0999 V2000
    9.0737  -18.0600   18.8907 N   0  0  0  0  0  0  0  0  0  0  0  0
    9.7634  -18.2749   20.1750 C   0  0  1  0  0  0  0  0  0  0  0  0
   11.1594  -18.6788   19.8148 C   0  0  0  0  0  0  0  0  0  0  0  0
   11.2734  -19.8033   18.8458 C   0  0  0  0  0  0  0  0  0  0  0  0
   12.7356  -20.0849   18.5904 C   0  0  0  0  0  0  0  0  0  0  0  0
   12.9496  -21.2971   17.7244 C   0  0  0  0  0  0  0  0  0  0  0  0
   14.3811  -21.3091   17.3805 N   0  0  0  0  0  0  0  0  0  0  0  0
    9.7312  -17.0291   20.9675 C   0  0  0  0  0  0  0  0  0  0  0  0
   10.5115  -16.0989   20.6567 O   0  0  0  0  0  0  0  0  0  0  0  0
    8.8561  -16.8708   22.0453 N   0  0  0  0  0  0  0  0  0  0  0  0
    8.8042  -15.6495   22.8616 C   0  0  1  0  0  0  0  0  0  0  0  0
    7.3774  -15.5743   23.3680 C   0  0  0  0  0  0  0  0  0  0  0  0
    7.1479  -14.5331   24.3685 C   0  0  0  0  0  0  0  0  0  0  0  0
    6.5414  -14.7897   25.5787 C   0  0  0  0  0  0  0  0  0  0  0  0
    6.3467  -13.7685   26.5038 C   0  0  0  0  0  0  0  0  0  0  0  0
    6.7472  -12.4938   26.2418 C   0  0  0  0  0  0  0  0  0  0  0  0
    7.3592  -12.2175   25.0286 C   0  0  0  0  0  0  0  0  0  0  0  0
    7.5484  -13.2396   24.1153 C   0  0  0  0  0  0  0  0  0  0  0  0
    9.7636  -15.8014   23.9689 C   0  0  0  0  0  0  0  0  0  0  0  0
   10.5708  -14.8702   24.2413 O   0  0  0  0  0  0  0  0  0  0  0  0
    9.7908  -16.9849   24.7339 N   0  0  0  0  0  0  0  0  0  0  0  0
   10.5922  -17.1256   25.9612 C   0  0  1  0  0  0  0  0  0  0  0  0
    9.6228  -17.1349   27.0969 C   0  0  0  0  0  0  0  0  0  0  0  0
    9.7183  -15.8678   27.8412 C   0  0  0  0  0  0  0  0  0  0  0  0
   10.3893  -15.8709   29.0631 C   0  0  0  0  0  0  0  0  0  0  0  0
   10.5057  -14.6996   29.7793 C   0  0  0  0  0  0  0  0  0  0  0  0
    9.9666  -13.5290   29.2999 C   0  0  0  0  0  0  0  0  0  0  0  0
    9.3045  -13.5238   28.0947 C   0  0  0  0  0  0  0  0  0  0  0  0
    9.1856  -14.7029   27.3704 C   0  0  0  0  0  0  0  0  0  0  0  0
   11.3808  -18.3665   25.8349 C   0  0  0  0  0  0  0  0  0  0  0  0
   12.6111  -18.3616   26.0390 O   0  0  0  0  0  0  0  0  0  0  0  0
   10.8052  -19.5777   25.4911 O   0  0  0  0  0  0  0  0  0  0  0  0
  2  3  1  0
  2  1  1  6
  3  4  1  0
  5  4  1  0
  6  5  1  0
  7  6  1  0
  8  9  2  0
  8  2  1  0
 10  8  1  0
 11 19  1  0
 11 10  1  0
 11 12  1  1
 13 12  1  0
 14 13  2  0
 15 14  1  0
 16 15  2  0
 16 17  1  0
 17 18  2  0
 18 13  1  0
 19 21  1  0
 20 19  2  0
 21 22  1  0
 22 30  1  0
 23 24  1  0
 22 23  1  1
 24 29  2  0
 25 26  2  0
 25 24  1  0
 26 27  1  0
 27 28  2  0
 29 28  1  0
 30 31  2  0
 30 32  1  0
M  END
$$$$
