KFF.pdb
     RDKit          3D

 32 33  0  0  1  0  0  0  0  0999 V2000
    8.6306  -18.3296   19.6743 N   0  0  0  0  0  0  0  0  0  0  0  0
    9.8753  -17.5419   19.6340 C   0  0  1  0  0  0  0  0  0  0  0  0
    9.9212  -16.9395   18.2641 C   0  0  0  0  0  0  0  0  0  0  0  0
   10.8416  -17.6034   17.3004 C   0  0  0  0  0  0  0  0  0  0  0  0
   10.0332  -18.4845   16.3770 C   0  0  0  0  0  0  0  0  0  0  0  0
   10.8636  -19.0844   15.2745 C   0  0  0  0  0  0  0  0  0  0  0  0
    9.9844  -20.0281   14.5646 N   0  0  0  0  0  0  0  0  0  0  0  0
    9.8437  -16.5137   20.6936 C   0  0  0  0  0  0  0  0  0  0  0  0
   10.7913  -15.6966   20.7666 O   0  0  0  0  0  0  0  0  0  0  0  0
    8.7881  -16.4363   21.6058 N   0  0  0  0  0  0  0  0  0  0  0  0
    8.7939  -15.5284   22.7618 C   0  0  1  0  0  0  0  0  0  0  0  0
    7.3645  -15.0396   22.8864 C   0  0  0  0  0  0  0  0  0  0  0  0
    7.1346  -14.1310   24.0086 C   0  0  0  0  0  0  0  0  0  0  0  0
    7.6085  -12.8374   24.0233 C   0  0  0  0  0  0  0  0  0  0  0  0
    7.3622  -12.0054   25.1113 C   0  0  0  0  0  0  0  0  0  0  0  0
    6.6504  -12.4425   26.1865 C   0  0  0  0  0  0  0  0  0  0  0  0
    6.1660  -13.7418   26.1886 C   0  0  0  0  0  0  0  0  0  0  0  0
    6.4159  -14.5614   25.1023 C   0  0  0  0  0  0  0  0  0  0  0  0
    9.2058  -16.3021   23.9457 C   0  0  0  0  0  0  0  0  0  0  0  0
    8.3375  -16.7493   24.7450 O   0  0  0  0  0  0  0  0  0  0  0  0
   10.5700  -16.5504   24.1983 N   0  0  0  0  0  0  0  0  0  0  0  0
   11.1870  -16.3546   25.5209 C   0  0  1  0  0  0  0  0  0  0  0  0
   10.1424  -16.7069   26.5279 C   0  0  0  0  0  0  0  0  0  0  0  0
   10.0847  -15.6658   27.5679 C   0  0  0  0  0  0  0  0  0  0  0  0
    9.8278  -14.3539   27.1727 C   0  0  0  0  0  0  0  0  0  0  0  0
    9.7566  -13.3580   28.1223 C   0  0  0  0  0  0  0  0  0  0  0  0
    9.9364  -13.6464   29.4546 C   0  0  0  0  0  0  0  0  0  0  0  0
   10.1898  -14.9400   29.8465 C   0  0  0  0  0  0  0  0  0  0  0  0
   10.2620  -15.9461   28.8917 C   0  0  0  0  0  0  0  0  0  0  0  0
   12.3892  -17.2086   25.5792 C   0  0  0  0  0  0  0  0  0  0  0  0
   12.4903  -18.2149   24.8495 O   0  0  0  0  0  0  0  0  0  0  0  0
   13.4473  -16.9402   26.4306 O   0  0  0  0  0  0  0  0  0  0  0  0
  2  3  1  0
  2  1  1  6
  3  4  1  0
  5  4  1  0
  6  5  1  0
  7  6  1  0
  8  9  2  0
  8  2  1  0
 10  8  1  0
 11 19  1  0
 11 10  1  0
 11 12  1  1
 13 12  1  0
 14 13  2  0
 15 14  1  0
 16 15  2  0
 16 17  1  0
 17 18  2  0
 18 13  1  0
 19 21  1  0
 20 19  2  0
 21 22  1  0
 22 30  1  0
 23 24  1  0
 22 23  1  1
 24 29  2  0
 25 26  2  0
 25 24  1  0
 26 27  1  0
 27 28  2  0
 29 28  1  0
 30 31  2  0
 30 32  1  0
M  END
$$$$
