KFF.pdb
     RDKit          3D

 32 33  0  0  1  0  0  0  0  0999 V2000
    9.5663  -21.0369   21.1726 N   0  0  0  0  0  0  0  0  0  0  0  0
    8.9237  -20.1856   22.1893 C   0  0  1  0  0  0  0  0  0  0  0  0
    9.5059  -20.6202   23.4984 C   0  0  0  0  0  0  0  0  0  0  0  0
    9.6441  -22.0909   23.6840 C   0  0  0  0  0  0  0  0  0  0  0  0
    9.9887  -22.3734   25.1275 C   0  0  0  0  0  0  0  0  0  0  0  0
   10.0873  -23.8460   25.4222 C   0  0  0  0  0  0  0  0  0  0  0  0
    8.7041  -24.3313   25.5596 N   0  0  0  0  0  0  0  0  0  0  0  0
    9.2086  -18.7663   21.8969 C   0  0  0  0  0  0  0  0  0  0  0  0
   10.3259  -18.4645   21.4159 O   0  0  0  0  0  0  0  0  0  0  0  0
    8.2655  -17.7655   22.1442 N   0  0  0  0  0  0  0  0  0  0  0  0
    8.5427  -16.3364   21.9406 C   0  0  1  0  0  0  0  0  0  0  0  0
    7.2592  -15.7628   21.3738 C   0  0  0  0  0  0  0  0  0  0  0  0
    7.3303  -14.3405   21.0421 C   0  0  0  0  0  0  0  0  0  0  0  0
    7.0742  -13.3510   21.9658 C   0  0  0  0  0  0  0  0  0  0  0  0
    7.1578  -12.0089   21.6073 C   0  0  0  0  0  0  0  0  0  0  0  0
    7.4929  -11.6367   20.3412 C   0  0  0  0  0  0  0  0  0  0  0  0
    7.7538  -12.6196   19.3986 C   0  0  0  0  0  0  0  0  0  0  0  0
    7.6681  -13.9512   19.7646 C   0  0  0  0  0  0  0  0  0  0  0  0
    8.8672  -15.7449   23.2501 C   0  0  0  0  0  0  0  0  0  0  0  0
    8.6964  -14.5103   23.4485 O   0  0  0  0  0  0  0  0  0  0  0  0
    9.3708  -16.5489   24.2925 N   0  0  0  0  0  0  0  0  0  0  0  0
    9.4377  -16.0947   25.6917 C   0  0  1  0  0  0  0  0  0  0  0  0
    8.0424  -15.7354   26.0837 C   0  0  0  0  0  0  0  0  0  0  0  0
    7.8940  -14.2704   26.1025 C   0  0  0  0  0  0  0  0  0  0  0  0
    6.6052  -13.7392   26.1030 C   0  0  0  0  0  0  0  0  0  0  0  0
    6.4317  -12.3725   26.1313 C   0  0  0  0  0  0  0  0  0  0  0  0
    7.5173  -11.5292   26.1590 C   0  0  0  0  0  0  0  0  0  0  0  0
    8.7895  -12.0512   26.1587 C   0  0  0  0  0  0  0  0  0  0  0  0
    8.9676  -13.4284   26.1303 C   0  0  0  0  0  0  0  0  0  0  0  0
   10.0204  -17.1935   26.4861 C   0  0  0  0  0  0  0  0  0  0  0  0
    9.8927  -18.3792   26.1212 O   0  0  0  0  0  0  0  0  0  0  0  0
   10.7267  -16.9679   27.6552 O   0  0  0  0  0  0  0  0  0  0  0  0
  2  3  1  0
  2  1  1  6
  3  4  1  0
  5  4  1  0
  6  5  1  0
  7  6  1  0
  8  9  2  0
  8  2  1  0
 10  8  1  0
 11 19  1  0
 11 10  1  0
 11 12  1  1
 13 12  1  0
 14 13  2  0
 15 14  1  0
 16 15  2  0
 16 17  1  0
 17 18  2  0
 18 13  1  0
 19 21  1  0
 20 19  2  0
 21 22  1  0
 22 30  1  0
 23 24  1  0
 22 23  1  1
 24 29  2  0
 25 26  2  0
 25 24  1  0
 26 27  1  0
 27 28  2  0
 29 28  1  0
 30 31  2  0
 30 32  1  0
M  END
$$$$
