FFS.pdb
     RDKit          3D

 29 30  0  0  1  0  0  0  0  0999 V2000
    8.5424  -16.4781   21.8657 N   0  0  0  0  0  0  0  0  0  0  0  0
    9.0816  -15.2572   22.4313 C   0  0  1  0  0  0  0  0  0  0  0  0
    8.1029  -14.1320   22.3953 C   0  0  0  0  0  0  0  0  0  0  0  0
    7.9264  -13.6929   20.9787 C   0  0  0  0  0  0  0  0  0  0  0  0
    8.8177  -12.8968   20.3293 C   0  0  0  0  0  0  0  0  0  0  0  0
    8.5625  -12.5416   19.0184 C   0  0  0  0  0  0  0  0  0  0  0  0
    7.4257  -12.9872   18.3841 C   0  0  0  0  0  0  0  0  0  0  0  0
    6.5200  -13.7935   19.0370 C   0  0  0  0  0  0  0  0  0  0  0  0
    6.7724  -14.1452   20.3344 C   0  0  0  0  0  0  0  0  0  0  0  0
    9.4741  -15.5315   23.8351 C   0  0  0  0  0  0  0  0  0  0  0  0
   10.5839  -15.0941   24.2807 O   0  0  0  0  0  0  0  0  0  0  0  0
    8.6654  -16.2680   24.7236 N   0  0  0  0  0  0  0  0  0  0  0  0
    8.9705  -16.2560   26.1432 C   0  0  1  0  0  0  0  0  0  0  0  0
    7.6662  -15.9960   26.8556 C   0  0  0  0  0  0  0  0  0  0  0  0
    7.3702  -14.5541   26.8440 C   0  0  0  0  0  0  0  0  0  0  0  0
    6.2125  -14.0847   26.3045 C   0  0  0  0  0  0  0  0  0  0  0  0
    5.9345  -12.7322   26.3007 C   0  0  0  0  0  0  0  0  0  0  0  0
    6.8533  -11.8726   26.8536 C   0  0  0  0  0  0  0  0  0  0  0  0
    8.0381  -12.3069   27.4101 C   0  0  0  0  0  0  0  0  0  0  0  0
    8.2728  -13.6689   27.3911 C   0  0  0  0  0  0  0  0  0  0  0  0
    9.5567  -17.5568   26.4995 C   0  0  0  0  0  0  0  0  0  0  0  0
    9.6472  -17.9368   27.6916 O   0  0  0  0  0  0  0  0  0  0  0  0
   11.2074  -19.7649   23.5499 O   0  0  0  0  0  0  0  0  0  0  0  0
   10.8455  -20.5696   24.6358 C   0  0  0  0  0  0  0  0  0  0  0  0
   10.6866  -19.6554   25.8263 C   0  0  2  0  0  0  0  0  0  0  0  0
   10.0346  -18.4108   25.4793 N   0  0  0  0  0  0  0  0  0  0  0  0
   12.0485  -19.3663   26.3440 C   0  0  0  0  0  0  0  0  0  0  0  0
   12.4658  -18.1817   26.3929 O   0  0  0  0  0  0  0  0  0  0  0  0
   12.9162  -20.3517   26.7911 O   0  0  0  0  0  0  0  0  0  0  0  0
  2 10  1  0
  2  1  1  1
  2  3  1  0
  4  3  1  0
  4  9  1  0
  5  4  2  0
  6  5  1  0
  6  7  2  0
  7  8  1  0
  8  9  2  0
 10 11  2  0
 12 13  1  0
 12 10  1  0
 13 21  1  0
 14 15  1  0
 13 14  1  1
 15 16  2  0
 16 17  1  0
 18 17  2  0
 19 18  1  0
 20 15  1  0
 20 19  2  0
 21 22  2  0
 21 26  1  0
 25 24  1  6
 24 23  1  0
 25 27  1  0
 26 25  1  0
 27 28  2  0
 27 29  1  0
M  END
$$$$
