FFS.pdb
     RDKit          3D

 29 30  0  0  1  0  0  0  0  0999 V2000
   11.7860  -16.3642   22.3023 N   0  0  0  0  0  0  0  0  0  0  0  0
   10.4920  -15.7147   22.3735 C   0  0  1  0  0  0  0  0  0  0  0  0
    9.5870  -16.1246   21.2608 C   0  0  0  0  0  0  0  0  0  0  0  0
    8.5166  -15.0945   21.1068 C   0  0  0  0  0  0  0  0  0  0  0  0
    7.1899  -15.3797   21.1985 C   0  0  0  0  0  0  0  0  0  0  0  0
    6.2754  -14.3564   21.0369 C   0  0  0  0  0  0  0  0  0  0  0  0
    6.7028  -13.0724   20.7877 C   0  0  0  0  0  0  0  0  0  0  0  0
    8.0449  -12.7781   20.6940 C   0  0  0  0  0  0  0  0  0  0  0  0
    8.9501  -13.7908   20.8539 C   0  0  0  0  0  0  0  0  0  0  0  0
    9.8709  -16.0621   23.6747 C   0  0  0  0  0  0  0  0  0  0  0  0
   10.5565  -16.6608   24.5654 O   0  0  0  0  0  0  0  0  0  0  0  0
    8.5306  -15.7579   23.9860 N   0  0  0  0  0  0  0  0  0  0  0  0
    8.0498  -15.9568   25.3417 C   0  0  1  0  0  0  0  0  0  0  0  0
    6.7441  -15.2078   25.4432 C   0  0  0  0  0  0  0  0  0  0  0  0
    6.9955  -13.8228   25.8739 C   0  0  0  0  0  0  0  0  0  0  0  0
    8.1352  -13.4968   26.5419 C   0  0  0  0  0  0  0  0  0  0  0  0
    8.3715  -12.1956   26.9390 C   0  0  0  0  0  0  0  0  0  0  0  0
    7.4297  -11.2391   26.6443 C   0  0  0  0  0  0  0  0  0  0  0  0
    6.2619  -11.5273   25.9697 C   0  0  0  0  0  0  0  0  0  0  0  0
    6.0691  -12.8429   25.5923 C   0  0  0  0  0  0  0  0  0  0  0  0
    7.8890  -17.4011   25.5664 C   0  0  0  0  0  0  0  0  0  0  0  0
    7.1955  -17.8500   26.5104 O   0  0  0  0  0  0  0  0  0  0  0  0
    8.7183  -21.9071   24.1247 O   0  0  0  0  0  0  0  0  0  0  0  0
    8.8686  -20.5631   23.7661 C   0  0  0  0  0  0  0  0  0  0  0  0
    8.4209  -19.7400   24.9496 C   0  0  2  0  0  0  0  0  0  0  0  0
    8.5287  -18.3183   24.7015 N   0  0  0  0  0  0  0  0  0  0  0  0
    9.2944  -20.1043   26.0945 C   0  0  0  0  0  0  0  0  0  0  0  0
   10.0427  -19.2397   26.6163 O   0  0  0  0  0  0  0  0  0  0  0  0
    9.3379  -21.3782   26.6415 O   0  0  0  0  0  0  0  0  0  0  0  0
  2 10  1  0
  2  1  1  6
  2  3  1  0
  4  3  1  0
  4  9  1  0
  5  4  2  0
  6  5  1  0
  6  7  2  0
  7  8  1  0
  8  9  2  0
 10 11  2  0
 12 13  1  0
 12 10  1  0
 13 21  1  0
 14 15  1  0
 13 14  1  6
 15 16  2  0
 16 17  1  0
 18 17  2  0
 19 18  1  0
 20 15  1  0
 20 19  2  0
 21 22  2  0
 21 26  1  0
 25 24  1  6
 24 23  1  0
 25 27  1  0
 26 25  1  0
 27 28  2  0
 27 29  1  0
M  END
$$$$
