FFS.pdb
     RDKit          3D

 29 30  0  0  1  0  0  0  0  0999 V2000
    6.6710  -17.7021   21.7309 N   0  0  0  0  0  0  0  0  0  0  0  0
    7.2898  -16.4067   21.5299 C   0  0  1  0  0  0  0  0  0  0  0  0
    6.2866  -15.3219   21.3250 C   0  0  0  0  0  0  0  0  0  0  0  0
    6.9893  -14.1067   20.8152 C   0  0  0  0  0  0  0  0  0  0  0  0
    7.4405  -13.9883   19.5375 C   0  0  0  0  0  0  0  0  0  0  0  0
    8.0831  -12.8237   19.1628 C   0  0  0  0  0  0  0  0  0  0  0  0
    8.2616  -11.8034   20.0686 C   0  0  0  0  0  0  0  0  0  0  0  0
    7.8065  -11.9180   21.3634 C   0  0  0  0  0  0  0  0  0  0  0  0
    7.1706  -13.0706   21.7345 C   0  0  0  0  0  0  0  0  0  0  0  0
    8.1189  -16.1002   22.7210 C   0  0  0  0  0  0  0  0  0  0  0  0
    9.2382  -15.5095   22.5800 O   0  0  0  0  0  0  0  0  0  0  0  0
    7.7251  -16.4356   24.0318 N   0  0  0  0  0  0  0  0  0  0  0  0
    8.6384  -16.1958   25.1349 C   0  0  1  0  0  0  0  0  0  0  0  0
    7.7807  -15.8803   26.3353 C   0  0  0  0  0  0  0  0  0  0  0  0
    7.5173  -14.4331   26.3938 C   0  0  0  0  0  0  0  0  0  0  0  0
    8.5263  -13.5499   26.6247 C   0  0  0  0  0  0  0  0  0  0  0  0
    8.2774  -12.1926   26.6726 C   0  0  0  0  0  0  0  0  0  0  0  0
    6.9885  -11.7555   26.4821 C   0  0  0  0  0  0  0  0  0  0  0  0
    5.9376  -12.6167   26.2458 C   0  0  0  0  0  0  0  0  0  0  0  0
    6.2349  -13.9660   26.2065 C   0  0  0  0  0  0  0  0  0  0  0  0
    9.4546  -17.4036   25.3283 C   0  0  0  0  0  0  0  0  0  0  0  0
    8.9411  -18.5471   25.3800 O   0  0  0  0  0  0  0  0  0  0  0  0
   13.4761  -17.1036   25.0371 O   0  0  0  0  0  0  0  0  0  0  0  0
   12.9590  -18.3871   24.8300 C   0  0  0  0  0  0  0  0  0  0  0  0
   11.6705  -18.4729   25.6117 C   0  0  2  0  0  0  0  0  0  0  0  0
   10.8571  -17.2854   25.4609 N   0  0  0  0  0  0  0  0  0  0  0  0
   12.0339  -18.6384   27.0423 C   0  0  0  0  0  0  0  0  0  0  0  0
   11.5688  -17.8522   27.9058 O   0  0  0  0  0  0  0  0  0  0  0  0
   12.8808  -19.6369   27.5005 O   0  0  0  0  0  0  0  0  0  0  0  0
  2 10  1  0
  2  1  1  1
  2  3  1  0
  4  3  1  0
  4  9  1  0
  5  4  2  0
  6  5  1  0
  6  7  2  0
  7  8  1  0
  8  9  2  0
 10 11  2  0
 12 13  1  0
 12 10  1  0
 13 21  1  0
 14 15  1  0
 13 14  1  1
 15 16  2  0
 16 17  1  0
 18 17  2  0
 19 18  1  0
 20 15  1  0
 20 19  2  0
 21 22  2  0
 21 26  1  0
 25 24  1  6
 24 23  1  0
 25 27  1  0
 26 25  1  0
 27 28  2  0
 27 29  1  0
M  END
$$$$
