FFS.pdb
     RDKit          3D

 29 30  0  0  1  0  0  0  0  0999 V2000
    7.8327  -18.9972   27.9908 N   0  0  0  0  0  0  0  0  0  0  0  0
    8.4002  -17.7732   27.4605 C   0  0  1  0  0  0  0  0  0  0  0  0
    9.8546  -17.6413   27.7646 C   0  0  0  0  0  0  0  0  0  0  0  0
   10.1171  -16.2612   28.2713 C   0  0  0  0  0  0  0  0  0  0  0  0
   10.1814  -15.9533   29.5945 C   0  0  0  0  0  0  0  0  0  0  0  0
   10.4258  -14.6440   29.9631 C   0  0  0  0  0  0  0  0  0  0  0  0
   10.6007  -13.6713   29.0058 C   0  0  0  0  0  0  0  0  0  0  0  0
   10.5368  -13.9776   27.6646 C   0  0  0  0  0  0  0  0  0  0  0  0
   10.2949  -15.2733   27.2996 C   0  0  0  0  0  0  0  0  0  0  0  0
    8.1956  -17.7667   25.9916 C   0  0  0  0  0  0  0  0  0  0  0  0
    8.3950  -18.8292   25.3184 O   0  0  0  0  0  0  0  0  0  0  0  0
    7.7826  -16.6204   25.2836 N   0  0  0  0  0  0  0  0  0  0  0  0
    7.6977  -16.6683   23.8348 C   0  0  1  0  0  0  0  0  0  0  0  0
    6.7131  -15.5986   23.4316 C   0  0  0  0  0  0  0  0  0  0  0  0
    6.8553  -14.4306   24.3163 C   0  0  0  0  0  0  0  0  0  0  0  0
    6.2210  -14.3862   25.5192 C   0  0  0  0  0  0  0  0  0  0  0  0
    6.3613  -13.2922   26.3498 C   0  0  0  0  0  0  0  0  0  0  0  0
    7.1555  -12.2507   25.9334 C   0  0  0  0  0  0  0  0  0  0  0  0
    7.8154  -12.2558   24.7224 C   0  0  0  0  0  0  0  0  0  0  0  0
    7.6450  -13.3719   23.9250 C   0  0  0  0  0  0  0  0  0  0  0  0
    9.0414  -16.4318   23.2864 C   0  0  0  0  0  0  0  0  0  0  0  0
    9.8438  -15.6319   23.8250 O   0  0  0  0  0  0  0  0  0  0  0  0
   11.2450  -19.2023   22.0143 O   0  0  0  0  0  0  0  0  0  0  0  0
   11.3574  -18.2158   21.0286 C   0  0  0  0  0  0  0  0  0  0  0  0
   10.7957  -16.9432   21.6147 C   0  0  2  0  0  0  0  0  0  0  0  0
    9.4513  -17.1189   22.1209 N   0  0  0  0  0  0  0  0  0  0  0  0
   10.7813  -15.9283   20.5302 C   0  0  0  0  0  0  0  0  0  0  0  0
    9.7009  -15.3817   20.1930 O   0  0  0  0  0  0  0  0  0  0  0  0
   11.9204  -15.5330   19.8445 O   0  0  0  0  0  0  0  0  0  0  0  0
  2 10  1  0
  2  1  1  6
  2  3  1  0
  4  3  1  0
  4  9  1  0
  5  4  2  0
  6  5  1  0
  6  7  2  0
  7  8  1  0
  8  9  2  0
 10 11  2  0
 12 13  1  0
 12 10  1  0
 13 21  1  0
 14 15  1  0
 13 14  1  6
 15 16  2  0
 16 17  1  0
 18 17  2  0
 19 18  1  0
 20 15  1  0
 20 19  2  0
 21 22  2  0
 21 26  1  0
 25 24  1  6
 24 23  1  0
 25 27  1  0
 26 25  1  0
 27 28  2  0
 27 29  1  0
M  END
$$$$
