FFS.pdb
     RDKit          3D

 29 30  0  0  1  0  0  0  0  0999 V2000
   10.8538  -16.4741   21.4877 N   0  0  0  0  0  0  0  0  0  0  0  0
    9.8276  -15.6646   22.1145 C   0  0  1  0  0  0  0  0  0  0  0  0
    8.4878  -15.8578   21.4877 C   0  0  0  0  0  0  0  0  0  0  0  0
    8.0058  -14.5434   20.9676 C   0  0  0  0  0  0  0  0  0  0  0  0
    8.7362  -13.3987   21.0451 C   0  0  0  0  0  0  0  0  0  0  0  0
    8.2001  -12.2303   20.5378 C   0  0  0  0  0  0  0  0  0  0  0  0
    6.9491  -12.2286   19.9648 C   0  0  0  0  0  0  0  0  0  0  0  0
    6.2054  -13.3848   19.8836 C   0  0  0  0  0  0  0  0  0  0  0  0
    6.7357  -14.5412   20.3857 C   0  0  0  0  0  0  0  0  0  0  0  0
    9.7632  -16.0298   23.5506 C   0  0  0  0  0  0  0  0  0  0  0  0
   10.7944  -16.4979   24.1331 O   0  0  0  0  0  0  0  0  0  0  0  0
    8.5942  -15.8832   24.3237 N   0  0  0  0  0  0  0  0  0  0  0  0
    8.6498  -16.1241   25.7546 C   0  0  1  0  0  0  0  0  0  0  0  0
    7.3395  -15.6333   26.3190 C   0  0  0  0  0  0  0  0  0  0  0  0
    7.3543  -14.1640   26.4090 C   0  0  0  0  0  0  0  0  0  0  0  0
    8.3676  -13.5149   27.0441 C   0  0  0  0  0  0  0  0  0  0  0  0
    8.3822  -12.1364   27.1214 C   0  0  0  0  0  0  0  0  0  0  0  0
    7.3506  -11.4365   26.5430 C   0  0  0  0  0  0  0  0  0  0  0  0
    6.3049  -12.0553   25.8906 C   0  0  0  0  0  0  0  0  0  0  0  0
    6.3333  -13.4362   25.8385 C   0  0  0  0  0  0  0  0  0  0  0  0
    8.8517  -17.5644   25.9718 C   0  0  0  0  0  0  0  0  0  0  0  0
    7.9585  -18.4045   25.7067 O   0  0  0  0  0  0  0  0  0  0  0  0
   12.4941  -19.0196   26.0599 O   0  0  0  0  0  0  0  0  0  0  0  0
   11.4755  -19.9711   25.9395 C   0  0  0  0  0  0  0  0  0  0  0  0
   10.2881  -19.4431   26.7075 C   0  0  2  0  0  0  0  0  0  0  0  0
   10.0817  -18.0267   26.4932 N   0  0  0  0  0  0  0  0  0  0  0  0
   10.5528  -19.6862   28.1487 C   0  0  0  0  0  0  0  0  0  0  0  0
   10.7197  -20.8588   28.5698 O   0  0  0  0  0  0  0  0  0  0  0  0
   10.6300  -18.6694   29.0890 O   0  0  0  0  0  0  0  0  0  0  0  0
  2 10  1  0
  2  1  1  6
  2  3  1  0
  4  3  1  0
  4  9  1  0
  5  4  2  0
  6  5  1  0
  6  7  2  0
  7  8  1  0
  8  9  2  0
 10 11  2  0
 12 13  1  0
 12 10  1  0
 13 21  1  0
 14 15  1  0
 13 14  1  1
 15 16  2  0
 16 17  1  0
 18 17  2  0
 19 18  1  0
 20 15  1  0
 20 19  2  0
 21 22  2  0
 21 26  1  0
 25 24  1  6
 24 23  1  0
 25 27  1  0
 26 25  1  0
 27 28  2  0
 27 29  1  0
M  END
$$$$
