FFS.pdb
     RDKit          3D

 29 30  0  0  1  0  0  0  0  0999 V2000
   10.9056  -17.6448   20.8945 N   0  0  0  0  0  0  0  0  0  0  0  0
   10.0478  -16.4762   20.8994 C   0  0  1  0  0  0  0  0  0  0  0  0
    8.8858  -16.6188   19.9750 C   0  0  0  0  0  0  0  0  0  0  0  0
    8.1545  -15.3179   19.9172 C   0  0  0  0  0  0  0  0  0  0  0  0
    8.7097  -14.1720   19.4392 C   0  0  0  0  0  0  0  0  0  0  0  0
    7.9514  -13.0167   19.4311 C   0  0  0  0  0  0  0  0  0  0  0  0
    6.6574  -13.0289   19.8990 C   0  0  0  0  0  0  0  0  0  0  0  0
    6.0903  -14.1864   20.3839 C   0  0  0  0  0  0  0  0  0  0  0  0
    6.8407  -15.3299   20.3921 C   0  0  0  0  0  0  0  0  0  0  0  0
    9.5602  -16.2660   22.2843 C   0  0  0  0  0  0  0  0  0  0  0  0
    9.7288  -17.1741   23.1610 O   0  0  0  0  0  0  0  0  0  0  0  0
    8.9045  -15.0872   22.6918 N   0  0  0  0  0  0  0  0  0  0  0  0
    8.6849  -14.8451   24.1066 C   0  0  1  0  0  0  0  0  0  0  0  0
    8.0896  -13.4629   24.2135 C   0  0  0  0  0  0  0  0  0  0  0  0
    7.7382  -13.1780   25.6144 C   0  0  0  0  0  0  0  0  0  0  0  0
    8.6952  -13.1517   26.5813 C   0  0  0  0  0  0  0  0  0  0  0  0
    8.3637  -12.8779   27.8934 C   0  0  0  0  0  0  0  0  0  0  0  0
    7.0464  -12.6331   28.1993 C   0  0  0  0  0  0  0  0  0  0  0  0
    6.0462  -12.6503   27.2499 C   0  0  0  0  0  0  0  0  0  0  0  0
    6.4257  -12.9289   25.9504 C   0  0  0  0  0  0  0  0  0  0  0  0
    7.7826  -15.8876   24.6179 C   0  0  0  0  0  0  0  0  0  0  0  0
    6.5666  -15.9180   24.3108 O   0  0  0  0  0  0  0  0  0  0  0  0
    8.4349  -19.5103   24.8276 O   0  0  0  0  0  0  0  0  0  0  0  0
    7.1691  -19.0578   25.2153 C   0  0  0  0  0  0  0  0  0  0  0  0
    7.3842  -17.8429   26.0848 C   0  0  2  0  0  0  0  0  0  0  0  0
    8.2877  -16.8879   25.4796 N   0  0  0  0  0  0  0  0  0  0  0  0
    7.9619  -18.3172   27.3684 C   0  0  0  0  0  0  0  0  0  0  0  0
    7.3624  -19.1907   28.0448 O   0  0  0  0  0  0  0  0  0  0  0  0
    9.1587  -17.8423   27.8843 O   0  0  0  0  0  0  0  0  0  0  0  0
  2 10  1  0
  2  1  1  1
  2  3  1  0
  4  3  1  0
  4  9  1  0
  5  4  2  0
  6  5  1  0
  6  7  2  0
  7  8  1  0
  8  9  2  0
 10 11  2  0
 12 13  1  0
 12 10  1  0
 13 21  1  0
 14 15  1  0
 13 14  1  6
 15 16  2  0
 16 17  1  0
 18 17  2  0
 19 18  1  0
 20 15  1  0
 20 19  2  0
 21 22  2  0
 21 26  1  0
 25 24  1  6
 24 23  1  0
 25 27  1  0
 26 25  1  0
 27 28  2  0
 27 29  1  0
M  END
$$$$
