FFS.pdb
     RDKit          3D

 29 30  0  0  1  0  0  0  0  0999 V2000
   10.4036  -16.3955   19.6178 N   0  0  0  0  0  0  0  0  0  0  0  0
    9.2579  -16.7530   20.4308 C   0  0  1  0  0  0  0  0  0  0  0  0
    9.1780  -18.2201   20.6885 C   0  0  0  0  0  0  0  0  0  0  0  0
    8.7445  -18.9061   19.4347 C   0  0  0  0  0  0  0  0  0  0  0  0
    9.5636  -19.7090   18.7037 C   0  0  0  0  0  0  0  0  0  0  0  0
    9.0693  -20.2961   17.5545 C   0  0  0  0  0  0  0  0  0  0  0  0
    7.7707  -20.0704   17.1594 C   0  0  0  0  0  0  0  0  0  0  0  0
    6.9371  -19.2584   17.8959 C   0  0  0  0  0  0  0  0  0  0  0  0
    7.4262  -18.6772   19.0333 C   0  0  0  0  0  0  0  0  0  0  0  0
    9.3598  -16.0255   21.7193 C   0  0  0  0  0  0  0  0  0  0  0  0
   10.5028  -15.8117   22.2386 O   0  0  0  0  0  0  0  0  0  0  0  0
    8.2327  -15.5467   22.4165 N   0  0  0  0  0  0  0  0  0  0  0  0
    8.4193  -14.7970   23.6460 C   0  0  1  0  0  0  0  0  0  0  0  0
    7.1975  -13.9256   23.8015 C   0  0  0  0  0  0  0  0  0  0  0  0
    7.2079  -13.2836   25.1262 C   0  0  0  0  0  0  0  0  0  0  0  0
    6.4239  -13.7533   26.1343 C   0  0  0  0  0  0  0  0  0  0  0  0
    6.4404  -13.1532   27.3777 C   0  0  0  0  0  0  0  0  0  0  0  0
    7.2659  -12.0719   27.5727 C   0  0  0  0  0  0  0  0  0  0  0  0
    8.0756  -11.5646   26.5782 C   0  0  0  0  0  0  0  0  0  0  0  0
    8.0255  -12.1979   25.3507 C   0  0  0  0  0  0  0  0  0  0  0  0
    8.5716  -15.7549   24.7512 C   0  0  0  0  0  0  0  0  0  0  0  0
    7.6562  -16.5533   25.0649 O   0  0  0  0  0  0  0  0  0  0  0  0
   12.1906  -16.7941   25.7259 O   0  0  0  0  0  0  0  0  0  0  0  0
   11.1989  -17.6534   26.2115 C   0  0  0  0  0  0  0  0  0  0  0  0
    9.9828  -16.8053   26.4946 C   0  0  2  0  0  0  0  0  0  0  0  0
    9.7780  -15.7862   25.4876 N   0  0  0  0  0  0  0  0  0  0  0  0
   10.1973  -16.1545   27.8125 C   0  0  0  0  0  0  0  0  0  0  0  0
   10.1478  -14.9025   27.9126 O   0  0  0  0  0  0  0  0  0  0  0  0
   10.4569  -16.8631   28.9763 O   0  0  0  0  0  0  0  0  0  0  0  0
  2 10  1  0
  2  1  1  6
  2  3  1  0
  4  3  1  0
  4  9  1  0
  5  4  2  0
  6  5  1  0
  6  7  2  0
  7  8  1  0
  8  9  2  0
 10 11  2  0
 12 13  1  0
 12 10  1  0
 13 21  1  0
 14 15  1  0
 13 14  1  1
 15 16  2  0
 16 17  1  0
 18 17  2  0
 19 18  1  0
 20 15  1  0
 20 19  2  0
 21 22  2  0
 21 26  1  0
 25 24  1  6
 24 23  1  0
 25 27  1  0
 26 25  1  0
 27 28  2  0
 27 29  1  0
M  END
$$$$
