FFS.pdb
     RDKit          3D

 29 30  0  0  1  0  0  0  0  0999 V2000
   10.3861  -16.2629   19.5405 N   0  0  0  0  0  0  0  0  0  0  0  0
    9.2582  -16.7020   20.3383 C   0  0  1  0  0  0  0  0  0  0  0  0
    9.2202  -18.1840   20.5038 C   0  0  0  0  0  0  0  0  0  0  0  0
    8.8505  -18.8049   19.1968 C   0  0  0  0  0  0  0  0  0  0  0  0
    9.7669  -19.2953   18.3195 C   0  0  0  0  0  0  0  0  0  0  0  0
    9.3244  -19.8478   17.1326 C   0  0  0  0  0  0  0  0  0  0  0  0
    7.9795  -19.8995   16.8464 C   0  0  0  0  0  0  0  0  0  0  0  0
    7.0474  -19.4046   17.7312 C   0  0  0  0  0  0  0  0  0  0  0  0
    7.4851  -18.8577   18.9059 C   0  0  0  0  0  0  0  0  0  0  0  0
    9.3528  -16.0542   21.6692 C   0  0  0  0  0  0  0  0  0  0  0  0
   10.4785  -15.9796   22.2600 O   0  0  0  0  0  0  0  0  0  0  0  0
    8.2371  -15.5036   22.3310 N   0  0  0  0  0  0  0  0  0  0  0  0
    8.4245  -14.8210   23.5989 C   0  0  1  0  0  0  0  0  0  0  0  0
    7.2967  -13.8256   23.7158 C   0  0  0  0  0  0  0  0  0  0  0  0
    7.3146  -13.2061   25.0511 C   0  0  0  0  0  0  0  0  0  0  0  0
    6.1834  -13.1413   25.8044 C   0  0  0  0  0  0  0  0  0  0  0  0
    6.2044  -12.5654   27.0592 C   0  0  0  0  0  0  0  0  0  0  0  0
    7.3930  -12.0597   27.5284 C   0  0  0  0  0  0  0  0  0  0  0  0
    8.5615  -12.1050   26.7973 C   0  0  0  0  0  0  0  0  0  0  0  0
    8.4919  -12.6908   25.5473 C   0  0  0  0  0  0  0  0  0  0  0  0
    8.4010  -15.8266   24.6715 C   0  0  0  0  0  0  0  0  0  0  0  0
    7.3560  -16.4553   24.9654 O   0  0  0  0  0  0  0  0  0  0  0  0
   11.6320  -17.7057   25.3035 O   0  0  0  0  0  0  0  0  0  0  0  0
   10.5295  -18.3047   25.9225 C   0  0  0  0  0  0  0  0  0  0  0  0
    9.6070  -17.1896   26.3513 C   0  0  2  0  0  0  0  0  0  0  0  0
    9.5822  -16.1007   25.3983 N   0  0  0  0  0  0  0  0  0  0  0  0
   10.1036  -16.6853   27.6572 C   0  0  0  0  0  0  0  0  0  0  0  0
   10.3770  -15.4668   27.7995 O   0  0  0  0  0  0  0  0  0  0  0  0
   10.2906  -17.4995   28.7646 O   0  0  0  0  0  0  0  0  0  0  0  0
  2 10  1  0
  2  1  1  6
  2  3  1  0
  4  3  1  0
  4  9  1  0
  5  4  2  0
  6  5  1  0
  6  7  2  0
  7  8  1  0
  8  9  2  0
 10 11  2  0
 12 13  1  0
 12 10  1  0
 13 21  1  0
 14 15  1  0
 13 14  1  1
 15 16  2  0
 16 17  1  0
 18 17  2  0
 19 18  1  0
 20 15  1  0
 20 19  2  0
 21 22  2  0
 21 26  1  0
 25 24  1  6
 24 23  1  0
 25 27  1  0
 26 25  1  0
 27 28  2  0
 27 29  1  0
M  END
$$$$
