ITS.pdb
     RDKit          3D

 22 21  0  0  1  0  0  0  0  0999 V2000
    6.5284  -11.2812   27.4610 C   0  0  0  0  0  0  0  0  0  0  0  0
    5.7667  -12.3480   26.6538 C   0  0  0  0  0  0  0  0  0  0  0  0
    6.8133  -13.2539   26.0853 C   0  0  2  0  0  0  0  0  0  0  0  0
    7.9234  -12.4633   25.4194 C   0  0  0  0  0  0  0  0  0  0  0  0
    6.3172  -14.3735   25.2327 C   0  0  2  0  0  0  0  0  0  0  0  0
    5.3032  -15.0632   26.0785 N   0  0  0  0  0  0  0  0  0  0  0  0
    7.3442  -15.3634   24.8341 C   0  0  0  0  0  0  0  0  0  0  0  0
    7.7991  -16.2213   25.6706 O   0  0  0  0  0  0  0  0  0  0  0  0
    7.6858  -16.0189   20.9171 C   0  0  0  0  0  0  0  0  0  0  0  0
    8.9628  -16.3793   21.6205 C   0  0  1  0  0  0  0  0  0  0  0  0
    9.8702  -15.3563   21.4703 O   0  0  0  0  0  0  0  0  0  0  0  0
    8.7260  -16.5910   23.1328 C   0  0  2  0  0  0  0  0  0  0  0  0
    7.9118  -15.4700   23.5340 N   0  0  0  0  0  0  0  0  0  0  0  0
   10.0148  -16.7209   23.7932 C   0  0  0  0  0  0  0  0  0  0  0  0
   10.4212  -15.6779   24.4150 O   0  0  0  0  0  0  0  0  0  0  0  0
   10.9101  -19.2443   26.3548 O   0  0  0  0  0  0  0  0  0  0  0  0
   11.7222  -18.1544   26.1252 C   0  0  0  0  0  0  0  0  0  0  0  0
   12.0330  -17.9230   24.6847 C   0  0  2  0  0  0  0  0  0  0  0  0
   10.8622  -17.8417   23.8333 N   0  0  0  0  0  0  0  0  0  0  0  0
   12.8395  -19.1022   24.2039 C   0  0  0  0  0  0  0  0  0  0  0  0
   12.4214  -19.8866   23.3274 O   0  0  0  0  0  0  0  0  0  0  0  0
   14.1032  -19.3610   24.7324 O   0  0  0  0  0  0  0  0  0  0  0  0
  2  1  1  0
  3  5  1  0
  3  2  1  0
  3  4  1  6
  5  7  1  0
  5  6  1  1
  7  8  2  0
 10  9  1  6
 10 12  1  0
 11 10  1  0
 12 13  1  1
 13  7  1  0
 14 12  1  0
 14 15  2  0
 16 17  1  0
 18 17  1  1
 18 19  1  0
 18 20  1  0
 19 14  1  0
 20 21  2  0
 20 22  1  0
M  END
$$$$
