ITS.pdb
     RDKit          3D

 22 21  0  0  1  0  0  0  0  0999 V2000
    6.8007  -11.5314   27.7057 C   0  0  0  0  0  0  0  0  0  0  0  0
    5.9350  -12.4519   26.8266 C   0  0  0  0  0  0  0  0  0  0  0  0
    6.8929  -13.3506   26.1098 C   0  0  2  0  0  0  0  0  0  0  0  0
    8.0100  -12.5577   25.4586 C   0  0  0  0  0  0  0  0  0  0  0  0
    6.2850  -14.3498   25.1833 C   0  0  2  0  0  0  0  0  0  0  0  0
    5.3258  -15.1091   26.0334 N   0  0  0  0  0  0  0  0  0  0  0  0
    7.2378  -15.3109   24.5814 C   0  0  0  0  0  0  0  0  0  0  0  0
    7.7156  -16.2862   25.2619 O   0  0  0  0  0  0  0  0  0  0  0  0
    7.2059  -15.6751   20.6193 C   0  0  0  0  0  0  0  0  0  0  0  0
    8.5772  -15.9686   21.1568 C   0  0  1  0  0  0  0  0  0  0  0  0
    9.3779  -14.8624   20.9910 O   0  0  0  0  0  0  0  0  0  0  0  0
    8.5256  -16.3008   22.6650 C   0  0  2  0  0  0  0  0  0  0  0  0
    7.7045  -15.2627   23.2384 N   0  0  0  0  0  0  0  0  0  0  0  0
    9.8864  -16.3982   23.1681 C   0  0  0  0  0  0  0  0  0  0  0  0
   10.3800  -15.3112   23.6315 O   0  0  0  0  0  0  0  0  0  0  0  0
   11.3264  -19.1217   25.4761 O   0  0  0  0  0  0  0  0  0  0  0  0
   12.3378  -18.7496   24.6167 C   0  0  0  0  0  0  0  0  0  0  0  0
   12.0352  -17.5266   23.8180 C   0  0  2  0  0  0  0  0  0  0  0  0
   10.7195  -17.5296   23.2086 N   0  0  0  0  0  0  0  0  0  0  0  0
   13.0357  -17.4660   22.6923 C   0  0  0  0  0  0  0  0  0  0  0  0
   12.6961  -17.5065   21.4917 O   0  0  0  0  0  0  0  0  0  0  0  0
   14.3998  -17.3606   22.9597 O   0  0  0  0  0  0  0  0  0  0  0  0
  2  1  1  0
  3  5  1  0
  3  2  1  0
  3  4  1  6
  5  7  1  0
  5  6  1  1
  7  8  2  0
 10  9  1  1
 10 12  1  0
 11 10  1  0
 12 13  1  1
 13  7  1  0
 14 12  1  0
 14 15  2  0
 16 17  1  0
 18 17  1  6
 18 19  1  0
 18 20  1  0
 19 14  1  0
 20 21  2  0
 20 22  1  0
M  END
$$$$
