ITS.pdb
     RDKit          3D

 22 21  0  0  1  0  0  0  0  0999 V2000
    6.8981  -11.9718   19.1511 C   0  0  0  0  0  0  0  0  0  0  0  0
    7.6808  -12.9660   18.2744 C   0  0  0  0  0  0  0  0  0  0  0  0
    8.2977  -13.9470   19.2212 C   0  0  2  0  0  0  0  0  0  0  0  0
    9.0784  -13.2418   20.3138 C   0  0  0  0  0  0  0  0  0  0  0  0
    9.0666  -15.0636   18.5980 C   0  0  2  0  0  0  0  0  0  0  0  0
    8.1291  -15.6474   17.5981 N   0  0  0  0  0  0  0  0  0  0  0  0
    9.4836  -16.1370   19.5295 C   0  0  0  0  0  0  0  0  0  0  0  0
    8.6214  -16.9045   20.0865 O   0  0  0  0  0  0  0  0  0  0  0  0
   11.3732  -19.1180   19.0514 C   0  0  0  0  0  0  0  0  0  0  0  0
   12.1028  -18.4010   20.1509 C   0  0  1  0  0  0  0  0  0  0  0  0
   13.1465  -17.6840   19.6132 O   0  0  0  0  0  0  0  0  0  0  0  0
   11.1708  -17.4115   20.8859 C   0  0  2  0  0  0  0  0  0  0  0  0
   10.8292  -16.4254   19.8902 N   0  0  0  0  0  0  0  0  0  0  0  0
   11.8537  -16.9205   22.0719 C   0  0  0  0  0  0  0  0  0  0  0  0
   12.4559  -15.7988   21.9344 O   0  0  0  0  0  0  0  0  0  0  0  0
   10.7578  -17.2717   25.9102 O   0  0  0  0  0  0  0  0  0  0  0  0
   12.1296  -17.3407   25.7940 C   0  0  0  0  0  0  0  0  0  0  0  0
   12.6460  -16.9296   24.4563 C   0  0  2  0  0  0  0  0  0  0  0  0
   11.9330  -17.5205   23.3407 N   0  0  0  0  0  0  0  0  0  0  0  0
   14.0735  -17.4039   24.3605 C   0  0  0  0  0  0  0  0  0  0  0  0
   14.4453  -18.2412   23.5126 O   0  0  0  0  0  0  0  0  0  0  0  0
   15.0446  -16.9136   25.2323 O   0  0  0  0  0  0  0  0  0  0  0  0
  2  1  1  0
  3  5  1  0
  3  2  1  0
  3  4  1  1
  5  7  1  0
  5  6  1  6
  7  8  2  0
 10  9  1  6
 10 12  1  0
 11 10  1  0
 12 13  1  6
 13  7  1  0
 14 12  1  0
 14 15  2  0
 16 17  1  0
 18 17  1  1
 18 19  1  0
 18 20  1  0
 19 14  1  0
 20 21  2  0
 20 22  1  0
M  END
$$$$
