ITS.pdb
     RDKit          3D

 22 21  0  0  1  0  0  0  0  0999 V2000
    8.6833  -12.3573   27.3820 C   0  0  0  0  0  0  0  0  0  0  0  0
    8.0054  -13.6905   27.0179 C   0  0  0  0  0  0  0  0  0  0  0  0
    6.9796  -13.3568   25.9808 C   0  0  2  0  0  0  0  0  0  0  0  0
    5.9797  -12.3420   26.5015 C   0  0  0  0  0  0  0  0  0  0  0  0
    6.3219  -14.5178   25.3130 C   0  0  2  0  0  0  0  0  0  0  0  0
    5.7148  -15.2938   26.4305 N   0  0  0  0  0  0  0  0  0  0  0  0
    7.2342  -15.4127   24.5645 C   0  0  0  0  0  0  0  0  0  0  0  0
    7.6035  -16.5402   25.0493 O   0  0  0  0  0  0  0  0  0  0  0  0
    7.1617  -15.4158   20.6980 C   0  0  0  0  0  0  0  0  0  0  0  0
    8.5876  -15.6360   21.1149 C   0  0  1  0  0  0  0  0  0  0  0  0
    9.2979  -14.4706   20.9424 O   0  0  0  0  0  0  0  0  0  0  0  0
    8.6776  -16.0354   22.6049 C   0  0  2  0  0  0  0  0  0  0  0  0
    7.7748  -15.1343   23.2784 N   0  0  0  0  0  0  0  0  0  0  0  0
   10.0703  -15.9817   23.0191 C   0  0  0  0  0  0  0  0  0  0  0  0
   10.4342  -14.8911   23.5828 O   0  0  0  0  0  0  0  0  0  0  0  0
   12.5808  -19.2155   23.2536 O   0  0  0  0  0  0  0  0  0  0  0  0
   13.0205  -18.0746   23.8901 C   0  0  0  0  0  0  0  0  0  0  0  0
   12.4148  -16.8163   23.3656 C   0  0  2  0  0  0  0  0  0  0  0  0
   11.0580  -16.9720   22.8786 N   0  0  0  0  0  0  0  0  0  0  0  0
   13.2496  -16.3707   22.1924 C   0  0  0  0  0  0  0  0  0  0  0  0
   12.7751  -16.2361   21.0457 O   0  0  0  0  0  0  0  0  0  0  0  0
   14.6055  -16.0887   22.3521 O   0  0  0  0  0  0  0  0  0  0  0  0
  2  1  1  0
  3  5  1  0
  3  2  1  0
  3  4  1  1
  5  7  1  0
  5  6  1  1
  7  8  2  0
 10  9  1  1
 10 12  1  0
 11 10  1  0
 12 13  1  1
 13  7  1  0
 14 12  1  0
 14 15  2  0
 16 17  1  0
 18 17  1  6
 18 19  1  0
 18 20  1  0
 19 14  1  0
 20 21  2  0
 20 22  1  0
M  END
$$$$
