ITS.pdb
     RDKit          3D

 22 21  0  0  1  0  0  0  0  0999 V2000
    6.6581  -11.3679   27.3230 C   0  0  0  0  0  0  0  0  0  0  0  0
    5.8740  -12.4908   26.6201 C   0  0  0  0  0  0  0  0  0  0  0  0
    6.8937  -13.3008   25.8832 C   0  0  2  0  0  0  0  0  0  0  0  0
    7.8023  -12.4169   25.0503 C   0  0  0  0  0  0  0  0  0  0  0  0
    6.3717  -14.4692   25.1158 C   0  0  2  0  0  0  0  0  0  0  0  0
    5.6506  -15.2877   26.1304 N   0  0  0  0  0  0  0  0  0  0  0  0
    7.4062  -15.3178   24.4807 C   0  0  0  0  0  0  0  0  0  0  0  0
    8.1374  -16.1064   25.1778 O   0  0  0  0  0  0  0  0  0  0  0  0
    7.0554  -16.1689   20.6117 C   0  0  0  0  0  0  0  0  0  0  0  0
    8.5058  -16.0850   20.9919 C   0  0  1  0  0  0  0  0  0  0  0  0
    9.0071  -14.8623   20.6095 O   0  0  0  0  0  0  0  0  0  0  0  0
    8.6906  -16.2214   22.5200 C   0  0  2  0  0  0  0  0  0  0  0  0
    7.6877  -15.3533   23.0867 N   0  0  0  0  0  0  0  0  0  0  0  0
   10.0722  -15.9136   22.8523 C   0  0  0  0  0  0  0  0  0  0  0  0
   10.2758  -14.7403   23.3230 O   0  0  0  0  0  0  0  0  0  0  0  0
   12.5867  -17.9223   25.9334 O   0  0  0  0  0  0  0  0  0  0  0  0
   11.6297  -17.5949   24.9970 C   0  0  0  0  0  0  0  0  0  0  0  0
   12.1759  -16.9269   23.7801 C   0  0  2  0  0  0  0  0  0  0  0  0
   11.2025  -16.7392   22.7220 N   0  0  0  0  0  0  0  0  0  0  0  0
   13.2560  -17.8192   23.2242 C   0  0  0  0  0  0  0  0  0  0  0  0
   13.0294  -18.6782   22.3472 O   0  0  0  0  0  0  0  0  0  0  0  0
   14.5692  -17.7128   23.6798 O   0  0  0  0  0  0  0  0  0  0  0  0
  2  1  1  0
  3  5  1  0
  3  2  1  0
  3  4  1  6
  5  7  1  0
  5  6  1  1
  7  8  2  0
 10  9  1  1
 10 12  1  0
 11 10  1  0
 12 13  1  1
 13  7  1  0
 14 12  1  0
 14 15  2  0
 16 17  1  0
 18 17  1  1
 18 19  1  0
 18 20  1  0
 19 14  1  0
 20 21  2  0
 20 22  1  0
M  END
$$$$
