ITS.pdb
     RDKit          3D

 22 21  0  0  1  0  0  0  0  0999 V2000
    8.3573  -12.4020   28.1858 C   0  0  0  0  0  0  0  0  0  0  0  0
    7.1330  -12.8705   27.3787 C   0  0  0  0  0  0  0  0  0  0  0  0
    7.6547  -13.8576   26.3824 C   0  0  2  0  0  0  0  0  0  0  0  0
    8.9362  -13.3649   25.7377 C   0  0  0  0  0  0  0  0  0  0  0  0
    6.6685  -14.3624   25.3828 C   0  0  2  0  0  0  0  0  0  0  0  0
    5.6183  -15.0300   26.2016 N   0  0  0  0  0  0  0  0  0  0  0  0
    7.2025  -15.3478   24.4145 C   0  0  0  0  0  0  0  0  0  0  0  0
    7.3102  -16.5877   24.7205 O   0  0  0  0  0  0  0  0  0  0  0  0
    6.5724  -14.6909   20.6487 C   0  0  0  0  0  0  0  0  0  0  0  0
    7.8931  -15.3955   20.7697 C   0  0  1  0  0  0  0  0  0  0  0  0
    8.9117  -14.4835   20.6173 O   0  0  0  0  0  0  0  0  0  0  0  0
    8.0469  -16.0575   22.1575 C   0  0  2  0  0  0  0  0  0  0  0  0
    7.6322  -15.0413   23.0934 N   0  0  0  0  0  0  0  0  0  0  0  0
    9.4108  -16.5424   22.2946 C   0  0  0  0  0  0  0  0  0  0  0  0
   10.1796  -15.8216   23.0221 O   0  0  0  0  0  0  0  0  0  0  0  0
   10.9103  -20.0227   20.5900 O   0  0  0  0  0  0  0  0  0  0  0  0
   11.5855  -19.5735   21.7045 C   0  0  0  0  0  0  0  0  0  0  0  0
   11.3320  -18.1399   22.0298 C   0  0  2  0  0  0  0  0  0  0  0  0
    9.9843  -17.6959   21.7319 N   0  0  0  0  0  0  0  0  0  0  0  0
   12.2605  -17.3144   21.1763 C   0  0  0  0  0  0  0  0  0  0  0  0
   11.8431  -16.4884   20.3386 O   0  0  0  0  0  0  0  0  0  0  0  0
   13.6429  -17.4487   21.2965 O   0  0  0  0  0  0  0  0  0  0  0  0
  2  1  1  0
  3  5  1  0
  3  2  1  0
  3  4  1  6
  5  7  1  0
  5  6  1  1
  7  8  2  0
 10  9  1  1
 10 12  1  0
 11 10  1  0
 12 13  1  1
 13  7  1  0
 14 12  1  0
 14 15  2  0
 16 17  1  0
 18 17  1  6
 18 19  1  0
 18 20  1  0
 19 14  1  0
 20 21  2  0
 20 22  1  0
M  END
$$$$
