ITS.pdb
     RDKit          3D

 22 21  0  0  1  0  0  0  0  0999 V2000
    6.4377  -11.6308   27.4864 C   0  0  0  0  0  0  0  0  0  0  0  0
    5.7551  -12.8079   26.7666 C   0  0  0  0  0  0  0  0  0  0  0  0
    6.8421  -13.5155   26.0204 C   0  0  2  0  0  0  0  0  0  0  0  0
    7.6803  -12.5421   25.2137 C   0  0  0  0  0  0  0  0  0  0  0  0
    6.4223  -14.7055   25.2242 C   0  0  2  0  0  0  0  0  0  0  0  0
    5.7043  -15.5714   26.2010 N   0  0  0  0  0  0  0  0  0  0  0  0
    7.5307  -15.4892   24.6319 C   0  0  0  0  0  0  0  0  0  0  0  0
    8.2476  -16.2722   25.3499 O   0  0  0  0  0  0  0  0  0  0  0  0
    7.2349  -16.3949   20.8264 C   0  0  0  0  0  0  0  0  0  0  0  0
    8.6893  -16.2738   21.1807 C   0  0  1  0  0  0  0  0  0  0  0  0
    9.1643  -15.0580   20.7466 O   0  0  0  0  0  0  0  0  0  0  0  0
    8.8991  -16.3515   22.7097 C   0  0  2  0  0  0  0  0  0  0  0  0
    7.9035  -15.4641   23.2592 N   0  0  0  0  0  0  0  0  0  0  0  0
   10.2853  -16.0288   23.0074 C   0  0  0  0  0  0  0  0  0  0  0  0
   10.5328  -14.7859   23.1909 O   0  0  0  0  0  0  0  0  0  0  0  0
   12.6870  -18.2863   25.1515 O   0  0  0  0  0  0  0  0  0  0  0  0
   13.0772  -16.9873   24.9059 C   0  0  0  0  0  0  0  0  0  0  0  0
   12.6948  -16.4848   23.5544 C   0  0  2  0  0  0  0  0  0  0  0  0
   11.3778  -16.9063   23.1184 N   0  0  0  0  0  0  0  0  0  0  0  0
   13.6823  -17.0532   22.5676 C   0  0  0  0  0  0  0  0  0  0  0  0
   14.9159  -16.9163   22.7007 O   0  0  0  0  0  0  0  0  0  0  0  0
   13.2422  -17.7641   21.4522 O   0  0  0  0  0  0  0  0  0  0  0  0
  2  1  1  0
  3  5  1  0
  3  2  1  0
  3  4  1  6
  5  7  1  0
  5  6  1  1
  7  8  2  0
 10  9  1  1
 10 12  1  0
 11 10  1  0
 12 13  1  1
 13  7  1  0
 14 12  1  0
 14 15  2  0
 16 17  1  0
 18 17  1  1
 18 19  1  0
 18 20  1  0
 19 14  1  0
 20 21  2  0
 20 22  1  0
M  END
$$$$
