ITS.pdb
     RDKit          3D

 22 21  0  0  1  0  0  0  0  0999 V2000
    7.5462  -11.7734   20.3381 C   0  0  0  0  0  0  0  0  0  0  0  0
    8.0558  -13.0565   19.6573 C   0  0  0  0  0  0  0  0  0  0  0  0
    8.0246  -14.1179   20.7116 C   0  0  2  0  0  0  0  0  0  0  0  0
    8.6912  -13.6448   21.9893 C   0  0  0  0  0  0  0  0  0  0  0  0
    8.4890  -15.4722   20.2913 C   0  0  2  0  0  0  0  0  0  0  0  0
    7.5884  -15.8400   19.1630 N   0  0  0  0  0  0  0  0  0  0  0  0
    8.3882  -16.5225   21.3308 C   0  0  0  0  0  0  0  0  0  0  0  0
    7.2633  -16.8174   21.8695 O   0  0  0  0  0  0  0  0  0  0  0  0
    8.6878  -19.9786   21.2192 C   0  0  0  0  0  0  0  0  0  0  0  0
    9.6851  -19.6018   22.2769 C   0  0  1  0  0  0  0  0  0  0  0  0
   10.9359  -19.5095   21.7116 O   0  0  0  0  0  0  0  0  0  0  0  0
    9.3414  -18.2325   22.9050 C   0  0  2  0  0  0  0  0  0  0  0  0
    9.4806  -17.2900   21.8220 N   0  0  0  0  0  0  0  0  0  0  0  0
   10.1999  -18.0198   24.0591 C   0  0  0  0  0  0  0  0  0  0  0  0
   11.1761  -17.2116   23.8762 O   0  0  0  0  0  0  0  0  0  0  0  0
    9.5764  -19.5804   27.8596 O   0  0  0  0  0  0  0  0  0  0  0  0
   10.4630  -18.5280   27.7794 C   0  0  0  0  0  0  0  0  0  0  0  0
   11.0247  -18.3115   26.4145 C   0  0  2  0  0  0  0  0  0  0  0  0
   10.0903  -18.5871   25.3406 N   0  0  0  0  0  0  0  0  0  0  0  0
   12.1765  -19.2690   26.2453 C   0  0  0  0  0  0  0  0  0  0  0  0
   12.1744  -20.1735   25.3850 O   0  0  0  0  0  0  0  0  0  0  0  0
   13.3039  -19.1743   27.0598 O   0  0  0  0  0  0  0  0  0  0  0  0
  2  1  1  0
  3  5  1  0
  3  2  1  0
  3  4  1  1
  5  7  1  0
  5  6  1  6
  7  8  2  0
 10  9  1  6
 10 12  1  0
 11 10  1  0
 12 13  1  6
 13  7  1  0
 14 12  1  0
 14 15  2  0
 16 17  1  0
 18 17  1  1
 18 19  1  0
 18 20  1  0
 19 14  1  0
 20 21  2  0
 20 22  1  0
M  END
$$$$
