ITS.pdb
     RDKit          3D

 22 21  0  0  1  0  0  0  0  0999 V2000
    6.5778  -11.4824   27.5223 C   0  0  0  0  0  0  0  0  0  0  0  0
    5.7797  -12.5291   26.7242 C   0  0  0  0  0  0  0  0  0  0  0  0
    6.7987  -13.3732   26.0253 C   0  0  2  0  0  0  0  0  0  0  0  0
    7.8235  -12.5170   25.3060 C   0  0  0  0  0  0  0  0  0  0  0  0
    6.2630  -14.4685   25.1653 C   0  0  2  0  0  0  0  0  0  0  0  0
    5.4194  -15.2832   26.0839 N   0  0  0  0  0  0  0  0  0  0  0  0
    7.2868  -15.3534   24.5632 C   0  0  0  0  0  0  0  0  0  0  0  0
    7.8279  -16.2982   25.2392 O   0  0  0  0  0  0  0  0  0  0  0  0
    7.3381  -15.6567   20.6133 C   0  0  0  0  0  0  0  0  0  0  0  0
    8.7226  -15.8728   21.1536 C   0  0  1  0  0  0  0  0  0  0  0  0
    9.4596  -14.7226   20.9916 O   0  0  0  0  0  0  0  0  0  0  0  0
    8.6866  -16.2100   22.6612 C   0  0  2  0  0  0  0  0  0  0  0  0
    7.7592  -15.2597   23.2246 N   0  0  0  0  0  0  0  0  0  0  0  0
   10.0442  -16.1717   23.1804 C   0  0  0  0  0  0  0  0  0  0  0  0
   10.3934  -15.0662   23.7242 O   0  0  0  0  0  0  0  0  0  0  0  0
   11.8358  -18.4442   25.6416 O   0  0  0  0  0  0  0  0  0  0  0  0
   12.7315  -18.1804   24.6276 C   0  0  0  0  0  0  0  0  0  0  0  0
   12.3309  -17.0466   23.7449 C   0  0  2  0  0  0  0  0  0  0  0  0
   11.0121  -17.1908   23.1598 N   0  0  0  0  0  0  0  0  0  0  0  0
   13.3114  -16.9994   22.6010 C   0  0  0  0  0  0  0  0  0  0  0  0
   12.9604  -17.1440   21.4119 O   0  0  0  0  0  0  0  0  0  0  0  0
   14.6689  -16.7885   22.8379 O   0  0  0  0  0  0  0  0  0  0  0  0
  2  1  1  0
  3  5  1  0
  3  2  1  0
  3  4  1  6
  5  7  1  0
  5  6  1  1
  7  8  2  0
 10  9  1  1
 10 12  1  0
 11 10  1  0
 12 13  1  1
 13  7  1  0
 14 12  1  0
 14 15  2  0
 16 17  1  0
 18 17  1  1
 18 19  1  0
 18 20  1  0
 19 14  1  0
 20 21  2  0
 20 22  1  0
M  END
$$$$
