ITS.pdb
     RDKit          3D

 22 21  0  0  1  0  0  0  0  0999 V2000
    6.8670  -11.2255   27.3709 C   0  0  0  0  0  0  0  0  0  0  0  0
    6.0213  -12.2181   26.5529 C   0  0  0  0  0  0  0  0  0  0  0  0
    6.9870  -13.2194   26.0017 C   0  0  2  0  0  0  0  0  0  0  0  0
    8.1783  -12.5380   25.3556 C   0  0  0  0  0  0  0  0  0  0  0  0
    6.4020  -14.2878   25.1398 C   0  0  2  0  0  0  0  0  0  0  0  0
    5.3893  -14.9518   26.0075 N   0  0  0  0  0  0  0  0  0  0  0  0
    7.3615  -15.3145   24.6720 C   0  0  0  0  0  0  0  0  0  0  0  0
    7.7767  -16.2405   25.4547 O   0  0  0  0  0  0  0  0  0  0  0  0
    7.5390  -16.1480   20.7947 C   0  0  0  0  0  0  0  0  0  0  0  0
    8.9014  -16.2843   21.4119 C   0  0  1  0  0  0  0  0  0  0  0  0
    9.6408  -15.1572   21.1375 O   0  0  0  0  0  0  0  0  0  0  0  0
    8.8058  -16.4322   22.9471 C   0  0  2  0  0  0  0  0  0  0  0  0
    7.9017  -15.3861   23.3579 N   0  0  0  0  0  0  0  0  0  0  0  0
   10.1475  -16.3808   23.5052 C   0  0  0  0  0  0  0  0  0  0  0  0
   10.5657  -15.2132   23.8237 O   0  0  0  0  0  0  0  0  0  0  0  0
   11.8904  -19.4196   25.4387 O   0  0  0  0  0  0  0  0  0  0  0  0
   12.5038  -18.1926   25.5737 C   0  0  0  0  0  0  0  0  0  0  0  0
   12.3118  -17.2871   24.4038 C   0  0  2  0  0  0  0  0  0  0  0  0
   11.0343  -17.4466   23.7367 N   0  0  0  0  0  0  0  0  0  0  0  0
   13.3762  -17.6278   23.3924 C   0  0  0  0  0  0  0  0  0  0  0  0
   14.5927  -17.6194   23.6720 O   0  0  0  0  0  0  0  0  0  0  0  0
   13.0306  -17.9700   22.0859 O   0  0  0  0  0  0  0  0  0  0  0  0
  2  1  1  0
  3  5  1  0
  3  2  1  0
  3  4  1  6
  5  7  1  0
  5  6  1  1
  7  8  2  0
 10  9  1  1
 10 12  1  0
 11 10  1  0
 12 13  1  1
 13  7  1  0
 14 12  1  0
 14 15  2  0
 16 17  1  0
 18 17  1  1
 18 19  1  0
 18 20  1  0
 19 14  1  0
 20 21  2  0
 20 22  1  0
M  END
$$$$
