ITS.pdb
     RDKit          3D

 22 21  0  0  1  0  0  0  0  0999 V2000
    7.1631  -11.7188   27.5452 C   0  0  0  0  0  0  0  0  0  0  0  0
    6.2755  -12.7603   26.8401 C   0  0  0  0  0  0  0  0  0  0  0  0
    7.1971  -13.5662   25.9797 C   0  0  2  0  0  0  0  0  0  0  0  0
    8.0566  -12.6728   25.1056 C   0  0  0  0  0  0  0  0  0  0  0  0
    6.5694  -14.6827   25.2144 C   0  0  2  0  0  0  0  0  0  0  0  0
    5.9318  -15.5350   26.2567 N   0  0  0  0  0  0  0  0  0  0  0  0
    7.5117  -15.5210   24.4378 C   0  0  0  0  0  0  0  0  0  0  0  0
    8.2134  -16.4309   25.0056 O   0  0  0  0  0  0  0  0  0  0  0  0
    6.7734  -16.4733   20.7425 C   0  0  0  0  0  0  0  0  0  0  0  0
    8.2443  -16.1951   20.8628 C   0  0  1  0  0  0  0  0  0  0  0  0
    8.5139  -14.9431   20.3606 O   0  0  0  0  0  0  0  0  0  0  0  0
    8.6989  -16.2268   22.3394 C   0  0  2  0  0  0  0  0  0  0  0  0
    7.7298  -15.4166   23.0359 N   0  0  0  0  0  0  0  0  0  0  0  0
   10.0816  -15.7828   22.4116 C   0  0  0  0  0  0  0  0  0  0  0  0
   10.2463  -14.5266   22.5975 O   0  0  0  0  0  0  0  0  0  0  0  0
   13.4379  -16.4129   25.2715 O   0  0  0  0  0  0  0  0  0  0  0  0
   12.2630  -16.4567   24.5520 C   0  0  0  0  0  0  0  0  0  0  0  0
   12.4476  -16.3004   23.0800 C   0  0  2  0  0  0  0  0  0  0  0  0
   11.2500  -16.5568   22.3039 N   0  0  0  0  0  0  0  0  0  0  0  0
   13.4733  -17.3159   22.6454 C   0  0  0  0  0  0  0  0  0  0  0  0
   14.6653  -17.2626   23.0119 O   0  0  0  0  0  0  0  0  0  0  0  0
   13.1177  -18.3686   21.8035 O   0  0  0  0  0  0  0  0  0  0  0  0
  2  1  1  0
  3  5  1  0
  3  2  1  0
  3  4  1  6
  5  7  1  0
  5  6  1  1
  7  8  2  0
 10  9  1  1
 10 12  1  0
 11 10  1  0
 12 13  1  1
 13  7  1  0
 14 12  1  0
 14 15  2  0
 16 17  1  0
 18 17  1  1
 18 19  1  0
 18 20  1  0
 19 14  1  0
 20 21  2  0
 20 22  1  0
M  END
$$$$
