ITS.pdb
     RDKit          3D

 22 21  0  0  1  0  0  0  0  0999 V2000
    6.5613  -11.2003   27.7109 C   0  0  0  0  0  0  0  0  0  0  0  0
    5.7470  -12.2153   26.8884 C   0  0  0  0  0  0  0  0  0  0  0  0
    6.7530  -13.0838   26.2007 C   0  0  2  0  0  0  0  0  0  0  0  0
    7.8251  -12.2533   25.5214 C   0  0  0  0  0  0  0  0  0  0  0  0
    6.2009  -14.1455   25.3093 C   0  0  2  0  0  0  0  0  0  0  0  0
    5.2776  -14.9215   26.1838 N   0  0  0  0  0  0  0  0  0  0  0  0
    7.2041  -15.0779   24.7454 C   0  0  0  0  0  0  0  0  0  0  0  0
    7.7633  -15.9714   25.4743 O   0  0  0  0  0  0  0  0  0  0  0  0
    7.2255  -15.4507   20.7926 C   0  0  0  0  0  0  0  0  0  0  0  0
    8.5746  -15.8129   21.3441 C   0  0  1  0  0  0  0  0  0  0  0  0
    9.4383  -14.7571   21.1655 O   0  0  0  0  0  0  0  0  0  0  0  0
    8.4956  -16.1160   22.8572 C   0  0  2  0  0  0  0  0  0  0  0  0
    7.6361  -15.0874   23.3900 N   0  0  0  0  0  0  0  0  0  0  0  0
    9.8460  -16.1696   23.3936 C   0  0  0  0  0  0  0  0  0  0  0  0
   10.3453  -15.0420   23.7385 O   0  0  0  0  0  0  0  0  0  0  0  0
   11.8367  -19.6100   24.3937 O   0  0  0  0  0  0  0  0  0  0  0  0
   12.4423  -18.4548   24.8394 C   0  0  0  0  0  0  0  0  0  0  0  0
   12.0092  -17.2250   24.1146 C   0  0  2  0  0  0  0  0  0  0  0  0
   10.6637  -17.2978   23.5791 N   0  0  0  0  0  0  0  0  0  0  0  0
   12.9359  -17.0460   22.9394 C   0  0  0  0  0  0  0  0  0  0  0  0
   12.5245  -17.0128   21.7613 O   0  0  0  0  0  0  0  0  0  0  0  0
   14.3096  -16.9090   23.1330 O   0  0  0  0  0  0  0  0  0  0  0  0
  2  1  1  0
  3  5  1  0
  3  2  1  0
  3  4  1  6
  5  7  1  0
  5  6  1  1
  7  8  2  0
 10  9  1  1
 10 12  1  0
 11 10  1  0
 12 13  1  1
 13  7  1  0
 14 12  1  0
 14 15  2  0
 16 17  1  0
 18 17  1  6
 18 19  1  0
 18 20  1  0
 19 14  1  0
 20 21  2  0
 20 22  1  0
M  END
$$$$
