ITS.pdb
     RDKit          3D

 22 21  0  0  1  0  0  0  0  0999 V2000
    8.5741  -12.1125   27.7888 C   0  0  0  0  0  0  0  0  0  0  0  0
    7.7817  -13.3045   27.2221 C   0  0  0  0  0  0  0  0  0  0  0  0
    6.9783  -12.7566   26.0848 C   0  0  2  0  0  0  0  0  0  0  0  0
    6.1764  -11.5419   26.5117 C   0  0  0  0  0  0  0  0  0  0  0  0
    6.1584  -13.7458   25.3260 C   0  0  2  0  0  0  0  0  0  0  0  0
    5.2613  -14.3489   26.3512 N   0  0  0  0  0  0  0  0  0  0  0  0
    6.9261  -14.8345   24.6787 C   0  0  0  0  0  0  0  0  0  0  0  0
    7.1502  -15.9406   25.2861 O   0  0  0  0  0  0  0  0  0  0  0  0
    6.7920  -15.1194   20.8117 C   0  0  0  0  0  0  0  0  0  0  0  0
    8.1480  -15.5922   21.2515 C   0  0  1  0  0  0  0  0  0  0  0  0
    9.0778  -14.6112   20.9952 O   0  0  0  0  0  0  0  0  0  0  0  0
    8.1704  -15.8887   22.7679 C   0  0  2  0  0  0  0  0  0  0  0  0
    7.4724  -14.7774   23.3664 N   0  0  0  0  0  0  0  0  0  0  0  0
    9.5497  -16.0837   23.1848 C   0  0  0  0  0  0  0  0  0  0  0  0
   10.1390  -15.0415   23.6388 O   0  0  0  0  0  0  0  0  0  0  0  0
   11.2609  -19.6909   23.9450 O   0  0  0  0  0  0  0  0  0  0  0  0
   12.0049  -18.6024   24.3469 C   0  0  0  0  0  0  0  0  0  0  0  0
   11.6806  -17.3433   23.6157 C   0  0  2  0  0  0  0  0  0  0  0  0
   10.3092  -17.2661   23.1516 N   0  0  0  0  0  0  0  0  0  0  0  0
   12.5577  -17.2963   22.3907 C   0  0  0  0  0  0  0  0  0  0  0  0
   12.0932  -17.1671   21.2393 O   0  0  0  0  0  0  0  0  0  0  0  0
   13.9433  -17.3975   22.5053 O   0  0  0  0  0  0  0  0  0  0  0  0
  2  1  1  0
  3  5  1  0
  3  2  1  0
  3  4  1  1
  5  7  1  0
  5  6  1  1
  7  8  2  0
 10  9  1  1
 10 12  1  0
 11 10  1  0
 12 13  1  1
 13  7  1  0
 14 12  1  0
 14 15  2  0
 16 17  1  0
 18 17  1  6
 18 19  1  0
 18 20  1  0
 19 14  1  0
 20 21  2  0
 20 22  1  0
M  END
$$$$
