ITS.pdb
     RDKit          3D

 22 21  0  0  1  0  0  0  0  0999 V2000
    6.8619  -11.5532   27.4522 C   0  0  0  0  0  0  0  0  0  0  0  0
    6.0237  -12.4984   26.5725 C   0  0  0  0  0  0  0  0  0  0  0  0
    6.9917  -13.4803   25.9912 C   0  0  2  0  0  0  0  0  0  0  0  0
    8.2022  -12.7792   25.4048 C   0  0  0  0  0  0  0  0  0  0  0  0
    6.4152  -14.4979   25.0647 C   0  0  2  0  0  0  0  0  0  0  0  0
    5.3474  -15.1635   25.8622 N   0  0  0  0  0  0  0  0  0  0  0  0
    7.3651  -15.5345   24.5990 C   0  0  0  0  0  0  0  0  0  0  0  0
    7.7081  -16.5092   25.3572 O   0  0  0  0  0  0  0  0  0  0  0  0
    7.4835  -16.2522   20.7507 C   0  0  0  0  0  0  0  0  0  0  0  0
    8.8468  -16.5059   21.3274 C   0  0  1  0  0  0  0  0  0  0  0  0
    9.6659  -15.4366   21.0481 O   0  0  0  0  0  0  0  0  0  0  0  0
    8.7811  -16.6705   22.8625 C   0  0  2  0  0  0  0  0  0  0  0  0
    7.9722  -15.5643   23.3128 N   0  0  0  0  0  0  0  0  0  0  0  0
   10.1371  -16.7318   23.3836 C   0  0  0  0  0  0  0  0  0  0  0  0
   10.5820  -15.6419   23.8874 O   0  0  0  0  0  0  0  0  0  0  0  0
   11.7052  -19.6025   25.4472 O   0  0  0  0  0  0  0  0  0  0  0  0
   12.4177  -18.4272   25.3420 C   0  0  0  0  0  0  0  0  0  0  0  0
   12.3337  -17.7858   23.9978 C   0  0  2  0  0  0  0  0  0  0  0  0
   11.0122  -17.8317   23.4029 N   0  0  0  0  0  0  0  0  0  0  0  0
   13.2518  -18.5488   23.0775 C   0  0  0  0  0  0  0  0  0  0  0  0
   12.8588  -19.0484   22.0032 O   0  0  0  0  0  0  0  0  0  0  0  0
   14.5960  -18.7251   23.4020 O   0  0  0  0  0  0  0  0  0  0  0  0
  2  1  1  0
  3  5  1  0
  3  2  1  0
  3  4  1  6
  5  7  1  0
  5  6  1  1
  7  8  2  0
 10  9  1  1
 10 12  1  0
 11 10  1  0
 12 13  1  1
 13  7  1  0
 14 12  1  0
 14 15  2  0
 16 17  1  0
 18 17  1  1
 18 19  1  0
 18 20  1  0
 19 14  1  0
 20 21  2  0
 20 22  1  0
M  END
$$$$
