ITS.pdb
     RDKit          3D

 22 21  0  0  1  0  0  0  0  0999 V2000
    7.5533  -11.2611   26.8303 C   0  0  0  0  0  0  0  0  0  0  0  0
    7.7744  -12.7764   26.6726 C   0  0  0  0  0  0  0  0  0  0  0  0
    6.5398  -13.3020   26.0101 C   0  0  2  0  0  0  0  0  0  0  0  0
    5.2875  -12.8205   26.7177 C   0  0  0  0  0  0  0  0  0  0  0  0
    6.5161  -14.7691   25.7395 C   0  0  2  0  0  0  0  0  0  0  0  0
    7.5504  -15.3319   26.6521 N   0  0  0  0  0  0  0  0  0  0  0  0
    6.8562  -15.1585   24.3516 C   0  0  0  0  0  0  0  0  0  0  0  0
    6.0227  -14.9917   23.3923 O   0  0  0  0  0  0  0  0  0  0  0  0
    7.1109  -13.9488   22.1398 C   0  0  0  0  0  0  0  0  0  0  0  0
    8.3542  -14.7284   21.8205 C   0  0  1  0  0  0  0  0  0  0  0  0
    9.4579  -14.0052   22.2093 O   0  0  0  0  0  0  0  0  0  0  0  0
    8.3756  -16.0771   22.5744 C   0  0  2  0  0  0  0  0  0  0  0  0
    8.0934  -15.7318   23.9462 N   0  0  0  0  0  0  0  0  0  0  0  0
    9.6494  -16.7318   22.3233 C   0  0  0  0  0  0  0  0  0  0  0  0
   10.5458  -16.5518   23.2198 O   0  0  0  0  0  0  0  0  0  0  0  0
   10.5667  -19.0028   18.9769 O   0  0  0  0  0  0  0  0  0  0  0  0
   11.2406  -19.3672   20.1228 C   0  0  0  0  0  0  0  0  0  0  0  0
   11.2272  -18.3259   21.1909 C   0  0  2  0  0  0  0  0  0  0  0  0
   10.0145  -17.5321   21.2268 N   0  0  0  0  0  0  0  0  0  0  0  0
   12.3613  -17.3748   20.9056 C   0  0  0  0  0  0  0  0  0  0  0  0
   12.1760  -16.1623   20.6736 O   0  0  0  0  0  0  0  0  0  0  0  0
   13.6800  -17.8265   20.8910 O   0  0  0  0  0  0  0  0  0  0  0  0
  2  1  1  0
  3  5  1  0
  3  2  1  0
  3  4  1  1
  5  7  1  0
  5  6  1  1
  7  8  2  0
 10  9  1  1
 10 12  1  0
 11 10  1  0
 12 13  1  1
 13  7  1  0
 14 12  1  0
 14 15  2  0
 16 17  1  0
 18 17  1  6
 18 19  1  0
 18 20  1  0
 19 14  1  0
 20 21  2  0
 20 22  1  0
M  END
$$$$
