CLD.pdb
     RDKit          3D

 23 22  0  0  1  0  0  0  0  0999 V2000
    8.3297  -15.6085   19.8924 N   0  0  0  0  0  0  0  0  0  0  0  0
    7.4686  -15.8046   21.0259 C   0  0  1  0  0  0  0  0  0  0  0  0
    7.3584  -17.2925   21.3315 C   0  0  0  0  0  0  0  0  0  0  0  0
    8.2372  -18.2838   20.1022 S   0  0  0  0  0  0  0  0  0  0  0  0
    8.0876  -15.1699   22.2100 C   0  0  0  0  0  0  0  0  0  0  0  0
    9.3285  -14.9663   22.2765 O   0  0  0  0  0  0  0  0  0  0  0  0
    7.7481  -11.3749   25.9763 C   0  0  0  0  0  0  0  0  0  0  0  0
    7.1817  -12.7141   26.4999 C   0  0  1  0  0  0  0  0  0  0  0  0
    6.0824  -12.3289   27.4557 C   0  0  0  0  0  0  0  0  0  0  0  0
    6.7495  -13.4753   25.3023 C   0  0  0  0  0  0  0  0  0  0  0  0
    7.8134  -14.0446   24.4271 C   0  0  2  0  0  0  0  0  0  0  0  0
    7.2794  -14.7731   23.3095 N   0  0  0  0  0  0  0  0  0  0  0  0
    8.8339  -14.8118   25.1681 C   0  0  0  0  0  0  0  0  0  0  0  0
    9.2573  -14.3853   26.2702 O   0  0  0  0  0  0  0  0  0  0  0  0
    9.3713  -16.0354   24.6840 N   0  0  0  0  0  0  0  0  0  0  0  0
   10.2860  -16.8357   25.4752 C   0  0  1  0  0  0  0  0  0  0  0  0
    9.6615  -17.2924   26.7617 C   0  0  0  0  0  0  0  0  0  0  0  0
   10.5687  -18.1013   27.6092 C   0  0  0  0  0  0  0  0  0  0  0  0
   11.7534  -18.2817   27.2484 O   0  0  0  0  0  0  0  0  0  0  0  0
   10.8105  -17.9673   24.6753 C   0  0  0  0  0  0  0  0  0  0  0  0
   11.9763  -18.6455   25.0418 O   0  0  0  0  0  0  0  0  0  0  0  0
   10.1515  -18.6722   28.7981 O   0  0  0  0  0  0  0  0  0  0  0  0
   10.2271  -18.3599   23.6376 O   0  0  0  0  0  0  0  0  0  0  0  0
  2  1  1  6
  2  5  1  0
  3  2  1  0
  4  3  1  0
  5  6  2  0
  8  7  1  6
  8  9  1  0
 11 10  1  1
 10  8  1  0
 11 13  1  0
 12  5  1  0
 12 11  1  0
 13 15  1  0
 14 13  2  0
 16 15  1  0
 16 20  1  0
 16 17  1  1
 18 17  1  0
 18 22  1  0
 19 18  2  0
 20 21  1  0
 23 20  2  0
M  END
$$$$
