CLD.pdb
     RDKit          3D

 23 22  0  0  1  0  0  0  0  0999 V2000
    6.7671  -16.6385   21.3794 N   0  0  0  0  0  0  0  0  0  0  0  0
    7.7000  -15.6231   20.9750 C   0  0  1  0  0  0  0  0  0  0  0  0
    6.9925  -14.6018   20.0943 C   0  0  0  0  0  0  0  0  0  0  0  0
    8.1431  -13.3480   19.4858 S   0  0  0  0  0  0  0  0  0  0  0  0
    8.1677  -14.8995   22.1774 C   0  0  0  0  0  0  0  0  0  0  0  0
    9.2373  -14.2350   22.1732 O   0  0  0  0  0  0  0  0  0  0  0  0
    8.1815  -11.8436   26.3379 C   0  0  0  0  0  0  0  0  0  0  0  0
    7.1692  -12.9776   26.6167 C   0  0  1  0  0  0  0  0  0  0  0  0
    6.0309  -12.3166   27.3501 C   0  0  0  0  0  0  0  0  0  0  0  0
    6.8265  -13.5585   25.2955 C   0  0  0  0  0  0  0  0  0  0  0  0
    7.8754  -14.3590   24.6021 C   0  0  2  0  0  0  0  0  0  0  0  0
    7.4056  -14.9429   23.3761 N   0  0  0  0  0  0  0  0  0  0  0  0
    8.5384  -15.3427   25.4807 C   0  0  0  0  0  0  0  0  0  0  0  0
    9.0924  -14.9601   26.5401 O   0  0  0  0  0  0  0  0  0  0  0  0
    8.5807  -16.7311   25.1786 N   0  0  0  0  0  0  0  0  0  0  0  0
    9.8321  -17.4599   25.1026 C   0  0  1  0  0  0  0  0  0  0  0  0
   10.7133  -16.9465   24.0009 C   0  0  0  0  0  0  0  0  0  0  0  0
   12.0223  -17.6357   23.9158 C   0  0  0  0  0  0  0  0  0  0  0  0
   12.2384  -18.6408   24.6295 O   0  0  0  0  0  0  0  0  0  0  0  0
   10.5174  -17.4526   26.4163 C   0  0  0  0  0  0  0  0  0  0  0  0
   11.1938  -16.3224   26.8837 O   0  0  0  0  0  0  0  0  0  0  0  0
   13.0270  -17.2055   23.0680 O   0  0  0  0  0  0  0  0  0  0  0  0
   10.5162  -18.4620   27.1597 O   0  0  0  0  0  0  0  0  0  0  0  0
  2  1  1  1
  2  5  1  0
  3  2  1  0
  4  3  1  0
  5  6  2  0
  8  7  1  6
  8  9  1  0
 11 10  1  1
 10  8  1  0
 11 13  1  0
 12  5  1  0
 12 11  1  0
 13 15  1  0
 14 13  2  0
 16 15  1  0
 16 20  1  0
 16 17  1  6
 18 17  1  0
 18 22  1  0
 19 18  2  0
 20 21  1  0
 23 20  2  0
M  END
$$$$
