CLD.pdb
     RDKit          3D

 23 22  0  0  1  0  0  0  0  0999 V2000
    6.8326  -14.6357   20.6995 N   0  0  0  0  0  0  0  0  0  0  0  0
    8.2600  -14.5155   20.8124 C   0  0  1  0  0  0  0  0  0  0  0  0
    8.7027  -13.1633   20.2693 C   0  0  0  0  0  0  0  0  0  0  0  0
    7.6783  -12.6476   18.8726 S   0  0  0  0  0  0  0  0  0  0  0  0
    8.6287  -14.5422   22.2447 C   0  0  0  0  0  0  0  0  0  0  0  0
    9.8316  -14.5278   22.6169 O   0  0  0  0  0  0  0  0  0  0  0  0
    5.7846  -11.9714   26.3160 C   0  0  0  0  0  0  0  0  0  0  0  0
    6.9875  -12.4503   25.4721 C   0  0  1  0  0  0  0  0  0  0  0  0
    8.1968  -11.8343   26.1269 C   0  0  0  0  0  0  0  0  0  0  0  0
    6.9379  -13.9328   25.4877 C   0  0  0  0  0  0  0  0  0  0  0  0
    7.9235  -14.6638   24.6416 C   0  0  2  0  0  0  0  0  0  0  0  0
    7.6154  -14.5854   23.2402 N   0  0  0  0  0  0  0  0  0  0  0  0
    8.1691  -16.0483   25.0911 C   0  0  0  0  0  0  0  0  0  0  0  0
    7.4263  -16.9765   24.6882 O   0  0  0  0  0  0  0  0  0  0  0  0
    9.2280  -16.3881   25.9765 N   0  0  0  0  0  0  0  0  0  0  0  0
    9.9191  -17.6601   25.8903 C   0  0  1  0  0  0  0  0  0  0  0  0
   10.5679  -17.8553   24.5506 C   0  0  0  0  0  0  0  0  0  0  0  0
   11.3806  -19.0909   24.4574 C   0  0  0  0  0  0  0  0  0  0  0  0
   11.2149  -20.0037   25.2973 O   0  0  0  0  0  0  0  0  0  0  0  0
   10.8844  -17.8027   27.0053 C   0  0  0  0  0  0  0  0  0  0  0  0
   11.9094  -16.8749   27.2105 O   0  0  0  0  0  0  0  0  0  0  0  0
   12.3271  -19.2764   23.4659 O   0  0  0  0  0  0  0  0  0  0  0  0
   10.8180  -18.7629   27.8085 O   0  0  0  0  0  0  0  0  0  0  0  0
  2  1  1  1
  2  5  1  0
  3  2  1  0
  4  3  1  0
  5  6  2  0
  8  7  1  1
  8  9  1  0
 11 10  1  1
 10  8  1  0
 11 13  1  0
 12  5  1  0
 12 11  1  0
 13 15  1  0
 14 13  2  0
 16 15  1  0
 16 20  1  0
 16 17  1  6
 18 17  1  0
 18 22  1  0
 19 18  2  0
 20 21  1  0
 23 20  2  0
M  END
$$$$
