CLD.pdb
     RDKit          3D

 23 22  0  0  1  0  0  0  0  0999 V2000
    8.3281  -15.6269   20.1024 N   0  0  0  0  0  0  0  0  0  0  0  0
    7.3780  -15.3909   21.1543 C   0  0  1  0  0  0  0  0  0  0  0  0
    6.5362  -16.6414   21.3715 C   0  0  0  0  0  0  0  0  0  0  0  0
    7.5226  -17.9860   22.0681 S   0  0  0  0  0  0  0  0  0  0  0  0
    8.1131  -15.1465   22.4144 C   0  0  0  0  0  0  0  0  0  0  0  0
    9.3657  -15.0187   22.4335 O   0  0  0  0  0  0  0  0  0  0  0  0
    5.7530  -12.0691   26.7318 C   0  0  0  0  0  0  0  0  0  0  0  0
    6.8219  -12.4216   25.6727 C   0  0  1  0  0  0  0  0  0  0  0  0
    8.0261  -11.5934   26.0391 C   0  0  0  0  0  0  0  0  0  0  0  0
    7.0095  -13.8911   25.7497 C   0  0  0  0  0  0  0  0  0  0  0  0
    8.0082  -14.5071   24.8304 C   0  0  2  0  0  0  0  0  0  0  0  0
    7.4067  -15.0503   23.6438 N   0  0  0  0  0  0  0  0  0  0  0  0
    8.9075  -15.4671   25.5002 C   0  0  0  0  0  0  0  0  0  0  0  0
    9.7473  -15.0561   26.3377 O   0  0  0  0  0  0  0  0  0  0  0  0
    8.8676  -16.8635   25.2371 N   0  0  0  0  0  0  0  0  0  0  0  0
   10.0520  -17.6947   25.3342 C   0  0  1  0  0  0  0  0  0  0  0  0
   11.2370  -17.0613   24.6648 C   0  0  0  0  0  0  0  0  0  0  0  0
   12.4752  -17.8701   24.7571 C   0  0  0  0  0  0  0  0  0  0  0  0
   12.4305  -19.0112   25.2690 O   0  0  0  0  0  0  0  0  0  0  0  0
   10.3276  -18.0420   26.7479 C   0  0  0  0  0  0  0  0  0  0  0  0
   11.4355  -18.8131   27.1106 O   0  0  0  0  0  0  0  0  0  0  0  0
   13.6935  -17.4066   24.2940 O   0  0  0  0  0  0  0  0  0  0  0  0
    9.5759  -17.6566   27.6742 O   0  0  0  0  0  0  0  0  0  0  0  0
  2  1  1  6
  2  5  1  0
  3  2  1  0
  4  3  1  0
  5  6  2  0
  8  7  1  1
  8  9  1  0
 11 10  1  1
 10  8  1  0
 11 13  1  0
 12  5  1  0
 12 11  1  0
 13 15  1  0
 14 13  2  0
 16 15  1  0
 16 20  1  0
 16 17  1  1
 18 17  1  0
 18 22  1  0
 19 18  2  0
 20 21  1  0
 23 20  2  0
M  END
$$$$
