CLD.pdb
     RDKit          3D

 23 22  0  0  1  0  0  0  0  0999 V2000
    7.7696  -14.8681   19.7192 N   0  0  0  0  0  0  0  0  0  0  0  0
    6.9520  -15.0647   20.8844 C   0  0  1  0  0  0  0  0  0  0  0  0
    6.4702  -16.5086   20.9320 C   0  0  0  0  0  0  0  0  0  0  0  0
    7.8062  -17.6614   20.5417 S   0  0  0  0  0  0  0  0  0  0  0  0
    7.7817  -14.8511   22.0903 C   0  0  0  0  0  0  0  0  0  0  0  0
    9.0383  -14.7984   22.0259 O   0  0  0  0  0  0  0  0  0  0  0  0
    5.7591  -12.1983   26.6799 C   0  0  0  0  0  0  0  0  0  0  0  0
    6.6881  -12.5109   25.4850 C   0  0  1  0  0  0  0  0  0  0  0  0
    7.7743  -11.4687   25.5486 C   0  0  0  0  0  0  0  0  0  0  0  0
    7.1364  -13.9132   25.6673 C   0  0  0  0  0  0  0  0  0  0  0  0
    7.9290  -14.5315   24.5668 C   0  0  2  0  0  0  0  0  0  0  0  0
    7.1648  -14.6995   23.3615 N   0  0  0  0  0  0  0  0  0  0  0  0
    8.6287  -15.7669   24.9708 C   0  0  0  0  0  0  0  0  0  0  0  0
    7.9769  -16.8257   25.1431 O   0  0  0  0  0  0  0  0  0  0  0  0
   10.0341  -15.8165   25.1786 N   0  0  0  0  0  0  0  0  0  0  0  0
   10.7145  -17.0516   25.5169 C   0  0  1  0  0  0  0  0  0  0  0  0
   12.1421  -17.0500   25.0524 C   0  0  0  0  0  0  0  0  0  0  0  0
   12.4434  -18.1006   24.0518 C   0  0  0  0  0  0  0  0  0  0  0  0
   11.5521  -18.9160   23.7253 O   0  0  0  0  0  0  0  0  0  0  0  0
   10.5989  -17.3270   26.9682 C   0  0  0  0  0  0  0  0  0  0  0  0
    9.9863  -16.4217   27.8393 O   0  0  0  0  0  0  0  0  0  0  0  0
   13.6873  -18.2164   23.4577 O   0  0  0  0  0  0  0  0  0  0  0  0
   11.0469  -18.3845   27.4706 O   0  0  0  0  0  0  0  0  0  0  0  0
  2  1  1  6
  2  5  1  0
  3  2  1  0
  4  3  1  0
  5  6  2  0
  8  7  1  1
  8  9  1  0
 11 10  1  1
 10  8  1  0
 11 13  1  0
 12  5  1  0
 12 11  1  0
 13 15  1  0
 14 13  2  0
 16 15  1  0
 16 20  1  0
 16 17  1  1
 18 17  1  0
 18 22  1  0
 19 18  2  0
 20 21  1  0
 23 20  2  0
M  END
$$$$
