CLD.pdb
     RDKit          3D

 23 22  0  0  1  0  0  0  0  0999 V2000
    6.5921  -15.9133   19.7107 N   0  0  0  0  0  0  0  0  0  0  0  0
    6.1694  -15.4892   21.0169 C   0  0  1  0  0  0  0  0  0  0  0  0
    5.4641  -16.6393   21.7234 C   0  0  0  0  0  0  0  0  0  0  0  0
    6.5286  -18.0956   21.8340 S   0  0  0  0  0  0  0  0  0  0  0  0
    7.3663  -15.1625   21.8225 C   0  0  0  0  0  0  0  0  0  0  0  0
    8.5258  -15.4604   21.4320 O   0  0  0  0  0  0  0  0  0  0  0  0
    8.0106  -12.9361   27.2856 C   0  0  0  0  0  0  0  0  0  0  0  0
    7.2364  -13.4569   26.0536 C   0  0  1  0  0  0  0  0  0  0  0  0
    5.8723  -12.8242   26.1504 C   0  0  0  0  0  0  0  0  0  0  0  0
    8.0386  -13.0678   24.8680 C   0  0  0  0  0  0  0  0  0  0  0  0
    8.3588  -14.1313   23.8739 C   0  0  2  0  0  0  0  0  0  0  0  0
    7.2252  -14.4967   23.0699 N   0  0  0  0  0  0  0  0  0  0  0  0
    9.0348  -15.3026   24.4657 C   0  0  0  0  0  0  0  0  0  0  0  0
    8.5072  -15.9056   25.4320 O   0  0  0  0  0  0  0  0  0  0  0  0
   10.2800  -15.7907   23.9843 N   0  0  0  0  0  0  0  0  0  0  0  0
   10.9037  -16.9761   24.5400 C   0  0  1  0  0  0  0  0  0  0  0  0
   11.1032  -18.0426   23.5025 C   0  0  0  0  0  0  0  0  0  0  0  0
   10.2083  -19.2116   23.6712 C   0  0  0  0  0  0  0  0  0  0  0  0
    9.4173  -19.2488   24.6403 O   0  0  0  0  0  0  0  0  0  0  0  0
   12.1669  -16.6230   25.2292 C   0  0  0  0  0  0  0  0  0  0  0  0
   12.8887  -15.4742   24.8934 O   0  0  0  0  0  0  0  0  0  0  0  0
   10.2138  -20.2764   22.7883 O   0  0  0  0  0  0  0  0  0  0  0  0
   12.6370  -17.3429   26.1416 O   0  0  0  0  0  0  0  0  0  0  0  0
  2  1  1  6
  2  5  1  0
  3  2  1  0
  4  3  1  0
  5  6  2  0
  8  7  1  1
  8  9  1  0
 11 10  1  1
 10  8  1  0
 11 13  1  0
 12  5  1  0
 12 11  1  0
 13 15  1  0
 14 13  2  0
 16 15  1  0
 16 20  1  0
 16 17  1  6
 18 17  1  0
 18 22  1  0
 19 18  2  0
 20 21  1  0
 23 20  2  0
M  END
$$$$
