CLD.pdb
     RDKit          3D

 23 22  0  0  1  0  0  0  0  0999 V2000
    7.0830  -16.0285   19.4542 N   0  0  0  0  0  0  0  0  0  0  0  0
    6.3461  -16.0701   20.6871 C   0  0  1  0  0  0  0  0  0  0  0  0
    6.0478  -17.5176   21.0547 C   0  0  0  0  0  0  0  0  0  0  0  0
    5.0374  -18.3227   19.7909 S   0  0  0  0  0  0  0  0  0  0  0  0
    7.1939  -15.5208   21.7678 C   0  0  0  0  0  0  0  0  0  0  0  0
    8.4492  -15.4932   21.6722 O   0  0  0  0  0  0  0  0  0  0  0  0
    8.1339  -12.0096   25.6894 C   0  0  0  0  0  0  0  0  0  0  0  0
    7.2529  -13.1685   26.2084 C   0  0  1  0  0  0  0  0  0  0  0  0
    6.3599  -12.5468   27.2507 C   0  0  0  0  0  0  0  0  0  0  0  0
    6.5587  -13.7226   25.0203 C   0  0  0  0  0  0  0  0  0  0  0  0
    7.3782  -14.4887   24.0388 C   0  0  2  0  0  0  0  0  0  0  0  0
    6.5963  -15.0071   22.9503 N   0  0  0  0  0  0  0  0  0  0  0  0
    8.2313  -15.5182   24.6643 C   0  0  0  0  0  0  0  0  0  0  0  0
    7.7094  -16.5535   25.1453 O   0  0  0  0  0  0  0  0  0  0  0  0
    9.6445  -15.3912   24.7501 N   0  0  0  0  0  0  0  0  0  0  0  0
   10.5002  -16.5304   25.0207 C   0  0  1  0  0  0  0  0  0  0  0  0
   11.5898  -16.6680   23.9973 C   0  0  0  0  0  0  0  0  0  0  0  0
   11.3518  -17.7535   23.0171 C   0  0  0  0  0  0  0  0  0  0  0  0
   10.5753  -18.6903   23.3097 O   0  0  0  0  0  0  0  0  0  0  0  0
   11.0346  -16.4615   26.4010 C   0  0  0  0  0  0  0  0  0  0  0  0
   10.7691  -15.3728   27.2362 O   0  0  0  0  0  0  0  0  0  0  0  0
   11.9626  -17.7718   21.7761 O   0  0  0  0  0  0  0  0  0  0  0  0
   11.7465  -17.3792   26.8728 O   0  0  0  0  0  0  0  0  0  0  0  0
  2  1  1  6
  2  5  1  0
  3  2  1  0
  4  3  1  0
  5  6  2  0
  8  7  1  6
  8  9  1  0
 11 10  1  1
 10  8  1  0
 11 13  1  0
 12  5  1  0
 12 11  1  0
 13 15  1  0
 14 13  2  0
 16 15  1  0
 16 20  1  0
 16 17  1  6
 18 17  1  0
 18 22  1  0
 19 18  2  0
 20 21  1  0
 23 20  2  0
M  END
$$$$
