CLD.pdb
     RDKit          3D

 23 22  0  0  1  0  0  0  0  0999 V2000
    6.7014  -16.6423   21.1984 N   0  0  0  0  0  0  0  0  0  0  0  0
    8.0578  -16.2141   20.9943 C   0  0  1  0  0  0  0  0  0  0  0  0
    8.1179  -15.2559   19.8121 C   0  0  0  0  0  0  0  0  0  0  0  0
    9.8137  -15.0396   19.2258 S   0  0  0  0  0  0  0  0  0  0  0  0
    8.5018  -15.4543   22.1833 C   0  0  0  0  0  0  0  0  0  0  0  0
    9.7027  -15.1065   22.3336 O   0  0  0  0  0  0  0  0  0  0  0  0
    8.1633  -11.9084   26.1297 C   0  0  0  0  0  0  0  0  0  0  0  0
    7.1513  -13.0529   26.3631 C   0  0  1  0  0  0  0  0  0  0  0  0
    5.9658  -12.4001   27.0255 C   0  0  0  0  0  0  0  0  0  0  0  0
    6.8901  -13.6504   25.0307 C   0  0  0  0  0  0  0  0  0  0  0  0
    7.9684  -14.4829   24.4258 C   0  0  2  0  0  0  0  0  0  0  0  0
    7.5655  -15.0986   23.1915 N   0  0  0  0  0  0  0  0  0  0  0  0
    8.5651  -15.4468   25.3714 C   0  0  0  0  0  0  0  0  0  0  0  0
    7.8459  -16.3291   25.9005 O   0  0  0  0  0  0  0  0  0  0  0  0
    9.9432  -15.4235   25.7190 N   0  0  0  0  0  0  0  0  0  0  0  0
   10.5233  -16.4059   26.6142 C   0  0  1  0  0  0  0  0  0  0  0  0
   11.9712  -16.6572   26.3075 C   0  0  0  0  0  0  0  0  0  0  0  0
   12.2105  -17.1553   24.9326 C   0  0  0  0  0  0  0  0  0  0  0  0
   11.4768  -18.0551   24.4656 O   0  0  0  0  0  0  0  0  0  0  0  0
   10.3112  -16.0103   28.0263 C   0  0  0  0  0  0  0  0  0  0  0  0
    9.8643  -14.7313   28.3698 O   0  0  0  0  0  0  0  0  0  0  0  0
   13.2261  -16.6583   24.1358 O   0  0  0  0  0  0  0  0  0  0  0  0
   10.5249  -16.8095   28.9682 O   0  0  0  0  0  0  0  0  0  0  0  0
  2  1  1  1
  2  5  1  0
  3  2  1  0
  4  3  1  0
  5  6  2  0
  8  7  1  6
  8  9  1  0
 11 10  1  1
 10  8  1  0
 11 13  1  0
 12  5  1  0
 12 11  1  0
 13 15  1  0
 14 13  2  0
 16 15  1  0
 16 20  1  0
 16 17  1  6
 18 17  1  0
 18 22  1  0
 19 18  2  0
 20 21  1  0
 23 20  2  0
M  END
$$$$
