CLD.pdb
     RDKit          3D

 23 22  0  0  1  0  0  0  0  0999 V2000
    8.1420  -14.8565   20.2821 N   0  0  0  0  0  0  0  0  0  0  0  0
    7.5291  -15.4826   21.4211 C   0  0  1  0  0  0  0  0  0  0  0  0
    7.6528  -16.9957   21.2997 C   0  0  0  0  0  0  0  0  0  0  0  0
    6.6518  -17.6304   19.9354 S   0  0  0  0  0  0  0  0  0  0  0  0
    8.2723  -15.0894   22.6382 C   0  0  0  0  0  0  0  0  0  0  0  0
    9.5195  -14.9162   22.6227 O   0  0  0  0  0  0  0  0  0  0  0  0
    5.5955  -12.3583   26.7677 C   0  0  0  0  0  0  0  0  0  0  0  0
    6.5823  -12.6832   25.6235 C   0  0  1  0  0  0  0  0  0  0  0  0
    7.3928  -11.4271   25.4351 C   0  0  0  0  0  0  0  0  0  0  0  0
    7.3458  -13.8763   26.0640 C   0  0  0  0  0  0  0  0  0  0  0  0
    8.2574  -14.5153   25.0728 C   0  0  2  0  0  0  0  0  0  0  0  0
    7.5801  -14.8977   23.8644 N   0  0  0  0  0  0  0  0  0  0  0  0
    9.0649  -15.6125   25.6412 C   0  0  0  0  0  0  0  0  0  0  0  0
    8.5224  -16.7118   25.9114 O   0  0  0  0  0  0  0  0  0  0  0  0
   10.4560  -15.4817   25.9028 N   0  0  0  0  0  0  0  0  0  0  0  0
   11.2417  -16.5798   26.4319 C   0  0  1  0  0  0  0  0  0  0  0  0
   12.7086  -16.3950   26.1719 C   0  0  0  0  0  0  0  0  0  0  0  0
   13.0321  -16.1275   24.7508 C   0  0  0  0  0  0  0  0  0  0  0  0
   12.5045  -16.8250   23.8557 O   0  0  0  0  0  0  0  0  0  0  0  0
   10.9495  -16.7809   27.8705 C   0  0  0  0  0  0  0  0  0  0  0  0
   10.1920  -15.8604   28.6001 O   0  0  0  0  0  0  0  0  0  0  0  0
   13.9056  -15.1245   24.3708 O   0  0  0  0  0  0  0  0  0  0  0  0
   11.3716  -17.7864   28.4888 O   0  0  0  0  0  0  0  0  0  0  0  0
  2  1  1  6
  2  5  1  0
  3  2  1  0
  4  3  1  0
  5  6  2  0
  8  7  1  1
  8  9  1  0
 11 10  1  1
 10  8  1  0
 11 13  1  0
 12  5  1  0
 12 11  1  0
 13 15  1  0
 14 13  2  0
 16 15  1  0
 16 20  1  0
 16 17  1  1
 18 17  1  0
 18 22  1  0
 19 18  2  0
 20 21  1  0
 23 20  2  0
M  END
$$$$
