CLD.pdb
     RDKit          3D

 23 22  0  0  1  0  0  0  0  0999 V2000
    5.7201  -19.4272   22.7579 N   0  0  0  0  0  0  0  0  0  0  0  0
    5.8375  -18.5552   23.8939 C   0  0  1  0  0  0  0  0  0  0  0  0
    6.3681  -19.3396   25.0866 C   0  0  0  0  0  0  0  0  0  0  0  0
    5.6127  -20.9785   25.1851 S   0  0  0  0  0  0  0  0  0  0  0  0
    6.8389  -17.5095   23.5906 C   0  0  0  0  0  0  0  0  0  0  0  0
    7.7893  -17.7181   22.7912 O   0  0  0  0  0  0  0  0  0  0  0  0
    8.3071  -13.1260   26.7184 C   0  0  0  0  0  0  0  0  0  0  0  0
    7.1485  -13.9462   26.1071 C   0  0  1  0  0  0  0  0  0  0  0  0
    5.8912  -13.2820   26.6056 C   0  0  0  0  0  0  0  0  0  0  0  0
    7.3498  -13.9122   24.6378 C   0  0  0  0  0  0  0  0  0  0  0  0
    7.7046  -15.1922   23.9614 C   0  0  2  0  0  0  0  0  0  0  0  0
    6.7435  -16.2321   24.2060 N   0  0  0  0  0  0  0  0  0  0  0  0
    9.0904  -15.6286   24.2225 C   0  0  0  0  0  0  0  0  0  0  0  0
   10.0129  -15.2740   23.4486 O   0  0  0  0  0  0  0  0  0  0  0  0
    9.4378  -16.4481   25.3308 N   0  0  0  0  0  0  0  0  0  0  0  0
   10.7714  -16.9953   25.4897 C   0  0  1  0  0  0  0  0  0  0  0  0
   11.8322  -16.0078   25.0982 C   0  0  0  0  0  0  0  0  0  0  0  0
   12.5226  -16.3469   23.8317 C   0  0  0  0  0  0  0  0  0  0  0  0
   12.1857  -17.3738   23.2007 O   0  0  0  0  0  0  0  0  0  0  0  0
   10.9624  -17.5046   26.8679 C   0  0  0  0  0  0  0  0  0  0  0  0
   12.1290  -18.1750   27.2463 O   0  0  0  0  0  0  0  0  0  0  0  0
   13.5377  -15.5629   23.3138 O   0  0  0  0  0  0  0  0  0  0  0  0
   10.0832  -17.3531   27.7485 O   0  0  0  0  0  0  0  0  0  0  0  0
  2  1  1  6
  2  5  1  0
  3  2  1  0
  4  3  1  0
  5  6  2  0
  8  7  1  1
  8  9  1  0
 11 10  1  1
 10  8  1  0
 11 13  1  0
 12  5  1  0
 12 11  1  0
 13 15  1  0
 14 13  2  0
 16 15  1  0
 16 20  1  0
 16 17  1  1
 18 17  1  0
 18 22  1  0
 19 18  2  0
 20 21  1  0
 23 20  2  0
M  END
$$$$
