CLD.pdb
     RDKit          3D

 23 22  0  0  1  0  0  0  0  0999 V2000
    8.3406  -14.3272   19.7762 N   0  0  0  0  0  0  0  0  0  0  0  0
    7.2892  -14.2848   20.7548 C   0  0  1  0  0  0  0  0  0  0  0  0
    6.3994  -15.5112   20.6011 C   0  0  0  0  0  0  0  0  0  0  0  0
    7.3011  -17.0304   20.9821 S   0  0  0  0  0  0  0  0  0  0  0  0
    7.8907  -14.3596   22.1041 C   0  0  0  0  0  0  0  0  0  0  0  0
    9.1214  -14.5708   22.2672 O   0  0  0  0  0  0  0  0  0  0  0  0
    5.6138  -11.6533   26.5314 C   0  0  0  0  0  0  0  0  0  0  0  0
    6.7106  -12.0860   25.5322 C   0  0  1  0  0  0  0  0  0  0  0  0
    7.9592  -11.3762   25.9877 C   0  0  0  0  0  0  0  0  0  0  0  0
    6.7602  -13.5674   25.5906 C   0  0  0  0  0  0  0  0  0  0  0  0
    7.6123  -14.2681   24.5883 C   0  0  2  0  0  0  0  0  0  0  0  0
    7.0769  -14.1917   23.2569 N   0  0  0  0  0  0  0  0  0  0  0  0
    7.9636  -15.6475   24.9794 C   0  0  0  0  0  0  0  0  0  0  0  0
    7.1999  -16.5962   24.6755 O   0  0  0  0  0  0  0  0  0  0  0  0
    9.1494  -15.9598   25.6984 N   0  0  0  0  0  0  0  0  0  0  0  0
    9.8001  -17.2501   25.5775 C   0  0  1  0  0  0  0  0  0  0  0  0
   10.1765  -17.5568   24.1570 C   0  0  0  0  0  0  0  0  0  0  0  0
   10.8394  -18.8711   23.9875 C   0  0  0  0  0  0  0  0  0  0  0  0
   11.5644  -19.3196   24.9036 O   0  0  0  0  0  0  0  0  0  0  0  0
   10.9612  -17.3335   26.4943 C   0  0  0  0  0  0  0  0  0  0  0  0
   11.2793  -18.5159   27.1683 O   0  0  0  0  0  0  0  0  0  0  0  0
   10.6861  -19.6306   22.8415 O   0  0  0  0  0  0  0  0  0  0  0  0
   11.7036  -16.3447   26.7003 O   0  0  0  0  0  0  0  0  0  0  0  0
  2  1  1  6
  2  5  1  0
  3  2  1  0
  4  3  1  0
  5  6  2  0
  8  7  1  1
  8  9  1  0
 11 10  1  1
 10  8  1  0
 11 13  1  0
 12  5  1  0
 12 11  1  0
 13 15  1  0
 14 13  2  0
 16 15  1  0
 16 20  1  0
 16 17  1  6
 18 17  1  0
 18 22  1  0
 19 18  2  0
 20 21  1  0
 23 20  2  0
M  END
$$$$
