CLD.pdb
     RDKit          3D

 23 22  0  0  1  0  0  0  0  0999 V2000
    8.3049  -14.6344   19.9964 N   0  0  0  0  0  0  0  0  0  0  0  0
    7.3188  -14.5237   21.0357 C   0  0  1  0  0  0  0  0  0  0  0  0
    6.4900  -15.8002   21.0908 C   0  0  0  0  0  0  0  0  0  0  0  0
    7.5425  -17.2629   21.2277 S   0  0  0  0  0  0  0  0  0  0  0  0
    8.0103  -14.4067   22.3382 C   0  0  0  0  0  0  0  0  0  0  0  0
    9.2668  -14.3936   22.4193 O   0  0  0  0  0  0  0  0  0  0  0  0
    5.4744  -11.8708   26.8524 C   0  0  0  0  0  0  0  0  0  0  0  0
    6.4700  -12.1162   25.6960 C   0  0  1  0  0  0  0  0  0  0  0  0
    7.5510  -11.0833   25.8825 C   0  0  0  0  0  0  0  0  0  0  0  0
    6.9069  -13.5283   25.8209 C   0  0  0  0  0  0  0  0  0  0  0  0
    7.8732  -14.0423   24.8091 C   0  0  2  0  0  0  0  0  0  0  0  0
    7.2560  -14.3055   23.5383 N   0  0  0  0  0  0  0  0  0  0  0  0
    8.6798  -15.1797   25.2936 C   0  0  0  0  0  0  0  0  0  0  0  0
    9.1770  -15.1465   26.4457 O   0  0  0  0  0  0  0  0  0  0  0  0
    8.9257  -16.3346   24.5022 N   0  0  0  0  0  0  0  0  0  0  0  0
    9.7271  -17.4403   24.9903 C   0  0  1  0  0  0  0  0  0  0  0  0
    9.4280  -18.7155   24.2568 C   0  0  0  0  0  0  0  0  0  0  0  0
   10.2945  -19.8492   24.6564 C   0  0  0  0  0  0  0  0  0  0  0  0
   11.2631  -20.1709   23.9322 O   0  0  0  0  0  0  0  0  0  0  0  0
   11.1675  -17.0954   24.9481 C   0  0  0  0  0  0  0  0  0  0  0  0
   12.1140  -17.8094   25.6883 O   0  0  0  0  0  0  0  0  0  0  0  0
   10.0713  -20.5746   25.8128 O   0  0  0  0  0  0  0  0  0  0  0  0
   11.5925  -16.1483   24.2454 O   0  0  0  0  0  0  0  0  0  0  0  0
  2  1  1  6
  2  5  1  0
  3  2  1  0
  4  3  1  0
  5  6  2  0
  8  7  1  1
  8  9  1  0
 11 10  1  1
 10  8  1  0
 11 13  1  0
 12  5  1  0
 12 11  1  0
 13 15  1  0
 14 13  2  0
 16 15  1  0
 16 20  1  0
 16 17  1  6
 18 17  1  0
 18 22  1  0
 19 18  2  0
 20 21  1  0
 23 20  2  0
M  END
$$$$
