CLD.pdb
     RDKit          3D

 23 22  0  0  1  0  0  0  0  0999 V2000
    8.2882  -14.6862   19.9475 N   0  0  0  0  0  0  0  0  0  0  0  0
    7.4247  -15.0993   21.0192 C   0  0  1  0  0  0  0  0  0  0  0  0
    7.1189  -16.5851   20.8841 C   0  0  0  0  0  0  0  0  0  0  0  0
    8.4351  -17.4500   19.9976 S   0  0  0  0  0  0  0  0  0  0  0  0
    8.1404  -14.9252   22.3020 C   0  0  0  0  0  0  0  0  0  0  0  0
    9.3959  -14.9930   22.3716 O   0  0  0  0  0  0  0  0  0  0  0  0
    5.8519  -12.1088   26.7222 C   0  0  0  0  0  0  0  0  0  0  0  0
    6.8625  -12.4688   25.6097 C   0  0  1  0  0  0  0  0  0  0  0  0
    8.0122  -11.5134   25.7991 C   0  0  0  0  0  0  0  0  0  0  0  0
    7.1871  -13.9042   25.7964 C   0  0  0  0  0  0  0  0  0  0  0  0
    8.0568  -14.5523   24.7740 C   0  0  2  0  0  0  0  0  0  0  0  0
    7.4115  -14.6747   23.4959 N   0  0  0  0  0  0  0  0  0  0  0  0
    8.6528  -15.8229   25.2318 C   0  0  0  0  0  0  0  0  0  0  0  0
    7.9508  -16.8627   25.2726 O   0  0  0  0  0  0  0  0  0  0  0  0
   10.0112  -15.9279   25.6370 N   0  0  0  0  0  0  0  0  0  0  0  0
   10.5929  -17.1926   26.0436 C   0  0  1  0  0  0  0  0  0  0  0  0
   12.0444  -17.2867   25.6722 C   0  0  0  0  0  0  0  0  0  0  0  0
   12.3485  -18.3945   24.7363 C   0  0  0  0  0  0  0  0  0  0  0  0
   11.4306  -19.1615   24.3684 O   0  0  0  0  0  0  0  0  0  0  0  0
   10.3693  -17.4253   27.4897 C   0  0  0  0  0  0  0  0  0  0  0  0
   10.4939  -16.3948   28.4257 O   0  0  0  0  0  0  0  0  0  0  0  0
   13.6234  -18.6165   24.2477 O   0  0  0  0  0  0  0  0  0  0  0  0
   10.0593  -18.5577   27.9293 O   0  0  0  0  0  0  0  0  0  0  0  0
  2  1  1  6
  2  5  1  0
  3  2  1  0
  4  3  1  0
  5  6  2  0
  8  7  1  1
  8  9  1  0
 11 10  1  1
 10  8  1  0
 11 13  1  0
 12  5  1  0
 12 11  1  0
 13 15  1  0
 14 13  2  0
 16 15  1  0
 16 20  1  0
 16 17  1  1
 18 17  1  0
 18 22  1  0
 19 18  2  0
 20 21  1  0
 23 20  2  0
M  END
$$$$
