LIR.pdb
     RDKit          3D

 28 27  0  0  1  0  0  0  0  0999 V2000
    4.3076  -16.9388   20.5406 C   0  0  0  0  0  0  0  0  0  0  0  0
    5.7517  -17.3800   20.3415 C   0  0  2  0  0  0  0  0  0  0  0  0
    5.7608  -18.8880   20.5641 C   0  0  0  0  0  0  0  0  0  0  0  0
    6.6047  -16.7789   21.4088 C   0  0  0  0  0  0  0  0  0  0  0  0
    6.6967  -15.2764   21.3611 C   0  0  2  0  0  0  0  0  0  0  0  0
    7.1995  -14.7830   20.1043 N   0  0  0  0  0  0  0  0  0  0  0  0
    7.5834  -14.9043   22.4969 C   0  0  0  0  0  0  0  0  0  0  0  0
    8.8167  -14.7891   22.2781 O   0  0  0  0  0  0  0  0  0  0  0  0
    5.6633  -11.7281   26.4646 C   0  0  0  0  0  0  0  0  0  0  0  0
    6.6755  -12.3034   25.5331 C   0  0  0  0  0  0  0  0  0  0  0  0
    7.2779  -13.5935   26.0347 C   0  0  2  0  0  0  0  0  0  0  0  0
    8.2671  -13.3957   27.1418 C   0  0  0  0  0  0  0  0  0  0  0  0
    7.9735  -14.3608   24.9364 C   0  0  2  0  0  0  0  0  0  0  0  0
    7.1216  -14.6692   23.8222 N   0  0  0  0  0  0  0  0  0  0  0  0
    8.6170  -15.5475   25.5443 C   0  0  0  0  0  0  0  0  0  0  0  0
    7.8247  -16.3750   26.0937 O   0  0  0  0  0  0  0  0  0  0  0  0
   16.1186  -19.4250   25.6055 N   0  0  0  0  0  0  0  0  0  0  0  0
   15.2703  -20.5100   25.1649 C   0  0  0  0  0  0  0  0  0  0  0  0
   15.6874  -21.7159   25.3343 N   0  0  0  0  0  0  0  0  0  0  0  0
   14.0243  -20.2772   24.5706 N   0  0  0  0  0  0  0  0  0  0  0  0
   13.6480  -18.8730   24.2606 C   0  0  0  0  0  0  0  0  0  0  0  0
   12.4692  -18.5910   25.0971 C   0  0  0  0  0  0  0  0  0  0  0  0
   11.7940  -17.3027   25.1444 C   0  0  0  0  0  0  0  0  0  0  0  0
   10.5724  -17.1307   25.9340 C   0  0  2  0  0  0  0  0  0  0  0  0
    9.9791  -15.7985   25.5493 N   0  0  0  0  0  0  0  0  0  0  0  0
   10.6595  -17.0161   27.3871 C   0  0  0  0  0  0  0  0  0  0  0  0
   10.8215  -15.7692   28.0381 O   0  0  0  0  0  0  0  0  0  0  0  0
   10.6001  -17.9857   28.1451 O   0  0  0  0  0  0  0  0  0  0  0  0
  2  1  1  1
  3  2  1  0
  4  2  1  0
  5  4  1  0
  5  6  1  6
  7  8  2  0
  7  5  1  0
  9 10  1  0
 10 11  1  0
 11 13  1  0
 11 12  1  1
 13 14  1  6
 14  7  1  0
 15 13  1  0
 15 25  1  0
 16 15  2  0
 18 17  1  0
 18 20  1  0
 19 18  2  0
 21 20  1  0
 22 21  1  0
 22 23  1  0
 24 23  1  6
 24 25  1  0
 24 26  1  0
 26 28  2  0
 26 27  1  0
M  END
$$$$
