LIR.pdb
     RDKit          3D

 28 27  0  0  1  0  0  0  0  0999 V2000
   11.3047  -18.4504   14.2714 C   0  0  0  0  0  0  0  0  0  0  0  0
   10.9549  -16.9682   14.2580 C   0  0  2  0  0  0  0  0  0  0  0  0
   12.0548  -16.2880   13.4510 C   0  0  0  0  0  0  0  0  0  0  0  0
   11.0382  -16.4272   15.6467 C   0  0  0  0  0  0  0  0  0  0  0  0
   10.0764  -17.0566   16.6198 C   0  0  2  0  0  0  0  0  0  0  0  0
    8.7062  -16.9902   16.1795 N   0  0  0  0  0  0  0  0  0  0  0  0
   10.2830  -16.3256   17.8995 C   0  0  0  0  0  0  0  0  0  0  0  0
   11.4534  -16.2317   18.3507 O   0  0  0  0  0  0  0  0  0  0  0  0
    6.8944  -12.1966   19.2957 C   0  0  0  0  0  0  0  0  0  0  0  0
    8.1173  -13.0295   19.1114 C   0  0  0  0  0  0  0  0  0  0  0  0
    8.3105  -14.0503   20.2067 C   0  0  2  0  0  0  0  0  0  0  0  0
    8.6146  -13.4397   21.5402 C   0  0  0  0  0  0  0  0  0  0  0  0
    9.4213  -15.0219   19.8886 C   0  0  2  0  0  0  0  0  0  0  0  0
    9.2344  -15.7229   18.6492 N   0  0  0  0  0  0  0  0  0  0  0  0
    9.5998  -15.9115   21.0584 C   0  0  0  0  0  0  0  0  0  0  0  0
    8.6546  -16.7348   21.2656 O   0  0  0  0  0  0  0  0  0  0  0  0
   16.2360  -19.4521   21.8961 N   0  0  0  0  0  0  0  0  0  0  0  0
   15.4194  -19.8074   20.7568 C   0  0  0  0  0  0  0  0  0  0  0  0
   15.8948  -20.6480   19.9058 N   0  0  0  0  0  0  0  0  0  0  0  0
   14.1425  -19.2657   20.5672 N   0  0  0  0  0  0  0  0  0  0  0  0
   13.8509  -17.9354   21.1629 C   0  0  0  0  0  0  0  0  0  0  0  0
   12.9456  -18.2038   22.2931 C   0  0  0  0  0  0  0  0  0  0  0  0
   12.3298  -17.1663   23.1069 C   0  0  0  0  0  0  0  0  0  0  0  0
   10.8918  -16.9033   23.0152 C   0  0  2  0  0  0  0  0  0  0  0  0
   10.6941  -15.8991   21.9073 N   0  0  0  0  0  0  0  0  0  0  0  0
   10.1999  -16.2643   24.1311 C   0  0  0  0  0  0  0  0  0  0  0  0
    9.6639  -17.0057   25.2117 O   0  0  0  0  0  0  0  0  0  0  0  0
   10.0327  -15.0462   24.2128 O   0  0  0  0  0  0  0  0  0  0  0  0
  2  1  1  1
  3  2  1  0
  4  2  1  0
  5  4  1  0
  5  6  1  6
  7  8  2  0
  7  5  1  0
  9 10  1  0
 10 11  1  0
 11 13  1  0
 11 12  1  1
 13 14  1  6
 14  7  1  0
 15 13  1  0
 15 25  1  0
 16 15  2  0
 18 17  1  0
 18 20  1  0
 19 18  2  0
 21 20  1  0
 22 21  1  0
 22 23  1  0
 24 23  1  1
 24 25  1  0
 24 26  1  0
 26 28  2  0
 26 27  1  0
M  END
$$$$
