LIR.pdb
     RDKit          3D

 28 27  0  0  1  0  0  0  0  0999 V2000
    5.7689  -14.3921   19.1828 C   0  0  0  0  0  0  0  0  0  0  0  0
    6.9569  -15.3374   19.3043 C   0  0  2  0  0  0  0  0  0  0  0  0
    6.3819  -16.7449   19.1951 C   0  0  0  0  0  0  0  0  0  0  0  0
    7.5491  -15.2156   20.6691 C   0  0  0  0  0  0  0  0  0  0  0  0
    7.9877  -13.8224   21.0364 C   0  0  2  0  0  0  0  0  0  0  0  0
    9.0143  -13.3079   20.1663 N   0  0  0  0  0  0  0  0  0  0  0  0
    8.4542  -13.9200   22.4462 C   0  0  0  0  0  0  0  0  0  0  0  0
    9.6467  -14.2595   22.6580 O   0  0  0  0  0  0  0  0  0  0  0  0
    5.6910  -11.1347   26.3668 C   0  0  0  0  0  0  0  0  0  0  0  0
    6.8259  -11.7059   25.5866 C   0  0  0  0  0  0  0  0  0  0  0  0
    7.1197  -13.1453   25.9337 C   0  0  2  0  0  0  0  0  0  0  0  0
    7.7189  -13.3170   27.2956 C   0  0  0  0  0  0  0  0  0  0  0  0
    8.0570  -13.7895   24.9410 C   0  0  2  0  0  0  0  0  0  0  0  0
    7.6319  -13.6521   23.5762 N   0  0  0  0  0  0  0  0  0  0  0  0
    8.2752  -15.1921   25.3616 C   0  0  0  0  0  0  0  0  0  0  0  0
    7.2703  -15.9599   25.2390 O   0  0  0  0  0  0  0  0  0  0  0  0
   14.0301  -19.1550   23.6715 N   0  0  0  0  0  0  0  0  0  0  0  0
   13.1576  -20.2566   23.3302 C   0  0  0  0  0  0  0  0  0  0  0  0
   13.6450  -21.2278   22.6402 N   0  0  0  0  0  0  0  0  0  0  0  0
   11.8169  -20.2871   23.7320 N   0  0  0  0  0  0  0  0  0  0  0  0
   11.5102  -20.0452   25.1662 C   0  0  0  0  0  0  0  0  0  0  0  0
   11.6766  -18.5951   25.3619 C   0  0  0  0  0  0  0  0  0  0  0  0
   10.6515  -17.6092   25.0537 C   0  0  0  0  0  0  0  0  0  0  0  0
    9.7086  -17.1683   26.0842 C   0  0  2  0  0  0  0  0  0  0  0  0
    9.4641  -15.6967   25.8617 N   0  0  0  0  0  0  0  0  0  0  0  0
   10.1041  -17.2012   27.4895 C   0  0  0  0  0  0  0  0  0  0  0  0
   10.4950  -16.0356   28.1917 O   0  0  0  0  0  0  0  0  0  0  0  0
   10.1273  -18.2349   28.1597 O   0  0  0  0  0  0  0  0  0  0  0  0
  2  1  1  1
  3  2  1  0
  4  2  1  0
  5  4  1  0
  5  6  1  6
  7  8  2  0
  7  5  1  0
  9 10  1  0
 10 11  1  0
 11 13  1  0
 11 12  1  1
 13 14  1  6
 14  7  1  0
 15 13  1  0
 15 25  1  0
 16 15  2  0
 18 17  1  0
 18 20  1  0
 19 18  2  0
 21 20  1  0
 22 21  1  0
 22 23  1  0
 24 23  1  6
 24 25  1  0
 24 26  1  0
 26 28  2  0
 26 27  1  0
M  END
$$$$
