LIR.pdb
     RDKit          3D

 28 27  0  0  1  0  0  0  0  0999 V2000
    8.1168  -14.0225   18.1458 C   0  0  0  0  0  0  0  0  0  0  0  0
    7.2891  -13.1752   19.1031 C   0  0  2  0  0  0  0  0  0  0  0  0
    7.4650  -11.7331   18.6415 C   0  0  0  0  0  0  0  0  0  0  0  0
    7.8715  -13.2655   20.4745 C   0  0  0  0  0  0  0  0  0  0  0  0
    7.7338  -14.6181   21.1224 C   0  0  2  0  0  0  0  0  0  0  0  0
    6.3659  -15.0602   21.2171 N   0  0  0  0  0  0  0  0  0  0  0  0
    8.3632  -14.4735   22.4632 C   0  0  0  0  0  0  0  0  0  0  0  0
    9.5954  -14.2274   22.5205 O   0  0  0  0  0  0  0  0  0  0  0  0
    5.8350  -11.7476   26.2759 C   0  0  0  0  0  0  0  0  0  0  0  0
    6.8818  -12.3847   25.4265 C   0  0  0  0  0  0  0  0  0  0  0  0
    7.3650  -13.7067   25.9720 C   0  0  2  0  0  0  0  0  0  0  0  0
    8.1289  -13.5765   27.2537 C   0  0  0  0  0  0  0  0  0  0  0  0
    8.2479  -14.4383   24.9899 C   0  0  2  0  0  0  0  0  0  0  0  0
    7.6553  -14.5966   23.6914 N   0  0  0  0  0  0  0  0  0  0  0  0
    8.6694  -15.7124   25.6148 C   0  0  0  0  0  0  0  0  0  0  0  0
    7.7321  -16.5335   25.8629 O   0  0  0  0  0  0  0  0  0  0  0  0
   15.7646  -20.6055   23.5535 N   0  0  0  0  0  0  0  0  0  0  0  0
   14.8573  -21.3563   24.3927 C   0  0  0  0  0  0  0  0  0  0  0  0
   15.0450  -22.6243   24.5098 N   0  0  0  0  0  0  0  0  0  0  0  0
   13.7989  -20.7397   25.0704 N   0  0  0  0  0  0  0  0  0  0  0  0
   13.6032  -19.2783   24.8813 C   0  0  0  0  0  0  0  0  0  0  0  0
   12.3720  -18.9506   25.6200 C   0  0  0  0  0  0  0  0  0  0  0  0
   11.6434  -17.6994   25.4733 C   0  0  0  0  0  0  0  0  0  0  0  0
   10.4148  -17.4595   26.2339 C   0  0  2  0  0  0  0  0  0  0  0  0
    9.9748  -16.0487   25.9329 N   0  0  0  0  0  0  0  0  0  0  0  0
   10.4550  -17.4602   27.6936 C   0  0  0  0  0  0  0  0  0  0  0  0
   10.2342  -18.6334   28.4548 O   0  0  0  0  0  0  0  0  0  0  0  0
   10.6807  -16.4504   28.3627 O   0  0  0  0  0  0  0  0  0  0  0  0
  2  1  1  6
  3  2  1  0
  4  2  1  0
  5  4  1  0
  5  6  1  1
  7  8  2  0
  7  5  1  0
  9 10  1  0
 10 11  1  0
 11 13  1  0
 11 12  1  1
 13 14  1  6
 14  7  1  0
 15 13  1  0
 15 25  1  0
 16 15  2  0
 18 17  1  0
 18 20  1  0
 19 18  2  0
 21 20  1  0
 22 21  1  0
 22 23  1  0
 24 23  1  6
 24 25  1  0
 24 26  1  0
 26 28  2  0
 26 27  1  0
M  END
$$$$
