LIR.pdb
     RDKit          3D

 28 27  0  0  1  0  0  0  0  0999 V2000
    5.0462  -16.8943   20.1225 C   0  0  0  0  0  0  0  0  0  0  0  0
    6.5139  -17.2971   20.1789 C   0  0  2  0  0  0  0  0  0  0  0  0
    6.5236  -18.8042   20.4072 C   0  0  0  0  0  0  0  0  0  0  0  0
    7.1530  -16.6733   21.3750 C   0  0  0  0  0  0  0  0  0  0  0  0
    7.1020  -15.1683   21.3954 C   0  0  2  0  0  0  0  0  0  0  0  0
    7.6674  -14.5700   20.2130 N   0  0  0  0  0  0  0  0  0  0  0  0
    7.8402  -14.7703   22.6248 C   0  0  0  0  0  0  0  0  0  0  0  0
    9.0918  -14.6627   22.5606 O   0  0  0  0  0  0  0  0  0  0  0  0
    5.3619  -11.6414   26.3014 C   0  0  0  0  0  0  0  0  0  0  0  0
    6.5083  -12.1741   25.5109 C   0  0  0  0  0  0  0  0  0  0  0  0
    7.0960  -13.4361   26.0947 C   0  0  2  0  0  0  0  0  0  0  0  0
    7.9603  -13.1894   27.2929 C   0  0  0  0  0  0  0  0  0  0  0  0
    7.9238  -14.1967   25.0871 C   0  0  2  0  0  0  0  0  0  0  0  0
    7.2163  -14.5021   23.8752 N   0  0  0  0  0  0  0  0  0  0  0  0
    8.4912  -15.3845   25.7644 C   0  0  0  0  0  0  0  0  0  0  0  0
    7.6738  -16.3347   25.9729 O   0  0  0  0  0  0  0  0  0  0  0  0
   13.1306  -17.2509   21.5105 N   0  0  0  0  0  0  0  0  0  0  0  0
   12.6467  -18.6128   21.4636 C   0  0  0  0  0  0  0  0  0  0  0  0
   13.0757  -19.3790   20.5224 N   0  0  0  0  0  0  0  0  0  0  0  0
   11.7385  -19.1055   22.4081 N   0  0  0  0  0  0  0  0  0  0  0  0
   11.0081  -18.1258   23.2545 C   0  0  0  0  0  0  0  0  0  0  0  0
   11.9984  -17.6366   24.2285 C   0  0  0  0  0  0  0  0  0  0  0  0
   11.7070  -16.6553   25.2628 C   0  0  0  0  0  0  0  0  0  0  0  0
   10.5533  -16.8274   26.1488 C   0  0  2  0  0  0  0  0  0  0  0  0
    9.8093  -15.5155   26.1687 N   0  0  0  0  0  0  0  0  0  0  0  0
   10.7642  -17.0784   27.5718 C   0  0  0  0  0  0  0  0  0  0  0  0
   11.0468  -16.0373   28.4888 O   0  0  0  0  0  0  0  0  0  0  0  0
   10.7133  -18.2028   28.0732 O   0  0  0  0  0  0  0  0  0  0  0  0
  2  1  1  1
  3  2  1  0
  4  2  1  0
  5  4  1  0
  5  6  1  6
  7  8  2  0
  7  5  1  0
  9 10  1  0
 10 11  1  0
 11 13  1  0
 11 12  1  1
 13 14  1  6
 14  7  1  0
 15 13  1  0
 15 25  1  0
 16 15  2  0
 18 17  1  0
 18 20  1  0
 19 18  2  0
 21 20  1  0
 22 21  1  0
 22 23  1  0
 24 23  1  6
 24 25  1  0
 24 26  1  0
 26 28  2  0
 26 27  1  0
M  END
$$$$
