LIR.pdb
     RDKit          3D

 28 27  0  0  1  0  0  0  0  0999 V2000
    8.8181  -14.2494   18.2900 C   0  0  0  0  0  0  0  0  0  0  0  0
    7.9459  -13.3463   19.1520 C   0  0  2  0  0  0  0  0  0  0  0  0
    8.1818  -11.9293   18.6420 C   0  0  0  0  0  0  0  0  0  0  0  0
    8.4336  -13.3863   20.5622 C   0  0  0  0  0  0  0  0  0  0  0  0
    8.2130  -14.7020   21.2611 C   0  0  2  0  0  0  0  0  0  0  0  0
    6.8440  -15.1471   21.2039 N   0  0  0  0  0  0  0  0  0  0  0  0
    8.6651  -14.4797   22.6615 C   0  0  0  0  0  0  0  0  0  0  0  0
    9.8794  -14.2206   22.8624 O   0  0  0  0  0  0  0  0  0  0  0  0
    5.3275  -12.0261   26.0282 C   0  0  0  0  0  0  0  0  0  0  0  0
    6.5776  -12.4868   25.3588 C   0  0  0  0  0  0  0  0  0  0  0  0
    7.1993  -13.6898   26.0261 C   0  0  2  0  0  0  0  0  0  0  0  0
    7.8534  -13.3704   27.3352 C   0  0  0  0  0  0  0  0  0  0  0  0
    8.2354  -14.3530   25.1511 C   0  0  2  0  0  0  0  0  0  0  0  0
    7.8056  -14.5421   23.7939 N   0  0  0  0  0  0  0  0  0  0  0  0
    8.6692  -15.6000   25.8208 C   0  0  0  0  0  0  0  0  0  0  0  0
    7.7468  -16.4421   26.0539 O   0  0  0  0  0  0  0  0  0  0  0  0
   14.5337  -16.3872   21.7215 N   0  0  0  0  0  0  0  0  0  0  0  0
   14.4610  -16.1105   23.1390 C   0  0  0  0  0  0  0  0  0  0  0  0
   15.4781  -15.5606   23.7047 N   0  0  0  0  0  0  0  0  0  0  0  0
   13.3235  -16.4213   23.8935 N   0  0  0  0  0  0  0  0  0  0  0  0
   12.7786  -17.8013   23.8023 C   0  0  0  0  0  0  0  0  0  0  0  0
   11.5668  -17.7987   24.6392 C   0  0  0  0  0  0  0  0  0  0  0  0
   11.5782  -17.6590   26.0877 C   0  0  0  0  0  0  0  0  0  0  0  0
   10.3812  -17.2089   26.8019 C   0  0  2  0  0  0  0  0  0  0  0  0
    9.9708  -15.8910   26.1939 N   0  0  0  0  0  0  0  0  0  0  0  0
   10.4673  -16.8749   28.2208 C   0  0  0  0  0  0  0  0  0  0  0  0
   10.3675  -17.8573   29.2355 O   0  0  0  0  0  0  0  0  0  0  0  0
   10.6303  -15.7258   28.6347 O   0  0  0  0  0  0  0  0  0  0  0  0
  2  1  1  6
  3  2  1  0
  4  2  1  0
  5  4  1  0
  5  6  1  1
  7  8  2  0
  7  5  1  0
  9 10  1  0
 10 11  1  0
 11 13  1  0
 11 12  1  1
 13 14  1  6
 14  7  1  0
 15 13  1  0
 15 25  1  0
 16 15  2  0
 18 17  1  0
 18 20  1  0
 19 18  2  0
 21 20  1  0
 22 21  1  0
 22 23  1  0
 24 23  1  6
 24 25  1  0
 24 26  1  0
 26 28  2  0
 26 27  1  0
M  END
$$$$
