LIR.pdb
     RDKit          3D

 28 27  0  0  1  0  0  0  0  0999 V2000
    8.2035  -17.7773   20.5106 C   0  0  0  0  0  0  0  0  0  0  0  0
    7.4475  -16.6068   21.1252 C   0  0  2  0  0  0  0  0  0  0  0  0
    5.9681  -16.9459   20.9833 C   0  0  0  0  0  0  0  0  0  0  0  0
    7.6906  -15.3786   20.3124 C   0  0  0  0  0  0  0  0  0  0  0  0
    7.2740  -14.0954   20.9817 C   0  0  2  0  0  0  0  0  0  0  0  0
    7.5990  -12.9252   20.2067 N   0  0  0  0  0  0  0  0  0  0  0  0
    7.9693  -14.0990   22.2975 C   0  0  0  0  0  0  0  0  0  0  0  0
    9.2194  -13.9604   22.3122 O   0  0  0  0  0  0  0  0  0  0  0  0
    5.8280  -11.5659   26.5613 C   0  0  0  0  0  0  0  0  0  0  0  0
    6.8114  -12.1566   25.6088 C   0  0  0  0  0  0  0  0  0  0  0  0
    7.1466  -13.5956   25.9185 C   0  0  2  0  0  0  0  0  0  0  0  0
    7.9002  -13.7665   27.2016 C   0  0  0  0  0  0  0  0  0  0  0  0
    7.9640  -14.2371   24.8234 C   0  0  2  0  0  0  0  0  0  0  0  0
    7.3055  -14.2500   23.5471 N   0  0  0  0  0  0  0  0  0  0  0  0
    8.3864  -15.5762   25.2925 C   0  0  0  0  0  0  0  0  0  0  0  0
    7.4426  -16.3602   25.6226 O   0  0  0  0  0  0  0  0  0  0  0  0
   14.8883  -18.2937   21.8583 N   0  0  0  0  0  0  0  0  0  0  0  0
   13.7022  -18.9188   21.3167 C   0  0  0  0  0  0  0  0  0  0  0  0
   13.8504  -19.8333   20.4229 N   0  0  0  0  0  0  0  0  0  0  0  0
   12.4184  -18.5563   21.7411 N   0  0  0  0  0  0  0  0  0  0  0  0
   12.2931  -17.4503   22.7264 C   0  0  0  0  0  0  0  0  0  0  0  0
   11.1823  -17.8399   23.6114 C   0  0  0  0  0  0  0  0  0  0  0  0
   11.2473  -17.8014   25.0647 C   0  0  0  0  0  0  0  0  0  0  0  0
   10.0821  -17.3911   25.8516 C   0  0  2  0  0  0  0  0  0  0  0  0
    9.6989  -16.0076   25.3892 N   0  0  0  0  0  0  0  0  0  0  0  0
   10.2119  -17.2040   27.2940 C   0  0  0  0  0  0  0  0  0  0  0  0
   10.0476  -18.2696   28.2118 O   0  0  0  0  0  0  0  0  0  0  0  0
   10.4700  -16.1166   27.8127 O   0  0  0  0  0  0  0  0  0  0  0  0
  2  1  1  6
  3  2  1  0
  4  2  1  0
  5  4  1  0
  5  6  1  6
  7  8  2  0
  7  5  1  0
  9 10  1  0
 10 11  1  0
 11 13  1  0
 11 12  1  1
 13 14  1  6
 14  7  1  0
 15 13  1  0
 15 25  1  0
 16 15  2  0
 18 17  1  0
 18 20  1  0
 19 18  2  0
 21 20  1  0
 22 21  1  0
 22 23  1  0
 24 23  1  6
 24 25  1  0
 24 26  1  0
 26 28  2  0
 26 27  1  0
M  END
$$$$
