LIR.pdb
     RDKit          3D

 28 27  0  0  1  0  0  0  0  0999 V2000
    5.4636  -15.7237   19.3759 C   0  0  0  0  0  0  0  0  0  0  0  0
    6.9264  -16.1442   19.3211 C   0  0  2  0  0  0  0  0  0  0  0  0
    6.9201  -17.6675   19.2667 C   0  0  0  0  0  0  0  0  0  0  0  0
    7.6007  -15.7585   20.5957 C   0  0  0  0  0  0  0  0  0  0  0  0
    7.4968  -14.2956   20.9382 C   0  0  2  0  0  0  0  0  0  0  0  0
    8.1740  -13.4465   19.9915 N   0  0  0  0  0  0  0  0  0  0  0  0
    8.0748  -14.1734   22.3041 C   0  0  0  0  0  0  0  0  0  0  0  0
    9.3269  -14.1567   22.4229 O   0  0  0  0  0  0  0  0  0  0  0  0
    5.2984  -11.6023   26.2592 C   0  0  0  0  0  0  0  0  0  0  0  0
    6.4586  -12.0857   25.4569 C   0  0  0  0  0  0  0  0  0  0  0  0
    6.9169  -13.4691   25.8506 C   0  0  2  0  0  0  0  0  0  0  0  0
    7.6276  -13.5063   27.1685 C   0  0  0  0  0  0  0  0  0  0  0  0
    7.8383  -14.0771   24.8208 C   0  0  2  0  0  0  0  0  0  0  0  0
    7.2961  -14.0737   23.4910 N   0  0  0  0  0  0  0  0  0  0  0  0
    8.2385  -15.4192   25.3007 C   0  0  0  0  0  0  0  0  0  0  0  0
    7.2900  -16.2532   25.4388 O   0  0  0  0  0  0  0  0  0  0  0  0
   13.3978  -17.2935   20.5065 N   0  0  0  0  0  0  0  0  0  0  0  0
   12.8414  -18.5394   20.9853 C   0  0  0  0  0  0  0  0  0  0  0  0
   13.4306  -19.6354   20.6559 N   0  0  0  0  0  0  0  0  0  0  0  0
   11.6956  -18.5747   21.7888 N   0  0  0  0  0  0  0  0  0  0  0  0
   11.5014  -17.4837   22.7796 C   0  0  0  0  0  0  0  0  0  0  0  0
   10.9510  -18.1384   23.9784 C   0  0  0  0  0  0  0  0  0  0  0  0
   11.0817  -17.6088   25.3276 C   0  0  0  0  0  0  0  0  0  0  0  0
    9.8979  -17.1860   26.0795 C   0  0  2  0  0  0  0  0  0  0  0  0
    9.5357  -15.8038   25.5967 N   0  0  0  0  0  0  0  0  0  0  0  0
    9.9896  -16.9888   27.5235 C   0  0  0  0  0  0  0  0  0  0  0  0
    9.7609  -18.0389   28.4453 O   0  0  0  0  0  0  0  0  0  0  0  0
   10.2687  -15.9055   28.0401 O   0  0  0  0  0  0  0  0  0  0  0  0
  2  1  1  1
  3  2  1  0
  4  2  1  0
  5  4  1  0
  5  6  1  6
  7  8  2  0
  7  5  1  0
  9 10  1  0
 10 11  1  0
 11 13  1  0
 11 12  1  1
 13 14  1  6
 14  7  1  0
 15 13  1  0
 15 25  1  0
 16 15  2  0
 18 17  1  0
 18 20  1  0
 19 18  2  0
 21 20  1  0
 22 21  1  0
 22 23  1  0
 24 23  1  6
 24 25  1  0
 24 26  1  0
 26 28  2  0
 26 27  1  0
M  END
$$$$
