LIR.pdb
     RDKit          3D

 28 27  0  0  1  0  0  0  0  0999 V2000
    8.0421  -14.4950   18.2051 C   0  0  0  0  0  0  0  0  0  0  0  0
    7.4732  -13.4967   19.2047 C   0  0  2  0  0  0  0  0  0  0  0  0
    7.7851  -12.1163   18.6381 C   0  0  0  0  0  0  0  0  0  0  0  0
    8.2128  -13.6126   20.4960 C   0  0  0  0  0  0  0  0  0  0  0  0
    7.9355  -14.8795   21.2618 C   0  0  2  0  0  0  0  0  0  0  0  0
    6.5392  -15.2343   21.2760 N   0  0  0  0  0  0  0  0  0  0  0  0
    8.4570  -14.6279   22.6327 C   0  0  0  0  0  0  0  0  0  0  0  0
    9.6877  -14.4085   22.7720 O   0  0  0  0  0  0  0  0  0  0  0  0
    5.8411  -11.5567   26.0133 C   0  0  0  0  0  0  0  0  0  0  0  0
    6.9715  -12.2766   25.3598 C   0  0  0  0  0  0  0  0  0  0  0  0
    7.2935  -13.5967   26.0175 C   0  0  2  0  0  0  0  0  0  0  0  0
    7.9972  -13.4493   27.3314 C   0  0  0  0  0  0  0  0  0  0  0  0
    8.1518  -14.4749   25.1392 C   0  0  2  0  0  0  0  0  0  0  0  0
    7.6469  -14.6197   23.8026 N   0  0  0  0  0  0  0  0  0  0  0  0
    8.3608  -15.7606   25.8427 C   0  0  0  0  0  0  0  0  0  0  0  0
    7.4839  -16.6524   25.6190 O   0  0  0  0  0  0  0  0  0  0  0  0
   13.4532  -18.1977   21.5588 N   0  0  0  0  0  0  0  0  0  0  0  0
   12.1421  -18.7811   21.3812 C   0  0  0  0  0  0  0  0  0  0  0  0
   11.6365  -18.7929   20.1975 N   0  0  0  0  0  0  0  0  0  0  0  0
   11.4264  -19.3265   22.4536 N   0  0  0  0  0  0  0  0  0  0  0  0
   11.9267  -19.0731   23.8303 C   0  0  0  0  0  0  0  0  0  0  0  0
   10.8341  -18.3651   24.5185 C   0  0  0  0  0  0  0  0  0  0  0  0
   11.0356  -17.4110   25.5988 C   0  0  0  0  0  0  0  0  0  0  0  0
   10.1167  -17.3718   26.7387 C   0  0  2  0  0  0  0  0  0  0  0  0
    9.4148  -16.0374   26.6973 N   0  0  0  0  0  0  0  0  0  0  0  0
   10.6484  -17.3931   28.0986 C   0  0  0  0  0  0  0  0  0  0  0  0
   10.7551  -18.5888   28.8493 O   0  0  0  0  0  0  0  0  0  0  0  0
   11.0380  -16.3827   28.6865 O   0  0  0  0  0  0  0  0  0  0  0  0
  2  1  1  6
  3  2  1  0
  4  2  1  0
  5  4  1  0
  5  6  1  1
  7  8  2  0
  7  5  1  0
  9 10  1  0
 10 11  1  0
 11 13  1  0
 11 12  1  1
 13 14  1  6
 14  7  1  0
 15 13  1  0
 15 25  1  0
 16 15  2  0
 18 17  1  0
 18 20  1  0
 19 18  2  0
 21 20  1  0
 22 21  1  0
 22 23  1  0
 24 23  1  6
 24 25  1  0
 24 26  1  0
 26 28  2  0
 26 27  1  0
M  END
$$$$
