LIR.pdb
     RDKit          3D

 28 27  0  0  1  0  0  0  0  0999 V2000
    8.0306  -14.4922   18.0810 C   0  0  0  0  0  0  0  0  0  0  0  0
    7.3987  -13.4609   19.0065 C   0  0  2  0  0  0  0  0  0  0  0  0
    7.6932  -12.1030   18.3797 C   0  0  0  0  0  0  0  0  0  0  0  0
    8.0940  -13.4888   20.3271 C   0  0  0  0  0  0  0  0  0  0  0  0
    7.8906  -14.7578   21.1122 C   0  0  2  0  0  0  0  0  0  0  0  0
    6.5088  -15.1591   21.1852 N   0  0  0  0  0  0  0  0  0  0  0  0
    8.4580  -14.4777   22.4591 C   0  0  0  0  0  0  0  0  0  0  0  0
    9.6864  -14.2218   22.5476 O   0  0  0  0  0  0  0  0  0  0  0  0
    5.3870  -11.9558   26.1718 C   0  0  0  0  0  0  0  0  0  0  0  0
    6.6060  -12.3639   25.4165 C   0  0  0  0  0  0  0  0  0  0  0  0
    7.2213  -13.6434   25.9296 C   0  0  2  0  0  0  0  0  0  0  0  0
    7.9026  -13.4849   27.2540 C   0  0  0  0  0  0  0  0  0  0  0  0
    8.2320  -14.2149   24.9649 C   0  0  2  0  0  0  0  0  0  0  0  0
    7.6946  -14.4811   23.6600 N   0  0  0  0  0  0  0  0  0  0  0  0
    8.8603  -15.3927   25.6050 C   0  0  0  0  0  0  0  0  0  0  0  0
    8.0637  -16.3313   25.9191 O   0  0  0  0  0  0  0  0  0  0  0  0
   16.8443  -17.4987   22.8972 N   0  0  0  0  0  0  0  0  0  0  0  0
   16.0861  -16.7847   23.9005 C   0  0  0  0  0  0  0  0  0  0  0  0
   16.7324  -16.1096   24.7856 N   0  0  0  0  0  0  0  0  0  0  0  0
   14.6867  -16.8115   23.9247 N   0  0  0  0  0  0  0  0  0  0  0  0
   14.0131  -18.1340   24.0086 C   0  0  0  0  0  0  0  0  0  0  0  0
   12.9630  -17.9733   25.0285 C   0  0  0  0  0  0  0  0  0  0  0  0
   12.0311  -16.8562   25.0683 C   0  0  0  0  0  0  0  0  0  0  0  0
   10.9018  -16.8614   26.0012 C   0  0  2  0  0  0  0  0  0  0  0  0
   10.2128  -15.5260   25.8715 N   0  0  0  0  0  0  0  0  0  0  0  0
   11.1500  -16.9368   27.4382 C   0  0  0  0  0  0  0  0  0  0  0  0
   11.4641  -18.1551   28.0877 O   0  0  0  0  0  0  0  0  0  0  0  0
   11.1036  -15.9564   28.1831 O   0  0  0  0  0  0  0  0  0  0  0  0
  2  1  1  6
  3  2  1  0
  4  2  1  0
  5  4  1  0
  5  6  1  1
  7  8  2  0
  7  5  1  0
  9 10  1  0
 10 11  1  0
 11 13  1  0
 11 12  1  1
 13 14  1  6
 14  7  1  0
 15 13  1  0
 15 25  1  0
 16 15  2  0
 18 17  1  0
 18 20  1  0
 19 18  2  0
 21 20  1  0
 22 21  1  0
 22 23  1  0
 24 23  1  6
 24 25  1  0
 24 26  1  0
 26 28  2  0
 26 27  1  0
M  END
$$$$
