LIR.pdb
     RDKit          3D

 28 27  0  0  1  0  0  0  0  0999 V2000
    5.4133  -12.0543   26.1172 C   0  0  0  0  0  0  0  0  0  0  0  0
    6.3524  -12.7791   27.0723 C   0  0  2  0  0  0  0  0  0  0  0  0
    7.3459  -11.7291   27.5564 C   0  0  0  0  0  0  0  0  0  0  0  0
    7.1353  -13.8010   26.3168 C   0  0  0  0  0  0  0  0  0  0  0  0
    6.2964  -14.7658   25.5207 C   0  0  2  0  0  0  0  0  0  0  0  0
    5.7032  -15.7980   26.3321 N   0  0  0  0  0  0  0  0  0  0  0  0
    7.2168  -15.3277   24.4951 C   0  0  0  0  0  0  0  0  0  0  0  0
    7.7709  -16.4319   24.7316 O   0  0  0  0  0  0  0  0  0  0  0  0
    7.1682  -12.4935   20.0254 C   0  0  0  0  0  0  0  0  0  0  0  0
    7.1463  -13.8907   20.5454 C   0  0  0  0  0  0  0  0  0  0  0  0
    8.4972  -14.3682   21.0207 C   0  0  2  0  0  0  0  0  0  0  0  0
    9.2457  -15.1544   19.9888 C   0  0  0  0  0  0  0  0  0  0  0  0
    8.3936  -15.2267   22.2582 C   0  0  2  0  0  0  0  0  0  0  0  0
    7.5113  -14.6913   23.2569 N   0  0  0  0  0  0  0  0  0  0  0  0
    9.7653  -15.4884   22.7496 C   0  0  0  0  0  0  0  0  0  0  0  0
   10.3189  -14.5211   23.3597 O   0  0  0  0  0  0  0  0  0  0  0  0
   10.3059  -20.7103   27.8893 N   0  0  0  0  0  0  0  0  0  0  0  0
   10.7832  -21.2898   26.6534 C   0  0  0  0  0  0  0  0  0  0  0  0
   10.3772  -22.4698   26.3378 N   0  0  0  0  0  0  0  0  0  0  0  0
   11.6609  -20.6019   25.8071 N   0  0  0  0  0  0  0  0  0  0  0  0
   12.3170  -19.3738   26.3277 C   0  0  0  0  0  0  0  0  0  0  0  0
   12.5312  -18.5163   25.1497 C   0  0  0  0  0  0  0  0  0  0  0  0
   11.4568  -17.9077   24.3797 C   0  0  0  0  0  0  0  0  0  0  0  0
   11.7571  -16.9807   23.2861 C   0  0  2  0  0  0  0  0  0  0  0  0
   10.4538  -16.6793   22.5892 N   0  0  0  0  0  0  0  0  0  0  0  0
   12.6003  -17.4181   22.1770 C   0  0  0  0  0  0  0  0  0  0  0  0
   12.0596  -17.9412   20.9776 O   0  0  0  0  0  0  0  0  0  0  0  0
   13.8311  -17.3655   22.2039 O   0  0  0  0  0  0  0  0  0  0  0  0
  2  1  1  6
  3  2  1  0
  4  2  1  0
  5  4  1  0
  5  6  1  1
  7  8  2  0
  7  5  1  0
  9 10  1  0
 10 11  1  0
 11 13  1  0
 11 12  1  6
 13 14  1  1
 14  7  1  0
 15 13  1  0
 15 25  1  0
 16 15  2  0
 18 17  1  0
 18 20  1  0
 19 18  2  0
 21 20  1  0
 22 21  1  0
 22 23  1  0
 24 23  1  1
 24 25  1  0
 24 26  1  0
 26 28  2  0
 26 27  1  0
M  END
$$$$
