LIR.pdb
     RDKit          3D

 28 27  0  0  1  0  0  0  0  0999 V2000
    5.7855  -20.0111   28.0991 C   0  0  0  0  0  0  0  0  0  0  0  0
    6.3214  -20.7293   26.8676 C   0  0  2  0  0  0  0  0  0  0  0  0
    7.5956  -21.4343   27.3182 C   0  0  0  0  0  0  0  0  0  0  0  0
    6.7228  -19.7217   25.8422 C   0  0  0  0  0  0  0  0  0  0  0  0
    5.6122  -18.8057   25.3999 C   0  0  2  0  0  0  0  0  0  0  0  0
    4.7082  -19.4274   24.4660 N   0  0  0  0  0  0  0  0  0  0  0  0
    6.2950  -17.6239   24.8068 C   0  0  0  0  0  0  0  0  0  0  0  0
    6.5670  -17.6459   23.5789 O   0  0  0  0  0  0  0  0  0  0  0  0
    6.0038  -12.5758   27.0716 C   0  0  0  0  0  0  0  0  0  0  0  0
    6.1596  -13.5447   25.9490 C   0  0  0  0  0  0  0  0  0  0  0  0
    7.5266  -14.1833   25.9017 C   0  0  2  0  0  0  0  0  0  0  0  0
    8.5893  -13.2719   25.3691 C   0  0  0  0  0  0  0  0  0  0  0  0
    7.5399  -15.4364   25.0600 C   0  0  2  0  0  0  0  0  0  0  0  0
    6.6616  -16.4639   25.5450 N   0  0  0  0  0  0  0  0  0  0  0  0
    8.9467  -15.8726   24.9110 C   0  0  0  0  0  0  0  0  0  0  0  0
    9.4461  -16.4555   25.9235 O   0  0  0  0  0  0  0  0  0  0  0  0
   13.6003  -16.6311   17.6699 N   0  0  0  0  0  0  0  0  0  0  0  0
   13.7377  -17.9240   18.3029 C   0  0  0  0  0  0  0  0  0  0  0  0
   14.7549  -18.6488   17.9920 N   0  0  0  0  0  0  0  0  0  0  0  0
   12.8026  -18.3923   19.2336 N   0  0  0  0  0  0  0  0  0  0  0  0
   11.6618  -17.5069   19.5860 C   0  0  0  0  0  0  0  0  0  0  0  0
   11.6322  -17.4755   21.0580 C   0  0  0  0  0  0  0  0  0  0  0  0
   10.6542  -16.7307   21.8369 C   0  0  0  0  0  0  0  0  0  0  0  0
   10.7371  -16.6955   23.2988 C   0  0  2  0  0  0  0  0  0  0  0  0
    9.7204  -15.6893   23.7770 N   0  0  0  0  0  0  0  0  0  0  0  0
   11.9589  -16.2225   23.9437 C   0  0  0  0  0  0  0  0  0  0  0  0
   13.0910  -17.0544   24.1196 O   0  0  0  0  0  0  0  0  0  0  0  0
   12.0924  -15.0773   24.3784 O   0  0  0  0  0  0  0  0  0  0  0  0
  2  1  1  1
  3  2  1  0
  4  2  1  0
  5  4  1  0
  5  6  1  6
  7  8  2  0
  7  5  1  0
  9 10  1  0
 10 11  1  0
 11 13  1  0
 11 12  1  6
 13 14  1  1
 14  7  1  0
 15 13  1  0
 15 25  1  0
 16 15  2  0
 18 17  1  0
 18 20  1  0
 19 18  2  0
 21 20  1  0
 22 21  1  0
 22 23  1  0
 24 23  1  6
 24 25  1  0
 24 26  1  0
 26 28  2  0
 26 27  1  0
M  END
$$$$
