LIR.pdb
     RDKit          3D

 28 27  0  0  1  0  0  0  0  0999 V2000
    8.1519  -12.4915   18.5148 C   0  0  0  0  0  0  0  0  0  0  0  0
    7.4627  -13.5573   19.3565 C   0  0  2  0  0  0  0  0  0  0  0  0
    6.0743  -13.0097   19.6666 C   0  0  0  0  0  0  0  0  0  0  0  0
    8.1754  -13.6958   20.6608 C   0  0  0  0  0  0  0  0  0  0  0  0
    7.8558  -14.9597   21.4148 C   0  0  2  0  0  0  0  0  0  0  0  0
    6.4405  -15.2009   21.5347 N   0  0  0  0  0  0  0  0  0  0  0  0
    8.5041  -14.7946   22.7441 C   0  0  0  0  0  0  0  0  0  0  0  0
    9.7564  -14.6848   22.7877 O   0  0  0  0  0  0  0  0  0  0  0  0
    5.9429  -11.9487   26.5057 C   0  0  0  0  0  0  0  0  0  0  0  0
    7.0453  -12.5437   25.6970 C   0  0  0  0  0  0  0  0  0  0  0  0
    7.5536  -13.8500   26.2573 C   0  0  2  0  0  0  0  0  0  0  0  0
    8.3580  -13.6856   27.5101 C   0  0  0  0  0  0  0  0  0  0  0  0
    8.4085  -14.6000   25.2644 C   0  0  2  0  0  0  0  0  0  0  0  0
    7.7929  -14.7529   23.9760 N   0  0  0  0  0  0  0  0  0  0  0  0
    8.8181  -15.8789   25.8876 C   0  0  0  0  0  0  0  0  0  0  0  0
    7.8741  -16.6948   26.1272 O   0  0  0  0  0  0  0  0  0  0  0  0
   13.4499  -15.4731   22.3303 N   0  0  0  0  0  0  0  0  0  0  0  0
   14.3456  -15.8689   23.3943 C   0  0  0  0  0  0  0  0  0  0  0  0
   15.5365  -15.3804   23.4007 N   0  0  0  0  0  0  0  0  0  0  0  0
   13.9474  -16.7558   24.4017 N   0  0  0  0  0  0  0  0  0  0  0  0
   13.2288  -17.9938   24.0006 C   0  0  0  0  0  0  0  0  0  0  0  0
   11.9307  -17.9335   24.6934 C   0  0  0  0  0  0  0  0  0  0  0  0
   11.7792  -17.9451   26.1407 C   0  0  0  0  0  0  0  0  0  0  0  0
   10.5033  -17.5768   26.7589 C   0  0  2  0  0  0  0  0  0  0  0  0
   10.1194  -16.2244   26.2124 N   0  0  0  0  0  0  0  0  0  0  0  0
   10.4350  -17.3524   28.2002 C   0  0  0  0  0  0  0  0  0  0  0  0
   10.1646  -18.3982   29.1155 O   0  0  0  0  0  0  0  0  0  0  0  0
   10.6049  -16.2481   28.7198 O   0  0  0  0  0  0  0  0  0  0  0  0
  2  1  1  6
  3  2  1  0
  4  2  1  0
  5  4  1  0
  5  6  1  1
  7  8  2  0
  7  5  1  0
  9 10  1  0
 10 11  1  0
 11 13  1  0
 11 12  1  1
 13 14  1  6
 14  7  1  0
 15 13  1  0
 15 25  1  0
 16 15  2  0
 18 17  1  0
 18 20  1  0
 19 18  2  0
 21 20  1  0
 22 21  1  0
 22 23  1  0
 24 23  1  1
 24 25  1  0
 24 26  1  0
 26 28  2  0
 26 27  1  0
M  END
$$$$
