LIR.pdb
     RDKit          3D

 28 27  0  0  1  0  0  0  0  0999 V2000
    3.7159  -19.9145   22.0595 C   0  0  0  0  0  0  0  0  0  0  0  0
    3.1066  -18.6219   22.5862 C   0  0  2  0  0  0  0  0  0  0  0  0
    2.2398  -18.0792   21.4558 C   0  0  0  0  0  0  0  0  0  0  0  0
    4.1905  -17.6225   22.8195 C   0  0  0  0  0  0  0  0  0  0  0  0
    5.2555  -18.0717   23.7851 C   0  0  2  0  0  0  0  0  0  0  0  0
    4.7316  -18.4074   25.0845 N   0  0  0  0  0  0  0  0  0  0  0  0
    6.2218  -16.9419   23.8523 C   0  0  0  0  0  0  0  0  0  0  0  0
    6.7482  -16.5426   22.7820 O   0  0  0  0  0  0  0  0  0  0  0  0
    5.8690  -12.5705   27.0023 C   0  0  0  0  0  0  0  0  0  0  0  0
    6.2944  -13.4451   25.8722 C   0  0  0  0  0  0  0  0  0  0  0  0
    7.4984  -14.2946   26.2002 C   0  0  2  0  0  0  0  0  0  0  0  0
    8.7716  -13.5108   26.2885 C   0  0  0  0  0  0  0  0  0  0  0  0
    7.7115  -15.3936   25.1873 C   0  0  2  0  0  0  0  0  0  0  0  0
    6.5900  -16.2812   25.0576 N   0  0  0  0  0  0  0  0  0  0  0  0
    8.9820  -16.0787   25.5161 C   0  0  0  0  0  0  0  0  0  0  0  0
    8.9859  -16.7223   26.6116 O   0  0  0  0  0  0  0  0  0  0  0  0
   10.2480  -16.0840   19.5916 N   0  0  0  0  0  0  0  0  0  0  0  0
   10.4632  -17.5060   19.4418 C   0  0  0  0  0  0  0  0  0  0  0  0
    9.7903  -18.1317   18.5404 N   0  0  0  0  0  0  0  0  0  0  0  0
   11.3762  -18.2020   20.2430 N   0  0  0  0  0  0  0  0  0  0  0  0
   12.2230  -17.4194   21.1811 C   0  0  0  0  0  0  0  0  0  0  0  0
   11.5518  -17.5185   22.4882 C   0  0  0  0  0  0  0  0  0  0  0  0
   12.0913  -16.9712   23.7239 C   0  0  0  0  0  0  0  0  0  0  0  0
   11.2950  -16.9817   24.9532 C   0  0  2  0  0  0  0  0  0  0  0  0
   10.1224  -16.0596   24.7304 N   0  0  0  0  0  0  0  0  0  0  0  0
   11.8651  -16.4544   26.1899 C   0  0  0  0  0  0  0  0  0  0  0  0
   11.7290  -15.0961   26.5655 O   0  0  0  0  0  0  0  0  0  0  0  0
   12.5007  -17.1453   26.9880 O   0  0  0  0  0  0  0  0  0  0  0  0
  2  1  1  6
  3  2  1  0
  4  2  1  0
  5  4  1  0
  5  6  1  1
  7  8  2  0
  7  5  1  0
  9 10  1  0
 10 11  1  0
 11 13  1  0
 11 12  1  6
 13 14  1  1
 14  7  1  0
 15 13  1  0
 15 25  1  0
 16 15  2  0
 18 17  1  0
 18 20  1  0
 19 18  2  0
 21 20  1  0
 22 21  1  0
 22 23  1  0
 24 23  1  6
 24 25  1  0
 24 26  1  0
 26 28  2  0
 26 27  1  0
M  END
$$$$
