LIR.pdb
     RDKit          3D

 28 27  0  0  1  0  0  0  0  0999 V2000
    7.9588  -14.7636   18.3503 C   0  0  0  0  0  0  0  0  0  0  0  0
    7.2837  -13.6557   19.1481 C   0  0  2  0  0  0  0  0  0  0  0  0
    7.6619  -12.3526   18.4535 C   0  0  0  0  0  0  0  0  0  0  0  0
    7.8724  -13.6032   20.5187 C   0  0  0  0  0  0  0  0  0  0  0  0
    7.6131  -14.8280   21.3560 C   0  0  2  0  0  0  0  0  0  0  0  0
    6.2097  -15.0929   21.5462 N   0  0  0  0  0  0  0  0  0  0  0  0
    8.3083  -14.5718   22.6466 C   0  0  0  0  0  0  0  0  0  0  0  0
    9.5554  -14.4084   22.6304 O   0  0  0  0  0  0  0  0  0  0  0  0
    5.8818  -11.4350   26.1358 C   0  0  0  0  0  0  0  0  0  0  0  0
    6.9588  -12.1254   25.3699 C   0  0  0  0  0  0  0  0  0  0  0  0
    7.5025  -13.3432   26.0772 C   0  0  2  0  0  0  0  0  0  0  0  0
    8.3736  -13.0095   27.2490 C   0  0  0  0  0  0  0  0  0  0  0  0
    8.3047  -14.2267   25.1526 C   0  0  2  0  0  0  0  0  0  0  0  0
    7.6478  -14.4995   23.9050 N   0  0  0  0  0  0  0  0  0  0  0  0
    8.6921  -15.4423   25.9034 C   0  0  0  0  0  0  0  0  0  0  0  0
    7.7288  -16.1817   26.2770 O   0  0  0  0  0  0  0  0  0  0  0  0
   15.9246  -18.2703   24.7635 N   0  0  0  0  0  0  0  0  0  0  0  0
   15.6077  -16.9502   24.2657 C   0  0  0  0  0  0  0  0  0  0  0  0
   16.5513  -16.0762   24.2150 N   0  0  0  0  0  0  0  0  0  0  0  0
   14.3168  -16.6120   23.8426 N   0  0  0  0  0  0  0  0  0  0  0  0
   13.2400  -17.6242   24.0024 C   0  0  0  0  0  0  0  0  0  0  0  0
   12.4077  -17.1364   25.1150 C   0  0  0  0  0  0  0  0  0  0  0  0
   11.1768  -17.7776   25.5528 C   0  0  0  0  0  0  0  0  0  0  0  0
   10.3814  -17.1996   26.6385 C   0  0  2  0  0  0  0  0  0  0  0  0
    9.9925  -15.8065   26.2108 N   0  0  0  0  0  0  0  0  0  0  0  0
   10.9995  -16.9566   27.9389 C   0  0  0  0  0  0  0  0  0  0  0  0
   11.1085  -15.6580   28.4927 O   0  0  0  0  0  0  0  0  0  0  0  0
   11.4676  -17.8540   28.6417 O   0  0  0  0  0  0  0  0  0  0  0  0
  2  1  1  6
  3  2  1  0
  4  2  1  0
  5  4  1  0
  5  6  1  1
  7  8  2  0
  7  5  1  0
  9 10  1  0
 10 11  1  0
 11 13  1  0
 11 12  1  1
 13 14  1  6
 14  7  1  0
 15 13  1  0
 15 25  1  0
 16 15  2  0
 18 17  1  0
 18 20  1  0
 19 18  2  0
 21 20  1  0
 22 21  1  0
 22 23  1  0
 24 23  1  6
 24 25  1  0
 24 26  1  0
 26 28  2  0
 26 27  1  0
M  END
$$$$
