LIR.pdb
     RDKit          3D

 28 27  0  0  1  0  0  0  0  0999 V2000
    8.0353  -14.6278   17.9415 C   0  0  0  0  0  0  0  0  0  0  0  0
    7.1046  -13.7803   18.7988 C   0  0  2  0  0  0  0  0  0  0  0  0
    7.0701  -12.4052   18.1418 C   0  0  0  0  0  0  0  0  0  0  0  0
    7.7064  -13.5989   20.1527 C   0  0  0  0  0  0  0  0  0  0  0  0
    7.7743  -14.8567   20.9783 C   0  0  2  0  0  0  0  0  0  0  0  0
    6.4889  -15.4820   21.1581 N   0  0  0  0  0  0  0  0  0  0  0  0
    8.3735  -14.4393   22.2751 C   0  0  0  0  0  0  0  0  0  0  0  0
    9.5676  -14.0443   22.2810 O   0  0  0  0  0  0  0  0  0  0  0  0
    7.2696  -11.5445   27.5012 C   0  0  0  0  0  0  0  0  0  0  0  0
    8.0537  -12.6005   26.7988 C   0  0  0  0  0  0  0  0  0  0  0  0
    7.3554  -13.1430   25.5754 C   0  0  2  0  0  0  0  0  0  0  0  0
    6.1010  -13.8972   25.8934 C   0  0  0  0  0  0  0  0  0  0  0  0
    8.2456  -14.0610   24.7730 C   0  0  2  0  0  0  0  0  0  0  0  0
    7.6769  -14.4590   23.5158 N   0  0  0  0  0  0  0  0  0  0  0  0
    8.6330  -15.1961   25.6408 C   0  0  0  0  0  0  0  0  0  0  0  0
    7.6894  -15.9855   25.9583 O   0  0  0  0  0  0  0  0  0  0  0  0
   14.9887  -17.0443   22.5314 N   0  0  0  0  0  0  0  0  0  0  0  0
   15.0808  -16.6599   23.9224 C   0  0  0  0  0  0  0  0  0  0  0  0
   15.8887  -15.7090   24.2387 N   0  0  0  0  0  0  0  0  0  0  0  0
   14.3188  -17.2898   24.9135 N   0  0  0  0  0  0  0  0  0  0  0  0
   13.4617  -18.4369   24.5143 C   0  0  0  0  0  0  0  0  0  0  0  0
   12.1821  -18.2298   25.2131 C   0  0  0  0  0  0  0  0  0  0  0  0
   11.7323  -16.9435   25.7239 C   0  0  0  0  0  0  0  0  0  0  0  0
   10.4390  -16.8219   26.4006 C   0  0  2  0  0  0  0  0  0  0  0  0
    9.9137  -15.4385   26.1089 N   0  0  0  0  0  0  0  0  0  0  0  0
   10.3774  -16.8688   27.8588 C   0  0  0  0  0  0  0  0  0  0  0  0
   10.2474  -15.7000   28.6474 O   0  0  0  0  0  0  0  0  0  0  0  0
   10.4346  -17.9176   28.5030 O   0  0  0  0  0  0  0  0  0  0  0  0
  2  1  1  6
  3  2  1  0
  4  2  1  0
  5  4  1  0
  5  6  1  1
  7  8  2  0
  7  5  1  0
  9 10  1  0
 10 11  1  0
 11 13  1  0
 11 12  1  1
 13 14  1  6
 14  7  1  0
 15 13  1  0
 15 25  1  0
 16 15  2  0
 18 17  1  0
 18 20  1  0
 19 18  2  0
 21 20  1  0
 22 21  1  0
 22 23  1  0
 24 23  1  1
 24 25  1  0
 24 26  1  0
 26 28  2  0
 26 27  1  0
M  END
$$$$
