VNS.pdb
     RDKit          3D

 22 21  0  0  1  0  0  0  0  0999 V2000
    8.0923  -13.7194   20.3202 C   0  0  0  0  0  0  0  0  0  0  0  0
    8.6641  -12.9858   19.1268 C   0  0  2  0  0  0  0  0  0  0  0  0
    7.5177  -12.2740   18.4408 C   0  0  0  0  0  0  0  0  0  0  0  0
    9.3341  -13.9781   18.2156 C   0  0  2  0  0  0  0  0  0  0  0  0
    8.3195  -14.8357   17.6677 N   0  0  0  0  0  0  0  0  0  0  0  0
   10.4079  -14.7382   18.9035 C   0  0  0  0  0  0  0  0  0  0  0  0
   10.1662  -15.9046   19.3141 O   0  0  0  0  0  0  0  0  0  0  0  0
   16.1644  -14.5214   20.8640 N   0  0  0  0  0  0  0  0  0  0  0  0
   15.2402  -15.2735   20.0984 C   0  0  0  0  0  0  0  0  0  0  0  0
   15.3358  -16.5205   20.0313 O   0  0  0  0  0  0  0  0  0  0  0  0
   14.1524  -14.5951   19.3700 C   0  0  0  0  0  0  0  0  0  0  0  0
   12.7823  -14.9297   19.8071 C   0  0  2  0  0  0  0  0  0  0  0  0
   11.7113  -14.2231   19.1304 N   0  0  0  0  0  0  0  0  0  0  0  0
   12.5110  -15.1873   21.2128 C   0  0  0  0  0  0  0  0  0  0  0  0
   12.8028  -14.2152   22.0229 O   0  0  0  0  0  0  0  0  0  0  0  0
    9.9766  -17.8322   22.8899 O   0  0  0  0  0  0  0  0  0  0  0  0
   10.3367  -16.7161   23.6118 C   0  0  0  0  0  0  0  0  0  0  0  0
   11.7833  -16.3975   23.3031 C   0  0  2  0  0  0  0  0  0  0  0  0
   11.9884  -16.3172   21.8448 N   0  0  0  0  0  0  0  0  0  0  0  0
   12.7225  -17.3375   23.9126 C   0  0  0  0  0  0  0  0  0  0  0  0
   12.8263  -17.5908   25.2782 O   0  0  0  0  0  0  0  0  0  0  0  0
   13.5136  -17.9853   23.1762 O   0  0  0  0  0  0  0  0  0  0  0  0
  2  1  1  1
  2  3  1  0
  2  4  1  0
  4  6  1  0
  4  5  1  1
  6 13  1  0
  6  7  2  0
  8  9  1  0
  9 11  1  0
 10  9  2  0
 12 11  1  1
 12 14  1  0
 13 12  1  0
 14 15  2  0
 14 19  1  0
 16 17  1  0
 18 17  1  6
 18 20  1  0
 19 18  1  0
 20 21  1  0
 22 20  2  0
M  END
$$$$
