VNS.pdb
     RDKit          3D

 22 21  0  0  1  0  0  0  0  0999 V2000
    9.2323  -12.2354   19.0812 C   0  0  0  0  0  0  0  0  0  0  0  0
    8.1205  -13.2292   18.8250 C   0  0  2  0  0  0  0  0  0  0  0  0
    6.8510  -12.6499   19.4119 C   0  0  0  0  0  0  0  0  0  0  0  0
    8.4824  -14.5448   19.4593 C   0  0  2  0  0  0  0  0  0  0  0  0
    8.1780  -14.4623   20.8612 N   0  0  0  0  0  0  0  0  0  0  0  0
    9.8962  -14.9210   19.2074 C   0  0  0  0  0  0  0  0  0  0  0  0
   10.1540  -15.7718   18.3146 O   0  0  0  0  0  0  0  0  0  0  0  0
   14.7801  -15.5887   18.0452 N   0  0  0  0  0  0  0  0  0  0  0  0
   14.6636  -14.5073   18.9525 C   0  0  0  0  0  0  0  0  0  0  0  0
   15.6800  -14.0305   19.5077 O   0  0  0  0  0  0  0  0  0  0  0  0
   13.3411  -13.9295   19.2542 C   0  0  0  0  0  0  0  0  0  0  0  0
   12.3594  -14.8546   19.8549 C   0  0  2  0  0  0  0  0  0  0  0  0
   10.9931  -14.3719   19.9223 N   0  0  0  0  0  0  0  0  0  0  0  0
   12.7402  -15.6809   20.9898 C   0  0  0  0  0  0  0  0  0  0  0  0
   13.9691  -16.1006   20.9849 O   0  0  0  0  0  0  0  0  0  0  0  0
   10.3946  -16.7686   24.1390 O   0  0  0  0  0  0  0  0  0  0  0  0
   11.4720  -15.9833   24.4840 C   0  0  0  0  0  0  0  0  0  0  0  0
   12.5603  -16.1914   23.4537 C   0  0  2  0  0  0  0  0  0  0  0  0
   11.9979  -16.1068   22.0929 N   0  0  0  0  0  0  0  0  0  0  0  0
   13.2971  -17.4404   23.6387 C   0  0  0  0  0  0  0  0  0  0  0  0
   14.0042  -17.7883   24.7872 O   0  0  0  0  0  0  0  0  0  0  0  0
   13.3155  -18.2904   22.7087 O   0  0  0  0  0  0  0  0  0  0  0  0
  2  1  1  1
  2  3  1  0
  2  4  1  0
  4  6  1  0
  4  5  1  1
  6 13  1  0
  6  7  2  0
  8  9  1  0
  9 11  1  0
 10  9  2  0
 12 11  1  1
 12 14  1  0
 13 12  1  0
 14 15  2  0
 14 19  1  0
 16 17  1  0
 18 17  1  1
 18 20  1  0
 19 18  1  0
 20 21  1  0
 22 20  2  0
M  END
$$$$
