VNS.pdb
     RDKit          3D

 22 21  0  0  1  0  0  0  0  0999 V2000
    7.7168  -13.3563   20.7119 C   0  0  0  0  0  0  0  0  0  0  0  0
    8.5794  -13.3662   19.4688 C   0  0  2  0  0  0  0  0  0  0  0  0
    7.9159  -12.4644   18.4499 C   0  0  0  0  0  0  0  0  0  0  0  0
    8.7044  -14.7801   18.9694 C   0  0  2  0  0  0  0  0  0  0  0  0
    7.4112  -15.2064   18.5102 N   0  0  0  0  0  0  0  0  0  0  0  0
    9.2702  -15.6914   19.9957 C   0  0  0  0  0  0  0  0  0  0  0  0
    8.4859  -16.3554   20.7247 O   0  0  0  0  0  0  0  0  0  0  0  0
   12.9069  -17.8195   18.2522 N   0  0  0  0  0  0  0  0  0  0  0  0
   12.3185  -18.2766   19.4569 C   0  0  0  0  0  0  0  0  0  0  0  0
   11.6675  -19.3464   19.4809 O   0  0  0  0  0  0  0  0  0  0  0  0
   12.4660  -17.4961   20.6990 C   0  0  0  0  0  0  0  0  0  0  0  0
   11.2547  -16.7874   21.1583 C   0  0  2  0  0  0  0  0  0  0  0  0
   10.6633  -15.8635   20.2092 N   0  0  0  0  0  0  0  0  0  0  0  0
   11.1521  -16.3454   22.5403 C   0  0  0  0  0  0  0  0  0  0  0  0
   12.0164  -15.4464   22.9025 O   0  0  0  0  0  0  0  0  0  0  0  0
    8.0126  -16.6659   25.1089 O   0  0  0  0  0  0  0  0  0  0  0  0
    8.9000  -15.6231   25.2547 C   0  0  0  0  0  0  0  0  0  0  0  0
   10.2828  -16.1230   24.8980 C   0  0  2  0  0  0  0  0  0  0  0  0
   10.2745  -16.7323   23.5549 N   0  0  0  0  0  0  0  0  0  0  0  0
   10.8343  -17.0465   25.8881 C   0  0  0  0  0  0  0  0  0  0  0  0
   11.1250  -16.7198   27.2104 O   0  0  0  0  0  0  0  0  0  0  0  0
   11.0777  -18.2369   25.5544 O   0  0  0  0  0  0  0  0  0  0  0  0
  2  1  1  1
  2  3  1  0
  2  4  1  0
  4  6  1  0
  4  5  1  1
  6 13  1  0
  6  7  2  0
  8  9  1  0
  9 11  1  0
 10  9  2  0
 12 11  1  6
 12 14  1  0
 13 12  1  0
 14 15  2  0
 14 19  1  0
 16 17  1  0
 18 17  1  1
 18 20  1  0
 19 18  1  0
 20 21  1  0
 22 20  2  0
M  END
$$$$
