VNS.pdb
     RDKit          3D

 22 21  0  0  1  0  0  0  0  0999 V2000
    7.9969  -13.7336   20.6572 C   0  0  0  0  0  0  0  0  0  0  0  0
    8.7357  -13.0859   19.5065 C   0  0  2  0  0  0  0  0  0  0  0  0
    7.7775  -12.1242   18.8369 C   0  0  0  0  0  0  0  0  0  0  0  0
    9.2075  -14.1572   18.5611 C   0  0  2  0  0  0  0  0  0  0  0  0
    8.0504  -14.7719   17.9711 N   0  0  0  0  0  0  0  0  0  0  0  0
   10.0961  -15.1432   19.2260 C   0  0  0  0  0  0  0  0  0  0  0  0
    9.6167  -16.2480   19.5962 O   0  0  0  0  0  0  0  0  0  0  0  0
   14.1860  -14.0146   17.9685 N   0  0  0  0  0  0  0  0  0  0  0  0
   14.3394  -14.5597   19.2668 C   0  0  0  0  0  0  0  0  0  0  0  0
   14.9682  -13.9324   20.1498 O   0  0  0  0  0  0  0  0  0  0  0  0
   13.7591  -15.8750   19.5939 C   0  0  0  0  0  0  0  0  0  0  0  0
   12.3764  -15.8546   20.1119 C   0  0  2  0  0  0  0  0  0  0  0  0
   11.4750  -14.9138   19.4742 N   0  0  0  0  0  0  0  0  0  0  0  0
   12.1322  -16.0187   21.5365 C   0  0  0  0  0  0  0  0  0  0  0  0
   12.6329  -15.0929   22.2971 O   0  0  0  0  0  0  0  0  0  0  0  0
    9.6124  -18.6203   23.4468 O   0  0  0  0  0  0  0  0  0  0  0  0
    9.9054  -17.4387   24.0904 C   0  0  0  0  0  0  0  0  0  0  0  0
   11.3058  -17.0199   23.6995 C   0  0  2  0  0  0  0  0  0  0  0  0
   11.4466  -17.0169   22.2313 N   0  0  0  0  0  0  0  0  0  0  0  0
   12.3460  -17.8360   24.3232 C   0  0  0  0  0  0  0  0  0  0  0  0
   12.5790  -17.9227   25.6936 O   0  0  0  0  0  0  0  0  0  0  0  0
   13.1086  -18.5266   23.5957 O   0  0  0  0  0  0  0  0  0  0  0  0
  2  1  1  1
  2  3  1  0
  2  4  1  0
  4  6  1  0
  4  5  1  1
  6 13  1  0
  6  7  2  0
  8  9  1  0
  9 11  1  0
 10  9  2  0
 12 11  1  1
 12 14  1  0
 13 12  1  0
 14 15  2  0
 14 19  1  0
 16 17  1  0
 18 17  1  6
 18 20  1  0
 19 18  1  0
 20 21  1  0
 22 20  2  0
M  END
$$$$
