VNS.pdb
     RDKit          3D

 22 21  0  0  1  0  0  0  0  0999 V2000
    6.1349  -11.2457   26.9417 C   0  0  0  0  0  0  0  0  0  0  0  0
    7.0193  -12.3663   26.4404 C   0  0  2  0  0  0  0  0  0  0  0  0
    8.1556  -11.7342   25.6651 C   0  0  0  0  0  0  0  0  0  0  0  0
    6.2003  -13.2912   25.5815 C   0  0  2  0  0  0  0  0  0  0  0  0
    5.1306  -13.8152   26.3853 N   0  0  0  0  0  0  0  0  0  0  0  0
    7.0227  -14.3621   24.9644 C   0  0  0  0  0  0  0  0  0  0  0  0
    7.2809  -15.3983   25.6330 O   0  0  0  0  0  0  0  0  0  0  0  0
    6.4657  -14.3518   20.1069 N   0  0  0  0  0  0  0  0  0  0  0  0
    6.9427  -15.4096   20.9191 C   0  0  0  0  0  0  0  0  0  0  0  0
    6.2308  -16.4174   21.1339 O   0  0  0  0  0  0  0  0  0  0  0  0
    8.2860  -15.3357   21.5225 C   0  0  0  0  0  0  0  0  0  0  0  0
    8.3259  -15.3254   22.9986 C   0  0  2  0  0  0  0  0  0  0  0  0
    7.5444  -14.2889   23.6460 N   0  0  0  0  0  0  0  0  0  0  0  0
    9.5646  -15.6386   23.6937 C   0  0  0  0  0  0  0  0  0  0  0  0
   10.4533  -14.6917   23.7009 O   0  0  0  0  0  0  0  0  0  0  0  0
   10.3117  -17.5709   26.9496 O   0  0  0  0  0  0  0  0  0  0  0  0
   11.2854  -17.9684   26.0606 C   0  0  0  0  0  0  0  0  0  0  0  0
   11.3178  -16.9774   24.9177 C   0  0  2  0  0  0  0  0  0  0  0  0
    9.9650  -16.7998   24.3576 N   0  0  0  0  0  0  0  0  0  0  0  0
   12.2742  -17.3358   23.8718 C   0  0  0  0  0  0  0  0  0  0  0  0
   13.6489  -17.4632   24.0559 O   0  0  0  0  0  0  0  0  0  0  0  0
   11.8583  -17.5530   22.7024 O   0  0  0  0  0  0  0  0  0  0  0  0
  2  1  1  6
  2  3  1  0
  2  4  1  0
  4  6  1  0
  4  5  1  1
  6 13  1  0
  6  7  2  0
  8  9  1  0
  9 11  1  0
 10  9  2  0
 12 11  1  6
 12 14  1  0
 13 12  1  0
 14 15  2  0
 14 19  1  0
 16 17  1  0
 18 17  1  1
 18 20  1  0
 19 18  1  0
 20 21  1  0
 22 20  2  0
M  END
$$$$
