VNS.pdb
     RDKit          3D

 22 21  0  0  1  0  0  0  0  0999 V2000
    7.4878  -13.2253   20.3381 C   0  0  0  0  0  0  0  0  0  0  0  0
    8.5749  -13.0518   19.3000 C   0  0  2  0  0  0  0  0  0  0  0  0
    8.1154  -11.9769   18.3383 C   0  0  0  0  0  0  0  0  0  0  0  0
    8.8036  -14.3664   18.6046 C   0  0  2  0  0  0  0  0  0  0  0  0
    7.5751  -14.7530   17.9673 N   0  0  0  0  0  0  0  0  0  0  0  0
    9.3161  -15.4099   19.5279 C   0  0  0  0  0  0  0  0  0  0  0  0
    8.5097  -16.2466   20.0148 O   0  0  0  0  0  0  0  0  0  0  0  0
   12.9821  -19.5644   20.7714 N   0  0  0  0  0  0  0  0  0  0  0  0
   13.1180  -18.1929   21.0981 C   0  0  0  0  0  0  0  0  0  0  0  0
   13.7490  -17.8424   22.1217 O   0  0  0  0  0  0  0  0  0  0  0  0
   12.5165  -17.1601   20.2348 C   0  0  0  0  0  0  0  0  0  0  0  0
   11.2386  -16.5926   20.7094 C   0  0  2  0  0  0  0  0  0  0  0  0
   10.6810  -15.5246   19.9015 N   0  0  0  0  0  0  0  0  0  0  0  0
   11.0029  -16.4263   22.1351 C   0  0  0  0  0  0  0  0  0  0  0  0
   11.4865  -15.3394   22.6558 O   0  0  0  0  0  0  0  0  0  0  0  0
    8.2231  -18.1991   24.4939 O   0  0  0  0  0  0  0  0  0  0  0  0
    8.7082  -16.9616   24.8540 C   0  0  0  0  0  0  0  0  0  0  0  0
   10.1702  -16.8948   24.4698 C   0  0  2  0  0  0  0  0  0  0  0  0
   10.3411  -17.2492   23.0484 N   0  0  0  0  0  0  0  0  0  0  0  0
   11.0274  -17.7180   25.3211 C   0  0  0  0  0  0  0  0  0  0  0  0
   11.2412  -17.5075   26.6812 O   0  0  0  0  0  0  0  0  0  0  0  0
   11.6348  -18.7014   24.8194 O   0  0  0  0  0  0  0  0  0  0  0  0
  2  1  1  1
  2  3  1  0
  2  4  1  0
  4  6  1  0
  4  5  1  1
  6 13  1  0
  6  7  2  0
  8  9  1  0
  9 11  1  0
 10  9  2  0
 12 11  1  1
 12 14  1  0
 13 12  1  0
 14 15  2  0
 14 19  1  0
 16 17  1  0
 18 17  1  1
 18 20  1  0
 19 18  1  0
 20 21  1  0
 22 20  2  0
M  END
$$$$
