VNS.pdb
     RDKit          3D

 22 21  0  0  1  0  0  0  0  0999 V2000
    8.2718  -14.1838   17.9901 C   0  0  0  0  0  0  0  0  0  0  0  0
    8.0499  -13.4081   19.2702 C   0  0  2  0  0  0  0  0  0  0  0  0
    7.9131  -11.9475   18.8967 C   0  0  0  0  0  0  0  0  0  0  0  0
    9.2131  -13.6441   20.1949 C   0  0  2  0  0  0  0  0  0  0  0  0
   10.4130  -13.2440   19.5129 N   0  0  0  0  0  0  0  0  0  0  0  0
    9.2750  -15.0477   20.6746 C   0  0  0  0  0  0  0  0  0  0  0  0
    8.2600  -15.5525   21.2245 O   0  0  0  0  0  0  0  0  0  0  0  0
    9.7238  -17.3638   18.3023 N   0  0  0  0  0  0  0  0  0  0  0  0
   10.7965  -18.1898   18.7185 C   0  0  0  0  0  0  0  0  0  0  0  0
   11.3724  -18.9443   17.9014 O   0  0  0  0  0  0  0  0  0  0  0  0
   11.2480  -18.1707   20.1220 C   0  0  0  0  0  0  0  0  0  0  0  0
   10.5287  -17.2395   21.0140 C   0  0  2  0  0  0  0  0  0  0  0  0
   10.4262  -15.8692   20.5492 N   0  0  0  0  0  0  0  0  0  0  0  0
   10.6784  -17.3541   22.4564 C   0  0  0  0  0  0  0  0  0  0  0  0
   10.4179  -18.5260   22.9514 O   0  0  0  0  0  0  0  0  0  0  0  0
    9.1120  -15.5966   25.2440 O   0  0  0  0  0  0  0  0  0  0  0  0
    9.7521  -16.7988   25.4476 C   0  0  0  0  0  0  0  0  0  0  0  0
   11.1391  -16.7052   24.8503 C   0  0  2  0  0  0  0  0  0  0  0  0
   11.0548  -16.4050   23.4087 N   0  0  0  0  0  0  0  0  0  0  0  0
   11.9508  -17.8972   25.0899 C   0  0  0  0  0  0  0  0  0  0  0  0
   12.2430  -18.4256   26.3450 O   0  0  0  0  0  0  0  0  0  0  0  0
   12.4395  -18.5193   24.1092 O   0  0  0  0  0  0  0  0  0  0  0  0
  2  1  1  6
  2  3  1  0
  2  4  1  0
  4  6  1  0
  4  5  1  6
  6 13  1  0
  6  7  2  0
  8  9  1  0
  9 11  1  0
 10  9  2  0
 12 11  1  6
 12 14  1  0
 13 12  1  0
 14 15  2  0
 14 19  1  0
 16 17  1  0
 18 17  1  6
 18 20  1  0
 19 18  1  0
 20 21  1  0
 22 20  2  0
M  END
$$$$
