VNS.pdb
     RDKit          3D

 22 21  0  0  1  0  0  0  0  0999 V2000
    7.1313  -12.8949   20.9154 C   0  0  0  0  0  0  0  0  0  0  0  0
    8.3752  -13.5937   20.4117 C   0  0  2  0  0  0  0  0  0  0  0  0
    8.5314  -13.2414   18.9478 C   0  0  0  0  0  0  0  0  0  0  0  0
    8.2231  -15.0763   20.6188 C   0  0  2  0  0  0  0  0  0  0  0  0
    7.2298  -15.5553   19.6975 N   0  0  0  0  0  0  0  0  0  0  0  0
    7.9014  -15.4177   22.0273 C   0  0  0  0  0  0  0  0  0  0  0  0
    6.7262  -15.2433   22.4468 O   0  0  0  0  0  0  0  0  0  0  0  0
    6.0484  -18.4835   24.5142 N   0  0  0  0  0  0  0  0  0  0  0  0
    7.3309  -18.4161   23.9170 C   0  0  0  0  0  0  0  0  0  0  0  0
    7.5393  -18.9369   22.7972 O   0  0  0  0  0  0  0  0  0  0  0  0
    8.4378  -17.7303   24.6088 C   0  0  0  0  0  0  0  0  0  0  0  0
    8.5750  -16.2877   24.3252 C   0  0  2  0  0  0  0  0  0  0  0  0
    8.8520  -15.9371   22.9451 N   0  0  0  0  0  0  0  0  0  0  0  0
    9.2311  -15.4175   25.2885 C   0  0  0  0  0  0  0  0  0  0  0  0
   10.4992  -15.2218   25.0882 O   0  0  0  0  0  0  0  0  0  0  0  0
    8.0242  -12.2374   26.7841 O   0  0  0  0  0  0  0  0  0  0  0  0
    8.7666  -12.7533   27.8228 C   0  0  0  0  0  0  0  0  0  0  0  0
    9.5594  -13.9313   27.3003 C   0  0  2  0  0  0  0  0  0  0  0  0
    8.7227  -14.7537   26.4067 N   0  0  0  0  0  0  0  0  0  0  0  0
   10.1480  -14.7457   28.3622 C   0  0  0  0  0  0  0  0  0  0  0  0
   10.9532  -14.2588   29.3891 O   0  0  0  0  0  0  0  0  0  0  0  0
    9.9312  -15.9868   28.3811 O   0  0  0  0  0  0  0  0  0  0  0  0
  2  1  1  6
  2  3  1  0
  2  4  1  0
  4  6  1  0
  4  5  1  6
  6 13  1  0
  6  7  2  0
  8  9  1  0
  9 11  1  0
 10  9  2  0
 12 11  1  1
 12 14  1  0
 13 12  1  0
 14 15  2  0
 14 19  1  0
 16 17  1  0
 18 17  1  1
 18 20  1  0
 19 18  1  0
 20 21  1  0
 22 20  2  0
M  END
$$$$
