VNS.pdb
     RDKit          3D

 22 21  0  0  1  0  0  0  0  0999 V2000
    9.2273  -12.6726   19.6269 C   0  0  0  0  0  0  0  0  0  0  0  0
    7.8396  -13.2731   19.6807 C   0  0  2  0  0  0  0  0  0  0  0  0
    7.3686  -13.1971   21.1173 C   0  0  0  0  0  0  0  0  0  0  0  0
    7.8994  -14.6923   19.1843 C   0  0  2  0  0  0  0  0  0  0  0  0
    6.5524  -15.1744   19.0498 N   0  0  0  0  0  0  0  0  0  0  0  0
    8.7274  -15.5601   20.0590 C   0  0  0  0  0  0  0  0  0  0  0  0
    8.2424  -15.9763   21.1448 O   0  0  0  0  0  0  0  0  0  0  0  0
   14.1819  -18.6056   20.5132 N   0  0  0  0  0  0  0  0  0  0  0  0
   12.7937  -18.4038   20.7088 C   0  0  0  0  0  0  0  0  0  0  0  0
   12.1642  -19.0855   21.5499 O   0  0  0  0  0  0  0  0  0  0  0  0
   12.0725  -17.3865   19.9222 C   0  0  0  0  0  0  0  0  0  0  0  0
   10.9060  -16.7710   20.5863 C   0  0  2  0  0  0  0  0  0  0  0  0
   10.0533  -15.9563   19.7418 N   0  0  0  0  0  0  0  0  0  0  0  0
   11.0256  -16.2702   21.9467 C   0  0  0  0  0  0  0  0  0  0  0  0
   11.7782  -15.2216   22.0893 O   0  0  0  0  0  0  0  0  0  0  0  0
    8.5707  -16.5744   25.0853 O   0  0  0  0  0  0  0  0  0  0  0  0
    9.5413  -15.5977   25.1037 C   0  0  0  0  0  0  0  0  0  0  0  0
   10.7892  -16.1565   24.4557 C   0  0  2  0  0  0  0  0  0  0  0  0
   10.4650  -16.7345   23.1381 N   0  0  0  0  0  0  0  0  0  0  0  0
   11.4886  -17.1275   25.2954 C   0  0  0  0  0  0  0  0  0  0  0  0
   11.7718  -18.4416   24.9306 O   0  0  0  0  0  0  0  0  0  0  0  0
   11.8793  -16.7839   26.4430 O   0  0  0  0  0  0  0  0  0  0  0  0
  2  1  1  1
  2  3  1  0
  2  4  1  0
  4  6  1  0
  4  5  1  1
  6 13  1  0
  6  7  2  0
  8  9  1  0
  9 11  1  0
 10  9  2  0
 12 11  1  6
 12 14  1  0
 13 12  1  0
 14 15  2  0
 14 19  1  0
 16 17  1  0
 18 17  1  1
 18 20  1  0
 19 18  1  0
 20 21  1  0
 22 20  2  0
M  END
$$$$
