VNS.pdb
     RDKit          3D

 22 21  0  0  1  0  0  0  0  0999 V2000
    7.5562  -12.5503   18.0663 C   0  0  0  0  0  0  0  0  0  0  0  0
    7.7987  -13.4691   19.2438 C   0  0  2  0  0  0  0  0  0  0  0  0
    8.7001  -12.7348   20.2131 C   0  0  0  0  0  0  0  0  0  0  0  0
    8.4262  -14.7444   18.7501 C   0  0  2  0  0  0  0  0  0  0  0  0
    7.5233  -15.3508   17.8109 N   0  0  0  0  0  0  0  0  0  0  0  0
    8.7880  -15.6604   19.8609 C   0  0  0  0  0  0  0  0  0  0  0  0
    7.8754  -16.2977   20.4512 O   0  0  0  0  0  0  0  0  0  0  0  0
   11.7389  -19.9530   22.1492 N   0  0  0  0  0  0  0  0  0  0  0  0
   12.0649  -18.5746   22.1417 C   0  0  0  0  0  0  0  0  0  0  0  0
   12.7411  -18.0759   23.0705 O   0  0  0  0  0  0  0  0  0  0  0  0
   11.6105  -17.7094   21.0378 C   0  0  0  0  0  0  0  0  0  0  0  0
   10.5165  -16.7733   21.3657 C   0  0  2  0  0  0  0  0  0  0  0  0
   10.1205  -15.8657   20.3057 N   0  0  0  0  0  0  0  0  0  0  0  0
   10.4377  -16.1852   22.6938 C   0  0  0  0  0  0  0  0  0  0  0  0
   11.1791  -15.1358   22.8824 O   0  0  0  0  0  0  0  0  0  0  0  0
    7.4300  -16.2188   25.3027 O   0  0  0  0  0  0  0  0  0  0  0  0
    8.3752  -15.2204   25.3810 C   0  0  0  0  0  0  0  0  0  0  0  0
    9.7306  -15.8261   25.0885 C   0  0  2  0  0  0  0  0  0  0  0  0
    9.6947  -16.5656   23.8129 N   0  0  0  0  0  0  0  0  0  0  0  0
   10.2281  -16.6736   26.1708 C   0  0  0  0  0  0  0  0  0  0  0  0
   10.5005  -16.2383   27.4655 O   0  0  0  0  0  0  0  0  0  0  0  0
   10.4379  -17.8965   25.9513 O   0  0  0  0  0  0  0  0  0  0  0  0
  2  1  1  6
  2  3  1  0
  2  4  1  0
  4  6  1  0
  4  5  1  6
  6 13  1  0
  6  7  2  0
  8  9  1  0
  9 11  1  0
 10  9  2  0
 12 11  1  6
 12 14  1  0
 13 12  1  0
 14 15  2  0
 14 19  1  0
 16 17  1  0
 18 17  1  1
 18 20  1  0
 19 18  1  0
 20 21  1  0
 22 20  2  0
M  END
$$$$
