VNS.pdb
     RDKit          3D

 22 21  0  0  1  0  0  0  0  0999 V2000
    7.8148  -13.5211   21.1315 C   0  0  0  0  0  0  0  0  0  0  0  0
    8.5915  -13.3013   19.8517 C   0  0  2  0  0  0  0  0  0  0  0  0
    7.8944  -12.1995   19.0824 C   0  0  0  0  0  0  0  0  0  0  0  0
    8.6318  -14.5892   19.0747 C   0  0  2  0  0  0  0  0  0  0  0  0
    7.2853  -14.9291   18.7055 N   0  0  0  0  0  0  0  0  0  0  0  0
    9.3059  -15.6784   19.8252 C   0  0  0  0  0  0  0  0  0  0  0  0
    8.6221  -16.4089   20.5908 O   0  0  0  0  0  0  0  0  0  0  0  0
   13.0864  -17.8538   17.5052 N   0  0  0  0  0  0  0  0  0  0  0  0
   12.4143  -18.2420   18.6900 C   0  0  0  0  0  0  0  0  0  0  0  0
   11.6337  -19.2215   18.6866 O   0  0  0  0  0  0  0  0  0  0  0  0
   12.6264  -17.4954   19.9436 C   0  0  0  0  0  0  0  0  0  0  0  0
   11.4163  -16.9067   20.5516 C   0  0  2  0  0  0  0  0  0  0  0  0
   10.6959  -15.9517   19.7312 N   0  0  0  0  0  0  0  0  0  0  0  0
   11.4002  -16.5832   21.9697 C   0  0  0  0  0  0  0  0  0  0  0  0
   11.8032  -15.3863   22.2719 O   0  0  0  0  0  0  0  0  0  0  0  0
    9.5686  -16.0101   26.1304 O   0  0  0  0  0  0  0  0  0  0  0  0
    9.5618  -16.4830   24.8371 C   0  0  0  0  0  0  0  0  0  0  0  0
   10.9846  -16.8184   24.4468 C   0  0  2  0  0  0  0  0  0  0  0  0
   11.0246  -17.3525   23.0726 N   0  0  0  0  0  0  0  0  0  0  0  0
   11.6383  -17.7319   25.3824 C   0  0  0  0  0  0  0  0  0  0  0  0
   11.9711  -17.4234   26.6992 O   0  0  0  0  0  0  0  0  0  0  0  0
   11.9380  -18.8953   25.0024 O   0  0  0  0  0  0  0  0  0  0  0  0
  2  1  1  1
  2  3  1  0
  2  4  1  0
  4  6  1  0
  4  5  1  1
  6 13  1  0
  6  7  2  0
  8  9  1  0
  9 11  1  0
 10  9  2  0
 12 11  1  6
 12 14  1  0
 13 12  1  0
 14 15  2  0
 14 19  1  0
 16 17  1  0
 18 17  1  1
 18 20  1  0
 19 18  1  0
 20 21  1  0
 22 20  2  0
M  END
$$$$
