VNS.pdb
     RDKit          3D

 22 21  0  0  1  0  0  0  0  0999 V2000
    7.9385  -12.7663   20.9722 C   0  0  0  0  0  0  0  0  0  0  0  0
    8.6404  -13.1771   19.6963 C   0  0  2  0  0  0  0  0  0  0  0  0
    7.6973  -12.8895   18.5477 C   0  0  0  0  0  0  0  0  0  0  0  0
    8.9947  -14.6371   19.7792 C   0  0  2  0  0  0  0  0  0  0  0  0
    7.7741  -15.3946   19.7422 N   0  0  0  0  0  0  0  0  0  0  0  0
    9.8194  -14.9492   20.9736 C   0  0  0  0  0  0  0  0  0  0  0  0
   10.9320  -14.3755   21.1166 O   0  0  0  0  0  0  0  0  0  0  0  0
    6.9829  -16.5796   24.0220 N   0  0  0  0  0  0  0  0  0  0  0  0
    8.1884  -16.1039   24.5936 C   0  0  0  0  0  0  0  0  0  0  0  0
    8.1814  -15.1137   25.3605 O   0  0  0  0  0  0  0  0  0  0  0  0
    9.4681  -16.7708   24.2913 C   0  0  0  0  0  0  0  0  0  0  0  0
   10.2178  -16.2277   23.1409 C   0  0  2  0  0  0  0  0  0  0  0  0
    9.4247  -15.8689   21.9805 N   0  0  0  0  0  0  0  0  0  0  0  0
   11.5259  -16.7686   22.8059 C   0  0  0  0  0  0  0  0  0  0  0  0
   11.5129  -17.8643   22.1089 O   0  0  0  0  0  0  0  0  0  0  0  0
   15.1987  -15.0038   22.3007 O   0  0  0  0  0  0  0  0  0  0  0  0
   14.7881  -16.1618   21.6787 C   0  0  0  0  0  0  0  0  0  0  0  0
   14.0351  -17.0010   22.6876 C   0  0  2  0  0  0  0  0  0  0  0  0
   12.8064  -16.3057   23.1145 N   0  0  0  0  0  0  0  0  0  0  0  0
   14.8482  -17.3820   23.8412 C   0  0  0  0  0  0  0  0  0  0  0  0
   16.0427  -18.0954   23.7759 O   0  0  0  0  0  0  0  0  0  0  0  0
   14.4699  -17.0569   24.9982 O   0  0  0  0  0  0  0  0  0  0  0  0
  2  1  1  1
  2  3  1  0
  2  4  1  0
  4  6  1  0
  4  5  1  1
  6 13  1  0
  6  7  2  0
  8  9  1  0
  9 11  1  0
 10  9  2  0
 12 11  1  6
 12 14  1  0
 13 12  1  0
 14 15  2  0
 14 19  1  0
 16 17  1  0
 18 17  1  6
 18 20  1  0
 19 18  1  0
 20 21  1  0
 22 20  2  0
M  END
$$$$
