VNS.pdb
     RDKit          3D

 22 21  0  0  1  0  0  0  0  0999 V2000
    9.3782  -12.3208   19.6975 C   0  0  0  0  0  0  0  0  0  0  0  0
    8.3600  -13.0194   18.8231 C   0  0  2  0  0  0  0  0  0  0  0  0
    7.1328  -13.2744   19.6720 C   0  0  0  0  0  0  0  0  0  0  0  0
    8.9565  -14.2982   18.3009 C   0  0  2  0  0  0  0  0  0  0  0  0
    8.0711  -14.8268   17.3001 N   0  0  0  0  0  0  0  0  0  0  0  0
    9.2336  -15.2739   19.3850 C   0  0  0  0  0  0  0  0  0  0  0  0
    8.2789  -15.9370   19.8710 O   0  0  0  0  0  0  0  0  0  0  0  0
   11.3827  -19.5103   19.6999 N   0  0  0  0  0  0  0  0  0  0  0  0
   11.9543  -18.2223   19.5569 C   0  0  0  0  0  0  0  0  0  0  0  0
   12.3970  -17.8424   18.4486 O   0  0  0  0  0  0  0  0  0  0  0  0
   12.0349  -17.3122   20.7141 C   0  0  0  0  0  0  0  0  0  0  0  0
   10.8438  -16.4729   20.9535 C   0  0  2  0  0  0  0  0  0  0  0  0
   10.5291  -15.5093   19.9159 N   0  0  0  0  0  0  0  0  0  0  0  0
   10.5480  -15.9982   22.2963 C   0  0  0  0  0  0  0  0  0  0  0  0
   11.2558  -14.9858   22.6969 O   0  0  0  0  0  0  0  0  0  0  0  0
    7.3737  -16.8918   24.6547 O   0  0  0  0  0  0  0  0  0  0  0  0
    8.0001  -15.6919   24.9079 C   0  0  0  0  0  0  0  0  0  0  0  0
    9.4674  -15.8418   24.5704 C   0  0  2  0  0  0  0  0  0  0  0  0
    9.6247  -16.4553   23.2385 N   0  0  0  0  0  0  0  0  0  0  0  0
   10.2176  -16.5856   25.5810 C   0  0  0  0  0  0  0  0  0  0  0  0
   10.3648  -16.1999   26.9112 O   0  0  0  0  0  0  0  0  0  0  0  0
   10.7875  -17.6623   25.2592 O   0  0  0  0  0  0  0  0  0  0  0  0
  2  1  1  1
  2  3  1  0
  2  4  1  0
  4  6  1  0
  4  5  1  6
  6 13  1  0
  6  7  2  0
  8  9  1  0
  9 11  1  0
 10  9  2  0
 12 11  1  1
 12 14  1  0
 13 12  1  0
 14 15  2  0
 14 19  1  0
 16 17  1  0
 18 17  1  1
 18 20  1  0
 19 18  1  0
 20 21  1  0
 22 20  2  0
M  END
$$$$
