VNS.pdb
     RDKit          3D

 22 21  0  0  1  0  0  0  0  0999 V2000
    7.0478  -13.9148   20.1625 C   0  0  0  0  0  0  0  0  0  0  0  0
    8.3433  -13.2056   19.8338 C   0  0  2  0  0  0  0  0  0  0  0  0
    8.0141  -12.0836   18.8724 C   0  0  0  0  0  0  0  0  0  0  0  0
    9.3055  -14.1945   19.2336 C   0  0  2  0  0  0  0  0  0  0  0  0
    8.7349  -14.6847   18.0093 N   0  0  0  0  0  0  0  0  0  0  0  0
    9.6496  -15.2883   20.1765 C   0  0  0  0  0  0  0  0  0  0  0  0
    9.1001  -15.3155   21.3100 O   0  0  0  0  0  0  0  0  0  0  0  0
   11.6282  -19.2441   17.7513 N   0  0  0  0  0  0  0  0  0  0  0  0
   10.9496  -19.1314   18.9894 C   0  0  0  0  0  0  0  0  0  0  0  0
    9.7659  -19.5243   19.1040 O   0  0  0  0  0  0  0  0  0  0  0  0
   11.6309  -18.5487   20.1600 C   0  0  0  0  0  0  0  0  0  0  0  0
   10.9607  -17.3879   20.7795 C   0  0  2  0  0  0  0  0  0  0  0  0
   10.5745  -16.3222   19.8743 N   0  0  0  0  0  0  0  0  0  0  0  0
   11.3900  -16.9135   22.0858 C   0  0  0  0  0  0  0  0  0  0  0  0
   12.2415  -15.9332   22.0695 O   0  0  0  0  0  0  0  0  0  0  0  0
    9.4359  -16.9124   25.5331 O   0  0  0  0  0  0  0  0  0  0  0  0
   10.4685  -16.0197   25.3510 C   0  0  0  0  0  0  0  0  0  0  0  0
   11.5749  -16.7217   24.5944 C   0  0  2  0  0  0  0  0  0  0  0  0
   11.0404  -17.3421   23.3677 N   0  0  0  0  0  0  0  0  0  0  0  0
   12.2951  -17.7019   25.4054 C   0  0  0  0  0  0  0  0  0  0  0  0
   12.9505  -17.4216   26.6020 O   0  0  0  0  0  0  0  0  0  0  0  0
   12.3474  -18.9013   25.0230 O   0  0  0  0  0  0  0  0  0  0  0  0
  2  1  1  6
  2  3  1  0
  2  4  1  0
  4  6  1  0
  4  5  1  6
  6 13  1  0
  6  7  2  0
  8  9  1  0
  9 11  1  0
 10  9  2  0
 12 11  1  6
 12 14  1  0
 13 12  1  0
 14 15  2  0
 14 19  1  0
 16 17  1  0
 18 17  1  1
 18 20  1  0
 19 18  1  0
 20 21  1  0
 22 20  2  0
M  END
$$$$
