VAI.pdb
     RDKit          3D

 21 20  0  0  1  0  0  0  0  0999 V2000
    7.2643  -12.8062   19.8063 C   0  0  0  0  0  0  0  0  0  0  0  0
    8.4887  -13.5390   19.2550 C   0  0  2  0  0  0  0  0  0  0  0  0
    8.6583  -13.1066   17.8339 C   0  0  0  0  0  0  0  0  0  0  0  0
    8.2338  -15.0297   19.4127 C   0  0  2  0  0  0  0  0  0  0  0  0
    7.1519  -15.3378   18.4599 N   0  0  0  0  0  0  0  0  0  0  0  0
    7.7513  -15.3839   20.7671 C   0  0  0  0  0  0  0  0  0  0  0  0
    6.5946  -15.0168   21.1127 O   0  0  0  0  0  0  0  0  0  0  0  0
    8.2848  -17.8205   23.4747 C   0  0  0  0  0  0  0  0  0  0  0  0
    7.9464  -16.4046   23.0629 C   0  0  2  0  0  0  0  0  0  0  0  0
    8.4947  -16.1174   21.7294 N   0  0  0  0  0  0  0  0  0  0  0  0
    8.5462  -15.4757   24.0368 C   0  0  0  0  0  0  0  0  0  0  0  0
    9.7390  -15.1008   23.9232 O   0  0  0  0  0  0  0  0  0  0  0  0
    5.4062  -11.8670   27.2129 C   0  0  0  0  0  0  0  0  0  0  0  0
    6.1601  -13.0920   26.7868 C   0  0  0  0  0  0  0  0  0  0  0  0
    7.5589  -12.8356   26.3512 C   0  0  2  0  0  0  0  0  0  0  0  0
    7.5202  -11.9547   25.1027 C   0  0  0  0  0  0  0  0  0  0  0  0
    8.3845  -14.0355   26.0278 C   0  0  2  0  0  0  0  0  0  0  0  0
    7.7938  -14.9782   25.1305 N   0  0  0  0  0  0  0  0  0  0  0  0
    8.6302  -14.7458   27.3347 C   0  0  0  0  0  0  0  0  0  0  0  0
    8.1745  -16.0380   27.4689 O   0  0  0  0  0  0  0  0  0  0  0  0
    9.2233  -14.1993   28.2729 O   0  0  0  0  0  0  0  0  0  0  0  0
  2  4  1  0
  2  1  1  6
  3  2  1  0
  4  5  1  6
  6  4  1  0
  7  6  2  0
  9  8  1  1
  9 11  1  0
  9 10  1  0
 10  6  1  0
 11 18  1  0
 12 11  2  0
 14 13  1  0
 15 17  1  0
 15 14  1  0
 15 16  1  6
 17 18  1  6
 19 20  1  0
 19 17  1  0
 21 19  2  0
M  END
$$$$
