VAI.pdb
     RDKit          3D

 21 20  0  0  1  0  0  0  0  0999 V2000
    8.4145  -20.3424   21.4732 C   0  0  0  0  0  0  0  0  0  0  0  0
    8.4980  -19.0136   22.2264 C   0  0  2  0  0  0  0  0  0  0  0  0
    7.1754  -18.7990   22.8895 C   0  0  0  0  0  0  0  0  0  0  0  0
    8.8529  -17.9387   21.2112 C   0  0  2  0  0  0  0  0  0  0  0  0
   10.1859  -18.3131   20.7049 N   0  0  0  0  0  0  0  0  0  0  0  0
    8.9679  -16.5949   21.8223 C   0  0  0  0  0  0  0  0  0  0  0  0
    9.8623  -16.3994   22.6905 O   0  0  0  0  0  0  0  0  0  0  0  0
    7.5423  -13.1115   21.4678 C   0  0  0  0  0  0  0  0  0  0  0  0
    8.2791  -14.2025   22.2133 C   0  0  2  0  0  0  0  0  0  0  0  0
    8.1404  -15.4846   21.5072 N   0  0  0  0  0  0  0  0  0  0  0  0
    7.6922  -14.3316   23.5586 C   0  0  0  0  0  0  0  0  0  0  0  0
    6.6587  -15.0182   23.7503 O   0  0  0  0  0  0  0  0  0  0  0  0
   10.6981  -14.1797   28.3366 C   0  0  0  0  0  0  0  0  0  0  0  0
    9.6896  -14.5596   27.2929 C   0  0  0  0  0  0  0  0  0  0  0  0
    8.5715  -13.5917   27.1337 C   0  0  2  0  0  0  0  0  0  0  0  0
    7.7082  -13.6426   28.3940 C   0  0  0  0  0  0  0  0  0  0  0  0
    7.6701  -13.8046   25.9640 C   0  0  2  0  0  0  0  0  0  0  0  0
    8.2774  -13.6844   24.6759 N   0  0  0  0  0  0  0  0  0  0  0  0
    6.5960  -12.7509   26.0593 C   0  0  0  0  0  0  0  0  0  0  0  0
    6.7266  -11.6170   25.2893 O   0  0  0  0  0  0  0  0  0  0  0  0
    5.6164  -12.8831   26.8032 O   0  0  0  0  0  0  0  0  0  0  0  0
  2  4  1  0
  2  1  1  6
  3  2  1  0
  4  5  1  1
  6  4  1  0
  7  6  2  0
  9  8  1  6
  9 11  1  0
  9 10  1  0
 10  6  1  0
 11 18  1  0
 12 11  2  0
 14 13  1  0
 15 17  1  0
 15 14  1  0
 15 16  1  1
 17 18  1  6
 19 20  1  0
 19 17  1  0
 21 19  2  0
M  END
$$$$
