VAI.pdb
     RDKit          3D

 21 20  0  0  1  0  0  0  0  0999 V2000
    7.4833  -12.8649   20.9844 C   0  0  0  0  0  0  0  0  0  0  0  0
    8.4463  -13.5387   20.0052 C   0  0  2  0  0  0  0  0  0  0  0  0
    8.2367  -12.8987   18.6704 C   0  0  0  0  0  0  0  0  0  0  0  0
    8.1414  -15.0282   20.0222 C   0  0  2  0  0  0  0  0  0  0  0  0
    6.8102  -15.1554   19.4017 N   0  0  0  0  0  0  0  0  0  0  0  0
    8.0486  -15.5741   21.3955 C   0  0  0  0  0  0  0  0  0  0  0  0
    6.9716  -15.4232   22.0353 O   0  0  0  0  0  0  0  0  0  0  0  0
    9.6333  -18.1249   23.5660 C   0  0  0  0  0  0  0  0  0  0  0  0
    8.8992  -16.8101   23.4202 C   0  0  2  0  0  0  0  0  0  0  0  0
    9.0900  -16.2678   22.0671 N   0  0  0  0  0  0  0  0  0  0  0  0
    9.4464  -15.8551   24.3997 C   0  0  0  0  0  0  0  0  0  0  0  0
   10.4276  -15.1259   24.1136 O   0  0  0  0  0  0  0  0  0  0  0  0
    6.2425  -12.5017   26.9176 C   0  0  0  0  0  0  0  0  0  0  0  0
    7.4994  -13.0432   26.3033 C   0  0  0  0  0  0  0  0  0  0  0  0
    8.3333  -13.8618   27.2236 C   0  0  2  0  0  0  0  0  0  0  0  0
    9.0531  -12.9189   28.1874 C   0  0  0  0  0  0  0  0  0  0  0  0
    9.3680  -14.7289   26.5883 C   0  0  2  0  0  0  0  0  0  0  0  0
    8.8809  -15.7315   25.6939 N   0  0  0  0  0  0  0  0  0  0  0  0
   10.0804  -15.4335   27.7149 C   0  0  0  0  0  0  0  0  0  0  0  0
   11.0430  -14.7384   28.4118 O   0  0  0  0  0  0  0  0  0  0  0  0
    9.8212  -16.6040   28.0200 O   0  0  0  0  0  0  0  0  0  0  0  0
  2  4  1  0
  2  1  1  1
  3  2  1  0
  4  5  1  1
  6  4  1  0
  7  6  2  0
  9  8  1  6
  9 11  1  0
  9 10  1  0
 10  6  1  0
 11 18  1  0
 12 11  2  0
 14 13  1  0
 15 17  1  0
 15 14  1  0
 15 16  1  1
 17 18  1  6
 19 20  1  0
 19 17  1  0
 21 19  2  0
M  END
$$$$
