VAI.pdb
     RDKit          3D

 21 20  0  0  1  0  0  0  0  0999 V2000
    7.8588  -13.9681   18.1996 C   0  0  0  0  0  0  0  0  0  0  0  0
    7.3782  -14.1439   19.6412 C   0  0  2  0  0  0  0  0  0  0  0  0
    8.3033  -13.3572   20.5132 C   0  0  0  0  0  0  0  0  0  0  0  0
    7.3781  -15.6347   19.9403 C   0  0  2  0  0  0  0  0  0  0  0  0
    6.3386  -16.2030   19.0630 N   0  0  0  0  0  0  0  0  0  0  0  0
    6.9954  -15.9341   21.3391 C   0  0  0  0  0  0  0  0  0  0  0  0
    5.9410  -15.4181   21.8017 O   0  0  0  0  0  0  0  0  0  0  0  0
    7.5091  -18.4040   24.0313 C   0  0  0  0  0  0  0  0  0  0  0  0
    7.3109  -16.9621   23.6182 C   0  0  2  0  0  0  0  0  0  0  0  0
    7.7290  -16.7704   22.2218 N   0  0  0  0  0  0  0  0  0  0  0  0
    8.1379  -16.1063   24.4868 C   0  0  0  0  0  0  0  0  0  0  0  0
    9.3337  -15.8551   24.1981 O   0  0  0  0  0  0  0  0  0  0  0  0
    5.8063  -11.8431   26.9344 C   0  0  0  0  0  0  0  0  0  0  0  0
    6.9034  -12.5992   26.2451 C   0  0  0  0  0  0  0  0  0  0  0  0
    7.6558  -13.5337   27.1242 C   0  0  2  0  0  0  0  0  0  0  0  0
    8.6708  -12.7236   27.9303 C   0  0  0  0  0  0  0  0  0  0  0  0
    8.3994  -14.6332   26.4429 C   0  0  2  0  0  0  0  0  0  0  0  0
    7.6077  -15.5413   25.6741 N   0  0  0  0  0  0  0  0  0  0  0  0
    9.0723  -15.4286   27.5327 C   0  0  0  0  0  0  0  0  0  0  0  0
   10.2193  -14.9178   28.0976 O   0  0  0  0  0  0  0  0  0  0  0  0
    8.6215  -16.5127   27.9225 O   0  0  0  0  0  0  0  0  0  0  0  0
  2  4  1  0
  2  1  1  6
  3  2  1  0
  4  5  1  6
  6  4  1  0
  7  6  2  0
  9  8  1  1
  9 11  1  0
  9 10  1  0
 10  6  1  0
 11 18  1  0
 12 11  2  0
 14 13  1  0
 15 17  1  0
 15 14  1  0
 15 16  1  6
 17 18  1  1
 19 20  1  0
 19 17  1  0
 21 19  2  0
M  END
$$$$
