VAI.pdb
     RDKit          3D

 21 20  0  0  1  0  0  0  0  0999 V2000
    8.1966  -12.9097   17.9635 C   0  0  0  0  0  0  0  0  0  0  0  0
    7.8468  -13.3778   19.3772 C   0  0  2  0  0  0  0  0  0  0  0  0
    8.6498  -12.5487   20.3274 C   0  0  0  0  0  0  0  0  0  0  0  0
    8.1571  -14.8644   19.4522 C   0  0  2  0  0  0  0  0  0  0  0  0
    7.2236  -15.5004   18.5049 N   0  0  0  0  0  0  0  0  0  0  0  0
    7.8910  -15.4340   20.7928 C   0  0  0  0  0  0  0  0  0  0  0  0
    6.7258  -15.3436   21.2684 O   0  0  0  0  0  0  0  0  0  0  0  0
    9.1297  -18.0137   23.0900 C   0  0  0  0  0  0  0  0  0  0  0  0
    8.4971  -16.6506   22.9149 C   0  0  2  0  0  0  0  0  0  0  0  0
    8.8554  -16.0874   21.6050 N   0  0  0  0  0  0  0  0  0  0  0  0
    9.0020  -15.7585   23.9733 C   0  0  0  0  0  0  0  0  0  0  0  0
   10.0883  -15.1439   23.8374 O   0  0  0  0  0  0  0  0  0  0  0  0
    5.6400  -12.2885   26.3975 C   0  0  0  0  0  0  0  0  0  0  0  0
    6.8364  -12.9498   25.7794 C   0  0  0  0  0  0  0  0  0  0  0  0
    7.6657  -13.7380   26.7298 C   0  0  2  0  0  0  0  0  0  0  0  0
    8.3552  -12.7662   27.6870 C   0  0  0  0  0  0  0  0  0  0  0  0
    8.7235  -14.6023   26.1297 C   0  0  2  0  0  0  0  0  0  0  0  0
    8.2759  -15.5681   25.1760 N   0  0  0  0  0  0  0  0  0  0  0  0
    9.3563  -15.3537   27.2733 C   0  0  0  0  0  0  0  0  0  0  0  0
    9.0145  -16.6754   27.4521 O   0  0  0  0  0  0  0  0  0  0  0  0
   10.1630  -14.8149   28.0411 O   0  0  0  0  0  0  0  0  0  0  0  0
  2  4  1  0
  2  1  1  6
  3  2  1  0
  4  5  1  6
  6  4  1  0
  7  6  2  0
  9  8  1  1
  9 11  1  0
  9 10  1  0
 10  6  1  0
 11 18  1  0
 12 11  2  0
 14 13  1  0
 15 17  1  0
 15 14  1  0
 15 16  1  1
 17 18  1  6
 19 20  1  0
 19 17  1  0
 21 19  2  0
M  END
$$$$
