VAI.pdb
     RDKit          3D

 21 20  0  0  1  0  0  0  0  0999 V2000
    8.4219  -12.9880   17.7375 C   0  0  0  0  0  0  0  0  0  0  0  0
    7.8137  -13.4875   19.0492 C   0  0  2  0  0  0  0  0  0  0  0  0
    8.3251  -12.6000   20.1382 C   0  0  0  0  0  0  0  0  0  0  0  0
    8.2171  -14.9447   19.2099 C   0  0  2  0  0  0  0  0  0  0  0  0
    7.4825  -15.6657   18.1546 N   0  0  0  0  0  0  0  0  0  0  0  0
    7.7983  -15.5104   20.5127 C   0  0  0  0  0  0  0  0  0  0  0  0
    6.5655  -15.5912   20.7692 O   0  0  0  0  0  0  0  0  0  0  0  0
    8.6335  -17.9325   22.9933 C   0  0  0  0  0  0  0  0  0  0  0  0
    8.1821  -16.5018   22.7975 C   0  0  2  0  0  0  0  0  0  0  0  0
    8.6845  -15.9800   21.5181 N   0  0  0  0  0  0  0  0  0  0  0  0
    8.7264  -15.6828   23.8948 C   0  0  0  0  0  0  0  0  0  0  0  0
    9.9146  -15.2777   23.8716 O   0  0  0  0  0  0  0  0  0  0  0  0
    5.5329  -11.9485   26.4820 C   0  0  0  0  0  0  0  0  0  0  0  0
    6.6530  -12.6703   25.7927 C   0  0  0  0  0  0  0  0  0  0  0  0
    7.4510  -13.5602   26.6779 C   0  0  2  0  0  0  0  0  0  0  0  0
    8.2134  -12.6883   27.6753 C   0  0  0  0  0  0  0  0  0  0  0  0
    8.4452  -14.4470   26.0062 C   0  0  2  0  0  0  0  0  0  0  0  0
    7.9245  -15.3281   25.0087 N   0  0  0  0  0  0  0  0  0  0  0  0
    9.0541  -15.2990   27.0908 C   0  0  0  0  0  0  0  0  0  0  0  0
   10.1165  -14.7870   27.8014 O   0  0  0  0  0  0  0  0  0  0  0  0
    8.6251  -16.4300   27.3503 O   0  0  0  0  0  0  0  0  0  0  0  0
  2  4  1  0
  2  1  1  6
  3  2  1  0
  4  5  1  6
  6  4  1  0
  7  6  2  0
  9  8  1  1
  9 11  1  0
  9 10  1  0
 10  6  1  0
 11 18  1  0
 12 11  2  0
 14 13  1  0
 15 17  1  0
 15 14  1  0
 15 16  1  1
 17 18  1  6
 19 20  1  0
 19 17  1  0
 21 19  2  0
M  END
$$$$
