VAI.pdb
     RDKit          3D

 21 20  0  0  1  0  0  0  0  0999 V2000
    8.0262  -12.8571   18.1186 C   0  0  0  0  0  0  0  0  0  0  0  0
    7.6835  -13.4412   19.4903 C   0  0  2  0  0  0  0  0  0  0  0  0
    8.3679  -12.5932   20.5138 C   0  0  0  0  0  0  0  0  0  0  0  0
    8.1425  -14.8907   19.4932 C   0  0  2  0  0  0  0  0  0  0  0  0
    7.2591  -15.5758   18.5323 N   0  0  0  0  0  0  0  0  0  0  0  0
    7.9610  -15.5421   20.8105 C   0  0  0  0  0  0  0  0  0  0  0  0
    6.7905  -15.6819   21.2604 O   0  0  0  0  0  0  0  0  0  0  0  0
    9.5478  -17.8679   23.1569 C   0  0  0  0  0  0  0  0  0  0  0  0
    8.7498  -16.5980   22.9585 C   0  0  2  0  0  0  0  0  0  0  0  0
    9.0140  -16.0335   21.6269 N   0  0  0  0  0  0  0  0  0  0  0  0
    9.1594  -15.6206   23.9821 C   0  0  0  0  0  0  0  0  0  0  0  0
   10.2049  -14.9393   23.8442 O   0  0  0  0  0  0  0  0  0  0  0  0
    5.6980  -12.1116   26.2211 C   0  0  0  0  0  0  0  0  0  0  0  0
    6.9121  -12.7912   25.6600 C   0  0  0  0  0  0  0  0  0  0  0  0
    7.6952  -13.5743   26.6528 C   0  0  2  0  0  0  0  0  0  0  0  0
    8.3327  -12.5978   27.6408 C   0  0  0  0  0  0  0  0  0  0  0  0
    8.7845  -14.4365   26.1085 C   0  0  2  0  0  0  0  0  0  0  0  0
    8.3849  -15.4209   25.1527 N   0  0  0  0  0  0  0  0  0  0  0  0
    9.3784  -15.1642   27.2879 C   0  0  0  0  0  0  0  0  0  0  0  0
    9.1112  -16.5078   27.4254 O   0  0  0  0  0  0  0  0  0  0  0  0
   10.0890  -14.5873   28.1202 O   0  0  0  0  0  0  0  0  0  0  0  0
  2  4  1  0
  2  1  1  6
  3  2  1  0
  4  5  1  6
  6  4  1  0
  7  6  2  0
  9  8  1  1
  9 11  1  0
  9 10  1  0
 10  6  1  0
 11 18  1  0
 12 11  2  0
 14 13  1  0
 15 17  1  0
 15 14  1  0
 15 16  1  1
 17 18  1  6
 19 20  1  0
 19 17  1  0
 21 19  2  0
M  END
$$$$
