VAI.pdb
     RDKit          3D

 21 20  0  0  1  0  0  0  0  0999 V2000
    8.0297  -12.8132   18.4013 C   0  0  0  0  0  0  0  0  0  0  0  0
    7.7170  -13.3901   19.7831 C   0  0  2  0  0  0  0  0  0  0  0  0
    8.5152  -12.6095   20.7775 C   0  0  0  0  0  0  0  0  0  0  0  0
    8.0666  -14.8694   19.7464 C   0  0  2  0  0  0  0  0  0  0  0  0
    7.1141  -15.4661   18.7926 N   0  0  0  0  0  0  0  0  0  0  0  0
    7.8654  -15.5340   21.0542 C   0  0  0  0  0  0  0  0  0  0  0  0
    6.7408  -15.4336   21.6174 O   0  0  0  0  0  0  0  0  0  0  0  0
    9.3302  -18.1435   23.2680 C   0  0  0  0  0  0  0  0  0  0  0  0
    8.5997  -16.8312   23.0862 C   0  0  2  0  0  0  0  0  0  0  0  0
    8.8507  -16.2907   21.7422 N   0  0  0  0  0  0  0  0  0  0  0  0
    9.0986  -15.8727   24.0879 C   0  0  0  0  0  0  0  0  0  0  0  0
   10.1489  -15.2149   23.8868 O   0  0  0  0  0  0  0  0  0  0  0  0
    5.9114  -12.1781   26.2621 C   0  0  0  0  0  0  0  0  0  0  0  0
    7.0884  -12.9365   25.7234 C   0  0  0  0  0  0  0  0  0  0  0  0
    7.8303  -13.7286   26.7406 C   0  0  2  0  0  0  0  0  0  0  0  0
    8.5258  -12.7568   27.6934 C   0  0  0  0  0  0  0  0  0  0  0  0
    8.8670  -14.6688   26.2236 C   0  0  2  0  0  0  0  0  0  0  0  0
    8.4073  -15.6653   25.3081 N   0  0  0  0  0  0  0  0  0  0  0  0
    9.4294  -15.3827   27.4265 C   0  0  0  0  0  0  0  0  0  0  0  0
   10.3863  -14.7378   28.1776 O   0  0  0  0  0  0  0  0  0  0  0  0
    9.0543  -16.5174   27.7463 O   0  0  0  0  0  0  0  0  0  0  0  0
  2  4  1  0
  2  1  1  6
  3  2  1  0
  4  5  1  6
  6  4  1  0
  7  6  2  0
  9  8  1  6
  9 11  1  0
  9 10  1  0
 10  6  1  0
 11 18  1  0
 12 11  2  0
 14 13  1  0
 15 17  1  0
 15 14  1  0
 15 16  1  1
 17 18  1  6
 19 20  1  0
 19 17  1  0
 21 19  2  0
M  END
$$$$
