VAI.pdb
     RDKit          3D

 21 20  0  0  1  0  0  0  0  0999 V2000
    7.9478  -13.0572   17.8566 C   0  0  0  0  0  0  0  0  0  0  0  0
    7.5916  -13.4994   19.2770 C   0  0  2  0  0  0  0  0  0  0  0  0
    8.2248  -12.5222   20.2147 C   0  0  0  0  0  0  0  0  0  0  0  0
    8.0958  -14.9236   19.4482 C   0  0  2  0  0  0  0  0  0  0  0  0
    7.2929  -15.7310   18.5118 N   0  0  0  0  0  0  0  0  0  0  0  0
    7.8579  -15.4512   20.8111 C   0  0  0  0  0  0  0  0  0  0  0  0
    6.6679  -15.6110   21.1991 O   0  0  0  0  0  0  0  0  0  0  0  0
    9.2653  -17.6417   23.3024 C   0  0  0  0  0  0  0  0  0  0  0  0
    8.5496  -16.3292   23.0698 C   0  0  2  0  0  0  0  0  0  0  0  0
    8.8761  -15.8004   21.7374 N   0  0  0  0  0  0  0  0  0  0  0  0
    8.9949  -15.3636   24.0897 C   0  0  0  0  0  0  0  0  0  0  0  0
   10.1183  -14.8089   24.0085 O   0  0  0  0  0  0  0  0  0  0  0  0
    5.3738  -12.1259   27.0804 C   0  0  0  0  0  0  0  0  0  0  0  0
    6.2552  -13.2866   26.7244 C   0  0  0  0  0  0  0  0  0  0  0  0
    7.6514  -12.9156   26.3704 C   0  0  2  0  0  0  0  0  0  0  0  0
    7.6162  -12.0674   25.0994 C   0  0  0  0  0  0  0  0  0  0  0  0
    8.5979  -14.0437   26.1305 C   0  0  2  0  0  0  0  0  0  0  0  0
    8.1679  -15.0327   25.1926 N   0  0  0  0  0  0  0  0  0  0  0  0
    8.7851  -14.7300   27.4597 C   0  0  0  0  0  0  0  0  0  0  0  0
    8.4137  -16.0514   27.5679 O   0  0  0  0  0  0  0  0  0  0  0  0
    9.2577  -14.1391   28.4384 O   0  0  0  0  0  0  0  0  0  0  0  0
  2  4  1  0
  2  1  1  6
  3  2  1  0
  4  5  1  6
  6  4  1  0
  7  6  2  0
  9  8  1  1
  9 11  1  0
  9 10  1  0
 10  6  1  0
 11 18  1  0
 12 11  2  0
 14 13  1  0
 15 17  1  0
 15 14  1  0
 15 16  1  6
 17 18  1  6
 19 20  1  0
 19 17  1  0
 21 19  2  0
M  END
$$$$
