VAI.pdb
     RDKit          3D

 21 20  0  0  1  0  0  0  0  0999 V2000
    6.3573  -20.4787   25.3470 C   0  0  0  0  0  0  0  0  0  0  0  0
    6.9076  -19.1011   24.9735 C   0  0  2  0  0  0  0  0  0  0  0  0
    6.1727  -18.0944   25.7990 C   0  0  0  0  0  0  0  0  0  0  0  0
    6.7089  -18.9244   23.4764 C   0  0  2  0  0  0  0  0  0  0  0  0
    7.2694  -20.1444   22.8675 N   0  0  0  0  0  0  0  0  0  0  0  0
    7.4603  -17.7688   22.9355 C   0  0  0  0  0  0  0  0  0  0  0  0
    8.7197  -17.8328   22.8914 O   0  0  0  0  0  0  0  0  0  0  0  0
    6.8230  -14.4503   21.2295 C   0  0  0  0  0  0  0  0  0  0  0  0
    7.6952  -15.4721   21.9252 C   0  0  2  0  0  0  0  0  0  0  0  0
    6.8718  -16.5704   22.4516 N   0  0  0  0  0  0  0  0  0  0  0  0
    8.3876  -14.8136   23.0468 C   0  0  0  0  0  0  0  0  0  0  0  0
    9.2630  -13.9374   22.8416 O   0  0  0  0  0  0  0  0  0  0  0  0
    5.5955  -12.4276   26.7039 C   0  0  0  0  0  0  0  0  0  0  0  0
    6.7535  -12.7776   25.8168 C   0  0  0  0  0  0  0  0  0  0  0  0
    7.7064  -13.7575   26.4035 C   0  0  2  0  0  0  0  0  0  0  0  0
    8.5269  -13.0459   27.4789 C   0  0  0  0  0  0  0  0  0  0  0  0
    8.6664  -14.3984   25.4580 C   0  0  2  0  0  0  0  0  0  0  0  0
    8.0856  -15.1502   24.3904 N   0  0  0  0  0  0  0  0  0  0  0  0
    9.5008  -15.3478   26.2799 C   0  0  0  0  0  0  0  0  0  0  0  0
    9.3816  -16.6975   26.0356 O   0  0  0  0  0  0  0  0  0  0  0  0
   10.2772  -14.9444   27.1546 O   0  0  0  0  0  0  0  0  0  0  0  0
  2  4  1  0
  2  1  1  1
  3  2  1  0
  4  5  1  6
  6  4  1  0
  7  6  2  0
  9  8  1  1
  9 11  1  0
  9 10  1  0
 10  6  1  0
 11 18  1  0
 12 11  2  0
 14 13  1  0
 15 17  1  0
 15 14  1  0
 15 16  1  1
 17 18  1  6
 19 20  1  0
 19 17  1  0
 21 19  2  0
M  END
$$$$
