VAI.pdb
     RDKit          3D

 21 20  0  0  1  0  0  0  0  0999 V2000
    8.2593  -12.8180   18.1509 C   0  0  0  0  0  0  0  0  0  0  0  0
    7.7869  -13.4816   19.4457 C   0  0  2  0  0  0  0  0  0  0  0  0
    8.2855  -12.6427   20.5782 C   0  0  0  0  0  0  0  0  0  0  0  0
    8.3315  -14.9012   19.4522 C   0  0  2  0  0  0  0  0  0  0  0  0
    7.6123  -15.5940   18.3678 N   0  0  0  0  0  0  0  0  0  0  0  0
    8.0361  -15.6179   20.7138 C   0  0  0  0  0  0  0  0  0  0  0  0
    6.8372  -15.9097   20.9777 O   0  0  0  0  0  0  0  0  0  0  0  0
    9.2586  -17.9809   23.1054 C   0  0  0  0  0  0  0  0  0  0  0  0
    8.6164  -16.6197   22.9522 C   0  0  2  0  0  0  0  0  0  0  0  0
    9.0075  -16.0134   21.6712 N   0  0  0  0  0  0  0  0  0  0  0  0
    9.0795  -15.7550   24.0517 C   0  0  0  0  0  0  0  0  0  0  0  0
   10.2316  -15.2561   24.0409 O   0  0  0  0  0  0  0  0  0  0  0  0
    5.6774  -12.1125   26.1969 C   0  0  0  0  0  0  0  0  0  0  0  0
    6.9361  -12.7543   25.6928 C   0  0  0  0  0  0  0  0  0  0  0  0
    7.6328  -13.6126   26.6879 C   0  0  2  0  0  0  0  0  0  0  0  0
    8.3081  -12.7056   27.7163 C   0  0  0  0  0  0  0  0  0  0  0  0
    8.6742  -14.5378   26.1537 C   0  0  2  0  0  0  0  0  0  0  0  0
    8.2377  -15.4610   25.1538 N   0  0  0  0  0  0  0  0  0  0  0  0
    9.1693  -15.3424   27.3287 C   0  0  0  0  0  0  0  0  0  0  0  0
   10.1049  -14.7704   28.1613 O   0  0  0  0  0  0  0  0  0  0  0  0
    8.7584  -16.4870   27.5553 O   0  0  0  0  0  0  0  0  0  0  0  0
  2  4  1  0
  2  1  1  6
  3  2  1  0
  4  5  1  6
  6  4  1  0
  7  6  2  0
  9  8  1  1
  9 11  1  0
  9 10  1  0
 10  6  1  0
 11 18  1  0
 12 11  2  0
 14 13  1  0
 15 17  1  0
 15 14  1  0
 15 16  1  1
 17 18  1  6
 19 20  1  0
 19 17  1  0
 21 19  2  0
M  END
$$$$
