VAI.pdb
     RDKit          3D

 21 20  0  0  1  0  0  0  0  0999 V2000
    6.3143  -14.0910   20.3670 C   0  0  0  0  0  0  0  0  0  0  0  0
    7.2271  -14.4894   21.5281 C   0  0  2  0  0  0  0  0  0  0  0  0
    7.8983  -13.2429   22.0088 C   0  0  0  0  0  0  0  0  0  0  0  0
    8.1939  -15.5398   21.0048 C   0  0  2  0  0  0  0  0  0  0  0  0
    7.3402  -16.6271   20.4927 N   0  0  0  0  0  0  0  0  0  0  0  0
    9.0492  -16.1076   22.0719 C   0  0  0  0  0  0  0  0  0  0  0  0
    8.6111  -17.0808   22.7449 O   0  0  0  0  0  0  0  0  0  0  0  0
   12.6733  -16.1358   22.9879 C   0  0  0  0  0  0  0  0  0  0  0  0
   11.2202  -16.3966   23.3185 C   0  0  2  0  0  0  0  0  0  0  0  0
   10.3474  -15.6405   22.4085 N   0  0  0  0  0  0  0  0  0  0  0  0
   10.9661  -15.9557   24.7012 C   0  0  0  0  0  0  0  0  0  0  0  0
   11.7676  -16.2341   25.6266 O   0  0  0  0  0  0  0  0  0  0  0  0
    7.0730  -11.9195   25.6814 C   0  0  0  0  0  0  0  0  0  0  0  0
    8.4055  -12.6085   25.6983 C   0  0  0  0  0  0  0  0  0  0  0  0
    8.4685  -13.8091   26.5741 C   0  0  2  0  0  0  0  0  0  0  0  0
    8.5139  -13.3416   28.0286 C   0  0  0  0  0  0  0  0  0  0  0  0
    9.6259  -14.7263   26.3617 C   0  0  2  0  0  0  0  0  0  0  0  0
    9.8091  -15.2040   25.0272 N   0  0  0  0  0  0  0  0  0  0  0  0
    9.3842  -15.9250   27.2435 C   0  0  0  0  0  0  0  0  0  0  0  0
    8.8692  -17.0641   26.6665 O   0  0  0  0  0  0  0  0  0  0  0  0
    9.6354  -15.9054   28.4547 O   0  0  0  0  0  0  0  0  0  0  0  0
  2  4  1  0
  2  1  1  6
  3  2  1  0
  4  5  1  1
  6  4  1  0
  7  6  2  0
  9  8  1  6
  9 11  1  0
  9 10  1  0
 10  6  1  0
 11 18  1  0
 12 11  2  0
 14 13  1  0
 15 17  1  0
 15 14  1  0
 15 16  1  1
 17 18  1  6
 19 20  1  0
 19 17  1  0
 21 19  2  0
M  END
$$$$
