VAI.pdb
     RDKit          3D

 21 20  0  0  1  0  0  0  0  0999 V2000
    7.4209  -12.8077   20.2655 C   0  0  0  0  0  0  0  0  0  0  0  0
    8.5899  -13.4268   19.4973 C   0  0  2  0  0  0  0  0  0  0  0  0
    8.6099  -12.7964   18.1419 C   0  0  0  0  0  0  0  0  0  0  0  0
    8.3668  -14.9306   19.4675 C   0  0  2  0  0  0  0  0  0  0  0  0
    7.1998  -15.1289   18.5890 N   0  0  0  0  0  0  0  0  0  0  0  0
    8.0233  -15.4811   20.7985 C   0  0  0  0  0  0  0  0  0  0  0  0
    6.8510  -15.3194   21.2361 O   0  0  0  0  0  0  0  0  0  0  0  0
    9.0846  -18.0788   23.1900 C   0  0  0  0  0  0  0  0  0  0  0  0
    8.4921  -16.7077   22.9494 C   0  0  2  0  0  0  0  0  0  0  0  0
    8.9194  -16.1908   21.6411 N   0  0  0  0  0  0  0  0  0  0  0  0
    8.9717  -15.7967   24.0034 C   0  0  0  0  0  0  0  0  0  0  0  0
   10.0739  -15.2053   23.8949 O   0  0  0  0  0  0  0  0  0  0  0  0
    5.7911  -12.0483   26.3301 C   0  0  0  0  0  0  0  0  0  0  0  0
    6.9255  -12.8358   25.7440 C   0  0  0  0  0  0  0  0  0  0  0  0
    7.6377  -13.7087   26.7152 C   0  0  2  0  0  0  0  0  0  0  0  0
    8.3339  -12.8170   27.7429 C   0  0  0  0  0  0  0  0  0  0  0  0
    8.6667  -14.6295   26.1503 C   0  0  2  0  0  0  0  0  0  0  0  0
    8.2027  -15.5612   25.1709 N   0  0  0  0  0  0  0  0  0  0  0  0
    9.2078  -15.4241   27.3117 C   0  0  0  0  0  0  0  0  0  0  0  0
   10.1360  -14.8254   28.1338 O   0  0  0  0  0  0  0  0  0  0  0  0
    8.8403  -16.5838   27.5366 O   0  0  0  0  0  0  0  0  0  0  0  0
  2  4  1  0
  2  1  1  1
  3  2  1  0
  4  5  1  6
  6  4  1  0
  7  6  2  0
  9  8  1  1
  9 11  1  0
  9 10  1  0
 10  6  1  0
 11 18  1  0
 12 11  2  0
 14 13  1  0
 15 17  1  0
 15 14  1  0
 15 16  1  1
 17 18  1  6
 19 20  1  0
 19 17  1  0
 21 19  2  0
M  END
$$$$
