VAI.pdb
     RDKit          3D

 21 20  0  0  1  0  0  0  0  0999 V2000
    6.0920  -14.4594   19.8145 C   0  0  0  0  0  0  0  0  0  0  0  0
    7.3837  -13.6447   19.9029 C   0  0  2  0  0  0  0  0  0  0  0  0
    7.7333  -13.2206   18.5126 C   0  0  0  0  0  0  0  0  0  0  0  0
    8.4347  -14.5307   20.5529 C   0  0  2  0  0  0  0  0  0  0  0  0
    8.5087  -15.7298   19.6986 N   0  0  0  0  0  0  0  0  0  0  0  0
    8.0447  -14.9728   21.9113 C   0  0  0  0  0  0  0  0  0  0  0  0
    7.8459  -14.0981   22.7986 O   0  0  0  0  0  0  0  0  0  0  0  0
    7.2623  -18.1731   23.7931 C   0  0  0  0  0  0  0  0  0  0  0  0
    7.3945  -16.6723   23.6546 C   0  0  2  0  0  0  0  0  0  0  0  0
    7.8714  -16.3253   22.3080 N   0  0  0  0  0  0  0  0  0  0  0  0
    8.3728  -16.1931   24.6467 C   0  0  0  0  0  0  0  0  0  0  0  0
    9.6069  -16.2961   24.4401 O   0  0  0  0  0  0  0  0  0  0  0  0
    6.7915  -11.8342   27.1455 C   0  0  0  0  0  0  0  0  0  0  0  0
    7.8908  -12.6431   26.5228 C   0  0  0  0  0  0  0  0  0  0  0  0
    8.4370  -13.7169   27.3952 C   0  0  2  0  0  0  0  0  0  0  0  0
    9.6233  -13.1478   28.1730 C   0  0  0  0  0  0  0  0  0  0  0  0
    8.9040  -14.9568   26.7091 C   0  0  2  0  0  0  0  0  0  0  0  0
    7.9492  -15.6015   25.8634 N   0  0  0  0  0  0  0  0  0  0  0  0
    9.2749  -15.9302   27.7991 C   0  0  0  0  0  0  0  0  0  0  0  0
   10.5270  -15.8300   28.3628 O   0  0  0  0  0  0  0  0  0  0  0  0
    8.4894  -16.8024   28.1900 O   0  0  0  0  0  0  0  0  0  0  0  0
  2  4  1  0
  2  1  1  6
  3  2  1  0
  4  5  1  6
  6  4  1  0
  7  6  2  0
  9  8  1  6
  9 11  1  0
  9 10  1  0
 10  6  1  0
 11 18  1  0
 12 11  2  0
 14 13  1  0
 15 17  1  0
 15 14  1  0
 15 16  1  6
 17 18  1  1
 19 20  1  0
 19 17  1  0
 21 19  2  0
M  END
$$$$
