VAI.pdb
     RDKit          3D

 21 20  0  0  1  0  0  0  0  0999 V2000
    9.0674  -20.2708   21.4909 C   0  0  0  0  0  0  0  0  0  0  0  0
    9.0279  -18.9392   22.2428 C   0  0  2  0  0  0  0  0  0  0  0  0
    7.7009  -18.8585   22.9267 C   0  0  0  0  0  0  0  0  0  0  0  0
    9.2563  -17.8355   21.2223 C   0  0  2  0  0  0  0  0  0  0  0  0
   10.6237  -18.0556   20.7173 N   0  0  0  0  0  0  0  0  0  0  0  0
    9.2151  -16.4844   21.8269 C   0  0  0  0  0  0  0  0  0  0  0  0
   10.0971  -16.1731   22.6737 O   0  0  0  0  0  0  0  0  0  0  0  0
    7.3513  -13.2112   21.5045 C   0  0  0  0  0  0  0  0  0  0  0  0
    8.2320  -14.2003   22.2359 C   0  0  2  0  0  0  0  0  0  0  0  0
    8.2476  -15.4887   21.5280 N   0  0  0  0  0  0  0  0  0  0  0  0
    7.6862  -14.4048   23.5891 C   0  0  0  0  0  0  0  0  0  0  0  0
    6.7304  -15.1941   23.7886 O   0  0  0  0  0  0  0  0  0  0  0  0
   10.5933  -14.2064   28.4191 C   0  0  0  0  0  0  0  0  0  0  0  0
    9.6254  -14.5767   27.3343 C   0  0  0  0  0  0  0  0  0  0  0  0
    8.4935  -13.6265   27.1663 C   0  0  2  0  0  0  0  0  0  0  0  0
    7.6190  -13.6939   28.4180 C   0  0  0  0  0  0  0  0  0  0  0  0
    7.6070  -13.8513   25.9874 C   0  0  2  0  0  0  0  0  0  0  0  0
    8.2242  -13.7162   24.7055 N   0  0  0  0  0  0  0  0  0  0  0  0
    6.5139  -12.8167   26.0757 C   0  0  0  0  0  0  0  0  0  0  0  0
    5.4124  -13.0984   26.8523 O   0  0  0  0  0  0  0  0  0  0  0  0
    6.5861  -11.7381   25.4742 O   0  0  0  0  0  0  0  0  0  0  0  0
  2  4  1  0
  2  1  1  6
  3  2  1  0
  4  5  1  1
  6  4  1  0
  7  6  2  0
  9  8  1  6
  9 11  1  0
  9 10  1  0
 10  6  1  0
 11 18  1  0
 12 11  2  0
 14 13  1  0
 15 17  1  0
 15 14  1  0
 15 16  1  1
 17 18  1  6
 19 20  1  0
 19 17  1  0
 21 19  2  0
M  END
$$$$
