VAI.pdb
     RDKit          3D

 21 20  0  0  1  0  0  0  0  0999 V2000
    7.9627  -12.8189   18.2929 C   0  0  0  0  0  0  0  0  0  0  0  0
    7.5932  -13.4584   19.6325 C   0  0  2  0  0  0  0  0  0  0  0  0
    8.1525  -12.5833   20.7078 C   0  0  0  0  0  0  0  0  0  0  0  0
    8.1638  -14.8678   19.6346 C   0  0  2  0  0  0  0  0  0  0  0  0
    7.3932  -15.5962   18.6104 N   0  0  0  0  0  0  0  0  0  0  0  0
    7.9590  -15.5624   20.9262 C   0  0  0  0  0  0  0  0  0  0  0  0
    6.7806  -15.8286   21.2900 O   0  0  0  0  0  0  0  0  0  0  0  0
    9.3208  -17.9529   23.1960 C   0  0  0  0  0  0  0  0  0  0  0  0
    8.7011  -16.5754   23.1112 C   0  0  2  0  0  0  0  0  0  0  0  0
    8.9977  -15.9630   21.8079 N   0  0  0  0  0  0  0  0  0  0  0  0
    9.2756  -15.7349   24.1763 C   0  0  0  0  0  0  0  0  0  0  0  0
   10.3963  -15.1871   24.0343 O   0  0  0  0  0  0  0  0  0  0  0  0
    6.1942  -12.1074   26.7387 C   0  0  0  0  0  0  0  0  0  0  0  0
    7.3449  -12.8177   26.0892 C   0  0  0  0  0  0  0  0  0  0  0  0
    8.1246  -13.6943   27.0035 C   0  0  2  0  0  0  0  0  0  0  0  0
    8.8943  -12.8064   27.9810 C   0  0  0  0  0  0  0  0  0  0  0  0
    9.1093  -14.6140   26.3627 C   0  0  2  0  0  0  0  0  0  0  0  0
    8.5797  -15.5202   25.3926 N   0  0  0  0  0  0  0  0  0  0  0  0
    9.7058  -15.4382   27.4753 C   0  0  0  0  0  0  0  0  0  0  0  0
    9.2846  -16.7412   27.6178 O   0  0  0  0  0  0  0  0  0  0  0  0
   10.5520  -14.9743   28.2494 O   0  0  0  0  0  0  0  0  0  0  0  0
  2  4  1  0
  2  1  1  6
  3  2  1  0
  4  5  1  6
  6  4  1  0
  7  6  2  0
  9  8  1  6
  9 11  1  0
  9 10  1  0
 10  6  1  0
 11 18  1  0
 12 11  2  0
 14 13  1  0
 15 17  1  0
 15 14  1  0
 15 16  1  1
 17 18  1  6
 19 20  1  0
 19 17  1  0
 21 19  2  0
M  END
$$$$
