VKK.pdb
     RDKit          3D

 26 25  0  0  1  0  0  0  0  0999 V2000
   10.5516  -20.8594   18.9981 C   0  0  0  0  0  0  0  0  0  0  0  0
    9.1341  -20.9078   18.4965 C   0  0  1  0  0  0  0  0  0  0  0  0
    8.9911  -21.5321   17.1499 C   0  0  0  0  0  0  0  0  0  0  0  0
    8.2848  -21.6103   19.5204 C   0  0  2  0  0  0  0  0  0  0  0  0
    6.9118  -21.7226   19.1261 N   0  0  0  0  0  0  0  0  0  0  0  0
    8.3477  -20.8910   20.8262 C   0  0  0  0  0  0  0  0  0  0  0  0
    7.6958  -19.8086   20.8997 O   0  0  0  0  0  0  0  0  0  0  0  0
    9.0955  -21.4252   21.8694 N   0  0  0  0  0  0  0  0  0  0  0  0
    9.0868  -20.7362   23.2046 C   0  0  1  0  0  0  0  0  0  0  0  0
    9.1357  -21.7719   24.2455 C   0  0  0  0  0  0  0  0  0  0  0  0
    9.2593  -21.5572   25.6617 C   0  0  0  0  0  0  0  0  0  0  0  0
    9.4582  -22.6062   26.6695 C   0  0  0  0  0  0  0  0  0  0  0  0
    9.5498  -21.8084   28.0237 C   0  0  0  0  0  0  0  0  0  0  0  0
    9.5972  -22.7285   29.1150 N   0  0  0  0  0  0  0  0  0  0  0  0
   10.3673  -19.9472   23.1642 C   0  0  0  0  0  0  0  0  0  0  0  0
   11.4104  -20.4827   22.7807 O   0  0  0  0  0  0  0  0  0  0  0  0
   10.4225  -18.5939   23.5550 N   0  0  0  0  0  0  0  0  0  0  0  0
   11.7745  -17.9153   23.4794 C   0  0  1  0  0  0  0  0  0  0  0  0
   11.5070  -16.5363   23.0209 C   0  0  0  0  0  0  0  0  0  0  0  0
   11.6108  -16.1948   21.6119 C   0  0  0  0  0  0  0  0  0  0  0  0
   10.7599  -15.2061   20.9307 C   0  0  0  0  0  0  0  0  0  0  0  0
   11.0271  -15.2848   19.3881 C   0  0  0  0  0  0  0  0  0  0  0  0
   10.2148  -14.2919   18.7556 N   0  0  0  0  0  0  0  0  0  0  0  0
   12.2074  -17.9680   24.8977 C   0  0  0  0  0  0  0  0  0  0  0  0
   13.3722  -17.7453   25.2321 O   0  0  0  0  0  0  0  0  0  0  0  0
   11.2394  -18.2831   25.8772 O   0  0  0  0  0  0  0  0  0  0  0  0
  2  4  1  0
  2  1  1  1
  3  2  1  0
  4  6  1  0
  4  5  1  6
  6  7  2  0
  8  9  1  0
  8  6  1  0
 10 11  1  0
  9 10  1  1
 12 11  1  0
 13 12  1  0
 14 13  1  0
 15 16  2  0
 15  9  1  0
 17 15  1  0
 18 17  1  0
 18 24  1  0
 18 19  1  1
 20 19  1  0
 21 20  1  0
 22 21  1  0
 23 22  1  0
 24 26  1  0
 25 24  2  0
M  END
$$$$
