VKK.pdb
     RDKit          3D

 26 25  0  0  1  0  0  0  0  0999 V2000
    8.6896  -15.9551   18.0184 C   0  0  0  0  0  0  0  0  0  0  0  0
    8.5062  -14.4817   17.7763 C   0  0  1  0  0  0  0  0  0  0  0  0
    7.8849  -14.1589   16.4598 C   0  0  0  0  0  0  0  0  0  0  0  0
    7.7124  -13.9017   18.9150 C   0  0  2  0  0  0  0  0  0  0  0  0
    7.4955  -12.4914   18.7844 N   0  0  0  0  0  0  0  0  0  0  0  0
    8.4044  -14.1588   20.2118 C   0  0  0  0  0  0  0  0  0  0  0  0
    9.3565  -13.3767   20.5015 O   0  0  0  0  0  0  0  0  0  0  0  0
    7.9856  -15.2119   21.0170 N   0  0  0  0  0  0  0  0  0  0  0  0
    8.6097  -15.3910   22.3721 C   0  0  1  0  0  0  0  0  0  0  0  0
    7.7191  -16.2465   23.1679 C   0  0  0  0  0  0  0  0  0  0  0  0
    8.0501  -16.9210   24.3937 C   0  0  0  0  0  0  0  0  0  0  0  0
    7.1497  -17.7941   25.1571 C   0  0  0  0  0  0  0  0  0  0  0  0
    8.0067  -18.2060   26.4120 C   0  0  0  0  0  0  0  0  0  0  0  0
    7.2083  -18.9965   27.2938 N   0  0  0  0  0  0  0  0  0  0  0  0
    9.8924  -16.1039   22.0401 C   0  0  0  0  0  0  0  0  0  0  0  0
    9.8790  -17.0786   21.2840 O   0  0  0  0  0  0  0  0  0  0  0  0
   11.1327  -15.6935   22.5697 N   0  0  0  0  0  0  0  0  0  0  0  0
   12.3282  -16.5743   22.2712 C   0  0  1  0  0  0  0  0  0  0  0  0
   13.3420  -15.6846   21.6676 C   0  0  0  0  0  0  0  0  0  0  0  0
   13.4967  -15.6160   20.2240 C   0  0  0  0  0  0  0  0  0  0  0  0
   14.4501  -14.7353   19.5305 C   0  0  0  0  0  0  0  0  0  0  0  0
   14.1492  -14.7739   17.9926 C   0  0  0  0  0  0  0  0  0  0  0  0
   15.0639  -13.8826   17.3487 N   0  0  0  0  0  0  0  0  0  0  0  0
   12.7069  -17.0243   23.6335 C   0  0  0  0  0  0  0  0  0  0  0  0
   13.4944  -17.9539   23.8172 O   0  0  0  0  0  0  0  0  0  0  0  0
   12.1373  -16.3525   24.7380 O   0  0  0  0  0  0  0  0  0  0  0  0
  2  4  1  0
  2  1  1  1
  3  2  1  0
  4  6  1  0
  4  5  1  6
  6  7  2  0
  8  9  1  0
  8  6  1  0
 10 11  1  0
  9 10  1  1
 12 11  1  0
 13 12  1  0
 14 13  1  0
 15 16  2  0
 15  9  1  0
 17 15  1  0
 18 17  1  0
 18 24  1  0
 18 19  1  1
 20 19  1  0
 21 20  1  0
 22 21  1  0
 23 22  1  0
 24 26  1  0
 25 24  2  0
M  END
$$$$
