VKK.pdb
     RDKit          3D

 26 25  0  0  1  0  0  0  0  0999 V2000
    6.3372  -11.3363   27.1640 C   0  0  0  0  0  0  0  0  0  0  0  0
    7.0593  -12.3534   26.3231 C   0  0  1  0  0  0  0  0  0  0  0  0
    8.0907  -13.1306   27.0685 C   0  0  0  0  0  0  0  0  0  0  0  0
    6.0424  -13.2606   25.6858 C   0  0  2  0  0  0  0  0  0  0  0  0
    5.3858  -14.1153   26.6300 N   0  0  0  0  0  0  0  0  0  0  0  0
    6.6886  -14.1106   24.6435 C   0  0  0  0  0  0  0  0  0  0  0  0
    6.8096  -15.3396   24.9210 O   0  0  0  0  0  0  0  0  0  0  0  0
    7.1148  -13.5327   23.4530 N   0  0  0  0  0  0  0  0  0  0  0  0
    7.5612  -14.4209   22.3262 C   0  0  1  0  0  0  0  0  0  0  0  0
    7.5576  -13.6205   21.0942 C   0  0  0  0  0  0  0  0  0  0  0  0
    7.7695  -14.1058   19.7575 C   0  0  0  0  0  0  0  0  0  0  0  0
    8.7195  -13.5468   18.7875 C   0  0  0  0  0  0  0  0  0  0  0  0
    8.4199  -14.3512   17.4677 C   0  0  0  0  0  0  0  0  0  0  0  0
    9.2818  -13.8922   16.4255 N   0  0  0  0  0  0  0  0  0  0  0  0
    8.9640  -14.7765   22.7377 C   0  0  0  0  0  0  0  0  0  0  0  0
    9.5574  -14.0852   23.5695 O   0  0  0  0  0  0  0  0  0  0  0  0
    9.6398  -15.8904   22.1992 N   0  0  0  0  0  0  0  0  0  0  0  0
   10.8703  -16.3679   22.9421 C   0  0  1  0  0  0  0  0  0  0  0  0
   10.3910  -17.3832   23.9028 C   0  0  0  0  0  0  0  0  0  0  0  0
   11.3368  -18.1918   24.6539 C   0  0  0  0  0  0  0  0  0  0  0  0
   10.9567  -19.2582   25.5942 C   0  0  0  0  0  0  0  0  0  0  0  0
   12.2586  -19.9346   26.1463 C   0  0  0  0  0  0  0  0  0  0  0  0
   11.8617  -20.9402   27.0828 N   0  0  0  0  0  0  0  0  0  0  0  0
   11.6657  -16.9612   21.8389 C   0  0  0  0  0  0  0  0  0  0  0  0
   11.1382  -17.5926   20.9218 O   0  0  0  0  0  0  0  0  0  0  0  0
   13.0671  -16.7839   21.8596 O   0  0  0  0  0  0  0  0  0  0  0  0
  2  4  1  0
  2  1  1  1
  3  2  1  0
  4  6  1  0
  4  5  1  1
  6  7  2  0
  8  9  1  0
  8  6  1  0
 10 11  1  0
  9 10  1  6
 12 11  1  0
 13 12  1  0
 14 13  1  0
 15 16  2  0
 15  9  1  0
 17 15  1  0
 18 17  1  0
 18 24  1  0
 18 19  1  1
 20 19  1  0
 21 20  1  0
 22 21  1  0
 23 22  1  0
 24 26  1  0
 25 24  2  0
M  END
$$$$
