VKK.pdb
     RDKit          3D

 26 25  0  0  1  0  0  0  0  0999 V2000
    9.8685  -15.2625   18.7002 C   0  0  0  0  0  0  0  0  0  0  0  0
    9.1868  -13.9215   18.6991 C   0  0  1  0  0  0  0  0  0  0  0  0
    9.2434  -13.2166   17.3863 C   0  0  0  0  0  0  0  0  0  0  0  0
    7.7678  -14.1022   19.1646 C   0  0  2  0  0  0  0  0  0  0  0  0
    7.0530  -12.8651   19.2734 N   0  0  0  0  0  0  0  0  0  0  0  0
    7.7415  -14.7853   20.4909 C   0  0  0  0  0  0  0  0  0  0  0  0
    8.0857  -14.0845   21.4872 O   0  0  0  0  0  0  0  0  0  0  0  0
    7.3525  -16.1177   20.5699 N   0  0  0  0  0  0  0  0  0  0  0  0
    7.3562  -16.8039   21.9066 C   0  0  1  0  0  0  0  0  0  0  0  0
    6.5028  -17.9953   21.8029 C   0  0  0  0  0  0  0  0  0  0  0  0
    6.4150  -19.0708   22.7530 C   0  0  0  0  0  0  0  0  0  0  0  0
    5.5466  -20.2484   22.6307 C   0  0  0  0  0  0  0  0  0  0  0  0
    5.8273  -21.0563   23.9526 C   0  0  0  0  0  0  0  0  0  0  0  0
    4.9288  -22.1635   24.0326 N   0  0  0  0  0  0  0  0  0  0  0  0
    8.8030  -17.1854   22.0647 C   0  0  0  0  0  0  0  0  0  0  0  0
    9.4242  -17.6597   21.1103 O   0  0  0  0  0  0  0  0  0  0  0  0
    9.4895  -17.0187   23.2847 N   0  0  0  0  0  0  0  0  0  0  0  0
   10.9193  -17.5157   23.3377 C   0  0  1  0  0  0  0  0  0  0  0  0
   11.7604  -16.3610   22.9598 C   0  0  0  0  0  0  0  0  0  0  0  0
   13.2090  -16.4463   23.0413 C   0  0  0  0  0  0  0  0  0  0  0  0
   14.1287  -15.3607   22.6652 C   0  0  0  0  0  0  0  0  0  0  0  0
   15.6026  -15.8439   22.8919 C   0  0  0  0  0  0  0  0  0  0  0  0
   16.4694  -14.7431   22.6045 N   0  0  0  0  0  0  0  0  0  0  0  0
   11.0525  -17.8696   24.7725 C   0  0  0  0  0  0  0  0  0  0  0  0
   12.0831  -18.3687   25.2275 O   0  0  0  0  0  0  0  0  0  0  0  0
    9.9543  -17.6171   25.6244 O   0  0  0  0  0  0  0  0  0  0  0  0
  2  4  1  0
  2  1  1  6
  3  2  1  0
  4  6  1  0
  4  5  1  1
  6  7  2  0
  8  9  1  0
  8  6  1  0
 10 11  1  0
  9 10  1  6
 12 11  1  0
 13 12  1  0
 14 13  1  0
 15 16  2  0
 15  9  1  0
 17 15  1  0
 18 17  1  0
 18 24  1  0
 18 19  1  1
 20 19  1  0
 21 20  1  0
 22 21  1  0
 23 22  1  0
 24 26  1  0
 25 24  2  0
M  END
$$$$
