VKK.pdb
     RDKit          3D

 26 25  0  0  1  0  0  0  0  0999 V2000
    6.3302  -11.0729   27.1236 C   0  0  0  0  0  0  0  0  0  0  0  0
    7.0597  -12.1558   26.3765 C   0  0  1  0  0  0  0  0  0  0  0  0
    8.0029  -12.9426   27.2219 C   0  0  0  0  0  0  0  0  0  0  0  0
    6.0473  -13.0461   25.7089 C   0  0  2  0  0  0  0  0  0  0  0  0
    5.3119  -13.8516   26.6381 N   0  0  0  0  0  0  0  0  0  0  0  0
    6.7183  -13.9461   24.7258 C   0  0  0  0  0  0  0  0  0  0  0  0
    6.8566  -15.1540   25.0781 O   0  0  0  0  0  0  0  0  0  0  0  0
    7.1473  -13.4337   23.5068 N   0  0  0  0  0  0  0  0  0  0  0  0
    7.6376  -14.3789   22.4466 C   0  0  1  0  0  0  0  0  0  0  0  0
    7.8115  -13.6118   21.2057 C   0  0  0  0  0  0  0  0  0  0  0  0
    8.1841  -14.1365   19.9200 C   0  0  0  0  0  0  0  0  0  0  0  0
    8.2695  -13.3629   18.6750 C   0  0  0  0  0  0  0  0  0  0  0  0
    8.5963  -14.4496   17.5837 C   0  0  0  0  0  0  0  0  0  0  0  0
    8.5252  -13.8565   16.2864 N   0  0  0  0  0  0  0  0  0  0  0  0
    8.9646  -14.8197   23.0020 C   0  0  0  0  0  0  0  0  0  0  0  0
    9.6083  -14.0649   23.7354 O   0  0  0  0  0  0  0  0  0  0  0  0
    9.5116  -16.0860   22.7113 N   0  0  0  0  0  0  0  0  0  0  0  0
   10.7802  -16.4673   23.4456 C   0  0  1  0  0  0  0  0  0  0  0  0
   10.4433  -17.6731   24.2307 C   0  0  0  0  0  0  0  0  0  0  0  0
   11.4869  -18.4341   24.8972 C   0  0  0  0  0  0  0  0  0  0  0  0
   11.2435  -19.6033   25.7571 C   0  0  0  0  0  0  0  0  0  0  0  0
   12.6181  -20.1332   26.2928 C   0  0  0  0  0  0  0  0  0  0  0  0
   12.3521  -21.2641   27.1271 N   0  0  0  0  0  0  0  0  0  0  0  0
   11.6944  -16.7634   22.3150 C   0  0  0  0  0  0  0  0  0  0  0  0
   11.2782  -17.1773   21.2317 O   0  0  0  0  0  0  0  0  0  0  0  0
   13.0786  -16.5562   22.5072 O   0  0  0  0  0  0  0  0  0  0  0  0
  2  4  1  0
  2  1  1  1
  3  2  1  0
  4  6  1  0
  4  5  1  1
  6  7  2  0
  8  9  1  0
  8  6  1  0
 10 11  1  0
  9 10  1  6
 12 11  1  0
 13 12  1  0
 14 13  1  0
 15 16  2  0
 15  9  1  0
 17 15  1  0
 18 17  1  0
 18 24  1  0
 18 19  1  1
 20 19  1  0
 21 20  1  0
 22 21  1  0
 23 22  1  0
 24 26  1  0
 25 24  2  0
M  END
$$$$
