VKK.pdb
     RDKit          3D

 26 25  0  0  1  0  0  0  0  0999 V2000
    5.9253  -11.9691   27.7519 C   0  0  0  0  0  0  0  0  0  0  0  0
    6.0048  -12.5685   26.3744 C   0  0  1  0  0  0  0  0  0  0  0  0
    6.1196  -11.5595   25.2826 C   0  0  0  0  0  0  0  0  0  0  0  0
    7.1470  -13.5469   26.3402 C   0  0  2  0  0  0  0  0  0  0  0  0
    8.4217  -12.9260   26.5463 N   0  0  0  0  0  0  0  0  0  0  0  0
    7.1734  -14.2657   25.0328 C   0  0  0  0  0  0  0  0  0  0  0  0
    6.2826  -15.1486   24.8626 O   0  0  0  0  0  0  0  0  0  0  0  0
    8.1442  -13.9435   24.0912 N   0  0  0  0  0  0  0  0  0  0  0  0
    8.2046  -14.7201   22.8063 C   0  0  1  0  0  0  0  0  0  0  0  0
    8.2216  -13.7554   21.6983 C   0  0  0  0  0  0  0  0  0  0  0  0
    8.1869  -14.0636   20.2943 C   0  0  0  0  0  0  0  0  0  0  0  0
    8.1791  -13.0794   19.2048 C   0  0  0  0  0  0  0  0  0  0  0  0
    8.0381  -13.9613   17.9082 C   0  0  0  0  0  0  0  0  0  0  0  0
    7.8169  -13.1146   16.7795 N   0  0  0  0  0  0  0  0  0  0  0  0
    9.5249  -15.4315   22.9261 C   0  0  0  0  0  0  0  0  0  0  0  0
   10.4396  -14.9289   23.5838 O   0  0  0  0  0  0  0  0  0  0  0  0
    9.7620  -16.6741   22.3039 N   0  0  0  0  0  0  0  0  0  0  0  0
   11.1108  -17.3167   22.5529 C   0  0  1  0  0  0  0  0  0  0  0  0
   10.8549  -18.4444   23.4730 C   0  0  0  0  0  0  0  0  0  0  0  0
   11.9295  -19.3489   23.8469 C   0  0  0  0  0  0  0  0  0  0  0  0
   11.7656  -20.5157   24.7286 C   0  0  0  0  0  0  0  0  0  0  0  0
   13.1407  -21.2589   24.8463 C   0  0  0  0  0  0  0  0  0  0  0  0
   13.2386  -21.7833   26.1734 N   0  0  0  0  0  0  0  0  0  0  0  0
   11.4751  -17.7695   21.1876 C   0  0  0  0  0  0  0  0  0  0  0  0
   10.6278  -18.1611   20.3832 O   0  0  0  0  0  0  0  0  0  0  0  0
   12.8387  -17.7414   20.8194 O   0  0  0  0  0  0  0  0  0  0  0  0
  2  4  1  0
  2  1  1  1
  3  2  1  0
  4  6  1  0
  4  5  1  6
  6  7  2  0
  8  9  1  0
  8  6  1  0
 10 11  1  0
  9 10  1  6
 12 11  1  0
 13 12  1  0
 14 13  1  0
 15 16  2  0
 15  9  1  0
 17 15  1  0
 18 17  1  0
 18 24  1  0
 18 19  1  1
 20 19  1  0
 21 20  1  0
 22 21  1  0
 23 22  1  0
 24 26  1  0
 25 24  2  0
M  END
$$$$
