VKK.pdb
     RDKit          3D

 26 25  0  0  1  0  0  0  0  0999 V2000
    8.8247  -12.8490   20.4582 C   0  0  0  0  0  0  0  0  0  0  0  0
    8.0991  -13.2936   19.2177 C   0  0  1  0  0  0  0  0  0  0  0  0
    8.1601  -12.3112   18.0976 C   0  0  0  0  0  0  0  0  0  0  0  0
    8.6359  -14.6357   18.8008 C   0  0  2  0  0  0  0  0  0  0  0  0
    7.9832  -15.1629   17.6392 N   0  0  0  0  0  0  0  0  0  0  0  0
    8.4932  -15.6186   19.9143 C   0  0  0  0  0  0  0  0  0  0  0  0
    7.3529  -16.1522   20.0457 O   0  0  0  0  0  0  0  0  0  0  0  0
    9.5839  -15.8950   20.7308 N   0  0  0  0  0  0  0  0  0  0  0  0
    9.4409  -16.9164   21.8235 C   0  0  1  0  0  0  0  0  0  0  0  0
   10.4966  -17.9216   21.6405 C   0  0  0  0  0  0  0  0  0  0  0  0
   10.7408  -19.0680   22.4731 C   0  0  0  0  0  0  0  0  0  0  0  0
   11.8276  -20.0384   22.2915 C   0  0  0  0  0  0  0  0  0  0  0  0
   11.5712  -21.1003   23.4252 C   0  0  0  0  0  0  0  0  0  0  0  0
   12.6278  -22.0612   23.4239 N   0  0  0  0  0  0  0  0  0  0  0  0
    9.6828  -16.0951   23.0607 C   0  0  0  0  0  0  0  0  0  0  0  0
   10.4018  -15.0941   23.0063 O   0  0  0  0  0  0  0  0  0  0  0  0
    9.1087  -16.4314   24.3035 N   0  0  0  0  0  0  0  0  0  0  0  0
    9.2131  -15.3985   25.4064 C   0  0  1  0  0  0  0  0  0  0  0  0
    7.9452  -14.6405   25.3684 C   0  0  0  0  0  0  0  0  0  0  0  0
    7.6550  -13.6384   26.3803 C   0  0  0  0  0  0  0  0  0  0  0  0
    6.3990  -12.8755   26.4593 C   0  0  0  0  0  0  0  0  0  0  0  0
    6.4763  -11.8975   27.6819 C   0  0  0  0  0  0  0  0  0  0  0  0
    5.2686  -11.1314   27.7020 N   0  0  0  0  0  0  0  0  0  0  0  0
    9.3217  -16.2633   26.6072 C   0  0  0  0  0  0  0  0  0  0  0  0
    8.7811  -17.3690   26.6650 O   0  0  0  0  0  0  0  0  0  0  0  0
   10.0728  -15.7862   27.7045 O   0  0  0  0  0  0  0  0  0  0  0  0
  2  4  1  0
  2  1  1  1
  3  2  1  0
  4  6  1  0
  4  5  1  6
  6  7  2  0
  8  9  1  0
  8  6  1  0
 10 11  1  0
  9 10  1  6
 12 11  1  0
 13 12  1  0
 14 13  1  0
 15 16  2  0
 15  9  1  0
 17 15  1  0
 18 17  1  0
 18 24  1  0
 18 19  1  1
 20 19  1  0
 21 20  1  0
 22 21  1  0
 23 22  1  0
 24 26  1  0
 25 24  2  0
M  END
$$$$
