VKK.pdb
     RDKit          3D

 26 25  0  0  1  0  0  0  0  0999 V2000
    8.4367  -19.0917   21.9811 C   0  0  0  0  0  0  0  0  0  0  0  0
    9.1183  -18.6166   20.7270 C   0  0  1  0  0  0  0  0  0  0  0  0
    8.7466  -19.3900   19.5076 C   0  0  0  0  0  0  0  0  0  0  0  0
    8.8379  -17.1488   20.5530 C   0  0  2  0  0  0  0  0  0  0  0  0
    9.5004  -16.5839   19.4150 N   0  0  0  0  0  0  0  0  0  0  0  0
    9.2563  -16.3943   21.7704 C   0  0  0  0  0  0  0  0  0  0  0  0
   10.5029  -16.2544   21.9400 O   0  0  0  0  0  0  0  0  0  0  0  0
    8.2892  -15.8951   22.6355 N   0  0  0  0  0  0  0  0  0  0  0  0
    8.7200  -15.1014   23.8364 C   0  0  1  0  0  0  0  0  0  0  0  0
    7.5794  -14.2812   24.2661 C   0  0  0  0  0  0  0  0  0  0  0  0
    7.5245  -13.4309   25.4242 C   0  0  0  0  0  0  0  0  0  0  0  0
    6.3847  -12.5909   25.8126 C   0  0  0  0  0  0  0  0  0  0  0  0
    6.8831  -11.8691   27.1201 C   0  0  0  0  0  0  0  0  0  0  0  0
    5.8323  -11.0561   27.6440 N   0  0  0  0  0  0  0  0  0  0  0  0
    9.0203  -16.1810   24.8405 C   0  0  0  0  0  0  0  0  0  0  0  0
    8.1971  -17.0756   25.0499 O   0  0  0  0  0  0  0  0  0  0  0  0
   10.2292  -16.2104   25.5652 N   0  0  0  0  0  0  0  0  0  0  0  0
   10.4191  -17.3617   26.5309 C   0  0  1  0  0  0  0  0  0  0  0  0
   11.7893  -17.8622   26.2951 C   0  0  0  0  0  0  0  0  0  0  0  0
   12.0489  -18.8334   25.2453 C   0  0  0  0  0  0  0  0  0  0  0  0
   13.3713  -19.4094   24.9534 C   0  0  0  0  0  0  0  0  0  0  0  0
   13.2466  -20.3628   23.7154 C   0  0  0  0  0  0  0  0  0  0  0  0
   14.5385  -20.9248   23.4685 N   0  0  0  0  0  0  0  0  0  0  0  0
   10.2837  -16.6722   27.8378 C   0  0  0  0  0  0  0  0  0  0  0  0
   10.2852  -15.4435   27.9294 O   0  0  0  0  0  0  0  0  0  0  0  0
   10.1489  -17.4669   28.9980 O   0  0  0  0  0  0  0  0  0  0  0  0
  2  4  1  0
  2  1  1  1
  3  2  1  0
  4  6  1  0
  4  5  1  6
  6  7  2  0
  8  9  1  0
  8  6  1  0
 10 11  1  0
  9 10  1  1
 12 11  1  0
 13 12  1  0
 14 13  1  0
 15 16  2  0
 15  9  1  0
 17 15  1  0
 18 17  1  0
 18 24  1  0
 18 19  1  1
 20 19  1  0
 21 20  1  0
 22 21  1  0
 23 22  1  0
 24 26  1  0
 25 24  2  0
M  END
$$$$
