VKK.pdb
     RDKit          3D

 26 25  0  0  1  0  0  0  0  0999 V2000
    8.1007  -12.0835   25.5107 C   0  0  0  0  0  0  0  0  0  0  0  0
    7.0199  -12.6500   26.3905 C   0  0  1  0  0  0  0  0  0  0  0  0
    6.3046  -11.6253   27.2040 C   0  0  0  0  0  0  0  0  0  0  0  0
    6.0648  -13.4361   25.5343 C   0  0  2  0  0  0  0  0  0  0  0  0
    5.0823  -14.1455   26.2990 N   0  0  0  0  0  0  0  0  0  0  0  0
    6.8112  -14.4159   24.6922 C   0  0  0  0  0  0  0  0  0  0  0  0
    6.9821  -15.5661   25.1923 O   0  0  0  0  0  0  0  0  0  0  0  0
    7.2703  -14.0335   23.4369 N   0  0  0  0  0  0  0  0  0  0  0  0
    7.9173  -15.0593   22.5498 C   0  0  1  0  0  0  0  0  0  0  0  0
    7.9815  -14.5029   21.1916 C   0  0  0  0  0  0  0  0  0  0  0  0
    8.4170  -15.1886   20.0053 C   0  0  0  0  0  0  0  0  0  0  0  0
    7.9793  -16.5251   19.5831 C   0  0  0  0  0  0  0  0  0  0  0  0
    8.7318  -16.7489   18.2184 C   0  0  0  0  0  0  0  0  0  0  0  0
    8.3821  -18.0278   17.6873 N   0  0  0  0  0  0  0  0  0  0  0  0
    9.2909  -15.1799   23.1518 C   0  0  0  0  0  0  0  0  0  0  0  0
    9.7682  -14.2408   23.7938 O   0  0  0  0  0  0  0  0  0  0  0  0
   10.0687  -16.3469   23.0080 N   0  0  0  0  0  0  0  0  0  0  0  0
   11.2352  -16.5122   23.9599 C   0  0  1  0  0  0  0  0  0  0  0  0
   10.6895  -17.2001   25.1484 C   0  0  0  0  0  0  0  0  0  0  0  0
   11.5804  -17.7269   26.1689 C   0  0  0  0  0  0  0  0  0  0  0  0
   11.1310  -18.3755   27.4112 C   0  0  0  0  0  0  0  0  0  0  0  0
   12.3888  -18.7996   28.2449 C   0  0  0  0  0  0  0  0  0  0  0  0
   11.9314  -19.2441   29.5251 N   0  0  0  0  0  0  0  0  0  0  0  0
   12.1390  -17.3812   23.1662 C   0  0  0  0  0  0  0  0  0  0  0  0
   11.7138  -18.1346   22.2888 O   0  0  0  0  0  0  0  0  0  0  0  0
   13.5238  -17.3263   23.4399 O   0  0  0  0  0  0  0  0  0  0  0  0
  2  4  1  0
  2  1  1  6
  3  2  1  0
  4  6  1  0
  4  5  1  1
  6  7  2  0
  8  9  1  0
  8  6  1  0
 10 11  1  0
  9 10  1  6
 12 11  1  0
 13 12  1  0
 14 13  1  0
 15 16  2  0
 15  9  1  0
 17 15  1  0
 18 17  1  0
 18 24  1  0
 18 19  1  1
 20 19  1  0
 21 20  1  0
 22 21  1  0
 23 22  1  0
 24 26  1  0
 25 24  2  0
M  END
$$$$
