VKK.pdb
     RDKit          3D

 26 25  0  0  1  0  0  0  0  0999 V2000
    6.3788  -10.9066   27.0291 C   0  0  0  0  0  0  0  0  0  0  0  0
    7.0705  -12.0223   26.2944 C   0  0  1  0  0  0  0  0  0  0  0  0
    7.8657  -12.9241   27.1763 C   0  0  0  0  0  0  0  0  0  0  0  0
    6.0436  -12.7897   25.5071 C   0  0  2  0  0  0  0  0  0  0  0  0
    5.1931  -13.5950   26.3326 N   0  0  0  0  0  0  0  0  0  0  0  0
    6.7123  -13.6734   24.5078 C   0  0  0  0  0  0  0  0  0  0  0  0
    6.6791  -14.9154   24.7497 O   0  0  0  0  0  0  0  0  0  0  0  0
    7.3218  -13.1106   23.3923 N   0  0  0  0  0  0  0  0  0  0  0  0
    7.7906  -14.0087   22.2825 C   0  0  1  0  0  0  0  0  0  0  0  0
    8.1047  -13.1636   21.1224 C   0  0  0  0  0  0  0  0  0  0  0  0
    8.5695  -13.6116   19.8378 C   0  0  0  0  0  0  0  0  0  0  0  0
    7.8772  -14.5695   18.9665 C   0  0  0  0  0  0  0  0  0  0  0  0
    8.8587  -14.7398   17.7473 C   0  0  0  0  0  0  0  0  0  0  0  0
    8.3130  -15.6854   16.8265 N   0  0  0  0  0  0  0  0  0  0  0  0
    9.0385  -14.6125   22.8672 C   0  0  0  0  0  0  0  0  0  0  0  0
    9.8041  -13.9173   23.5398 O   0  0  0  0  0  0  0  0  0  0  0  0
    9.3734  -15.9680   22.6724 N   0  0  0  0  0  0  0  0  0  0  0  0
   10.6340  -16.4645   23.3495 C   0  0  1  0  0  0  0  0  0  0  0  0
   10.3057  -17.8056   23.8762 C   0  0  0  0  0  0  0  0  0  0  0  0
   10.8490  -18.2510   25.1486 C   0  0  0  0  0  0  0  0  0  0  0  0
   10.5014  -19.5231   25.8019 C   0  0  0  0  0  0  0  0  0  0  0  0
   11.3904  -19.6950   27.0815 C   0  0  0  0  0  0  0  0  0  0  0  0
   10.9952  -20.9099   27.7247 N   0  0  0  0  0  0  0  0  0  0  0  0
   11.5777  -16.5193   22.2058 C   0  0  0  0  0  0  0  0  0  0  0  0
   11.1933  -16.7233   21.0530 O   0  0  0  0  0  0  0  0  0  0  0  0
   12.9525  -16.3279   22.4683 O   0  0  0  0  0  0  0  0  0  0  0  0
  2  4  1  0
  2  1  1  1
  3  2  1  0
  4  6  1  0
  4  5  1  1
  6  7  2  0
  8  9  1  0
  8  6  1  0
 10 11  1  0
  9 10  1  6
 12 11  1  0
 13 12  1  0
 14 13  1  0
 15 16  2  0
 15  9  1  0
 17 15  1  0
 18 17  1  0
 18 24  1  0
 18 19  1  6
 20 19  1  0
 21 20  1  0
 22 21  1  0
 23 22  1  0
 24 26  1  0
 25 24  2  0
M  END
$$$$
