VKK.pdb
     RDKit          3D

 26 25  0  0  1  0  0  0  0  0999 V2000
    7.4944  -12.3327   19.9334 C   0  0  0  0  0  0  0  0  0  0  0  0
    8.2971  -13.5109   20.4134 C   0  0  1  0  0  0  0  0  0  0  0  0
    8.0346  -13.8822   21.8335 C   0  0  0  0  0  0  0  0  0  0  0  0
    8.0504  -14.6709   19.4879 C   0  0  2  0  0  0  0  0  0  0  0  0
    6.6873  -15.1126   19.4958 N   0  0  0  0  0  0  0  0  0  0  0  0
    8.9258  -15.8218   19.8561 C   0  0  0  0  0  0  0  0  0  0  0  0
    8.4136  -16.6912   20.6202 O   0  0  0  0  0  0  0  0  0  0  0  0
   10.2227  -15.8851   19.3591 N   0  0  0  0  0  0  0  0  0  0  0  0
   11.0799  -17.0717   19.6980 C   0  0  1  0  0  0  0  0  0  0  0  0
   12.2029  -17.1004   18.7511 C   0  0  0  0  0  0  0  0  0  0  0  0
   12.2406  -17.7868   17.4884 C   0  0  0  0  0  0  0  0  0  0  0  0
   11.0992  -17.9720   16.5835 C   0  0  0  0  0  0  0  0  0  0  0  0
   11.6970  -18.8202   15.3995 C   0  0  0  0  0  0  0  0  0  0  0  0
   10.6651  -19.1132   14.4566 N   0  0  0  0  0  0  0  0  0  0  0  0
   11.5507  -16.7379   21.0875 C   0  0  0  0  0  0  0  0  0  0  0  0
   11.5009  -15.5739   21.4932 O   0  0  0  0  0  0  0  0  0  0  0  0
   12.0564  -17.7225   21.9606 N   0  0  0  0  0  0  0  0  0  0  0  0
   12.3893  -17.2798   23.3703 C   0  0  1  0  0  0  0  0  0  0  0  0
   11.4082  -17.9544   24.2456 C   0  0  0  0  0  0  0  0  0  0  0  0
   11.6095  -17.9948   25.6845 C   0  0  0  0  0  0  0  0  0  0  0  0
   12.4899  -18.9509   26.3747 C   0  0  0  0  0  0  0  0  0  0  0  0
   12.3538  -18.7392   27.9219 C   0  0  0  0  0  0  0  0  0  0  0  0
   13.3553  -19.5372   28.5591 N   0  0  0  0  0  0  0  0  0  0  0  0
   13.7608  -17.8229   23.5308 C   0  0  0  0  0  0  0  0  0  0  0  0
   14.1395  -18.8262   22.9239 O   0  0  0  0  0  0  0  0  0  0  0  0
   14.6423  -17.1540   24.4089 O   0  0  0  0  0  0  0  0  0  0  0  0
  2  4  1  0
  2  1  1  6
  3  2  1  0
  4  6  1  0
  4  5  1  1
  6  7  2  0
  8  9  1  0
  8  6  1  0
 10 11  1  0
  9 10  1  6
 12 11  1  0
 13 12  1  0
 14 13  1  0
 15 16  2  0
 15  9  1  0
 17 15  1  0
 18 17  1  0
 18 24  1  0
 18 19  1  1
 20 19  1  0
 21 20  1  0
 22 21  1  0
 23 22  1  0
 24 26  1  0
 25 24  2  0
M  END
$$$$
