VKK.pdb
     RDKit          3D

 26 25  0  0  1  0  0  0  0  0999 V2000
    9.5915  -19.6578   18.4522 C   0  0  0  0  0  0  0  0  0  0  0  0
    9.6817  -18.3057   17.7989 C   0  0  1  0  0  0  0  0  0  0  0  0
   10.4538  -18.3018   16.5233 C   0  0  0  0  0  0  0  0  0  0  0  0
    8.2888  -17.7735   17.5993 C   0  0  2  0  0  0  0  0  0  0  0  0
    8.2672  -16.4807   16.9817 N   0  0  0  0  0  0  0  0  0  0  0  0
    7.5752  -17.6883   18.9070 C   0  0  0  0  0  0  0  0  0  0  0  0
    8.0309  -16.8497   19.7385 O   0  0  0  0  0  0  0  0  0  0  0  0
    6.4775  -18.5074   19.1453 N   0  0  0  0  0  0  0  0  0  0  0  0
    5.7305  -18.3723   20.4420 C   0  0  1  0  0  0  0  0  0  0  0  0
    4.4038  -18.9773   20.2618 C   0  0  0  0  0  0  0  0  0  0  0  0
    3.4357  -19.2401   21.2918 C   0  0  0  0  0  0  0  0  0  0  0  0
    2.1401  -19.9026   21.0960 C   0  0  0  0  0  0  0  0  0  0  0  0
    1.5783  -20.0603   22.5582 C   0  0  0  0  0  0  0  0  0  0  0  0
    0.2113  -19.6477   22.5891 N   0  0  0  0  0  0  0  0  0  0  0  0
    6.5751  -19.1881   21.3826 C   0  0  0  0  0  0  0  0  0  0  0  0
    7.0536  -20.2621   21.0089 O   0  0  0  0  0  0  0  0  0  0  0  0
    6.8463  -18.7648   22.6996 N   0  0  0  0  0  0  0  0  0  0  0  0
    7.6099  -19.7290   23.5837 C   0  0  1  0  0  0  0  0  0  0  0  0
    8.9423  -19.1221   23.7833 C   0  0  0  0  0  0  0  0  0  0  0  0
    9.9195  -19.7582   24.6510 C   0  0  0  0  0  0  0  0  0  0  0  0
   11.3059  -19.2953   24.8225 C   0  0  0  0  0  0  0  0  0  0  0  0
   12.0366  -20.2466   25.8315 C   0  0  0  0  0  0  0  0  0  0  0  0
   13.3938  -19.8078   25.9368 N   0  0  0  0  0  0  0  0  0  0  0  0
    6.7862  -19.7085   24.8178 C   0  0  0  0  0  0  0  0  0  0  0  0
    5.9458  -18.8319   25.0258 O   0  0  0  0  0  0  0  0  0  0  0  0
    6.9867  -20.7344   25.7681 O   0  0  0  0  0  0  0  0  0  0  0  0
  2  4  1  0
  2  1  1  6
  3  2  1  0
  4  6  1  0
  4  5  1  1
  6  7  2  0
  8  9  1  0
  8  6  1  0
 10 11  1  0
  9 10  1  6
 12 11  1  0
 13 12  1  0
 14 13  1  0
 15 16  2  0
 15  9  1  0
 17 15  1  0
 18 17  1  0
 18 24  1  0
 18 19  1  1
 20 19  1  0
 21 20  1  0
 22 21  1  0
 23 22  1  0
 24 26  1  0
 25 24  2  0
M  END
$$$$
