DYK.pdb
     RDKit          3D

 30 30  0  0  1  0  0  0  0  0999 V2000
   27.4077  -22.8255  -17.5613 N   0  0  0  0  0  0  0  0  0  0  0  0
   27.4585  -21.5529  -16.8743 C   0  0  1  0  0  0  0  0  0  0  0  0
   26.8502  -20.5207  -17.7788 C   0  0  0  0  0  0  0  0  0  0  0  0
   27.8733  -20.0610  -18.7291 C   0  0  0  0  0  0  0  0  0  0  0  0
   27.5484  -19.4564  -19.7657 O   0  0  0  0  0  0  0  0  0  0  0  0
   26.7800  -21.6754  -15.5842 C   0  0  0  0  0  0  0  0  0  0  0  0
   25.7705  -22.4522  -15.4577 O   0  0  0  0  0  0  0  0  0  0  0  0
   29.2033  -20.3032  -18.4673 O   0  0  0  0  0  0  0  0  0  0  0  0
   24.6901  -20.3102   -7.0150 O   0  0  0  0  0  0  0  0  0  0  0  0
   25.3360  -20.3971   -8.2285 C   0  0  0  0  0  0  0  0  0  0  0  0
   25.1761  -19.4002   -9.1457 C   0  0  0  0  0  0  0  0  0  0  0  0
   25.8205  -19.4659  -10.3825 C   0  0  0  0  0  0  0  0  0  0  0  0
   26.6291  -20.5234  -10.7180 C   0  0  0  0  0  0  0  0  0  0  0  0
   27.3034  -20.5983  -12.0249 C   0  0  0  0  0  0  0  0  0  0  0  0
   26.4682  -21.0853  -13.1571 C   0  0  2  0  0  0  0  0  0  0  0  0
   27.1661  -20.9801  -14.4321 N   0  0  0  0  0  0  0  0  0  0  0  0
   25.2133  -20.2585  -13.2451 C   0  0  0  0  0  0  0  0  0  0  0  0
   25.2040  -19.2050  -13.9342 O   0  0  0  0  0  0  0  0  0  0  0  0
   26.7718  -21.5254   -9.7588 C   0  0  0  0  0  0  0  0  0  0  0  0
   26.1443  -21.4755   -8.5364 C   0  0  0  0  0  0  0  0  0  0  0  0
   24.0353  -20.6371  -12.5684 N   0  0  0  0  0  0  0  0  0  0  0  0
   22.6773  -20.2854  -12.8702 C   0  0  1  0  0  0  0  0  0  0  0  0
   22.2771  -20.6685  -14.2854 C   0  0  0  0  0  0  0  0  0  0  0  0
   20.8979  -20.1544  -14.5415 C   0  0  0  0  0  0  0  0  0  0  0  0
   20.4452  -20.5507  -15.9219 C   0  0  0  0  0  0  0  0  0  0  0  0
   19.0923  -19.9867  -16.2028 C   0  0  0  0  0  0  0  0  0  0  0  0
   18.6336  -20.4088  -17.5244 N   0  0  0  0  0  0  0  0  0  0  0  0
   21.7127  -20.7161  -11.8547 C   0  0  0  0  0  0  0  0  0  0  0  0
   22.0112  -21.7029  -11.1358 O   0  0  0  0  0  0  0  0  0  0  0  0
   20.4876  -20.1063  -11.6319 O   0  0  0  0  0  0  0  0  0  0  0  0
  2  1  1  6
  3  2  1  0
  4  3  1  0
  5  4  2  0
  6  2  1  0
  6  7  2  0
  8  4  1  0
  9 10  1  0
 10 11  2  0
 11 12  1  0
 13 12  2  0
 13 14  1  0
 15 14  1  1
 15 16  1  0
 16  6  1  0
 17 15  1  0
 17 18  2  0
 19 13  1  0
 20 10  1  0
 20 19  2  0
 21 17  1  0
 22 21  1  0
 22 28  1  0
 22 23  1  6
 24 23  1  0
 25 24  1  0
 26 25  1  0
 27 26  1  0
 28 29  2  0
 28 30  1  0
M  END
$$$$
