DYK.pdb
     RDKit          3D

 30 30  0  0  1  0  0  0  0  0999 V2000
   27.3616  -23.9216  -17.6570 N   0  0  0  0  0  0  0  0  0  0  0  0
   27.0194  -22.5752  -17.2519 C   0  0  1  0  0  0  0  0  0  0  0  0
   26.3127  -21.9178  -18.4017 C   0  0  0  0  0  0  0  0  0  0  0  0
   27.2989  -21.5989  -19.4444 C   0  0  0  0  0  0  0  0  0  0  0  0
   28.3537  -21.0065  -19.1580 O   0  0  0  0  0  0  0  0  0  0  0  0
   26.2218  -22.6296  -16.0270 C   0  0  0  0  0  0  0  0  0  0  0  0
   25.5344  -23.6735  -15.7508 O   0  0  0  0  0  0  0  0  0  0  0  0
   27.0504  -21.9602  -20.7496 O   0  0  0  0  0  0  0  0  0  0  0  0
   22.6284  -20.3336   -8.1941 O   0  0  0  0  0  0  0  0  0  0  0  0
   23.4309  -20.4487   -9.3078 C   0  0  0  0  0  0  0  0  0  0  0  0
   23.0310  -19.8839  -10.4833 C   0  0  0  0  0  0  0  0  0  0  0  0
   23.8273  -19.9872  -11.6254 C   0  0  0  0  0  0  0  0  0  0  0  0
   25.0277  -20.6530  -11.6086 C   0  0  0  0  0  0  0  0  0  0  0  0
   25.8653  -20.7696  -12.8141 C   0  0  0  0  0  0  0  0  0  0  0  0
   25.3198  -21.6292  -13.9004 C   0  0  2  0  0  0  0  0  0  0  0  0
   26.1503  -21.5854  -15.0972 N   0  0  0  0  0  0  0  0  0  0  0  0
   23.9423  -21.1503  -14.2736 C   0  0  0  0  0  0  0  0  0  0  0  0
   23.7889  -19.9981  -14.7568 O   0  0  0  0  0  0  0  0  0  0  0  0
   25.4077  -21.2187  -10.3921 C   0  0  0  0  0  0  0  0  0  0  0  0
   24.6351  -21.1257   -9.2585 C   0  0  0  0  0  0  0  0  0  0  0  0
   22.8070  -21.9673  -14.0938 N   0  0  0  0  0  0  0  0  0  0  0  0
   21.4287  -21.6505  -14.3367 C   0  0  1  0  0  0  0  0  0  0  0  0
   20.7086  -22.7404  -15.1134 C   0  0  0  0  0  0  0  0  0  0  0  0
   21.4530  -22.9836  -16.3857 C   0  0  0  0  0  0  0  0  0  0  0  0
   20.7623  -24.0498  -17.1943 C   0  0  0  0  0  0  0  0  0  0  0  0
   21.4554  -24.2348  -18.5031 C   0  0  0  0  0  0  0  0  0  0  0  0
   20.7295  -25.1984  -19.3274 N   0  0  0  0  0  0  0  0  0  0  0  0
   20.7020  -21.2076  -13.1437 C   0  0  0  0  0  0  0  0  0  0  0  0
   20.5986  -22.0100  -12.1819 O   0  0  0  0  0  0  0  0  0  0  0  0
   20.1183  -19.9579  -13.0032 O   0  0  0  0  0  0  0  0  0  0  0  0
  2  1  1  6
  3  2  1  0
  4  3  1  0
  5  4  2  0
  6  2  1  0
  6  7  2  0
  8  4  1  0
  9 10  1  0
 10 11  2  0
 11 12  1  0
 13 12  2  0
 13 14  1  0
 15 14  1  1
 15 16  1  0
 16  6  1  0
 17 15  1  0
 17 18  2  0
 19 13  1  0
 20 10  1  0
 20 19  2  0
 21 17  1  0
 22 21  1  0
 22 28  1  0
 22 23  1  1
 24 23  1  0
 25 24  1  0
 26 25  1  0
 27 26  1  0
 28 29  2  0
 28 30  1  0
M  END
$$$$
