DYK.pdb
     RDKit          3D

 30 30  0  0  1  0  0  0  0  0999 V2000
   29.0471  -23.1516  -18.1654 N   0  0  0  0  0  0  0  0  0  0  0  0
   28.8047  -21.8213  -17.6500 C   0  0  1  0  0  0  0  0  0  0  0  0
   28.2278  -20.9976  -18.7646 C   0  0  0  0  0  0  0  0  0  0  0  0
   29.3067  -20.6388  -19.6965 C   0  0  0  0  0  0  0  0  0  0  0  0
   30.3814  -20.1787  -19.2735 O   0  0  0  0  0  0  0  0  0  0  0  0
   27.9360  -21.9111  -16.4766 C   0  0  0  0  0  0  0  0  0  0  0  0
   27.0747  -22.8534  -16.3824 O   0  0  0  0  0  0  0  0  0  0  0  0
   29.1237  -20.8146  -21.0498 O   0  0  0  0  0  0  0  0  0  0  0  0
   24.4019  -20.4050   -8.4390 O   0  0  0  0  0  0  0  0  0  0  0  0
   25.1950  -20.3989   -9.5651 C   0  0  0  0  0  0  0  0  0  0  0  0
   25.0447  -19.4033  -10.4853 C   0  0  0  0  0  0  0  0  0  0  0  0
   25.8370  -19.3758  -11.6346 C   0  0  0  0  0  0  0  0  0  0  0  0
   26.7851  -20.3381  -11.8789 C   0  0  0  0  0  0  0  0  0  0  0  0
   27.6163  -20.3151  -13.0941 C   0  0  0  0  0  0  0  0  0  0  0  0
   27.0913  -21.0900  -14.2520 C   0  0  2  0  0  0  0  0  0  0  0  0
   27.9767  -21.0090  -15.4067 N   0  0  0  0  0  0  0  0  0  0  0  0
   25.7498  -20.5391  -14.6559 C   0  0  0  0  0  0  0  0  0  0  0  0
   25.6794  -19.4251  -15.2379 O   0  0  0  0  0  0  0  0  0  0  0  0
   26.9138  -21.3415  -10.9192 C   0  0  0  0  0  0  0  0  0  0  0  0
   26.1416  -21.3827   -9.7823 C   0  0  0  0  0  0  0  0  0  0  0  0
   24.5573  -21.2458  -14.3965 N   0  0  0  0  0  0  0  0  0  0  0  0
   23.2038  -20.8392  -14.6450 C   0  0  1  0  0  0  0  0  0  0  0  0
   22.3596  -21.9558  -15.2370 C   0  0  0  0  0  0  0  0  0  0  0  0
   21.0501  -21.3799  -15.6675 C   0  0  0  0  0  0  0  0  0  0  0  0
   20.2013  -22.4455  -16.3091 C   0  0  0  0  0  0  0  0  0  0  0  0
   18.9120  -21.8620  -16.7832 C   0  0  0  0  0  0  0  0  0  0  0  0
   18.0045  -22.9238  -17.2123 N   0  0  0  0  0  0  0  0  0  0  0  0
   22.5677  -20.1669  -13.5090 C   0  0  0  0  0  0  0  0  0  0  0  0
   22.5695  -20.7535  -12.3974 O   0  0  0  0  0  0  0  0  0  0  0  0
   21.9612  -18.9220  -13.5772 O   0  0  0  0  0  0  0  0  0  0  0  0
  2  1  1  6
  3  2  1  0
  4  3  1  0
  5  4  2  0
  6  2  1  0
  6  7  2  0
  8  4  1  0
  9 10  1  0
 10 11  2  0
 11 12  1  0
 13 12  2  0
 13 14  1  0
 15 14  1  1
 15 16  1  0
 16  6  1  0
 17 15  1  0
 17 18  2  0
 19 13  1  0
 20 10  1  0
 20 19  2  0
 21 17  1  0
 22 21  1  0
 22 28  1  0
 22 23  1  1
 24 23  1  0
 25 24  1  0
 26 25  1  0
 27 26  1  0
 28 29  2  0
 28 30  1  0
M  END
$$$$
