DYK.pdb
     RDKit          3D

 30 30  0  0  1  0  0  0  0  0999 V2000
   21.6589  -11.9718  -18.2670 N   0  0  0  0  0  0  0  0  0  0  0  0
   21.5162  -11.9400  -16.8273 C   0  0  1  0  0  0  0  0  0  0  0  0
   22.1901  -13.1622  -16.2743 C   0  0  0  0  0  0  0  0  0  0  0  0
   21.4358  -14.3514  -16.6963 C   0  0  0  0  0  0  0  0  0  0  0  0
   20.3189  -14.2360  -17.2301 O   0  0  0  0  0  0  0  0  0  0  0  0
   22.0673  -10.6848  -16.3170 C   0  0  0  0  0  0  0  0  0  0  0  0
   22.0703  -10.4459  -15.0594 O   0  0  0  0  0  0  0  0  0  0  0  0
   21.9726  -15.6038  -16.4978 O   0  0  0  0  0  0  0  0  0  0  0  0
   28.2288  -12.1105  -15.5345 O   0  0  0  0  0  0  0  0  0  0  0  0
   27.3210  -11.1466  -15.9140 C   0  0  0  0  0  0  0  0  0  0  0  0
   26.8217  -10.2902  -14.9769 C   0  0  0  0  0  0  0  0  0  0  0  0
   25.9005   -9.3050  -15.3375 C   0  0  0  0  0  0  0  0  0  0  0  0
   25.4677   -9.1631  -16.6325 C   0  0  0  0  0  0  0  0  0  0  0  0
   24.4902   -8.1296  -17.0132 C   0  0  0  0  0  0  0  0  0  0  0  0
   23.0783   -8.4004  -16.6262 C   0  0  2  0  0  0  0  0  0  0  0  0
   22.6130   -9.6856  -17.1317 N   0  0  0  0  0  0  0  0  0  0  0  0
   22.1888   -7.3278  -17.1960 C   0  0  0  0  0  0  0  0  0  0  0  0
   21.9187   -7.3254  -18.4255 O   0  0  0  0  0  0  0  0  0  0  0  0
   25.9969  -10.0536  -17.5658 C   0  0  0  0  0  0  0  0  0  0  0  0
   26.9049  -11.0290  -17.2270 C   0  0  0  0  0  0  0  0  0  0  0  0
   21.6444   -6.3148  -16.3797 N   0  0  0  0  0  0  0  0  0  0  0  0
   20.5448   -5.4358  -16.6575 C   0  0  1  0  0  0  0  0  0  0  0  0
   19.3169   -6.1789  -17.1573 C   0  0  0  0  0  0  0  0  0  0  0  0
   18.2313   -5.1831  -17.4060 C   0  0  0  0  0  0  0  0  0  0  0  0
   16.9974   -5.8787  -17.9172 C   0  0  0  0  0  0  0  0  0  0  0  0
   15.9296   -4.8803  -18.2178 C   0  0  0  0  0  0  0  0  0  0  0  0
   14.7518   -5.5496  -18.7654 N   0  0  0  0  0  0  0  0  0  0  0  0
   20.2539   -4.4891  -15.5774 C   0  0  0  0  0  0  0  0  0  0  0  0
   20.2576   -4.9193  -14.3965 O   0  0  0  0  0  0  0  0  0  0  0  0
   19.9737   -3.1451  -15.7705 O   0  0  0  0  0  0  0  0  0  0  0  0
  2  1  1  6
  3  2  1  0
  4  3  1  0
  5  4  2  0
  6  2  1  0
  6  7  2  0
  8  4  1  0
  9 10  1  0
 10 11  2  0
 11 12  1  0
 13 12  2  0
 13 14  1  0
 15 14  1  6
 15 16  1  0
 16  6  1  0
 17 15  1  0
 17 18  2  0
 19 13  1  0
 20 10  1  0
 20 19  2  0
 21 17  1  0
 22 21  1  0
 22 28  1  0
 22 23  1  1
 24 23  1  0
 25 24  1  0
 26 25  1  0
 27 26  1  0
 28 29  2  0
 28 30  1  0
M  END
$$$$
