DYK.pdb
     RDKit          3D

 30 30  0  0  1  0  0  0  0  0999 V2000
   27.7958  -22.9620  -17.4579 N   0  0  0  0  0  0  0  0  0  0  0  0
   27.6652  -21.6538  -16.8531 C   0  0  1  0  0  0  0  0  0  0  0  0
   27.0438  -20.7405  -17.8696 C   0  0  0  0  0  0  0  0  0  0  0  0
   28.1048  -20.1969  -18.7299 C   0  0  0  0  0  0  0  0  0  0  0  0
   29.1663  -19.7774  -18.2373 O   0  0  0  0  0  0  0  0  0  0  0  0
   26.8905  -21.7702  -15.6178 C   0  0  0  0  0  0  0  0  0  0  0  0
   25.7713  -22.3915  -15.6146 O   0  0  0  0  0  0  0  0  0  0  0  0
   27.9194  -20.1527  -20.0936 O   0  0  0  0  0  0  0  0  0  0  0  0
   24.2565  -20.5057   -7.1796 O   0  0  0  0  0  0  0  0  0  0  0  0
   24.9556  -20.5599   -8.3652 C   0  0  0  0  0  0  0  0  0  0  0  0
   26.3051  -20.3613   -8.3572 C   0  0  0  0  0  0  0  0  0  0  0  0
   27.0352  -20.4115   -9.5462 C   0  0  0  0  0  0  0  0  0  0  0  0
   26.4298  -20.6591  -10.7531 C   0  0  0  0  0  0  0  0  0  0  0  0
   27.1970  -20.7047  -12.0092 C   0  0  0  0  0  0  0  0  0  0  0  0
   26.4901  -21.2966  -13.1782 C   0  0  2  0  0  0  0  0  0  0  0  0
   27.2962  -21.2324  -14.3906 N   0  0  0  0  0  0  0  0  0  0  0  0
   25.2142  -20.5378  -13.4282 C   0  0  0  0  0  0  0  0  0  0  0  0
   25.2616  -19.3246  -13.7609 O   0  0  0  0  0  0  0  0  0  0  0  0
   25.0499  -20.8578  -10.7272 C   0  0  0  0  0  0  0  0  0  0  0  0
   24.3166  -20.8118   -9.5649 C   0  0  0  0  0  0  0  0  0  0  0  0
   23.9539  -21.1570  -13.2980 N   0  0  0  0  0  0  0  0  0  0  0  0
   22.6522  -20.5895  -13.5043 C   0  0  1  0  0  0  0  0  0  0  0  0
   22.1096  -20.8675  -14.8964 C   0  0  0  0  0  0  0  0  0  0  0  0
   20.7918  -20.1775  -15.0359 C   0  0  0  0  0  0  0  0  0  0  0  0
   20.2516  -20.3689  -16.4285 C   0  0  0  0  0  0  0  0  0  0  0  0
   18.9863  -19.5965  -16.6015 C   0  0  0  0  0  0  0  0  0  0  0  0
   19.2848  -18.2108  -16.9561 N   0  0  0  0  0  0  0  0  0  0  0  0
   21.6967  -20.8911  -12.4351 C   0  0  0  0  0  0  0  0  0  0  0  0
   20.6233  -20.2381  -12.3991 O   0  0  0  0  0  0  0  0  0  0  0  0
   21.8969  -21.8521  -11.4561 O   0  0  0  0  0  0  0  0  0  0  0  0
  2  1  1  6
  3  2  1  0
  4  3  1  0
  5  4  2  0
  6  2  1  0
  6  7  2  0
  8  4  1  0
  9 10  1  0
 10 11  2  0
 11 12  1  0
 13 12  2  0
 13 14  1  0
 15 14  1  1
 15 16  1  0
 16  6  1  0
 17 15  1  0
 17 18  2  0
 19 13  1  0
 20 10  1  0
 20 19  2  0
 21 17  1  0
 22 21  1  0
 22 28  1  0
 22 23  1  6
 24 23  1  0
 25 24  1  0
 26 25  1  0
 27 26  1  0
 28 29  2  0
 28 30  1  0
M  END
$$$$
