DYK.pdb
     RDKit          3D

 30 30  0  0  1  0  0  0  0  0999 V2000
   28.0478  -22.4165  -16.9126 N   0  0  0  0  0  0  0  0  0  0  0  0
   27.0195  -21.4002  -16.8510 C   0  0  1  0  0  0  0  0  0  0  0  0
   26.2985  -21.3993  -18.1676 C   0  0  0  0  0  0  0  0  0  0  0  0
   27.1242  -20.6956  -19.1598 C   0  0  0  0  0  0  0  0  0  0  0  0
   28.2234  -20.2112  -18.8393 O   0  0  0  0  0  0  0  0  0  0  0  0
   26.1490  -21.6656  -15.7057 C   0  0  0  0  0  0  0  0  0  0  0  0
   26.0073  -22.8595  -15.2665 O   0  0  0  0  0  0  0  0  0  0  0  0
   26.6745  -20.5727  -20.4555 O   0  0  0  0  0  0  0  0  0  0  0  0
   29.9934  -21.4418  -10.2548 O   0  0  0  0  0  0  0  0  0  0  0  0
   28.8071  -21.0919  -10.8611 C   0  0  0  0  0  0  0  0  0  0  0  0
   27.6292  -21.5333  -10.3337 C   0  0  0  0  0  0  0  0  0  0  0  0
   26.4141  -21.1918  -10.9304 C   0  0  0  0  0  0  0  0  0  0  0  0
   26.3598  -20.4088  -12.0568 C   0  0  0  0  0  0  0  0  0  0  0  0
   25.0797  -20.0540  -12.6921 C   0  0  0  0  0  0  0  0  0  0  0  0
   24.6535  -20.9267  -13.8206 C   0  0  2  0  0  0  0  0  0  0  0  0
   25.4309  -20.6738  -15.0270 N   0  0  0  0  0  0  0  0  0  0  0  0
   23.2056  -20.6634  -14.1377 C   0  0  0  0  0  0  0  0  0  0  0  0
   22.8713  -19.5817  -14.6881 O   0  0  0  0  0  0  0  0  0  0  0  0
   27.5809  -19.9740  -12.5708 C   0  0  0  0  0  0  0  0  0  0  0  0
   28.7858  -20.3013  -11.9950 C   0  0  0  0  0  0  0  0  0  0  0  0
   22.2032  -21.6067  -13.8307 N   0  0  0  0  0  0  0  0  0  0  0  0
   20.7903  -21.5200  -14.0659 C   0  0  1  0  0  0  0  0  0  0  0  0
   20.0870  -22.8553  -13.8867 C   0  0  0  0  0  0  0  0  0  0  0  0
   19.1435  -22.7408  -12.7341 C   0  0  0  0  0  0  0  0  0  0  0  0
   18.5113  -24.0772  -12.4473 C   0  0  0  0  0  0  0  0  0  0  0  0
   17.5037  -23.9471  -11.3540 C   0  0  0  0  0  0  0  0  0  0  0  0
   16.9474  -25.2567  -11.0214 N   0  0  0  0  0  0  0  0  0  0  0  0
   20.1368  -20.4169  -13.3564 C   0  0  0  0  0  0  0  0  0  0  0  0
   20.5933  -20.0823  -12.2341 O   0  0  0  0  0  0  0  0  0  0  0  0
   19.0444  -19.7141  -13.8409 O   0  0  0  0  0  0  0  0  0  0  0  0
  2  1  1  6
  3  2  1  0
  4  3  1  0
  5  4  2  0
  6  2  1  0
  6  7  2  0
  8  4  1  0
  9 10  1  0
 10 11  2  0
 11 12  1  0
 13 12  2  0
 13 14  1  0
 15 14  1  1
 15 16  1  0
 16  6  1  0
 17 15  1  0
 17 18  2  0
 19 13  1  0
 20 10  1  0
 20 19  2  0
 21 17  1  0
 22 21  1  0
 22 28  1  0
 22 23  1  1
 24 23  1  0
 25 24  1  0
 26 25  1  0
 27 26  1  0
 28 29  2  0
 28 30  1  0
M  END
$$$$
