DYK.pdb
     RDKit          3D

 30 30  0  0  1  0  0  0  0  0999 V2000
   25.5163  -12.2066  -20.8854 N   0  0  0  0  0  0  0  0  0  0  0  0
   25.5146  -10.8156  -20.4863 C   0  0  1  0  0  0  0  0  0  0  0  0
   24.7346  -10.0467  -21.5129 C   0  0  0  0  0  0  0  0  0  0  0  0
   25.5046  -10.0113  -22.7647 C   0  0  0  0  0  0  0  0  0  0  0  0
   24.9339   -9.8286  -23.8540 O   0  0  0  0  0  0  0  0  0  0  0  0
   24.9717  -10.7043  -19.1326 C   0  0  0  0  0  0  0  0  0  0  0  0
   23.9265  -11.3646  -18.8007 O   0  0  0  0  0  0  0  0  0  0  0  0
   26.8704  -10.1823  -22.7287 O   0  0  0  0  0  0  0  0  0  0  0  0
   28.3149  -15.2581  -15.6945 O   0  0  0  0  0  0  0  0  0  0  0  0
   27.7878  -13.9858  -15.7217 C   0  0  0  0  0  0  0  0  0  0  0  0
   26.6635  -13.7105  -15.0001 C   0  0  0  0  0  0  0  0  0  0  0  0
   26.1107  -12.4285  -15.0119 C   0  0  0  0  0  0  0  0  0  0  0  0
   26.6708  -11.4094  -15.7414 C   0  0  0  0  0  0  0  0  0  0  0  0
   26.0849  -10.0587  -15.7613 C   0  0  0  0  0  0  0  0  0  0  0  0
   25.0151   -9.8321  -16.7717 C   0  0  2  0  0  0  0  0  0  0  0  0
   25.5304   -9.8986  -18.1333 N   0  0  0  0  0  0  0  0  0  0  0  0
   24.4157   -8.4663  -16.5683 C   0  0  0  0  0  0  0  0  0  0  0  0
   25.0694   -7.4405  -16.8926 O   0  0  0  0  0  0  0  0  0  0  0  0
   27.8190  -11.7232  -16.4678 C   0  0  0  0  0  0  0  0  0  0  0  0
   28.3758  -12.9804  -16.4665 C   0  0  0  0  0  0  0  0  0  0  0  0
   23.1274   -8.3041  -16.0180 N   0  0  0  0  0  0  0  0  0  0  0  0
   22.3847   -7.0924  -15.8200 C   0  0  1  0  0  0  0  0  0  0  0  0
   21.6747   -6.6316  -17.0822 C   0  0  0  0  0  0  0  0  0  0  0  0
   20.9782   -5.3430  -16.7882 C   0  0  0  0  0  0  0  0  0  0  0  0
   20.1724   -4.9053  -17.9828 C   0  0  0  0  0  0  0  0  0  0  0  0
   19.4555   -3.6312  -17.6826 C   0  0  0  0  0  0  0  0  0  0  0  0
   18.3996   -3.8650  -16.7000 N   0  0  0  0  0  0  0  0  0  0  0  0
   21.5185   -7.1133  -14.6382 C   0  0  0  0  0  0  0  0  0  0  0  0
   21.0587   -6.0201  -14.2221 O   0  0  0  0  0  0  0  0  0  0  0  0
   21.1700   -8.2622  -13.9448 O   0  0  0  0  0  0  0  0  0  0  0  0
  2  1  1  6
  3  2  1  0
  4  3  1  0
  5  4  2  0
  6  2  1  0
  6  7  2  0
  8  4  1  0
  9 10  1  0
 10 11  2  0
 11 12  1  0
 13 12  2  0
 13 14  1  0
 15 14  1  1
 15 16  1  0
 16  6  1  0
 17 15  1  0
 17 18  2  0
 19 13  1  0
 20 10  1  0
 20 19  2  0
 21 17  1  0
 22 21  1  0
 22 28  1  0
 22 23  1  6
 24 23  1  0
 25 24  1  0
 26 25  1  0
 27 26  1  0
 28 29  2  0
 28 30  1  0
M  END
$$$$
