DYK.pdb
     RDKit          3D

 30 30  0  0  1  0  0  0  0  0999 V2000
   23.9370  -12.8431  -19.0005 N   0  0  0  0  0  0  0  0  0  0  0  0
   22.5083  -12.9758  -18.8125 C   0  0  1  0  0  0  0  0  0  0  0  0
   22.2347  -14.3833  -18.3678 C   0  0  0  0  0  0  0  0  0  0  0  0
   22.6941  -15.3087  -19.4137 C   0  0  0  0  0  0  0  0  0  0  0  0
   22.5187  -15.0431  -20.6154 O   0  0  0  0  0  0  0  0  0  0  0  0
   22.0519  -11.9613  -17.8627 C   0  0  0  0  0  0  0  0  0  0  0  0
   20.8189  -11.9037  -17.5236 O   0  0  0  0  0  0  0  0  0  0  0  0
   23.3243  -16.4800  -19.0572 O   0  0  0  0  0  0  0  0  0  0  0  0
   22.1677   -4.6270  -12.7568 O   0  0  0  0  0  0  0  0  0  0  0  0
   22.4997   -5.7575  -13.4704 C   0  0  0  0  0  0  0  0  0  0  0  0
   22.1771   -6.9847  -12.9701 C   0  0  0  0  0  0  0  0  0  0  0  0
   22.5031   -8.1448  -13.6752 C   0  0  0  0  0  0  0  0  0  0  0  0
   23.1530   -8.0946  -14.8834 C   0  0  0  0  0  0  0  0  0  0  0  0
   23.5046   -9.3174  -15.6247 C   0  0  0  0  0  0  0  0  0  0  0  0
   22.4136   -9.9141  -16.4433 C   0  0  2  0  0  0  0  0  0  0  0  0
   22.8945  -11.0113  -17.2733 N   0  0  0  0  0  0  0  0  0  0  0  0
   21.8375   -8.8619  -17.3529 C   0  0  0  0  0  0  0  0  0  0  0  0
   22.4828   -8.4892  -18.3675 O   0  0  0  0  0  0  0  0  0  0  0  0
   23.4685   -6.8255  -15.3671 C   0  0  0  0  0  0  0  0  0  0  0  0
   23.1543   -5.6736  -14.6852 C   0  0  0  0  0  0  0  0  0  0  0  0
   20.5807   -8.2765  -17.0952 N   0  0  0  0  0  0  0  0  0  0  0  0
   19.9208   -7.2221  -17.8107 C   0  0  1  0  0  0  0  0  0  0  0  0
   18.5072   -7.5955  -18.2254 C   0  0  0  0  0  0  0  0  0  0  0  0
   17.9867   -6.5331  -19.1377 C   0  0  0  0  0  0  0  0  0  0  0  0
   16.6169   -6.9066  -19.6396 C   0  0  0  0  0  0  0  0  0  0  0  0
   16.1445   -5.9068  -20.6419 C   0  0  0  0  0  0  0  0  0  0  0  0
   14.8590   -6.3200  -21.2003 N   0  0  0  0  0  0  0  0  0  0  0  0
   20.0101   -5.9140  -17.1563 C   0  0  0  0  0  0  0  0  0  0  0  0
   19.5222   -5.7941  -16.0043 O   0  0  0  0  0  0  0  0  0  0  0  0
   20.5990   -4.7946  -17.7241 O   0  0  0  0  0  0  0  0  0  0  0  0
  2  1  1  1
  3  2  1  0
  4  3  1  0
  5  4  2  0
  6  2  1  0
  6  7  2  0
  8  4  1  0
  9 10  1  0
 10 11  2  0
 11 12  1  0
 13 12  2  0
 13 14  1  0
 15 14  1  6
 15 16  1  0
 16  6  1  0
 17 15  1  0
 17 18  2  0
 19 13  1  0
 20 10  1  0
 20 19  2  0
 21 17  1  0
 22 21  1  0
 22 28  1  0
 22 23  1  1
 24 23  1  0
 25 24  1  0
 26 25  1  0
 27 26  1  0
 28 29  2  0
 28 30  1  0
M  END
$$$$
