DYK.pdb
     RDKit          3D

 30 30  0  0  1  0  0  0  0  0999 V2000
   28.9855  -21.2307  -17.3207 N   0  0  0  0  0  0  0  0  0  0  0  0
   27.9390  -22.2234  -17.4362 C   0  0  1  0  0  0  0  0  0  0  0  0
   28.5840  -23.5255  -17.8132 C   0  0  0  0  0  0  0  0  0  0  0  0
   29.3825  -23.3239  -19.0310 C   0  0  0  0  0  0  0  0  0  0  0  0
   29.0212  -22.5085  -19.8971 O   0  0  0  0  0  0  0  0  0  0  0  0
   27.1904  -22.2814  -16.1809 C   0  0  0  0  0  0  0  0  0  0  0  0
   26.3317  -23.2102  -15.9844 O   0  0  0  0  0  0  0  0  0  0  0  0
   30.5410  -24.0457  -19.2124 O   0  0  0  0  0  0  0  0  0  0  0  0
   24.1978  -20.2165   -8.0389 O   0  0  0  0  0  0  0  0  0  0  0  0
   24.9551  -20.3778   -9.1780 C   0  0  0  0  0  0  0  0  0  0  0  0
   24.7079  -19.5907  -10.2643 C   0  0  0  0  0  0  0  0  0  0  0  0
   25.4622  -19.7356  -11.4301 C   0  0  0  0  0  0  0  0  0  0  0  0
   26.4685  -20.6645  -11.5260 C   0  0  0  0  0  0  0  0  0  0  0  0
   27.2601  -20.8242  -12.7574 C   0  0  0  0  0  0  0  0  0  0  0  0
   26.5236  -21.3601  -13.9351 C   0  0  2  0  0  0  0  0  0  0  0  0
   27.3479  -21.3619  -15.1370 N   0  0  0  0  0  0  0  0  0  0  0  0
   25.3152  -20.5031  -14.2022 C   0  0  0  0  0  0  0  0  0  0  0  0
   25.4517  -19.2634  -14.3737 O   0  0  0  0  0  0  0  0  0  0  0  0
   26.6960  -21.4530  -10.3987 C   0  0  0  0  0  0  0  0  0  0  0  0
   25.9622  -21.3226   -9.2432 C   0  0  0  0  0  0  0  0  0  0  0  0
   24.0205  -21.0584  -14.2658 N   0  0  0  0  0  0  0  0  0  0  0  0
   22.7595  -20.3805  -14.3631 C   0  0  1  0  0  0  0  0  0  0  0  0
   22.2925  -20.2227  -15.8007 C   0  0  0  0  0  0  0  0  0  0  0  0
   21.0881  -19.3388  -15.8114 C   0  0  0  0  0  0  0  0  0  0  0  0
   20.4912  -19.2931  -17.1932 C   0  0  0  0  0  0  0  0  0  0  0  0
   20.1687  -17.8853  -17.5694 C   0  0  0  0  0  0  0  0  0  0  0  0
   19.5830  -17.8415  -18.9074 N   0  0  0  0  0  0  0  0  0  0  0  0
   21.7277  -20.9147  -13.4702 C   0  0  0  0  0  0  0  0  0  0  0  0
   20.6613  -20.2622  -13.3410 O   0  0  0  0  0  0  0  0  0  0  0  0
   21.8483  -22.0963  -12.7550 O   0  0  0  0  0  0  0  0  0  0  0  0
  2  1  1  1
  3  2  1  0
  4  3  1  0
  5  4  2  0
  6  2  1  0
  6  7  2  0
  8  4  1  0
  9 10  1  0
 10 11  2  0
 11 12  1  0
 13 12  2  0
 13 14  1  0
 15 14  1  1
 15 16  1  0
 16  6  1  0
 17 15  1  0
 17 18  2  0
 19 13  1  0
 20 10  1  0
 20 19  2  0
 21 17  1  0
 22 21  1  0
 22 28  1  0
 22 23  1  6
 24 23  1  0
 25 24  1  0
 26 25  1  0
 27 26  1  0
 28 29  2  0
 28 30  1  0
M  END
$$$$
