DYK.pdb
     RDKit          3D

 30 30  0  0  1  0  0  0  0  0999 V2000
   21.4061  -11.6753  -18.1846 N   0  0  0  0  0  0  0  0  0  0  0  0
   21.9370  -10.3541  -17.9266 C   0  0  1  0  0  0  0  0  0  0  0  0
   21.8510   -9.5697  -19.2037 C   0  0  0  0  0  0  0  0  0  0  0  0
   22.7623  -10.1681  -20.1900 C   0  0  0  0  0  0  0  0  0  0  0  0
   23.9632  -10.3411  -19.9188 O   0  0  0  0  0  0  0  0  0  0  0  0
   21.2023   -9.7490  -16.8159 C   0  0  0  0  0  0  0  0  0  0  0  0
   19.9525   -9.9821  -16.6664 O   0  0  0  0  0  0  0  0  0  0  0  0
   22.2797  -10.5399  -21.4248 O   0  0  0  0  0  0  0  0  0  0  0  0
   19.2369   -5.3858   -9.3130 O   0  0  0  0  0  0  0  0  0  0  0  0
   19.8754   -6.0099  -10.3619 C   0  0  0  0  0  0  0  0  0  0  0  0
   19.7936   -7.3660  -10.4851 C   0  0  0  0  0  0  0  0  0  0  0  0
   20.4321   -8.0210  -11.5397 C   0  0  0  0  0  0  0  0  0  0  0  0
   21.1577   -7.3335  -12.4807 C   0  0  0  0  0  0  0  0  0  0  0  0
   21.8384   -8.0234  -13.5894 C   0  0  0  0  0  0  0  0  0  0  0  0
   21.0287   -8.2209  -14.8231 C   0  0  2  0  0  0  0  0  0  0  0  0
   21.7852   -8.9008  -15.8668 N   0  0  0  0  0  0  0  0  0  0  0  0
   20.5985   -6.8816  -15.3592 C   0  0  0  0  0  0  0  0  0  0  0  0
   21.3761   -6.2234  -16.0986 O   0  0  0  0  0  0  0  0  0  0  0  0
   21.2218   -5.9492  -12.3266 C   0  0  0  0  0  0  0  0  0  0  0  0
   20.5986   -5.2892  -11.2939 C   0  0  0  0  0  0  0  0  0  0  0  0
   19.3338   -6.3390  -15.0511 N   0  0  0  0  0  0  0  0  0  0  0  0
   18.7102   -5.1624  -15.5858 C   0  0  1  0  0  0  0  0  0  0  0  0
   18.1775   -5.3741  -16.9934 C   0  0  0  0  0  0  0  0  0  0  0  0
   17.5811   -4.0901  -17.4704 C   0  0  0  0  0  0  0  0  0  0  0  0
   17.0638   -4.2495  -18.8756 C   0  0  0  0  0  0  0  0  0  0  0  0
   16.4713   -2.9666  -19.3558 C   0  0  0  0  0  0  0  0  0  0  0  0
   17.5265   -2.0546  -19.7915 N   0  0  0  0  0  0  0  0  0  0  0  0
   17.7379   -4.5426  -14.6815 C   0  0  0  0  0  0  0  0  0  0  0  0
   17.0219   -5.2968  -13.9756 O   0  0  0  0  0  0  0  0  0  0  0  0
   17.5533   -3.1748  -14.5510 O   0  0  0  0  0  0  0  0  0  0  0  0
  2  1  1  6
  3  2  1  0
  4  3  1  0
  5  4  2  0
  6  2  1  0
  6  7  2  0
  8  4  1  0
  9 10  1  0
 10 11  2  0
 11 12  1  0
 13 12  2  0
 13 14  1  0
 15 14  1  1
 15 16  1  0
 16  6  1  0
 17 15  1  0
 17 18  2  0
 19 13  1  0
 20 10  1  0
 20 19  2  0
 21 17  1  0
 22 21  1  0
 22 28  1  0
 22 23  1  6
 24 23  1  0
 25 24  1  0
 26 25  1  0
 27 26  1  0
 28 29  2  0
 28 30  1  0
M  END
$$$$
