FFH.pdb
     RDKit          3D

 33 35  0  0  1  0  0  0  0  0999 V2000
   10.7282  -17.6517   20.9563 N   0  0  0  0  0  0  0  0  0  0  0  0
    9.7711  -16.5935   21.0942 C   0  0  1  0  0  0  0  0  0  0  0  0
    8.5167  -16.8545   20.2545 C   0  0  0  0  0  0  0  0  0  0  0  0
    8.0956  -15.5905   19.5842 C   0  0  0  0  0  0  0  0  0  0  0  0
    7.2184  -14.7061   20.1787 C   0  0  0  0  0  0  0  0  0  0  0  0
    6.8234  -13.5250   19.5543 C   0  0  0  0  0  0  0  0  0  0  0  0
    7.3030  -13.2099   18.3193 C   0  0  0  0  0  0  0  0  0  0  0  0
    8.1765  -14.0676   17.7012 C   0  0  0  0  0  0  0  0  0  0  0  0
    8.5693  -15.2519   18.3331 C   0  0  0  0  0  0  0  0  0  0  0  0
    9.4360  -16.2823   22.4861 C   0  0  0  0  0  0  0  0  0  0  0  0
   10.0427  -16.8862   23.4369 O   0  0  0  0  0  0  0  0  0  0  0  0
    8.4630  -15.3361   22.8846 N   0  0  0  0  0  0  0  0  0  0  0  0
    8.4099  -14.7779   24.2319 C   0  0  1  0  0  0  0  0  0  0  0  0
    7.5237  -13.5727   24.2964 C   0  0  0  0  0  0  0  0  0  0  0  0
    7.3138  -13.0048   25.6117 C   0  0  0  0  0  0  0  0  0  0  0  0
    8.3302  -12.3862   26.3426 C   0  0  0  0  0  0  0  0  0  0  0  0
    8.0628  -11.8681   27.5790 C   0  0  0  0  0  0  0  0  0  0  0  0
    6.7891  -11.9536   28.1100 C   0  0  0  0  0  0  0  0  0  0  0  0
    5.7742  -12.5523   27.4198 C   0  0  0  0  0  0  0  0  0  0  0  0
    6.0532  -13.0737   26.1700 C   0  0  0  0  0  0  0  0  0  0  0  0
    8.0760  -15.8251   25.2289 C   0  0  0  0  0  0  0  0  0  0  0  0
    8.0251  -15.6094   26.4638 O   0  0  0  0  0  0  0  0  0  0  0  0
    7.7820  -17.1930   24.8220 N   0  0  0  0  0  0  0  0  0  0  0  0
    7.4943  -18.1981   25.7968 C   0  0  1  0  0  0  0  0  0  0  0  0
    6.7189  -19.3183   25.1950 C   0  0  0  0  0  0  0  0  0  0  0  0
    6.3639  -20.4007   26.1218 C   0  0  0  0  0  0  0  0  0  0  0  0
    6.4996  -20.5409   27.4694 C   0  0  0  0  0  0  0  0  0  0  0  0
    5.9674  -21.7395   27.8309 N   0  0  0  0  0  0  0  0  0  0  0  0
    5.5139  -22.3214   26.7256 C   0  0  0  0  0  0  0  0  0  0  0  0
    5.7340  -21.5431   25.6648 N   0  0  0  0  0  0  0  0  0  0  0  0
    8.7105  -18.6808   26.5264 C   0  0  0  0  0  0  0  0  0  0  0  0
    8.7823  -18.7617   27.8967 O   0  0  0  0  0  0  0  0  0  0  0  0
    9.6925  -19.0207   25.8219 O   0  0  0  0  0  0  0  0  0  0  0  0
  2  1  1  1
  3  4  1  0
  3  2  1  0
  4  5  2  0
  5  6  1  0
  7  6  2  0
  8  7  1  0
  9  8  2  0
  9  4  1  0
 10  2  1  0
 10 11  2  0
 12 10  1  0
 13 12  1  0
 13 14  1  6
 15 14  1  0
 15 20  1  0
 16 15  2  0
 17 16  1  0
 17 18  2  0
 18 19  1  0
 19 20  2  0
 21 13  1  0
 22 21  2  0
 23 21  1  0
 24 23  1  0
 24 25  1  6
 25 26  1  0
 26 30  1  0
 26 27  2  0
 27 28  1  0
 28 29  1  0
 30 29  2  0
 31 24  1  0
 32 31  1  0
 33 31  2  0
M  END
$$$$
