FFH.pdb
     RDKit          3D

 33 35  0  0  1  0  0  0  0  0999 V2000
   10.0678  -17.1710   20.5609 N   0  0  0  0  0  0  0  0  0  0  0  0
    9.2211  -16.4838   21.4914 C   0  0  1  0  0  0  0  0  0  0  0  0
    7.8480  -16.1779   20.8849 C   0  0  0  0  0  0  0  0  0  0  0  0
    7.8524  -14.7995   20.3153 C   0  0  0  0  0  0  0  0  0  0  0  0
    8.0721  -13.6858   21.1004 C   0  0  0  0  0  0  0  0  0  0  0  0
    8.0763  -12.3973   20.5705 C   0  0  0  0  0  0  0  0  0  0  0  0
    7.8595  -12.2035   19.2401 C   0  0  0  0  0  0  0  0  0  0  0  0
    7.6379  -13.2894   18.4324 C   0  0  0  0  0  0  0  0  0  0  0  0
    7.6349  -14.5805   18.9703 C   0  0  0  0  0  0  0  0  0  0  0  0
    9.1029  -17.1580   22.7867 C   0  0  0  0  0  0  0  0  0  0  0  0
    9.9378  -18.0733   23.1061 O   0  0  0  0  0  0  0  0  0  0  0  0
    8.1082  -16.8737   23.7513 N   0  0  0  0  0  0  0  0  0  0  0  0
    8.2391  -15.7960   24.7266 C   0  0  1  0  0  0  0  0  0  0  0  0
    7.4938  -14.5698   24.2990 C   0  0  0  0  0  0  0  0  0  0  0  0
    7.4336  -13.4912   25.2630 C   0  0  0  0  0  0  0  0  0  0  0  0
    8.5456  -12.7222   25.6125 C   0  0  0  0  0  0  0  0  0  0  0  0
    8.4183  -11.7160   26.5289 C   0  0  0  0  0  0  0  0  0  0  0  0
    7.1922  -11.4556   27.1123 C   0  0  0  0  0  0  0  0  0  0  0  0
    6.0864  -12.1898   26.7914 C   0  0  0  0  0  0  0  0  0  0  0  0
    6.2239  -13.2057   25.8636 C   0  0  0  0  0  0  0  0  0  0  0  0
    7.8915  -16.2674   26.0901 C   0  0  0  0  0  0  0  0  0  0  0  0
    8.0349  -15.5645   27.1193 O   0  0  0  0  0  0  0  0  0  0  0  0
    7.3523  -17.6020   26.3162 N   0  0  0  0  0  0  0  0  0  0  0  0
    8.2240  -18.7125   26.5409 C   0  0  1  0  0  0  0  0  0  0  0  0
    8.7540  -19.2433   25.2543 C   0  0  0  0  0  0  0  0  0  0  0  0
    9.6507  -20.3996   25.3779 C   0  0  0  0  0  0  0  0  0  0  0  0
   10.8199  -20.5907   26.0491 C   0  0  0  0  0  0  0  0  0  0  0  0
   11.2212  -21.8756   25.8529 N   0  0  0  0  0  0  0  0  0  0  0  0
   10.3143  -22.4600   25.0769 C   0  0  0  0  0  0  0  0  0  0  0  0
    9.3435  -21.6000   24.7652 N   0  0  0  0  0  0  0  0  0  0  0  0
    9.3161  -18.4186   27.5235 C   0  0  0  0  0  0  0  0  0  0  0  0
   10.3670  -17.5759   27.2494 O   0  0  0  0  0  0  0  0  0  0  0  0
    9.2361  -18.9846   28.6412 O   0  0  0  0  0  0  0  0  0  0  0  0
  2  1  1  6
  3  4  1  0
  3  2  1  0
  4  5  2  0
  5  6  1  0
  7  6  2  0
  8  7  1  0
  9  8  2  0
  9  4  1  0
 10  2  1  0
 10 11  2  0
 12 10  1  0
 13 12  1  0
 13 14  1  6
 15 14  1  0
 15 20  1  0
 16 15  2  0
 17 16  1  0
 17 18  2  0
 18 19  1  0
 19 20  2  0
 21 13  1  0
 22 21  2  0
 23 21  1  0
 24 23  1  0
 24 25  1  6
 25 26  1  0
 26 30  1  0
 26 27  2  0
 27 28  1  0
 28 29  1  0
 30 29  2  0
 31 24  1  0
 32 31  1  0
 33 31  2  0
M  END
$$$$
