FFH.pdb
     RDKit          3D

 33 35  0  0  1  0  0  0  0  0999 V2000
   11.4129  -16.1499   21.3321 N   0  0  0  0  0  0  0  0  0  0  0  0
   10.1466  -15.7635   21.8818 C   0  0  1  0  0  0  0  0  0  0  0  0
    8.9895  -16.1382   20.9505 C   0  0  0  0  0  0  0  0  0  0  0  0
    8.2819  -14.8998   20.5143 C   0  0  0  0  0  0  0  0  0  0  0  0
    7.0460  -14.5490   21.0186 C   0  0  0  0  0  0  0  0  0  0  0  0
    6.3831  -13.3930   20.6123 C   0  0  0  0  0  0  0  0  0  0  0  0
    6.9505  -12.5666   19.6905 C   0  0  0  0  0  0  0  0  0  0  0  0
    8.1781  -12.8866   19.1697 C   0  0  0  0  0  0  0  0  0  0  0  0
    8.8386  -14.0486   19.5816 C   0  0  0  0  0  0  0  0  0  0  0  0
    9.9246  -16.2520   23.2451 C   0  0  0  0  0  0  0  0  0  0  0  0
   10.8097  -16.9817   23.8116 O   0  0  0  0  0  0  0  0  0  0  0  0
    8.7727  -15.9762   24.0184 N   0  0  0  0  0  0  0  0  0  0  0  0
    8.7164  -16.2013   25.4592 C   0  0  1  0  0  0  0  0  0  0  0  0
    7.4533  -15.6606   26.0542 C   0  0  0  0  0  0  0  0  0  0  0  0
    7.2872  -14.2232   26.0010 C   0  0  0  0  0  0  0  0  0  0  0  0
    6.1766  -13.6083   25.4193 C   0  0  0  0  0  0  0  0  0  0  0  0
    6.0813  -12.2448   25.4054 C   0  0  0  0  0  0  0  0  0  0  0  0
    7.0805  -11.4705   25.9653 C   0  0  0  0  0  0  0  0  0  0  0  0
    8.1787  -12.0420   26.5415 C   0  0  0  0  0  0  0  0  0  0  0  0
    8.2673  -13.4218   26.5514 C   0  0  0  0  0  0  0  0  0  0  0  0
    8.9746  -17.6257   25.7856 C   0  0  0  0  0  0  0  0  0  0  0  0
    8.8814  -18.5527   24.9454 O   0  0  0  0  0  0  0  0  0  0  0  0
    9.3594  -18.0378   27.1291 N   0  0  0  0  0  0  0  0  0  0  0  0
   10.3492  -19.0503   27.3261 C   0  0  1  0  0  0  0  0  0  0  0  0
   11.5428  -18.8029   26.4704 C   0  0  0  0  0  0  0  0  0  0  0  0
   11.5495  -19.5162   25.1868 C   0  0  0  0  0  0  0  0  0  0  0  0
   10.6555  -20.3554   24.5948 C   0  0  0  0  0  0  0  0  0  0  0  0
   11.1443  -20.7111   23.3761 N   0  0  0  0  0  0  0  0  0  0  0  0
   12.3149  -20.1005   23.2249 C   0  0  0  0  0  0  0  0  0  0  0  0
   12.5994  -19.3646   24.3004 N   0  0  0  0  0  0  0  0  0  0  0  0
   10.7166  -19.2470   28.7651 C   0  0  0  0  0  0  0  0  0  0  0  0
   10.1931  -18.4885   29.7850 O   0  0  0  0  0  0  0  0  0  0  0  0
   11.5438  -20.1573   29.0163 O   0  0  0  0  0  0  0  0  0  0  0  0
  2  1  1  6
  3  4  1  0
  3  2  1  0
  4  5  2  0
  5  6  1  0
  7  6  2  0
  8  7  1  0
  9  8  2  0
  9  4  1  0
 10  2  1  0
 10 11  2  0
 12 10  1  0
 13 12  1  0
 13 14  1  6
 15 14  1  0
 15 20  1  0
 16 15  2  0
 17 16  1  0
 17 18  2  0
 18 19  1  0
 19 20  2  0
 21 13  1  0
 22 21  2  0
 23 21  1  0
 24 23  1  0
 24 25  1  6
 25 26  1  0
 26 30  1  0
 26 27  2  0
 27 28  1  0
 28 29  1  0
 30 29  2  0
 31 24  1  0
 32 31  1  0
 33 31  2  0
M  END
$$$$
