FFH.pdb
     RDKit          3D

 33 35  0  0  1  0  0  0  0  0999 V2000
   10.2308  -17.6487   20.4377 N   0  0  0  0  0  0  0  0  0  0  0  0
    9.3164  -16.6088   20.8084 C   0  0  1  0  0  0  0  0  0  0  0  0
    8.1699  -16.4802   19.8007 C   0  0  0  0  0  0  0  0  0  0  0  0
    7.9392  -15.0394   19.4919 C   0  0  0  0  0  0  0  0  0  0  0  0
    6.9506  -14.6288   18.6206 C   0  0  0  0  0  0  0  0  0  0  0  0
    6.7336  -13.2836   18.3304 C   0  0  0  0  0  0  0  0  0  0  0  0
    7.5067  -12.3245   18.9109 C   0  0  0  0  0  0  0  0  0  0  0  0
    8.4978  -12.6994   19.7814 C   0  0  0  0  0  0  0  0  0  0  0  0
    8.7109  -14.0515   20.0688 C   0  0  0  0  0  0  0  0  0  0  0  0
    8.8198  -16.7255   22.1819 C   0  0  0  0  0  0  0  0  0  0  0  0
    9.2113  -17.6945   22.9198 O   0  0  0  0  0  0  0  0  0  0  0  0
    7.9107  -15.8255   22.7853 N   0  0  0  0  0  0  0  0  0  0  0  0
    8.0863  -15.3167   24.1418 C   0  0  1  0  0  0  0  0  0  0  0  0
    7.4657  -13.9645   24.3096 C   0  0  0  0  0  0  0  0  0  0  0  0
    7.4171  -13.4482   25.6615 C   0  0  0  0  0  0  0  0  0  0  0  0
    8.5626  -13.1892   26.4170 C   0  0  0  0  0  0  0  0  0  0  0  0
    8.4452  -12.6992   27.6877 C   0  0  0  0  0  0  0  0  0  0  0  0
    7.1962  -12.4584   28.2293 C   0  0  0  0  0  0  0  0  0  0  0  0
    6.0575  -12.7014   27.5158 C   0  0  0  0  0  0  0  0  0  0  0  0
    6.1851  -13.1970   26.2313 C   0  0  0  0  0  0  0  0  0  0  0  0
    7.6391  -16.3136   25.1459 C   0  0  0  0  0  0  0  0  0  0  0  0
    6.5499  -16.9311   25.0658 O   0  0  0  0  0  0  0  0  0  0  0  0
    8.4569  -16.6393   26.3070 N   0  0  0  0  0  0  0  0  0  0  0  0
    8.4203  -17.9480   26.8810 C   0  0  1  0  0  0  0  0  0  0  0  0
    8.7476  -18.9857   25.8642 C   0  0  0  0  0  0  0  0  0  0  0  0
    7.6056  -19.4747   25.0811 C   0  0  0  0  0  0  0  0  0  0  0  0
    6.2818  -19.1560   25.0855 C   0  0  0  0  0  0  0  0  0  0  0  0
    5.6613  -19.8908   24.1234 N   0  0  0  0  0  0  0  0  0  0  0  0
    6.5880  -20.6443   23.5407 C   0  0  0  0  0  0  0  0  0  0  0  0
    7.7827  -20.4232   24.0912 N   0  0  0  0  0  0  0  0  0  0  0  0
    9.2634  -18.0781   28.1126 C   0  0  0  0  0  0  0  0  0  0  0  0
   10.1513  -17.1115   28.5212 O   0  0  0  0  0  0  0  0  0  0  0  0
    9.1266  -19.1322   28.7806 O   0  0  0  0  0  0  0  0  0  0  0  0
  2  1  1  6
  3  4  1  0
  3  2  1  0
  4  5  2  0
  5  6  1  0
  7  6  2  0
  8  7  1  0
  9  8  2  0
  9  4  1  0
 10  2  1  0
 10 11  2  0
 12 10  1  0
 13 12  1  0
 13 14  1  6
 15 14  1  0
 15 20  1  0
 16 15  2  0
 17 16  1  0
 17 18  2  0
 18 19  1  0
 19 20  2  0
 21 13  1  0
 22 21  2  0
 23 21  1  0
 24 23  1  0
 24 25  1  6
 25 26  1  0
 26 30  1  0
 26 27  2  0
 27 28  1  0
 28 29  1  0
 30 29  2  0
 31 24  1  0
 32 31  1  0
 33 31  2  0
M  END
$$$$
