FFH.pdb
     RDKit          3D

 33 35  0  0  1  0  0  0  0  0999 V2000
   11.0027  -16.4984   20.3030 N   0  0  0  0  0  0  0  0  0  0  0  0
   10.0847  -15.7944   21.1495 C   0  0  1  0  0  0  0  0  0  0  0  0
    8.6315  -16.0344   20.7282 C   0  0  0  0  0  0  0  0  0  0  0  0
    8.1249  -14.8417   19.9898 C   0  0  0  0  0  0  0  0  0  0  0  0
    8.0267  -14.8228   18.6132 C   0  0  0  0  0  0  0  0  0  0  0  0
    7.5541  -13.7097   17.9214 C   0  0  0  0  0  0  0  0  0  0  0  0
    7.1708  -12.5933   18.6006 C   0  0  0  0  0  0  0  0  0  0  0  0
    7.2561  -12.5798   19.9693 C   0  0  0  0  0  0  0  0  0  0  0  0
    7.7314  -13.7003   20.6582 C   0  0  0  0  0  0  0  0  0  0  0  0
   10.2846  -16.0546   22.5774 C   0  0  0  0  0  0  0  0  0  0  0  0
   11.1327  -16.9367   22.9507 O   0  0  0  0  0  0  0  0  0  0  0  0
    9.5952  -15.3896   23.6181 N   0  0  0  0  0  0  0  0  0  0  0  0
    9.9407  -15.5556   25.0262 C   0  0  1  0  0  0  0  0  0  0  0  0
    9.1035  -14.6815   25.9076 C   0  0  0  0  0  0  0  0  0  0  0  0
    9.4008  -14.7320   27.3238 C   0  0  0  0  0  0  0  0  0  0  0  0
    8.8960  -15.7209   28.1708 C   0  0  0  0  0  0  0  0  0  0  0  0
    9.2188  -15.7112   29.4990 C   0  0  0  0  0  0  0  0  0  0  0  0
   10.0437  -14.7258   30.0087 C   0  0  0  0  0  0  0  0  0  0  0  0
   10.5531  -13.7454   29.2061 C   0  0  0  0  0  0  0  0  0  0  0  0
   10.2217  -13.7625   27.8639 C   0  0  0  0  0  0  0  0  0  0  0  0
    9.9278  -16.9886   25.4117 C   0  0  0  0  0  0  0  0  0  0  0  0
    8.9009  -17.7073   25.3573 O   0  0  0  0  0  0  0  0  0  0  0  0
   11.1327  -17.6571   25.8854 N   0  0  0  0  0  0  0  0  0  0  0  0
   11.0510  -18.9103   26.5683 C   0  0  1  0  0  0  0  0  0  0  0  0
   11.7198  -19.9877   25.7874 C   0  0  0  0  0  0  0  0  0  0  0  0
   11.2578  -20.1330   24.4011 C   0  0  0  0  0  0  0  0  0  0  0  0
   10.2621  -19.5305   23.6942 C   0  0  0  0  0  0  0  0  0  0  0  0
   10.2877  -20.0125   22.4224 N   0  0  0  0  0  0  0  0  0  0  0  0
   11.2808  -20.8927   22.3520 C   0  0  0  0  0  0  0  0  0  0  0  0
   11.8964  -20.9966   23.5308 N   0  0  0  0  0  0  0  0  0  0  0  0
   11.5441  -18.8476   27.9816 C   0  0  0  0  0  0  0  0  0  0  0  0
   12.1122  -17.7225   28.5303 O   0  0  0  0  0  0  0  0  0  0  0  0
   11.4159  -19.8896   28.6700 O   0  0  0  0  0  0  0  0  0  0  0  0
  2  1  1  6
  3  4  1  0
  3  2  1  0
  4  5  2  0
  5  6  1  0
  7  6  2  0
  8  7  1  0
  9  8  2  0
  9  4  1  0
 10  2  1  0
 10 11  2  0
 12 10  1  0
 13 12  1  0
 13 14  1  1
 15 14  1  0
 15 20  1  0
 16 15  2  0
 17 16  1  0
 17 18  2  0
 18 19  1  0
 19 20  2  0
 21 13  1  0
 22 21  2  0
 23 21  1  0
 24 23  1  0
 24 25  1  6
 25 26  1  0
 26 30  1  0
 26 27  2  0
 27 28  1  0
 28 29  1  0
 30 29  2  0
 31 24  1  0
 32 31  1  0
 33 31  2  0
M  END
$$$$
