FFH.pdb
     RDKit          3D

 33 35  0  0  1  0  0  0  0  0999 V2000
    7.9156  -17.0583   20.4450 N   0  0  0  0  0  0  0  0  0  0  0  0
    9.2710  -16.7458   20.7915 C   0  0  1  0  0  0  0  0  0  0  0  0
    9.8868  -15.7425   19.8114 C   0  0  0  0  0  0  0  0  0  0  0  0
    8.9031  -14.6579   19.5271 C   0  0  0  0  0  0  0  0  0  0  0  0
    8.9060  -13.4681   20.2265 C   0  0  0  0  0  0  0  0  0  0  0  0
    7.9879  -12.4538   19.9630 C   0  0  0  0  0  0  0  0  0  0  0  0
    7.0486  -12.6164   18.9905 C   0  0  0  0  0  0  0  0  0  0  0  0
    7.0187  -13.7872   18.2771 C   0  0  0  0  0  0  0  0  0  0  0  0
    7.9431  -14.8018   18.5464 C   0  0  0  0  0  0  0  0  0  0  0  0
    9.4376  -16.3162   22.1823 C   0  0  0  0  0  0  0  0  0  0  0  0
   10.6085  -16.0743   22.6376 O   0  0  0  0  0  0  0  0  0  0  0  0
    8.3758  -16.1391   23.0998 N   0  0  0  0  0  0  0  0  0  0  0  0
    8.5579  -15.5189   24.4082 C   0  0  1  0  0  0  0  0  0  0  0  0
    7.3875  -14.6632   24.7822 C   0  0  0  0  0  0  0  0  0  0  0  0
    7.5142  -13.9116   26.0132 C   0  0  0  0  0  0  0  0  0  0  0  0
    7.4397  -14.5040   27.2755 C   0  0  0  0  0  0  0  0  0  0  0  0
    7.5704  -13.7355   28.3984 C   0  0  0  0  0  0  0  0  0  0  0  0
    7.7763  -12.3727   28.2902 C   0  0  0  0  0  0  0  0  0  0  0  0
    7.8538  -11.7641   27.0703 C   0  0  0  0  0  0  0  0  0  0  0  0
    7.7206  -12.5486   25.9396 C   0  0  0  0  0  0  0  0  0  0  0  0
    8.9151  -16.5320   25.4321 C   0  0  0  0  0  0  0  0  0  0  0  0
    8.1371  -17.4459   25.7975 O   0  0  0  0  0  0  0  0  0  0  0  0
   10.2174  -16.5230   26.0853 N   0  0  0  0  0  0  0  0  0  0  0  0
   10.5339  -17.4848   27.0944 C   0  0  1  0  0  0  0  0  0  0  0  0
   11.7661  -18.2430   26.7409 C   0  0  0  0  0  0  0  0  0  0  0  0
   11.7319  -18.9171   25.4367 C   0  0  0  0  0  0  0  0  0  0  0  0
   10.9559  -19.9185   24.9376 C   0  0  0  0  0  0  0  0  0  0  0  0
   11.3225  -20.1413   23.6467 N   0  0  0  0  0  0  0  0  0  0  0  0
   12.3036  -19.2918   23.3608 C   0  0  0  0  0  0  0  0  0  0  0  0
   12.5837  -18.5297   24.4192 N   0  0  0  0  0  0  0  0  0  0  0  0
   10.6076  -16.8969   28.4704 C   0  0  0  0  0  0  0  0  0  0  0  0
   10.8655  -17.6449   29.5946 O   0  0  0  0  0  0  0  0  0  0  0  0
   10.4214  -15.6590   28.5652 O   0  0  0  0  0  0  0  0  0  0  0  0
  2  1  1  6
  3  4  1  0
  3  2  1  0
  4  5  2  0
  5  6  1  0
  7  6  2  0
  8  7  1  0
  9  8  2  0
  9  4  1  0
 10  2  1  0
 10 11  2  0
 12 10  1  0
 13 12  1  0
 13 14  1  1
 15 14  1  0
 15 20  1  0
 16 15  2  0
 17 16  1  0
 17 18  2  0
 18 19  1  0
 19 20  2  0
 21 13  1  0
 22 21  2  0
 23 21  1  0
 24 23  1  0
 24 25  1  6
 25 26  1  0
 26 30  1  0
 26 27  2  0
 27 28  1  0
 28 29  1  0
 30 29  2  0
 31 24  1  0
 32 31  1  0
 33 31  2  0
M  END
$$$$
