FFH.pdb
     RDKit          3D

 33 35  0  0  1  0  0  0  0  0999 V2000
    6.5354  -16.9135   21.1948 N   0  0  0  0  0  0  0  0  0  0  0  0
    7.9676  -16.8520   21.2023 C   0  0  1  0  0  0  0  0  0  0  0  0
    8.5094  -16.1702   19.9420 C   0  0  0  0  0  0  0  0  0  0  0  0
    8.1530  -14.7222   19.9683 C   0  0  0  0  0  0  0  0  0  0  0  0
    6.8552  -14.2865   19.7929 C   0  0  0  0  0  0  0  0  0  0  0  0
    6.5201  -12.9344   19.8166 C   0  0  0  0  0  0  0  0  0  0  0  0
    7.4839  -11.9936   20.0175 C   0  0  0  0  0  0  0  0  0  0  0  0
    8.7835  -12.3936   20.1952 C   0  0  0  0  0  0  0  0  0  0  0  0
    9.1138  -13.7524   20.1702 C   0  0  0  0  0  0  0  0  0  0  0  0
    8.5236  -16.2583   22.4208 C   0  0  0  0  0  0  0  0  0  0  0  0
    9.2318  -15.1955   22.3449 O   0  0  0  0  0  0  0  0  0  0  0  0
    8.3382  -16.7782   23.7232 N   0  0  0  0  0  0  0  0  0  0  0  0
    9.0814  -16.2914   24.8809 C   0  0  1  0  0  0  0  0  0  0  0  0
    8.2020  -15.5262   25.8206 C   0  0  0  0  0  0  0  0  0  0  0  0
    8.8603  -14.9175   26.9575 C   0  0  0  0  0  0  0  0  0  0  0  0
    9.2722  -13.5833   26.9715 C   0  0  0  0  0  0  0  0  0  0  0  0
    9.8863  -13.0706   28.0799 C   0  0  0  0  0  0  0  0  0  0  0  0
   10.1019  -13.8678   29.1887 C   0  0  0  0  0  0  0  0  0  0  0  0
    9.7106  -15.1760   29.2057 C   0  0  0  0  0  0  0  0  0  0  0  0
    9.0902  -15.6866   28.0806 C   0  0  0  0  0  0  0  0  0  0  0  0
    9.8403  -17.3911   25.5266 C   0  0  0  0  0  0  0  0  0  0  0  0
    9.2945  -18.4055   26.0235 O   0  0  0  0  0  0  0  0  0  0  0  0
   11.2938  -17.3547   25.6225 N   0  0  0  0  0  0  0  0  0  0  0  0
   12.0145  -18.4481   26.1957 C   0  0  1  0  0  0  0  0  0  0  0  0
   13.2830  -18.6969   25.4560 C   0  0  0  0  0  0  0  0  0  0  0  0
   13.1329  -18.8992   24.0093 C   0  0  0  0  0  0  0  0  0  0  0  0
   12.2223  -19.5851   23.2648 C   0  0  0  0  0  0  0  0  0  0  0  0
   12.5286  -19.4151   21.9504 N   0  0  0  0  0  0  0  0  0  0  0  0
   13.6058  -18.6391   21.8915 C   0  0  0  0  0  0  0  0  0  0  0  0
   14.0058  -18.3026   23.1187 N   0  0  0  0  0  0  0  0  0  0  0  0
   12.2395  -18.3012   27.6695 C   0  0  0  0  0  0  0  0  0  0  0  0
   12.8394  -19.2699   28.4385 O   0  0  0  0  0  0  0  0  0  0  0  0
   11.8505  -17.2294   28.1951 O   0  0  0  0  0  0  0  0  0  0  0  0
  2  1  1  1
  3  4  1  0
  3  2  1  0
  4  5  2  0
  5  6  1  0
  7  6  2  0
  8  7  1  0
  9  8  2  0
  9  4  1  0
 10  2  1  0
 10 11  2  0
 12 10  1  0
 13 12  1  0
 13 14  1  1
 15 14  1  0
 15 20  1  0
 16 15  2  0
 17 16  1  0
 17 18  2  0
 18 19  1  0
 19 20  2  0
 21 13  1  0
 22 21  2  0
 23 21  1  0
 24 23  1  0
 24 25  1  6
 25 26  1  0
 26 30  1  0
 26 27  2  0
 27 28  1  0
 28 29  1  0
 30 29  2  0
 31 24  1  0
 32 31  1  0
 33 31  2  0
M  END
$$$$
