FFH.pdb
     RDKit          3D

 33 35  0  0  1  0  0  0  0  0999 V2000
    8.8636  -18.4122   20.8840 N   0  0  0  0  0  0  0  0  0  0  0  0
    8.9051  -16.9847   20.7590 C   0  0  1  0  0  0  0  0  0  0  0  0
    7.6677  -16.4458   20.0343 C   0  0  0  0  0  0  0  0  0  0  0  0
    7.8079  -14.9738   19.8396 C   0  0  0  0  0  0  0  0  0  0  0  0
    8.5813  -14.4416   18.8279 C   0  0  0  0  0  0  0  0  0  0  0  0
    8.7140  -13.0669   18.6444 C   0  0  0  0  0  0  0  0  0  0  0  0
    8.0711  -12.2001   19.4750 C   0  0  0  0  0  0  0  0  0  0  0  0
    7.2945  -12.6968   20.4904 C   0  0  0  0  0  0  0  0  0  0  0  0
    7.1653  -14.0779   20.6695 C   0  0  0  0  0  0  0  0  0  0  0  0
    9.1343  -16.2904   22.0286 C   0  0  0  0  0  0  0  0  0  0  0  0
   10.2326  -15.6631   22.2215 O   0  0  0  0  0  0  0  0  0  0  0  0
    8.2116  -16.2522   23.1000 N   0  0  0  0  0  0  0  0  0  0  0  0
    8.5022  -15.5931   24.3692 C   0  0  1  0  0  0  0  0  0  0  0  0
    7.3541  -14.7493   24.8295 C   0  0  0  0  0  0  0  0  0  0  0  0
    7.6032  -13.9057   25.9796 C   0  0  0  0  0  0  0  0  0  0  0  0
    8.8737  -13.7307   26.5319 C   0  0  0  0  0  0  0  0  0  0  0  0
    9.0393  -12.9169   27.6176 C   0  0  0  0  0  0  0  0  0  0  0  0
    7.9535  -12.2654   28.1724 C   0  0  0  0  0  0  0  0  0  0  0  0
    6.6986  -12.4162   27.6552 C   0  0  0  0  0  0  0  0  0  0  0  0
    6.5399  -13.2410   26.5570 C   0  0  0  0  0  0  0  0  0  0  0  0
    8.9747  -16.5709   25.3805 C   0  0  0  0  0  0  0  0  0  0  0  0
    8.2761  -17.5283   25.7920 O   0  0  0  0  0  0  0  0  0  0  0  0
   10.3055  -16.4729   25.9658 N   0  0  0  0  0  0  0  0  0  0  0  0
   10.7680  -17.4562   26.8945 C   0  0  1  0  0  0  0  0  0  0  0  0
   12.1665  -17.8651   26.5860 C   0  0  0  0  0  0  0  0  0  0  0  0
   12.3621  -18.4726   25.2635 C   0  0  0  0  0  0  0  0  0  0  0  0
   11.5147  -18.7095   24.2243 C   0  0  0  0  0  0  0  0  0  0  0  0
   12.2273  -19.2697   23.2100 N   0  0  0  0  0  0  0  0  0  0  0  0
   13.4871  -19.3730   23.6203 C   0  0  0  0  0  0  0  0  0  0  0  0
   13.6135  -18.9007   24.8614 N   0  0  0  0  0  0  0  0  0  0  0  0
   10.6027  -17.0434   28.3252 C   0  0  0  0  0  0  0  0  0  0  0  0
   11.4333  -16.1427   28.9484 O   0  0  0  0  0  0  0  0  0  0  0  0
    9.6493  -17.5632   28.9553 O   0  0  0  0  0  0  0  0  0  0  0  0
  2  1  1  1
  3  4  1  0
  3  2  1  0
  4  5  2  0
  5  6  1  0
  7  6  2  0
  8  7  1  0
  9  8  2  0
  9  4  1  0
 10  2  1  0
 10 11  2  0
 12 10  1  0
 13 12  1  0
 13 14  1  1
 15 14  1  0
 15 20  1  0
 16 15  2  0
 17 16  1  0
 17 18  2  0
 18 19  1  0
 19 20  2  0
 21 13  1  0
 22 21  2  0
 23 21  1  0
 24 23  1  0
 24 25  1  6
 25 26  1  0
 26 30  1  0
 26 27  2  0
 27 28  1  0
 28 29  1  0
 30 29  2  0
 31 24  1  0
 32 31  1  0
 33 31  2  0
M  END
$$$$
