FFH.pdb
     RDKit          3D

 33 35  0  0  1  0  0  0  0  0999 V2000
   10.1881  -17.4702   20.0945 N   0  0  0  0  0  0  0  0  0  0  0  0
    9.6445  -16.4046   20.8844 C   0  0  1  0  0  0  0  0  0  0  0  0
    8.1569  -16.1870   20.5906 C   0  0  0  0  0  0  0  0  0  0  0  0
    7.9107  -14.7415   20.3177 C   0  0  0  0  0  0  0  0  0  0  0  0
    6.6514  -14.2579   20.0254 C   0  0  0  0  0  0  0  0  0  0  0  0
    6.4192  -12.9082   19.7698 C   0  0  0  0  0  0  0  0  0  0  0  0
    7.4492  -12.0179   19.8033 C   0  0  0  0  0  0  0  0  0  0  0  0
    8.7129  -12.4663   20.0906 C   0  0  0  0  0  0  0  0  0  0  0  0
    8.9397  -13.8225   20.3463 C   0  0  0  0  0  0  0  0  0  0  0  0
    9.8974  -16.5497   22.3202 C   0  0  0  0  0  0  0  0  0  0  0  0
   10.7710  -17.3894   22.7307 O   0  0  0  0  0  0  0  0  0  0  0  0
    9.2341  -15.8140   23.3299 N   0  0  0  0  0  0  0  0  0  0  0  0
    9.7308  -15.7277   24.6994 C   0  0  1  0  0  0  0  0  0  0  0  0
    8.9466  -14.7437   25.5109 C   0  0  0  0  0  0  0  0  0  0  0  0
    9.2920  -14.6549   26.9142 C   0  0  0  0  0  0  0  0  0  0  0  0
    8.8908  -15.6044   27.8563 C   0  0  0  0  0  0  0  0  0  0  0  0
    9.2543  -15.4613   29.1662 C   0  0  0  0  0  0  0  0  0  0  0  0
   10.0182  -14.3796   29.5635 C   0  0  0  0  0  0  0  0  0  0  0  0
   10.4260  -13.4345   28.6661 C   0  0  0  0  0  0  0  0  0  0  0  0
   10.0540  -13.5868   27.3431 C   0  0  0  0  0  0  0  0  0  0  0  0
    9.8291  -17.0741   25.3155 C   0  0  0  0  0  0  0  0  0  0  0  0
    8.8616  -17.8693   25.3912 O   0  0  0  0  0  0  0  0  0  0  0  0
   11.0815  -17.5601   25.8796 N   0  0  0  0  0  0  0  0  0  0  0  0
   11.1583  -18.8569   26.4760 C   0  0  1  0  0  0  0  0  0  0  0  0
   12.0645  -19.7482   25.6998 C   0  0  0  0  0  0  0  0  0  0  0  0
   12.2202  -21.1045   26.2407 C   0  0  0  0  0  0  0  0  0  0  0  0
   11.6403  -21.7496   27.2903 C   0  0  0  0  0  0  0  0  0  0  0  0
   12.1217  -23.0213   27.3300 N   0  0  0  0  0  0  0  0  0  0  0  0
   12.9794  -23.1523   26.3233 C   0  0  0  0  0  0  0  0  0  0  0  0
   13.0693  -22.0125   25.6361 N   0  0  0  0  0  0  0  0  0  0  0  0
   11.5132  -18.8194   27.9311 C   0  0  0  0  0  0  0  0  0  0  0  0
   11.3517  -19.8947   28.7721 O   0  0  0  0  0  0  0  0  0  0  0  0
   11.9787  -17.7393   28.3701 O   0  0  0  0  0  0  0  0  0  0  0  0
  2  1  1  6
  3  4  1  0
  3  2  1  0
  4  5  2  0
  5  6  1  0
  7  6  2  0
  8  7  1  0
  9  8  2  0
  9  4  1  0
 10  2  1  0
 10 11  2  0
 12 10  1  0
 13 12  1  0
 13 14  1  1
 15 14  1  0
 15 20  1  0
 16 15  2  0
 17 16  1  0
 17 18  2  0
 18 19  1  0
 19 20  2  0
 21 13  1  0
 22 21  2  0
 23 21  1  0
 24 23  1  0
 24 25  1  6
 25 26  1  0
 26 30  1  0
 26 27  2  0
 27 28  1  0
 28 29  1  0
 30 29  2  0
 31 24  1  0
 32 31  1  0
 33 31  2  0
M  END
$$$$
