FFH.pdb
     RDKit          3D

 33 35  0  0  1  0  0  0  0  0999 V2000
   10.3927  -17.1309   21.1744 N   0  0  0  0  0  0  0  0  0  0  0  0
    9.4382  -16.3636   21.9196 C   0  0  1  0  0  0  0  0  0  0  0  0
    8.0665  -16.3539   21.2377 C   0  0  0  0  0  0  0  0  0  0  0  0
    7.6631  -14.9465   20.9532 C   0  0  0  0  0  0  0  0  0  0  0  0
    6.6133  -14.3404   21.6132 C   0  0  0  0  0  0  0  0  0  0  0  0
    6.2345  -13.0260   21.3488 C   0  0  0  0  0  0  0  0  0  0  0  0
    6.9043  -12.2950   20.4152 C   0  0  0  0  0  0  0  0  0  0  0  0
    7.9524  -12.8680   19.7416 C   0  0  0  0  0  0  0  0  0  0  0  0
    8.3279  -14.1880   20.0114 C   0  0  0  0  0  0  0  0  0  0  0  0
    9.3402  -16.7559   23.3278 C   0  0  0  0  0  0  0  0  0  0  0  0
   10.2450  -17.4970   23.8463 O   0  0  0  0  0  0  0  0  0  0  0  0
    8.2922  -16.3716   24.1965 N   0  0  0  0  0  0  0  0  0  0  0  0
    8.4181  -16.4075   25.6499 C   0  0  1  0  0  0  0  0  0  0  0  0
    7.2826  -15.6986   26.3208 C   0  0  0  0  0  0  0  0  0  0  0  0
    7.2747  -14.2553   26.2062 C   0  0  0  0  0  0  0  0  0  0  0  0
    8.3743  -13.4612   26.5384 C   0  0  0  0  0  0  0  0  0  0  0  0
    8.3003  -12.1029   26.4038 C   0  0  0  0  0  0  0  0  0  0  0  0
    7.1404  -11.5107   25.9396 C   0  0  0  0  0  0  0  0  0  0  0  0
    6.0485  -12.2599   25.6066 C   0  0  0  0  0  0  0  0  0  0  0  0
    6.1317  -13.6331   25.7457 C   0  0  0  0  0  0  0  0  0  0  0  0
    8.6307  -17.7950   26.1314 C   0  0  0  0  0  0  0  0  0  0  0  0
    7.7147  -18.6499   26.1952 O   0  0  0  0  0  0  0  0  0  0  0  0
    9.9434  -18.2535   26.5667 N   0  0  0  0  0  0  0  0  0  0  0  0
   10.0820  -19.4627   27.3165 C   0  0  1  0  0  0  0  0  0  0  0  0
   11.1497  -20.3273   26.7417 C   0  0  0  0  0  0  0  0  0  0  0  0
   10.9663  -20.6915   25.3309 C   0  0  0  0  0  0  0  0  0  0  0  0
    9.8576  -20.9400   24.5805 C   0  0  0  0  0  0  0  0  0  0  0  0
   10.2533  -21.2010   23.3054 N   0  0  0  0  0  0  0  0  0  0  0  0
   11.5790  -21.1130   23.2758 C   0  0  0  0  0  0  0  0  0  0  0  0
   12.0530  -20.8055   24.4842 N   0  0  0  0  0  0  0  0  0  0  0  0
   10.2721  -19.2307   28.7843 C   0  0  0  0  0  0  0  0  0  0  0  0
   10.2491  -20.2426   29.7144 O   0  0  0  0  0  0  0  0  0  0  0  0
   10.4603  -18.0438   29.1477 O   0  0  0  0  0  0  0  0  0  0  0  0
  2  1  1  6
  3  4  1  0
  3  2  1  0
  4  5  2  0
  5  6  1  0
  7  6  2  0
  8  7  1  0
  9  8  2  0
  9  4  1  0
 10  2  1  0
 10 11  2  0
 12 10  1  0
 13 12  1  0
 13 14  1  1
 15 14  1  0
 15 20  1  0
 16 15  2  0
 17 16  1  0
 17 18  2  0
 18 19  1  0
 19 20  2  0
 21 13  1  0
 22 21  2  0
 23 21  1  0
 24 23  1  0
 24 25  1  6
 25 26  1  0
 26 30  1  0
 26 27  2  0
 27 28  1  0
 28 29  1  0
 30 29  2  0
 31 24  1  0
 32 31  1  0
 33 31  2  0
M  END
$$$$
