FFH.pdb
     RDKit          3D

 33 35  0  0  1  0  0  0  0  0999 V2000
    8.1888  -17.6452   20.2720 N   0  0  0  0  0  0  0  0  0  0  0  0
    9.4377  -17.0059   20.5660 C   0  0  1  0  0  0  0  0  0  0  0  0
    9.8869  -16.0924   19.4213 C   0  0  0  0  0  0  0  0  0  0  0  0
    9.0925  -14.8305   19.4519 C   0  0  0  0  0  0  0  0  0  0  0  0
    9.6946  -13.5901   19.5139 C   0  0  0  0  0  0  0  0  0  0  0  0
    8.9545  -12.4101   19.5429 C   0  0  0  0  0  0  0  0  0  0  0  0
    7.5938  -12.4543   19.5100 C   0  0  0  0  0  0  0  0  0  0  0  0
    6.9646  -13.6712   19.4483 C   0  0  0  0  0  0  0  0  0  0  0  0
    7.7131  -14.8524   19.4195 C   0  0  0  0  0  0  0  0  0  0  0  0
    9.4510  -16.3072   21.8537 C   0  0  0  0  0  0  0  0  0  0  0  0
   10.5516  -15.8480   22.3171 O   0  0  0  0  0  0  0  0  0  0  0  0
    8.3092  -16.0879   22.6592 N   0  0  0  0  0  0  0  0  0  0  0  0
    8.3511  -15.3104   23.8934 C   0  0  1  0  0  0  0  0  0  0  0  0
    7.3664  -14.1826   23.8700 C   0  0  0  0  0  0  0  0  0  0  0  0
    7.2590  -13.4042   25.0861 C   0  0  0  0  0  0  0  0  0  0  0  0
    6.3706  -13.7227   26.1154 C   0  0  0  0  0  0  0  0  0  0  0  0
    6.3220  -12.9459   27.2391 C   0  0  0  0  0  0  0  0  0  0  0  0
    7.1492  -11.8450   27.3618 C   0  0  0  0  0  0  0  0  0  0  0  0
    8.0284  -11.5077   26.3728 C   0  0  0  0  0  0  0  0  0  0  0  0
    8.0712  -12.2986   25.2395 C   0  0  0  0  0  0  0  0  0  0  0  0
    8.2300  -16.1913   25.0815 C   0  0  0  0  0  0  0  0  0  0  0  0
    7.2381  -16.9298   25.2932 O   0  0  0  0  0  0  0  0  0  0  0  0
    9.2784  -16.2502   26.0915 N   0  0  0  0  0  0  0  0  0  0  0  0
    9.5703  -17.4744   26.7694 C   0  0  1  0  0  0  0  0  0  0  0  0
    9.7322  -18.5946   25.8014 C   0  0  0  0  0  0  0  0  0  0  0  0
   10.0430  -19.8984   26.4014 C   0  0  0  0  0  0  0  0  0  0  0  0
    9.8328  -20.4140   27.6440 C   0  0  0  0  0  0  0  0  0  0  0  0
   10.2878  -21.6959   27.6583 N   0  0  0  0  0  0  0  0  0  0  0  0
   10.7667  -21.9601   26.4471 C   0  0  0  0  0  0  0  0  0  0  0  0
   10.6378  -20.8964   25.6525 N   0  0  0  0  0  0  0  0  0  0  0  0
   10.7316  -17.3681   27.7099 C   0  0  0  0  0  0  0  0  0  0  0  0
   11.4503  -16.2101   27.8889 O   0  0  0  0  0  0  0  0  0  0  0  0
   11.0352  -18.4045   28.3501 O   0  0  0  0  0  0  0  0  0  0  0  0
  2  1  1  6
  3  4  1  0
  3  2  1  0
  4  5  2  0
  5  6  1  0
  7  6  2  0
  8  7  1  0
  9  8  2  0
  9  4  1  0
 10  2  1  0
 10 11  2  0
 12 10  1  0
 13 12  1  0
 13 14  1  6
 15 14  1  0
 15 20  1  0
 16 15  2  0
 17 16  1  0
 17 18  2  0
 18 19  1  0
 19 20  2  0
 21 13  1  0
 22 21  2  0
 23 21  1  0
 24 23  1  0
 24 25  1  6
 25 26  1  0
 26 30  1  0
 26 27  2  0
 27 28  1  0
 28 29  1  0
 30 29  2  0
 31 24  1  0
 32 31  1  0
 33 31  2  0
M  END
$$$$
