FFH.pdb
     RDKit          3D

 33 35  0  0  1  0  0  0  0  0999 V2000
    8.4617  -16.1758   21.7935 N   0  0  0  0  0  0  0  0  0  0  0  0
    9.3458  -15.1943   22.3502 C   0  0  1  0  0  0  0  0  0  0  0  0
    8.8059  -13.7739   22.1558 C   0  0  0  0  0  0  0  0  0  0  0  0
    8.1634  -13.6660   20.8141 C   0  0  0  0  0  0  0  0  0  0  0  0
    6.8783  -14.1128   20.5821 C   0  0  0  0  0  0  0  0  0  0  0  0
    6.2762  -14.0134   19.3296 C   0  0  0  0  0  0  0  0  0  0  0  0
    6.9550  -13.4623   18.2855 C   0  0  0  0  0  0  0  0  0  0  0  0
    8.2340  -13.0086   18.4829 C   0  0  0  0  0  0  0  0  0  0  0  0
    8.8330  -13.1113   19.7426 C   0  0  0  0  0  0  0  0  0  0  0  0
    9.7035  -15.4511   23.7476 C   0  0  0  0  0  0  0  0  0  0  0  0
   10.7822  -14.9599   24.2289 O   0  0  0  0  0  0  0  0  0  0  0  0
    8.9299  -16.2245   24.6444 N   0  0  0  0  0  0  0  0  0  0  0  0
    9.1932  -16.2681   26.0792 C   0  0  1  0  0  0  0  0  0  0  0  0
    8.0033  -15.8262   26.8732 C   0  0  0  0  0  0  0  0  0  0  0  0
    7.6526  -14.4251   26.7709 C   0  0  0  0  0  0  0  0  0  0  0  0
    6.3812  -13.9861   26.3955 C   0  0  0  0  0  0  0  0  0  0  0  0
    6.1162  -12.6472   26.3213 C   0  0  0  0  0  0  0  0  0  0  0  0
    7.1022  -11.7241   26.6165 C   0  0  0  0  0  0  0  0  0  0  0  0
    8.3551  -12.1219   26.9866 C   0  0  0  0  0  0  0  0  0  0  0  0
    8.6147  -13.4781   27.0592 C   0  0  0  0  0  0  0  0  0  0  0  0
    9.7280  -17.5925   26.4818 C   0  0  0  0  0  0  0  0  0  0  0  0
    9.8139  -17.9665   27.6763 O   0  0  0  0  0  0  0  0  0  0  0  0
   10.1939  -18.5547   25.4918 N   0  0  0  0  0  0  0  0  0  0  0  0
   10.6961  -19.8309   25.8950 C   0  0  1  0  0  0  0  0  0  0  0  0
   10.7632  -20.7673   24.7388 C   0  0  0  0  0  0  0  0  0  0  0  0
    9.6000  -20.7378   23.8431 C   0  0  0  0  0  0  0  0  0  0  0  0
    8.3219  -21.1876   23.9781 C   0  0  0  0  0  0  0  0  0  0  0  0
    7.6345  -20.8698   22.8481 N   0  0  0  0  0  0  0  0  0  0  0  0
    8.4758  -20.2368   22.0371 C   0  0  0  0  0  0  0  0  0  0  0  0
    9.6800  -20.1348   22.6017 N   0  0  0  0  0  0  0  0  0  0  0  0
   11.9980  -19.7489   26.6319 C   0  0  0  0  0  0  0  0  0  0  0  0
   12.3441  -20.6116   27.6447 O   0  0  0  0  0  0  0  0  0  0  0  0
   12.7876  -18.8379   26.2816 O   0  0  0  0  0  0  0  0  0  0  0  0
  2  1  1  1
  3  4  1  0
  3  2  1  0
  4  5  2  0
  5  6  1  0
  7  6  2  0
  8  7  1  0
  9  8  2  0
  9  4  1  0
 10  2  1  0
 10 11  2  0
 12 10  1  0
 13 12  1  0
 13 14  1  1
 15 14  1  0
 15 20  1  0
 16 15  2  0
 17 16  1  0
 17 18  2  0
 18 19  1  0
 19 20  2  0
 21 13  1  0
 22 21  2  0
 23 21  1  0
 24 23  1  0
 24 25  1  6
 25 26  1  0
 26 30  1  0
 26 27  2  0
 27 28  1  0
 28 29  1  0
 30 29  2  0
 31 24  1  0
 32 31  1  0
 33 31  2  0
M  END
$$$$
