FFH.pdb
     RDKit          3D

 33 35  0  0  1  0  0  0  0  0999 V2000
   11.0039  -17.6564   20.6626 N   0  0  0  0  0  0  0  0  0  0  0  0
   10.1405  -16.5149   20.7441 C   0  0  1  0  0  0  0  0  0  0  0  0
    8.9899  -16.6049   19.7368 C   0  0  0  0  0  0  0  0  0  0  0  0
    8.2470  -15.3118   19.7143 C   0  0  0  0  0  0  0  0  0  0  0  0
    6.9984  -15.1772   20.2870 C   0  0  0  0  0  0  0  0  0  0  0  0
    6.3025  -13.9704   20.2669 C   0  0  0  0  0  0  0  0  0  0  0  0
    6.8488  -12.8749   19.6702 C   0  0  0  0  0  0  0  0  0  0  0  0
    8.0881  -12.9754   19.0918 C   0  0  0  0  0  0  0  0  0  0  0  0
    8.7818  -14.1897   19.1152 C   0  0  0  0  0  0  0  0  0  0  0  0
    9.6541  -16.2419   22.0989 C   0  0  0  0  0  0  0  0  0  0  0  0
    9.7365  -17.1474   22.9990 O   0  0  0  0  0  0  0  0  0  0  0  0
    9.0795  -15.0177   22.5134 N   0  0  0  0  0  0  0  0  0  0  0  0
    8.8021  -14.7093   23.9125 C   0  0  1  0  0  0  0  0  0  0  0  0
    8.1024  -13.3939   24.0605 C   0  0  0  0  0  0  0  0  0  0  0  0
    7.6720  -13.0472   25.3988 C   0  0  0  0  0  0  0  0  0  0  0  0
    6.3652  -13.2425   25.8506 C   0  0  0  0  0  0  0  0  0  0  0  0
    6.0262  -12.8951   27.1284 C   0  0  0  0  0  0  0  0  0  0  0  0
    6.9722  -12.3504   27.9769 C   0  0  0  0  0  0  0  0  0  0  0  0
    8.2581  -12.1472   27.5647 C   0  0  0  0  0  0  0  0  0  0  0  0
    8.5926  -12.5014   26.2707 C   0  0  0  0  0  0  0  0  0  0  0  0
    8.1080  -15.8392   24.5788 C   0  0  0  0  0  0  0  0  0  0  0  0
    7.1947  -16.5044   24.0335 O   0  0  0  0  0  0  0  0  0  0  0  0
    8.4550  -16.2494   25.9332 N   0  0  0  0  0  0  0  0  0  0  0  0
    8.7503  -17.6166   26.2282 C   0  0  1  0  0  0  0  0  0  0  0  0
    9.5533  -18.2361   25.1376 C   0  0  0  0  0  0  0  0  0  0  0  0
    9.8168  -19.6722   25.2946 C   0  0  0  0  0  0  0  0  0  0  0  0
    9.4045  -20.5892   26.2129 C   0  0  0  0  0  0  0  0  0  0  0  0
    9.9188  -21.8007   25.8689 N   0  0  0  0  0  0  0  0  0  0  0  0
   10.6317  -21.6285   24.7607 C   0  0  0  0  0  0  0  0  0  0  0  0
   10.5966  -20.3514   24.3773 N   0  0  0  0  0  0  0  0  0  0  0  0
    9.3809  -17.8092   27.5734 C   0  0  0  0  0  0  0  0  0  0  0  0
   10.4277  -17.0436   28.0294 O   0  0  0  0  0  0  0  0  0  0  0  0
    8.9055  -18.7210   28.2935 O   0  0  0  0  0  0  0  0  0  0  0  0
  2  1  1  1
  3  4  1  0
  3  2  1  0
  4  5  2  0
  5  6  1  0
  7  6  2  0
  8  7  1  0
  9  8  2  0
  9  4  1  0
 10  2  1  0
 10 11  2  0
 12 10  1  0
 13 12  1  0
 13 14  1  6
 15 14  1  0
 15 20  1  0
 16 15  2  0
 17 16  1  0
 17 18  2  0
 18 19  1  0
 19 20  2  0
 21 13  1  0
 22 21  2  0
 23 21  1  0
 24 23  1  0
 24 25  1  6
 25 26  1  0
 26 30  1  0
 26 27  2  0
 27 28  1  0
 28 29  1  0
 30 29  2  0
 31 24  1  0
 32 31  1  0
 33 31  2  0
M  END
$$$$
