FFH.pdb
     RDKit          3D

 33 35  0  0  1  0  0  0  0  0999 V2000
    9.7068  -17.7121   19.8529 N   0  0  0  0  0  0  0  0  0  0  0  0
    9.2873  -16.5937   20.6454 C   0  0  1  0  0  0  0  0  0  0  0  0
    7.8395  -16.1972   20.3397 C   0  0  0  0  0  0  0  0  0  0  0  0
    7.6888  -14.7200   20.4799 C   0  0  0  0  0  0  0  0  0  0  0  0
    8.2500  -13.8400   19.5768 C   0  0  0  0  0  0  0  0  0  0  0  0
    8.1108  -12.4598   19.7060 C   0  0  0  0  0  0  0  0  0  0  0  0
    7.4042  -11.9373   20.7462 C   0  0  0  0  0  0  0  0  0  0  0  0
    6.8339  -12.7848   21.6612 C   0  0  0  0  0  0  0  0  0  0  0  0
    6.9772  -14.1695   21.5262 C   0  0  0  0  0  0  0  0  0  0  0  0
    9.5067  -16.7769   22.0824 C   0  0  0  0  0  0  0  0  0  0  0  0
   10.2691  -17.7179   22.4948 O   0  0  0  0  0  0  0  0  0  0  0  0
    8.9267  -15.9728   23.0913 N   0  0  0  0  0  0  0  0  0  0  0  0
    9.5207  -15.8164   24.4151 C   0  0  1  0  0  0  0  0  0  0  0  0
    8.7061  -14.9079   25.2827 C   0  0  0  0  0  0  0  0  0  0  0  0
    9.1998  -14.6981   26.6276 C   0  0  0  0  0  0  0  0  0  0  0  0
    9.9287  -13.5670   27.0009 C   0  0  0  0  0  0  0  0  0  0  0  0
   10.3632  -13.4303   28.2897 C   0  0  0  0  0  0  0  0  0  0  0  0
   10.0840  -14.4077   29.2268 C   0  0  0  0  0  0  0  0  0  0  0  0
    9.3735  -15.5250   28.8926 C   0  0  0  0  0  0  0  0  0  0  0  0
    8.9378  -15.6555   27.5869 C   0  0  0  0  0  0  0  0  0  0  0  0
    9.8086  -17.1367   25.0284 C   0  0  0  0  0  0  0  0  0  0  0  0
    8.9382  -18.0256   25.1902 O   0  0  0  0  0  0  0  0  0  0  0  0
   11.1473  -17.4837   25.4873 N   0  0  0  0  0  0  0  0  0  0  0  0
   11.3979  -18.7394   26.1228 C   0  0  1  0  0  0  0  0  0  0  0  0
   12.3890  -19.5394   25.3510 C   0  0  0  0  0  0  0  0  0  0  0  0
   12.7076  -20.8554   25.9193 C   0  0  0  0  0  0  0  0  0  0  0  0
   12.4128  -21.4386   27.1139 C   0  0  0  0  0  0  0  0  0  0  0  0
   12.9261  -22.6984   27.1136 N   0  0  0  0  0  0  0  0  0  0  0  0
   13.5231  -22.8829   25.9407 C   0  0  0  0  0  0  0  0  0  0  0  0
   13.4143  -21.7893   25.1848 N   0  0  0  0  0  0  0  0  0  0  0  0
   11.7794  -18.6070   27.5655 C   0  0  0  0  0  0  0  0  0  0  0  0
   12.0512  -17.3994   28.1634 O   0  0  0  0  0  0  0  0  0  0  0  0
   11.8433  -19.6694   28.2314 O   0  0  0  0  0  0  0  0  0  0  0  0
  2  1  1  6
  3  4  1  0
  3  2  1  0
  4  5  2  0
  5  6  1  0
  7  6  2  0
  8  7  1  0
  9  8  2  0
  9  4  1  0
 10  2  1  0
 10 11  2  0
 12 10  1  0
 13 12  1  0
 13 14  1  1
 15 14  1  0
 15 20  1  0
 16 15  2  0
 17 16  1  0
 17 18  2  0
 18 19  1  0
 19 20  2  0
 21 13  1  0
 22 21  2  0
 23 21  1  0
 24 23  1  0
 24 25  1  6
 25 26  1  0
 26 30  1  0
 26 27  2  0
 27 28  1  0
 28 29  1  0
 30 29  2  0
 31 24  1  0
 32 31  1  0
 33 31  2  0
M  END
$$$$
