NVG.pdb
     RDKit          3D

 20 19  0  0  1  0  0  0  0  0999 V2000
   28.6462  -21.2506  -17.1727 N   0  0  0  0  0  0  0  0  0  0  0  0
   27.3213  -20.7552  -17.3841 C   0  0  0  0  0  0  0  0  0  0  0  0
   27.0873  -20.0303  -18.3827 O   0  0  0  0  0  0  0  0  0  0  0  0
   26.1966  -21.0655  -16.4614 C   0  0  0  0  0  0  0  0  0  0  0  0
   26.7718  -21.8820  -15.3141 C   0  0  2  0  0  0  0  0  0  0  0  0
   27.0625  -23.2156  -15.8199 N   0  0  0  0  0  0  0  0  0  0  0  0
   25.8066  -21.9503  -14.1860 C   0  0  0  0  0  0  0  0  0  0  0  0
   25.0909  -22.9677  -14.0746 O   0  0  0  0  0  0  0  0  0  0  0  0
   24.1967  -20.7742   -9.8054 C   0  0  0  0  0  0  0  0  0  0  0  0
   25.2504  -20.4859  -10.8512 C   0  0  1  0  0  0  0  0  0  0  0  0
   26.5453  -21.0534  -10.3806 C   0  0  0  0  0  0  0  0  0  0  0  0
   24.7693  -21.0834  -12.1470 C   0  0  2  0  0  0  0  0  0  0  0  0
   25.6665  -20.9112  -13.2355 N   0  0  0  0  0  0  0  0  0  0  0  0
   23.4735  -20.4109  -12.5019 C   0  0  0  0  0  0  0  0  0  0  0  0
   23.4327  -19.1696  -12.6131 O   0  0  0  0  0  0  0  0  0  0  0  0
   22.2978  -21.1554  -12.7129 N   0  0  0  0  0  0  0  0  0  0  0  0
   21.0794  -20.4659  -13.0986 C   0  0  0  0  0  0  0  0  0  0  0  0
   20.0248  -20.7237  -12.0908 C   0  0  0  0  0  0  0  0  0  0  0  0
   18.9438  -19.8851  -11.9877 O   0  0  0  0  0  0  0  0  0  0  0  0
   20.1147  -21.7177  -11.3202 O   0  0  0  0  0  0  0  0  0  0  0  0
  2  3  2  0
  2  1  1  0
  4  2  1  0
  5  4  1  0
  5  7  1  0
  5  6  1  6
  7  8  2  0
 10 12  1  0
 10  9  1  1
 11 10  1  0
 12 13  1  6
 13  7  1  0
 14 16  1  0
 14 12  1  0
 15 14  2  0
 17 18  1  0
 17 16  1  0
 18 19  1  0
 20 18  2  0
M  END
$$$$
