NVG.pdb
     RDKit          3D

 20 19  0  0  1  0  0  0  0  0999 V2000
   27.4356  -20.0423  -18.7226 N   0  0  0  0  0  0  0  0  0  0  0  0
   27.2563  -19.7565  -17.3327 C   0  0  0  0  0  0  0  0  0  0  0  0
   28.0203  -18.9335  -16.7702 O   0  0  0  0  0  0  0  0  0  0  0  0
   26.1920  -20.3997  -16.5166 C   0  0  0  0  0  0  0  0  0  0  0  0
   26.8863  -21.1754  -15.4075 C   0  0  2  0  0  0  0  0  0  0  0  0
   27.3653  -22.4279  -15.9740 N   0  0  0  0  0  0  0  0  0  0  0  0
   25.9476  -21.4352  -14.2849 C   0  0  0  0  0  0  0  0  0  0  0  0
   25.2480  -22.4691  -14.3200 O   0  0  0  0  0  0  0  0  0  0  0  0
   24.3349  -20.9617   -9.7759 C   0  0  0  0  0  0  0  0  0  0  0  0
   25.4011  -20.5317  -10.7586 C   0  0  1  0  0  0  0  0  0  0  0  0
   26.6786  -21.2028  -10.3874 C   0  0  0  0  0  0  0  0  0  0  0  0
   24.9116  -20.8936  -12.1359 C   0  0  2  0  0  0  0  0  0  0  0  0
   25.8153  -20.5601  -13.1806 N   0  0  0  0  0  0  0  0  0  0  0  0
   23.6308  -20.1445  -12.3724 C   0  0  0  0  0  0  0  0  0  0  0  0
   23.6314  -18.8979  -12.3469 O   0  0  0  0  0  0  0  0  0  0  0  0
   22.4234  -20.8229  -12.6235 N   0  0  0  0  0  0  0  0  0  0  0  0
   21.1925  -20.0620  -12.7441 C   0  0  0  0  0  0  0  0  0  0  0  0
   20.0944  -20.7862  -12.0628 C   0  0  0  0  0  0  0  0  0  0  0  0
   18.8736  -20.1862  -11.8842 O   0  0  0  0  0  0  0  0  0  0  0  0
   20.2759  -21.9610  -11.6421 O   0  0  0  0  0  0  0  0  0  0  0  0
  2  3  2  0
  2  1  1  0
  4  2  1  0
  5  4  1  0
  5  7  1  0
  5  6  1  6
  7  8  2  0
 10 12  1  0
 10  9  1  1
 11 10  1  0
 12 13  1  6
 13  7  1  0
 14 16  1  0
 14 12  1  0
 15 14  2  0
 17 18  1  0
 17 16  1  0
 18 19  1  0
 20 18  2  0
M  END
$$$$
