NVG.pdb
     RDKit          3D

 20 19  0  0  1  0  0  0  0  0999 V2000
   27.9343  -18.9705  -18.1067 N   0  0  0  0  0  0  0  0  0  0  0  0
   28.2135  -20.3355  -17.7838 C   0  0  0  0  0  0  0  0  0  0  0  0
   29.2069  -20.9004  -18.3048 O   0  0  0  0  0  0  0  0  0  0  0  0
   27.3680  -21.1229  -16.8470 C   0  0  0  0  0  0  0  0  0  0  0  0
   27.7290  -20.6786  -15.4377 C   0  0  2  0  0  0  0  0  0  0  0  0
   29.0687  -21.1683  -15.1470 N   0  0  0  0  0  0  0  0  0  0  0  0
   26.7522  -21.2149  -14.4543 C   0  0  0  0  0  0  0  0  0  0  0  0
   26.6271  -22.4534  -14.3532 O   0  0  0  0  0  0  0  0  0  0  0  0
   24.5373  -21.2372  -10.2856 C   0  0  0  0  0  0  0  0  0  0  0  0
   25.4689  -20.5052  -11.2256 C   0  0  1  0  0  0  0  0  0  0  0  0
   26.8715  -20.7904  -10.8115 C   0  0  0  0  0  0  0  0  0  0  0  0
   25.1498  -20.9691  -12.6222 C   0  0  2  0  0  0  0  0  0  0  0  0
   25.9603  -20.3805  -13.6301 N   0  0  0  0  0  0  0  0  0  0  0  0
   23.7196  -20.6051  -12.9043 C   0  0  0  0  0  0  0  0  0  0  0  0
   23.3774  -19.4061  -12.9083 O   0  0  0  0  0  0  0  0  0  0  0  0
   22.7521  -21.5934  -13.1657 N   0  0  0  0  0  0  0  0  0  0  0  0
   21.4232  -21.1919  -13.5916 C   0  0  0  0  0  0  0  0  0  0  0  0
   20.4865  -21.2898  -12.4481 C   0  0  0  0  0  0  0  0  0  0  0  0
   19.2082  -20.8030  -12.5548 O   0  0  0  0  0  0  0  0  0  0  0  0
   20.8596  -21.8222  -11.3677 O   0  0  0  0  0  0  0  0  0  0  0  0
  2  3  2  0
  2  1  1  0
  4  2  1  0
  5  4  1  0
  5  7  1  0
  5  6  1  1
  7  8  2  0
 10 12  1  0
 10  9  1  1
 11 10  1  0
 12 13  1  6
 13  7  1  0
 14 16  1  0
 14 12  1  0
 15 14  2  0
 17 18  1  0
 17 16  1  0
 18 19  1  0
 20 18  2  0
M  END
$$$$
