NVG.pdb
     RDKit          3D

 20 19  0  0  1  0  0  0  0  0999 V2000
   15.2776  -11.0558  -16.4070 N   0  0  0  0  0  0  0  0  0  0  0  0
   15.5909  -10.6259  -15.0794 C   0  0  0  0  0  0  0  0  0  0  0  0
   14.6580  -10.4012  -14.2690 O   0  0  0  0  0  0  0  0  0  0  0  0
   16.9898  -10.4317  -14.6128 C   0  0  0  0  0  0  0  0  0  0  0  0
   17.9008  -10.7325  -15.7933 C   0  0  2  0  0  0  0  0  0  0  0  0
   18.0018  -12.1791  -15.9192 N   0  0  0  0  0  0  0  0  0  0  0  0
   19.2438  -10.1315  -15.5835 C   0  0  0  0  0  0  0  0  0  0  0  0
   20.0904  -10.7773  -14.9309 O   0  0  0  0  0  0  0  0  0  0  0  0
   23.0307   -7.5978  -16.8575 C   0  0  0  0  0  0  0  0  0  0  0  0
   21.6441   -8.0843  -17.2151 C   0  0  1  0  0  0  0  0  0  0  0  0
   21.7790   -9.2627  -18.1170 C   0  0  0  0  0  0  0  0  0  0  0  0
   20.9328   -8.3950  -15.9247 C   0  0  2  0  0  0  0  0  0  0  0  0
   19.6006   -8.8600  -16.0922 N   0  0  0  0  0  0  0  0  0  0  0  0
   20.8851   -7.1284  -15.1179 C   0  0  0  0  0  0  0  0  0  0  0  0
   20.1392   -6.1959  -15.4769 O   0  0  0  0  0  0  0  0  0  0  0  0
   21.6682   -6.9703  -13.9591 N   0  0  0  0  0  0  0  0  0  0  0  0
   21.4764   -5.7963  -13.1264 C   0  0  0  0  0  0  0  0  0  0  0  0
   21.9781   -4.5978  -13.8378 C   0  0  0  0  0  0  0  0  0  0  0  0
   21.5051   -3.3509  -13.5153 O   0  0  0  0  0  0  0  0  0  0  0  0
   22.8447   -4.7169  -14.7460 O   0  0  0  0  0  0  0  0  0  0  0  0
  2  3  2  0
  2  1  1  0
  4  2  1  0
  5  4  1  0
  5  7  1  0
  5  6  1  1
  7  8  2  0
 10 12  1  0
 10  9  1  1
 11 10  1  0
 12 13  1  6
 13  7  1  0
 14 16  1  0
 14 12  1  0
 15 14  2  0
 17 18  1  0
 17 16  1  0
 18 19  1  0
 20 18  2  0
M  END
$$$$
