NVG.pdb
     RDKit          3D

 20 19  0  0  1  0  0  0  0  0999 V2000
   21.2523  -14.0074  -17.1048 N   0  0  0  0  0  0  0  0  0  0  0  0
   21.9260  -13.0010  -17.8656 C   0  0  0  0  0  0  0  0  0  0  0  0
   23.0009  -13.2869  -18.4489 O   0  0  0  0  0  0  0  0  0  0  0  0
   21.4018  -11.6151  -17.9966 C   0  0  0  0  0  0  0  0  0  0  0  0
   20.0464  -11.5827  -17.3069 C   0  0  2  0  0  0  0  0  0  0  0  0
   19.0565  -12.0843  -18.2489 N   0  0  0  0  0  0  0  0  0  0  0  0
   19.7091  -10.1989  -16.8824 C   0  0  0  0  0  0  0  0  0  0  0  0
   19.4969   -9.3400  -17.7639 O   0  0  0  0  0  0  0  0  0  0  0  0
   17.6260   -6.9477  -14.2048 C   0  0  0  0  0  0  0  0  0  0  0  0
   17.8619   -8.4014  -14.5489 C   0  0  1  0  0  0  0  0  0  0  0  0
   16.7494   -8.8617  -15.4267 C   0  0  0  0  0  0  0  0  0  0  0  0
   19.2166   -8.4925  -15.2000 C   0  0  2  0  0  0  0  0  0  0  0  0
   19.6190   -9.8165  -15.5229 N   0  0  0  0  0  0  0  0  0  0  0  0
   20.2204   -7.9232  -14.2378 C   0  0  0  0  0  0  0  0  0  0  0  0
   20.2955   -8.3824  -13.0810 O   0  0  0  0  0  0  0  0  0  0  0  0
   21.0828   -6.8770  -14.6157 N   0  0  0  0  0  0  0  0  0  0  0  0
   22.0785   -6.4008  -13.6721 C   0  0  0  0  0  0  0  0  0  0  0  0
   22.0312   -4.9216  -13.6073 C   0  0  0  0  0  0  0  0  0  0  0  0
   22.8976   -4.2347  -12.7950 O   0  0  0  0  0  0  0  0  0  0  0  0
   21.1926   -4.2839  -14.3001 O   0  0  0  0  0  0  0  0  0  0  0  0
  2  3  2  0
  2  1  1  0
  4  2  1  0
  5  4  1  0
  5  7  1  0
  5  6  1  6
  7  8  2  0
 10 12  1  0
 10  9  1  6
 11 10  1  0
 12 13  1  1
 13  7  1  0
 14 16  1  0
 14 12  1  0
 15 14  2  0
 17 18  1  0
 17 16  1  0
 18 19  1  0
 20 18  2  0
M  END
$$$$
