NVG.pdb
     RDKit          3D

 20 19  0  0  1  0  0  0  0  0999 V2000
   25.3209  -13.6623  -15.7859 N   0  0  0  0  0  0  0  0  0  0  0  0
   26.1373  -12.5168  -16.0442 C   0  0  0  0  0  0  0  0  0  0  0  0
   27.3777  -12.5912  -15.8615 O   0  0  0  0  0  0  0  0  0  0  0  0
   25.5735  -11.2272  -16.5253 C   0  0  0  0  0  0  0  0  0  0  0  0
   24.0661  -11.4069  -16.6230 C   0  0  2  0  0  0  0  0  0  0  0  0
   23.8003  -12.3556  -17.6944 N   0  0  0  0  0  0  0  0  0  0  0  0
   23.4017  -10.1066  -16.9001 C   0  0  0  0  0  0  0  0  0  0  0  0
   23.1177   -9.8225  -18.0826 O   0  0  0  0  0  0  0  0  0  0  0  0
   20.3628   -8.8594  -14.8830 C   0  0  0  0  0  0  0  0  0  0  0  0
   20.7828   -8.3906  -16.2582 C   0  0  1  0  0  0  0  0  0  0  0  0
   19.9350   -7.2245  -16.6348 C   0  0  0  0  0  0  0  0  0  0  0  0
   22.2519   -8.0671  -16.1909 C   0  0  2  0  0  0  0  0  0  0  0  0
   23.0789   -9.1801  -15.8803 N   0  0  0  0  0  0  0  0  0  0  0  0
   22.4391   -7.0344  -15.1156 C   0  0  0  0  0  0  0  0  0  0  0  0
   22.3454   -7.3671  -13.9176 O   0  0  0  0  0  0  0  0  0  0  0  0
   22.7195   -5.6921  -15.4328 N   0  0  0  0  0  0  0  0  0  0  0  0
   22.9950   -4.7513  -14.3615 C   0  0  0  0  0  0  0  0  0  0  0  0
   21.7360   -4.0885  -13.9493 C   0  0  0  0  0  0  0  0  0  0  0  0
   21.7495   -3.1115  -12.9861 O   0  0  0  0  0  0  0  0  0  0  0  0
   20.6422   -4.4190  -14.4825 O   0  0  0  0  0  0  0  0  0  0  0  0
  2  3  2  0
  2  1  1  0
  4  2  1  0
  5  4  1  0
  5  7  1  0
  5  6  1  6
  7  8  2  0
 10 12  1  0
 10  9  1  1
 11 10  1  0
 12 13  1  1
 13  7  1  0
 14 16  1  0
 14 12  1  0
 15 14  2  0
 17 18  1  0
 17 16  1  0
 18 19  1  0
 20 18  2  0
M  END
$$$$
