NVG.pdb
     RDKit          3D

 20 19  0  0  1  0  0  0  0  0999 V2000
   21.7435  -12.0751  -21.3094 N   0  0  0  0  0  0  0  0  0  0  0  0
   21.1435  -10.7772  -21.2772 C   0  0  0  0  0  0  0  0  0  0  0  0
   21.0840  -10.1003  -22.3335 O   0  0  0  0  0  0  0  0  0  0  0  0
   20.5808  -10.1889  -20.0323 C   0  0  0  0  0  0  0  0  0  0  0  0
   20.7945  -11.2054  -18.9210 C   0  0  2  0  0  0  0  0  0  0  0  0
   19.7523  -12.2151  -19.0361 N   0  0  0  0  0  0  0  0  0  0  0  0
   20.7374  -10.5451  -17.5908 C   0  0  0  0  0  0  0  0  0  0  0  0
   19.6363  -10.4782  -17.0053 O   0  0  0  0  0  0  0  0  0  0  0  0
   22.3278   -9.3302  -13.3182 C   0  0  0  0  0  0  0  0  0  0  0  0
   22.7108   -9.9328  -14.6515 C   0  0  1  0  0  0  0  0  0  0  0  0
   22.6815  -11.4169  -14.5207 C   0  0  0  0  0  0  0  0  0  0  0  0
   21.7437   -9.4019  -15.6763 C   0  0  2  0  0  0  0  0  0  0  0  0
   21.8779   -9.9906  -16.9626 N   0  0  0  0  0  0  0  0  0  0  0  0
   21.9930   -7.9264  -15.8121 C   0  0  0  0  0  0  0  0  0  0  0  0
   23.1369   -7.4728  -15.6106 O   0  0  0  0  0  0  0  0  0  0  0  0
   20.9579   -7.0399  -16.1638 N   0  0  0  0  0  0  0  0  0  0  0  0
   21.2213   -5.6120  -16.1841 C   0  0  0  0  0  0  0  0  0  0  0  0
   20.2004   -4.9090  -15.3730 C   0  0  0  0  0  0  0  0  0  0  0  0
   20.2659   -3.5493  -15.2020 O   0  0  0  0  0  0  0  0  0  0  0  0
   19.2632   -5.5578  -14.8337 O   0  0  0  0  0  0  0  0  0  0  0  0
  2  3  2  0
  2  1  1  0
  4  2  1  0
  5  4  1  0
  5  7  1  0
  5  6  1  1
  7  8  2  0
 10 12  1  0
 10  9  1  1
 11 10  1  0
 12 13  1  6
 13  7  1  0
 14 16  1  0
 14 12  1  0
 15 14  2  0
 17 18  1  0
 17 16  1  0
 18 19  1  0
 20 18  2  0
M  END
$$$$
