NVG.pdb
     RDKit          3D

 20 19  0  0  1  0  0  0  0  0999 V2000
   20.5189  -14.8243  -16.0660 N   0  0  0  0  0  0  0  0  0  0  0  0
   21.7833  -14.1582  -16.0106 C   0  0  0  0  0  0  0  0  0  0  0  0
   22.7932  -14.7871  -15.6081 O   0  0  0  0  0  0  0  0  0  0  0  0
   21.9547  -12.7368  -16.4140 C   0  0  0  0  0  0  0  0  0  0  0  0
   20.5920  -12.2321  -16.8637 C   0  0  2  0  0  0  0  0  0  0  0  0
   20.2988  -12.8358  -18.1554 N   0  0  0  0  0  0  0  0  0  0  0  0
   20.5922  -10.7495  -16.9682 C   0  0  0  0  0  0  0  0  0  0  0  0
   21.0043  -10.2265  -18.0248 O   0  0  0  0  0  0  0  0  0  0  0  0
   18.9195   -6.4074  -16.3459 C   0  0  0  0  0  0  0  0  0  0  0  0
   18.7530   -7.8954  -16.1326 C   0  0  1  0  0  0  0  0  0  0  0  0
   17.8801   -8.4292  -17.2158 C   0  0  0  0  0  0  0  0  0  0  0  0
   20.1311   -8.5020  -16.1192 C   0  0  2  0  0  0  0  0  0  0  0  0
   20.1454   -9.9090  -15.9210 N   0  0  0  0  0  0  0  0  0  0  0  0
   20.8945   -7.8660  -14.9921 C   0  0  0  0  0  0  0  0  0  0  0  0
   20.5019   -8.0172  -13.8183 O   0  0  0  0  0  0  0  0  0  0  0  0
   22.0498   -7.0990  -15.2334 N   0  0  0  0  0  0  0  0  0  0  0  0
   22.8027   -6.5747  -14.1079 C   0  0  0  0  0  0  0  0  0  0  0  0
   22.2380   -5.2670  -13.7011 C   0  0  0  0  0  0  0  0  0  0  0  0
   22.7652   -4.5857  -12.6333 O   0  0  0  0  0  0  0  0  0  0  0  0
   21.2673   -4.7715  -14.3352 O   0  0  0  0  0  0  0  0  0  0  0  0
  2  3  2  0
  2  1  1  0
  4  2  1  0
  5  4  1  0
  5  7  1  0
  5  6  1  6
  7  8  2  0
 10 12  1  0
 10  9  1  6
 11 10  1  0
 12 13  1  1
 13  7  1  0
 14 16  1  0
 14 12  1  0
 15 14  2  0
 17 18  1  0
 17 16  1  0
 18 19  1  0
 20 18  2  0
M  END
$$$$
