NVG.pdb
     RDKit          3D

 20 19  0  0  1  0  0  0  0  0999 V2000
   16.5569  -11.8223  -18.0825 N   0  0  0  0  0  0  0  0  0  0  0  0
   16.0841  -10.9849  -17.0238 C   0  0  0  0  0  0  0  0  0  0  0  0
   14.9123  -10.5352  -17.0713 O   0  0  0  0  0  0  0  0  0  0  0  0
   16.9306  -10.6200  -15.8564 C   0  0  0  0  0  0  0  0  0  0  0  0
   18.3001  -11.2411  -16.0856 C   0  0  2  0  0  0  0  0  0  0  0  0
   18.2231  -12.6420  -15.6979 N   0  0  0  0  0  0  0  0  0  0  0  0
   19.3348  -10.5342  -15.2865 C   0  0  0  0  0  0  0  0  0  0  0  0
   19.2783  -10.6064  -14.0409 O   0  0  0  0  0  0  0  0  0  0  0  0
   22.8234  -11.1696  -15.0178 C   0  0  0  0  0  0  0  0  0  0  0  0
   22.7762   -9.6942  -15.3470 C   0  0  1  0  0  0  0  0  0  0  0  0
   23.1714   -9.5194  -16.7730 C   0  0  0  0  0  0  0  0  0  0  0  0
   21.3806   -9.2141  -15.0482 C   0  0  2  0  0  0  0  0  0  0  0  0
   20.3788   -9.7847  -15.8789 N   0  0  0  0  0  0  0  0  0  0  0  0
   21.3608   -7.7255  -15.2518 C   0  0  0  0  0  0  0  0  0  0  0  0
   21.0031   -7.2578  -16.3508 O   0  0  0  0  0  0  0  0  0  0  0  0
   21.7395   -6.8424  -14.2232 N   0  0  0  0  0  0  0  0  0  0  0  0
   21.5815   -5.4125  -14.4203 C   0  0  0  0  0  0  0  0  0  0  0  0
   22.0040   -4.6946  -13.1953 C   0  0  0  0  0  0  0  0  0  0  0  0
   22.4148   -5.3935  -12.0884 O   0  0  0  0  0  0  0  0  0  0  0  0
   21.9886   -3.4342  -13.1628 O   0  0  0  0  0  0  0  0  0  0  0  0
  2  3  2  0
  2  1  1  0
  4  2  1  0
  5  4  1  0
  5  7  1  0
  5  6  1  1
  7  8  2  0
 10 12  1  0
 10  9  1  6
 11 10  1  0
 12 13  1  6
 13  7  1  0
 14 16  1  0
 14 12  1  0
 15 14  2  0
 17 18  1  0
 17 16  1  0
 18 19  1  0
 20 18  2  0
M  END
$$$$
