NVG.pdb
     RDKit          3D

 20 19  0  0  1  0  0  0  0  0999 V2000
   28.0908  -18.8024  -17.7643 N   0  0  0  0  0  0  0  0  0  0  0  0
   27.6084  -18.6051  -16.4325 C   0  0  0  0  0  0  0  0  0  0  0  0
   28.0895  -17.6782  -15.7347 O   0  0  0  0  0  0  0  0  0  0  0  0
   26.5498  -19.4605  -15.8323 C   0  0  0  0  0  0  0  0  0  0  0  0
   27.2261  -20.3523  -14.8021 C   0  0  2  0  0  0  0  0  0  0  0  0
   27.9824  -21.3671  -15.5210 N   0  0  0  0  0  0  0  0  0  0  0  0
   26.2155  -20.9849  -13.9148 C   0  0  0  0  0  0  0  0  0  0  0  0
   25.5885  -21.9783  -14.3389 O   0  0  0  0  0  0  0  0  0  0  0  0
   26.7453  -21.7352  -10.1946 C   0  0  0  0  0  0  0  0  0  0  0  0
   25.3348  -21.2079  -10.3346 C   0  0  1  0  0  0  0  0  0  0  0  0
   25.2765  -19.8550   -9.7130 C   0  0  0  0  0  0  0  0  0  0  0  0
   25.0011  -21.2083  -11.8029 C   0  0  2  0  0  0  0  0  0  0  0  0
   25.9360  -20.5080  -12.6121 N   0  0  0  0  0  0  0  0  0  0  0  0
   23.6612  -20.5473  -11.9627 C   0  0  0  0  0  0  0  0  0  0  0  0
   23.4937  -19.3838  -11.5469 O   0  0  0  0  0  0  0  0  0  0  0  0
   22.5849  -21.2164  -12.5749 N   0  0  0  0  0  0  0  0  0  0  0  0
   21.2711  -20.5979  -12.5749 C   0  0  0  0  0  0  0  0  0  0  0  0
   20.3310  -21.4333  -13.3578 C   0  0  0  0  0  0  0  0  0  0  0  0
   19.0240  -21.0463  -13.5138 O   0  0  0  0  0  0  0  0  0  0  0  0
   20.7275  -22.5071  -13.8864 O   0  0  0  0  0  0  0  0  0  0  0  0
  2  3  2  0
  2  1  1  0
  4  2  1  0
  5  4  1  0
  5  7  1  0
  5  6  1  6
  7  8  2  0
 10 12  1  0
 10  9  1  6
 11 10  1  0
 12 13  1  6
 13  7  1  0
 14 16  1  0
 14 12  1  0
 15 14  2  0
 17 18  1  0
 17 16  1  0
 18 19  1  0
 20 18  2  0
M  END
$$$$
