DQR.pdb
     RDKit          3D

 29 28  0  0  1  0  0  0  0  0999 V2000
   26.6530  -20.6660  -17.8916 N   0  0  0  0  0  0  0  0  0  0  0  0
   26.2943  -19.6271  -16.9436 C   0  0  1  0  0  0  0  0  0  0  0  0
   25.6168  -18.4701  -17.6398 C   0  0  0  0  0  0  0  0  0  0  0  0
   26.5939  -17.7219  -18.4318 C   0  0  0  0  0  0  0  0  0  0  0  0
   27.8107  -18.0085  -18.3553 O   0  0  0  0  0  0  0  0  0  0  0  0
   25.3568  -20.2004  -15.9267 C   0  0  0  0  0  0  0  0  0  0  0  0
   24.2497  -20.6376  -16.2847 O   0  0  0  0  0  0  0  0  0  0  0  0
   26.1969  -16.7021  -19.2647 O   0  0  0  0  0  0  0  0  0  0  0  0
   26.5397  -21.2452   -9.8203 N   0  0  0  0  0  0  0  0  0  0  0  0
   25.1462  -21.5302   -9.8401 C   0  0  0  0  0  0  0  0  0  0  0  0
   24.5522  -21.8899   -8.8173 O   0  0  0  0  0  0  0  0  0  0  0  0
   24.4610  -21.3640  -11.1748 C   0  0  0  0  0  0  0  0  0  0  0  0
   25.4499  -20.9501  -12.2295 C   0  0  0  0  0  0  0  0  0  0  0  0
   24.7754  -20.7214  -13.5242 C   0  0  2  0  0  0  0  0  0  0  0  0
   25.6886  -20.2633  -14.5585 N   0  0  0  0  0  0  0  0  0  0  0  0
   23.6023  -19.8373  -13.5286 C   0  0  0  0  0  0  0  0  0  0  0  0
   23.7064  -18.6060  -13.3592 O   0  0  0  0  0  0  0  0  0  0  0  0
   17.9363  -15.8416  -17.8641 N   0  0  0  0  0  0  0  0  0  0  0  0
   18.9280  -16.6900  -18.4722 C   0  0  0  0  0  0  0  0  0  0  0  0
   19.0722  -16.8207  -19.7383 N   0  0  0  0  0  0  0  0  0  0  0  0
   19.7977  -17.4325  -17.6244 N   0  0  0  0  0  0  0  0  0  0  0  0
   19.8028  -17.2260  -16.1989 C   0  0  0  0  0  0  0  0  0  0  0  0
   20.9194  -18.0018  -15.5242 C   0  0  0  0  0  0  0  0  0  0  0  0
   20.4840  -19.2795  -14.9140 C   0  0  0  0  0  0  0  0  0  0  0  0
   21.0966  -19.4808  -13.5565 C   0  0  2  0  0  0  0  0  0  0  0  0
   22.2893  -20.3453  -13.7260 N   0  0  0  0  0  0  0  0  0  0  0  0
   20.1171  -20.1770  -12.6871 C   0  0  0  0  0  0  0  0  0  0  0  0
   19.0957  -19.5915  -11.9863 O   0  0  0  0  0  0  0  0  0  0  0  0
   20.2466  -21.4520  -12.5849 O   0  0  0  0  0  0  0  0  0  0  0  0
  2  3  1  0
  2  1  1  6
  4  3  1  0
  5  4  2  0
  6  2  1  0
  7  6  2  0
  8  4  1  0
  9 10  1  0
 10 12  1  0
 11 10  2  0
 12 13  1  0
 14 13  1  1
 14 15  1  0
 15  6  1  0
 16 14  1  0
 16 17  2  0
 18 19  1  0
 19 21  1  0
 20 19  2  0
 21 22  1  0
 22 23  1  0
 23 24  1  0
 25 24  1  6
 26 25  1  0
 26 16  1  0
 27 25  1  0
 28 27  1  0
 29 27  2  0
M  END
$$$$
