DQR.pdb
     RDKit          3D

 29 28  0  0  1  0  0  0  0  0999 V2000
   28.7223  -21.5025  -17.7101 N   0  0  0  0  0  0  0  0  0  0  0  0
   28.7560  -20.3985  -16.7685 C   0  0  1  0  0  0  0  0  0  0  0  0
   27.7068  -19.3659  -17.1079 C   0  0  0  0  0  0  0  0  0  0  0  0
   28.2054  -18.4717  -18.1536 C   0  0  0  0  0  0  0  0  0  0  0  0
   29.3501  -18.6462  -18.6309 O   0  0  0  0  0  0  0  0  0  0  0  0
   28.4932  -20.9260  -15.3921 C   0  0  0  0  0  0  0  0  0  0  0  0
   27.6148  -21.7881  -15.2186 O   0  0  0  0  0  0  0  0  0  0  0  0
   27.4339  -17.4355  -18.6250 O   0  0  0  0  0  0  0  0  0  0  0  0
   31.9270  -22.3434  -10.9062 N   0  0  0  0  0  0  0  0  0  0  0  0
   30.8329  -22.0547  -10.0442 C   0  0  0  0  0  0  0  0  0  0  0  0
   30.7677  -22.5397   -8.9089 O   0  0  0  0  0  0  0  0  0  0  0  0
   29.7796  -21.1315  -10.6069 C   0  0  0  0  0  0  0  0  0  0  0  0
   30.1188  -20.7398  -12.0188 C   0  0  0  0  0  0  0  0  0  0  0  0
   28.9504  -20.9072  -12.9077 C   0  0  2  0  0  0  0  0  0  0  0  0
   29.2160  -20.4742  -14.2699 N   0  0  0  0  0  0  0  0  0  0  0  0
   27.6817  -20.3043  -12.4777 C   0  0  0  0  0  0  0  0  0  0  0  0
   27.3662  -19.1401  -12.7951 O   0  0  0  0  0  0  0  0  0  0  0  0
   19.8621  -22.2528  -14.6705 N   0  0  0  0  0  0  0  0  0  0  0  0
   19.6535  -21.1338  -13.7889 C   0  0  0  0  0  0  0  0  0  0  0  0
   18.5247  -20.5468  -13.6397 N   0  0  0  0  0  0  0  0  0  0  0  0
   20.7611  -20.6435  -13.0411 N   0  0  0  0  0  0  0  0  0  0  0  0
   22.0909  -21.1517  -13.2604 C   0  0  0  0  0  0  0  0  0  0  0  0
   23.0732  -20.6116  -12.2370 C   0  0  0  0  0  0  0  0  0  0  0  0
   24.4768  -21.0236  -12.4711 C   0  0  0  0  0  0  0  0  0  0  0  0
   25.3947  -20.4872  -11.4088 C   0  0  2  0  0  0  0  0  0  0  0  0
   26.7517  -21.0214  -11.6766 N   0  0  0  0  0  0  0  0  0  0  0  0
   24.9362  -20.9783  -10.0866 C   0  0  0  0  0  0  0  0  0  0  0  0
   24.0963  -20.3227   -9.2251 O   0  0  0  0  0  0  0  0  0  0  0  0
   25.3748  -22.1299   -9.7196 O   0  0  0  0  0  0  0  0  0  0  0  0
  2  3  1  0
  2  1  1  6
  4  3  1  0
  5  4  2  0
  6  2  1  0
  7  6  2  0
  8  4  1  0
  9 10  1  0
 10 12  1  0
 11 10  2  0
 12 13  1  0
 14 13  1  1
 14 15  1  0
 15  6  1  0
 16 14  1  0
 16 17  2  0
 18 19  1  0
 19 21  1  0
 20 19  2  0
 21 22  1  0
 22 23  1  0
 23 24  1  0
 25 24  1  6
 26 25  1  0
 26 16  1  0
 27 25  1  0
 28 27  1  0
 29 27  2  0
M  END
$$$$
