DQR.pdb
     RDKit          3D

 29 28  0  0  1  0  0  0  0  0999 V2000
   28.4813  -23.0580  -16.6556 N   0  0  0  0  0  0  0  0  0  0  0  0
   27.8781  -21.7655  -16.3867 C   0  0  1  0  0  0  0  0  0  0  0  0
   27.3416  -21.1446  -17.6552 C   0  0  0  0  0  0  0  0  0  0  0  0
   28.3931  -20.3709  -18.3166 C   0  0  0  0  0  0  0  0  0  0  0  0
   29.5774  -20.4594  -17.9188 O   0  0  0  0  0  0  0  0  0  0  0  0
   26.7507  -21.9477  -15.4187 C   0  0  0  0  0  0  0  0  0  0  0  0
   26.0589  -22.9795  -15.4636 O   0  0  0  0  0  0  0  0  0  0  0  0
   28.1020  -19.5423  -19.3747 O   0  0  0  0  0  0  0  0  0  0  0  0
   26.3738  -21.6869   -9.8669 N   0  0  0  0  0  0  0  0  0  0  0  0
   24.9849  -21.3946   -9.9620 C   0  0  0  0  0  0  0  0  0  0  0  0
   24.1970  -21.7363   -9.0726 O   0  0  0  0  0  0  0  0  0  0  0  0
   24.5537  -20.6518  -11.2032 C   0  0  0  0  0  0  0  0  0  0  0  0
   25.7020  -20.5168  -12.1650 C   0  0  0  0  0  0  0  0  0  0  0  0
   25.3695  -21.1213  -13.4716 C   0  0  2  0  0  0  0  0  0  0  0  0
   26.4406  -20.9781  -14.4441 N   0  0  0  0  0  0  0  0  0  0  0  0
   24.1151  -20.7021  -14.1110 C   0  0  0  0  0  0  0  0  0  0  0  0
   24.0123  -19.6093  -14.7031 O   0  0  0  0  0  0  0  0  0  0  0  0
   16.8754  -25.4301  -15.0506 N   0  0  0  0  0  0  0  0  0  0  0  0
   17.2421  -24.6307  -13.9108 C   0  0  0  0  0  0  0  0  0  0  0  0
   16.8263  -24.8567  -12.7203 N   0  0  0  0  0  0  0  0  0  0  0  0
   18.1117  -23.5217  -14.1113 N   0  0  0  0  0  0  0  0  0  0  0  0
   18.4910  -23.1032  -15.4364 C   0  0  0  0  0  0  0  0  0  0  0  0
   19.4764  -21.9493  -15.3992 C   0  0  0  0  0  0  0  0  0  0  0  0
   20.7518  -22.2661  -14.7153 C   0  0  0  0  0  0  0  0  0  0  0  0
   21.6917  -21.0935  -14.7279 C   0  0  2  0  0  0  0  0  0  0  0  0
   22.9559  -21.5246  -14.0839 N   0  0  0  0  0  0  0  0  0  0  0  0
   21.0963  -19.9934  -13.9310 C   0  0  0  0  0  0  0  0  0  0  0  0
   20.4114  -18.9141  -14.4243 O   0  0  0  0  0  0  0  0  0  0  0  0
   21.2426  -20.0656  -12.6557 O   0  0  0  0  0  0  0  0  0  0  0  0
  2  3  1  0
  2  1  1  6
  4  3  1  0
  5  4  2  0
  6  2  1  0
  7  6  2  0
  8  4  1  0
  9 10  1  0
 10 12  1  0
 11 10  2  0
 12 13  1  0
 14 13  1  1
 14 15  1  0
 15  6  1  0
 16 14  1  0
 16 17  2  0
 18 19  1  0
 19 21  1  0
 20 19  2  0
 21 22  1  0
 22 23  1  0
 23 24  1  0
 25 24  1  1
 26 25  1  0
 26 16  1  0
 27 25  1  0
 28 27  1  0
 29 27  2  0
M  END
$$$$
