DQR.pdb
     RDKit          3D

 29 28  0  0  1  0  0  0  0  0999 V2000
   19.8040  -29.0300   -9.3492 N   0  0  0  0  0  0  0  0  0  0  0  0
   19.9288  -28.9164  -10.7907 C   0  0  1  0  0  0  0  0  0  0  0  0
   19.5095  -30.1976  -11.4727 C   0  0  0  0  0  0  0  0  0  0  0  0
   20.4948  -31.2479  -11.2124 C   0  0  0  0  0  0  0  0  0  0  0  0
   21.4937  -31.0038  -10.4974 O   0  0  0  0  0  0  0  0  0  0  0  0
   19.0516  -27.8008  -11.2677 C   0  0  0  0  0  0  0  0  0  0  0  0
   18.8752  -27.6319  -12.4864 O   0  0  0  0  0  0  0  0  0  0  0  0
   20.3423  -32.5075  -11.7429 O   0  0  0  0  0  0  0  0  0  0  0  0
   14.3209  -25.2338   -8.2286 N   0  0  0  0  0  0  0  0  0  0  0  0
   14.3615  -24.3338   -9.3294 C   0  0  0  0  0  0  0  0  0  0  0  0
   13.5050  -23.4530   -9.4675 O   0  0  0  0  0  0  0  0  0  0  0  0
   15.5041  -24.5299  -10.2960 C   0  0  0  0  0  0  0  0  0  0  0  0
   16.3754  -25.6756   -9.8601 C   0  0  0  0  0  0  0  0  0  0  0  0
   17.5116  -25.8568  -10.7873 C   0  0  2  0  0  0  0  0  0  0  0  0
   18.4092  -26.9225  -10.3722 N   0  0  0  0  0  0  0  0  0  0  0  0
   18.3240  -24.6736  -11.1005 C   0  0  0  0  0  0  0  0  0  0  0  0
   19.2854  -24.3282  -10.3852 O   0  0  0  0  0  0  0  0  0  0  0  0
   21.6646  -26.5403  -15.8422 N   0  0  0  0  0  0  0  0  0  0  0  0
   21.9492  -25.4151  -16.6941 C   0  0  0  0  0  0  0  0  0  0  0  0
   22.0865  -25.5019  -17.9648 N   0  0  0  0  0  0  0  0  0  0  0  0
   22.0923  -24.1308  -16.0968 N   0  0  0  0  0  0  0  0  0  0  0  0
   21.9353  -23.9488  -14.6766 C   0  0  0  0  0  0  0  0  0  0  0  0
   20.5774  -23.3640  -14.3332 C   0  0  0  0  0  0  0  0  0  0  0  0
   20.3015  -23.2907  -12.8796 C   0  0  0  0  0  0  0  0  0  0  0  0
   18.9342  -22.7310  -12.6041 C   0  0  2  0  0  0  0  0  0  0  0  0
   18.0510  -23.8641  -12.2368 N   0  0  0  0  0  0  0  0  0  0  0  0
   18.4167  -22.0989  -13.8419 C   0  0  0  0  0  0  0  0  0  0  0  0
   18.6827  -20.8263  -14.2744 O   0  0  0  0  0  0  0  0  0  0  0  0
   17.6434  -22.8201  -14.5734 O   0  0  0  0  0  0  0  0  0  0  0  0
  2  3  1  0
  2  1  1  1
  4  3  1  0
  5  4  2  0
  6  2  1  0
  7  6  2  0
  8  4  1  0
  9 10  1  0
 10 12  1  0
 11 10  2  0
 12 13  1  0
 14 13  1  1
 14 15  1  0
 15  6  1  0
 16 14  1  0
 16 17  2  0
 18 19  1  0
 19 21  1  0
 20 19  2  0
 21 22  1  0
 22 23  1  0
 23 24  1  0
 25 24  1  6
 26 25  1  0
 26 16  1  0
 27 25  1  0
 28 27  1  0
 29 27  2  0
M  END
$$$$
