DQR.pdb
     RDKit          3D

 29 28  0  0  1  0  0  0  0  0999 V2000
   21.5642  -17.4868  -17.4852 N   0  0  0  0  0  0  0  0  0  0  0  0
   21.4842  -18.8627  -17.0301 C   0  0  1  0  0  0  0  0  0  0  0  0
   22.4650  -19.7370  -17.7758 C   0  0  0  0  0  0  0  0  0  0  0  0
   21.9851  -19.9778  -19.1373 C   0  0  0  0  0  0  0  0  0  0  0  0
   20.9236  -19.4412  -19.5293 O   0  0  0  0  0  0  0  0  0  0  0  0
   21.8031  -18.9100  -15.5681 C   0  0  0  0  0  0  0  0  0  0  0  0
   22.6671  -18.1490  -15.0997 O   0  0  0  0  0  0  0  0  0  0  0  0
   22.6842  -20.7888  -20.0002 O   0  0  0  0  0  0  0  0  0  0  0  0
   18.3038  -21.4118  -11.0602 N   0  0  0  0  0  0  0  0  0  0  0  0
   18.0170  -20.1808  -11.7127 C   0  0  0  0  0  0  0  0  0  0  0  0
   16.9129  -19.6370  -11.5960 O   0  0  0  0  0  0  0  0  0  0  0  0
   19.1375  -19.6000  -12.5407 C   0  0  0  0  0  0  0  0  0  0  0  0
   20.3477  -20.4915  -12.4932 C   0  0  0  0  0  0  0  0  0  0  0  0
   21.4601  -19.9129  -13.2750 C   0  0  2  0  0  0  0  0  0  0  0  0
   21.1499  -19.7985  -14.6908 N   0  0  0  0  0  0  0  0  0  0  0  0
   22.7783  -20.5486  -13.1479 C   0  0  0  0  0  0  0  0  0  0  0  0
   23.3846  -21.0082  -14.1361 O   0  0  0  0  0  0  0  0  0  0  0  0
   27.1322  -21.0938  -16.4887 N   0  0  0  0  0  0  0  0  0  0  0  0
   28.4115  -21.3775  -15.8922 C   0  0  0  0  0  0  0  0  0  0  0  0
   29.2647  -22.1914  -16.3927 N   0  0  0  0  0  0  0  0  0  0  0  0
   28.7521  -20.7239  -14.6743 N   0  0  0  0  0  0  0  0  0  0  0  0
   27.7660  -19.9927  -13.9208 C   0  0  0  0  0  0  0  0  0  0  0  0
   26.7443  -20.9193  -13.2874 C   0  0  0  0  0  0  0  0  0  0  0  0
   25.7207  -20.2235  -12.4734 C   0  0  0  0  0  0  0  0  0  0  0  0
   24.8083  -21.1974  -11.7823 C   0  0  2  0  0  0  0  0  0  0  0  0
   23.4263  -20.6708  -11.8884 N   0  0  0  0  0  0  0  0  0  0  0  0
   25.1856  -21.2741  -10.3500 C   0  0  0  0  0  0  0  0  0  0  0  0
   26.2242  -21.9958   -9.8229 O   0  0  0  0  0  0  0  0  0  0  0  0
   24.4629  -20.5969   -9.5301 O   0  0  0  0  0  0  0  0  0  0  0  0
  2  3  1  0
  2  1  1  6
  4  3  1  0
  5  4  2  0
  6  2  1  0
  7  6  2  0
  8  4  1  0
  9 10  1  0
 10 12  1  0
 11 10  2  0
 12 13  1  0
 14 13  1  1
 14 15  1  0
 15  6  1  0
 16 14  1  0
 16 17  2  0
 18 19  1  0
 19 21  1  0
 20 19  2  0
 21 22  1  0
 22 23  1  0
 23 24  1  0
 25 24  1  6
 26 25  1  0
 26 16  1  0
 27 25  1  0
 28 27  1  0
 29 27  2  0
M  END
$$$$
