DQR.pdb
     RDKit          3D

 29 28  0  0  1  0  0  0  0  0999 V2000
   26.7750  -21.0468  -19.6402 N   0  0  0  0  0  0  0  0  0  0  0  0
   27.2023  -19.8075  -19.0171 C   0  0  1  0  0  0  0  0  0  0  0  0
   27.5997  -18.7876  -20.0583 C   0  0  0  0  0  0  0  0  0  0  0  0
   28.5511  -19.3792  -20.9999 C   0  0  0  0  0  0  0  0  0  0  0  0
   29.5159  -20.0533  -20.5720 O   0  0  0  0  0  0  0  0  0  0  0  0
   26.0719  -19.2582  -18.2034 C   0  0  0  0  0  0  0  0  0  0  0  0
   26.2063  -18.1723  -17.6136 O   0  0  0  0  0  0  0  0  0  0  0  0
   28.4035  -19.2068  -22.3563 O   0  0  0  0  0  0  0  0  0  0  0  0
   20.1942  -19.2024  -19.4383 N   0  0  0  0  0  0  0  0  0  0  0  0
   20.0602  -18.8466  -18.0675 C   0  0  0  0  0  0  0  0  0  0  0  0
   18.9585  -18.5587  -17.5861 O   0  0  0  0  0  0  0  0  0  0  0  0
   21.3363  -18.8468  -17.2614 C   0  0  0  0  0  0  0  0  0  0  0  0
   22.5059  -19.2381  -18.1221 C   0  0  0  0  0  0  0  0  0  0  0  0
   23.7188  -19.4416  -17.3030 C   0  0  2  0  0  0  0  0  0  0  0  0
   24.8432  -19.9371  -18.0801 N   0  0  0  0  0  0  0  0  0  0  0  0
   23.5913  -20.2785  -16.1024 C   0  0  0  0  0  0  0  0  0  0  0  0
   23.4260  -21.5125  -16.1757 O   0  0  0  0  0  0  0  0  0  0  0  0
   22.1585  -20.7002   -8.8044 N   0  0  0  0  0  0  0  0  0  0  0  0
   23.3828  -21.1749   -8.2141 C   0  0  0  0  0  0  0  0  0  0  0  0
   23.4285  -21.9143   -7.1690 N   0  0  0  0  0  0  0  0  0  0  0  0
   24.6167  -20.8012   -8.8178 N   0  0  0  0  0  0  0  0  0  0  0  0
   24.6494  -19.9495   -9.9789 C   0  0  0  0  0  0  0  0  0  0  0  0
   23.9824  -20.6056  -11.1742 C   0  0  0  0  0  0  0  0  0  0  0  0
   24.1389  -19.8539  -12.4411 C   0  0  0  0  0  0  0  0  0  0  0  0
   23.4790  -20.5634  -13.5899 C   0  0  2  0  0  0  0  0  0  0  0  0
   23.6498  -19.7191  -14.7967 N   0  0  0  0  0  0  0  0  0  0  0  0
   22.0310  -20.7014  -13.2999 C   0  0  0  0  0  0  0  0  0  0  0  0
   21.0310  -19.8851  -13.7592 O   0  0  0  0  0  0  0  0  0  0  0  0
   21.6894  -21.6826  -12.5426 O   0  0  0  0  0  0  0  0  0  0  0  0
  2  3  1  0
  2  1  1  6
  4  3  1  0
  5  4  2  0
  6  2  1  0
  7  6  2  0
  8  4  1  0
  9 10  1  0
 10 12  1  0
 11 10  2  0
 12 13  1  0
 14 13  1  6
 14 15  1  0
 15  6  1  0
 16 14  1  0
 16 17  2  0
 18 19  1  0
 19 21  1  0
 20 19  2  0
 21 22  1  0
 22 23  1  0
 23 24  1  0
 25 24  1  1
 26 25  1  0
 26 16  1  0
 27 25  1  0
 28 27  1  0
 29 27  2  0
M  END
$$$$
