DQR.pdb
     RDKit          3D

 29 28  0  0  1  0  0  0  0  0999 V2000
   23.0107  -19.9064  -17.9102 N   0  0  0  0  0  0  0  0  0  0  0  0
   24.1681  -20.7272  -18.2157 C   0  0  1  0  0  0  0  0  0  0  0  0
   24.3880  -20.8182  -19.7076 C   0  0  0  0  0  0  0  0  0  0  0  0
   23.8886  -19.6078  -20.3612 C   0  0  0  0  0  0  0  0  0  0  0  0
   23.6775  -18.5749  -19.6852 O   0  0  0  0  0  0  0  0  0  0  0  0
   25.3784  -20.1154  -17.5812 C   0  0  0  0  0  0  0  0  0  0  0  0
   26.4445  -20.7533  -17.5428 O   0  0  0  0  0  0  0  0  0  0  0  0
   23.6453  -19.5841  -21.7145 O   0  0  0  0  0  0  0  0  0  0  0  0
   26.7863  -14.3071  -17.7071 N   0  0  0  0  0  0  0  0  0  0  0  0
   27.3335  -15.2668  -18.6033 C   0  0  0  0  0  0  0  0  0  0  0  0
   27.8337  -14.9237  -19.6806 O   0  0  0  0  0  0  0  0  0  0  0  0
   27.2599  -16.7048  -18.1505 C   0  0  0  0  0  0  0  0  0  0  0  0
   26.6830  -16.7944  -16.7645 C   0  0  0  0  0  0  0  0  0  0  0  0
   26.4925  -18.2035  -16.3626 C   0  0  2  0  0  0  0  0  0  0  0  0
   25.3526  -18.8239  -17.0178 N   0  0  0  0  0  0  0  0  0  0  0  0
   26.4025  -18.4902  -14.9247 C   0  0  0  0  0  0  0  0  0  0  0  0
   25.4935  -18.0149  -14.2152 O   0  0  0  0  0  0  0  0  0  0  0  0
   24.4350  -21.6990   -8.0305 N   0  0  0  0  0  0  0  0  0  0  0  0
   23.3060  -21.1587   -8.7421 C   0  0  0  0  0  0  0  0  0  0  0  0
   22.1379  -21.0322   -8.2315 N   0  0  0  0  0  0  0  0  0  0  0  0
   23.4896  -20.7442  -10.0915 N   0  0  0  0  0  0  0  0  0  0  0  0
   24.3769  -21.4564  -10.9748 C   0  0  0  0  0  0  0  0  0  0  0  0
   25.6611  -20.6854  -11.2203 C   0  0  0  0  0  0  0  0  0  0  0  0
   25.8944  -20.3375  -12.6412 C   0  0  0  0  0  0  0  0  0  0  0  0
   27.2208  -19.6574  -12.8331 C   0  0  2  0  0  0  0  0  0  0  0  0
   27.3506  -19.3247  -14.2722 N   0  0  0  0  0  0  0  0  0  0  0  0
   28.3019  -20.6009  -12.4578 C   0  0  0  0  0  0  0  0  0  0  0  0
   29.0018  -20.6044  -11.2799 O   0  0  0  0  0  0  0  0  0  0  0  0
   28.6071  -21.4976  -13.3271 O   0  0  0  0  0  0  0  0  0  0  0  0
  2  3  1  0
  2  1  1  6
  4  3  1  0
  5  4  2  0
  6  2  1  0
  7  6  2  0
  8  4  1  0
  9 10  1  0
 10 12  1  0
 11 10  2  0
 12 13  1  0
 14 13  1  1
 14 15  1  0
 15  6  1  0
 16 14  1  0
 16 17  2  0
 18 19  1  0
 19 21  1  0
 20 19  2  0
 21 22  1  0
 22 23  1  0
 23 24  1  0
 25 24  1  6
 26 25  1  0
 26 16  1  0
 27 25  1  0
 28 27  1  0
 29 27  2  0
M  END
$$$$
