DQR.pdb
     RDKit          3D

 29 28  0  0  1  0  0  0  0  0999 V2000
   19.5015  -23.1349   -7.5328 N   0  0  0  0  0  0  0  0  0  0  0  0
   19.6227  -23.5478   -8.9190 C   0  0  1  0  0  0  0  0  0  0  0  0
   18.2779  -23.9365   -9.4871 C   0  0  0  0  0  0  0  0  0  0  0  0
   17.8141  -25.1790   -8.8683 C   0  0  0  0  0  0  0  0  0  0  0  0
   18.6451  -25.9982   -8.4135 O   0  0  0  0  0  0  0  0  0  0  0  0
   20.1786  -22.4100   -9.7177 C   0  0  0  0  0  0  0  0  0  0  0  0
   19.7233  -21.2642   -9.5598 O   0  0  0  0  0  0  0  0  0  0  0  0
   16.4721  -25.4652   -8.7765 O   0  0  0  0  0  0  0  0  0  0  0  0
   25.5192  -22.3309  -12.9936 N   0  0  0  0  0  0  0  0  0  0  0  0
   25.0383  -21.0310  -13.3135 C   0  0  0  0  0  0  0  0  0  0  0  0
   25.7151  -20.2467  -13.9883 O   0  0  0  0  0  0  0  0  0  0  0  0
   23.6690  -20.6876  -12.7793 C   0  0  0  0  0  0  0  0  0  0  0  0
   23.1625  -21.7809  -11.8794 C   0  0  0  0  0  0  0  0  0  0  0  0
   21.7654  -21.5244  -11.4725 C   0  0  2  0  0  0  0  0  0  0  0  0
   21.2143  -22.5933  -10.6556 N   0  0  0  0  0  0  0  0  0  0  0  0
   20.7974  -21.2177  -12.5341 C   0  0  0  0  0  0  0  0  0  0  0  0
   20.2040  -22.1168  -13.1625 O   0  0  0  0  0  0  0  0  0  0  0  0
   18.6337  -13.3378  -15.7331 N   0  0  0  0  0  0  0  0  0  0  0  0
   19.6588  -14.1766  -16.2974 C   0  0  0  0  0  0  0  0  0  0  0  0
   20.6216  -13.7356  -17.0184 N   0  0  0  0  0  0  0  0  0  0  0  0
   19.6031  -15.5770  -16.0483 N   0  0  0  0  0  0  0  0  0  0  0  0
   18.4518  -16.1768  -15.4241 C   0  0  0  0  0  0  0  0  0  0  0  0
   18.6136  -17.6786  -15.2753 C   0  0  0  0  0  0  0  0  0  0  0  0
   19.5377  -18.0819  -14.1900 C   0  0  0  0  0  0  0  0  0  0  0  0
   19.5803  -19.5753  -14.0267 C   0  0  2  0  0  0  0  0  0  0  0  0
   20.4915  -19.8775  -12.8966 N   0  0  0  0  0  0  0  0  0  0  0  0
   20.1325  -20.1772  -15.2646 C   0  0  0  0  0  0  0  0  0  0  0  0
   19.4125  -20.7664  -16.2704 O   0  0  0  0  0  0  0  0  0  0  0  0
   21.4107  -20.1402  -15.3988 O   0  0  0  0  0  0  0  0  0  0  0  0
  2  3  1  0
  2  1  1  1
  4  3  1  0
  5  4  2  0
  6  2  1  0
  7  6  2  0
  8  4  1  0
  9 10  1  0
 10 12  1  0
 11 10  2  0
 12 13  1  0
 14 13  1  6
 14 15  1  0
 15  6  1  0
 16 14  1  0
 16 17  2  0
 18 19  1  0
 19 21  1  0
 20 19  2  0
 21 22  1  0
 22 23  1  0
 23 24  1  0
 25 24  1  6
 26 25  1  0
 26 16  1  0
 27 25  1  0
 28 27  1  0
 29 27  2  0
M  END
$$$$
