DQR.pdb
     RDKit          3D

 29 28  0  0  1  0  0  0  0  0999 V2000
   11.0476  -17.8485    8.1341 N   0  0  0  0  0  0  0  0  0  0  0  0
   11.8756  -17.1531    7.1658 C   0  0  1  0  0  0  0  0  0  0  0  0
   12.2442  -15.7741    7.6607 C   0  0  0  0  0  0  0  0  0  0  0  0
   11.1319  -14.8494    7.4386 C   0  0  0  0  0  0  0  0  0  0  0  0
   10.0366  -15.2813    7.0116 O   0  0  0  0  0  0  0  0  0  0  0  0
   13.1284  -17.9419    6.9428 C   0  0  0  0  0  0  0  0  0  0  0  0
   13.5569  -18.6872    7.8405 O   0  0  0  0  0  0  0  0  0  0  0  0
   11.2689  -13.5048    7.6922 O   0  0  0  0  0  0  0  0  0  0  0  0
   15.3940  -20.0293    1.5844 N   0  0  0  0  0  0  0  0  0  0  0  0
   16.3470  -20.5829    2.4837 C   0  0  0  0  0  0  0  0  0  0  0  0
   17.1555  -21.4407    2.1108 O   0  0  0  0  0  0  0  0  0  0  0  0
   16.2989  -20.0563    3.8975 C   0  0  0  0  0  0  0  0  0  0  0  0
   15.1008  -19.1680    4.0909 C   0  0  0  0  0  0  0  0  0  0  0  0
   15.0593  -18.6305    5.4666 C   0  0  2  0  0  0  0  0  0  0  0  0
   13.8500  -17.8692    5.7345 N   0  0  0  0  0  0  0  0  0  0  0  0
   16.2081  -17.8329    5.9159 C   0  0  0  0  0  0  0  0  0  0  0  0
   16.1563  -16.5890    5.9896 O   0  0  0  0  0  0  0  0  0  0  0  0
   18.6357  -11.0052    7.2221 N   0  0  0  0  0  0  0  0  0  0  0  0
   19.8653  -11.5969    7.6811 C   0  0  0  0  0  0  0  0  0  0  0  0
   20.8537  -10.9206    8.1359 N   0  0  0  0  0  0  0  0  0  0  0  0
   19.9994  -13.0130    7.6248 N   0  0  0  0  0  0  0  0  0  0  0  0
   19.0125  -13.8284    6.9645 C   0  0  0  0  0  0  0  0  0  0  0  0
   19.2903  -15.3085    7.1545 C   0  0  0  0  0  0  0  0  0  0  0  0
   18.2644  -16.1966    6.5602 C   0  0  0  0  0  0  0  0  0  0  0  0
   18.5565  -17.6438    6.8412 C   0  0  2  0  0  0  0  0  0  0  0  0
   17.4369  -18.4434    6.2881 N   0  0  0  0  0  0  0  0  0  0  0  0
   18.6123  -17.8452    8.3096 C   0  0  0  0  0  0  0  0  0  0  0  0
   17.7884  -18.6525    9.0489 O   0  0  0  0  0  0  0  0  0  0  0  0
   19.5230  -17.1949    8.9428 O   0  0  0  0  0  0  0  0  0  0  0  0
  2  3  1  0
  2  1  1  1
  4  3  1  0
  5  4  2  0
  6  2  1  0
  7  6  2  0
  8  4  1  0
  9 10  1  0
 10 12  1  0
 11 10  2  0
 12 13  1  0
 14 13  1  6
 14 15  1  0
 15  6  1  0
 16 14  1  0
 16 17  2  0
 18 19  1  0
 19 21  1  0
 20 19  2  0
 21 22  1  0
 22 23  1  0
 23 24  1  0
 25 24  1  1
 26 25  1  0
 26 16  1  0
 27 25  1  0
 28 27  1  0
 29 27  2  0
M  END
$$$$
