DQR.pdb
     RDKit          3D

 29 28  0  0  1  0  0  0  0  0999 V2000
   17.7346  -12.6485  -17.6351 N   0  0  0  0  0  0  0  0  0  0  0  0
   17.8937  -11.8247  -16.4508 C   0  0  1  0  0  0  0  0  0  0  0  0
   18.5880  -12.5901  -15.3488 C   0  0  0  0  0  0  0  0  0  0  0  0
   17.7153  -13.6555  -14.8536 C   0  0  0  0  0  0  0  0  0  0  0  0
   16.5908  -13.8345  -15.3752 O   0  0  0  0  0  0  0  0  0  0  0  0
   18.7151  -10.6232  -16.8018 C   0  0  0  0  0  0  0  0  0  0  0  0
   19.6450  -10.7285  -17.6198 O   0  0  0  0  0  0  0  0  0  0  0  0
   18.1109  -14.4696  -13.8183 O   0  0  0  0  0  0  0  0  0  0  0  0
   17.5869   -4.8054  -15.6545 N   0  0  0  0  0  0  0  0  0  0  0  0
   18.6068   -4.5927  -16.6231 C   0  0  0  0  0  0  0  0  0  0  0  0
   19.0682   -3.4644  -16.8289 O   0  0  0  0  0  0  0  0  0  0  0  0
   19.0739   -5.8212  -17.3653 C   0  0  0  0  0  0  0  0  0  0  0  0
   18.2890   -7.0298  -16.9351 C   0  0  0  0  0  0  0  0  0  0  0  0
   19.1902   -8.1506  -16.5958 C   0  0  2  0  0  0  0  0  0  0  0  0
   18.4688   -9.3588  -16.2303 N   0  0  0  0  0  0  0  0  0  0  0  0
   20.2171   -7.9070  -15.5741 C   0  0  0  0  0  0  0  0  0  0  0  0
   19.9810   -8.0489  -14.3577 O   0  0  0  0  0  0  0  0  0  0  0  0
   26.6816  -10.6530  -15.1510 N   0  0  0  0  0  0  0  0  0  0  0  0
   26.3907  -10.9269  -16.5341 C   0  0  0  0  0  0  0  0  0  0  0  0
   26.5234  -12.0812  -17.0737 N   0  0  0  0  0  0  0  0  0  0  0  0
   25.9341   -9.8580  -17.3560 N   0  0  0  0  0  0  0  0  0  0  0  0
   25.6489   -8.5605  -16.7994 C   0  0  0  0  0  0  0  0  0  0  0  0
   24.3549   -8.5631  -16.0060 C   0  0  0  0  0  0  0  0  0  0  0  0
   23.9014   -7.2169  -15.5858 C   0  0  0  0  0  0  0  0  0  0  0  0
   22.5705   -7.2742  -14.8900 C   0  0  2  0  0  0  0  0  0  0  0  0
   21.5321   -7.4962  -15.9250 N   0  0  0  0  0  0  0  0  0  0  0  0
   22.3193   -5.9711  -14.2278 C   0  0  0  0  0  0  0  0  0  0  0  0
   22.7419   -5.6024  -12.9777 O   0  0  0  0  0  0  0  0  0  0  0  0
   21.6374   -5.1106  -14.8968 O   0  0  0  0  0  0  0  0  0  0  0  0
  2  3  1  0
  2  1  1  6
  4  3  1  0
  5  4  2  0
  6  2  1  0
  7  6  2  0
  8  4  1  0
  9 10  1  0
 10 12  1  0
 11 10  2  0
 12 13  1  0
 14 13  1  1
 14 15  1  0
 15  6  1  0
 16 14  1  0
 16 17  2  0
 18 19  1  0
 19 21  1  0
 20 19  2  0
 21 22  1  0
 22 23  1  0
 23 24  1  0
 25 24  1  6
 26 25  1  0
 26 16  1  0
 27 25  1  0
 28 27  1  0
 29 27  2  0
M  END
$$$$
