DQR.pdb
     RDKit          3D

 29 28  0  0  1  0  0  0  0  0999 V2000
   24.8457  -24.6635  -16.5199 N   0  0  0  0  0  0  0  0  0  0  0  0
   23.8986  -25.7629  -16.4910 C   0  0  1  0  0  0  0  0  0  0  0  0
   24.5261  -27.0020  -15.8968 C   0  0  0  0  0  0  0  0  0  0  0  0
   25.4358  -27.6153  -16.8653 C   0  0  0  0  0  0  0  0  0  0  0  0
   25.4989  -27.1673  -18.0332 O   0  0  0  0  0  0  0  0  0  0  0  0
   22.7195  -25.3664  -15.6579 C   0  0  0  0  0  0  0  0  0  0  0  0
   22.8916  -24.7053  -14.6194 O   0  0  0  0  0  0  0  0  0  0  0  0
   26.2285  -28.6825  -16.5135 O   0  0  0  0  0  0  0  0  0  0  0  0
   16.8435  -24.8523  -17.6295 N   0  0  0  0  0  0  0  0  0  0  0  0
   16.6324  -24.5561  -16.2543 C   0  0  0  0  0  0  0  0  0  0  0  0
   15.5245  -24.1961  -15.8402 O   0  0  0  0  0  0  0  0  0  0  0  0
   17.8363  -24.7108  -15.3570 C   0  0  0  0  0  0  0  0  0  0  0  0
   19.0486  -25.0951  -16.1597 C   0  0  0  0  0  0  0  0  0  0  0  0
   20.2226  -25.2869  -15.2830 C   0  0  2  0  0  0  0  0  0  0  0  0
   21.4025  -25.7203  -16.0134 N   0  0  0  0  0  0  0  0  0  0  0  0
   20.0599  -26.1666  -14.1179 C   0  0  0  0  0  0  0  0  0  0  0  0
   20.3602  -27.3763  -14.1605 O   0  0  0  0  0  0  0  0  0  0  0  0
   17.3982  -24.6150   -5.6544 N   0  0  0  0  0  0  0  0  0  0  0  0
   17.8318  -25.9876   -5.6831 C   0  0  0  0  0  0  0  0  0  0  0  0
   17.8103  -26.7616   -4.6626 N   0  0  0  0  0  0  0  0  0  0  0  0
   18.3180  -26.5201   -6.9105 N   0  0  0  0  0  0  0  0  0  0  0  0
   18.4160  -25.7002   -8.0907 C   0  0  0  0  0  0  0  0  0  0  0  0
   18.8460  -26.5090   -9.3010 C   0  0  0  0  0  0  0  0  0  0  0  0
   18.9653  -25.7156  -10.5463 C   0  0  0  0  0  0  0  0  0  0  0  0
   19.4331  -26.5610  -11.6975 C   0  0  2  0  0  0  0  0  0  0  0  0
   19.5500  -25.6789  -12.8837 N   0  0  0  0  0  0  0  0  0  0  0  0
   18.4145  -27.6037  -11.9715 C   0  0  0  0  0  0  0  0  0  0  0  0
   18.4813  -28.9201  -11.5975 O   0  0  0  0  0  0  0  0  0  0  0  0
   17.3724  -27.2289  -12.6246 O   0  0  0  0  0  0  0  0  0  0  0  0
  2  3  1  0
  2  1  1  1
  4  3  1  0
  5  4  2  0
  6  2  1  0
  7  6  2  0
  8  4  1  0
  9 10  1  0
 10 12  1  0
 11 10  2  0
 12 13  1  0
 14 13  1  6
 14 15  1  0
 15  6  1  0
 16 14  1  0
 16 17  2  0
 18 19  1  0
 19 21  1  0
 20 19  2  0
 21 22  1  0
 22 23  1  0
 23 24  1  0
 25 24  1  1
 26 25  1  0
 26 16  1  0
 27 25  1  0
 28 27  1  0
 29 27  2  0
M  END
$$$$
