DQR.pdb
     RDKit          3D

 29 28  0  0  1  0  0  0  0  0999 V2000
   20.3909  -23.6269   -9.4973 N   0  0  0  0  0  0  0  0  0  0  0  0
   19.9190  -22.2609   -9.3627 C   0  0  1  0  0  0  0  0  0  0  0  0
   19.8044  -21.8691   -7.9082 C   0  0  0  0  0  0  0  0  0  0  0  0
   19.0125  -22.8639   -7.1835 C   0  0  0  0  0  0  0  0  0  0  0  0
   18.7943  -22.7168   -5.9590 O   0  0  0  0  0  0  0  0  0  0  0  0
   20.8891  -21.3431  -10.0396 C   0  0  0  0  0  0  0  0  0  0  0  0
   20.6454  -20.1260  -10.1042 O   0  0  0  0  0  0  0  0  0  0  0  0
   18.4997  -23.9653   -7.8278 O   0  0  0  0  0  0  0  0  0  0  0  0
   27.0023  -21.9070  -10.5266 N   0  0  0  0  0  0  0  0  0  0  0  0
   26.8318  -20.8820  -11.4981 C   0  0  0  0  0  0  0  0  0  0  0  0
   27.8046  -20.3593  -12.0540 O   0  0  0  0  0  0  0  0  0  0  0  0
   25.4049  -20.4884  -11.7937 C   0  0  0  0  0  0  0  0  0  0  0  0
   24.4466  -21.3534  -11.0223 C   0  0  0  0  0  0  0  0  0  0  0  0
   23.0475  -20.9650  -11.2965 C   0  0  2  0  0  0  0  0  0  0  0  0
   22.0859  -21.8156  -10.6144 N   0  0  0  0  0  0  0  0  0  0  0  0
   22.6398  -20.8544  -12.7034 C   0  0  0  0  0  0  0  0  0  0  0  0
   22.2641  -21.8466  -13.3590 O   0  0  0  0  0  0  0  0  0  0  0  0
   20.0286  -16.6560  -19.2874 N   0  0  0  0  0  0  0  0  0  0  0  0
   19.4873  -15.9861  -18.1337 C   0  0  0  0  0  0  0  0  0  0  0  0
   18.3143  -15.4729  -18.0945 N   0  0  0  0  0  0  0  0  0  0  0  0
   20.2980  -15.8800  -16.9683 N   0  0  0  0  0  0  0  0  0  0  0  0
   21.6537  -16.3666  -16.9578 C   0  0  0  0  0  0  0  0  0  0  0  0
   21.7224  -17.8255  -16.5444 C   0  0  0  0  0  0  0  0  0  0  0  0
   22.1689  -18.0371  -15.1478 C   0  0  0  0  0  0  0  0  0  0  0  0
   22.2159  -19.4979  -14.7979 C   0  0  2  0  0  0  0  0  0  0  0  0
   22.6553  -19.6074  -13.3860 N   0  0  0  0  0  0  0  0  0  0  0  0
   23.2150  -20.1669  -15.6662 C   0  0  0  0  0  0  0  0  0  0  0  0
   22.9516  -20.8688  -16.8131 O   0  0  0  0  0  0  0  0  0  0  0  0
   24.4442  -20.0764  -15.3001 O   0  0  0  0  0  0  0  0  0  0  0  0
  2  3  1  0
  2  1  1  1
  4  3  1  0
  5  4  2  0
  6  2  1  0
  7  6  2  0
  8  4  1  0
  9 10  1  0
 10 12  1  0
 11 10  2  0
 12 13  1  0
 14 13  1  6
 14 15  1  0
 15  6  1  0
 16 14  1  0
 16 17  2  0
 18 19  1  0
 19 21  1  0
 20 19  2  0
 21 22  1  0
 22 23  1  0
 23 24  1  0
 25 24  1  6
 26 25  1  0
 26 16  1  0
 27 25  1  0
 28 27  1  0
 29 27  2  0
M  END
$$$$
