DQR.pdb
     RDKit          3D

 29 28  0  0  1  0  0  0  0  0999 V2000
   27.1994  -23.0606  -17.7556 N   0  0  0  0  0  0  0  0  0  0  0  0
   28.1957  -22.7495  -16.7470 C   0  0  1  0  0  0  0  0  0  0  0  0
   29.3026  -21.8988  -17.3244 C   0  0  0  0  0  0  0  0  0  0  0  0
   30.1090  -22.6912  -18.2538 C   0  0  0  0  0  0  0  0  0  0  0  0
   29.5498  -23.3505  -19.1600 O   0  0  0  0  0  0  0  0  0  0  0  0
   27.5381  -22.0008  -15.6296 C   0  0  0  0  0  0  0  0  0  0  0  0
   28.2346  -21.4780  -14.7427 O   0  0  0  0  0  0  0  0  0  0  0  0
   31.4798  -22.7250  -18.1491 O   0  0  0  0  0  0  0  0  0  0  0  0
   27.0755  -17.1025  -16.3214 N   0  0  0  0  0  0  0  0  0  0  0  0
   25.9390  -16.9529  -15.4791 C   0  0  0  0  0  0  0  0  0  0  0  0
   25.5006  -15.8339  -15.1890 O   0  0  0  0  0  0  0  0  0  0  0  0
   25.3208  -18.2350  -14.9766 C   0  0  0  0  0  0  0  0  0  0  0  0
   26.0765  -19.4265  -15.4972 C   0  0  0  0  0  0  0  0  0  0  0  0
   25.4689  -20.6861  -15.0202 C   0  0  2  0  0  0  0  0  0  0  0  0
   26.1380  -21.8651  -15.5454 N   0  0  0  0  0  0  0  0  0  0  0  0
   24.0234  -20.8569  -15.2183 C   0  0  0  0  0  0  0  0  0  0  0  0
   23.4500  -20.4595  -16.2521 O   0  0  0  0  0  0  0  0  0  0  0  0
   18.3448  -25.4973  -10.3680 N   0  0  0  0  0  0  0  0  0  0  0  0
   18.2125  -24.0639  -10.3439 C   0  0  0  0  0  0  0  0  0  0  0  0
   17.5756  -23.4236   -9.4354 N   0  0  0  0  0  0  0  0  0  0  0  0
   18.8170  -23.3090  -11.3886 N   0  0  0  0  0  0  0  0  0  0  0  0
   19.2660  -23.9433  -12.6014 C   0  0  0  0  0  0  0  0  0  0  0  0
   19.8160  -22.9331  -13.5918 C   0  0  0  0  0  0  0  0  0  0  0  0
   21.2622  -22.6552  -13.4309 C   0  0  0  0  0  0  0  0  0  0  0  0
   21.7509  -21.6630  -14.4483 C   0  0  2  0  0  0  0  0  0  0  0  0
   23.2077  -21.4844  -14.2374 N   0  0  0  0  0  0  0  0  0  0  0  0
   21.0687  -20.3661  -14.2192 C   0  0  0  0  0  0  0  0  0  0  0  0
   19.9176  -19.9375  -14.8261 O   0  0  0  0  0  0  0  0  0  0  0  0
   21.6173  -19.5725  -13.3693 O   0  0  0  0  0  0  0  0  0  0  0  0
  2  3  1  0
  2  1  1  6
  4  3  1  0
  5  4  2  0
  6  2  1  0
  7  6  2  0
  8  4  1  0
  9 10  1  0
 10 12  1  0
 11 10  2  0
 12 13  1  0
 14 13  1  6
 14 15  1  0
 15  6  1  0
 16 14  1  0
 16 17  2  0
 18 19  1  0
 19 21  1  0
 20 19  2  0
 21 22  1  0
 22 23  1  0
 23 24  1  0
 25 24  1  1
 26 25  1  0
 26 16  1  0
 27 25  1  0
 28 27  1  0
 29 27  2  0
M  END
$$$$
