PEF.pdb
     RDKit          3D

 28 29  0  0  1  0  0  0  0  0999 V2000
   34.3100  -34.1726   -6.1624 N   0  0  0  0  0  0  0  0  0  0  0  0
   33.7129  -33.2009   -7.0811 C   0  0  0  0  0  0  0  0  0  0  0  0
   32.2531  -33.5670   -7.0125 C   0  0  0  0  0  0  0  0  0  0  0  0
   32.0761  -33.9249   -5.5569 C   0  0  0  0  0  0  0  0  0  0  0  0
   33.4849  -34.0384   -5.0027 C   0  0  1  0  0  0  0  0  0  0  0  0
   33.6023  -35.1565   -4.0585 C   0  0  0  0  0  0  0  0  0  0  0  0
   34.7038  -35.7592   -3.9908 O   0  0  0  0  0  0  0  0  0  0  0  0
   32.5639  -35.6145   -3.2099 N   0  0  0  0  0  0  0  0  0  0  0  0
   32.8171  -36.4134   -2.0466 C   0  0  1  0  0  0  0  0  0  0  0  0
   33.6801  -35.7116   -1.0227 C   0  0  0  0  0  0  0  0  0  0  0  0
   33.8052  -36.5430    0.2349 C   0  0  0  0  0  0  0  0  0  0  0  0
   34.4757  -35.7782    1.2888 C   0  0  0  0  0  0  0  0  0  0  0  0
   33.8255  -35.1656    2.1545 O   0  0  0  0  0  0  0  0  0  0  0  0
   31.5070  -36.8276   -1.4239 C   0  0  0  0  0  0  0  0  0  0  0  0
   30.6862  -35.9703   -1.0164 O   0  0  0  0  0  0  0  0  0  0  0  0
   35.8659  -35.7395    1.3180 O   0  0  0  0  0  0  0  0  0  0  0  0
   31.1782  -38.1987   -1.2874 N   0  0  0  0  0  0  0  0  0  0  0  0
   29.9267  -38.6629   -0.7276 C   0  0  1  0  0  0  0  0  0  0  0  0
   29.6081  -40.0642   -1.0823 C   0  0  0  0  0  0  0  0  0  0  0  0
   28.2875  -40.4575   -0.5511 C   0  0  0  0  0  0  0  0  0  0  0  0
   27.0884  -40.1920   -1.1971 C   0  0  0  0  0  0  0  0  0  0  0  0
   25.8972  -40.5939   -0.6346 C   0  0  0  0  0  0  0  0  0  0  0  0
   25.8441  -41.2655    0.5728 C   0  0  0  0  0  0  0  0  0  0  0  0
   27.0195  -41.5350    1.2227 C   0  0  0  0  0  0  0  0  0  0  0  0
   28.2056  -41.1366    0.6661 C   0  0  0  0  0  0  0  0  0  0  0  0
   29.7972  -38.3072    0.7064 C   0  0  0  0  0  0  0  0  0  0  0  0
   30.9323  -38.2206    1.5383 O   0  0  0  0  0  0  0  0  0  0  0  0
   28.7177  -38.0574    1.2949 O   0  0  0  0  0  0  0  0  0  0  0  0
  2  1  1  0
  3  4  1  0
  3  2  1  0
  4  5  1  0
  5  1  1  0
  5  6  1  1
  6  7  2  0
  8  6  1  0
  8  9  1  0
  9 14  1  0
  9 10  1  1
 11 10  1  0
 12 11  1  0
 12 16  1  0
 13 12  2  0
 14 15  2  0
 17 18  1  0
 17 14  1  0
 18 26  1  0
 18 19  1  1
 20 19  1  0
 21 20  2  0
 22 21  1  0
 23 22  2  0
 23 24  1  0
 24 25  2  0
 25 20  1  0
 26 28  2  0
 26 27  1  0
M  END
$$$$
