PEF.pdb
     RDKit          3D

 28 29  0  0  1  0  0  0  0  0999 V2000
   19.8063  -12.1456  -16.6864 N   0  0  0  0  0  0  0  0  0  0  0  0
   19.6382  -13.5727  -16.9691 C   0  0  0  0  0  0  0  0  0  0  0  0
   19.9576  -13.6361  -18.4402 C   0  0  0  0  0  0  0  0  0  0  0  0
   21.0799  -12.6355  -18.5722 C   0  0  0  0  0  0  0  0  0  0  0  0
   21.0874  -11.8730  -17.2594 C   0  0  1  0  0  0  0  0  0  0  0  0
   21.3515  -10.4442  -17.4696 C   0  0  0  0  0  0  0  0  0  0  0  0
   22.5295  -10.0325  -17.3154 O   0  0  0  0  0  0  0  0  0  0  0  0
   20.3759   -9.4839  -17.8358 N   0  0  0  0  0  0  0  0  0  0  0  0
   20.7009   -8.1066  -18.0669 C   0  0  1  0  0  0  0  0  0  0  0  0
   19.8610   -7.4745  -19.1535 C   0  0  0  0  0  0  0  0  0  0  0  0
   20.2861   -6.0431  -19.3966 C   0  0  0  0  0  0  0  0  0  0  0  0
   19.4459   -5.4281  -20.4266 C   0  0  0  0  0  0  0  0  0  0  0  0
   19.6340   -4.2556  -20.7973 O   0  0  0  0  0  0  0  0  0  0  0  0
   20.5547   -7.3311  -16.7813 C   0  0  0  0  0  0  0  0  0  0  0  0
   19.5792   -7.5266  -16.0166 O   0  0  0  0  0  0  0  0  0  0  0  0
   18.4197   -6.1733  -20.9979 O   0  0  0  0  0  0  0  0  0  0  0  0
   21.5212   -6.3633  -16.4124 N   0  0  0  0  0  0  0  0  0  0  0  0
   21.4656   -5.6186  -15.1724 C   0  0  1  0  0  0  0  0  0  0  0  0
   22.4884   -6.0387  -14.1883 C   0  0  0  0  0  0  0  0  0  0  0  0
   22.2064   -7.3957  -13.6785 C   0  0  0  0  0  0  0  0  0  0  0  0
   21.1477   -7.6951  -12.8329 C   0  0  0  0  0  0  0  0  0  0  0  0
   20.9523   -8.9887  -12.4023 C   0  0  0  0  0  0  0  0  0  0  0  0
   21.7843  -10.0243  -12.7851 C   0  0  0  0  0  0  0  0  0  0  0  0
   22.8340   -9.7447  -13.6198 C   0  0  0  0  0  0  0  0  0  0  0  0
   23.0310   -8.4595  -14.0497 C   0  0  0  0  0  0  0  0  0  0  0  0
   21.3484   -4.1592  -15.4091 C   0  0  0  0  0  0  0  0  0  0  0  0
   21.1401   -3.2647  -14.3393 O   0  0  0  0  0  0  0  0  0  0  0  0
   21.4216   -3.6002  -16.5299 O   0  0  0  0  0  0  0  0  0  0  0  0
  2  1  1  0
  3  4  1  0
  3  2  1  0
  4  5  1  0
  5  1  1  0
  5  6  1  6
  6  7  2  0
  8  6  1  0
  8  9  1  0
  9 14  1  0
  9 10  1  6
 11 10  1  0
 12 11  1  0
 12 16  1  0
 13 12  2  0
 14 15  2  0
 17 18  1  0
 17 14  1  0
 18 26  1  0
 18 19  1  6
 20 19  1  0
 21 20  2  0
 22 21  1  0
 23 22  2  0
 23 24  1  0
 24 25  2  0
 25 20  1  0
 26 28  2  0
 26 27  1  0
M  END
$$$$
