PEF.pdb
     RDKit          3D

 28 29  0  0  1  0  0  0  0  0999 V2000
   18.2607  -15.0144  -17.9408 N   0  0  0  0  0  0  0  0  0  0  0  0
   18.3651  -16.4439  -18.2414 C   0  0  0  0  0  0  0  0  0  0  0  0
   19.0832  -16.4296  -19.5658 C   0  0  0  0  0  0  0  0  0  0  0  0
   20.0576  -15.2897  -19.3945 C   0  0  0  0  0  0  0  0  0  0  0  0
   19.6031  -14.5650  -18.1404 C   0  0  1  0  0  0  0  0  0  0  0  0
   19.7258  -13.1093  -18.2869 C   0  0  0  0  0  0  0  0  0  0  0  0
   20.8770  -12.6059  -18.2387 O   0  0  0  0  0  0  0  0  0  0  0  0
   18.6406  -12.2187  -18.4800 N   0  0  0  0  0  0  0  0  0  0  0  0
   18.8273  -10.8128  -18.6905 C   0  0  1  0  0  0  0  0  0  0  0  0
   17.6824  -10.1692  -19.4393 C   0  0  0  0  0  0  0  0  0  0  0  0
   17.9747   -8.7111  -19.7172 C   0  0  0  0  0  0  0  0  0  0  0  0
   16.8632   -8.0969  -20.4470 C   0  0  0  0  0  0  0  0  0  0  0  0
   16.6416   -8.3757  -21.6389 O   0  0  0  0  0  0  0  0  0  0  0  0
   19.0295  -10.1262  -17.3627 C   0  0  0  0  0  0  0  0  0  0  0  0
   18.2791  -10.3725  -16.3875 O   0  0  0  0  0  0  0  0  0  0  0  0
   16.0430   -7.1852  -19.7904 O   0  0  0  0  0  0  0  0  0  0  0  0
   20.0754   -9.1862  -17.1919 N   0  0  0  0  0  0  0  0  0  0  0  0
   20.3101   -8.4762  -15.9525 C   0  0  1  0  0  0  0  0  0  0  0  0
   21.7291   -8.4817  -15.5317 C   0  0  0  0  0  0  0  0  0  0  0  0
   21.9191   -7.6887  -14.3005 C   0  0  0  0  0  0  0  0  0  0  0  0
   22.1419   -6.3191  -14.2943 C   0  0  0  0  0  0  0  0  0  0  0  0
   22.3084   -5.6518  -13.1010 C   0  0  0  0  0  0  0  0  0  0  0  0
   22.2619   -6.3029  -11.8822 C   0  0  0  0  0  0  0  0  0  0  0  0
   22.0428   -7.6551  -11.8717 C   0  0  0  0  0  0  0  0  0  0  0  0
   21.8768   -8.3214  -13.0566 C   0  0  0  0  0  0  0  0  0  0  0  0
   19.6287   -7.1590  -15.9329 C   0  0  0  0  0  0  0  0  0  0  0  0
   18.9477   -6.7110  -14.7824 O   0  0  0  0  0  0  0  0  0  0  0  0
   19.5930   -6.3490  -16.8903 O   0  0  0  0  0  0  0  0  0  0  0  0
  2  1  1  0
  3  4  1  0
  3  2  1  0
  4  5  1  0
  5  1  1  0
  5  6  1  6
  6  7  2  0
  8  6  1  0
  8  9  1  0
  9 14  1  0
  9 10  1  1
 11 10  1  0
 12 11  1  0
 12 16  1  0
 13 12  2  0
 14 15  2  0
 17 18  1  0
 17 14  1  0
 18 26  1  0
 18 19  1  6
 20 19  1  0
 21 20  2  0
 22 21  1  0
 23 22  2  0
 23 24  1  0
 24 25  2  0
 25 20  1  0
 26 28  2  0
 26 27  1  0
M  END
$$$$
