PEF.pdb
     RDKit          3D

 28 29  0  0  1  0  0  0  0  0999 V2000
   23.9327  -24.3184  -14.4468 N   0  0  0  0  0  0  0  0  0  0  0  0
   23.3860  -25.0710  -15.5779 C   0  0  0  0  0  0  0  0  0  0  0  0
   23.7401  -24.1813  -16.7412 C   0  0  0  0  0  0  0  0  0  0  0  0
   25.1016  -23.6609  -16.3492 C   0  0  0  0  0  0  0  0  0  0  0  0
   25.2631  -24.0355  -14.8869 C   0  0  1  0  0  0  0  0  0  0  0  0
   25.9242  -22.9664  -14.1284 C   0  0  0  0  0  0  0  0  0  0  0  0
   27.1160  -22.6878  -14.4167 O   0  0  0  0  0  0  0  0  0  0  0  0
   25.3208  -22.2169  -13.0881 N   0  0  0  0  0  0  0  0  0  0  0  0
   25.9420  -21.0591  -12.5140 C   0  0  1  0  0  0  0  0  0  0  0  0
   25.1905  -19.7795  -12.8030 C   0  0  0  0  0  0  0  0  0  0  0  0
   24.0132  -20.0425  -13.7159 C   0  0  0  0  0  0  0  0  0  0  0  0
   23.4229  -18.7797  -14.1657 C   0  0  0  0  0  0  0  0  0  0  0  0
   22.2161  -18.5333  -13.9911 O   0  0  0  0  0  0  0  0  0  0  0  0
   26.0867  -21.2503  -11.0247 C   0  0  0  0  0  0  0  0  0  0  0  0
   25.2371  -21.9036  -10.3720 O   0  0  0  0  0  0  0  0  0  0  0  0
   24.2312  -17.8417  -14.7995 O   0  0  0  0  0  0  0  0  0  0  0  0
   27.1901  -20.6930  -10.3328 N   0  0  0  0  0  0  0  0  0  0  0  0
   27.2968  -20.6788   -8.8893 C   0  0  1  0  0  0  0  0  0  0  0  0
   28.5749  -20.1148   -8.4001 C   0  0  0  0  0  0  0  0  0  0  0  0
   28.5739  -20.0009   -6.9277 C   0  0  0  0  0  0  0  0  0  0  0  0
   27.8965  -19.0087   -6.2334 C   0  0  0  0  0  0  0  0  0  0  0  0
   27.9449  -18.9726   -4.8574 C   0  0  0  0  0  0  0  0  0  0  0  0
   28.6555  -19.9034   -4.1224 C   0  0  0  0  0  0  0  0  0  0  0  0
   29.3296  -20.8892   -4.7935 C   0  0  0  0  0  0  0  0  0  0  0  0
   29.2834  -20.9278   -6.1616 C   0  0  0  0  0  0  0  0  0  0  0  0
   26.0653  -20.1557   -8.2494 C   0  0  0  0  0  0  0  0  0  0  0  0
   25.3959  -20.8938   -7.2518 O   0  0  0  0  0  0  0  0  0  0  0  0
   25.5226  -19.0565   -8.5163 O   0  0  0  0  0  0  0  0  0  0  0  0
  2  1  1  0
  3  4  1  0
  3  2  1  0
  4  5  1  0
  5  1  1  0
  5  6  1  1
  6  7  2  0
  8  6  1  0
  8  9  1  0
  9 14  1  0
  9 10  1  1
 11 10  1  0
 12 11  1  0
 12 16  1  0
 13 12  2  0
 14 15  2  0
 17 18  1  0
 17 14  1  0
 18 26  1  0
 18 19  1  6
 20 19  1  0
 21 20  2  0
 22 21  1  0
 23 22  2  0
 23 24  1  0
 24 25  2  0
 25 20  1  0
 26 28  2  0
 26 27  1  0
M  END
$$$$
