PEF.pdb
     RDKit          3D

 28 29  0  0  1  0  0  0  0  0999 V2000
   27.5230  -20.4720  -15.5854 N   0  0  0  0  0  0  0  0  0  0  0  0
   28.0447  -19.9431  -16.8475 C   0  0  0  0  0  0  0  0  0  0  0  0
   27.8297  -18.4620  -16.6744 C   0  0  0  0  0  0  0  0  0  0  0  0
   28.1367  -18.2581  -15.2108 C   0  0  0  0  0  0  0  0  0  0  0  0
   28.1868  -19.6549  -14.6181 C   0  0  1  0  0  0  0  0  0  0  0  0
   27.5722  -19.6953  -13.2854 C   0  0  0  0  0  0  0  0  0  0  0  0
   28.0505  -18.9512  -12.3918 O   0  0  0  0  0  0  0  0  0  0  0  0
   26.4734  -20.5134  -12.9229 N   0  0  0  0  0  0  0  0  0  0  0  0
   25.6067  -20.1956  -11.8258 C   0  0  1  0  0  0  0  0  0  0  0  0
   24.1499  -20.4688  -12.1238 C   0  0  0  0  0  0  0  0  0  0  0  0
   23.2846  -20.1286  -10.9304 C   0  0  0  0  0  0  0  0  0  0  0  0
   21.8697  -20.3305  -11.2505 C   0  0  0  0  0  0  0  0  0  0  0  0
   21.4451  -21.4375  -11.6272 O   0  0  0  0  0  0  0  0  0  0  0  0
   26.0387  -20.9648  -10.6022 C   0  0  0  0  0  0  0  0  0  0  0  0
   26.1941  -22.2093  -10.6434 O   0  0  0  0  0  0  0  0  0  0  0  0
   20.9883  -19.2613  -11.1295 O   0  0  0  0  0  0  0  0  0  0  0  0
   26.2781  -20.2925   -9.3785 N   0  0  0  0  0  0  0  0  0  0  0  0
   26.7582  -20.9596   -8.1869 C   0  0  1  0  0  0  0  0  0  0  0  0
   28.1846  -20.6908   -7.8973 C   0  0  0  0  0  0  0  0  0  0  0  0
   28.3429  -20.0283   -6.5870 C   0  0  0  0  0  0  0  0  0  0  0  0
   28.1361  -18.6717   -6.3811 C   0  0  0  0  0  0  0  0  0  0  0  0
   28.3038  -18.1302   -5.1258 C   0  0  0  0  0  0  0  0  0  0  0  0
   28.6776  -18.8978   -4.0383 C   0  0  0  0  0  0  0  0  0  0  0  0
   28.8855  -20.2388   -4.2256 C   0  0  0  0  0  0  0  0  0  0  0  0
   28.7195  -20.7802   -5.4725 C   0  0  0  0  0  0  0  0  0  0  0  0
   25.8202  -20.8012   -7.0491 C   0  0  0  0  0  0  0  0  0  0  0  0
   25.7420  -21.7743   -6.0318 O   0  0  0  0  0  0  0  0  0  0  0  0
   25.0411  -19.8318   -6.8837 O   0  0  0  0  0  0  0  0  0  0  0  0
  2  1  1  0
  3  4  1  0
  3  2  1  0
  4  5  1  0
  5  1  1  0
  5  6  1  1
  6  7  2  0
  8  6  1  0
  8  9  1  0
  9 14  1  0
  9 10  1  6
 11 10  1  0
 12 11  1  0
 12 16  1  0
 13 12  2  0
 14 15  2  0
 17 18  1  0
 17 14  1  0
 18 26  1  0
 18 19  1  1
 20 19  1  0
 21 20  2  0
 22 21  1  0
 23 22  2  0
 23 24  1  0
 24 25  2  0
 25 20  1  0
 26 28  2  0
 26 27  1  0
M  END
$$$$
