PEF.pdb
     RDKit          3D

 28 29  0  0  1  0  0  0  0  0999 V2000
   26.8417  -34.9224   -4.6298 N   0  0  0  0  0  0  0  0  0  0  0  0
   26.8195  -34.8975   -6.0939 C   0  0  0  0  0  0  0  0  0  0  0  0
   25.3419  -34.8265   -6.3795 C   0  0  0  0  0  0  0  0  0  0  0  0
   24.8412  -33.9243   -5.2779 C   0  0  0  0  0  0  0  0  0  0  0  0
   25.9944  -33.8203   -4.2960 C   0  0  1  0  0  0  0  0  0  0  0  0
   25.5201  -33.8361   -2.9067 C   0  0  0  0  0  0  0  0  0  0  0  0
   24.7925  -32.8861   -2.5203 O   0  0  0  0  0  0  0  0  0  0  0  0
   25.8195  -34.8455   -1.9583 N   0  0  0  0  0  0  0  0  0  0  0  0
   25.2452  -34.8616   -0.6447 C   0  0  1  0  0  0  0  0  0  0  0  0
   25.4190  -36.1871    0.0613 C   0  0  0  0  0  0  0  0  0  0  0  0
   26.8600  -36.6435   -0.0002 C   0  0  0  0  0  0  0  0  0  0  0  0
   27.0624  -37.8147    0.8557 C   0  0  0  0  0  0  0  0  0  0  0  0
   28.1136  -38.4778    0.8038 O   0  0  0  0  0  0  0  0  0  0  0  0
   25.8450  -33.7514    0.1819 C   0  0  0  0  0  0  0  0  0  0  0  0
   27.0434  -33.4102    0.0325 O   0  0  0  0  0  0  0  0  0  0  0  0
   26.0571  -38.1883    1.7416 O   0  0  0  0  0  0  0  0  0  0  0  0
   25.0623  -33.0707    1.1466 N   0  0  0  0  0  0  0  0  0  0  0  0
   25.5814  -32.0122    1.9865 C   0  0  1  0  0  0  0  0  0  0  0  0
   24.7249  -30.8052    2.0075 C   0  0  0  0  0  0  0  0  0  0  0  0
   24.5068  -30.2871    0.6419 C   0  0  0  0  0  0  0  0  0  0  0  0
   25.4360  -29.5212   -0.0477 C   0  0  0  0  0  0  0  0  0  0  0  0
   25.1560  -29.0768   -1.3209 C   0  0  0  0  0  0  0  0  0  0  0  0
   23.9623  -29.3676   -1.9550 C   0  0  0  0  0  0  0  0  0  0  0  0
   23.0348  -30.1228   -1.2871 C   0  0  0  0  0  0  0  0  0  0  0  0
   23.3102  -30.5662   -0.0211 C   0  0  0  0  0  0  0  0  0  0  0  0
   26.0237  -32.5215    3.3073 C   0  0  0  0  0  0  0  0  0  0  0  0
   25.7858  -33.8585    3.6866 O   0  0  0  0  0  0  0  0  0  0  0  0
   26.6267  -31.8479    4.1772 O   0  0  0  0  0  0  0  0  0  0  0  0
  2  1  1  0
  3  4  1  0
  3  2  1  0
  4  5  1  0
  5  1  1  0
  5  6  1  1
  6  7  2  0
  8  6  1  0
  8  9  1  0
  9 14  1  0
  9 10  1  1
 11 10  1  0
 12 11  1  0
 12 16  1  0
 13 12  2  0
 14 15  2  0
 17 18  1  0
 17 14  1  0
 18 26  1  0
 18 19  1  1
 20 19  1  0
 21 20  2  0
 22 21  1  0
 23 22  2  0
 23 24  1  0
 24 25  2  0
 25 20  1  0
 26 28  2  0
 26 27  1  0
M  END
$$$$
