PEF.pdb
     RDKit          3D

 28 29  0  0  1  0  0  0  0  0999 V2000
   27.8233  -20.5965  -15.5640 N   0  0  0  0  0  0  0  0  0  0  0  0
   28.4064  -20.1152  -16.8182 C   0  0  0  0  0  0  0  0  0  0  0  0
   28.0206  -18.6589  -16.7996 C   0  0  0  0  0  0  0  0  0  0  0  0
   28.1608  -18.3044  -15.3392 C   0  0  0  0  0  0  0  0  0  0  0  0
   28.3001  -19.6344  -14.6203 C   0  0  1  0  0  0  0  0  0  0  0  0
   27.5667  -19.6369  -13.3484 C   0  0  0  0  0  0  0  0  0  0  0  0
   27.8939  -18.7921  -12.4764 O   0  0  0  0  0  0  0  0  0  0  0  0
   26.5102  -20.5232  -13.0226 N   0  0  0  0  0  0  0  0  0  0  0  0
   25.5520  -20.2336  -11.9961 C   0  0  1  0  0  0  0  0  0  0  0  0
   24.1779  -20.7888  -12.2951 C   0  0  0  0  0  0  0  0  0  0  0  0
   23.2019  -20.4272  -11.1973 C   0  0  0  0  0  0  0  0  0  0  0  0
   21.8637  -20.9296  -11.5168 C   0  0  0  0  0  0  0  0  0  0  0  0
   21.6795  -21.7199  -12.4598 O   0  0  0  0  0  0  0  0  0  0  0  0
   26.0503  -20.7664  -10.6757 C   0  0  0  0  0  0  0  0  0  0  0  0
   26.5293  -21.9227  -10.5854 O   0  0  0  0  0  0  0  0  0  0  0  0
   20.7819  -20.5122  -10.7485 O   0  0  0  0  0  0  0  0  0  0  0  0
   25.9862  -19.9668   -9.5081 N   0  0  0  0  0  0  0  0  0  0  0  0
   26.5714  -20.3597   -8.2439 C   0  0  1  0  0  0  0  0  0  0  0  0
   27.3646  -19.2859   -7.6045 C   0  0  0  0  0  0  0  0  0  0  0  0
   27.8417  -19.7030   -6.2706 C   0  0  0  0  0  0  0  0  0  0  0  0
   27.0522  -19.6809   -5.1297 C   0  0  0  0  0  0  0  0  0  0  0  0
   27.5731  -20.0880   -3.9214 C   0  0  0  0  0  0  0  0  0  0  0  0
   28.8778  -20.5274   -3.7942 C   0  0  0  0  0  0  0  0  0  0  0  0
   29.6699  -20.5550   -4.9115 C   0  0  0  0  0  0  0  0  0  0  0  0
   29.1549  -20.1509   -6.1144 C   0  0  0  0  0  0  0  0  0  0  0  0
   25.5916  -21.0537   -7.3734 C   0  0  0  0  0  0  0  0  0  0  0  0
   26.0122  -22.0044   -6.4209 O   0  0  0  0  0  0  0  0  0  0  0  0
   24.3503  -20.8723   -7.3940 O   0  0  0  0  0  0  0  0  0  0  0  0
  2  1  1  0
  3  4  1  0
  3  2  1  0
  4  5  1  0
  5  1  1  0
  5  6  1  1
  6  7  2  0
  8  6  1  0
  8  9  1  0
  9 14  1  0
  9 10  1  6
 11 10  1  0
 12 11  1  0
 12 16  1  0
 13 12  2  0
 14 15  2  0
 17 18  1  0
 17 14  1  0
 18 26  1  0
 18 19  1  1
 20 19  1  0
 21 20  2  0
 22 21  1  0
 23 22  2  0
 23 24  1  0
 24 25  2  0
 25 20  1  0
 26 28  2  0
 26 27  1  0
M  END
$$$$
