PEF.pdb
     RDKit          3D

 28 29  0  0  1  0  0  0  0  0999 V2000
   25.1830  -15.3999  -16.6723 N   0  0  0  0  0  0  0  0  0  0  0  0
   25.5297  -13.9814  -16.5609 C   0  0  0  0  0  0  0  0  0  0  0  0
   26.0173  -13.8931  -15.1381 C   0  0  0  0  0  0  0  0  0  0  0  0
   26.7527  -15.1998  -14.9652 C   0  0  0  0  0  0  0  0  0  0  0  0
   26.3581  -16.0386  -16.1675 C   0  0  1  0  0  0  0  0  0  0  0  0
   26.1568  -17.4453  -15.7983 C   0  0  0  0  0  0  0  0  0  0  0  0
   24.9930  -17.8169  -15.5005 O   0  0  0  0  0  0  0  0  0  0  0  0
   27.1785  -18.4260  -15.7504 N   0  0  0  0  0  0  0  0  0  0  0  0
   26.9481  -19.7537  -15.2605 C   0  0  1  0  0  0  0  0  0  0  0  0
   27.8229  -20.7909  -15.9271 C   0  0  0  0  0  0  0  0  0  0  0  0
   27.5883  -22.1587  -15.3249 C   0  0  0  0  0  0  0  0  0  0  0  0
   26.6189  -22.9103  -16.1253 C   0  0  0  0  0  0  0  0  0  0  0  0
   26.5097  -22.7225  -17.3502 O   0  0  0  0  0  0  0  0  0  0  0  0
   27.1553  -19.7833  -13.7666 C   0  0  0  0  0  0  0  0  0  0  0  0
   27.9142  -18.9576  -13.2035 O   0  0  0  0  0  0  0  0  0  0  0  0
   25.8073  -23.8506  -15.4992 O   0  0  0  0  0  0  0  0  0  0  0  0
   26.4935  -20.7487  -12.9686 N   0  0  0  0  0  0  0  0  0  0  0  0
   26.6723  -20.8515  -11.5358 C   0  0  1  0  0  0  0  0  0  0  0  0
   26.5398  -19.5559  -10.8326 C   0  0  0  0  0  0  0  0  0  0  0  0
   26.6437  -19.7343   -9.3703 C   0  0  0  0  0  0  0  0  0  0  0  0
   27.7581  -19.3694   -8.6282 C   0  0  0  0  0  0  0  0  0  0  0  0
   27.7757  -19.5684   -7.2655 C   0  0  0  0  0  0  0  0  0  0  0  0
   26.7069  -20.1287   -6.5907 C   0  0  0  0  0  0  0  0  0  0  0  0
   25.5994  -20.4942   -7.3095 C   0  0  0  0  0  0  0  0  0  0  0  0
   25.5788  -20.2976   -8.6646 C   0  0  0  0  0  0  0  0  0  0  0  0
   25.9070  -21.9858  -10.9636 C   0  0  0  0  0  0  0  0  0  0  0  0
   24.8106  -22.5431  -11.6530 O   0  0  0  0  0  0  0  0  0  0  0  0
   26.1475  -22.5385   -9.8633 O   0  0  0  0  0  0  0  0  0  0  0  0
  2  1  1  0
  3  4  1  0
  3  2  1  0
  4  5  1  0
  5  1  1  0
  5  6  1  1
  6  7  2  0
  8  6  1  0
  8  9  1  0
  9 14  1  0
  9 10  1  6
 11 10  1  0
 12 11  1  0
 12 16  1  0
 13 12  2  0
 14 15  2  0
 17 18  1  0
 17 14  1  0
 18 26  1  0
 18 19  1  1
 20 19  1  0
 21 20  2  0
 22 21  1  0
 23 22  2  0
 23 24  1  0
 24 25  2  0
 25 20  1  0
 26 28  2  0
 26 27  1  0
M  END
$$$$
