PEF.pdb
     RDKit          3D

 28 29  0  0  1  0  0  0  0  0999 V2000
   20.1128  -13.9994  -20.0571 N   0  0  0  0  0  0  0  0  0  0  0  0
   20.1864  -15.3488  -20.6213 C   0  0  0  0  0  0  0  0  0  0  0  0
   21.2364  -15.1807  -21.6886 C   0  0  0  0  0  0  0  0  0  0  0  0
   22.2110  -14.2291  -21.0384 C   0  0  0  0  0  0  0  0  0  0  0  0
   21.4889  -13.6986  -19.8128 C   0  0  1  0  0  0  0  0  0  0  0  0
   21.7566  -12.2696  -19.6082 C   0  0  0  0  0  0  0  0  0  0  0  0
   22.8764  -11.9396  -19.1411 O   0  0  0  0  0  0  0  0  0  0  0  0
   20.8455  -11.2237  -19.8978 N   0  0  0  0  0  0  0  0  0  0  0  0
   21.1818   -9.8406  -19.7250 C   0  0  1  0  0  0  0  0  0  0  0  0
   20.3979   -8.9225  -20.6350 C   0  0  0  0  0  0  0  0  0  0  0  0
   20.8894   -7.4970  -20.5124 C   0  0  0  0  0  0  0  0  0  0  0  0
   20.0914   -6.6065  -21.3583 C   0  0  0  0  0  0  0  0  0  0  0  0
   19.1448   -7.0402  -22.0390 O   0  0  0  0  0  0  0  0  0  0  0  0
   20.9709   -9.4464  -18.2843 C   0  0  0  0  0  0  0  0  0  0  0  0
   20.0183   -9.9192  -17.6182 O   0  0  0  0  0  0  0  0  0  0  0  0
   20.4020   -5.2512  -21.3977 O   0  0  0  0  0  0  0  0  0  0  0  0
   21.8491   -8.5306  -17.6542 N   0  0  0  0  0  0  0  0  0  0  0  0
   21.7042   -8.1119  -16.2762 C   0  0  1  0  0  0  0  0  0  0  0  0
   22.9174   -8.3445  -15.4607 C   0  0  0  0  0  0  0  0  0  0  0  0
   22.7057   -7.9168  -14.0631 C   0  0  0  0  0  0  0  0  0  0  0  0
   22.7252   -6.5913  -13.6531 C   0  0  0  0  0  0  0  0  0  0  0  0
   22.5173   -6.2749  -12.3288 C   0  0  0  0  0  0  0  0  0  0  0  0
   22.2851   -7.2432  -11.3696 C   0  0  0  0  0  0  0  0  0  0  0  0
   22.2629   -8.5565  -11.7588 C   0  0  0  0  0  0  0  0  0  0  0  0
   22.4691   -8.8742  -13.0748 C   0  0  0  0  0  0  0  0  0  0  0  0
   21.0948   -6.7640  -16.1694 C   0  0  0  0  0  0  0  0  0  0  0  0
   20.0613   -6.5055  -15.2458 O   0  0  0  0  0  0  0  0  0  0  0  0
   21.4228   -5.7657  -16.8551 O   0  0  0  0  0  0  0  0  0  0  0  0
  2  1  1  0
  3  4  1  0
  3  2  1  0
  4  5  1  0
  5  1  1  0
  5  6  1  6
  6  7  2  0
  8  6  1  0
  8  9  1  0
  9 14  1  0
  9 10  1  6
 11 10  1  0
 12 11  1  0
 12 16  1  0
 13 12  2  0
 14 15  2  0
 17 18  1  0
 17 14  1  0
 18 26  1  0
 18 19  1  6
 20 19  1  0
 21 20  2  0
 22 21  1  0
 23 22  2  0
 23 24  1  0
 24 25  2  0
 25 20  1  0
 26 28  2  0
 26 27  1  0
M  END
$$$$
