PEF.pdb
     RDKit          3D

 28 29  0  0  1  0  0  0  0  0999 V2000
   20.4970  -11.9385  -16.4431 N   0  0  0  0  0  0  0  0  0  0  0  0
   20.9174  -13.1301  -17.1833 C   0  0  0  0  0  0  0  0  0  0  0  0
   20.5301  -12.7704  -18.5941 C   0  0  0  0  0  0  0  0  0  0  0  0
   20.8490  -11.2963  -18.6526 C   0  0  0  0  0  0  0  0  0  0  0  0
   21.0828  -10.8840  -17.2103 C   0  0  1  0  0  0  0  0  0  0  0  0
   20.5132   -9.5600  -16.9310 C   0  0  0  0  0  0  0  0  0  0  0  0
   21.0729   -8.5566  -17.4421 O   0  0  0  0  0  0  0  0  0  0  0  0
   19.3731   -9.3207  -16.1243 N   0  0  0  0  0  0  0  0  0  0  0  0
   18.8639   -8.0021  -15.8836 C   0  0  1  0  0  0  0  0  0  0  0  0
   17.3838   -7.9861  -15.5760 C   0  0  0  0  0  0  0  0  0  0  0  0
   16.5755   -8.3315  -16.8073 C   0  0  0  0  0  0  0  0  0  0  0  0
   15.1480   -8.3841  -16.4837 C   0  0  0  0  0  0  0  0  0  0  0  0
   14.6469   -9.3827  -15.9366 O   0  0  0  0  0  0  0  0  0  0  0  0
   19.6348   -7.3616  -14.7563 C   0  0  0  0  0  0  0  0  0  0  0  0
   19.8212   -7.9695  -13.6744 O   0  0  0  0  0  0  0  0  0  0  0  0
   14.3418   -7.2945  -16.7960 O   0  0  0  0  0  0  0  0  0  0  0  0
   20.1647   -6.0557  -14.8994 N   0  0  0  0  0  0  0  0  0  0  0  0
   20.9898   -5.4193  -13.8947 C   0  0  1  0  0  0  0  0  0  0  0  0
   22.1542   -6.2370  -13.4864 C   0  0  0  0  0  0  0  0  0  0  0  0
   23.1242   -6.3659  -14.5925 C   0  0  0  0  0  0  0  0  0  0  0  0
   23.7578   -5.2855  -15.1899 C   0  0  0  0  0  0  0  0  0  0  0  0
   24.6520   -5.4908  -16.2171 C   0  0  0  0  0  0  0  0  0  0  0  0
   24.9518   -6.7555  -16.6887 C   0  0  0  0  0  0  0  0  0  0  0  0
   24.3345   -7.8323  -16.1091 C   0  0  0  0  0  0  0  0  0  0  0  0
   23.4448   -7.6314  -15.0876 C   0  0  0  0  0  0  0  0  0  0  0  0
   21.2724   -4.0022  -14.2283 C   0  0  0  0  0  0  0  0  0  0  0  0
   21.8842   -3.1439  -13.2917 O   0  0  0  0  0  0  0  0  0  0  0  0
   21.0107   -3.4513  -15.3247 O   0  0  0  0  0  0  0  0  0  0  0  0
  2  1  1  0
  3  4  1  0
  3  2  1  0
  4  5  1  0
  5  1  1  0
  5  6  1  1
  6  7  2  0
  8  6  1  0
  8  9  1  0
  9 14  1  0
  9 10  1  1
 11 10  1  0
 12 11  1  0
 12 16  1  0
 13 12  2  0
 14 15  2  0
 17 18  1  0
 17 14  1  0
 18 26  1  0
 18 19  1  6
 20 19  1  0
 21 20  2  0
 22 21  1  0
 23 22  2  0
 23 24  1  0
 24 25  2  0
 25 20  1  0
 26 28  2  0
 26 27  1  0
M  END
$$$$
