PEF.pdb
     RDKit          3D

 28 29  0  0  1  0  0  0  0  0999 V2000
   21.3700  -15.2679  -18.9528 N   0  0  0  0  0  0  0  0  0  0  0  0
   21.9172  -16.4323  -19.6523 C   0  0  0  0  0  0  0  0  0  0  0  0
   21.6292  -16.0919  -21.0915 C   0  0  0  0  0  0  0  0  0  0  0  0
   21.8683  -14.6020  -21.1268 C   0  0  0  0  0  0  0  0  0  0  0  0
   21.9574  -14.1804  -19.6711 C   0  0  1  0  0  0  0  0  0  0  0  0
   21.2927  -12.8912  -19.4436 C   0  0  0  0  0  0  0  0  0  0  0  0
   21.8383  -11.8562  -19.9041 O   0  0  0  0  0  0  0  0  0  0  0  0
   20.0746  -12.7192  -18.7402 N   0  0  0  0  0  0  0  0  0  0  0  0
   19.4584  -11.4355  -18.5714 C   0  0  1  0  0  0  0  0  0  0  0  0
   17.9580  -11.4706  -18.7530 C   0  0  0  0  0  0  0  0  0  0  0  0
   17.3858  -10.0702  -18.7669 C   0  0  0  0  0  0  0  0  0  0  0  0
   15.9308  -10.1139  -18.9292 C   0  0  0  0  0  0  0  0  0  0  0  0
   15.3948  -10.8945  -19.7360 O   0  0  0  0  0  0  0  0  0  0  0  0
   19.8032  -10.8855  -17.2097 C   0  0  0  0  0  0  0  0  0  0  0  0
   19.6460  -11.5778  -16.1750 O   0  0  0  0  0  0  0  0  0  0  0  0
   15.1379   -9.2645  -18.1645 O   0  0  0  0  0  0  0  0  0  0  0  0
   20.3132   -9.5709  -17.0741 N   0  0  0  0  0  0  0  0  0  0  0  0
   20.6427   -8.9752  -15.7966 C   0  0  1  0  0  0  0  0  0  0  0  0
   22.0979   -8.8078  -15.5842 C   0  0  0  0  0  0  0  0  0  0  0  0
   22.3736   -8.1904  -14.2713 C   0  0  0  0  0  0  0  0  0  0  0  0
   22.5369   -8.9155  -13.0995 C   0  0  0  0  0  0  0  0  0  0  0  0
   22.7932   -8.2633  -11.9138 C   0  0  0  0  0  0  0  0  0  0  0  0
   22.8969   -6.8866  -11.8398 C   0  0  0  0  0  0  0  0  0  0  0  0
   22.7380   -6.1567  -12.9882 C   0  0  0  0  0  0  0  0  0  0  0  0
   22.4832   -6.8023  -14.1687 C   0  0  0  0  0  0  0  0  0  0  0  0
   19.8001   -7.7898  -15.5060 C   0  0  0  0  0  0  0  0  0  0  0  0
   19.1956   -7.6207  -14.2434 O   0  0  0  0  0  0  0  0  0  0  0  0
   19.5541   -6.8619  -16.3138 O   0  0  0  0  0  0  0  0  0  0  0  0
  2  1  1  0
  3  4  1  0
  3  2  1  0
  4  5  1  0
  5  1  1  0
  5  6  1  6
  6  7  2  0
  8  6  1  0
  8  9  1  0
  9 14  1  0
  9 10  1  1
 11 10  1  0
 12 11  1  0
 12 16  1  0
 13 12  2  0
 14 15  2  0
 17 18  1  0
 17 14  1  0
 18 26  1  0
 18 19  1  6
 20 19  1  0
 21 20  2  0
 22 21  1  0
 23 22  2  0
 23 24  1  0
 24 25  2  0
 25 20  1  0
 26 28  2  0
 26 27  1  0
M  END
$$$$
