PEF.pdb
     RDKit          3D

 28 29  0  0  1  0  0  0  0  0999 V2000
   24.4029  -12.1487  -15.6412 N   0  0  0  0  0  0  0  0  0  0  0  0
   24.8666  -13.5373  -15.6797 C   0  0  0  0  0  0  0  0  0  0  0  0
   23.7420  -14.2184  -16.4155 C   0  0  0  0  0  0  0  0  0  0  0  0
   23.3515  -13.1831  -17.4420 C   0  0  0  0  0  0  0  0  0  0  0  0
   24.0531  -11.9091  -17.0065 C   0  0  1  0  0  0  0  0  0  0  0  0
   23.1984  -10.7315  -17.2021 C   0  0  0  0  0  0  0  0  0  0  0  0
   22.9813  -10.3484  -18.3799 O   0  0  0  0  0  0  0  0  0  0  0  0
   22.5934   -9.9857  -16.1600 N   0  0  0  0  0  0  0  0  0  0  0  0
   21.7789   -8.8329  -16.4118 C   0  0  1  0  0  0  0  0  0  0  0  0
   20.4397   -8.8899  -15.7126 C   0  0  0  0  0  0  0  0  0  0  0  0
   19.6421   -7.6318  -15.9764 C   0  0  0  0  0  0  0  0  0  0  0  0
   18.3757   -7.6657  -15.2412 C   0  0  0  0  0  0  0  0  0  0  0  0
   18.1484   -6.8718  -14.3109 O   0  0  0  0  0  0  0  0  0  0  0  0
   22.5256   -7.5881  -16.0011 C   0  0  0  0  0  0  0  0  0  0  0  0
   23.0558   -7.4977  -14.8673 O   0  0  0  0  0  0  0  0  0  0  0  0
   17.4124   -8.6052  -15.5939 O   0  0  0  0  0  0  0  0  0  0  0  0
   22.6423   -6.4934  -16.8926 N   0  0  0  0  0  0  0  0  0  0  0  0
   23.3469   -5.2727  -16.5628 C   0  0  1  0  0  0  0  0  0  0  0  0
   24.3398   -4.8728  -17.5850 C   0  0  0  0  0  0  0  0  0  0  0  0
   24.9855   -3.5946  -17.2241 C   0  0  0  0  0  0  0  0  0  0  0  0
   24.5284   -2.3551  -17.6486 C   0  0  0  0  0  0  0  0  0  0  0  0
   25.1877   -1.2079  -17.2662 C   0  0  0  0  0  0  0  0  0  0  0  0
   26.3102   -1.2395  -16.4596 C   0  0  0  0  0  0  0  0  0  0  0  0
   26.7737   -2.4558  -16.0323 C   0  0  0  0  0  0  0  0  0  0  0  0
   26.1204   -3.5982  -16.4108 C   0  0  0  0  0  0  0  0  0  0  0  0
   22.4226   -4.2093  -16.0996 C   0  0  0  0  0  0  0  0  0  0  0  0
   22.6877   -3.4789  -14.9231 O   0  0  0  0  0  0  0  0  0  0  0  0
   21.3645   -3.8673  -16.6806 O   0  0  0  0  0  0  0  0  0  0  0  0
  2  1  1  0
  3  4  1  0
  3  2  1  0
  4  5  1  0
  5  1  1  0
  5  6  1  1
  6  7  2  0
  8  6  1  0
  8  9  1  0
  9 14  1  0
  9 10  1  1
 11 10  1  0
 12 11  1  0
 12 16  1  0
 13 12  2  0
 14 15  2  0
 17 18  1  0
 17 14  1  0
 18 26  1  0
 18 19  1  6
 20 19  1  0
 21 20  2  0
 22 21  1  0
 23 22  2  0
 23 24  1  0
 24 25  2  0
 25 20  1  0
 26 28  2  0
 26 27  1  0
M  END
$$$$
