VNY.pdb
     RDKit          3D

 28 28  0  0  1  0  0  0  0  0999 V2000
   23.5895  -21.1960  -22.3476 C   0  0  0  0  0  0  0  0  0  0  0  0
   23.2577  -19.7980  -21.8838 C   0  0  1  0  0  0  0  0  0  0  0  0
   21.7772  -19.8085  -21.5072 C   0  0  0  0  0  0  0  0  0  0  0  0
   24.0573  -19.4968  -20.6346 C   0  0  2  0  0  0  0  0  0  0  0  0
   24.5124  -20.7398  -20.0776 N   0  0  0  0  0  0  0  0  0  0  0  0
   23.2252  -18.7716  -19.6415 C   0  0  0  0  0  0  0  0  0  0  0  0
   22.6655  -17.6812  -19.8818 O   0  0  0  0  0  0  0  0  0  0  0  0
   19.5352  -17.1250  -19.4227 N   0  0  0  0  0  0  0  0  0  0  0  0
   20.3268  -17.3108  -18.2399 C   0  0  0  0  0  0  0  0  0  0  0  0
   20.6064  -16.2719  -17.6015 O   0  0  0  0  0  0  0  0  0  0  0  0
   20.7516  -18.6749  -17.8578 C   0  0  0  0  0  0  0  0  0  0  0  0
   22.1630  -18.7448  -17.3641 C   0  0  2  0  0  0  0  0  0  0  0  0
   23.0410  -19.3260  -18.3441 N   0  0  0  0  0  0  0  0  0  0  0  0
   22.2509  -19.5247  -16.0956 C   0  0  0  0  0  0  0  0  0  0  0  0
   22.1056  -20.7724  -16.1124 O   0  0  0  0  0  0  0  0  0  0  0  0
   23.3573  -21.9881   -7.7448 O   0  0  0  0  0  0  0  0  0  0  0  0
   23.2557  -21.2190   -8.8960 C   0  0  0  0  0  0  0  0  0  0  0  0
   24.3347  -21.0236   -9.7291 C   0  0  0  0  0  0  0  0  0  0  0  0
   24.2081  -20.2569  -10.8645 C   0  0  0  0  0  0  0  0  0  0  0  0
   23.0166  -19.6500  -11.2292 C   0  0  0  0  0  0  0  0  0  0  0  0
   22.9507  -18.8235  -12.4483 C   0  0  0  0  0  0  0  0  0  0  0  0
   22.5587  -19.6668  -13.6119 C   0  0  2  0  0  0  0  0  0  0  0  0
   22.4951  -18.9136  -14.8476 N   0  0  0  0  0  0  0  0  0  0  0  0
   21.2843  -20.3975  -13.4550 C   0  0  0  0  0  0  0  0  0  0  0  0
   20.0572  -19.7773  -13.6789 O   0  0  0  0  0  0  0  0  0  0  0  0
   21.9531  -19.8616  -10.3779 C   0  0  0  0  0  0  0  0  0  0  0  0
   22.0598  -20.6267   -9.2356 C   0  0  0  0  0  0  0  0  0  0  0  0
   21.2457  -21.6009  -13.1156 O   0  0  0  0  0  0  0  0  0  0  0  0
  2  3  1  1
  2  1  1  0
  4  5  1  1
  4  2  1  0
  6  4  1  0
  7  6  2  0
  9 11  1  0
  9  8  1  0
 10  9  2  0
 12 11  1  6
 12 13  1  0
 13  6  1  0
 14 12  1  0
 14 15  2  0
 17 16  1  0
 17 18  2  0
 19 18  1  0
 20 19  2  0
 21 20  1  0
 22 21  1  1
 23 22  1  0
 23 14  1  0
 24 22  1  0
 25 24  1  0
 26 27  2  0
 26 20  1  0
 27 17  1  0
 28 24  2  0
M  END
$$$$
