VNY.pdb
     RDKit          3D

 28 28  0  0  1  0  0  0  0  0999 V2000
   28.0196  -19.2206  -18.9149 C   0  0  0  0  0  0  0  0  0  0  0  0
   27.5234  -20.3447  -18.0376 C   0  0  1  0  0  0  0  0  0  0  0  0
   28.6356  -20.6281  -17.0294 C   0  0  0  0  0  0  0  0  0  0  0  0
   26.3082  -19.8656  -17.2731 C   0  0  2  0  0  0  0  0  0  0  0  0
   26.5187  -18.4945  -16.9013 N   0  0  0  0  0  0  0  0  0  0  0  0
   26.0932  -20.6921  -16.0586 C   0  0  0  0  0  0  0  0  0  0  0  0
   25.9650  -21.9342  -16.0886 O   0  0  0  0  0  0  0  0  0  0  0  0
   25.0573  -22.0106  -11.1692 N   0  0  0  0  0  0  0  0  0  0  0  0
   26.3328  -21.3608  -11.2743 C   0  0  0  0  0  0  0  0  0  0  0  0
   27.0803  -21.4609  -10.2762 O   0  0  0  0  0  0  0  0  0  0  0  0
   26.6772  -20.6348  -12.5160 C   0  0  0  0  0  0  0  0  0  0  0  0
   25.6395  -20.7584  -13.5877 C   0  0  2  0  0  0  0  0  0  0  0  0
   26.0261  -20.0612  -14.7851 N   0  0  0  0  0  0  0  0  0  0  0  0
   24.3195  -20.2449  -13.1197 C   0  0  0  0  0  0  0  0  0  0  0  0
   24.2558  -19.1708  -12.4712 O   0  0  0  0  0  0  0  0  0  0  0  0
   21.2974  -19.1829  -19.2643 O   0  0  0  0  0  0  0  0  0  0  0  0
   21.3825  -19.1395  -17.8795 C   0  0  0  0  0  0  0  0  0  0  0  0
   20.3528  -19.5841  -17.0804 C   0  0  0  0  0  0  0  0  0  0  0  0
   20.4618  -19.5304  -15.7099 C   0  0  0  0  0  0  0  0  0  0  0  0
   21.5865  -19.0380  -15.0669 C   0  0  0  0  0  0  0  0  0  0  0  0
   21.6340  -18.9883  -13.5942 C   0  0  0  0  0  0  0  0  0  0  0  0
   21.8165  -20.3613  -13.0462 C   0  0  2  0  0  0  0  0  0  0  0  0
   23.1098  -20.9240  -13.3766 N   0  0  0  0  0  0  0  0  0  0  0  0
   20.7788  -21.3362  -13.4403 C   0  0  0  0  0  0  0  0  0  0  0  0
   21.1066  -22.5303  -14.0786 O   0  0  0  0  0  0  0  0  0  0  0  0
   22.6017  -18.5997  -15.8902 C   0  0  0  0  0  0  0  0  0  0  0  0
   22.5116  -18.6452  -17.2655 C   0  0  0  0  0  0  0  0  0  0  0  0
   19.5632  -21.1379  -13.2212 O   0  0  0  0  0  0  0  0  0  0  0  0
  2  3  1  1
  2  1  1  0
  4  5  1  1
  4  2  1  0
  6  4  1  0
  7  6  2  0
  9 11  1  0
  9  8  1  0
 10  9  2  0
 12 11  1  1
 12 13  1  0
 13  6  1  0
 14 12  1  0
 14 15  2  0
 17 16  1  0
 17 18  2  0
 19 18  1  0
 20 19  2  0
 21 20  1  0
 22 21  1  6
 23 22  1  0
 23 14  1  0
 24 22  1  0
 25 24  1  0
 26 27  2  0
 26 20  1  0
 27 17  1  0
 28 24  2  0
M  END
$$$$
