VNY.pdb
     RDKit          3D

 28 28  0  0  1  0  0  0  0  0999 V2000
   30.4626  -26.1315  -18.3694 C   0  0  0  0  0  0  0  0  0  0  0  0
   29.8591  -24.7554  -18.5170 C   0  0  1  0  0  0  0  0  0  0  0  0
   28.6199  -24.9199  -19.3953 C   0  0  0  0  0  0  0  0  0  0  0  0
   29.4082  -24.2729  -17.1553 C   0  0  2  0  0  0  0  0  0  0  0  0
   28.5647  -25.2797  -16.5745 N   0  0  0  0  0  0  0  0  0  0  0  0
   28.6630  -22.9940  -17.2724 C   0  0  0  0  0  0  0  0  0  0  0  0
   29.0607  -22.0291  -17.9586 O   0  0  0  0  0  0  0  0  0  0  0  0
   25.0715  -19.3734  -17.0865 N   0  0  0  0  0  0  0  0  0  0  0  0
   25.4950  -20.0893  -18.2562 C   0  0  0  0  0  0  0  0  0  0  0  0
   25.1546  -19.5930  -19.3530 O   0  0  0  0  0  0  0  0  0  0  0  0
   26.2832  -21.3311  -18.1013 C   0  0  0  0  0  0  0  0  0  0  0  0
   26.6255  -21.6480  -16.6789 C   0  0  2  0  0  0  0  0  0  0  0  0
   27.4314  -22.8351  -16.5777 N   0  0  0  0  0  0  0  0  0  0  0  0
   25.3939  -21.8134  -15.8537 C   0  0  0  0  0  0  0  0  0  0  0  0
   24.8101  -22.9249  -15.8098 O   0  0  0  0  0  0  0  0  0  0  0  0
   23.9729  -20.5380   -7.4087 O   0  0  0  0  0  0  0  0  0  0  0  0
   24.3774  -20.4663   -8.7346 C   0  0  0  0  0  0  0  0  0  0  0  0
   23.4671  -20.3298   -9.7589 C   0  0  0  0  0  0  0  0  0  0  0  0
   23.8938  -20.2609  -11.0652 C   0  0  0  0  0  0  0  0  0  0  0  0
   25.2321  -20.3232  -11.4200 C   0  0  0  0  0  0  0  0  0  0  0  0
   25.6240  -20.2642  -12.8401 C   0  0  0  0  0  0  0  0  0  0  0  0
   24.5589  -20.8721  -13.6856 C   0  0  2  0  0  0  0  0  0  0  0  0
   24.8398  -20.7558  -15.1019 N   0  0  0  0  0  0  0  0  0  0  0  0
   23.1963  -20.3543  -13.4450 C   0  0  0  0  0  0  0  0  0  0  0  0
   22.2884  -21.0400  -12.6411 O   0  0  0  0  0  0  0  0  0  0  0  0
   26.1216  -20.4600  -10.3757 C   0  0  0  0  0  0  0  0  0  0  0  0
   25.7139  -20.5307   -9.0603 C   0  0  0  0  0  0  0  0  0  0  0  0
   22.7944  -19.2819  -13.9483 O   0  0  0  0  0  0  0  0  0  0  0  0
  2  3  1  6
  2  1  1  0
  4  5  1  6
  4  2  1  0
  6  4  1  0
  7  6  2  0
  9 11  1  0
  9  8  1  0
 10  9  2  0
 12 11  1  6
 12 13  1  0
 13  6  1  0
 14 12  1  0
 14 15  2  0
 17 16  1  0
 17 18  2  0
 19 18  1  0
 20 19  2  0
 21 20  1  0
 22 21  1  1
 23 22  1  0
 23 14  1  0
 24 22  1  0
 25 24  1  0
 26 27  2  0
 26 20  1  0
 27 17  1  0
 28 24  2  0
M  END
$$$$
