VNY.pdb
     RDKit          3D

 28 28  0  0  1  0  0  0  0  0999 V2000
   14.0602  -11.6610  -14.4395 C   0  0  0  0  0  0  0  0  0  0  0  0
   14.8490  -12.9420  -14.5679 C   0  0  1  0  0  0  0  0  0  0  0  0
   14.1165  -13.7978  -15.5999 C   0  0  0  0  0  0  0  0  0  0  0  0
   16.2208  -12.6160  -15.1177 C   0  0  2  0  0  0  0  0  0  0  0  0
   16.9892  -13.8283  -15.1660 N   0  0  0  0  0  0  0  0  0  0  0  0
   16.9057  -11.6164  -14.2596 C   0  0  0  0  0  0  0  0  0  0  0  0
   17.4206  -11.8975  -13.1568 O   0  0  0  0  0  0  0  0  0  0  0  0
   20.0434   -9.9952  -15.1493 N   0  0  0  0  0  0  0  0  0  0  0  0
   19.5396   -8.6878  -15.4611 C   0  0  0  0  0  0  0  0  0  0  0  0
   20.2126   -8.0248  -16.2812 O   0  0  0  0  0  0  0  0  0  0  0  0
   18.2950   -8.2167  -14.8158 C   0  0  0  0  0  0  0  0  0  0  0  0
   17.6566   -9.2409  -13.9301 C   0  0  2  0  0  0  0  0  0  0  0  0
   16.9930  -10.2640  -14.6930 N   0  0  0  0  0  0  0  0  0  0  0  0
   16.6816   -8.6096  -12.9943 C   0  0  0  0  0  0  0  0  0  0  0  0
   15.4492   -8.7986  -13.1474 O   0  0  0  0  0  0  0  0  0  0  0  0
   11.8321   -6.4029   -6.3781 O   0  0  0  0  0  0  0  0  0  0  0  0
   12.7085   -6.9138   -7.3256 C   0  0  0  0  0  0  0  0  0  0  0  0
   14.0448   -7.0956   -7.0465 C   0  0  0  0  0  0  0  0  0  0  0  0
   14.8931   -7.6039   -8.0032 C   0  0  0  0  0  0  0  0  0  0  0  0
   14.4646   -7.9550   -9.2736 C   0  0  0  0  0  0  0  0  0  0  0  0
   15.4276   -8.4758  -10.2611 C   0  0  0  0  0  0  0  0  0  0  0  0
   16.1691   -7.3473  -10.8900 C   0  0  2  0  0  0  0  0  0  0  0  0
   17.0870   -7.7906  -11.9193 N   0  0  0  0  0  0  0  0  0  0  0  0
   16.9164   -6.4873   -9.9496 C   0  0  0  0  0  0  0  0  0  0  0  0
   16.3496   -5.3351   -9.4092 O   0  0  0  0  0  0  0  0  0  0  0  0
   13.1231   -7.7628   -9.5262 C   0  0  0  0  0  0  0  0  0  0  0  0
   12.2570   -7.2547   -8.5810 C   0  0  0  0  0  0  0  0  0  0  0  0
   18.0869   -6.7503   -9.5951 O   0  0  0  0  0  0  0  0  0  0  0  0
  2  3  1  6
  2  1  1  0
  4  5  1  1
  4  2  1  0
  6  4  1  0
  7  6  2  0
  9 11  1  0
  9  8  1  0
 10  9  2  0
 12 11  1  6
 12 13  1  0
 13  6  1  0
 14 12  1  0
 14 15  2  0
 17 16  1  0
 17 18  2  0
 19 18  1  0
 20 19  2  0
 21 20  1  0
 22 21  1  1
 23 22  1  0
 23 14  1  0
 24 22  1  0
 25 24  1  0
 26 27  2  0
 26 20  1  0
 27 17  1  0
 28 24  2  0
M  END
$$$$
