VNY.pdb
     RDKit          3D

 28 28  0  0  1  0  0  0  0  0999 V2000
   26.7107  -16.6683  -18.4248 C   0  0  0  0  0  0  0  0  0  0  0  0
   26.1332  -17.5096  -17.3120 C   0  0  1  0  0  0  0  0  0  0  0  0
   24.7002  -17.8436  -17.7231 C   0  0  0  0  0  0  0  0  0  0  0  0
   26.9109  -18.8052  -17.2272 C   0  0  2  0  0  0  0  0  0  0  0  0
   26.9082  -19.4207  -18.5247 N   0  0  0  0  0  0  0  0  0  0  0  0
   26.2982  -19.7203  -16.2314 C   0  0  0  0  0  0  0  0  0  0  0  0
   25.3756  -20.5156  -16.5077 O   0  0  0  0  0  0  0  0  0  0  0  0
   25.2200  -22.1412  -11.8207 N   0  0  0  0  0  0  0  0  0  0  0  0
   26.4540  -21.4490  -11.5793 C   0  0  0  0  0  0  0  0  0  0  0  0
   26.9916  -21.6624  -10.4700 O   0  0  0  0  0  0  0  0  0  0  0  0
   26.9998  -20.5534  -12.6221 C   0  0  0  0  0  0  0  0  0  0  0  0
   26.1222  -20.4377  -13.8293 C   0  0  2  0  0  0  0  0  0  0  0  0
   26.7683  -19.7098  -14.8885 N   0  0  0  0  0  0  0  0  0  0  0  0
   24.8281  -19.7772  -13.4919 C   0  0  0  0  0  0  0  0  0  0  0  0
   24.7715  -18.5281  -13.3707 O   0  0  0  0  0  0  0  0  0  0  0  0
   16.9159  -16.6201  -13.4169 O   0  0  0  0  0  0  0  0  0  0  0  0
   18.1782  -17.1627  -13.6142 C   0  0  0  0  0  0  0  0  0  0  0  0
   18.3545  -18.3485  -14.2919 C   0  0  0  0  0  0  0  0  0  0  0  0
   19.6165  -18.8654  -14.4743 C   0  0  0  0  0  0  0  0  0  0  0  0
   20.7580  -18.2395  -13.9988 C   0  0  0  0  0  0  0  0  0  0  0  0
   22.0810  -18.8551  -14.2094 C   0  0  0  0  0  0  0  0  0  0  0  0
   22.3470  -19.8618  -13.1442 C   0  0  2  0  0  0  0  0  0  0  0  0
   23.6355  -20.5057  -13.2975 N   0  0  0  0  0  0  0  0  0  0  0  0
   21.3213  -20.9165  -13.0089 C   0  0  0  0  0  0  0  0  0  0  0  0
   20.2006  -20.7425  -12.1999 O   0  0  0  0  0  0  0  0  0  0  0  0
   20.5530  -17.0548  -13.3243 C   0  0  0  0  0  0  0  0  0  0  0  0
   19.2965  -16.5204  -13.1313 C   0  0  0  0  0  0  0  0  0  0  0  0
   21.4090  -22.0099  -13.6103 O   0  0  0  0  0  0  0  0  0  0  0  0
  2  3  1  6
  2  1  1  0
  4  5  1  6
  4  2  1  0
  6  4  1  0
  7  6  2  0
  9 11  1  0
  9  8  1  0
 10  9  2  0
 12 11  1  1
 12 13  1  0
 13  6  1  0
 14 12  1  0
 14 15  2  0
 17 16  1  0
 17 18  2  0
 19 18  1  0
 20 19  2  0
 21 20  1  0
 22 21  1  6
 23 22  1  0
 23 14  1  0
 24 22  1  0
 25 24  1  0
 26 27  2  0
 26 20  1  0
 27 17  1  0
 28 24  2  0
M  END
$$$$
