VNY.pdb
     RDKit          3D

 28 28  0  0  1  0  0  0  0  0999 V2000
   24.7591  -18.2762  -17.2266 C   0  0  0  0  0  0  0  0  0  0  0  0
   23.8997  -18.4193  -15.9935 C   0  0  1  0  0  0  0  0  0  0  0  0
   23.1674  -19.7530  -16.1306 C   0  0  0  0  0  0  0  0  0  0  0  0
   24.7997  -18.5009  -14.7795 C   0  0  2  0  0  0  0  0  0  0  0  0
   25.6350  -19.6616  -14.9122 N   0  0  0  0  0  0  0  0  0  0  0  0
   23.9948  -18.5960  -13.5355 C   0  0  0  0  0  0  0  0  0  0  0  0
   22.9328  -17.9634  -13.3559 O   0  0  0  0  0  0  0  0  0  0  0  0
   20.8196  -19.5616  -11.7128 N   0  0  0  0  0  0  0  0  0  0  0  0
   21.2339  -20.6990  -12.4839 C   0  0  0  0  0  0  0  0  0  0  0  0
   20.3311  -21.2835  -13.1229 O   0  0  0  0  0  0  0  0  0  0  0  0
   22.6574  -21.1003  -12.4779 C   0  0  0  0  0  0  0  0  0  0  0  0
   23.5284  -20.2002  -11.6581 C   0  0  2  0  0  0  0  0  0  0  0  0
   24.4341  -19.4434  -12.4803 N   0  0  0  0  0  0  0  0  0  0  0  0
   24.3060  -20.9771  -10.6497 C   0  0  0  0  0  0  0  0  0  0  0  0
   23.7181  -21.7826   -9.8857 O   0  0  0  0  0  0  0  0  0  0  0  0
   29.6346  -19.7592   -3.8903 O   0  0  0  0  0  0  0  0  0  0  0  0
   29.0055  -19.7096   -5.1267 C   0  0  0  0  0  0  0  0  0  0  0  0
   29.3492  -20.5711   -6.1446 C   0  0  0  0  0  0  0  0  0  0  0  0
   28.7103  -20.5017   -7.3613 C   0  0  0  0  0  0  0  0  0  0  0  0
   27.7073  -19.5835   -7.6290 C   0  0  0  0  0  0  0  0  0  0  0  0
   27.0751  -19.5463   -8.9603 C   0  0  0  0  0  0  0  0  0  0  0  0
   26.3571  -20.8260   -9.2166 C   0  0  2  0  0  0  0  0  0  0  0  0
   25.7039  -20.8474  -10.5093 N   0  0  0  0  0  0  0  0  0  0  0  0
   25.3596  -21.2005   -8.1933 C   0  0  0  0  0  0  0  0  0  0  0  0
   24.2725  -20.3795   -7.9016 O   0  0  0  0  0  0  0  0  0  0  0  0
   27.3832  -18.7335   -6.5932 C   0  0  0  0  0  0  0  0  0  0  0  0
   28.0116  -18.7872   -5.3669 C   0  0  0  0  0  0  0  0  0  0  0  0
   25.4422  -22.2661   -7.5432 O   0  0  0  0  0  0  0  0  0  0  0  0
  2  3  1  6
  2  1  1  0
  4  5  1  6
  4  2  1  0
  6  4  1  0
  7  6  2  0
  9 11  1  0
  9  8  1  0
 10  9  2  0
 12 11  1  6
 12 13  1  0
 13  6  1  0
 14 12  1  0
 14 15  2  0
 17 16  1  0
 17 18  2  0
 19 18  1  0
 20 19  2  0
 21 20  1  0
 22 21  1  1
 23 22  1  0
 23 14  1  0
 24 22  1  0
 25 24  1  0
 26 27  2  0
 26 20  1  0
 27 17  1  0
 28 24  2  0
M  END
$$$$
