VNY.pdb
     RDKit          3D

 28 28  0  0  1  0  0  0  0  0999 V2000
   25.2742  -15.2937  -14.1611 C   0  0  0  0  0  0  0  0  0  0  0  0
   24.8601  -15.4495  -15.6046 C   0  0  1  0  0  0  0  0  0  0  0  0
   25.0254  -14.0754  -16.2514 C   0  0  0  0  0  0  0  0  0  0  0  0
   25.8156  -16.4060  -16.2848 C   0  0  2  0  0  0  0  0  0  0  0  0
   25.5058  -16.4351  -17.6868 N   0  0  0  0  0  0  0  0  0  0  0  0
   25.6903  -17.7694  -15.7103 C   0  0  0  0  0  0  0  0  0  0  0  0
   24.6335  -18.4341  -15.7464 O   0  0  0  0  0  0  0  0  0  0  0  0
   26.8492  -22.3352  -13.6577 N   0  0  0  0  0  0  0  0  0  0  0  0
   28.1001  -21.7280  -14.0138 C   0  0  0  0  0  0  0  0  0  0  0  0
   29.1048  -22.4707  -13.9513 O   0  0  0  0  0  0  0  0  0  0  0  0
   28.1269  -20.3062  -14.4204 C   0  0  0  0  0  0  0  0  0  0  0  0
   26.7702  -19.6763  -14.4803 C   0  0  2  0  0  0  0  0  0  0  0  0
   26.8165  -18.3705  -15.0818 N   0  0  0  0  0  0  0  0  0  0  0  0
   26.1642  -19.5747  -13.1211 C   0  0  0  0  0  0  0  0  0  0  0  0
   26.8187  -19.0674  -12.1764 O   0  0  0  0  0  0  0  0  0  0  0  0
   28.4066  -21.1647   -6.6453 O   0  0  0  0  0  0  0  0  0  0  0  0
   27.4810  -20.7262   -7.5823 C   0  0  0  0  0  0  0  0  0  0  0  0
   26.7450  -21.6124   -8.3370 C   0  0  0  0  0  0  0  0  0  0  0  0
   25.8335  -21.1522   -9.2593 C   0  0  0  0  0  0  0  0  0  0  0  0
   25.6067  -19.8027   -9.4789 C   0  0  0  0  0  0  0  0  0  0  0  0
   24.6303  -19.3731  -10.4966 C   0  0  0  0  0  0  0  0  0  0  0  0
   24.4511  -20.4475  -11.5126 C   0  0  2  0  0  0  0  0  0  0  0  0
   24.8596  -20.0319  -12.8388 N   0  0  0  0  0  0  0  0  0  0  0  0
   23.0838  -20.9991  -11.6065 C   0  0  0  0  0  0  0  0  0  0  0  0
   22.4209  -21.4963  -10.4867 O   0  0  0  0  0  0  0  0  0  0  0  0
   26.3565  -18.9379   -8.7105 C   0  0  0  0  0  0  0  0  0  0  0  0
   27.2747  -19.3792   -7.7811 C   0  0  0  0  0  0  0  0  0  0  0  0
   22.4591  -21.0462  -12.6893 O   0  0  0  0  0  0  0  0  0  0  0  0
  2  3  1  6
  2  1  1  0
  4  5  1  6
  4  2  1  0
  6  4  1  0
  7  6  2  0
  9 11  1  0
  9  8  1  0
 10  9  2  0
 12 11  1  1
 12 13  1  0
 13  6  1  0
 14 12  1  0
 14 15  2  0
 17 16  1  0
 17 18  2  0
 19 18  1  0
 20 19  2  0
 21 20  1  0
 22 21  1  1
 23 22  1  0
 23 14  1  0
 24 22  1  0
 25 24  1  0
 26 27  2  0
 26 20  1  0
 27 17  1  0
 28 24  2  0
M  END
$$$$
