VNY.pdb
     RDKit          3D

 28 28  0  0  1  0  0  0  0  0999 V2000
   31.0520  -34.1553  -17.5431 C   0  0  0  0  0  0  0  0  0  0  0  0
   30.1886  -33.8169  -16.3517 C   0  0  1  0  0  0  0  0  0  0  0  0
   30.8645  -32.6404  -15.6495 C   0  0  0  0  0  0  0  0  0  0  0  0
   28.8357  -33.3532  -16.8468 C   0  0  2  0  0  0  0  0  0  0  0  0
   28.7402  -33.6505  -18.2485 N   0  0  0  0  0  0  0  0  0  0  0  0
   28.6682  -31.8945  -16.6261 C   0  0  0  0  0  0  0  0  0  0  0  0
   28.6769  -31.3670  -15.4939 O   0  0  0  0  0  0  0  0  0  0  0  0
   30.2219  -29.4946  -20.8110 N   0  0  0  0  0  0  0  0  0  0  0  0
   29.0482  -29.4000  -19.9903 C   0  0  0  0  0  0  0  0  0  0  0  0
   27.9812  -29.7859  -20.5171 O   0  0  0  0  0  0  0  0  0  0  0  0
   29.1653  -28.8691  -18.6148 C   0  0  0  0  0  0  0  0  0  0  0  0
   28.3316  -29.6092  -17.6158 C   0  0  2  0  0  0  0  0  0  0  0  0
   28.4873  -31.0334  -17.7442 N   0  0  0  0  0  0  0  0  0  0  0  0
   26.8891  -29.2543  -17.7512 C   0  0  0  0  0  0  0  0  0  0  0  0
   26.5208  -28.0593  -17.6308 O   0  0  0  0  0  0  0  0  0  0  0  0
   18.7054  -27.5572  -19.3730 O   0  0  0  0  0  0  0  0  0  0  0  0
   20.0560  -27.8730  -19.3183 C   0  0  0  0  0  0  0  0  0  0  0  0
   20.8992  -27.2749  -18.4084 C   0  0  0  0  0  0  0  0  0  0  0  0
   22.2344  -27.6054  -18.3744 C   0  0  0  0  0  0  0  0  0  0  0  0
   22.7973  -28.5370  -19.2324 C   0  0  0  0  0  0  0  0  0  0  0  0
   24.2398  -28.8327  -19.1592 C   0  0  0  0  0  0  0  0  0  0  0  0
   24.4911  -29.8792  -18.1294 C   0  0  2  0  0  0  0  0  0  0  0  0
   25.8944  -30.2197  -18.0143 N   0  0  0  0  0  0  0  0  0  0  0  0
   23.7293  -31.1320  -18.3104 C   0  0  0  0  0  0  0  0  0  0  0  0
   22.4945  -31.3283  -17.6961 O   0  0  0  0  0  0  0  0  0  0  0  0
   21.9314  -29.1200  -20.1328 C   0  0  0  0  0  0  0  0  0  0  0  0
   20.5904  -28.8024  -20.1826 C   0  0  0  0  0  0  0  0  0  0  0  0
   24.1535  -32.0712  -19.0196 O   0  0  0  0  0  0  0  0  0  0  0  0
  2  3  1  6
  2  1  1  0
  4  5  1  6
  4  2  1  0
  6  4  1  0
  7  6  2  0
  9 11  1  0
  9  8  1  0
 10  9  2  0
 12 11  1  6
 12 13  1  0
 13  6  1  0
 14 12  1  0
 14 15  2  0
 17 16  1  0
 17 18  2  0
 19 18  1  0
 20 19  2  0
 21 20  1  0
 22 21  1  6
 23 22  1  0
 23 14  1  0
 24 22  1  0
 25 24  1  0
 26 27  2  0
 26 20  1  0
 27 17  1  0
 28 24  2  0
M  END
$$$$
