VNY.pdb
     RDKit          3D

 28 28  0  0  1  0  0  0  0  0999 V2000
   26.3643  -26.1699  -17.9848 C   0  0  0  0  0  0  0  0  0  0  0  0
   26.1504  -24.6754  -17.9664 C   0  0  1  0  0  0  0  0  0  0  0  0
   24.6743  -24.4550  -17.6400 C   0  0  0  0  0  0  0  0  0  0  0  0
   26.9730  -24.0796  -16.8444 C   0  0  2  0  0  0  0  0  0  0  0  0
   27.1587  -25.0850  -15.8359 N   0  0  0  0  0  0  0  0  0  0  0  0
   26.2875  -22.8985  -16.2617 C   0  0  0  0  0  0  0  0  0  0  0  0
   25.7239  -22.0232  -16.9520 O   0  0  0  0  0  0  0  0  0  0  0  0
   23.6931  -19.1523  -14.0149 N   0  0  0  0  0  0  0  0  0  0  0  0
   23.3973  -20.5404  -13.8008 C   0  0  0  0  0  0  0  0  0  0  0  0
   22.5002  -20.7845  -12.9636 O   0  0  0  0  0  0  0  0  0  0  0  0
   24.1459  -21.5671  -14.5576 C   0  0  0  0  0  0  0  0  0  0  0  0
   25.5998  -21.6266  -14.2063 C   0  0  2  0  0  0  0  0  0  0  0  0
   26.2572  -22.7329  -14.8489 N   0  0  0  0  0  0  0  0  0  0  0  0
   25.7926  -21.7249  -12.7304 C   0  0  0  0  0  0  0  0  0  0  0  0
   25.4094  -22.7493  -12.1123 O   0  0  0  0  0  0  0  0  0  0  0  0
   28.3626  -20.2054   -4.4579 O   0  0  0  0  0  0  0  0  0  0  0  0
   28.2029  -20.1279   -5.8346 C   0  0  0  0  0  0  0  0  0  0  0  0
   29.0284  -20.8167   -6.6953 C   0  0  0  0  0  0  0  0  0  0  0  0
   28.8492  -20.7233   -8.0563 C   0  0  0  0  0  0  0  0  0  0  0  0
   27.8520  -19.9495   -8.6289 C   0  0  0  0  0  0  0  0  0  0  0  0
   27.7246  -19.8749  -10.0958 C   0  0  0  0  0  0  0  0  0  0  0  0
   26.6873  -20.8358  -10.5641 C   0  0  2  0  0  0  0  0  0  0  0  0
   26.3995  -20.6978  -11.9771 N   0  0  0  0  0  0  0  0  0  0  0  0
   25.4069  -20.7831   -9.8288 C   0  0  0  0  0  0  0  0  0  0  0  0
   25.1454  -21.6378   -8.7603 O   0  0  0  0  0  0  0  0  0  0  0  0
   27.0405  -19.2708   -7.7450 C   0  0  0  0  0  0  0  0  0  0  0  0
   27.2039  -19.3515   -6.3781 C   0  0  0  0  0  0  0  0  0  0  0  0
   24.5014  -19.9735  -10.1282 O   0  0  0  0  0  0  0  0  0  0  0  0
  2  3  1  1
  2  1  1  0
  4  5  1  1
  4  2  1  0
  6  4  1  0
  7  6  2  0
  9 11  1  0
  9  8  1  0
 10  9  2  0
 12 11  1  1
 12 13  1  0
 13  6  1  0
 14 12  1  0
 14 15  2  0
 17 16  1  0
 17 18  2  0
 19 18  1  0
 20 19  2  0
 21 20  1  0
 22 21  1  1
 23 22  1  0
 23 14  1  0
 24 22  1  0
 25 24  1  0
 26 27  2  0
 26 20  1  0
 27 17  1  0
 28 24  2  0
M  END
$$$$
