VNY.pdb
     RDKit          3D

 28 28  0  0  1  0  0  0  0  0999 V2000
   24.6402  -23.8565  -16.4112 C   0  0  0  0  0  0  0  0  0  0  0  0
   25.5935  -22.9343  -17.1326 C   0  0  1  0  0  0  0  0  0  0  0  0
   24.7303  -21.9076  -17.8636 C   0  0  0  0  0  0  0  0  0  0  0  0
   26.4295  -22.1993  -16.1071 C   0  0  2  0  0  0  0  0  0  0  0  0
   27.2204  -23.1622  -15.3933 N   0  0  0  0  0  0  0  0  0  0  0  0
   25.5620  -21.4545  -15.1599 C   0  0  0  0  0  0  0  0  0  0  0  0
   24.7811  -20.5464  -15.5144 O   0  0  0  0  0  0  0  0  0  0  0  0
   22.9336  -19.8612  -11.1263 N   0  0  0  0  0  0  0  0  0  0  0  0
   22.4338  -20.9286  -11.9455 C   0  0  0  0  0  0  0  0  0  0  0  0
   21.2260  -21.2156  -11.7910 O   0  0  0  0  0  0  0  0  0  0  0  0
   23.3463  -21.6043  -12.8932 C   0  0  0  0  0  0  0  0  0  0  0  0
   24.7631  -21.1305  -12.7993 C   0  0  2  0  0  0  0  0  0  0  0  0
   25.6042  -21.7726  -13.7737 N   0  0  0  0  0  0  0  0  0  0  0  0
   25.3186  -21.3637  -11.4347 C   0  0  0  0  0  0  0  0  0  0  0  0
   25.4482  -22.5349  -10.9994 O   0  0  0  0  0  0  0  0  0  0  0  0
   29.1333  -20.2590   -3.6142 O   0  0  0  0  0  0  0  0  0  0  0  0
   28.6969  -20.0676   -4.9179 C   0  0  0  0  0  0  0  0  0  0  0  0
   27.8155  -19.0604   -5.2418 C   0  0  0  0  0  0  0  0  0  0  0  0
   27.3981  -18.8915   -6.5420 C   0  0  0  0  0  0  0  0  0  0  0  0
   27.8289  -19.7047   -7.5783 C   0  0  0  0  0  0  0  0  0  0  0  0
   27.3287  -19.4848   -8.9476 C   0  0  0  0  0  0  0  0  0  0  0  0
   26.3288  -20.5323   -9.2964 C   0  0  2  0  0  0  0  0  0  0  0  0
   25.7150  -20.3062  -10.5889 N   0  0  0  0  0  0  0  0  0  0  0  0
   25.2506  -20.7242   -8.3048 C   0  0  0  0  0  0  0  0  0  0  0  0
   25.4169  -21.5571   -7.2005 O   0  0  0  0  0  0  0  0  0  0  0  0
   28.7103  -20.7046   -7.2265 C   0  0  0  0  0  0  0  0  0  0  0  0
   29.1404  -20.8901   -5.9295 C   0  0  0  0  0  0  0  0  0  0  0  0
   24.1432  -20.1517   -8.4080 O   0  0  0  0  0  0  0  0  0  0  0  0
  2  3  1  1
  2  1  1  0
  4  5  1  1
  4  2  1  0
  6  4  1  0
  7  6  2  0
  9 11  1  0
  9  8  1  0
 10  9  2  0
 12 11  1  1
 12 13  1  0
 13  6  1  0
 14 12  1  0
 14 15  2  0
 17 16  1  0
 17 18  2  0
 19 18  1  0
 20 19  2  0
 21 20  1  0
 22 21  1  1
 23 22  1  0
 23 14  1  0
 24 22  1  0
 25 24  1  0
 26 27  2  0
 26 20  1  0
 27 17  1  0
 28 24  2  0
M  END
$$$$
