GLD.pdb
     RDKit          3D

 21 20  0  0  1  0  0  0  0  0999 V2000
   28.1624  -20.1020  -15.1004 N   0  0  0  0  0  0  0  0  0  0  0  0
   27.4569  -19.4570  -14.0241 C   0  0  0  0  0  0  0  0  0  0  0  0
   26.5078  -20.3757  -13.3453 C   0  0  0  0  0  0  0  0  0  0  0  0
   26.4293  -21.5832  -13.6796 O   0  0  0  0  0  0  0  0  0  0  0  0
   27.0831  -21.7164   -9.4184 C   0  0  0  0  0  0  0  0  0  0  0  0
   26.3056  -20.4635   -9.4742 C   0  0  2  0  0  0  0  0  0  0  0  0
   26.2330  -19.8337   -8.0777 C   0  0  0  0  0  0  0  0  0  0  0  0
   24.9616  -20.4662  -10.0951 C   0  0  0  0  0  0  0  0  0  0  0  0
   24.7811  -20.7380  -11.5136 C   0  0  2  0  0  0  0  0  0  0  0  0
   25.6928  -19.8648  -12.3140 N   0  0  0  0  0  0  0  0  0  0  0  0
   23.5039  -20.6656  -12.1810 C   0  0  0  0  0  0  0  0  0  0  0  0
   22.8871  -19.5603  -12.2276 O   0  0  0  0  0  0  0  0  0  0  0  0
   22.8811  -21.8139  -12.8107 N   0  0  0  0  0  0  0  0  0  0  0  0
   21.5923  -21.6369  -13.3896 C   0  0  1  0  0  0  0  0  0  0  0  0
   20.6450  -20.8552  -12.5034 C   0  0  0  0  0  0  0  0  0  0  0  0
   19.9691  -21.6787  -11.4989 C   0  0  0  0  0  0  0  0  0  0  0  0
   19.8032  -21.2514  -10.3425 O   0  0  0  0  0  0  0  0  0  0  0  0
   21.7344  -20.8734  -14.6506 C   0  0  0  0  0  0  0  0  0  0  0  0
   22.9616  -20.3674  -15.0170 O   0  0  0  0  0  0  0  0  0  0  0  0
   19.5136  -22.9321  -11.8318 O   0  0  0  0  0  0  0  0  0  0  0  0
   20.7406  -20.6923  -15.3754 O   0  0  0  0  0  0  0  0  0  0  0  0
  1  2  1  0
  3  2  1  0
  3  4  2  0
  6  5  1  1
  6  8  1  0
  7  6  1  0
  9  8  1  1
  9 10  1  0
  9 11  1  0
 10  3  1  0
 11 12  2  0
 13 11  1  0
 13 14  1  0
 14 15  1  1
 15 16  1  0
 16 17  2  0
 18 19  1  0
 18 14  1  0
 20 16  1  0
 21 18  2  0
M  END
$$$$
