GLD.pdb
     RDKit          3D

 21 20  0  0  1  0  0  0  0  0999 V2000
   20.5180  -12.8380  -17.1607 N   0  0  0  0  0  0  0  0  0  0  0  0
   20.7120  -11.5113  -17.6848 C   0  0  0  0  0  0  0  0  0  0  0  0
   21.4168  -10.6257  -16.7234 C   0  0  0  0  0  0  0  0  0  0  0  0
   20.9653  -10.4419  -15.5665 O   0  0  0  0  0  0  0  0  0  0  0  0
   25.3601  -10.6116  -14.3078 C   0  0  0  0  0  0  0  0  0  0  0  0
   25.5009  -10.4147  -15.7634 C   0  0  2  0  0  0  0  0  0  0  0  0
   26.9863  -10.3967  -16.1446 C   0  0  0  0  0  0  0  0  0  0  0  0
   24.8001   -9.2867  -16.4180 C   0  0  0  0  0  0  0  0  0  0  0  0
   23.3717   -9.0731  -16.2379 C   0  0  2  0  0  0  0  0  0  0  0  0
   22.6076   -9.9924  -17.1353 N   0  0  0  0  0  0  0  0  0  0  0  0
   22.7355   -7.7861  -16.3826 C   0  0  0  0  0  0  0  0  0  0  0  0
   22.5207   -7.3242  -17.5423 O   0  0  0  0  0  0  0  0  0  0  0  0
   22.3237   -6.9820  -15.2482 N   0  0  0  0  0  0  0  0  0  0  0  0
   21.6347   -5.7642  -15.5118 C   0  0  1  0  0  0  0  0  0  0  0  0
   20.2184   -5.7545  -14.9756 C   0  0  0  0  0  0  0  0  0  0  0  0
   19.5388   -4.4680  -15.1402 C   0  0  0  0  0  0  0  0  0  0  0  0
   19.8621   -3.6988  -16.0628 O   0  0  0  0  0  0  0  0  0  0  0  0
   22.3557   -4.6529  -14.8495 C   0  0  0  0  0  0  0  0  0  0  0  0
   23.4252   -4.9186  -14.0238 O   0  0  0  0  0  0  0  0  0  0  0  0
   18.5370   -4.1044  -14.2721 O   0  0  0  0  0  0  0  0  0  0  0  0
   21.9901   -3.4805  -15.0433 O   0  0  0  0  0  0  0  0  0  0  0  0
  1  2  1  0
  3  2  1  0
  3  4  2  0
  6  5  1  1
  6  8  1  0
  7  6  1  0
  9  8  1  6
  9 10  1  0
  9 11  1  0
 10  3  1  0
 11 12  2  0
 13 11  1  0
 13 14  1  0
 14 15  1  1
 15 16  1  0
 16 17  2  0
 18 19  1  0
 18 14  1  0
 20 16  1  0
 21 18  2  0
M  END
$$$$
