GLD.pdb
     RDKit          3D

 21 20  0  0  1  0  0  0  0  0999 V2000
   20.4769  -14.4321  -19.7585 N   0  0  0  0  0  0  0  0  0  0  0  0
   20.3836  -12.9956  -19.7459 C   0  0  0  0  0  0  0  0  0  0  0  0
   20.6022  -12.4310  -18.3898 C   0  0  0  0  0  0  0  0  0  0  0  0
   19.6671  -12.3824  -17.5537 O   0  0  0  0  0  0  0  0  0  0  0  0
   22.9130  -13.8594  -14.7522 C   0  0  0  0  0  0  0  0  0  0  0  0
   23.7394  -13.3127  -15.8456 C   0  0  2  0  0  0  0  0  0  0  0  0
   25.2246  -13.5433  -15.5404 C   0  0  0  0  0  0  0  0  0  0  0  0
   23.5285  -11.9168  -16.2914 C   0  0  0  0  0  0  0  0  0  0  0  0
   22.2135  -11.4379  -16.6912 C   0  0  2  0  0  0  0  0  0  0  0  0
   21.8849  -11.9486  -18.0570 N   0  0  0  0  0  0  0  0  0  0  0  0
   21.8470  -10.0424  -16.7096 C   0  0  0  0  0  0  0  0  0  0  0  0
   22.2343   -9.3092  -17.6670 O   0  0  0  0  0  0  0  0  0  0  0  0
   21.0450   -9.4276  -15.6695 N   0  0  0  0  0  0  0  0  0  0  0  0
   20.7914   -8.0298  -15.7645 C   0  0  1  0  0  0  0  0  0  0  0  0
   19.3463   -7.7083  -16.0837 C   0  0  0  0  0  0  0  0  0  0  0  0
   19.0552   -6.2733  -16.0985 C   0  0  0  0  0  0  0  0  0  0  0  0
   19.7100   -5.5056  -16.8261 O   0  0  0  0  0  0  0  0  0  0  0  0
   21.0975   -7.3977  -14.4606 C   0  0  0  0  0  0  0  0  0  0  0  0
   21.1354   -6.0257  -14.3502 O   0  0  0  0  0  0  0  0  0  0  0  0
   18.0532   -5.7675  -15.3050 O   0  0  0  0  0  0  0  0  0  0  0  0
   21.3196   -8.1123  -13.4677 O   0  0  0  0  0  0  0  0  0  0  0  0
  1  2  1  0
  3  2  1  0
  3  4  2  0
  6  5  1  1
  6  8  1  0
  7  6  1  0
  9  8  1  6
  9 10  1  0
  9 11  1  0
 10  3  1  0
 11 12  2  0
 13 11  1  0
 13 14  1  0
 14 15  1  1
 15 16  1  0
 16 17  2  0
 18 19  1  0
 18 14  1  0
 20 16  1  0
 21 18  2  0
M  END
$$$$
