GLD.pdb
     RDKit          3D

 21 20  0  0  1  0  0  0  0  0999 V2000
   12.7246  -11.5162    6.2185 N   0  0  0  0  0  0  0  0  0  0  0  0
   14.0443  -11.8149    6.7101 C   0  0  0  0  0  0  0  0  0  0  0  0
   14.6691  -12.9506    5.9855 C   0  0  0  0  0  0  0  0  0  0  0  0
   14.0027  -13.6462    5.1805 O   0  0  0  0  0  0  0  0  0  0  0  0
   17.8538  -14.4141    2.4064 C   0  0  0  0  0  0  0  0  0  0  0  0
   18.0036  -13.3737    3.4420 C   0  0  2  0  0  0  0  0  0  0  0  0
   19.2589  -12.5382    3.1623 C   0  0  0  0  0  0  0  0  0  0  0  0
   17.9625  -13.7563    4.8717 C   0  0  0  0  0  0  0  0  0  0  0  0
   16.7586  -14.3079    5.4757 C   0  0  2  0  0  0  0  0  0  0  0  0
   16.0306  -13.2347    6.2190 N   0  0  0  0  0  0  0  0  0  0  0  0
   16.7634  -15.4468    6.3616 C   0  0  0  0  0  0  0  0  0  0  0  0
   17.2438  -15.3271    7.5275 O   0  0  0  0  0  0  0  0  0  0  0  0
   16.2377  -16.7425    5.9773 N   0  0  0  0  0  0  0  0  0  0  0  0
   16.2505  -17.7806    6.9517 C   0  0  1  0  0  0  0  0  0  0  0  0
   14.9090  -18.4661    7.1076 C   0  0  0  0  0  0  0  0  0  0  0  0
   14.9060  -19.5234    8.1205 C   0  0  0  0  0  0  0  0  0  0  0  0
   15.9215  -19.7427    8.8047 O   0  0  0  0  0  0  0  0  0  0  0  0
   17.2207  -18.8184    6.5332 C   0  0  0  0  0  0  0  0  0  0  0  0
   17.6220  -19.7882    7.4246 O   0  0  0  0  0  0  0  0  0  0  0  0
   13.7762  -20.2805    8.3197 O   0  0  0  0  0  0  0  0  0  0  0  0
   17.6700  -18.8087    5.3739 O   0  0  0  0  0  0  0  0  0  0  0  0
  1  2  1  0
  3  2  1  0
  3  4  2  0
  6  5  1  6
  6  8  1  0
  7  6  1  0
  9  8  1  1
  9 10  1  0
  9 11  1  0
 10  3  1  0
 11 12  2  0
 13 11  1  0
 13 14  1  0
 14 15  1  6
 15 16  1  0
 16 17  2  0
 18 19  1  0
 18 14  1  0
 20 16  1  0
 21 18  2  0
M  END
$$$$
