GLD.pdb
     RDKit          3D

 21 20  0  0  1  0  0  0  0  0999 V2000
   21.2351  -13.2928  -17.3664 N   0  0  0  0  0  0  0  0  0  0  0  0
   21.6034  -11.9994  -17.8798 C   0  0  0  0  0  0  0  0  0  0  0  0
   22.2768  -11.1603  -16.8561 C   0  0  0  0  0  0  0  0  0  0  0  0
   21.9832  -11.2677  -15.6403 O   0  0  0  0  0  0  0  0  0  0  0  0
   26.1508  -10.8470  -14.7286 C   0  0  0  0  0  0  0  0  0  0  0  0
   26.1577  -10.3861  -16.1303 C   0  0  2  0  0  0  0  0  0  0  0  0
   27.6012  -10.1606  -16.5968 C   0  0  0  0  0  0  0  0  0  0  0  0
   25.3164   -9.2328  -16.5231 C   0  0  0  0  0  0  0  0  0  0  0  0
   23.8726   -9.2487  -16.3393 C   0  0  2  0  0  0  0  0  0  0  0  0
   23.2562  -10.2368  -17.2764 N   0  0  0  0  0  0  0  0  0  0  0  0
   23.0459   -8.0699  -16.4331 C   0  0  0  0  0  0  0  0  0  0  0  0
   22.7244   -7.6238  -17.5741 O   0  0  0  0  0  0  0  0  0  0  0  0
   22.5576   -7.3587  -15.2675 N   0  0  0  0  0  0  0  0  0  0  0  0
   21.8075   -6.1676  -15.4816 C   0  0  1  0  0  0  0  0  0  0  0  0
   20.3174   -6.3615  -15.2928 C   0  0  0  0  0  0  0  0  0  0  0  0
   19.5438   -5.1261  -15.4325 C   0  0  0  0  0  0  0  0  0  0  0  0
   19.5534   -4.4952  -16.5045 O   0  0  0  0  0  0  0  0  0  0  0  0
   22.2389   -5.1468  -14.4991 C   0  0  0  0  0  0  0  0  0  0  0  0
   23.0079   -5.5117  -13.4167 O   0  0  0  0  0  0  0  0  0  0  0  0
   18.8013   -4.6574  -14.3749 O   0  0  0  0  0  0  0  0  0  0  0  0
   21.9031   -3.9602  -14.6572 O   0  0  0  0  0  0  0  0  0  0  0  0
  1  2  1  0
  3  2  1  0
  3  4  2  0
  6  5  1  1
  6  8  1  0
  7  6  1  0
  9  8  1  6
  9 10  1  0
  9 11  1  0
 10  3  1  0
 11 12  2  0
 13 11  1  0
 13 14  1  0
 14 15  1  1
 15 16  1  0
 16 17  2  0
 18 19  1  0
 18 14  1  0
 20 16  1  0
 21 18  2  0
M  END
$$$$
