GLD.pdb
     RDKit          3D

 21 20  0  0  1  0  0  0  0  0999 V2000
   21.6954  -13.1501  -18.3107 N   0  0  0  0  0  0  0  0  0  0  0  0
   21.8802  -11.7685  -18.6703 C   0  0  0  0  0  0  0  0  0  0  0  0
   22.2833  -10.9354  -17.5089 C   0  0  0  0  0  0  0  0  0  0  0  0
   21.7084  -11.0555  -16.3994 O   0  0  0  0  0  0  0  0  0  0  0  0
   25.9380  -10.9245  -14.8375 C   0  0  0  0  0  0  0  0  0  0  0  0
   26.1158  -10.3497  -16.1849 C   0  0  2  0  0  0  0  0  0  0  0  0
   27.6033  -10.0800  -16.4432 C   0  0  0  0  0  0  0  0  0  0  0  0
   25.3140   -9.1719  -16.5871 C   0  0  0  0  0  0  0  0  0  0  0  0
   23.8594   -9.1912  -16.5386 C   0  0  2  0  0  0  0  0  0  0  0  0
   23.3281  -10.0030  -17.6757 N   0  0  0  0  0  0  0  0  0  0  0  0
   23.0486   -7.9980  -16.5129 C   0  0  0  0  0  0  0  0  0  0  0  0
   22.8512   -7.3557  -17.5866 O   0  0  0  0  0  0  0  0  0  0  0  0
   22.4393   -7.4889  -15.2994 N   0  0  0  0  0  0  0  0  0  0  0  0
   21.6491   -6.3085  -15.3971 C   0  0  1  0  0  0  0  0  0  0  0  0
   20.2017   -6.5285  -15.0092 C   0  0  0  0  0  0  0  0  0  0  0  0
   19.3766   -5.3238  -15.1186 C   0  0  0  0  0  0  0  0  0  0  0  0
   19.4047   -4.6334  -16.1531 O   0  0  0  0  0  0  0  0  0  0  0  0
   22.1948   -5.2889  -14.4719 C   0  0  0  0  0  0  0  0  0  0  0  0
   21.7753   -3.9804  -14.5611 O   0  0  0  0  0  0  0  0  0  0  0  0
   18.5649   -4.9500  -14.0742 O   0  0  0  0  0  0  0  0  0  0  0  0
   23.0328   -5.6209  -13.6156 O   0  0  0  0  0  0  0  0  0  0  0  0
  1  2  1  0
  3  2  1  0
  3  4  2  0
  6  5  1  1
  6  8  1  0
  7  6  1  0
  9  8  1  6
  9 10  1  0
  9 11  1  0
 10  3  1  0
 11 12  2  0
 13 11  1  0
 13 14  1  0
 14 15  1  1
 15 16  1  0
 16 17  2  0
 18 19  1  0
 18 14  1  0
 20 16  1  0
 21 18  2  0
M  END
$$$$
