GLD.pdb
     RDKit          3D

 21 20  0  0  1  0  0  0  0  0999 V2000
   27.2580  -22.5869  -16.3287 N   0  0  0  0  0  0  0  0  0  0  0  0
   26.8688  -21.4161  -15.5870 C   0  0  0  0  0  0  0  0  0  0  0  0
   25.6957  -21.6701  -14.7126 C   0  0  0  0  0  0  0  0  0  0  0  0
   25.0255  -22.7257  -14.8241 O   0  0  0  0  0  0  0  0  0  0  0  0
   25.7674  -22.2745  -10.3647 C   0  0  0  0  0  0  0  0  0  0  0  0
   25.7066  -20.8456  -10.7281 C   0  0  2  0  0  0  0  0  0  0  0  0
   25.9161  -19.9816   -9.4784 C   0  0  0  0  0  0  0  0  0  0  0  0
   24.5509  -20.3384  -11.5021 C   0  0  0  0  0  0  0  0  0  0  0  0
   24.2066  -20.8923  -12.8033 C   0  0  2  0  0  0  0  0  0  0  0  0
   25.3466  -20.6997  -13.7507 N   0  0  0  0  0  0  0  0  0  0  0  0
   23.0289  -20.5098  -13.5441 C   0  0  0  0  0  0  0  0  0  0  0  0
   23.0852  -19.5248  -14.3384 O   0  0  0  0  0  0  0  0  0  0  0  0
   21.7637  -21.2078  -13.4221 N   0  0  0  0  0  0  0  0  0  0  0  0
   20.7014  -20.8140  -14.2846 C   0  0  1  0  0  0  0  0  0  0  0  0
   20.5779  -21.6903  -15.5136 C   0  0  0  0  0  0  0  0  0  0  0  0
   19.4382  -21.3459  -16.3661 C   0  0  0  0  0  0  0  0  0  0  0  0
   19.4526  -20.3040  -17.0456 O   0  0  0  0  0  0  0  0  0  0  0  0
   19.4214  -20.9200  -13.5472 C   0  0  0  0  0  0  0  0  0  0  0  0
   18.3501  -20.1330  -13.9067 O   0  0  0  0  0  0  0  0  0  0  0  0
   18.3441  -22.1762  -16.4185 O   0  0  0  0  0  0  0  0  0  0  0  0
   19.3200  -21.7225  -12.6030 O   0  0  0  0  0  0  0  0  0  0  0  0
  1  2  1  0
  3  2  1  0
  3  4  2  0
  6  5  1  1
  6  8  1  0
  7  6  1  0
  9  8  1  1
  9 10  1  0
  9 11  1  0
 10  3  1  0
 11 12  2  0
 13 11  1  0
 13 14  1  0
 14 15  1  6
 15 16  1  0
 16 17  2  0
 18 19  1  0
 18 14  1  0
 20 16  1  0
 21 18  2  0
M  END
$$$$
