GLD.pdb
     RDKit          3D

 21 20  0  0  1  0  0  0  0  0999 V2000
   22.0717  -13.8566  -18.2225 N   0  0  0  0  0  0  0  0  0  0  0  0
   21.9362  -12.5130  -18.7213 C   0  0  0  0  0  0  0  0  0  0  0  0
   22.2202  -11.4957  -17.6773 C   0  0  0  0  0  0  0  0  0  0  0  0
   21.6075  -11.5084  -16.5817 O   0  0  0  0  0  0  0  0  0  0  0  0
   25.2638  -10.1691  -14.4408 C   0  0  0  0  0  0  0  0  0  0  0  0
   25.6696  -10.1270  -15.8589 C   0  0  2  0  0  0  0  0  0  0  0  0
   27.1714   -9.8335  -15.9617 C   0  0  0  0  0  0  0  0  0  0  0  0
   24.9233   -9.2678  -16.8059 C   0  0  0  0  0  0  0  0  0  0  0  0
   23.4847   -9.4019  -16.9809 C   0  0  2  0  0  0  0  0  0  0  0  0
   23.1949  -10.5110  -17.9402 N   0  0  0  0  0  0  0  0  0  0  0  0
   22.6282   -8.3145  -17.3883 C   0  0  0  0  0  0  0  0  0  0  0  0
   22.5713   -7.9910  -18.6116 O   0  0  0  0  0  0  0  0  0  0  0  0
   21.8169   -7.5610  -16.4518 N   0  0  0  0  0  0  0  0  0  0  0  0
   21.0199   -6.4996  -16.9670 C   0  0  1  0  0  0  0  0  0  0  0  0
   19.7244   -6.3060  -16.2067 C   0  0  0  0  0  0  0  0  0  0  0  0
   18.9134   -5.1936  -16.7056 C   0  0  0  0  0  0  0  0  0  0  0  0
   18.9415   -4.0886  -16.1350 O   0  0  0  0  0  0  0  0  0  0  0  0
   21.7796   -5.2331  -16.8569 C   0  0  0  0  0  0  0  0  0  0  0  0
   21.3521   -4.1105  -17.5301 O   0  0  0  0  0  0  0  0  0  0  0  0
   18.1148   -5.3674  -17.8108 O   0  0  0  0  0  0  0  0  0  0  0  0
   22.8042   -5.1896  -16.1539 O   0  0  0  0  0  0  0  0  0  0  0  0
  1  2  1  0
  3  2  1  0
  3  4  2  0
  6  5  1  1
  6  8  1  0
  7  6  1  0
  9  8  1  6
  9 10  1  0
  9 11  1  0
 10  3  1  0
 11 12  2  0
 13 11  1  0
 13 14  1  0
 14 15  1  1
 15 16  1  0
 16 17  2  0
 18 19  1  0
 18 14  1  0
 20 16  1  0
 21 18  2  0
M  END
$$$$
