GLD.pdb
     RDKit          3D

 21 20  0  0  1  0  0  0  0  0999 V2000
   36.7622  -38.6133   -4.2496 N   0  0  0  0  0  0  0  0  0  0  0  0
   35.5520  -38.2878   -4.9578 C   0  0  0  0  0  0  0  0  0  0  0  0
   34.8277  -37.1494   -4.3374 C   0  0  0  0  0  0  0  0  0  0  0  0
   35.2562  -36.6077   -3.2891 O   0  0  0  0  0  0  0  0  0  0  0  0
   33.7249  -32.6576   -5.4526 C   0  0  0  0  0  0  0  0  0  0  0  0
   33.0677  -33.7327   -6.2204 C   0  0  2  0  0  0  0  0  0  0  0  0
   32.2174  -33.1252   -7.3429 C   0  0  0  0  0  0  0  0  0  0  0  0
   32.2894  -34.7691   -5.5047 C   0  0  0  0  0  0  0  0  0  0  0  0
   32.8678  -35.5302   -4.4071 C   0  0  2  0  0  0  0  0  0  0  0  0
   33.6449  -36.6860   -4.9498 N   0  0  0  0  0  0  0  0  0  0  0  0
   32.0907  -36.0728   -3.3192 C   0  0  0  0  0  0  0  0  0  0  0  0
   31.5827  -37.2276   -3.4319 O   0  0  0  0  0  0  0  0  0  0  0  0
   31.8581  -35.3500   -2.0837 N   0  0  0  0  0  0  0  0  0  0  0  0
   31.1332  -36.0123   -1.0526 C   0  0  1  0  0  0  0  0  0  0  0  0
   31.6740  -35.7254    0.3326 C   0  0  0  0  0  0  0  0  0  0  0  0
   30.8896  -36.3389    1.4061 C   0  0  0  0  0  0  0  0  0  0  0  0
   29.9178  -37.0678    1.1380 O   0  0  0  0  0  0  0  0  0  0  0  0
   29.7294  -35.5407   -1.0753 C   0  0  0  0  0  0  0  0  0  0  0  0
   28.7262  -36.3337   -0.5644 O   0  0  0  0  0  0  0  0  0  0  0  0
   31.2258  -36.1106    2.7192 O   0  0  0  0  0  0  0  0  0  0  0  0
   29.4626  -34.4262   -1.5576 O   0  0  0  0  0  0  0  0  0  0  0  0
  1  2  1  0
  3  2  1  0
  3  4  2  0
  6  5  1  1
  6  8  1  0
  7  6  1  0
  9  8  1  6
  9 10  1  0
  9 11  1  0
 10  3  1  0
 11 12  2  0
 13 11  1  0
 13 14  1  0
 14 15  1  1
 15 16  1  0
 16 17  2  0
 18 19  1  0
 18 14  1  0
 20 16  1  0
 21 18  2  0
M  END
$$$$
