GLD.pdb
     RDKit          3D

 21 20  0  0  1  0  0  0  0  0999 V2000
   18.2880  -11.1850  -17.7233 N   0  0  0  0  0  0  0  0  0  0  0  0
   19.5275  -10.5201  -18.0295 C   0  0  0  0  0  0  0  0  0  0  0  0
   20.2278  -10.0481  -16.8079 C   0  0  0  0  0  0  0  0  0  0  0  0
   19.6493  -10.0461  -15.6938 O   0  0  0  0  0  0  0  0  0  0  0  0
   23.6110  -11.0497  -13.6965 C   0  0  0  0  0  0  0  0  0  0  0  0
   23.9725  -10.8167  -15.1080 C   0  0  2  0  0  0  0  0  0  0  0  0
   25.4510  -11.1588  -15.3297 C   0  0  0  0  0  0  0  0  0  0  0  0
   23.6585   -9.5131  -15.7358 C   0  0  0  0  0  0  0  0  0  0  0  0
   22.2985   -8.9959  -15.7721 C   0  0  2  0  0  0  0  0  0  0  0  0
   21.5601   -9.6002  -16.9227 N   0  0  0  0  0  0  0  0  0  0  0  0
   21.9837   -7.5884  -15.8165 C   0  0  0  0  0  0  0  0  0  0  0  0
   22.0488   -6.9700  -16.9199 O   0  0  0  0  0  0  0  0  0  0  0  0
   21.5910   -6.8345  -14.6416 N   0  0  0  0  0  0  0  0  0  0  0  0
   21.3105   -5.4481  -14.8047 C   0  0  1  0  0  0  0  0  0  0  0  0
   19.8327   -5.1270  -14.7223 C   0  0  0  0  0  0  0  0  0  0  0  0
   19.5345   -3.7008  -14.8677 C   0  0  0  0  0  0  0  0  0  0  0  0
   20.3118   -2.9554  -15.4902 O   0  0  0  0  0  0  0  0  0  0  0  0
   21.9785   -4.6934  -13.7195 C   0  0  0  0  0  0  0  0  0  0  0  0
   22.1300   -3.3284  -13.8196 O   0  0  0  0  0  0  0  0  0  0  0  0
   18.3896   -3.1787  -14.3145 O   0  0  0  0  0  0  0  0  0  0  0  0
   22.4009   -5.2988  -12.7190 O   0  0  0  0  0  0  0  0  0  0  0  0
  1  2  1  0
  3  2  1  0
  3  4  2  0
  6  5  1  1
  6  8  1  0
  7  6  1  0
  9  8  1  6
  9 10  1  0
  9 11  1  0
 10  3  1  0
 11 12  2  0
 13 11  1  0
 13 14  1  0
 14 15  1  1
 15 16  1  0
 16 17  2  0
 18 19  1  0
 18 14  1  0
 20 16  1  0
 21 18  2  0
M  END
$$$$
