GLD.pdb
     RDKit          3D

 21 20  0  0  1  0  0  0  0  0999 V2000
   22.7014  -13.9516  -18.6981 N   0  0  0  0  0  0  0  0  0  0  0  0
   22.3904  -12.5742  -18.9779 C   0  0  0  0  0  0  0  0  0  0  0  0
   22.5920  -11.7018  -17.7931 C   0  0  0  0  0  0  0  0  0  0  0  0
   22.0029  -11.9393  -16.7103 O   0  0  0  0  0  0  0  0  0  0  0  0
   25.8398  -10.9301  -14.7795 C   0  0  0  0  0  0  0  0  0  0  0  0
   26.0566  -10.3662  -16.1257 C   0  0  2  0  0  0  0  0  0  0  0  0
   27.4939   -9.8448  -16.2461 C   0  0  0  0  0  0  0  0  0  0  0  0
   25.1101   -9.3584  -16.6555 C   0  0  0  0  0  0  0  0  0  0  0  0
   23.6881   -9.6433  -16.7786 C   0  0  2  0  0  0  0  0  0  0  0  0
   23.4610  -10.5969  -17.9071 N   0  0  0  0  0  0  0  0  0  0  0  0
   22.6830   -8.6204  -16.9382 C   0  0  0  0  0  0  0  0  0  0  0  0
   22.4502   -8.1503  -18.0911 O   0  0  0  0  0  0  0  0  0  0  0  0
   21.9143   -8.0949  -15.8265 N   0  0  0  0  0  0  0  0  0  0  0  0
   20.9561   -7.0786  -16.1024 C   0  0  1  0  0  0  0  0  0  0  0  0
   19.8250   -7.0392  -15.0960 C   0  0  0  0  0  0  0  0  0  0  0  0
   18.8625   -5.9627  -15.3388 C   0  0  0  0  0  0  0  0  0  0  0  0
   18.7486   -5.0256  -14.5287 O   0  0  0  0  0  0  0  0  0  0  0  0
   21.6280   -5.7598  -16.0500 C   0  0  0  0  0  0  0  0  0  0  0  0
   21.0862   -4.6818  -16.7137 O   0  0  0  0  0  0  0  0  0  0  0  0
   18.0784   -5.9841  -16.4676 O   0  0  0  0  0  0  0  0  0  0  0  0
   22.6826   -5.6321  -15.4041 O   0  0  0  0  0  0  0  0  0  0  0  0
  1  2  1  0
  3  2  1  0
  3  4  2  0
  6  5  1  1
  6  8  1  0
  7  6  1  0
  9  8  1  6
  9 10  1  0
  9 11  1  0
 10  3  1  0
 11 12  2  0
 13 11  1  0
 13 14  1  0
 14 15  1  1
 15 16  1  0
 16 17  2  0
 18 19  1  0
 18 14  1  0
 20 16  1  0
 21 18  2  0
M  END
$$$$
