GLD.pdb
     RDKit          3D

 21 20  0  0  1  0  0  0  0  0999 V2000
   25.3653  -34.0166   -7.2123 N   0  0  0  0  0  0  0  0  0  0  0  0
   24.3674  -33.9917   -6.1750 C   0  0  0  0  0  0  0  0  0  0  0  0
   24.9448  -33.6548   -4.8489 C   0  0  0  0  0  0  0  0  0  0  0  0
   26.1723  -33.4257   -4.7200 O   0  0  0  0  0  0  0  0  0  0  0  0
   25.3297  -30.4120   -1.2363 C   0  0  0  0  0  0  0  0  0  0  0  0
   23.9904  -30.8345   -1.6891 C   0  0  2  0  0  0  0  0  0  0  0  0
   22.9126  -30.0946   -0.8871 C   0  0  0  0  0  0  0  0  0  0  0  0
   23.6649  -32.2772   -1.7570 C   0  0  0  0  0  0  0  0  0  0  0  0
   24.5764  -33.2333   -2.3681 C   0  0  2  0  0  0  0  0  0  0  0  0
   24.0853  -33.5967   -3.7323 N   0  0  0  0  0  0  0  0  0  0  0  0
   24.9467  -34.4846   -1.7524 C   0  0  0  0  0  0  0  0  0  0  0  0
   24.1984  -35.4960   -1.8981 O   0  0  0  0  0  0  0  0  0  0  0  0
   26.1520  -34.6441   -0.9619 N   0  0  0  0  0  0  0  0  0  0  0  0
   26.4223  -35.9304   -0.4144 C   0  0  1  0  0  0  0  0  0  0  0  0
   27.9018  -36.2453   -0.3393 C   0  0  0  0  0  0  0  0  0  0  0  0
   28.1934  -37.5470    0.2646 C   0  0  0  0  0  0  0  0  0  0  0  0
   27.2709  -38.3372    0.5331 O   0  0  0  0  0  0  0  0  0  0  0  0
   25.8982  -35.9816    0.9698 C   0  0  0  0  0  0  0  0  0  0  0  0
   25.3727  -34.8495    1.5516 O   0  0  0  0  0  0  0  0  0  0  0  0
   29.4930  -37.9017    0.5379 O   0  0  0  0  0  0  0  0  0  0  0  0
   25.9355  -37.0512    1.6025 O   0  0  0  0  0  0  0  0  0  0  0  0
  1  2  1  0
  3  2  1  0
  3  4  2  0
  6  5  1  1
  6  8  1  0
  7  6  1  0
  9  8  1  1
  9 10  1  0
  9 11  1  0
 10  3  1  0
 11 12  2  0
 13 11  1  0
 13 14  1  0
 14 15  1  1
 15 16  1  0
 16 17  2  0
 18 19  1  0
 18 14  1  0
 20 16  1  0
 21 18  2  0
M  END
$$$$
