GDG.pdb
     RDKit          3D

 17 16  0  0  1  0  0  0  0  0999 V2000
   21.9386  -11.2591  -18.6203 N   0  0  0  0  0  0  0  0  0  0  0  0
   20.5432  -11.1931  -18.2463 C   0  0  0  0  0  0  0  0  0  0  0  0
   20.2678   -9.8845  -17.6042 C   0  0  0  0  0  0  0  0  0  0  0  0
   20.5084   -8.7894  -18.1707 O   0  0  0  0  0  0  0  0  0  0  0  0
   19.7108   -9.8337  -16.2990 N   0  0  0  0  0  0  0  0  0  0  0  0
   19.3780   -8.5740  -15.6976 C   0  0  1  0  0  0  0  0  0  0  0  0
   18.0567   -8.6257  -14.9932 C   0  0  0  0  0  0  0  0  0  0  0  0
   16.9122   -8.9355  -15.8790 C   0  0  0  0  0  0  0  0  0  0  0  0
   16.4883   -8.1364  -16.7519 O   0  0  0  0  0  0  0  0  0  0  0  0
   20.4665   -8.0607  -14.8287 C   0  0  0  0  0  0  0  0  0  0  0  0
   21.1870   -8.8959  -14.2047 O   0  0  0  0  0  0  0  0  0  0  0  0
   16.2517  -10.1470  -15.7732 O   0  0  0  0  0  0  0  0  0  0  0  0
   20.7312   -6.6809  -14.6692 N   0  0  0  0  0  0  0  0  0  0  0  0
   21.7953   -6.2109  -13.8220 C   0  0  0  0  0  0  0  0  0  0  0  0
   21.9416   -4.7284  -13.9030 C   0  0  0  0  0  0  0  0  0  0  0  0
   22.8470   -4.1165  -13.0551 O   0  0  0  0  0  0  0  0  0  0  0  0
   21.2697   -4.0445  -14.7114 O   0  0  0  0  0  0  0  0  0  0  0  0
  2  1  1  0
  3  2  1  0
  4  3  2  0
  5  3  1  0
  6 10  1  0
  6  5  1  0
  7  8  1  0
  6  7  1  1
  8  9  2  0
 10 13  1  0
 11 10  2  0
 12  8  1  0
 13 14  1  0
 14 15  1  0
 15 17  2  0
 15 16  1  0
M  END
$$$$
