GDG.pdb
     RDKit          3D

 17 16  0  0  1  0  0  0  0  0999 V2000
   14.3320  -10.5843  -13.8517 N   0  0  0  0  0  0  0  0  0  0  0  0
   15.7579  -10.4745  -14.0670 C   0  0  0  0  0  0  0  0  0  0  0  0
   16.2226   -9.1416  -13.6106 C   0  0  0  0  0  0  0  0  0  0  0  0
   15.9984   -8.0891  -14.2586 O   0  0  0  0  0  0  0  0  0  0  0  0
   16.9516   -9.0172  -12.3984 N   0  0  0  0  0  0  0  0  0  0  0  0
   17.4165   -7.7335  -11.9566 C   0  0  1  0  0  0  0  0  0  0  0  0
   17.3001   -7.5809  -10.4707 C   0  0  0  0  0  0  0  0  0  0  0  0
   17.5964   -6.2168   -9.9789 C   0  0  0  0  0  0  0  0  0  0  0  0
   17.7764   -5.2380  -10.7469 O   0  0  0  0  0  0  0  0  0  0  0  0
   18.7808   -7.4274  -12.4550 C   0  0  0  0  0  0  0  0  0  0  0  0
   19.7303   -8.2023  -12.1329 O   0  0  0  0  0  0  0  0  0  0  0  0
   17.6885   -5.9657   -8.6211 O   0  0  0  0  0  0  0  0  0  0  0  0
   19.0630   -6.3088  -13.2726 N   0  0  0  0  0  0  0  0  0  0  0  0
   20.3815   -6.0741  -13.7994 C   0  0  0  0  0  0  0  0  0  0  0  0
   21.2381   -5.3458  -12.8188 C   0  0  0  0  0  0  0  0  0  0  0  0
   20.7167   -5.0893  -11.5637 O   0  0  0  0  0  0  0  0  0  0  0  0
   22.3988   -4.9712  -13.1106 O   0  0  0  0  0  0  0  0  0  0  0  0
  2  1  1  0
  3  2  1  0
  4  3  2  0
  5  3  1  0
  6 10  1  0
  6  5  1  0
  7  8  1  0
  6  7  1  1
  8  9  2  0
 10 13  1  0
 11 10  2  0
 12  8  1  0
 13 14  1  0
 14 15  1  0
 15 17  2  0
 15 16  1  0
M  END
$$$$
