GDG.pdb
     RDKit          3D

 17 16  0  0  1  0  0  0  0  0999 V2000
   39.5464  -32.2644    5.5878 N   0  0  0  0  0  0  0  0  0  0  0  0
   38.2210  -31.8508    5.9924 C   0  0  0  0  0  0  0  0  0  0  0  0
   37.2430  -32.2459    4.9492 C   0  0  0  0  0  0  0  0  0  0  0  0
   37.5864  -32.8027    3.8768 O   0  0  0  0  0  0  0  0  0  0  0  0
   35.8578  -31.9989    5.1402 N   0  0  0  0  0  0  0  0  0  0  0  0
   34.8977  -32.4481    4.1729 C   0  0  1  0  0  0  0  0  0  0  0  0
   33.4984  -32.3770    4.7036 C   0  0  0  0  0  0  0  0  0  0  0  0
   32.4900  -33.0249    3.8354 C   0  0  0  0  0  0  0  0  0  0  0  0
   32.7915  -33.6497    2.7871 O   0  0  0  0  0  0  0  0  0  0  0  0
   35.0476  -31.7560    2.8684 C   0  0  0  0  0  0  0  0  0  0  0  0
   34.9860  -30.4904    2.8447 O   0  0  0  0  0  0  0  0  0  0  0  0
   31.1452  -32.9628    4.1561 O   0  0  0  0  0  0  0  0  0  0  0  0
   35.2557  -32.4498    1.6541 N   0  0  0  0  0  0  0  0  0  0  0  0
   35.4633  -31.7513    0.4132 C   0  0  0  0  0  0  0  0  0  0  0  0
   35.8440  -32.6891   -0.6828 C   0  0  0  0  0  0  0  0  0  0  0  0
   36.1143  -32.1566   -1.9304 O   0  0  0  0  0  0  0  0  0  0  0  0
   35.9207  -33.9263   -0.4926 O   0  0  0  0  0  0  0  0  0  0  0  0
  2  1  1  0
  3  2  1  0
  4  3  2  0
  5  3  1  0
  6 10  1  0
  6  5  1  0
  7  8  1  0
  6  7  1  1
  8  9  2  0
 10 13  1  0
 11 10  2  0
 12  8  1  0
 13 14  1  0
 14 15  1  0
 15 17  2  0
 15 16  1  0
M  END
$$$$
