GDG.pdb
     RDKit          3D

 17 16  0  0  1  0  0  0  0  0999 V2000
   15.3253   -9.3950  -15.1607 N   0  0  0  0  0  0  0  0  0  0  0  0
   16.1499  -10.5333  -14.8207 C   0  0  0  0  0  0  0  0  0  0  0  0
   17.5715  -10.1125  -14.7691 C   0  0  0  0  0  0  0  0  0  0  0  0
   18.2309  -10.0878  -13.7001 O   0  0  0  0  0  0  0  0  0  0  0  0
   18.2415   -9.7164  -15.9566 N   0  0  0  0  0  0  0  0  0  0  0  0
   19.6389   -9.3908  -15.9306 C   0  0  1  0  0  0  0  0  0  0  0  0
   20.3529   -9.9065  -17.1425 C   0  0  0  0  0  0  0  0  0  0  0  0
   20.4156  -11.3829  -17.2235 C   0  0  0  0  0  0  0  0  0  0  0  0
   19.8632  -12.0408  -18.1413 O   0  0  0  0  0  0  0  0  0  0  0  0
   19.8747   -7.9429  -15.7042 C   0  0  0  0  0  0  0  0  0  0  0  0
   19.3079   -7.1103  -16.4732 O   0  0  0  0  0  0  0  0  0  0  0  0
   21.1021  -12.1090  -16.2660 O   0  0  0  0  0  0  0  0  0  0  0  0
   20.7044   -7.4562  -14.6677 N   0  0  0  0  0  0  0  0  0  0  0  0
   20.9124   -6.0463  -14.4684 C   0  0  0  0  0  0  0  0  0  0  0  0
   21.9177   -5.7902  -13.3963 C   0  0  0  0  0  0  0  0  0  0  0  0
   22.3086   -4.4830  -13.1694 O   0  0  0  0  0  0  0  0  0  0  0  0
   22.4027   -6.7234  -12.7132 O   0  0  0  0  0  0  0  0  0  0  0  0
  2  1  1  0
  3  2  1  0
  4  3  2  0
  5  3  1  0
  6 10  1  0
  6  5  1  0
  7  8  1  0
  6  7  1  6
  8  9  2  0
 10 13  1  0
 11 10  2  0
 12  8  1  0
 13 14  1  0
 14 15  1  0
 15 17  2  0
 15 16  1  0
M  END
$$$$
