GDG.pdb
     RDKit          3D

 17 16  0  0  1  0  0  0  0  0999 V2000
   22.4491  -11.6265  -17.9720 N   0  0  0  0  0  0  0  0  0  0  0  0
   23.0424  -10.3152  -17.8308 C   0  0  0  0  0  0  0  0  0  0  0  0
   22.0823   -9.4122  -17.1499 C   0  0  0  0  0  0  0  0  0  0  0  0
   21.7004   -8.3270  -17.6545 O   0  0  0  0  0  0  0  0  0  0  0  0
   21.5563   -9.7594  -15.8775 N   0  0  0  0  0  0  0  0  0  0  0  0
   20.6072   -8.9044  -15.2237 C   0  0  1  0  0  0  0  0  0  0  0  0
   19.5886   -9.6893  -14.4550 C   0  0  0  0  0  0  0  0  0  0  0  0
   18.7504  -10.5750  -15.2937 C   0  0  0  0  0  0  0  0  0  0  0  0
   17.8135  -10.1472  -16.0145 O   0  0  0  0  0  0  0  0  0  0  0  0
   21.2655   -7.8623  -14.3966 C   0  0  0  0  0  0  0  0  0  0  0  0
   22.2424   -8.2000  -13.6634 O   0  0  0  0  0  0  0  0  0  0  0  0
   18.9749  -11.9404  -15.3131 O   0  0  0  0  0  0  0  0  0  0  0  0
   20.8476   -6.5115  -14.3936 N   0  0  0  0  0  0  0  0  0  0  0  0
   21.5546   -5.5058  -13.6455 C   0  0  0  0  0  0  0  0  0  0  0  0
   22.2772   -4.5631  -14.5482 C   0  0  0  0  0  0  0  0  0  0  0  0
   22.2435   -4.8100  -15.9087 O   0  0  0  0  0  0  0  0  0  0  0  0
   22.9012   -3.5718  -14.1003 O   0  0  0  0  0  0  0  0  0  0  0  0
  2  1  1  0
  3  2  1  0
  4  3  2  0
  5  3  1  0
  6 10  1  0
  6  5  1  0
  7  8  1  0
  6  7  1  1
  8  9  2  0
 10 13  1  0
 11 10  2  0
 12  8  1  0
 13 14  1  0
 14 15  1  0
 15 17  2  0
 15 16  1  0
M  END
$$$$
