GDG.pdb
     RDKit          3D

 17 16  0  0  1  0  0  0  0  0999 V2000
   20.1158  -12.5799  -19.8000 N   0  0  0  0  0  0  0  0  0  0  0  0
   21.1278  -11.9246  -19.0013 C   0  0  0  0  0  0  0  0  0  0  0  0
   20.4731  -11.0269  -18.0183 C   0  0  0  0  0  0  0  0  0  0  0  0
   19.8853   -9.9691  -18.3554 O   0  0  0  0  0  0  0  0  0  0  0  0
   20.4939  -11.3478  -16.6352 N   0  0  0  0  0  0  0  0  0  0  0  0
   19.9182  -10.4541  -15.6714 C   0  0  1  0  0  0  0  0  0  0  0  0
   19.1693  -11.1934  -14.6050 C   0  0  0  0  0  0  0  0  0  0  0  0
   18.0223  -11.9814  -15.1088 C   0  0  0  0  0  0  0  0  0  0  0  0
   17.9935  -13.2379  -15.0843 O   0  0  0  0  0  0  0  0  0  0  0  0
   20.9176   -9.5087  -15.1138 C   0  0  0  0  0  0  0  0  0  0  0  0
   22.0523   -9.9592  -14.7739 O   0  0  0  0  0  0  0  0  0  0  0  0
   16.9135  -11.3452  -15.6387 O   0  0  0  0  0  0  0  0  0  0  0  0
   20.6553   -8.1294  -14.9467 N   0  0  0  0  0  0  0  0  0  0  0  0
   21.6585   -7.2268  -14.4467 C   0  0  0  0  0  0  0  0  0  0  0  0
   21.1263   -5.8393  -14.3158 C   0  0  0  0  0  0  0  0  0  0  0  0
   21.9610   -4.8688  -13.7917 O   0  0  0  0  0  0  0  0  0  0  0  0
   19.9583   -5.5472  -14.6666 O   0  0  0  0  0  0  0  0  0  0  0  0
  2  1  1  0
  3  2  1  0
  4  3  2  0
  5  3  1  0
  6 10  1  0
  6  5  1  0
  7  8  1  0
  6  7  1  1
  8  9  2  0
 10 13  1  0
 11 10  2  0
 12  8  1  0
 13 14  1  0
 14 15  1  0
 15 17  2  0
 15 16  1  0
M  END
$$$$
