GDG.pdb
     RDKit          3D

 17 16  0  0  1  0  0  0  0  0999 V2000
   26.4849  -32.6808   -8.1217 N   0  0  0  0  0  0  0  0  0  0  0  0
   25.5038  -33.3776   -7.3196 C   0  0  0  0  0  0  0  0  0  0  0  0
   26.0172  -33.5277   -5.9359 C   0  0  0  0  0  0  0  0  0  0  0  0
   27.1138  -33.0401   -5.5651 O   0  0  0  0  0  0  0  0  0  0  0  0
   25.2634  -34.2448   -4.9696 N   0  0  0  0  0  0  0  0  0  0  0  0
   25.6470  -34.2271   -3.5869 C   0  0  1  0  0  0  0  0  0  0  0  0
   24.4554  -34.2375   -2.6789 C   0  0  0  0  0  0  0  0  0  0  0  0
   23.7135  -32.9575   -2.6418 C   0  0  0  0  0  0  0  0  0  0  0  0
   24.2326  -31.8576   -2.9599 O   0  0  0  0  0  0  0  0  0  0  0  0
   26.6213  -35.2981   -3.2598 C   0  0  0  0  0  0  0  0  0  0  0  0
   26.5195  -36.4112   -3.8569 O   0  0  0  0  0  0  0  0  0  0  0  0
   22.3881  -32.9266   -2.2447 O   0  0  0  0  0  0  0  0  0  0  0  0
   27.6556  -35.1270   -2.3110 N   0  0  0  0  0  0  0  0  0  0  0  0
   28.6218  -36.1624   -2.0548 C   0  0  0  0  0  0  0  0  0  0  0  0
   29.6358  -35.7250   -1.0517 C   0  0  0  0  0  0  0  0  0  0  0  0
   29.5273  -34.4484   -0.5307 O   0  0  0  0  0  0  0  0  0  0  0  0
   30.5648  -36.4823   -0.6827 O   0  0  0  0  0  0  0  0  0  0  0  0
  2  1  1  0
  3  2  1  0
  4  3  2  0
  5  3  1  0
  6 10  1  0
  6  5  1  0
  7  8  1  0
  6  7  1  1
  8  9  2  0
 10 13  1  0
 11 10  2  0
 12  8  1  0
 13 14  1  0
 14 15  1  0
 15 17  2  0
 15 16  1  0
M  END
$$$$
