GDG.pdb
     RDKit          3D

 17 16  0  0  1  0  0  0  0  0999 V2000
   15.9922   -8.3778  -14.1386 N   0  0  0  0  0  0  0  0  0  0  0  0
   16.8740   -7.2356  -14.2357 C   0  0  0  0  0  0  0  0  0  0  0  0
   18.2138   -7.6035  -13.7158 C   0  0  0  0  0  0  0  0  0  0  0  0
   18.3988   -7.9850  -12.5333 O   0  0  0  0  0  0  0  0  0  0  0  0
   19.3514   -7.5324  -14.5626 N   0  0  0  0  0  0  0  0  0  0  0  0
   20.6392   -7.9526  -14.0890 C   0  0  1  0  0  0  0  0  0  0  0  0
   21.3466   -8.8134  -15.0907 C   0  0  0  0  0  0  0  0  0  0  0  0
   20.5652   -9.9893  -15.5347 C   0  0  0  0  0  0  0  0  0  0  0  0
   20.1297  -10.8599  -14.7393 O   0  0  0  0  0  0  0  0  0  0  0  0
   21.4704   -6.8107  -13.6321 C   0  0  0  0  0  0  0  0  0  0  0  0
   22.5935   -7.0556  -13.0987 O   0  0  0  0  0  0  0  0  0  0  0  0
   20.2805  -10.1759  -16.8761 O   0  0  0  0  0  0  0  0  0  0  0  0
   21.0605   -5.4643  -13.7674 N   0  0  0  0  0  0  0  0  0  0  0  0
   21.8523   -4.3800  -13.2492 C   0  0  0  0  0  0  0  0  0  0  0  0
   21.2260   -3.0586  -13.5445 C   0  0  0  0  0  0  0  0  0  0  0  0
   21.8779   -1.9181  -13.1116 O   0  0  0  0  0  0  0  0  0  0  0  0
   20.1405   -2.9696  -14.1661 O   0  0  0  0  0  0  0  0  0  0  0  0
  2  1  1  0
  3  2  1  0
  4  3  2  0
  5  3  1  0
  6 10  1  0
  6  5  1  0
  7  8  1  0
  6  7  1  6
  8  9  2  0
 10 13  1  0
 11 10  2  0
 12  8  1  0
 13 14  1  0
 14 15  1  0
 15 17  2  0
 15 16  1  0
M  END
$$$$
