GDG.pdb
     RDKit          3D

 17 16  0  0  1  0  0  0  0  0999 V2000
   15.8482   -6.7822   -7.9476 N   0  0  0  0  0  0  0  0  0  0  0  0
   15.1311   -7.5042   -8.9752 C   0  0  0  0  0  0  0  0  0  0  0  0
   16.1016   -8.0942   -9.9296 C   0  0  0  0  0  0  0  0  0  0  0  0
   17.2992   -8.3186   -9.6239 O   0  0  0  0  0  0  0  0  0  0  0  0
   15.6921   -8.4294  -11.2472 N   0  0  0  0  0  0  0  0  0  0  0  0
   16.6197   -9.0174  -12.1708 C   0  0  1  0  0  0  0  0  0  0  0  0
   15.9526  -10.0101  -13.0731 C   0  0  0  0  0  0  0  0  0  0  0  0
   15.3917  -11.1846  -12.3685 C   0  0  0  0  0  0  0  0  0  0  0  0
   14.1722  -11.2915  -12.0829 O   0  0  0  0  0  0  0  0  0  0  0  0
   17.3909   -7.9948  -12.9211 C   0  0  0  0  0  0  0  0  0  0  0  0
   16.7762   -6.9798  -13.3660 O   0  0  0  0  0  0  0  0  0  0  0  0
   16.2124  -12.2324  -11.9894 O   0  0  0  0  0  0  0  0  0  0  0  0
   18.7801   -8.1071  -13.1590 N   0  0  0  0  0  0  0  0  0  0  0  0
   19.5140   -7.0730  -13.8395 C   0  0  0  0  0  0  0  0  0  0  0  0
   20.9580   -7.4248  -13.9687 C   0  0  0  0  0  0  0  0  0  0  0  0
   21.7747   -6.5693  -14.6860 O   0  0  0  0  0  0  0  0  0  0  0  0
   21.4312   -8.4627  -13.4475 O   0  0  0  0  0  0  0  0  0  0  0  0
  2  1  1  0
  3  2  1  0
  4  3  2  0
  5  3  1  0
  6 10  1  0
  6  5  1  0
  7  8  1  0
  6  7  1  6
  8  9  2  0
 10 13  1  0
 11 10  2  0
 12  8  1  0
 13 14  1  0
 14 15  1  0
 15 17  2  0
 15 16  1  0
M  END
$$$$
