GDG.pdb
     RDKit          3D

 17 16  0  0  1  0  0  0  0  0999 V2000
   25.4823  -12.4515  -16.5949 N   0  0  0  0  0  0  0  0  0  0  0  0
   24.6202  -12.0420  -15.5084 C   0  0  0  0  0  0  0  0  0  0  0  0
   23.7598  -10.9208  -15.9595 C   0  0  0  0  0  0  0  0  0  0  0  0
   23.7828  -10.4822  -17.1364 O   0  0  0  0  0  0  0  0  0  0  0  0
   22.8648  -10.2981  -15.0499 N   0  0  0  0  0  0  0  0  0  0  0  0
   22.0479   -9.1961  -15.4711 C   0  0  1  0  0  0  0  0  0  0  0  0
   20.5933   -9.5550  -15.4840 C   0  0  0  0  0  0  0  0  0  0  0  0
   19.7158   -8.4981  -16.0348 C   0  0  0  0  0  0  0  0  0  0  0  0
   19.9979   -7.8485  -17.0733 O   0  0  0  0  0  0  0  0  0  0  0  0
   22.3228   -7.9624  -14.6928 C   0  0  0  0  0  0  0  0  0  0  0  0
   22.3651   -8.0418  -13.4287 O   0  0  0  0  0  0  0  0  0  0  0  0
   18.5235   -8.1800  -15.4083 O   0  0  0  0  0  0  0  0  0  0  0  0
   22.5387   -6.7054  -15.3031 N   0  0  0  0  0  0  0  0  0  0  0  0
   22.8211   -5.5284  -14.5247 C   0  0  0  0  0  0  0  0  0  0  0  0
   21.5663   -4.8448  -14.0961 C   0  0  0  0  0  0  0  0  0  0  0  0
   21.6781   -3.6451  -13.4169 O   0  0  0  0  0  0  0  0  0  0  0  0
   20.4364   -5.3323  -14.3378 O   0  0  0  0  0  0  0  0  0  0  0  0
  2  1  1  0
  3  2  1  0
  4  3  2  0
  5  3  1  0
  6 10  1  0
  6  5  1  0
  7  8  1  0
  6  7  1  1
  8  9  2  0
 10 13  1  0
 11 10  2  0
 12  8  1  0
 13 14  1  0
 14 15  1  0
 15 17  2  0
 15 16  1  0
M  END
$$$$
