GDG.pdb
     RDKit          3D

 17 16  0  0  1  0  0  0  0  0999 V2000
   21.6458  -12.3906  -17.5705 N   0  0  0  0  0  0  0  0  0  0  0  0
   21.1115  -12.1307  -16.2520 C   0  0  0  0  0  0  0  0  0  0  0  0
   20.7849  -10.6888  -16.1294 C   0  0  0  0  0  0  0  0  0  0  0  0
   21.0964   -9.8479  -17.0091 O   0  0  0  0  0  0  0  0  0  0  0  0
   20.0940  -10.2088  -14.9856 N   0  0  0  0  0  0  0  0  0  0  0  0
   19.6930   -8.8336  -14.9007 C   0  0  1  0  0  0  0  0  0  0  0  0
   18.2757   -8.6952  -14.4350 C   0  0  0  0  0  0  0  0  0  0  0  0
   17.2917   -9.4147  -15.2742 C   0  0  0  0  0  0  0  0  0  0  0  0
   17.0953   -9.1390  -16.4849 O   0  0  0  0  0  0  0  0  0  0  0  0
   20.6386   -8.0208  -14.0954 C   0  0  0  0  0  0  0  0  0  0  0  0
   21.0312   -8.4777  -12.9805 O   0  0  0  0  0  0  0  0  0  0  0  0
   16.5336  -10.4422  -14.7406 O   0  0  0  0  0  0  0  0  0  0  0  0
   21.1177   -6.7604  -14.5208 N   0  0  0  0  0  0  0  0  0  0  0  0
   22.0413   -5.9971  -13.7236 C   0  0  0  0  0  0  0  0  0  0  0  0
   22.4268   -4.7264  -14.4035 C   0  0  0  0  0  0  0  0  0  0  0  0
   23.2135   -3.8277  -13.7059 O   0  0  0  0  0  0  0  0  0  0  0  0
   22.0555   -4.4675  -15.5730 O   0  0  0  0  0  0  0  0  0  0  0  0
  2  1  1  0
  3  2  1  0
  4  3  2  0
  5  3  1  0
  6 10  1  0
  6  5  1  0
  7  8  1  0
  6  7  1  1
  8  9  2  0
 10 13  1  0
 11 10  2  0
 12  8  1  0
 13 14  1  0
 14 15  1  0
 15 17  2  0
 15 16  1  0
M  END
$$$$
