GDG.pdb
     RDKit          3D

 17 16  0  0  1  0  0  0  0  0999 V2000
   16.3816   -9.7049  -10.6496 N   0  0  0  0  0  0  0  0  0  0  0  0
   16.3248   -9.4612  -12.0740 C   0  0  0  0  0  0  0  0  0  0  0  0
   17.6716   -9.0738  -12.5604 C   0  0  0  0  0  0  0  0  0  0  0  0
   18.6237   -8.8173  -11.7820 O   0  0  0  0  0  0  0  0  0  0  0  0
   17.9269   -8.9803  -13.9541 N   0  0  0  0  0  0  0  0  0  0  0  0
   19.2357   -8.6395  -14.4337 C   0  0  1  0  0  0  0  0  0  0  0  0
   19.5757   -9.3757  -15.6935 C   0  0  0  0  0  0  0  0  0  0  0  0
   19.4592  -10.8469  -15.5830 C   0  0  0  0  0  0  0  0  0  0  0  0
   20.1733  -11.5324  -14.8081 O   0  0  0  0  0  0  0  0  0  0  0  0
   19.4227   -7.1726  -14.5636 C   0  0  0  0  0  0  0  0  0  0  0  0
   18.5610   -6.5083  -15.2133 O   0  0  0  0  0  0  0  0  0  0  0  0
   18.5363  -11.5366  -16.3496 O   0  0  0  0  0  0  0  0  0  0  0  0
   20.5207   -6.4884  -13.9932 N   0  0  0  0  0  0  0  0  0  0  0  0
   20.6540   -5.0592  -14.0966 C   0  0  0  0  0  0  0  0  0  0  0  0
   21.8789   -4.5742  -13.3965 C   0  0  0  0  0  0  0  0  0  0  0  0
   22.1596   -3.2205  -13.4385 O   0  0  0  0  0  0  0  0  0  0  0  0
   22.6407   -5.3598  -12.7840 O   0  0  0  0  0  0  0  0  0  0  0  0
  2  1  1  0
  3  2  1  0
  4  3  2  0
  5  3  1  0
  6 10  1  0
  6  5  1  0
  7  8  1  0
  6  7  1  6
  8  9  2  0
 10 13  1  0
 11 10  2  0
 12  8  1  0
 13 14  1  0
 14 15  1  0
 15 17  2  0
 15 16  1  0
M  END
$$$$
