GDG.pdb
     RDKit          3D

 17 16  0  0  1  0  0  0  0  0999 V2000
   15.1224   -7.4129   -7.3624 N   0  0  0  0  0  0  0  0  0  0  0  0
   15.4740   -6.6502   -8.5397 C   0  0  0  0  0  0  0  0  0  0  0  0
   16.3304   -7.4781   -9.4240 C   0  0  0  0  0  0  0  0  0  0  0  0
   16.8789   -8.5388   -9.0340 O   0  0  0  0  0  0  0  0  0  0  0  0
   16.5586   -7.0835  -10.7688 N   0  0  0  0  0  0  0  0  0  0  0  0
   17.3951   -7.8724  -11.6274 C   0  0  1  0  0  0  0  0  0  0  0  0
   16.6272   -8.4442  -12.7798 C   0  0  0  0  0  0  0  0  0  0  0  0
   17.3941   -9.4125  -13.5950 C   0  0  0  0  0  0  0  0  0  0  0  0
   18.1136  -10.3115  -13.0905 O   0  0  0  0  0  0  0  0  0  0  0  0
   18.6086   -7.1360  -12.0615 C   0  0  0  0  0  0  0  0  0  0  0  0
   18.5065   -5.8989  -12.3163 O   0  0  0  0  0  0  0  0  0  0  0  0
   17.3447   -9.3596  -14.9770 O   0  0  0  0  0  0  0  0  0  0  0  0
   19.8708   -7.7577  -12.2020 N   0  0  0  0  0  0  0  0  0  0  0  0
   21.0193   -7.0322  -12.6772 C   0  0  0  0  0  0  0  0  0  0  0  0
   20.8925   -6.7000  -14.1260 C   0  0  0  0  0  0  0  0  0  0  0  0
   21.9325   -6.0173  -14.7306 O   0  0  0  0  0  0  0  0  0  0  0  0
   19.8784   -7.0241  -14.7887 O   0  0  0  0  0  0  0  0  0  0  0  0
  2  1  1  0
  3  2  1  0
  4  3  2  0
  5  3  1  0
  6 10  1  0
  6  5  1  0
  7  8  1  0
  6  7  1  6
  8  9  2  0
 10 13  1  0
 11 10  2  0
 12  8  1  0
 13 14  1  0
 14 15  1  0
 15 17  2  0
 15 16  1  0
M  END
$$$$
