GDG.pdb
     RDKit          3D

 17 16  0  0  1  0  0  0  0  0999 V2000
   21.2461  -10.2076  -19.7428 N   0  0  0  0  0  0  0  0  0  0  0  0
   20.2001  -10.7771  -18.9224 C   0  0  0  0  0  0  0  0  0  0  0  0
   19.9000   -9.8557  -17.7992 C   0  0  0  0  0  0  0  0  0  0  0  0
   19.6059   -8.6473  -17.9761 O   0  0  0  0  0  0  0  0  0  0  0  0
   19.9381  -10.3272  -16.4604 N   0  0  0  0  0  0  0  0  0  0  0  0
   19.5697   -9.4653  -15.3738 C   0  0  1  0  0  0  0  0  0  0  0  0
   18.7177  -10.1742  -14.3657 C   0  0  0  0  0  0  0  0  0  0  0  0
   17.4159  -10.6383  -14.8952 C   0  0  0  0  0  0  0  0  0  0  0  0
   17.1006  -11.8532  -14.9644 O   0  0  0  0  0  0  0  0  0  0  0  0
   20.7464   -8.8017  -14.7586 C   0  0  0  0  0  0  0  0  0  0  0  0
   21.7798   -9.4973  -14.5258 O   0  0  0  0  0  0  0  0  0  0  0  0
   16.4768   -9.7266  -15.3447 O   0  0  0  0  0  0  0  0  0  0  0  0
   20.7607   -7.4284  -14.4224 N   0  0  0  0  0  0  0  0  0  0  0  0
   21.9477   -6.7878  -13.9207 C   0  0  0  0  0  0  0  0  0  0  0  0
   21.7526   -5.3159  -13.7761 C   0  0  0  0  0  0  0  0  0  0  0  0
   22.7971   -4.5683  -13.2631 O   0  0  0  0  0  0  0  0  0  0  0  0
   20.6783   -4.7594  -14.1058 O   0  0  0  0  0  0  0  0  0  0  0  0
  2  1  1  0
  3  2  1  0
  4  3  2  0
  5  3  1  0
  6 10  1  0
  6  5  1  0
  7  8  1  0
  6  7  1  1
  8  9  2  0
 10 13  1  0
 11 10  2  0
 12  8  1  0
 13 14  1  0
 14 15  1  0
 15 17  2  0
 15 16  1  0
M  END
$$$$
