KFD.pdb
     RDKit          3D

 29 29  0  0  1  0  0  0  0  0999 V2000
    7.7023  -15.5689   19.4017 N   0  0  0  0  0  0  0  0  0  0  0  0
    8.7399  -14.6002   19.5985 C   0  0  1  0  0  0  0  0  0  0  0  0
    8.4710  -13.2898   18.8901 C   0  0  0  0  0  0  0  0  0  0  0  0
    7.6761  -13.4939   17.6190 C   0  0  0  0  0  0  0  0  0  0  0  0
    8.6337  -14.0391   16.5724 C   0  0  0  0  0  0  0  0  0  0  0  0
    7.9333  -14.3239   15.2743 C   0  0  0  0  0  0  0  0  0  0  0  0
    8.8554  -14.8612   14.3162 N   0  0  0  0  0  0  0  0  0  0  0  0
    8.8698  -14.2804   21.0440 C   0  0  0  0  0  0  0  0  0  0  0  0
    9.7322  -13.4447   21.4072 O   0  0  0  0  0  0  0  0  0  0  0  0
    8.0284  -14.9132   22.0030 N   0  0  0  0  0  0  0  0  0  0  0  0
    8.0491  -14.5343   23.3984 C   0  0  1  0  0  0  0  0  0  0  0  0
    6.7215  -14.1430   23.9423 C   0  0  0  0  0  0  0  0  0  0  0  0
    6.7175  -13.4549   25.2286 C   0  0  0  0  0  0  0  0  0  0  0  0
    7.3424  -12.2241   25.3957 C   0  0  0  0  0  0  0  0  0  0  0  0
    7.3334  -11.5924   26.6301 C   0  0  0  0  0  0  0  0  0  0  0  0
    6.7117  -12.1488   27.7360 C   0  0  0  0  0  0  0  0  0  0  0  0
    6.0967  -13.3634   27.5654 C   0  0  0  0  0  0  0  0  0  0  0  0
    6.1061  -13.9898   26.3395 C   0  0  0  0  0  0  0  0  0  0  0  0
    8.7875  -15.5444   24.2111 C   0  0  0  0  0  0  0  0  0  0  0  0
    8.9060  -15.4444   25.4546 O   0  0  0  0  0  0  0  0  0  0  0  0
    9.3753  -16.6514   23.5572 N   0  0  0  0  0  0  0  0  0  0  0  0
   10.6724  -17.2183   23.9410 C   0  0  1  0  0  0  0  0  0  0  0  0
   11.7819  -16.3362   23.4504 C   0  0  0  0  0  0  0  0  0  0  0  0
   13.1113  -16.8025   23.8378 C   0  0  0  0  0  0  0  0  0  0  0  0
   14.0283  -15.9613   24.1047 O   0  0  0  0  0  0  0  0  0  0  0  0
   10.6777  -17.4050   25.3941 C   0  0  0  0  0  0  0  0  0  0  0  0
    9.9879  -16.6410   26.3232 O   0  0  0  0  0  0  0  0  0  0  0  0
   13.4591  -18.1367   23.9372 O   0  0  0  0  0  0  0  0  0  0  0  0
   11.3687  -18.3473   25.8952 O   0  0  0  0  0  0  0  0  0  0  0  0
  2  3  1  0
  2  1  1  1
  4  5  1  0
  4  3  1  0
  6  7  1  0
  6  5  1  0
  8  2  1  0
  9  8  2  0
 10  8  1  0
 11 10  1  0
 12 13  1  0
 11 12  1  1
 13 14  2  0
 14 15  1  0
 16 15  2  0
 17 16  1  0
 18 17  2  0
 18 13  1  0
 19 21  1  0
 19 11  1  0
 20 19  2  0
 22 23  1  1
 22 21  1  0
 23 24  1  0
 24 28  1  0
 24 25  2  0
 26 22  1  0
 26 27  1  0
 29 26  2  0
M  END
$$$$
