KFD.pdb
     RDKit          3D

 29 29  0  0  1  0  0  0  0  0999 V2000
    8.4812  -16.9878   20.1834 N   0  0  0  0  0  0  0  0  0  0  0  0
    9.6644  -16.1796   20.2044 C   0  0  1  0  0  0  0  0  0  0  0  0
    9.7747  -15.2571   19.0094 C   0  0  0  0  0  0  0  0  0  0  0  0
    8.5405  -15.3222   18.1367 C   0  0  0  0  0  0  0  0  0  0  0  0
    8.7923  -14.4280   16.9340 C   0  0  0  0  0  0  0  0  0  0  0  0
    7.6360  -14.4487   15.9754 C   0  0  0  0  0  0  0  0  0  0  0  0
    7.9157  -13.6229   14.8367 N   0  0  0  0  0  0  0  0  0  0  0  0
    9.6659  -15.3110   21.4104 C   0  0  0  0  0  0  0  0  0  0  0  0
   10.6222  -14.5189   21.5885 O   0  0  0  0  0  0  0  0  0  0  0  0
    8.5981  -15.3771   22.3503 N   0  0  0  0  0  0  0  0  0  0  0  0
    8.5625  -14.5272   23.5198 C   0  0  1  0  0  0  0  0  0  0  0  0
    7.2017  -14.0513   23.8848 C   0  0  0  0  0  0  0  0  0  0  0  0
    7.0963  -13.2233   25.0812 C   0  0  0  0  0  0  0  0  0  0  0  0
    6.5094  -13.7029   26.2468 C   0  0  0  0  0  0  0  0  0  0  0  0
    6.4122  -12.8948   27.3695 C   0  0  0  0  0  0  0  0  0  0  0  0
    6.8874  -11.5937   27.3819 C   0  0  0  0  0  0  0  0  0  0  0  0
    7.4655  -11.1255   26.2289 C   0  0  0  0  0  0  0  0  0  0  0  0
    7.5616  -11.9286   25.1148 C   0  0  0  0  0  0  0  0  0  0  0  0
    9.3366  -15.1354   24.6408 C   0  0  0  0  0  0  0  0  0  0  0  0
    9.5870  -14.5092   25.6970 O   0  0  0  0  0  0  0  0  0  0  0  0
    9.8056  -16.4624   24.5076 N   0  0  0  0  0  0  0  0  0  0  0  0
   10.4940  -17.1854   25.5822 C   0  0  1  0  0  0  0  0  0  0  0  0
    9.6415  -18.3223   26.0620 C   0  0  0  0  0  0  0  0  0  0  0  0
    9.6713  -18.5014   27.5119 C   0  0  0  0  0  0  0  0  0  0  0  0
   10.4211  -17.7644   28.2290 O   0  0  0  0  0  0  0  0  0  0  0  0
   11.8028  -17.6118   25.0808 C   0  0  0  0  0  0  0  0  0  0  0  0
   12.9796  -17.6817   25.8111 O   0  0  0  0  0  0  0  0  0  0  0  0
    8.9205  -19.4468   28.1851 O   0  0  0  0  0  0  0  0  0  0  0  0
   11.9164  -17.9601   23.8632 O   0  0  0  0  0  0  0  0  0  0  0  0
  2  3  1  0
  2  1  1  6
  4  5  1  0
  4  3  1  0
  6  7  1  0
  6  5  1  0
  8  2  1  0
  9  8  2  0
 10  8  1  0
 11 10  1  0
 12 13  1  0
 11 12  1  1
 13 14  2  0
 14 15  1  0
 16 15  2  0
 17 16  1  0
 18 17  2  0
 18 13  1  0
 19 21  1  0
 19 11  1  0
 20 19  2  0
 22 23  1  6
 22 21  1  0
 23 24  1  0
 24 28  1  0
 24 25  2  0
 26 22  1  0
 26 27  1  0
 29 26  2  0
M  END
$$$$
