KFD.pdb
     RDKit          3D

 29 29  0  0  1  0  0  0  0  0999 V2000
    8.2252  -17.0845   20.0424 N   0  0  0  0  0  0  0  0  0  0  0  0
    8.6857  -15.7401   19.8580 C   0  0  1  0  0  0  0  0  0  0  0  0
    7.7166  -14.8830   19.0720 C   0  0  0  0  0  0  0  0  0  0  0  0
    8.4034  -14.1653   17.9308 C   0  0  0  0  0  0  0  0  0  0  0  0
    7.3837  -14.0179   16.8135 C   0  0  0  0  0  0  0  0  0  0  0  0
    7.9386  -13.2389   15.6552 C   0  0  0  0  0  0  0  0  0  0  0  0
    6.9249  -13.0285   14.6627 N   0  0  0  0  0  0  0  0  0  0  0  0
    8.8625  -15.0774   21.1765 C   0  0  0  0  0  0  0  0  0  0  0  0
    9.6071  -14.0710   21.2566 O   0  0  0  0  0  0  0  0  0  0  0  0
    8.1972  -15.5775   22.3320 N   0  0  0  0  0  0  0  0  0  0  0  0
    8.3802  -14.9748   23.6337 C   0  0  1  0  0  0  0  0  0  0  0  0
    7.1629  -14.3133   24.1743 C   0  0  0  0  0  0  0  0  0  0  0  0
    7.2891  -13.6761   25.4806 C   0  0  0  0  0  0  0  0  0  0  0  0
    6.8811  -14.3185   26.6442 C   0  0  0  0  0  0  0  0  0  0  0  0
    7.0025  -13.6900   27.8743 C   0  0  0  0  0  0  0  0  0  0  0  0
    7.5270  -12.4140   27.9991 C   0  0  0  0  0  0  0  0  0  0  0  0
    7.9279  -11.7847   26.8476 C   0  0  0  0  0  0  0  0  0  0  0  0
    7.8071  -12.4096   25.6268 C   0  0  0  0  0  0  0  0  0  0  0  0
    9.0455  -15.9270   24.5699 C   0  0  0  0  0  0  0  0  0  0  0  0
    8.5504  -17.0432   24.8515 O   0  0  0  0  0  0  0  0  0  0  0  0
   10.2753  -15.5581   25.1616 N   0  0  0  0  0  0  0  0  0  0  0  0
   11.0858  -16.4727   25.9726 C   0  0  1  0  0  0  0  0  0  0  0  0
   12.5435  -16.2269   25.7187 C   0  0  0  0  0  0  0  0  0  0  0  0
   12.9658  -16.5754   24.3641 C   0  0  0  0  0  0  0  0  0  0  0  0
   12.4027  -17.5369   23.7492 O   0  0  0  0  0  0  0  0  0  0  0  0
   10.7032  -16.3001   27.3762 C   0  0  0  0  0  0  0  0  0  0  0  0
   11.0969  -17.0986   28.4394 O   0  0  0  0  0  0  0  0  0  0  0  0
   13.9684  -15.9159   23.6780 O   0  0  0  0  0  0  0  0  0  0  0  0
    9.9366  -15.3373   27.6956 O   0  0  0  0  0  0  0  0  0  0  0  0
  2  3  1  0
  2  1  1  1
  4  5  1  0
  4  3  1  0
  6  7  1  0
  6  5  1  0
  8  2  1  0
  9  8  2  0
 10  8  1  0
 11 10  1  0
 12 13  1  0
 11 12  1  1
 13 14  2  0
 14 15  1  0
 16 15  2  0
 17 16  1  0
 18 17  2  0
 18 13  1  0
 19 21  1  0
 19 11  1  0
 20 19  2  0
 22 23  1  1
 22 21  1  0
 23 24  1  0
 24 28  1  0
 24 25  2  0
 26 22  1  0
 26 27  1  0
 29 26  2  0
M  END
$$$$
