KFD.pdb
     RDKit          3D

 29 29  0  0  1  0  0  0  0  0999 V2000
    9.7972  -16.8611   19.6267 N   0  0  0  0  0  0  0  0  0  0  0  0
    8.6574  -16.0862   20.0192 C   0  0  1  0  0  0  0  0  0  0  0  0
    7.3499  -16.8332   19.8653 C   0  0  0  0  0  0  0  0  0  0  0  0
    7.5747  -18.3086   19.6161 C   0  0  0  0  0  0  0  0  0  0  0  0
    6.8697  -19.0653   20.7297 C   0  0  0  0  0  0  0  0  0  0  0  0
    6.0436  -20.1994   20.1932 C   0  0  0  0  0  0  0  0  0  0  0  0
    5.4280  -20.9218   21.2684 N   0  0  0  0  0  0  0  0  0  0  0  0
    8.7650  -15.7137   21.4539 C   0  0  0  0  0  0  0  0  0  0  0  0
    9.7819  -16.0652   22.0992 O   0  0  0  0  0  0  0  0  0  0  0  0
    7.7294  -14.9693   22.0873 N   0  0  0  0  0  0  0  0  0  0  0  0
    7.8582  -14.4951   23.4473 C   0  0  1  0  0  0  0  0  0  0  0  0
    6.9046  -13.4119   23.8068 C   0  0  0  0  0  0  0  0  0  0  0  0
    6.9889  -12.8895   25.1662 C   0  0  0  0  0  0  0  0  0  0  0  0
    8.0271  -12.0524   25.5594 C   0  0  0  0  0  0  0  0  0  0  0  0
    8.0916  -11.5747   26.8596 C   0  0  0  0  0  0  0  0  0  0  0  0
    7.1407  -11.9038   27.8116 C   0  0  0  0  0  0  0  0  0  0  0  0
    6.1185  -12.7303   27.4182 C   0  0  0  0  0  0  0  0  0  0  0  0
    6.0552  -13.2040   26.1271 C   0  0  0  0  0  0  0  0  0  0  0  0
    7.9003  -15.6379   24.4055 C   0  0  0  0  0  0  0  0  0  0  0  0
    7.1467  -16.6327   24.2927 O   0  0  0  0  0  0  0  0  0  0  0  0
    8.8200  -15.5976   25.4784 N   0  0  0  0  0  0  0  0  0  0  0  0
    9.4681  -16.7924   26.0294 C   0  0  1  0  0  0  0  0  0  0  0  0
   10.3376  -17.4300   24.9867 C   0  0  0  0  0  0  0  0  0  0  0  0
   10.2532  -18.8886   24.9702 C   0  0  0  0  0  0  0  0  0  0  0  0
    9.1626  -19.4667   25.2801 O   0  0  0  0  0  0  0  0  0  0  0  0
   10.2005  -16.3997   27.2360 C   0  0  0  0  0  0  0  0  0  0  0  0
   10.3679  -15.1080   27.7118 O   0  0  0  0  0  0  0  0  0  0  0  0
   11.3081  -19.7157   24.6329 O   0  0  0  0  0  0  0  0  0  0  0  0
   10.7524  -17.2987   27.9459 O   0  0  0  0  0  0  0  0  0  0  0  0
  2  3  1  0
  2  1  1  1
  4  5  1  0
  4  3  1  0
  6  7  1  0
  6  5  1  0
  8  2  1  0
  9  8  2  0
 10  8  1  0
 11 10  1  0
 12 13  1  0
 11 12  1  1
 13 14  2  0
 14 15  1  0
 16 15  2  0
 17 16  1  0
 18 17  2  0
 18 13  1  0
 19 21  1  0
 19 11  1  0
 20 19  2  0
 22 23  1  6
 22 21  1  0
 23 24  1  0
 24 28  1  0
 24 25  2  0
 26 22  1  0
 26 27  1  0
 29 26  2  0
M  END
$$$$
