KFD.pdb
     RDKit          3D

 29 29  0  0  1  0  0  0  0  0999 V2000
    7.6835  -16.5341   19.5685 N   0  0  0  0  0  0  0  0  0  0  0  0
    8.8681  -15.7335   19.6652 C   0  0  1  0  0  0  0  0  0  0  0  0
    8.8577  -14.5423   18.7313 C   0  0  0  0  0  0  0  0  0  0  0  0
    8.7658  -14.9684   17.2824 C   0  0  0  0  0  0  0  0  0  0  0  0
    8.3026  -13.7593   16.4866 C   0  0  0  0  0  0  0  0  0  0  0  0
    8.1304  -14.0863   15.0306 C   0  0  0  0  0  0  0  0  0  0  0  0
    7.6309  -12.9464   14.3179 N   0  0  0  0  0  0  0  0  0  0  0  0
    9.0038  -15.1901   21.0419 C   0  0  0  0  0  0  0  0  0  0  0  0
   10.0369  -14.5447   21.3421 O   0  0  0  0  0  0  0  0  0  0  0  0
    7.9771  -15.3992   22.0062 N   0  0  0  0  0  0  0  0  0  0  0  0
    8.0768  -14.8695   23.3481 C   0  0  1  0  0  0  0  0  0  0  0  0
    6.9543  -13.9732   23.7333 C   0  0  0  0  0  0  0  0  0  0  0  0
    6.9791  -13.4384   25.0903 C   0  0  0  0  0  0  0  0  0  0  0  0
    6.1540  -13.9477   26.0867 C   0  0  0  0  0  0  0  0  0  0  0  0
    6.1883  -13.4177   27.3677 C   0  0  0  0  0  0  0  0  0  0  0  0
    7.0323  -12.3735   27.7087 C   0  0  0  0  0  0  0  0  0  0  0  0
    7.8443  -11.8747   26.7215 C   0  0  0  0  0  0  0  0  0  0  0  0
    7.8095  -12.4016   25.4501 C   0  0  0  0  0  0  0  0  0  0  0  0
    8.3767  -15.9558   24.3259 C   0  0  0  0  0  0  0  0  0  0  0  0
    7.5888  -16.9090   24.5282 O   0  0  0  0  0  0  0  0  0  0  0  0
    9.5895  -15.9083   25.0507 N   0  0  0  0  0  0  0  0  0  0  0  0
   10.0215  -16.9674   25.9688 C   0  0  1  0  0  0  0  0  0  0  0  0
   11.3629  -17.4920   25.5502 C   0  0  0  0  0  0  0  0  0  0  0  0
   11.2975  -18.4371   24.4378 C   0  0  0  0  0  0  0  0  0  0  0  0
   10.1802  -18.6934   23.8850 O   0  0  0  0  0  0  0  0  0  0  0  0
   10.0084  -16.4257   27.3300 C   0  0  0  0  0  0  0  0  0  0  0  0
    9.6354  -17.1038   28.4806 O   0  0  0  0  0  0  0  0  0  0  0  0
   12.3981  -19.0979   23.9251 O   0  0  0  0  0  0  0  0  0  0  0  0
   10.3660  -15.2206   27.5208 O   0  0  0  0  0  0  0  0  0  0  0  0
  2  3  1  0
  2  1  1  1
  4  5  1  0
  4  3  1  0
  6  7  1  0
  6  5  1  0
  8  2  1  0
  9  8  2  0
 10  8  1  0
 11 10  1  0
 12 13  1  0
 11 12  1  1
 13 14  2  0
 14 15  1  0
 16 15  2  0
 17 16  1  0
 18 17  2  0
 18 13  1  0
 19 21  1  0
 19 11  1  0
 20 19  2  0
 22 23  1  6
 22 21  1  0
 23 24  1  0
 24 28  1  0
 24 25  2  0
 26 22  1  0
 26 27  1  0
 29 26  2  0
M  END
$$$$
