KFD.pdb
     RDKit          3D

 29 29  0  0  1  0  0  0  0  0999 V2000
    7.3807  -16.1832   21.0610 N   0  0  0  0  0  0  0  0  0  0  0  0
    8.5594  -15.3745   20.9610 C   0  0  1  0  0  0  0  0  0  0  0  0
    8.3240  -14.0694   20.2312 C   0  0  0  0  0  0  0  0  0  0  0  0
    7.6492  -14.2896   18.8950 C   0  0  0  0  0  0  0  0  0  0  0  0
    8.3002  -13.3421   17.9009 C   0  0  0  0  0  0  0  0  0  0  0  0
    7.6044  -13.3707   16.5699 C   0  0  0  0  0  0  0  0  0  0  0  0
    8.2079  -12.4310   15.6700 N   0  0  0  0  0  0  0  0  0  0  0  0
    9.0482  -15.0175   22.3184 C   0  0  0  0  0  0  0  0  0  0  0  0
   10.0006  -14.2084   22.4288 O   0  0  0  0  0  0  0  0  0  0  0  0
    8.4452  -15.5857   23.4766 N   0  0  0  0  0  0  0  0  0  0  0  0
    8.9510  -15.3179   24.8046 C   0  0  1  0  0  0  0  0  0  0  0  0
    7.8926  -15.0872   25.8236 C   0  0  0  0  0  0  0  0  0  0  0  0
    7.4083  -13.7185   25.9667 C   0  0  0  0  0  0  0  0  0  0  0  0
    8.2836  -12.6390   26.0073 C   0  0  0  0  0  0  0  0  0  0  0  0
    7.8011  -11.3472   26.1529 C   0  0  0  0  0  0  0  0  0  0  0  0
    6.4471  -11.0763   26.2627 C   0  0  0  0  0  0  0  0  0  0  0  0
    5.5878  -12.1453   26.2220 C   0  0  0  0  0  0  0  0  0  0  0  0
    6.0678  -13.4275   26.0774 C   0  0  0  0  0  0  0  0  0  0  0  0
    9.9856  -16.3212   25.1902 C   0  0  0  0  0  0  0  0  0  0  0  0
   10.4112  -16.4249   26.3643 O   0  0  0  0  0  0  0  0  0  0  0  0
   10.5056  -17.1836   24.1980 N   0  0  0  0  0  0  0  0  0  0  0  0
   11.4886  -18.2352   24.4792 C   0  0  1  0  0  0  0  0  0  0  0  0
   11.1450  -19.4762   23.7100 C   0  0  0  0  0  0  0  0  0  0  0  0
   10.5477  -20.5252   24.5332 C   0  0  0  0  0  0  0  0  0  0  0  0
   10.4566  -20.3712   25.7933 O   0  0  0  0  0  0  0  0  0  0  0  0
   12.8209  -17.7100   24.1698 C   0  0  0  0  0  0  0  0  0  0  0  0
   13.1921  -17.0407   23.0135 O   0  0  0  0  0  0  0  0  0  0  0  0
   10.0589  -21.7149   24.0267 O   0  0  0  0  0  0  0  0  0  0  0  0
   13.7581  -17.8607   25.0158 O   0  0  0  0  0  0  0  0  0  0  0  0
  2  3  1  0
  2  1  1  1
  4  5  1  0
  4  3  1  0
  6  7  1  0
  6  5  1  0
  8  2  1  0
  9  8  2  0
 10  8  1  0
 11 10  1  0
 12 13  1  0
 11 12  1  1
 13 14  2  0
 14 15  1  0
 16 15  2  0
 17 16  1  0
 18 17  2  0
 18 13  1  0
 19 21  1  0
 19 11  1  0
 20 19  2  0
 22 23  1  6
 22 21  1  0
 23 24  1  0
 24 28  1  0
 24 25  2  0
 26 22  1  0
 26 27  1  0
 29 26  2  0
M  END
$$$$
