KFD.pdb
     RDKit          3D

 29 29  0  0  1  0  0  0  0  0999 V2000
   10.2343  -16.3195   18.9090 N   0  0  0  0  0  0  0  0  0  0  0  0
    9.3361  -16.8634   19.8841 C   0  0  1  0  0  0  0  0  0  0  0  0
    9.6453  -18.3020   20.2393 C   0  0  0  0  0  0  0  0  0  0  0  0
    9.1757  -19.2570   19.1638 C   0  0  0  0  0  0  0  0  0  0  0  0
    9.4662  -20.6656   19.6550 C   0  0  0  0  0  0  0  0  0  0  0  0
    8.2055  -21.4641   19.8272 C   0  0  0  0  0  0  0  0  0  0  0  0
    7.8355  -22.0871   18.5895 N   0  0  0  0  0  0  0  0  0  0  0  0
    9.4266  -16.0871   21.1482 C   0  0  0  0  0  0  0  0  0  0  0  0
   10.5416  -15.6388   21.5083 O   0  0  0  0  0  0  0  0  0  0  0  0
    8.2654  -15.8559   21.9395 N   0  0  0  0  0  0  0  0  0  0  0  0
    8.3270  -15.1139   23.1792 C   0  0  1  0  0  0  0  0  0  0  0  0
    7.1006  -14.3280   23.4792 C   0  0  0  0  0  0  0  0  0  0  0  0
    7.0792  -13.6058   24.7466 C   0  0  0  0  0  0  0  0  0  0  0  0
    6.4415  -14.1253   25.8676 C   0  0  0  0  0  0  0  0  0  0  0  0
    6.4264  -13.4170   27.0597 C   0  0  0  0  0  0  0  0  0  0  0  0
    7.0357  -12.1795   27.1872 C   0  0  0  0  0  0  0  0  0  0  0  0
    7.6634  -11.6716   26.0778 C   0  0  0  0  0  0  0  0  0  0  0  0
    7.6780  -12.3756   24.8947 C   0  0  0  0  0  0  0  0  0  0  0  0
    8.8041  -15.9830   24.2940 C   0  0  0  0  0  0  0  0  0  0  0  0
    8.1805  -17.0078   24.6564 O   0  0  0  0  0  0  0  0  0  0  0  0
    9.9990  -15.6389   24.9665 N   0  0  0  0  0  0  0  0  0  0  0  0
   10.6610  -16.5195   25.9348 C   0  0  1  0  0  0  0  0  0  0  0  0
   12.1341  -16.2386   25.9587 C   0  0  0  0  0  0  0  0  0  0  0  0
   12.7854  -16.4337   24.6654 C   0  0  0  0  0  0  0  0  0  0  0  0
   12.5406  -17.4780   23.9804 O   0  0  0  0  0  0  0  0  0  0  0  0
   10.0134  -16.3366   27.2362 C   0  0  0  0  0  0  0  0  0  0  0  0
   10.1714  -17.1429   28.3532 O   0  0  0  0  0  0  0  0  0  0  0  0
   13.6807  -15.5371   24.1127 O   0  0  0  0  0  0  0  0  0  0  0  0
    9.2212  -15.3559   27.4017 O   0  0  0  0  0  0  0  0  0  0  0  0
  2  3  1  0
  2  1  1  6
  4  5  1  0
  4  3  1  0
  6  7  1  0
  6  5  1  0
  8  2  1  0
  9  8  2  0
 10  8  1  0
 11 10  1  0
 12 13  1  0
 11 12  1  1
 13 14  2  0
 14 15  1  0
 16 15  2  0
 17 16  1  0
 18 17  2  0
 18 13  1  0
 19 21  1  0
 19 11  1  0
 20 19  2  0
 22 23  1  1
 22 21  1  0
 23 24  1  0
 24 28  1  0
 24 25  2  0
 26 22  1  0
 26 27  1  0
 29 26  2  0
M  END
$$$$
