KFD.pdb
     RDKit          3D

 29 29  0  0  1  0  0  0  0  0999 V2000
    7.5160  -16.3843   19.2752 N   0  0  0  0  0  0  0  0  0  0  0  0
    8.7504  -15.6662   19.3943 C   0  0  1  0  0  0  0  0  0  0  0  0
    8.8698  -14.5229   18.4096 C   0  0  0  0  0  0  0  0  0  0  0  0
    8.1464  -14.8221   17.1148 C   0  0  0  0  0  0  0  0  0  0  0  0
    8.5601  -13.7576   16.1120 C   0  0  0  0  0  0  0  0  0  0  0  0
    7.8353  -13.9145   14.8057 C   0  0  0  0  0  0  0  0  0  0  0  0
    8.1590  -12.8327   13.9214 N   0  0  0  0  0  0  0  0  0  0  0  0
    8.8628  -15.0692   20.7507 C   0  0  0  0  0  0  0  0  0  0  0  0
    9.9028  -14.4358   21.0524 O   0  0  0  0  0  0  0  0  0  0  0  0
    7.8062  -15.2142   21.6943 N   0  0  0  0  0  0  0  0  0  0  0  0
    7.9601  -14.8106   23.0744 C   0  0  1  0  0  0  0  0  0  0  0  0
    6.7692  -14.1264   23.6446 C   0  0  0  0  0  0  0  0  0  0  0  0
    6.9111  -13.5746   24.9876 C   0  0  0  0  0  0  0  0  0  0  0  0
    7.6425  -12.4158   25.2228 C   0  0  0  0  0  0  0  0  0  0  0  0
    7.7713  -11.9143   26.5092 C   0  0  0  0  0  0  0  0  0  0  0  0
    7.1871  -12.5340   27.6017 C   0  0  0  0  0  0  0  0  0  0  0  0
    6.4667  -13.6773   27.3637 C   0  0  0  0  0  0  0  0  0  0  0  0
    6.3393  -14.1744   26.0862 C   0  0  0  0  0  0  0  0  0  0  0  0
    8.4936  -15.9338   23.8989 C   0  0  0  0  0  0  0  0  0  0  0  0
    8.0072  -17.0877   23.8508 O   0  0  0  0  0  0  0  0  0  0  0  0
    9.5834  -15.6889   24.7654 N   0  0  0  0  0  0  0  0  0  0  0  0
   10.4392  -16.7514   25.3038 C   0  0  1  0  0  0  0  0  0  0  0  0
   11.8080  -16.6629   24.6971 C   0  0  0  0  0  0  0  0  0  0  0  0
   12.7382  -17.6668   25.2091 C   0  0  0  0  0  0  0  0  0  0  0  0
   12.5291  -18.9018   24.9843 O   0  0  0  0  0  0  0  0  0  0  0  0
   10.4427  -16.6393   26.7646 C   0  0  0  0  0  0  0  0  0  0  0  0
   10.6761  -17.6661   27.6670 O   0  0  0  0  0  0  0  0  0  0  0  0
   13.8668  -17.3631   25.9472 O   0  0  0  0  0  0  0  0  0  0  0  0
   10.2139  -15.5089   27.2998 O   0  0  0  0  0  0  0  0  0  0  0  0
  2  3  1  0
  2  1  1  1
  4  5  1  0
  4  3  1  0
  6  7  1  0
  6  5  1  0
  8  2  1  0
  9  8  2  0
 10  8  1  0
 11 10  1  0
 12 13  1  0
 11 12  1  1
 13 14  2  0
 14 15  1  0
 16 15  2  0
 17 16  1  0
 18 17  2  0
 18 13  1  0
 19 21  1  0
 19 11  1  0
 20 19  2  0
 22 23  1  6
 22 21  1  0
 23 24  1  0
 24 28  1  0
 24 25  2  0
 26 22  1  0
 26 27  1  0
 29 26  2  0
M  END
$$$$
