KFD.pdb
     RDKit          3D

 29 29  0  0  1  0  0  0  0  0999 V2000
    9.8773  -16.4689   19.0024 N   0  0  0  0  0  0  0  0  0  0  0  0
    8.8761  -16.8026   19.9718 C   0  0  1  0  0  0  0  0  0  0  0  0
    8.8781  -18.2691   20.3468 C   0  0  0  0  0  0  0  0  0  0  0  0
    8.6056  -19.1530   19.1494 C   0  0  0  0  0  0  0  0  0  0  0  0
    8.6721  -20.5935   19.6293 C   0  0  0  0  0  0  0  0  0  0  0  0
    8.3015  -21.5589   18.5397 C   0  0  0  0  0  0  0  0  0  0  0  0
    8.3454  -22.9062   19.0293 N   0  0  0  0  0  0  0  0  0  0  0  0
    9.1119  -16.0447   21.2283 C   0  0  0  0  0  0  0  0  0  0  0  0
   10.2820  -15.9483   21.6702 O   0  0  0  0  0  0  0  0  0  0  0  0
    8.0259  -15.4374   21.9210 N   0  0  0  0  0  0  0  0  0  0  0  0
    8.2185  -14.7430   23.1747 C   0  0  1  0  0  0  0  0  0  0  0  0
    7.1947  -13.7019   23.4570 C   0  0  0  0  0  0  0  0  0  0  0  0
    7.2976  -13.0125   24.7385 C   0  0  0  0  0  0  0  0  0  0  0  0
    8.1521  -11.9298   24.9141 C   0  0  0  0  0  0  0  0  0  0  0  0
    8.2400  -11.2952   26.1439 C   0  0  0  0  0  0  0  0  0  0  0  0
    7.4930  -11.7034   27.2367 C   0  0  0  0  0  0  0  0  0  0  0  0
    6.6514  -12.7724   27.0578 C   0  0  0  0  0  0  0  0  0  0  0  0
    6.5648  -13.4017   25.8364 C   0  0  0  0  0  0  0  0  0  0  0  0
    8.4530  -15.7104   24.2860 C   0  0  0  0  0  0  0  0  0  0  0  0
    7.7666  -16.7498   24.4232 O   0  0  0  0  0  0  0  0  0  0  0  0
    9.4830  -15.4459   25.2175 N   0  0  0  0  0  0  0  0  0  0  0  0
   10.3985  -16.4755   25.7204 C   0  0  1  0  0  0  0  0  0  0  0  0
   11.7963  -16.1872   25.2590 C   0  0  0  0  0  0  0  0  0  0  0  0
   12.5439  -17.3846   24.8820 C   0  0  0  0  0  0  0  0  0  0  0  0
   12.5379  -18.4048   25.6428 O   0  0  0  0  0  0  0  0  0  0  0  0
   10.2677  -16.5306   27.1786 C   0  0  0  0  0  0  0  0  0  0  0  0
    9.4307  -15.7471   27.9587 O   0  0  0  0  0  0  0  0  0  0  0  0
   13.2847  -17.4940   23.7201 O   0  0  0  0  0  0  0  0  0  0  0  0
   10.9716  -17.3632   27.8328 O   0  0  0  0  0  0  0  0  0  0  0  0
  2  3  1  0
  2  1  1  6
  4  5  1  0
  4  3  1  0
  6  7  1  0
  6  5  1  0
  8  2  1  0
  9  8  2  0
 10  8  1  0
 11 10  1  0
 12 13  1  0
 11 12  1  1
 13 14  2  0
 14 15  1  0
 16 15  2  0
 17 16  1  0
 18 17  2  0
 18 13  1  0
 19 21  1  0
 19 11  1  0
 20 19  2  0
 22 23  1  1
 22 21  1  0
 23 24  1  0
 24 28  1  0
 24 25  2  0
 26 22  1  0
 26 27  1  0
 29 26  2  0
M  END
$$$$
