KFD.pdb
     RDKit          3D

 29 29  0  0  1  0  0  0  0  0999 V2000
    8.8580  -16.8153   19.0089 N   0  0  0  0  0  0  0  0  0  0  0  0
    8.2764  -17.2954   20.2274 C   0  0  1  0  0  0  0  0  0  0  0  0
    8.7568  -18.6789   20.6099 C   0  0  0  0  0  0  0  0  0  0  0  0
    8.5187  -19.6801   19.5007 C   0  0  0  0  0  0  0  0  0  0  0  0
    9.0762  -21.0134   19.9710 C   0  0  0  0  0  0  0  0  0  0  0  0
    8.9942  -22.0593   18.8958 C   0  0  0  0  0  0  0  0  0  0  0  0
    9.5625  -23.2935   19.3547 N   0  0  0  0  0  0  0  0  0  0  0  0
    8.6393  -16.3957   21.3534 C   0  0  0  0  0  0  0  0  0  0  0  0
    9.8063  -15.9395   21.4158 O   0  0  0  0  0  0  0  0  0  0  0  0
    7.6772  -16.0568   22.3470 N   0  0  0  0  0  0  0  0  0  0  0  0
    8.0189  -15.2318   23.4844 C   0  0  1  0  0  0  0  0  0  0  0  0
    6.8744  -14.4667   24.0468 C   0  0  0  0  0  0  0  0  0  0  0  0
    7.1558  -13.6214   25.2020 C   0  0  0  0  0  0  0  0  0  0  0  0
    6.8896  -14.0502   26.4975 C   0  0  0  0  0  0  0  0  0  0  0  0
    7.1572  -13.2261   27.5802 C   0  0  0  0  0  0  0  0  0  0  0  0
    7.6934  -11.9584   27.4241 C   0  0  0  0  0  0  0  0  0  0  0  0
    7.9540  -11.5404   26.1435 C   0  0  0  0  0  0  0  0  0  0  0  0
    7.6881  -12.3593   25.0692 C   0  0  0  0  0  0  0  0  0  0  0  0
    8.8070  -16.0086   24.4851 C   0  0  0  0  0  0  0  0  0  0  0  0
    8.3758  -17.0667   24.9998 O   0  0  0  0  0  0  0  0  0  0  0  0
   10.0829  -15.5352   24.8678 N   0  0  0  0  0  0  0  0  0  0  0  0
   10.9841  -16.2763   25.7565 C   0  0  1  0  0  0  0  0  0  0  0  0
   12.3644  -15.6933   25.6879 C   0  0  0  0  0  0  0  0  0  0  0  0
   13.3563  -16.4541   26.4443 C   0  0  0  0  0  0  0  0  0  0  0  0
   14.5386  -16.0025   26.5779 O   0  0  0  0  0  0  0  0  0  0  0  0
   10.4123  -16.2590   27.1052 C   0  0  0  0  0  0  0  0  0  0  0  0
   10.5015  -15.2225   28.0222 O   0  0  0  0  0  0  0  0  0  0  0  0
   13.0965  -17.6718   27.0447 O   0  0  0  0  0  0  0  0  0  0  0  0
    9.7634  -17.2721   27.5162 O   0  0  0  0  0  0  0  0  0  0  0  0
  2  3  1  0
  2  1  1  6
  4  5  1  0
  4  3  1  0
  6  7  1  0
  6  5  1  0
  8  2  1  0
  9  8  2  0
 10  8  1  0
 11 10  1  0
 12 13  1  0
 11 12  1  1
 13 14  2  0
 14 15  1  0
 16 15  2  0
 17 16  1  0
 18 17  2  0
 18 13  1  0
 19 21  1  0
 19 11  1  0
 20 19  2  0
 22 23  1  1
 22 21  1  0
 23 24  1  0
 24 28  1  0
 24 25  2  0
 26 22  1  0
 26 27  1  0
 29 26  2  0
M  END
$$$$
