KFD.pdb
     RDKit          3D

 29 29  0  0  1  0  0  0  0  0999 V2000
    9.5218  -16.4469   19.4700 N   0  0  0  0  0  0  0  0  0  0  0  0
    8.5837  -16.5862   20.5443 C   0  0  1  0  0  0  0  0  0  0  0  0
    8.0786  -18.0033   20.7115 C   0  0  0  0  0  0  0  0  0  0  0  0
    7.2018  -18.4249   19.5528 C   0  0  0  0  0  0  0  0  0  0  0  0
    8.0058  -19.4042   18.7135 C   0  0  0  0  0  0  0  0  0  0  0  0
    7.1721  -20.0158   17.6239 C   0  0  0  0  0  0  0  0  0  0  0  0
    7.9356  -20.9874   16.8959 N   0  0  0  0  0  0  0  0  0  0  0  0
    9.2252  -16.2115   21.8316 C   0  0  0  0  0  0  0  0  0  0  0  0
   10.4578  -16.3964   21.9737 O   0  0  0  0  0  0  0  0  0  0  0  0
    8.4523  -15.6513   22.8884 N   0  0  0  0  0  0  0  0  0  0  0  0
    9.0089  -15.4399   24.2062 C   0  0  1  0  0  0  0  0  0  0  0  0
    8.1665  -14.5949   25.0939 C   0  0  0  0  0  0  0  0  0  0  0  0
    8.6845  -14.3313   26.4320 C   0  0  0  0  0  0  0  0  0  0  0  0
    9.2600  -13.1089   26.7601 C   0  0  0  0  0  0  0  0  0  0  0  0
    9.7537  -12.8838   28.0362 C   0  0  0  0  0  0  0  0  0  0  0  0
    9.6975  -13.8502   29.0272 C   0  0  0  0  0  0  0  0  0  0  0  0
    9.1286  -15.0546   28.6978 C   0  0  0  0  0  0  0  0  0  0  0  0
    8.6387  -15.2771   27.4306 C   0  0  0  0  0  0  0  0  0  0  0  0
    9.4550  -16.7307   24.8066 C   0  0  0  0  0  0  0  0  0  0  0  0
    8.7258  -17.7498   24.8182 O   0  0  0  0  0  0  0  0  0  0  0  0
   10.7431  -16.8077   25.3840 N   0  0  0  0  0  0  0  0  0  0  0  0
   11.3034  -18.0429   25.9423 C   0  0  1  0  0  0  0  0  0  0  0  0
   12.4224  -18.5359   25.0737 C   0  0  0  0  0  0  0  0  0  0  0  0
   13.1111  -19.7039   25.6180 C   0  0  0  0  0  0  0  0  0  0  0  0
   12.9000  -20.8564   25.1211 O   0  0  0  0  0  0  0  0  0  0  0  0
   11.7140  -17.7754   27.3229 C   0  0  0  0  0  0  0  0  0  0  0  0
   11.7676  -18.6971   28.3576 O   0  0  0  0  0  0  0  0  0  0  0  0
   14.0048  -19.6476   26.6711 O   0  0  0  0  0  0  0  0  0  0  0  0
   12.0632  -16.5968   27.6482 O   0  0  0  0  0  0  0  0  0  0  0  0
  2  3  1  0
  2  1  1  6
  4  5  1  0
  4  3  1  0
  6  7  1  0
  6  5  1  0
  8  2  1  0
  9  8  2  0
 10  8  1  0
 11 10  1  0
 12 13  1  0
 11 12  1  1
 13 14  2  0
 14 15  1  0
 16 15  2  0
 17 16  1  0
 18 17  2  0
 18 13  1  0
 19 21  1  0
 19 11  1  0
 20 19  2  0
 22 23  1  6
 22 21  1  0
 23 24  1  0
 24 28  1  0
 24 25  2  0
 26 22  1  0
 26 27  1  0
 29 26  2  0
M  END
$$$$
