KFD.pdb
     RDKit          3D

 29 29  0  0  1  0  0  0  0  0999 V2000
    8.3258  -16.8697   20.2222 N   0  0  0  0  0  0  0  0  0  0  0  0
    9.5303  -16.0941   20.2549 C   0  0  1  0  0  0  0  0  0  0  0  0
    9.6075  -15.0698   19.1431 C   0  0  0  0  0  0  0  0  0  0  0  0
    8.5295  -15.2896   18.1044 C   0  0  0  0  0  0  0  0  0  0  0  0
    8.7743  -14.2922   16.9841 C   0  0  0  0  0  0  0  0  0  0  0  0
    7.6819  -14.3358   15.9540 C   0  0  0  0  0  0  0  0  0  0  0  0
    7.8989  -13.3325   14.9524 N   0  0  0  0  0  0  0  0  0  0  0  0
    9.6145  -15.3387   21.5321 C   0  0  0  0  0  0  0  0  0  0  0  0
   10.6041  -14.5947   21.7348 O   0  0  0  0  0  0  0  0  0  0  0  0
    8.5878  -15.4578   22.5116 N   0  0  0  0  0  0  0  0  0  0  0  0
    8.5774  -14.6395   23.7039 C   0  0  1  0  0  0  0  0  0  0  0  0
    7.2261  -14.1649   24.1042 C   0  0  0  0  0  0  0  0  0  0  0  0
    7.1487  -13.3528   25.3136 C   0  0  0  0  0  0  0  0  0  0  0  0
    7.8769  -12.1758   25.4457 C   0  0  0  0  0  0  0  0  0  0  0  0
    7.7945  -11.4242   26.6081 C   0  0  0  0  0  0  0  0  0  0  0  0
    6.9962  -11.8047   27.6743 C   0  0  0  0  0  0  0  0  0  0  0  0
    6.2798  -12.9671   27.5386 C   0  0  0  0  0  0  0  0  0  0  0  0
    6.3622  -13.7125   26.3841 C   0  0  0  0  0  0  0  0  0  0  0  0
    9.3658  -15.2826   24.7951 C   0  0  0  0  0  0  0  0  0  0  0  0
    9.8781  -14.6214   25.7283 O   0  0  0  0  0  0  0  0  0  0  0  0
    9.5432  -16.6850   24.7760 N   0  0  0  0  0  0  0  0  0  0  0  0
   10.2155  -17.4268   25.8478 C   0  0  1  0  0  0  0  0  0  0  0  0
    9.4537  -18.6811   26.1581 C   0  0  0  0  0  0  0  0  0  0  0  0
   10.0955  -19.5172   27.1700 C   0  0  0  0  0  0  0  0  0  0  0  0
   10.3995  -19.0248   28.3034 O   0  0  0  0  0  0  0  0  0  0  0  0
   11.5989  -17.6745   25.4341 C   0  0  0  0  0  0  0  0  0  0  0  0
   12.6456  -18.0631   26.2567 O   0  0  0  0  0  0  0  0  0  0  0  0
   10.4097  -20.8498   26.9792 O   0  0  0  0  0  0  0  0  0  0  0  0
   11.9150  -17.5309   24.2110 O   0  0  0  0  0  0  0  0  0  0  0  0
  2  3  1  0
  2  1  1  1
  4  5  1  0
  4  3  1  0
  6  7  1  0
  6  5  1  0
  8  2  1  0
  9  8  2  0
 10  8  1  0
 11 10  1  0
 12 13  1  0
 11 12  1  1
 13 14  2  0
 14 15  1  0
 16 15  2  0
 17 16  1  0
 18 17  2  0
 18 13  1  0
 19 21  1  0
 19 11  1  0
 20 19  2  0
 22 23  1  6
 22 21  1  0
 23 24  1  0
 24 28  1  0
 24 25  2  0
 26 22  1  0
 26 27  1  0
 29 26  2  0
M  END
$$$$
