KFD.pdb
     RDKit          3D

 29 29  0  0  1  0  0  0  0  0999 V2000
    7.0472  -15.4120   20.2099 N   0  0  0  0  0  0  0  0  0  0  0  0
    8.3237  -14.7609   20.1961 C   0  0  1  0  0  0  0  0  0  0  0  0
    8.2470  -13.3129   19.7615 C   0  0  0  0  0  0  0  0  0  0  0  0
    7.3460  -13.1369   18.5589 C   0  0  0  0  0  0  0  0  0  0  0  0
    7.9997  -13.8661   17.3966 C   0  0  0  0  0  0  0  0  0  0  0  0
    7.1803  -13.7576   16.1423 C   0  0  0  0  0  0  0  0  0  0  0  0
    7.7148  -14.6106   15.1207 N   0  0  0  0  0  0  0  0  0  0  0  0
    8.9101  -14.7618   21.5617 C   0  0  0  0  0  0  0  0  0  0  0  0
   10.1376  -14.5408   21.6969 O   0  0  0  0  0  0  0  0  0  0  0  0
    8.0913  -15.0104   22.7000 N   0  0  0  0  0  0  0  0  0  0  0  0
    8.6385  -15.0330   24.0383 C   0  0  1  0  0  0  0  0  0  0  0  0
    7.7100  -14.5267   25.0838 C   0  0  0  0  0  0  0  0  0  0  0  0
    8.2585  -14.3688   26.4263 C   0  0  0  0  0  0  0  0  0  0  0  0
    8.4368  -15.4589   27.2707 C   0  0  0  0  0  0  0  0  0  0  0  0
    8.9518  -15.2839   28.5463 C   0  0  0  0  0  0  0  0  0  0  0  0
    9.3069  -14.0356   29.0307 C   0  0  0  0  0  0  0  0  0  0  0  0
    9.1288  -12.9634   28.1932 C   0  0  0  0  0  0  0  0  0  0  0  0
    8.6175  -13.1382   26.9270 C   0  0  0  0  0  0  0  0  0  0  0  0
    9.2568  -16.3578   24.3360 C   0  0  0  0  0  0  0  0  0  0  0  0
    8.6519  -17.4372   24.1376 O   0  0  0  0  0  0  0  0  0  0  0  0
   10.5686  -16.3981   24.8615 N   0  0  0  0  0  0  0  0  0  0  0  0
   11.2783  -17.6460   25.1616 C   0  0  1  0  0  0  0  0  0  0  0  0
   12.5683  -17.6977   24.3980 C   0  0  0  0  0  0  0  0  0  0  0  0
   13.3809  -18.8723   24.7060 C   0  0  0  0  0  0  0  0  0  0  0  0
   13.0938  -19.9987   24.1880 O   0  0  0  0  0  0  0  0  0  0  0  0
   11.4584  -17.7317   26.6131 C   0  0  0  0  0  0  0  0  0  0  0  0
   11.7000  -18.8848   27.3445 O   0  0  0  0  0  0  0  0  0  0  0  0
   14.4756  -18.8496   25.5499 O   0  0  0  0  0  0  0  0  0  0  0  0
   11.3946  -16.6696   27.3091 O   0  0  0  0  0  0  0  0  0  0  0  0
  2  3  1  0
  2  1  1  1
  4  5  1  0
  4  3  1  0
  6  7  1  0
  6  5  1  0
  8  2  1  0
  9  8  2  0
 10  8  1  0
 11 10  1  0
 12 13  1  0
 11 12  1  1
 13 14  2  0
 14 15  1  0
 16 15  2  0
 17 16  1  0
 18 17  2  0
 18 13  1  0
 19 21  1  0
 19 11  1  0
 20 19  2  0
 22 23  1  6
 22 21  1  0
 23 24  1  0
 24 28  1  0
 24 25  2  0
 26 22  1  0
 26 27  1  0
 29 26  2  0
M  END
$$$$
