LWE.pdb
     RDKit          3D

 32 33  0  0  1  0  0  0  0  0999 V2000
    8.1369  -13.8772   18.5518 C   0  0  0  0  0  0  0  0  0  0  0  0
    7.3142  -13.4854   19.7769 C   0  0  2  0  0  0  0  0  0  0  0  0
    6.8593  -12.0748   19.6060 C   0  0  0  0  0  0  0  0  0  0  0  0
    8.1536  -13.7052   20.9909 C   0  0  0  0  0  0  0  0  0  0  0  0
    8.5870  -15.1080   21.2382 C   0  0  2  0  0  0  0  0  0  0  0  0
    7.3758  -15.9468   21.1546 N   0  0  0  0  0  0  0  0  0  0  0  0
    9.2581  -15.3274   22.5496 C   0  0  0  0  0  0  0  0  0  0  0  0
   10.2514  -14.6383   22.8829 O   0  0  0  0  0  0  0  0  0  0  0  0
    8.8191  -16.3083   23.4742 N   0  0  0  0  0  0  0  0  0  0  0  0
    9.3575  -16.4685   24.8186 C   0  0  1  0  0  0  0  0  0  0  0  0
    8.2787  -16.5098   25.8432 C   0  0  0  0  0  0  0  0  0  0  0  0
    7.2995  -15.4437   25.8235 C   0  0  0  0  0  0  0  0  0  0  0  0
    5.9565  -15.6223   25.5022 C   0  0  0  0  0  0  0  0  0  0  0  0
    5.2977  -14.4606   25.5785 N   0  0  0  0  0  0  0  0  0  0  0  0
    6.1876  -13.5186   25.9455 C   0  0  0  0  0  0  0  0  0  0  0  0
    6.0125  -12.1681   26.1591 C   0  0  0  0  0  0  0  0  0  0  0  0
    7.0737  -11.3571   26.5362 C   0  0  0  0  0  0  0  0  0  0  0  0
    8.3062  -11.9472   26.6893 C   0  0  0  0  0  0  0  0  0  0  0  0
    8.4689  -13.2956   26.4736 C   0  0  0  0  0  0  0  0  0  0  0  0
    7.4293  -14.1231   26.0983 C   0  0  0  0  0  0  0  0  0  0  0  0
   10.4089  -17.4834   24.8986 C   0  0  0  0  0  0  0  0  0  0  0  0
   10.0476  -18.6989   24.7366 O   0  0  0  0  0  0  0  0  0  0  0  0
   11.7651  -17.2508   25.1272 N   0  0  0  0  0  0  0  0  0  0  0  0
   12.7734  -18.3191   25.3105 C   0  0  1  0  0  0  0  0  0  0  0  0
   14.1041  -17.7867   24.9453 C   0  0  0  0  0  0  0  0  0  0  0  0
   14.1941  -16.9378   23.7476 C   0  0  0  0  0  0  0  0  0  0  0  0
   15.5068  -16.4521   23.3222 C   0  0  0  0  0  0  0  0  0  0  0  0
   16.0556  -15.5105   23.9450 O   0  0  0  0  0  0  0  0  0  0  0  0
   12.6492  -18.7655   26.6832 C   0  0  0  0  0  0  0  0  0  0  0  0
   13.3832  -19.7190   27.1157 O   0  0  0  0  0  0  0  0  0  0  0  0
   16.1812  -17.0024   22.2444 O   0  0  0  0  0  0  0  0  0  0  0  0
   11.7805  -18.2388   27.6346 O   0  0  0  0  0  0  0  0  0  0  0  0
  2  3  1  6
  2  1  1  0
  4  2  1  0
  5  6  1  1
  5  4  1  0
  7  8  2  0
  7  5  1  0
  9  7  1  0
 10  9  1  0
 10 21  1  0
 10 11  1  1
 12 11  1  0
 13 12  2  0
 14 13  1  0
 15 14  1  0
 15 20  2  0
 16 15  1  0
 17 16  2  0
 17 18  1  0
 18 19  2  0
 19 20  1  0
 20 12  1  0
 21 23  1  0
 22 21  2  0
 23 24  1  0
 24 25  1  1
 24 29  1  0
 26 25  1  0
 27 31  1  0
 27 26  1  0
 28 27  2  0
 29 30  2  0
 29 32  1  0
M  END
$$$$
