LWE.pdb
     RDKit          3D

 32 33  0  0  1  0  0  0  0  0999 V2000
    8.5393  -14.2415   18.2309 C   0  0  0  0  0  0  0  0  0  0  0  0
    7.5972  -13.7609   19.3321 C   0  0  2  0  0  0  0  0  0  0  0  0
    7.1742  -12.3662   19.0133 C   0  0  0  0  0  0  0  0  0  0  0  0
    8.3041  -13.8926   20.6396 C   0  0  0  0  0  0  0  0  0  0  0  0
    8.7386  -15.2677   21.0100 C   0  0  2  0  0  0  0  0  0  0  0  0
    7.5408  -16.1261   20.9319 N   0  0  0  0  0  0  0  0  0  0  0  0
    9.3485  -15.3816   22.3639 C   0  0  0  0  0  0  0  0  0  0  0  0
   10.3425  -14.6845   22.6783 O   0  0  0  0  0  0  0  0  0  0  0  0
    8.8483  -16.2670   23.3516 N   0  0  0  0  0  0  0  0  0  0  0  0
    9.3819  -16.3752   24.7031 C   0  0  1  0  0  0  0  0  0  0  0  0
    8.3001  -16.3662   25.7254 C   0  0  0  0  0  0  0  0  0  0  0  0
    7.3404  -15.2837   25.6707 C   0  0  0  0  0  0  0  0  0  0  0  0
    6.0134  -15.4353   25.2775 C   0  0  0  0  0  0  0  0  0  0  0  0
    5.3701  -14.2641   25.3367 N   0  0  0  0  0  0  0  0  0  0  0  0
    6.2545  -13.3423   25.7635 C   0  0  0  0  0  0  0  0  0  0  0  0
    6.0900  -11.9922   25.9877 C   0  0  0  0  0  0  0  0  0  0  0  0
    7.1429  -11.2043   26.4315 C   0  0  0  0  0  0  0  0  0  0  0  0
    8.3561  -11.8171   26.6397 C   0  0  0  0  0  0  0  0  0  0  0  0
    8.5084  -13.1648   26.4126 C   0  0  0  0  0  0  0  0  0  0  0  0
    7.4767  -13.9695   25.9716 C   0  0  0  0  0  0  0  0  0  0  0  0
   10.4255  -17.3936   24.8282 C   0  0  0  0  0  0  0  0  0  0  0  0
   10.1417  -18.5631   24.3967 O   0  0  0  0  0  0  0  0  0  0  0  0
   11.6993  -17.2086   25.3655 N   0  0  0  0  0  0  0  0  0  0  0  0
   12.6949  -18.2905   25.5385 C   0  0  1  0  0  0  0  0  0  0  0  0
   14.0328  -17.7687   25.1844 C   0  0  0  0  0  0  0  0  0  0  0  0
   14.1812  -17.0978   23.8840 C   0  0  0  0  0  0  0  0  0  0  0  0
   15.4762  -16.5147   23.5329 C   0  0  0  0  0  0  0  0  0  0  0  0
   15.8693  -15.4731   24.1127 O   0  0  0  0  0  0  0  0  0  0  0  0
   12.5610  -18.7527   26.9050 C   0  0  0  0  0  0  0  0  0  0  0  0
   11.8119  -18.1193   27.7252 O   0  0  0  0  0  0  0  0  0  0  0  0
   16.3012  -17.0785   22.5734 O   0  0  0  0  0  0  0  0  0  0  0  0
   13.1831  -19.8723   27.4499 O   0  0  0  0  0  0  0  0  0  0  0  0
  2  3  1  6
  2  1  1  0
  4  2  1  0
  5  6  1  1
  5  4  1  0
  7  8  2  0
  7  5  1  0
  9  7  1  0
 10  9  1  0
 10 21  1  0
 10 11  1  1
 12 11  1  0
 13 12  2  0
 14 13  1  0
 15 14  1  0
 15 20  2  0
 16 15  1  0
 17 16  2  0
 17 18  1  0
 18 19  2  0
 19 20  1  0
 20 12  1  0
 21 23  1  0
 22 21  2  0
 23 24  1  0
 24 25  1  1
 24 29  1  0
 26 25  1  0
 27 31  1  0
 27 26  1  0
 28 27  2  0
 29 30  2  0
 29 32  1  0
M  END
$$$$
