LWE.pdb
     RDKit          3D

 32 33  0  0  1  0  0  0  0  0999 V2000
    6.3205  -13.7239   20.5709 C   0  0  0  0  0  0  0  0  0  0  0  0
    7.8065  -13.4641   20.8057 C   0  0  2  0  0  0  0  0  0  0  0  0
    8.1200  -12.0797   20.3462 C   0  0  0  0  0  0  0  0  0  0  0  0
    8.5820  -14.5244   20.0978 C   0  0  0  0  0  0  0  0  0  0  0  0
    8.6717  -15.8389   20.7913 C   0  0  2  0  0  0  0  0  0  0  0  0
    7.2864  -16.2846   21.0359 N   0  0  0  0  0  0  0  0  0  0  0  0
    9.4230  -15.8114   22.0770 C   0  0  0  0  0  0  0  0  0  0  0  0
   10.5628  -15.2924   22.1408 O   0  0  0  0  0  0  0  0  0  0  0  0
    8.9005  -16.3599   23.2753 N   0  0  0  0  0  0  0  0  0  0  0  0
    9.5838  -16.3226   24.5616 C   0  0  1  0  0  0  0  0  0  0  0  0
    8.6233  -16.3666   25.6977 C   0  0  0  0  0  0  0  0  0  0  0  0
    7.5874  -15.3560   25.7342 C   0  0  0  0  0  0  0  0  0  0  0  0
    6.2420  -15.6067   25.4772 C   0  0  0  0  0  0  0  0  0  0  0  0
    5.5251  -14.4836   25.5948 N   0  0  0  0  0  0  0  0  0  0  0  0
    6.3790  -13.4959   25.9256 C   0  0  0  0  0  0  0  0  0  0  0  0
    6.1408  -12.1582   26.1582 C   0  0  0  0  0  0  0  0  0  0  0  0
    7.1731  -11.2919   26.4897 C   0  0  0  0  0  0  0  0  0  0  0  0
    8.4421  -11.8140   26.5779 C   0  0  0  0  0  0  0  0  0  0  0  0
    8.6677  -13.1502   26.3437 C   0  0  0  0  0  0  0  0  0  0  0  0
    7.6579  -14.0318   26.0129 C   0  0  0  0  0  0  0  0  0  0  0  0
   10.7457  -17.2107   24.6202 C   0  0  0  0  0  0  0  0  0  0  0  0
   10.5673  -18.4164   24.2344 O   0  0  0  0  0  0  0  0  0  0  0  0
   12.0274  -16.8661   25.0492 N   0  0  0  0  0  0  0  0  0  0  0  0
   13.1899  -17.7821   25.0182 C   0  0  1  0  0  0  0  0  0  0  0  0
   14.3478  -17.0640   24.4428 C   0  0  0  0  0  0  0  0  0  0  0  0
   15.6574  -17.7317   24.4910 C   0  0  0  0  0  0  0  0  0  0  0  0
   16.8300  -17.0268   23.9733 C   0  0  0  0  0  0  0  0  0  0  0  0
   16.7065  -15.8667   23.5101 O   0  0  0  0  0  0  0  0  0  0  0  0
   13.3750  -18.2516   26.3762 C   0  0  0  0  0  0  0  0  0  0  0  0
   12.8016  -17.6478   27.3467 O   0  0  0  0  0  0  0  0  0  0  0  0
   18.0928  -17.5966   23.9783 O   0  0  0  0  0  0  0  0  0  0  0  0
   14.1408  -19.3484   26.7606 O   0  0  0  0  0  0  0  0  0  0  0  0
  2  3  1  6
  2  1  1  0
  4  2  1  0
  5  6  1  1
  5  4  1  0
  7  8  2  0
  7  5  1  0
  9  7  1  0
 10  9  1  0
 10 21  1  0
 10 11  1  1
 12 11  1  0
 13 12  2  0
 14 13  1  0
 15 14  1  0
 15 20  2  0
 16 15  1  0
 17 16  2  0
 17 18  1  0
 18 19  2  0
 19 20  1  0
 20 12  1  0
 21 23  1  0
 22 21  2  0
 23 24  1  0
 24 25  1  1
 24 29  1  0
 26 25  1  0
 27 31  1  0
 27 26  1  0
 28 27  2  0
 29 30  2  0
 29 32  1  0
M  END
$$$$
