LWE.pdb
     RDKit          3D

 32 33  0  0  1  0  0  0  0  0999 V2000
    8.3763  -14.6249   18.4961 C   0  0  0  0  0  0  0  0  0  0  0  0
    7.6006  -14.0992   19.7016 C   0  0  2  0  0  0  0  0  0  0  0  0
    7.0087  -12.7783   19.3400 C   0  0  0  0  0  0  0  0  0  0  0  0
    8.5319  -14.0440   20.8662 C   0  0  0  0  0  0  0  0  0  0  0  0
    9.0446  -15.3543   21.3534 C   0  0  2  0  0  0  0  0  0  0  0  0
    7.8870  -16.2676   21.4105 N   0  0  0  0  0  0  0  0  0  0  0  0
    9.7084  -15.3037   22.6856 C   0  0  0  0  0  0  0  0  0  0  0  0
   10.6993  -14.5598   22.8786 O   0  0  0  0  0  0  0  0  0  0  0  0
    9.2647  -16.0788   23.7866 N   0  0  0  0  0  0  0  0  0  0  0  0
    9.9173  -16.1040   25.0890 C   0  0  1  0  0  0  0  0  0  0  0  0
    8.9284  -16.1062   26.2013 C   0  0  0  0  0  0  0  0  0  0  0  0
    7.8062  -15.1975   26.0973 C   0  0  0  0  0  0  0  0  0  0  0  0
    6.5168  -15.5858   25.7428 C   0  0  0  0  0  0  0  0  0  0  0  0
    5.6938  -14.5314   25.7400 N   0  0  0  0  0  0  0  0  0  0  0  0
    6.4225  -13.4534   26.0876 C   0  0  0  0  0  0  0  0  0  0  0  0
    6.0448  -12.1351   26.2277 C   0  0  0  0  0  0  0  0  0  0  0  0
    6.9615  -11.1608   26.5972 C   0  0  0  0  0  0  0  0  0  0  0  0
    8.2598  -11.5559   26.8188 C   0  0  0  0  0  0  0  0  0  0  0  0
    8.6250  -12.8740   26.6760 C   0  0  0  0  0  0  0  0  0  0  0  0
    7.7319  -13.8613   26.3097 C   0  0  0  0  0  0  0  0  0  0  0  0
   11.0206  -17.0630   25.1597 C   0  0  0  0  0  0  0  0  0  0  0  0
   11.5758  -17.2169   26.3010 O   0  0  0  0  0  0  0  0  0  0  0  0
   11.5180  -17.8284   24.1051 N   0  0  0  0  0  0  0  0  0  0  0  0
   12.5727  -18.8573   24.2484 C   0  0  1  0  0  0  0  0  0  0  0  0
   12.0187  -20.1677   23.8438 C   0  0  0  0  0  0  0  0  0  0  0  0
   11.8081  -21.1736   24.8959 C   0  0  0  0  0  0  0  0  0  0  0  0
   10.5802  -21.9686   24.8785 C   0  0  0  0  0  0  0  0  0  0  0  0
   10.5557  -23.0657   24.2689 O   0  0  0  0  0  0  0  0  0  0  0  0
   13.6984  -18.3996   23.4596 C   0  0  0  0  0  0  0  0  0  0  0  0
   13.5268  -17.5179   22.5496 O   0  0  0  0  0  0  0  0  0  0  0  0
    9.4258  -21.5540   25.5225 O   0  0  0  0  0  0  0  0  0  0  0  0
   15.0152  -18.8296   23.5951 O   0  0  0  0  0  0  0  0  0  0  0  0
  2  3  1  6
  2  1  1  0
  4  2  1  0
  5  6  1  1
  5  4  1  0
  7  8  2  0
  7  5  1  0
  9  7  1  0
 10  9  1  0
 10 21  1  0
 10 11  1  1
 12 11  1  0
 13 12  2  0
 14 13  1  0
 15 14  1  0
 15 20  2  0
 16 15  1  0
 17 16  2  0
 17 18  1  0
 18 19  2  0
 19 20  1  0
 20 12  1  0
 21 23  1  0
 22 21  2  0
 23 24  1  0
 24 25  1  6
 24 29  1  0
 26 25  1  0
 27 31  1  0
 27 26  1  0
 28 27  2  0
 29 30  2  0
 29 32  1  0
M  END
$$$$
