LWE.pdb
     RDKit          3D

 32 33  0  0  1  0  0  0  0  0999 V2000
    6.4858  -14.1760   19.3135 C   0  0  0  0  0  0  0  0  0  0  0  0
    7.8396  -13.4853   19.1680 C   0  0  2  0  0  0  0  0  0  0  0  0
    7.6621  -12.2794   18.3076 C   0  0  0  0  0  0  0  0  0  0  0  0
    8.8119  -14.4772   18.6224 C   0  0  0  0  0  0  0  0  0  0  0  0
    9.0245  -15.7009   19.4437 C   0  0  2  0  0  0  0  0  0  0  0  0
    7.8181  -16.5351   19.2815 N   0  0  0  0  0  0  0  0  0  0  0  0
    9.2634  -15.4425   20.8909 C   0  0  0  0  0  0  0  0  0  0  0  0
   10.3476  -14.9483   21.2818 O   0  0  0  0  0  0  0  0  0  0  0  0
    8.2968  -15.7354   21.8857 N   0  0  0  0  0  0  0  0  0  0  0  0
    8.5141  -15.5665   23.3164 C   0  0  1  0  0  0  0  0  0  0  0  0
    7.2295  -15.4596   24.0604 C   0  0  0  0  0  0  0  0  0  0  0  0
    7.2992  -15.1156   25.4649 C   0  0  0  0  0  0  0  0  0  0  0  0
    7.5125  -16.0384   26.4856 C   0  0  0  0  0  0  0  0  0  0  0  0
    7.5365  -15.4256   27.6743 N   0  0  0  0  0  0  0  0  0  0  0  0
    7.3419  -14.1116   27.4516 C   0  0  0  0  0  0  0  0  0  0  0  0
    7.2794  -13.0608   28.3416 C   0  0  0  0  0  0  0  0  0  0  0  0
    7.0656  -11.7611   27.9045 C   0  0  0  0  0  0  0  0  0  0  0  0
    6.9180  -11.5576   26.5526 C   0  0  0  0  0  0  0  0  0  0  0  0
    6.9823  -12.6136   25.6741 C   0  0  0  0  0  0  0  0  0  0  0  0
    7.1942  -13.9149   26.0842 C   0  0  0  0  0  0  0  0  0  0  0  0
    9.5358  -16.4672   23.8521 C   0  0  0  0  0  0  0  0  0  0  0  0
    9.4630  -17.6936   23.4985 O   0  0  0  0  0  0  0  0  0  0  0  0
   10.5827  -16.1146   24.7037 N   0  0  0  0  0  0  0  0  0  0  0  0
   11.7785  -16.9535   24.9442 C   0  0  1  0  0  0  0  0  0  0  0  0
   12.9614  -16.2723   24.3748 C   0  0  0  0  0  0  0  0  0  0  0  0
   14.2563  -16.9638   24.4652 C   0  0  0  0  0  0  0  0  0  0  0  0
   15.3571  -16.5181   23.6110 C   0  0  0  0  0  0  0  0  0  0  0  0
   16.5420  -16.6328   24.0095 O   0  0  0  0  0  0  0  0  0  0  0  0
   11.8344  -17.1831   26.3735 C   0  0  0  0  0  0  0  0  0  0  0  0
   12.6735  -18.0188   26.8559 O   0  0  0  0  0  0  0  0  0  0  0  0
   15.1404  -15.9697   22.3574 O   0  0  0  0  0  0  0  0  0  0  0  0
   11.0406  -16.5565   27.3300 O   0  0  0  0  0  0  0  0  0  0  0  0
  2  3  1  6
  2  1  1  0
  4  2  1  0
  5  6  1  1
  5  4  1  0
  7  8  2  0
  7  5  1  0
  9  7  1  0
 10  9  1  0
 10 21  1  0
 10 11  1  1
 12 11  1  0
 13 12  2  0
 14 13  1  0
 15 14  1  0
 15 20  2  0
 16 15  1  0
 17 16  2  0
 17 18  1  0
 18 19  2  0
 19 20  1  0
 20 12  1  0
 21 23  1  0
 22 21  2  0
 23 24  1  0
 24 25  1  1
 24 29  1  0
 26 25  1  0
 27 31  1  0
 27 26  1  0
 28 27  2  0
 29 30  2  0
 29 32  1  0
M  END
$$$$
