LWE.pdb
     RDKit          3D

 32 33  0  0  1  0  0  0  0  0999 V2000
    8.3769  -13.9136   18.3633 C   0  0  0  0  0  0  0  0  0  0  0  0
    7.4592  -13.5586   19.5308 C   0  0  2  0  0  0  0  0  0  0  0  0
    6.8995  -12.1964   19.2914 C   0  0  0  0  0  0  0  0  0  0  0  0
    8.2465  -13.6735   20.7932 C   0  0  0  0  0  0  0  0  0  0  0  0
    8.7848  -15.0264   21.1046 C   0  0  2  0  0  0  0  0  0  0  0  0
    7.6328  -15.9484   21.1171 N   0  0  0  0  0  0  0  0  0  0  0  0
    9.5151  -15.1201   22.3992 C   0  0  0  0  0  0  0  0  0  0  0  0
   10.5357  -14.4225   22.6098 O   0  0  0  0  0  0  0  0  0  0  0  0
    9.1041  -15.9863   23.4435 N   0  0  0  0  0  0  0  0  0  0  0  0
    9.7952  -16.1199   24.7191 C   0  0  1  0  0  0  0  0  0  0  0  0
    8.8425  -16.3301   25.8431 C   0  0  0  0  0  0  0  0  0  0  0  0
    7.7155  -15.4264   25.9394 C   0  0  0  0  0  0  0  0  0  0  0  0
    6.3898  -15.8080   25.7503 C   0  0  0  0  0  0  0  0  0  0  0  0
    5.5731  -14.7610   25.9118 N   0  0  0  0  0  0  0  0  0  0  0  0
    6.3417  -13.6946   26.2047 C   0  0  0  0  0  0  0  0  0  0  0  0
    5.9856  -12.3872   26.4579 C   0  0  0  0  0  0  0  0  0  0  0  0
    6.9436  -11.4239   26.7415 C   0  0  0  0  0  0  0  0  0  0  0  0
    8.2606  -11.8187   26.7611 C   0  0  0  0  0  0  0  0  0  0  0  0
    8.6040  -13.1258   26.5069 C   0  0  0  0  0  0  0  0  0  0  0  0
    7.6699  -14.1020   26.2227 C   0  0  0  0  0  0  0  0  0  0  0  0
   10.9657  -16.9958   24.6488 C   0  0  0  0  0  0  0  0  0  0  0  0
   11.5238  -17.2991   25.7582 O   0  0  0  0  0  0  0  0  0  0  0  0
   11.5245  -17.5354   23.4903 N   0  0  0  0  0  0  0  0  0  0  0  0
   12.7101  -18.4217   23.4729 C   0  0  1  0  0  0  0  0  0  0  0  0
   13.1048  -18.6629   22.0681 C   0  0  0  0  0  0  0  0  0  0  0  0
   14.3272  -19.4446   21.8274 C   0  0  0  0  0  0  0  0  0  0  0  0
   14.7302  -19.7202   20.4484 C   0  0  0  0  0  0  0  0  0  0  0  0
   15.7310  -20.4439   20.2236 O   0  0  0  0  0  0  0  0  0  0  0  0
   13.7165  -17.7722   24.2878 C   0  0  0  0  0  0  0  0  0  0  0  0
   13.8354  -16.4993   24.2654 O   0  0  0  0  0  0  0  0  0  0  0  0
   14.0370  -19.2097   19.3630 O   0  0  0  0  0  0  0  0  0  0  0  0
   14.6089  -18.4127   25.1427 O   0  0  0  0  0  0  0  0  0  0  0  0
  2  3  1  6
  2  1  1  0
  4  2  1  0
  5  6  1  1
  5  4  1  0
  7  8  2  0
  7  5  1  0
  9  7  1  0
 10  9  1  0
 10 21  1  0
 10 11  1  1
 12 11  1  0
 13 12  2  0
 14 13  1  0
 15 14  1  0
 15 20  2  0
 16 15  1  0
 17 16  2  0
 17 18  1  0
 18 19  2  0
 19 20  1  0
 20 12  1  0
 21 23  1  0
 22 21  2  0
 23 24  1  0
 24 25  1  6
 24 29  1  0
 26 25  1  0
 27 31  1  0
 27 26  1  0
 28 27  2  0
 29 30  2  0
 29 32  1  0
M  END
$$$$
