LWE.pdb
     RDKit          3D

 32 33  0  0  1  0  0  0  0  0999 V2000
    7.3679  -13.9628   17.0507 C   0  0  0  0  0  0  0  0  0  0  0  0
    7.7319  -13.6287   18.4953 C   0  0  2  0  0  0  0  0  0  0  0  0
    7.4564  -12.1807   18.7266 C   0  0  0  0  0  0  0  0  0  0  0  0
    9.1562  -14.0143   18.7174 C   0  0  0  0  0  0  0  0  0  0  0  0
    9.3791  -15.3084   19.4194 C   0  0  2  0  0  0  0  0  0  0  0  0
    8.2349  -16.1767   19.0811 N   0  0  0  0  0  0  0  0  0  0  0  0
    9.5028  -15.1975   20.8994 C   0  0  0  0  0  0  0  0  0  0  0  0
   10.4874  -14.6188   21.4174 O   0  0  0  0  0  0  0  0  0  0  0  0
    8.5330  -15.7300   21.7859 N   0  0  0  0  0  0  0  0  0  0  0  0
    8.5468  -15.5367   23.2300 C   0  0  1  0  0  0  0  0  0  0  0  0
    7.1738  -15.3553   23.7751 C   0  0  0  0  0  0  0  0  0  0  0  0
    7.0542  -14.9710   25.1657 C   0  0  0  0  0  0  0  0  0  0  0  0
    6.8560  -15.8699   26.2105 C   0  0  0  0  0  0  0  0  0  0  0  0
    6.7944  -15.2234   27.3798 N   0  0  0  0  0  0  0  0  0  0  0  0
    6.9491  -13.9108   27.1207 C   0  0  0  0  0  0  0  0  0  0  0  0
    6.9606  -12.8325   27.9793 C   0  0  0  0  0  0  0  0  0  0  0  0
    7.1341  -11.5394   27.5061 C   0  0  0  0  0  0  0  0  0  0  0  0
    7.2939  -11.3709   26.1508 C   0  0  0  0  0  0  0  0  0  0  0  0
    7.2807  -12.4542   25.3038 C   0  0  0  0  0  0  0  0  0  0  0  0
    7.1102  -13.7496   25.7501 C   0  0  0  0  0  0  0  0  0  0  0  0
    9.4356  -16.4687   23.9253 C   0  0  0  0  0  0  0  0  0  0  0  0
    9.2882  -17.7103   23.6589 O   0  0  0  0  0  0  0  0  0  0  0  0
   10.4302  -16.1317   24.8433 N   0  0  0  0  0  0  0  0  0  0  0  0
   11.3466  -17.1085   25.4738 C   0  0  1  0  0  0  0  0  0  0  0  0
   12.7408  -16.7203   25.1687 C   0  0  0  0  0  0  0  0  0  0  0  0
   13.1988  -16.8586   23.7779 C   0  0  0  0  0  0  0  0  0  0  0  0
   14.5847  -16.5210   23.4530 C   0  0  0  0  0  0  0  0  0  0  0  0
   15.3835  -16.2127   24.3709 O   0  0  0  0  0  0  0  0  0  0  0  0
   11.0124  -17.1300   26.8832 C   0  0  0  0  0  0  0  0  0  0  0  0
   11.6508  -17.8983   27.6815 O   0  0  0  0  0  0  0  0  0  0  0  0
   15.0592  -16.5327   22.1515 O   0  0  0  0  0  0  0  0  0  0  0  0
   10.0281  -16.3613   27.4979 O   0  0  0  0  0  0  0  0  0  0  0  0
  2  3  1  6
  2  1  1  0
  4  2  1  0
  5  6  1  1
  5  4  1  0
  7  8  2  0
  7  5  1  0
  9  7  1  0
 10  9  1  0
 10 21  1  0
 10 11  1  1
 12 11  1  0
 13 12  2  0
 14 13  1  0
 15 14  1  0
 15 20  2  0
 16 15  1  0
 17 16  2  0
 17 18  1  0
 18 19  2  0
 19 20  1  0
 20 12  1  0
 21 23  1  0
 22 21  2  0
 23 24  1  0
 24 25  1  1
 24 29  1  0
 26 25  1  0
 27 31  1  0
 27 26  1  0
 28 27  2  0
 29 30  2  0
 29 32  1  0
M  END
$$$$
