LWE.pdb
     RDKit          3D

 32 33  0  0  1  0  0  0  0  0999 V2000
    8.3351  -13.9612   18.3882 C   0  0  0  0  0  0  0  0  0  0  0  0
    7.5887  -13.4143   19.6026 C   0  0  2  0  0  0  0  0  0  0  0  0
    7.3668  -11.9531   19.3993 C   0  0  0  0  0  0  0  0  0  0  0  0
    8.3839  -13.7392   20.8228 C   0  0  0  0  0  0  0  0  0  0  0  0
    8.6411  -15.1853   21.0671 C   0  0  2  0  0  0  0  0  0  0  0  0
    7.3347  -15.8671   20.9901 N   0  0  0  0  0  0  0  0  0  0  0  0
    9.2872  -15.4879   22.3745 C   0  0  0  0  0  0  0  0  0  0  0  0
   10.3640  -14.9332   22.6993 O   0  0  0  0  0  0  0  0  0  0  0  0
    8.7308  -16.4016   23.3046 N   0  0  0  0  0  0  0  0  0  0  0  0
    9.2942  -16.6803   24.6191 C   0  0  1  0  0  0  0  0  0  0  0  0
    8.2505  -16.6686   25.6802 C   0  0  0  0  0  0  0  0  0  0  0  0
    7.4122  -15.4924   25.7776 C   0  0  0  0  0  0  0  0  0  0  0  0
    6.0518  -15.4759   25.4813 C   0  0  0  0  0  0  0  0  0  0  0  0
    5.5450  -14.2530   25.6730 N   0  0  0  0  0  0  0  0  0  0  0  0
    6.5522  -13.4629   26.0914 C   0  0  0  0  0  0  0  0  0  0  0  0
    6.5513  -12.1245   26.4217 C   0  0  0  0  0  0  0  0  0  0  0  0
    7.7123  -11.4858   26.8343 C   0  0  0  0  0  0  0  0  0  0  0  0
    8.8639  -12.2342   26.9022 C   0  0  0  0  0  0  0  0  0  0  0  0
    8.8528  -13.5686   26.5703 C   0  0  0  0  0  0  0  0  0  0  0  0
    7.7111  -14.2264   26.1575 C   0  0  0  0  0  0  0  0  0  0  0  0
   10.2428  -17.7948   24.6123 C   0  0  0  0  0  0  0  0  0  0  0  0
    9.9520  -18.7923   23.8675 O   0  0  0  0  0  0  0  0  0  0  0  0
   11.4343  -17.8691   25.3338 N   0  0  0  0  0  0  0  0  0  0  0  0
   12.3287  -19.0487   25.3444 C   0  0  1  0  0  0  0  0  0  0  0  0
   13.6500  -18.6503   24.8126 C   0  0  0  0  0  0  0  0  0  0  0  0
   13.7394  -18.3245   23.3812 C   0  0  0  0  0  0  0  0  0  0  0  0
   15.0064  -17.8241   22.8477 C   0  0  0  0  0  0  0  0  0  0  0  0
   15.9956  -18.5924   22.7653 O   0  0  0  0  0  0  0  0  0  0  0  0
   12.3407  -19.5387   26.7077 C   0  0  0  0  0  0  0  0  0  0  0  0
   11.7515  -18.8789   27.6309 O   0  0  0  0  0  0  0  0  0  0  0  0
   15.1587  -16.5157   22.4185 O   0  0  0  0  0  0  0  0  0  0  0  0
   12.9471  -20.7128   27.1450 O   0  0  0  0  0  0  0  0  0  0  0  0
  2  3  1  6
  2  1  1  0
  4  2  1  0
  5  6  1  1
  5  4  1  0
  7  8  2  0
  7  5  1  0
  9  7  1  0
 10  9  1  0
 10 21  1  0
 10 11  1  1
 12 11  1  0
 13 12  2  0
 14 13  1  0
 15 14  1  0
 15 20  2  0
 16 15  1  0
 17 16  2  0
 17 18  1  0
 18 19  2  0
 19 20  1  0
 20 12  1  0
 21 23  1  0
 22 21  2  0
 23 24  1  0
 24 25  1  1
 24 29  1  0
 26 25  1  0
 27 31  1  0
 27 26  1  0
 28 27  2  0
 29 30  2  0
 29 32  1  0
M  END
$$$$
