LWE.pdb
     RDKit          3D

 32 33  0  0  1  0  0  0  0  0999 V2000
    7.1038  -13.5397   17.6259 C   0  0  0  0  0  0  0  0  0  0  0  0
    8.0375  -13.4626   18.8314 C   0  0  2  0  0  0  0  0  0  0  0  0
    8.3765  -12.0298   19.0725 C   0  0  0  0  0  0  0  0  0  0  0  0
    9.2241  -14.3249   18.5569 C   0  0  0  0  0  0  0  0  0  0  0  0
    9.5035  -15.3878   19.5614 C   0  0  2  0  0  0  0  0  0  0  0  0
    8.7108  -16.5669   19.1626 N   0  0  0  0  0  0  0  0  0  0  0  0
    9.1750  -15.0156   20.9656 C   0  0  0  0  0  0  0  0  0  0  0  0
    8.5890  -13.9366   21.2208 O   0  0  0  0  0  0  0  0  0  0  0  0
    9.5007  -15.8446   22.0684 N   0  0  0  0  0  0  0  0  0  0  0  0
    9.1101  -15.5705   23.4451 C   0  0  1  0  0  0  0  0  0  0  0  0
    7.6804  -15.1685   23.5430 C   0  0  0  0  0  0  0  0  0  0  0  0
    7.1708  -14.8324   24.8557 C   0  0  0  0  0  0  0  0  0  0  0  0
    6.4740  -15.7181   25.6735 C   0  0  0  0  0  0  0  0  0  0  0  0
    6.1398  -15.1277   26.8263 N   0  0  0  0  0  0  0  0  0  0  0  0
    6.6064  -13.8651   26.7799 C   0  0  0  0  0  0  0  0  0  0  0  0
    6.5223  -12.8535   27.7125 C   0  0  0  0  0  0  0  0  0  0  0  0
    7.0749  -11.6040   27.4687 C   0  0  0  0  0  0  0  0  0  0  0  0
    7.7093  -11.4098   26.2642 C   0  0  0  0  0  0  0  0  0  0  0  0
    7.7871  -12.4265   25.3415 C   0  0  0  0  0  0  0  0  0  0  0  0
    7.2458  -13.6776   25.5608 C   0  0  0  0  0  0  0  0  0  0  0  0
    9.5992  -16.5743   24.3912 C   0  0  0  0  0  0  0  0  0  0  0  0
    9.2525  -17.7855   24.1741 O   0  0  0  0  0  0  0  0  0  0  0  0
   10.4112  -16.3370   25.5002 N   0  0  0  0  0  0  0  0  0  0  0  0
   11.4795  -17.2525   25.9607 C   0  0  1  0  0  0  0  0  0  0  0  0
   12.7911  -16.6853   25.5789 C   0  0  0  0  0  0  0  0  0  0  0  0
   13.7304  -17.5609   24.8619 C   0  0  0  0  0  0  0  0  0  0  0  0
   14.7858  -16.9530   24.0516 C   0  0  0  0  0  0  0  0  0  0  0  0
   15.5365  -17.6807   23.3569 O   0  0  0  0  0  0  0  0  0  0  0  0
   11.2804  -17.4273   27.3850 C   0  0  0  0  0  0  0  0  0  0  0  0
   12.0911  -18.1486   28.0615 O   0  0  0  0  0  0  0  0  0  0  0  0
   14.9899  -15.5832   24.0166 O   0  0  0  0  0  0  0  0  0  0  0  0
   10.2564  -16.8614   28.1390 O   0  0  0  0  0  0  0  0  0  0  0  0
  2  3  1  6
  2  1  1  0
  4  2  1  0
  5  6  1  6
  5  4  1  0
  7  8  2  0
  7  5  1  0
  9  7  1  0
 10  9  1  0
 10 21  1  0
 10 11  1  6
 12 11  1  0
 13 12  2  0
 14 13  1  0
 15 14  1  0
 15 20  2  0
 16 15  1  0
 17 16  2  0
 17 18  1  0
 18 19  2  0
 19 20  1  0
 20 12  1  0
 21 23  1  0
 22 21  2  0
 23 24  1  0
 24 25  1  1
 24 29  1  0
 26 25  1  0
 27 31  1  0
 27 26  1  0
 28 27  2  0
 29 30  2  0
 29 32  1  0
M  END
$$$$
