LWE.pdb
     RDKit          3D

 32 33  0  0  1  0  0  0  0  0999 V2000
    7.8116  -13.4740   18.0727 C   0  0  0  0  0  0  0  0  0  0  0  0
    7.3548  -13.6906   19.5134 C   0  0  2  0  0  0  0  0  0  0  0  0
    6.7995  -12.4053   20.0287 C   0  0  0  0  0  0  0  0  0  0  0  0
    8.5162  -14.2032   20.2978 C   0  0  0  0  0  0  0  0  0  0  0  0
    8.2431  -15.3731   21.1773 C   0  0  2  0  0  0  0  0  0  0  0  0
    6.7824  -15.4180   21.3817 N   0  0  0  0  0  0  0  0  0  0  0  0
    8.9321  -15.3308   22.4970 C   0  0  0  0  0  0  0  0  0  0  0  0
    9.6553  -14.3552   22.8099 O   0  0  0  0  0  0  0  0  0  0  0  0
    8.8101  -16.3708   23.4526 N   0  0  0  0  0  0  0  0  0  0  0  0
    9.5858  -16.4499   24.6834 C   0  0  1  0  0  0  0  0  0  0  0  0
    8.7121  -16.4283   25.8882 C   0  0  0  0  0  0  0  0  0  0  0  0
    7.6998  -15.3957   25.9590 C   0  0  0  0  0  0  0  0  0  0  0  0
    6.3413  -15.6178   25.7492 C   0  0  0  0  0  0  0  0  0  0  0  0
    5.6531  -14.4795   25.8897 N   0  0  0  0  0  0  0  0  0  0  0  0
    6.5387  -13.5100   26.1891 C   0  0  0  0  0  0  0  0  0  0  0  0
    6.3373  -12.1674   26.4276 C   0  0  0  0  0  0  0  0  0  0  0  0
    7.3988  -11.3230   26.7217 C   0  0  0  0  0  0  0  0  0  0  0  0
    8.6587  -11.8721   26.7667 C   0  0  0  0  0  0  0  0  0  0  0  0
    8.8475  -13.2130   26.5271 C   0  0  0  0  0  0  0  0  0  0  0  0
    7.8082  -14.0730   26.2329 C   0  0  0  0  0  0  0  0  0  0  0  0
   10.6445  -17.4590   24.6308 C   0  0  0  0  0  0  0  0  0  0  0  0
   10.2761  -18.6691   24.4450 O   0  0  0  0  0  0  0  0  0  0  0  0
   12.0140  -17.2262   24.7567 N   0  0  0  0  0  0  0  0  0  0  0  0
   13.0521  -18.2730   24.6223 C   0  0  1  0  0  0  0  0  0  0  0  0
   14.1323  -17.7643   23.7495 C   0  0  0  0  0  0  0  0  0  0  0  0
   15.4736  -17.6225   24.3359 C   0  0  0  0  0  0  0  0  0  0  0  0
   16.4339  -16.7236   23.6956 C   0  0  0  0  0  0  0  0  0  0  0  0
   17.2529  -16.0824   24.3984 O   0  0  0  0  0  0  0  0  0  0  0  0
   13.4637  -18.6139   25.9689 C   0  0  0  0  0  0  0  0  0  0  0  0
   14.2213  -19.6239   26.1710 O   0  0  0  0  0  0  0  0  0  0  0  0
   16.4789  -16.5528   22.3216 O   0  0  0  0  0  0  0  0  0  0  0  0
   13.1143  -17.9234   27.1259 O   0  0  0  0  0  0  0  0  0  0  0  0
  2  3  1  1
  2  1  1  0
  4  2  1  0
  5  6  1  1
  5  4  1  0
  7  8  2  0
  7  5  1  0
  9  7  1  0
 10  9  1  0
 10 21  1  0
 10 11  1  1
 12 11  1  0
 13 12  2  0
 14 13  1  0
 15 14  1  0
 15 20  2  0
 16 15  1  0
 17 16  2  0
 17 18  1  0
 18 19  2  0
 19 20  1  0
 20 12  1  0
 21 23  1  0
 22 21  2  0
 23 24  1  0
 24 25  1  6
 24 29  1  0
 26 25  1  0
 27 31  1  0
 27 26  1  0
 28 27  2  0
 29 30  2  0
 29 32  1  0
M  END
$$$$
