LWE.pdb
     RDKit          3D

 32 33  0  0  1  0  0  0  0  0999 V2000
    8.2509  -13.7343   18.6632 C   0  0  0  0  0  0  0  0  0  0  0  0
    7.7192  -13.6196   20.0898 C   0  0  2  0  0  0  0  0  0  0  0  0
    7.0227  -12.3074   20.2278 C   0  0  0  0  0  0  0  0  0  0  0  0
    8.8653  -13.7954   21.0292 C   0  0  0  0  0  0  0  0  0  0  0  0
    9.2029  -15.2001   21.3895 C   0  0  2  0  0  0  0  0  0  0  0  0
    7.9693  -15.9908   21.2145 N   0  0  0  0  0  0  0  0  0  0  0  0
    9.7189  -15.3778   22.7753 C   0  0  0  0  0  0  0  0  0  0  0  0
   10.6822  -14.6915   23.1919 O   0  0  0  0  0  0  0  0  0  0  0  0
    9.1599  -16.3142   23.6810 N   0  0  0  0  0  0  0  0  0  0  0  0
    9.6367  -16.5259   25.0414 C   0  0  1  0  0  0  0  0  0  0  0  0
    8.5147  -16.5707   26.0183 C   0  0  0  0  0  0  0  0  0  0  0  0
    7.5399  -15.5018   25.9631 C   0  0  0  0  0  0  0  0  0  0  0  0
    6.2223  -15.6669   25.5442 C   0  0  0  0  0  0  0  0  0  0  0  0
    5.5605  -14.5063   25.6099 N   0  0  0  0  0  0  0  0  0  0  0  0
    6.4234  -13.5783   26.0661 C   0  0  0  0  0  0  0  0  0  0  0  0
    6.2347  -12.2344   26.3078 C   0  0  0  0  0  0  0  0  0  0  0  0
    7.2677  -11.4380   26.7820 C   0  0  0  0  0  0  0  0  0  0  0  0
    8.4863  -12.0358   27.0022 C   0  0  0  0  0  0  0  0  0  0  0  0
    8.6628  -13.3775   26.7575 C   0  0  0  0  0  0  0  0  0  0  0  0
    7.6511  -14.1905   26.2862 C   0  0  0  0  0  0  0  0  0  0  0  0
   10.6603  -17.5678   25.1352 C   0  0  0  0  0  0  0  0  0  0  0  0
   10.9956  -17.9395   26.3115 O   0  0  0  0  0  0  0  0  0  0  0  0
   11.2981  -18.1971   24.0662 N   0  0  0  0  0  0  0  0  0  0  0  0
   12.2822  -19.2933   24.2126 C   0  0  1  0  0  0  0  0  0  0  0  0
   12.5427  -19.8816   22.8808 C   0  0  0  0  0  0  0  0  0  0  0  0
   13.2617  -19.0557   21.8989 C   0  0  0  0  0  0  0  0  0  0  0  0
   13.5558  -19.6191   20.5812 C   0  0  0  0  0  0  0  0  0  0  0  0
   13.2009  -20.7925   20.3110 O   0  0  0  0  0  0  0  0  0  0  0  0
   13.4409  -18.7164   24.8633 C   0  0  0  0  0  0  0  0  0  0  0  0
   13.6259  -17.4514   24.8391 O   0  0  0  0  0  0  0  0  0  0  0  0
   14.2171  -18.8955   19.6024 O   0  0  0  0  0  0  0  0  0  0  0  0
   14.4214  -19.4222   25.5547 O   0  0  0  0  0  0  0  0  0  0  0  0
  2  3  1  6
  2  1  1  0
  4  2  1  0
  5  6  1  1
  5  4  1  0
  7  8  2  0
  7  5  1  0
  9  7  1  0
 10  9  1  0
 10 21  1  0
 10 11  1  1
 12 11  1  0
 13 12  2  0
 14 13  1  0
 15 14  1  0
 15 20  2  0
 16 15  1  0
 17 16  2  0
 17 18  1  0
 18 19  2  0
 19 20  1  0
 20 12  1  0
 21 23  1  0
 22 21  2  0
 23 24  1  0
 24 25  1  6
 24 29  1  0
 26 25  1  0
 27 31  1  0
 27 26  1  0
 28 27  2  0
 29 30  2  0
 29 32  1  0
M  END
$$$$
