LWE.pdb
     RDKit          3D

 32 33  0  0  1  0  0  0  0  0999 V2000
    7.0733  -14.4283   17.6400 C   0  0  0  0  0  0  0  0  0  0  0  0
    7.9019  -13.5376   18.5625 C   0  0  2  0  0  0  0  0  0  0  0  0
    7.8386  -12.1390   18.0470 C   0  0  0  0  0  0  0  0  0  0  0  0
    9.2850  -14.0940   18.6276 C   0  0  0  0  0  0  0  0  0  0  0  0
    9.4369  -15.3779   19.3661 C   0  0  2  0  0  0  0  0  0  0  0  0
    8.2902  -16.2247   18.9843 N   0  0  0  0  0  0  0  0  0  0  0  0
    9.4847  -15.2387   20.8481 C   0  0  0  0  0  0  0  0  0  0  0  0
   10.4538  -14.6711   21.4062 O   0  0  0  0  0  0  0  0  0  0  0  0
    8.4574  -15.7308   21.6920 N   0  0  0  0  0  0  0  0  0  0  0  0
    8.4712  -15.6317   23.1456 C   0  0  1  0  0  0  0  0  0  0  0  0
    7.0996  -15.4692   23.7002 C   0  0  0  0  0  0  0  0  0  0  0  0
    6.9841  -15.1033   25.0961 C   0  0  0  0  0  0  0  0  0  0  0  0
    6.6948  -16.0034   26.1183 C   0  0  0  0  0  0  0  0  0  0  0  0
    6.6623  -15.3766   27.2996 N   0  0  0  0  0  0  0  0  0  0  0  0
    6.9260  -14.0759   27.0705 C   0  0  0  0  0  0  0  0  0  0  0  0
    7.0067  -13.0186   27.9513 C   0  0  0  0  0  0  0  0  0  0  0  0
    7.2917  -11.7347   27.5081 C   0  0  0  0  0  0  0  0  0  0  0  0
    7.4906  -11.5535   26.1596 C   0  0  0  0  0  0  0  0  0  0  0  0
    7.4076  -12.6158   25.2902 C   0  0  0  0  0  0  0  0  0  0  0  0
    7.1258  -13.9018   25.7066 C   0  0  0  0  0  0  0  0  0  0  0  0
    9.3473  -16.6177   23.7798 C   0  0  0  0  0  0  0  0  0  0  0  0
    9.2867  -17.8132   23.3309 O   0  0  0  0  0  0  0  0  0  0  0  0
   10.2449  -16.3765   24.8199 N   0  0  0  0  0  0  0  0  0  0  0  0
   11.2419  -17.3581   25.3034 C   0  0  1  0  0  0  0  0  0  0  0  0
   12.5962  -16.8669   24.9684 C   0  0  0  0  0  0  0  0  0  0  0  0
   13.7443  -17.6527   25.4454 C   0  0  0  0  0  0  0  0  0  0  0  0
   14.9170  -17.7873   24.5812 C   0  0  0  0  0  0  0  0  0  0  0  0
   15.5216  -16.7609   24.1854 O   0  0  0  0  0  0  0  0  0  0  0  0
   10.9880  -17.5334   26.7189 C   0  0  0  0  0  0  0  0  0  0  0  0
   10.1568  -16.7700   27.3201 O   0  0  0  0  0  0  0  0  0  0  0  0
   15.3972  -19.0231   24.1796 O   0  0  0  0  0  0  0  0  0  0  0  0
   11.5725  -18.4956   27.5374 O   0  0  0  0  0  0  0  0  0  0  0  0
  2  3  1  6
  2  1  1  0
  4  2  1  0
  5  6  1  1
  5  4  1  0
  7  8  2  0
  7  5  1  0
  9  7  1  0
 10  9  1  0
 10 21  1  0
 10 11  1  1
 12 11  1  0
 13 12  2  0
 14 13  1  0
 15 14  1  0
 15 20  2  0
 16 15  1  0
 17 16  2  0
 17 18  1  0
 18 19  2  0
 19 20  1  0
 20 12  1  0
 21 23  1  0
 22 21  2  0
 23 24  1  0
 24 25  1  1
 24 29  1  0
 26 25  1  0
 27 31  1  0
 27 26  1  0
 28 27  2  0
 29 30  2  0
 29 32  1  0
M  END
$$$$
