LWE.pdb
     RDKit          3D

 32 33  0  0  1  0  0  0  0  0999 V2000
    8.2324  -14.4114   18.2477 C   0  0  0  0  0  0  0  0  0  0  0  0
    7.3658  -13.8893   19.3912 C   0  0  2  0  0  0  0  0  0  0  0  0
    6.9054  -12.5139   19.0419 C   0  0  0  0  0  0  0  0  0  0  0  0
    8.1656  -13.9560   20.6492 C   0  0  0  0  0  0  0  0  0  0  0  0
    8.6421  -15.3093   21.0475 C   0  0  2  0  0  0  0  0  0  0  0  0
    7.4501  -16.1767   21.1111 N   0  0  0  0  0  0  0  0  0  0  0  0
    9.3638  -15.3540   22.3496 C   0  0  0  0  0  0  0  0  0  0  0  0
   10.4081  -14.6824   22.5254 O   0  0  0  0  0  0  0  0  0  0  0  0
    8.9179  -16.1431   23.4397 N   0  0  0  0  0  0  0  0  0  0  0  0
    9.5985  -16.2264   24.7253 C   0  0  1  0  0  0  0  0  0  0  0  0
    8.6339  -16.3297   25.8541 C   0  0  0  0  0  0  0  0  0  0  0  0
    7.6000  -15.3202   25.9420 C   0  0  0  0  0  0  0  0  0  0  0  0
    6.2532  -15.5564   25.6793 C   0  0  0  0  0  0  0  0  0  0  0  0
    5.5389  -14.4387   25.8520 N   0  0  0  0  0  0  0  0  0  0  0  0
    6.3960  -13.4689   26.2246 C   0  0  0  0  0  0  0  0  0  0  0  0
    6.1613  -12.1431   26.5201 C   0  0  0  0  0  0  0  0  0  0  0  0
    7.1966  -11.2949   26.8871 C   0  0  0  0  0  0  0  0  0  0  0  0
    8.4650  -11.8227   26.9456 C   0  0  0  0  0  0  0  0  0  0  0  0
    8.6871  -13.1469   26.6487 C   0  0  0  0  0  0  0  0  0  0  0  0
    7.6742  -14.0104   26.2816 C   0  0  0  0  0  0  0  0  0  0  0  0
   10.7331  -17.1508   24.7152 C   0  0  0  0  0  0  0  0  0  0  0  0
   10.4755  -18.3737   24.4457 O   0  0  0  0  0  0  0  0  0  0  0  0
   12.0661  -16.8244   24.9641 N   0  0  0  0  0  0  0  0  0  0  0  0
   13.1857  -17.7908   24.8999 C   0  0  1  0  0  0  0  0  0  0  0  0
   14.4393  -17.0517   24.6357 C   0  0  0  0  0  0  0  0  0  0  0  0
   15.0145  -17.1447   23.2853 C   0  0  0  0  0  0  0  0  0  0  0  0
   15.9971  -16.1457   22.8649 C   0  0  0  0  0  0  0  0  0  0  0  0
   16.9005  -15.7864   23.6589 O   0  0  0  0  0  0  0  0  0  0  0  0
   13.1611  -18.5264   26.1477 C   0  0  0  0  0  0  0  0  0  0  0  0
   13.5661  -19.7387   26.1849 O   0  0  0  0  0  0  0  0  0  0  0  0
   15.9722  -15.5746   21.6029 O   0  0  0  0  0  0  0  0  0  0  0  0
   12.7309  -18.0317   27.3755 O   0  0  0  0  0  0  0  0  0  0  0  0
  2  3  1  6
  2  1  1  0
  4  2  1  0
  5  6  1  1
  5  4  1  0
  7  8  2  0
  7  5  1  0
  9  7  1  0
 10  9  1  0
 10 21  1  0
 10 11  1  1
 12 11  1  0
 13 12  2  0
 14 13  1  0
 15 14  1  0
 15 20  2  0
 16 15  1  0
 17 16  2  0
 17 18  1  0
 18 19  2  0
 19 20  1  0
 20 12  1  0
 21 23  1  0
 22 21  2  0
 23 24  1  0
 24 25  1  1
 24 29  1  0
 26 25  1  0
 27 31  1  0
 27 26  1  0
 28 27  2  0
 29 30  2  0
 29 32  1  0
M  END
$$$$
