LWE.pdb
     RDKit          3D

 32 33  0  0  1  0  0  0  0  0999 V2000
    8.2981  -14.2022   18.5018 C   0  0  0  0  0  0  0  0  0  0  0  0
    7.4866  -13.6452   19.6690 C   0  0  2  0  0  0  0  0  0  0  0  0
    7.1215  -12.2329   19.3562 C   0  0  0  0  0  0  0  0  0  0  0  0
    8.2964  -13.7971   20.9132 C   0  0  0  0  0  0  0  0  0  0  0  0
    8.7074  -15.1861   21.2577 C   0  0  2  0  0  0  0  0  0  0  0  0
    7.4804  -16.0059   21.2486 N   0  0  0  0  0  0  0  0  0  0  0  0
    9.3903  -15.3220   22.5743 C   0  0  0  0  0  0  0  0  0  0  0  0
   10.4125  -14.6449   22.8375 O   0  0  0  0  0  0  0  0  0  0  0  0
    8.9308  -16.2071   23.5819 N   0  0  0  0  0  0  0  0  0  0  0  0
    9.5863  -16.3969   24.8692 C   0  0  1  0  0  0  0  0  0  0  0  0
    8.6208  -16.3067   25.9982 C   0  0  0  0  0  0  0  0  0  0  0  0
    7.6182  -15.2642   25.9362 C   0  0  0  0  0  0  0  0  0  0  0  0
    6.2915  -15.4769   25.5707 C   0  0  0  0  0  0  0  0  0  0  0  0
    5.6036  -14.3306   25.6147 N   0  0  0  0  0  0  0  0  0  0  0  0
    6.4581  -13.3651   26.0040 C   0  0  0  0  0  0  0  0  0  0  0  0
    6.2442  -12.0176   26.2002 C   0  0  0  0  0  0  0  0  0  0  0  0
    7.2725  -11.1788   26.6065 C   0  0  0  0  0  0  0  0  0  0  0  0
    8.5125  -11.7385   26.8066 C   0  0  0  0  0  0  0  0  0  0  0  0
    8.7140  -13.0842   26.6079 C   0  0  0  0  0  0  0  0  0  0  0  0
    7.7075  -13.9389   26.2042 C   0  0  0  0  0  0  0  0  0  0  0  0
   10.5321  -17.5138   24.8725 C   0  0  0  0  0  0  0  0  0  0  0  0
   10.0800  -18.6506   24.5016 O   0  0  0  0  0  0  0  0  0  0  0  0
   11.8780  -17.4548   25.2340 N   0  0  0  0  0  0  0  0  0  0  0  0
   12.8091  -18.6037   25.1668 C   0  0  1  0  0  0  0  0  0  0  0  0
   13.9119  -18.2703   24.2393 C   0  0  0  0  0  0  0  0  0  0  0  0
   14.5958  -16.9819   24.4275 C   0  0  0  0  0  0  0  0  0  0  0  0
   15.6860  -16.6210   23.5212 C   0  0  0  0  0  0  0  0  0  0  0  0
   16.2517  -15.5065   23.6383 O   0  0  0  0  0  0  0  0  0  0  0  0
   13.2179  -18.8772   26.5294 C   0  0  0  0  0  0  0  0  0  0  0  0
   13.9884  -19.8662   26.7810 O   0  0  0  0  0  0  0  0  0  0  0  0
   16.1290  -17.4763   22.5255 O   0  0  0  0  0  0  0  0  0  0  0  0
   12.8527  -18.1398   27.6520 O   0  0  0  0  0  0  0  0  0  0  0  0
  2  3  1  6
  2  1  1  0
  4  2  1  0
  5  6  1  1
  5  4  1  0
  7  8  2  0
  7  5  1  0
  9  7  1  0
 10  9  1  0
 10 21  1  0
 10 11  1  1
 12 11  1  0
 13 12  2  0
 14 13  1  0
 15 14  1  0
 15 20  2  0
 16 15  1  0
 17 16  2  0
 17 18  1  0
 18 19  2  0
 19 20  1  0
 20 12  1  0
 21 23  1  0
 22 21  2  0
 23 24  1  0
 24 25  1  6
 24 29  1  0
 26 25  1  0
 27 31  1  0
 27 26  1  0
 28 27  2  0
 29 30  2  0
 29 32  1  0
M  END
$$$$
