LWE.pdb
     RDKit          3D

 32 33  0  0  1  0  0  0  0  0999 V2000
    6.8392  -13.6107   18.3469 C   0  0  0  0  0  0  0  0  0  0  0  0
    8.1023  -13.3970   19.1774 C   0  0  2  0  0  0  0  0  0  0  0  0
    8.4776  -11.9551   19.0999 C   0  0  0  0  0  0  0  0  0  0  0  0
    9.1563  -14.3224   18.6680 C   0  0  0  0  0  0  0  0  0  0  0  0
    9.3195  -15.5993   19.4163 C   0  0  2  0  0  0  0  0  0  0  0  0
    8.1262  -16.4170   19.1246 N   0  0  0  0  0  0  0  0  0  0  0  0
    9.4689  -15.4397   20.8895 C   0  0  0  0  0  0  0  0  0  0  0  0
   10.5053  -14.9275   21.3755 O   0  0  0  0  0  0  0  0  0  0  0  0
    8.4671  -15.8503   21.8047 N   0  0  0  0  0  0  0  0  0  0  0  0
    8.5381  -15.6465   23.2456 C   0  0  1  0  0  0  0  0  0  0  0  0
    7.1961  -15.3809   23.8318 C   0  0  0  0  0  0  0  0  0  0  0  0
    7.1365  -15.0592   25.2420 C   0  0  0  0  0  0  0  0  0  0  0  0
    7.0958  -16.0093   26.2591 C   0  0  0  0  0  0  0  0  0  0  0  0
    7.0540  -15.4134   27.4559 N   0  0  0  0  0  0  0  0  0  0  0  0
    7.0665  -14.0837   27.2422 C   0  0  0  0  0  0  0  0  0  0  0  0
    7.0355  -13.0403   28.1424 C   0  0  0  0  0  0  0  0  0  0  0  0
    7.0538  -11.7206   27.7132 C   0  0  0  0  0  0  0  0  0  0  0  0
    7.1038  -11.4898   26.3585 C   0  0  0  0  0  0  0  0  0  0  0  0
    7.1344  -12.5388   25.4698 C   0  0  0  0  0  0  0  0  0  0  0  0
    7.1174  -13.8595   25.8719 C   0  0  0  0  0  0  0  0  0  0  0  0
    9.3930  -16.6231   23.9219 C   0  0  0  0  0  0  0  0  0  0  0  0
    9.2533  -17.8459   23.5761 O   0  0  0  0  0  0  0  0  0  0  0  0
   10.3481  -16.3468   24.9002 N   0  0  0  0  0  0  0  0  0  0  0  0
   11.4303  -17.2773   25.2933 C   0  0  1  0  0  0  0  0  0  0  0  0
   12.6750  -16.8817   24.5991 C   0  0  0  0  0  0  0  0  0  0  0  0
   13.8800  -17.6877   24.8468 C   0  0  0  0  0  0  0  0  0  0  0  0
   15.1241  -17.3272   24.1667 C   0  0  0  0  0  0  0  0  0  0  0  0
   15.3588  -16.1252   23.8912 O   0  0  0  0  0  0  0  0  0  0  0  0
   11.4976  -17.2362   26.7398 C   0  0  0  0  0  0  0  0  0  0  0  0
   10.8193  -16.3678   27.3885 O   0  0  0  0  0  0  0  0  0  0  0  0
   16.0708  -18.2747   23.8131 O   0  0  0  0  0  0  0  0  0  0  0  0
   12.2514  -18.0865   27.5437 O   0  0  0  0  0  0  0  0  0  0  0  0
  2  3  1  6
  2  1  1  0
  4  2  1  0
  5  6  1  1
  5  4  1  0
  7  8  2  0
  7  5  1  0
  9  7  1  0
 10  9  1  0
 10 21  1  0
 10 11  1  1
 12 11  1  0
 13 12  2  0
 14 13  1  0
 15 14  1  0
 15 20  2  0
 16 15  1  0
 17 16  2  0
 17 18  1  0
 18 19  2  0
 19 20  1  0
 20 12  1  0
 21 23  1  0
 22 21  2  0
 23 24  1  0
 24 25  1  6
 24 29  1  0
 26 25  1  0
 27 31  1  0
 27 26  1  0
 28 27  2  0
 29 30  2  0
 29 32  1  0
M  END
$$$$
