LWE.pdb
     RDKit          3D

 32 33  0  0  1  0  0  0  0  0999 V2000
   11.2183  -19.0775   17.4492 C   0  0  0  0  0  0  0  0  0  0  0  0
   11.9429  -17.7463   17.6337 C   0  0  2  0  0  0  0  0  0  0  0  0
   13.3650  -17.9238   17.2188 C   0  0  0  0  0  0  0  0  0  0  0  0
   11.7781  -17.3196   19.0541 C   0  0  0  0  0  0  0  0  0  0  0  0
   10.3781  -17.0968   19.5093 C   0  0  2  0  0  0  0  0  0  0  0  0
    9.7423  -16.2169   18.5098 N   0  0  0  0  0  0  0  0  0  0  0  0
   10.2559  -16.4870   20.8627 C   0  0  0  0  0  0  0  0  0  0  0  0
   11.2758  -16.1188   21.4927 O   0  0  0  0  0  0  0  0  0  0  0  0
    9.0044  -16.2936   21.4998 N   0  0  0  0  0  0  0  0  0  0  0  0
    8.8427  -15.7702   22.8498 C   0  0  1  0  0  0  0  0  0  0  0  0
    7.4699  -15.2409   23.0752 C   0  0  0  0  0  0  0  0  0  0  0  0
    7.1533  -14.7520   24.4006 C   0  0  0  0  0  0  0  0  0  0  0  0
    6.5952  -15.5335   25.4089 C   0  0  0  0  0  0  0  0  0  0  0  0
    6.4253  -14.8114   26.5219 N   0  0  0  0  0  0  0  0  0  0  0  0
    6.8636  -13.5647   26.2616 C   0  0  0  0  0  0  0  0  0  0  0  0
    6.9033  -12.4509   27.0728 C   0  0  0  0  0  0  0  0  0  0  0  0
    7.3979  -11.2406   26.6073 C   0  0  0  0  0  0  0  0  0  0  0  0
    7.8468  -11.1907   25.3086 C   0  0  0  0  0  0  0  0  0  0  0  0
    7.8023  -12.3084   24.5085 C   0  0  0  0  0  0  0  0  0  0  0  0
    7.3154  -13.5232   24.9484 C   0  0  0  0  0  0  0  0  0  0  0  0
    9.4097  -16.6455   23.8766 C   0  0  0  0  0  0  0  0  0  0  0  0
    9.1046  -17.8850   23.8073 O   0  0  0  0  0  0  0  0  0  0  0  0
   10.2547  -16.2584   24.9167 N   0  0  0  0  0  0  0  0  0  0  0  0
   10.8984  -17.2000   25.8604 C   0  0  1  0  0  0  0  0  0  0  0  0
   12.3655  -17.0332   25.7744 C   0  0  0  0  0  0  0  0  0  0  0  0
   13.0001  -17.2417   24.4641 C   0  0  0  0  0  0  0  0  0  0  0  0
   14.4420  -17.0308   24.3352 C   0  0  0  0  0  0  0  0  0  0  0  0
   15.2365  -17.9596   24.6212 O   0  0  0  0  0  0  0  0  0  0  0  0
   10.3272  -16.9253   27.1632 C   0  0  0  0  0  0  0  0  0  0  0  0
    9.5626  -15.9136   27.3272 O   0  0  0  0  0  0  0  0  0  0  0  0
   14.9738  -15.8284   23.8985 O   0  0  0  0  0  0  0  0  0  0  0  0
   10.5221  -17.6844   28.3134 O   0  0  0  0  0  0  0  0  0  0  0  0
  2  3  1  1
  2  1  1  0
  4  2  1  0
  5  6  1  6
  5  4  1  0
  7  8  2  0
  7  5  1  0
  9  7  1  0
 10  9  1  0
 10 21  1  0
 10 11  1  1
 12 11  1  0
 13 12  2  0
 14 13  1  0
 15 14  1  0
 15 20  2  0
 16 15  1  0
 17 16  2  0
 17 18  1  0
 18 19  2  0
 19 20  1  0
 20 12  1  0
 21 23  1  0
 22 21  2  0
 23 24  1  0
 24 25  1  1
 24 29  1  0
 26 25  1  0
 27 31  1  0
 27 26  1  0
 28 27  2  0
 29 30  2  0
 29 32  1  0
M  END
$$$$
