LWE.pdb
     RDKit          3D

 32 33  0  0  1  0  0  0  0  0999 V2000
    7.0351  -14.1925   18.6173 C   0  0  0  0  0  0  0  0  0  0  0  0
    7.3794  -13.5048   19.9362 C   0  0  2  0  0  0  0  0  0  0  0  0
    7.3433  -12.0290   19.7203 C   0  0  0  0  0  0  0  0  0  0  0  0
    8.7047  -14.0147   20.3948 C   0  0  0  0  0  0  0  0  0  0  0  0
    8.7404  -15.4385   20.8291 C   0  0  2  0  0  0  0  0  0  0  0  0
    7.3405  -15.9032   20.8739 N   0  0  0  0  0  0  0  0  0  0  0  0
    9.3862  -15.6673   22.1515 C   0  0  0  0  0  0  0  0  0  0  0  0
   10.5262  -15.2048   22.3950 O   0  0  0  0  0  0  0  0  0  0  0  0
    8.7597  -16.4060   23.1865 N   0  0  0  0  0  0  0  0  0  0  0  0
    9.2810  -16.5246   24.5419 C   0  0  1  0  0  0  0  0  0  0  0  0
    8.1874  -16.6242   25.5466 C   0  0  0  0  0  0  0  0  0  0  0  0
    7.2554  -15.5195   25.6290 C   0  0  0  0  0  0  0  0  0  0  0  0
    5.8830  -15.6385   25.4261 C   0  0  0  0  0  0  0  0  0  0  0  0
    5.2823  -14.4529   25.5769 N   0  0  0  0  0  0  0  0  0  0  0  0
    6.2395  -13.5539   25.8762 C   0  0  0  0  0  0  0  0  0  0  0  0
    6.1401  -12.2014   26.1232 C   0  0  0  0  0  0  0  0  0  0  0  0
    7.2632  -11.4403   26.4155 C   0  0  0  0  0  0  0  0  0  0  0  0
    8.4788  -12.0819   26.4501 C   0  0  0  0  0  0  0  0  0  0  0  0
    8.5658  -13.4317   26.2020 C   0  0  0  0  0  0  0  0  0  0  0  0
    7.4636  -14.2102   25.9094 C   0  0  0  0  0  0  0  0  0  0  0  0
   10.3899  -17.4738   24.6492 C   0  0  0  0  0  0  0  0  0  0  0  0
   10.2140  -18.6249   24.1215 O   0  0  0  0  0  0  0  0  0  0  0  0
   11.6197  -17.2404   25.2646 N   0  0  0  0  0  0  0  0  0  0  0  0
   12.7462  -18.2008   25.2641 C   0  0  1  0  0  0  0  0  0  0  0  0
   13.9618  -17.5100   24.7816 C   0  0  0  0  0  0  0  0  0  0  0  0
   15.2309  -18.2519   24.8251 C   0  0  0  0  0  0  0  0  0  0  0  0
   16.4343  -17.6273   24.2757 C   0  0  0  0  0  0  0  0  0  0  0  0
   17.0297  -18.1632   23.3092 O   0  0  0  0  0  0  0  0  0  0  0  0
   12.8353  -18.7251   26.6117 C   0  0  0  0  0  0  0  0  0  0  0  0
   12.2228  -18.1391   27.5690 O   0  0  0  0  0  0  0  0  0  0  0  0
   16.9486  -16.4462   24.7853 O   0  0  0  0  0  0  0  0  0  0  0  0
   13.5437  -19.8592   26.9984 O   0  0  0  0  0  0  0  0  0  0  0  0
  2  3  1  6
  2  1  1  0
  4  2  1  0
  5  6  1  1
  5  4  1  0
  7  8  2  0
  7  5  1  0
  9  7  1  0
 10  9  1  0
 10 21  1  0
 10 11  1  1
 12 11  1  0
 13 12  2  0
 14 13  1  0
 15 14  1  0
 15 20  2  0
 16 15  1  0
 17 16  2  0
 17 18  1  0
 18 19  2  0
 19 20  1  0
 20 12  1  0
 21 23  1  0
 22 21  2  0
 23 24  1  0
 24 25  1  1
 24 29  1  0
 26 25  1  0
 27 31  1  0
 27 26  1  0
 28 27  2  0
 29 30  2  0
 29 32  1  0
M  END
$$$$
