LWE.pdb
     RDKit          3D

 32 33  0  0  1  0  0  0  0  0999 V2000
    9.2370  -13.0336   19.6277 C   0  0  0  0  0  0  0  0  0  0  0  0
    8.2361  -13.5601   18.6019 C   0  0  2  0  0  0  0  0  0  0  0  0
    7.3327  -12.4398   18.2087 C   0  0  0  0  0  0  0  0  0  0  0  0
    7.5242  -14.7262   19.2023 C   0  0  0  0  0  0  0  0  0  0  0  0
    8.3896  -15.8193   19.7249 C   0  0  2  0  0  0  0  0  0  0  0  0
    7.6114  -17.0678   19.6096 N   0  0  0  0  0  0  0  0  0  0  0  0
    8.8365  -15.6365   21.1337 C   0  0  0  0  0  0  0  0  0  0  0  0
    9.9987  -15.2408   21.3898 O   0  0  0  0  0  0  0  0  0  0  0  0
    7.9890  -15.8948   22.2404 N   0  0  0  0  0  0  0  0  0  0  0  0
    8.3761  -15.7069   23.6324 C   0  0  1  0  0  0  0  0  0  0  0  0
    7.2011  -15.4092   24.4961 C   0  0  0  0  0  0  0  0  0  0  0  0
    7.4588  -15.0839   25.8831 C   0  0  0  0  0  0  0  0  0  0  0  0
    7.4981  -16.0220   26.9113 C   0  0  0  0  0  0  0  0  0  0  0  0
    7.7660  -15.4268   28.0789 N   0  0  0  0  0  0  0  0  0  0  0  0
    7.9037  -14.1095   27.8349 C   0  0  0  0  0  0  0  0  0  0  0  0
    8.1804  -13.0715   28.6987 C   0  0  0  0  0  0  0  0  0  0  0  0
    8.2804  -11.7647   28.2424 C   0  0  0  0  0  0  0  0  0  0  0  0
    8.0938  -11.5408   26.8986 C   0  0  0  0  0  0  0  0  0  0  0  0
    7.8182  -12.5842   26.0463 C   0  0  0  0  0  0  0  0  0  0  0  0
    7.7140  -13.8923   26.4757 C   0  0  0  0  0  0  0  0  0  0  0  0
    9.3278  -16.7137   24.1043 C   0  0  0  0  0  0  0  0  0  0  0  0
    9.0530  -17.9335   23.8380 O   0  0  0  0  0  0  0  0  0  0  0  0
   10.5064  -16.4693   24.8090 N   0  0  0  0  0  0  0  0  0  0  0  0
   11.5086  -17.5073   25.1403 C   0  0  1  0  0  0  0  0  0  0  0  0
   12.8443  -17.0328   24.7179 C   0  0  0  0  0  0  0  0  0  0  0  0
   12.9911  -16.5487   23.3369 C   0  0  0  0  0  0  0  0  0  0  0  0
   14.2858  -16.0208   22.9065 C   0  0  0  0  0  0  0  0  0  0  0  0
   15.3064  -16.2221   23.6090 O   0  0  0  0  0  0  0  0  0  0  0  0
   11.3726  -17.7670   26.5591 C   0  0  0  0  0  0  0  0  0  0  0  0
   12.0837  -18.6722   27.1158 O   0  0  0  0  0  0  0  0  0  0  0  0
   14.4331  -15.2997   21.7328 O   0  0  0  0  0  0  0  0  0  0  0  0
   10.5153  -17.1004   27.4297 O   0  0  0  0  0  0  0  0  0  0  0  0
  2  3  1  1
  2  1  1  0
  4  2  1  0
  5  6  1  1
  5  4  1  0
  7  8  2  0
  7  5  1  0
  9  7  1  0
 10  9  1  0
 10 21  1  0
 10 11  1  1
 12 11  1  0
 13 12  2  0
 14 13  1  0
 15 14  1  0
 15 20  2  0
 16 15  1  0
 17 16  2  0
 17 18  1  0
 18 19  2  0
 19 20  1  0
 20 12  1  0
 21 23  1  0
 22 21  2  0
 23 24  1  0
 24 25  1  1
 24 29  1  0
 26 25  1  0
 27 31  1  0
 27 26  1  0
 28 27  2  0
 29 30  2  0
 29 32  1  0
M  END
$$$$
