AIR.pdb
     RDKit          3D

 25 24  0  0  1  0  0  0  0  0999 V2000
    7.7337  -12.6396   19.7106 C   0  0  0  0  0  0  0  0  0  0  0  0
    7.6227  -14.0318   20.3195 C   0  0  2  0  0  0  0  0  0  0  0  0
    6.2616  -14.4741   20.3043 N   0  0  0  0  0  0  0  0  0  0  0  0
    8.1434  -13.9484   21.7090 C   0  0  0  0  0  0  0  0  0  0  0  0
    9.3505  -13.6890   21.9310 O   0  0  0  0  0  0  0  0  0  0  0  0
    5.2859  -11.6079   25.8477 C   0  0  0  0  0  0  0  0  0  0  0  0
    6.3722  -12.0972   24.9182 C   0  0  0  0  0  0  0  0  0  0  0  0
    6.8647  -13.4672   25.1909 C   0  0  2  0  0  0  0  0  0  0  0  0
    7.4980  -13.5151   26.5713 C   0  0  0  0  0  0  0  0  0  0  0  0
    7.8013  -14.0818   24.2184 C   0  0  2  0  0  0  0  0  0  0  0  0
    7.3080  -14.1565   22.8612 N   0  0  0  0  0  0  0  0  0  0  0  0
    8.3027  -15.4076   24.6000 C   0  0  0  0  0  0  0  0  0  0  0  0
    7.5366  -16.3687   24.8091 O   0  0  0  0  0  0  0  0  0  0  0  0
   14.3869  -14.9238   20.5595 N   0  0  0  0  0  0  0  0  0  0  0  0
   13.0705  -15.3784   20.2141 C   0  0  0  0  0  0  0  0  0  0  0  0
   12.3207  -14.6612   19.4460 N   0  0  0  0  0  0  0  0  0  0  0  0
   12.5983  -16.6141   20.7182 N   0  0  0  0  0  0  0  0  0  0  0  0
   12.7318  -16.9279   22.1207 C   0  0  0  0  0  0  0  0  0  0  0  0
   11.3447  -16.8634   22.7716 C   0  0  0  0  0  0  0  0  0  0  0  0
   11.4328  -17.1516   24.2426 C   0  0  0  0  0  0  0  0  0  0  0  0
   10.1397  -17.0041   24.9934 C   0  0  2  0  0  0  0  0  0  0  0  0
    9.6854  -15.6266   24.7401 N   0  0  0  0  0  0  0  0  0  0  0  0
   10.4177  -17.0842   26.4410 C   0  0  0  0  0  0  0  0  0  0  0  0
   10.7015  -18.1791   26.9680 O   0  0  0  0  0  0  0  0  0  0  0  0
   10.3744  -15.9683   27.2551 O   0  0  0  0  0  0  0  0  0  0  0  0
  2  1  1  1
  2  3  1  0
  4  2  1  0
  4 11  1  0
  5  4  2  0
  7  6  1  0
  8  9  1  1
  8  7  1  0
 10 11  1  6
 10  8  1  0
 12 10  1  0
 13 12  2  0
 15 14  1  0
 16 15  2  0
 17 15  1  0
 18 17  1  0
 19 20  1  0
 19 18  1  0
 21 20  1  6
 21 22  1  0
 21 23  1  0
 22 12  1  0
 23 25  1  0
 24 23  2  0
M  END
$$$$
