AIR.pdb
     RDKit          3D

 25 24  0  0  1  0  0  0  0  0999 V2000
    6.7330  -16.5217   21.1083 C   0  0  0  0  0  0  0  0  0  0  0  0
    7.0949  -15.0454   21.2121 C   0  0  2  0  0  0  0  0  0  0  0  0
    7.8994  -14.6510   20.0959 N   0  0  0  0  0  0  0  0  0  0  0  0
    7.8267  -14.8594   22.4922 C   0  0  0  0  0  0  0  0  0  0  0  0
    9.0788  -14.9245   22.5347 O   0  0  0  0  0  0  0  0  0  0  0  0
    5.7558  -11.3990   26.4136 C   0  0  0  0  0  0  0  0  0  0  0  0
    6.6857  -12.1285   25.4721 C   0  0  0  0  0  0  0  0  0  0  0  0
    7.1246  -13.4666   25.9312 C   0  0  2  0  0  0  0  0  0  0  0  0
    7.9623  -13.3231   27.1908 C   0  0  0  0  0  0  0  0  0  0  0  0
    7.8547  -14.3319   24.9727 C   0  0  2  0  0  0  0  0  0  0  0  0
    7.1539  -14.5980   23.7362 N   0  0  0  0  0  0  0  0  0  0  0  0
    8.3155  -15.6112   25.5256 C   0  0  0  0  0  0  0  0  0  0  0  0
    7.5280  -16.5447   25.7761 O   0  0  0  0  0  0  0  0  0  0  0  0
   12.6633  -22.0710   26.9345 N   0  0  0  0  0  0  0  0  0  0  0  0
   12.3549  -22.1359   25.5347 C   0  0  0  0  0  0  0  0  0  0  0  0
   11.9049  -23.2323   25.0229 N   0  0  0  0  0  0  0  0  0  0  0  0
   12.5460  -20.9950   24.7188 N   0  0  0  0  0  0  0  0  0  0  0  0
   12.5629  -19.6754   25.3034 C   0  0  0  0  0  0  0  0  0  0  0  0
   11.2450  -18.9703   24.9601 C   0  0  0  0  0  0  0  0  0  0  0  0
   11.2666  -17.5437   25.4283 C   0  0  0  0  0  0  0  0  0  0  0  0
   10.0958  -17.1410   26.2796 C   0  0  2  0  0  0  0  0  0  0  0  0
    9.6823  -15.8156   25.7894 N   0  0  0  0  0  0  0  0  0  0  0  0
   10.5621  -16.9381   27.6654 C   0  0  0  0  0  0  0  0  0  0  0  0
   10.9680  -15.8176   28.0355 O   0  0  0  0  0  0  0  0  0  0  0  0
   10.5676  -17.9643   28.5911 O   0  0  0  0  0  0  0  0  0  0  0  0
  2  1  1  6
  2  3  1  0
  4  2  1  0
  4 11  1  0
  5  4  2  0
  7  6  1  0
  8  9  1  1
  8  7  1  0
 10 11  1  6
 10  8  1  0
 12 10  1  0
 13 12  2  0
 15 14  1  0
 16 15  2  0
 17 15  1  0
 18 17  1  0
 19 20  1  0
 19 18  1  0
 21 20  1  6
 21 22  1  0
 21 23  1  0
 22 12  1  0
 23 25  1  0
 24 23  2  0
M  END
$$$$
