AIR.pdb
     RDKit          3D

 25 24  0  0  1  0  0  0  0  0999 V2000
    6.1092  -19.4879   26.0755 C   0  0  0  0  0  0  0  0  0  0  0  0
    5.4577  -18.5654   25.0529 C   0  0  2  0  0  0  0  0  0  0  0  0
    5.1312  -19.2926   23.8641 N   0  0  0  0  0  0  0  0  0  0  0  0
    6.4241  -17.4737   24.7647 C   0  0  0  0  0  0  0  0  0  0  0  0
    7.2694  -17.5868   23.8447 O   0  0  0  0  0  0  0  0  0  0  0  0
    5.6295  -12.0321   26.4353 C   0  0  0  0  0  0  0  0  0  0  0  0
    6.0079  -13.2173   25.5776 C   0  0  0  0  0  0  0  0  0  0  0  0
    7.2158  -13.9529   26.0173 C   0  0  2  0  0  0  0  0  0  0  0  0
    8.4379  -13.0630   25.8637 C   0  0  0  0  0  0  0  0  0  0  0  0
    7.5041  -15.2659   25.3897 C   0  0  2  0  0  0  0  0  0  0  0  0
    6.4464  -16.2443   25.5109 N   0  0  0  0  0  0  0  0  0  0  0  0
    8.7611  -15.8907   25.8188 C   0  0  0  0  0  0  0  0  0  0  0  0
    8.9392  -16.2808   26.9894 O   0  0  0  0  0  0  0  0  0  0  0  0
   10.1501  -18.6699   19.7783 N   0  0  0  0  0  0  0  0  0  0  0  0
   11.5637  -18.9001   19.8638 C   0  0  0  0  0  0  0  0  0  0  0  0
   12.3022  -18.7796   18.8118 N   0  0  0  0  0  0  0  0  0  0  0  0
   12.1441  -19.2592   21.1040 N   0  0  0  0  0  0  0  0  0  0  0  0
   11.3310  -19.3369   22.2941 C   0  0  0  0  0  0  0  0  0  0  0  0
   11.5644  -18.0727   23.1304 C   0  0  0  0  0  0  0  0  0  0  0  0
   10.8331  -18.1576   24.4391 C   0  0  0  0  0  0  0  0  0  0  0  0
   10.9355  -16.9306   25.3002 C   0  0  2  0  0  0  0  0  0  0  0  0
    9.8122  -16.0667   24.9003 N   0  0  0  0  0  0  0  0  0  0  0  0
   12.1649  -16.1972   24.9398 C   0  0  0  0  0  0  0  0  0  0  0  0
   12.1016  -15.1718   24.2315 O   0  0  0  0  0  0  0  0  0  0  0  0
   13.4128  -16.6112   25.3655 O   0  0  0  0  0  0  0  0  0  0  0  0
  2  1  1  1
  2  3  1  0
  4  2  1  0
  4 11  1  0
  5  4  2  0
  7  6  1  0
  8  9  1  6
  8  7  1  0
 10 11  1  1
 10  8  1  0
 12 10  1  0
 13 12  2  0
 15 14  1  0
 16 15  2  0
 17 15  1  0
 18 17  1  0
 19 20  1  0
 19 18  1  0
 21 20  1  6
 21 22  1  0
 21 23  1  0
 22 12  1  0
 23 25  1  0
 24 23  2  0
M  END
$$$$
