AIR.pdb
     RDKit          3D

 25 24  0  0  1  0  0  0  0  0999 V2000
    7.5449  -14.7859   19.7047 C   0  0  0  0  0  0  0  0  0  0  0  0
    7.5974  -13.3572   20.2313 C   0  0  2  0  0  0  0  0  0  0  0  0
    8.3763  -12.5335   19.3576 N   0  0  0  0  0  0  0  0  0  0  0  0
    8.1943  -13.4099   21.5913 C   0  0  0  0  0  0  0  0  0  0  0  0
    9.4384  -13.4418   21.7489 O   0  0  0  0  0  0  0  0  0  0  0  0
    6.8794  -11.7051   27.4433 C   0  0  0  0  0  0  0  0  0  0  0  0
    7.7157  -12.5288   26.4916 C   0  0  0  0  0  0  0  0  0  0  0  0
    7.1621  -12.6673   25.1248 C   0  0  2  0  0  0  0  0  0  0  0  0
    5.7771  -13.2882   25.1971 C   0  0  0  0  0  0  0  0  0  0  0  0
    7.9606  -13.4066   24.1166 C   0  0  2  0  0  0  0  0  0  0  0  0
    7.3942  -13.4269   22.7864 N   0  0  0  0  0  0  0  0  0  0  0  0
    8.3040  -14.7834   24.4923 C   0  0  0  0  0  0  0  0  0  0  0  0
    7.4837  -15.7176   24.4000 O   0  0  0  0  0  0  0  0  0  0  0  0
   14.3302  -14.3599   21.0656 N   0  0  0  0  0  0  0  0  0  0  0  0
   13.1853  -14.9245   20.4105 C   0  0  0  0  0  0  0  0  0  0  0  0
   12.9895  -14.7089   19.1528 N   0  0  0  0  0  0  0  0  0  0  0  0
   12.2731  -15.7174   21.1476 N   0  0  0  0  0  0  0  0  0  0  0  0
   12.4249  -15.8661   22.5753 C   0  0  0  0  0  0  0  0  0  0  0  0
   11.2643  -16.7168   23.1055 C   0  0  0  0  0  0  0  0  0  0  0  0
   11.2579  -16.7322   24.6070 C   0  0  0  0  0  0  0  0  0  0  0  0
    9.9134  -16.4971   25.2350 C   0  0  2  0  0  0  0  0  0  0  0  0
    9.5915  -15.0843   24.9734 N   0  0  0  0  0  0  0  0  0  0  0  0
   10.0434  -16.6231   26.7001 C   0  0  0  0  0  0  0  0  0  0  0  0
   10.0559  -15.6046   27.4210 O   0  0  0  0  0  0  0  0  0  0  0  0
   10.1551  -17.8534   27.3196 O   0  0  0  0  0  0  0  0  0  0  0  0
  2  1  1  6
  2  3  1  0
  4  2  1  0
  4 11  1  0
  5  4  2  0
  7  6  1  0
  8  9  1  1
  8  7  1  0
 10 11  1  6
 10  8  1  0
 12 10  1  0
 13 12  2  0
 15 14  1  0
 16 15  2  0
 17 15  1  0
 18 17  1  0
 19 20  1  0
 19 18  1  0
 21 20  1  6
 21 22  1  0
 21 23  1  0
 22 12  1  0
 23 25  1  0
 24 23  2  0
M  END
$$$$
