AIR.pdb
     RDKit          3D

 25 24  0  0  1  0  0  0  0  0999 V2000
    7.6054  -14.6793   19.7618 C   0  0  0  0  0  0  0  0  0  0  0  0
    7.7020  -13.2325   20.2294 C   0  0  2  0  0  0  0  0  0  0  0  0
    8.5694  -12.4883   19.3678 N   0  0  0  0  0  0  0  0  0  0  0  0
    8.2192  -13.2527   21.6226 C   0  0  0  0  0  0  0  0  0  0  0  0
    9.4423  -13.1041   21.8587 O   0  0  0  0  0  0  0  0  0  0  0  0
    6.5043  -11.5970   27.3206 C   0  0  0  0  0  0  0  0  0  0  0  0
    7.4166  -12.4324   26.4527 C   0  0  0  0  0  0  0  0  0  0  0  0
    6.9566  -12.6253   25.0581 C   0  0  2  0  0  0  0  0  0  0  0  0
    5.5852  -13.2799   25.0604 C   0  0  0  0  0  0  0  0  0  0  0  0
    7.8367  -13.3728   24.1268 C   0  0  2  0  0  0  0  0  0  0  0  0
    7.3624  -13.4403   22.7625 N   0  0  0  0  0  0  0  0  0  0  0  0
    8.1816  -14.7314   24.5624 C   0  0  0  0  0  0  0  0  0  0  0  0
    7.3586  -15.6670   24.5228 O   0  0  0  0  0  0  0  0  0  0  0  0
   14.2509  -14.4538   21.3286 N   0  0  0  0  0  0  0  0  0  0  0  0
   13.2379  -15.0534   20.5082 C   0  0  0  0  0  0  0  0  0  0  0  0
   13.0952  -14.6784   19.2812 N   0  0  0  0  0  0  0  0  0  0  0  0
   12.3973  -16.0559   21.0490 N   0  0  0  0  0  0  0  0  0  0  0  0
   12.4851  -16.4049   22.4468 C   0  0  0  0  0  0  0  0  0  0  0  0
   11.0890  -16.2862   23.0702 C   0  0  0  0  0  0  0  0  0  0  0  0
   11.1263  -16.6354   24.5302 C   0  0  0  0  0  0  0  0  0  0  0  0
    9.8319  -16.4237   25.2631 C   0  0  2  0  0  0  0  0  0  0  0  0
    9.4738  -15.0126   25.0427 N   0  0  0  0  0  0  0  0  0  0  0  0
   10.0770  -16.5627   26.7122 C   0  0  0  0  0  0  0  0  0  0  0  0
   10.1731  -15.5497   27.4345 O   0  0  0  0  0  0  0  0  0  0  0  0
   10.2077  -17.7995   27.3148 O   0  0  0  0  0  0  0  0  0  0  0  0
  2  1  1  6
  2  3  1  0
  4  2  1  0
  4 11  1  0
  5  4  2  0
  7  6  1  0
  8  9  1  1
  8  7  1  0
 10 11  1  6
 10  8  1  0
 12 10  1  0
 13 12  2  0
 15 14  1  0
 16 15  2  0
 17 15  1  0
 18 17  1  0
 19 20  1  0
 19 18  1  0
 21 20  1  6
 21 22  1  0
 21 23  1  0
 22 12  1  0
 23 25  1  0
 24 23  2  0
M  END
$$$$
