AIR.pdb
     RDKit          3D

 25 24  0  0  1  0  0  0  0  0999 V2000
    6.0096  -16.1807   21.2305 C   0  0  0  0  0  0  0  0  0  0  0  0
    6.3672  -14.6998   21.2362 C   0  0  2  0  0  0  0  0  0  0  0  0
    6.9509  -14.3245   19.9843 N   0  0  0  0  0  0  0  0  0  0  0  0
    7.3173  -14.4797   22.3576 C   0  0  0  0  0  0  0  0  0  0  0  0
    8.5547  -14.5951   22.1867 O   0  0  0  0  0  0  0  0  0  0  0  0
    6.0345  -10.9341   26.5348 C   0  0  0  0  0  0  0  0  0  0  0  0
    6.8415  -11.6588   25.4826 C   0  0  0  0  0  0  0  0  0  0  0  0
    7.2810  -13.0233   25.8548 C   0  0  2  0  0  0  0  0  0  0  0  0
    8.3249  -12.9392   26.9559 C   0  0  0  0  0  0  0  0  0  0  0  0
    7.7938  -13.9114   24.7828 C   0  0  2  0  0  0  0  0  0  0  0  0
    6.8813  -14.1271   23.6821 N   0  0  0  0  0  0  0  0  0  0  0  0
    8.2761  -15.2186   25.2444 C   0  0  0  0  0  0  0  0  0  0  0  0
    7.5145  -16.0586   25.7627 O   0  0  0  0  0  0  0  0  0  0  0  0
   11.4197  -20.1753   21.5516 N   0  0  0  0  0  0  0  0  0  0  0  0
   12.0244  -21.0244   22.5375 C   0  0  0  0  0  0  0  0  0  0  0  0
   12.8245  -21.9694   22.1725 N   0  0  0  0  0  0  0  0  0  0  0  0
   11.7404  -20.8219   23.9096 N   0  0  0  0  0  0  0  0  0  0  0  0
   10.9476  -19.6917   24.3308 C   0  0  0  0  0  0  0  0  0  0  0  0
   11.8899  -18.5264   24.6567 C   0  0  0  0  0  0  0  0  0  0  0  0
   11.2021  -17.2091   24.4411 C   0  0  0  0  0  0  0  0  0  0  0  0
   10.0157  -16.9635   25.3298 C   0  0  2  0  0  0  0  0  0  0  0  0
    9.6347  -15.5586   25.1087 N   0  0  0  0  0  0  0  0  0  0  0  0
   10.4489  -17.0538   26.7382 C   0  0  0  0  0  0  0  0  0  0  0  0
   10.8961  -16.0475   27.3251 O   0  0  0  0  0  0  0  0  0  0  0  0
   10.3777  -18.2368   27.4491 O   0  0  0  0  0  0  0  0  0  0  0  0
  2  1  1  6
  2  3  1  0
  4  2  1  0
  4 11  1  0
  5  4  2  0
  7  6  1  0
  8  9  1  1
  8  7  1  0
 10 11  1  6
 10  8  1  0
 12 10  1  0
 13 12  2  0
 15 14  1  0
 16 15  2  0
 17 15  1  0
 18 17  1  0
 19 20  1  0
 19 18  1  0
 21 20  1  6
 21 22  1  0
 21 23  1  0
 22 12  1  0
 23 25  1  0
 24 23  2  0
M  END
$$$$
