AIR.pdb
     RDKit          3D

 25 24  0  0  1  0  0  0  0  0999 V2000
    8.2361  -18.4642   27.3926 C   0  0  0  0  0  0  0  0  0  0  0  0
    6.8175  -18.0953   26.9768 C   0  0  2  0  0  0  0  0  0  0  0  0
    6.1541  -19.2306   26.4114 N   0  0  0  0  0  0  0  0  0  0  0  0
    6.9206  -16.9888   25.9901 C   0  0  0  0  0  0  0  0  0  0  0  0
    6.8756  -17.2174   24.7574 O   0  0  0  0  0  0  0  0  0  0  0  0
    5.7668  -11.6364   27.4839 C   0  0  0  0  0  0  0  0  0  0  0  0
    5.7768  -12.8402   26.5706 C   0  0  0  0  0  0  0  0  0  0  0  0
    7.0956  -13.1767   25.9865 C   0  0  2  0  0  0  0  0  0  0  0  0
    7.4476  -12.1658   24.9080 C   0  0  0  0  0  0  0  0  0  0  0  0
    7.2921  -14.5413   25.4388 C   0  0  2  0  0  0  0  0  0  0  0  0
    7.0752  -15.6141   26.3838 N   0  0  0  0  0  0  0  0  0  0  0  0
    8.5862  -14.7607   24.7818 C   0  0  0  0  0  0  0  0  0  0  0  0
    9.6429  -14.8909   25.4305 O   0  0  0  0  0  0  0  0  0  0  0  0
   12.6582  -21.7202   23.4627 N   0  0  0  0  0  0  0  0  0  0  0  0
   13.1208  -20.3825   23.2276 C   0  0  0  0  0  0  0  0  0  0  0  0
   14.2780  -20.1845   22.6907 N   0  0  0  0  0  0  0  0  0  0  0  0
   12.3045  -19.2829   23.5861 N   0  0  0  0  0  0  0  0  0  0  0  0
   11.0824  -19.0168   22.8657 C   0  0  0  0  0  0  0  0  0  0  0  0
   11.0804  -17.5464   22.4302 C   0  0  0  0  0  0  0  0  0  0  0  0
    9.9573  -16.7977   23.0881 C   0  0  0  0  0  0  0  0  0  0  0  0
    9.9160  -15.3268   22.7844 C   0  0  2  0  0  0  0  0  0  0  0  0
    8.6634  -14.8309   23.3787 N   0  0  0  0  0  0  0  0  0  0  0  0
    9.7774  -15.1453   21.3260 C   0  0  0  0  0  0  0  0  0  0  0  0
   10.7467  -15.3598   20.5699 O   0  0  0  0  0  0  0  0  0  0  0  0
    8.5888  -14.7370   20.7511 O   0  0  0  0  0  0  0  0  0  0  0  0
  2  1  1  6
  2  3  1  0
  4  2  1  0
  4 11  1  0
  5  4  2  0
  7  6  1  0
  8  9  1  6
  8  7  1  0
 10 11  1  1
 10  8  1  0
 12 10  1  0
 13 12  2  0
 15 14  1  0
 16 15  2  0
 17 15  1  0
 18 17  1  0
 19 20  1  0
 19 18  1  0
 21 20  1  6
 21 22  1  0
 21 23  1  0
 22 12  1  0
 23 25  1  0
 24 23  2  0
M  END
$$$$
