AIR.pdb
     RDKit          3D

 25 24  0  0  1  0  0  0  0  0999 V2000
    5.7006  -16.5022   21.5860 C   0  0  0  0  0  0  0  0  0  0  0  0
    5.9478  -15.0008   21.6640 C   0  0  2  0  0  0  0  0  0  0  0  0
    6.3212  -14.4911   20.3797 N   0  0  0  0  0  0  0  0  0  0  0  0
    7.0275  -14.7826   22.6616 C   0  0  0  0  0  0  0  0  0  0  0  0
    8.2345  -14.8016   22.3203 O   0  0  0  0  0  0  0  0  0  0  0  0
    5.7195  -11.7002   27.0364 C   0  0  0  0  0  0  0  0  0  0  0  0
    6.6897  -12.1402   25.9646 C   0  0  0  0  0  0  0  0  0  0  0  0
    7.3301  -13.4554   26.1962 C   0  0  2  0  0  0  0  0  0  0  0  0
    8.4989  -13.2911   27.1532 C   0  0  0  0  0  0  0  0  0  0  0  0
    7.7890  -14.2290   25.0165 C   0  0  2  0  0  0  0  0  0  0  0  0
    6.7566  -14.5409   24.0533 N   0  0  0  0  0  0  0  0  0  0  0  0
    8.5113  -15.4667   25.3347 C   0  0  0  0  0  0  0  0  0  0  0  0
    7.9639  -16.4176   25.9266 O   0  0  0  0  0  0  0  0  0  0  0  0
   13.9025  -19.2840   20.0563 N   0  0  0  0  0  0  0  0  0  0  0  0
   13.8195  -20.2189   21.1416 C   0  0  0  0  0  0  0  0  0  0  0  0
   14.1359  -21.4563   20.9534 N   0  0  0  0  0  0  0  0  0  0  0  0
   13.3899  -19.7797   22.4169 N   0  0  0  0  0  0  0  0  0  0  0  0
   12.9477  -18.4191   22.6085 C   0  0  0  0  0  0  0  0  0  0  0  0
   12.2753  -18.3112   23.9826 C   0  0  0  0  0  0  0  0  0  0  0  0
   11.6287  -16.9669   24.1549 C   0  0  0  0  0  0  0  0  0  0  0  0
   10.4765  -16.9396   25.1189 C   0  0  2  0  0  0  0  0  0  0  0  0
    9.8629  -15.6094   24.9709 N   0  0  0  0  0  0  0  0  0  0  0  0
   11.0060  -16.9957   26.4957 C   0  0  0  0  0  0  0  0  0  0  0  0
   11.0284  -15.9685   27.2040 O   0  0  0  0  0  0  0  0  0  0  0  0
   11.4899  -18.1682   27.0443 O   0  0  0  0  0  0  0  0  0  0  0  0
  2  1  1  6
  2  3  1  0
  4  2  1  0
  4 11  1  0
  5  4  2  0
  7  6  1  0
  8  9  1  1
  8  7  1  0
 10 11  1  6
 10  8  1  0
 12 10  1  0
 13 12  2  0
 15 14  1  0
 16 15  2  0
 17 15  1  0
 18 17  1  0
 19 20  1  0
 19 18  1  0
 21 20  1  6
 21 22  1  0
 21 23  1  0
 22 12  1  0
 23 25  1  0
 24 23  2  0
M  END
$$$$
