AIR.pdb
     RDKit          3D

 25 24  0  0  1  0  0  0  0  0999 V2000
    8.4312  -19.1589   27.5960 C   0  0  0  0  0  0  0  0  0  0  0  0
    7.0080  -18.6558   27.3895 C   0  0  2  0  0  0  0  0  0  0  0  0
    6.1476  -19.7371   27.0166 N   0  0  0  0  0  0  0  0  0  0  0  0
    7.0566  -17.6186   26.3263 C   0  0  0  0  0  0  0  0  0  0  0  0
    6.6715  -17.8723   25.1596 O   0  0  0  0  0  0  0  0  0  0  0  0
    6.2724  -12.3736   27.6385 C   0  0  0  0  0  0  0  0  0  0  0  0
    6.1865  -13.5287   26.6680 C   0  0  0  0  0  0  0  0  0  0  0  0
    7.4585  -13.8842   25.9976 C   0  0  2  0  0  0  0  0  0  0  0  0
    7.6944  -12.9481   24.8241 C   0  0  0  0  0  0  0  0  0  0  0  0
    7.6393  -15.2813   25.5328 C   0  0  2  0  0  0  0  0  0  0  0  0
    7.5396  -16.2856   26.5683 N   0  0  0  0  0  0  0  0  0  0  0  0
    8.8722  -15.5231   24.7738 C   0  0  0  0  0  0  0  0  0  0  0  0
    9.9907  -15.1787   25.2032 O   0  0  0  0  0  0  0  0  0  0  0  0
    8.7350  -11.8953   18.0087 N   0  0  0  0  0  0  0  0  0  0  0  0
    8.2306  -13.2087   17.7269 C   0  0  0  0  0  0  0  0  0  0  0  0
    7.6754  -13.4564   16.5880 N   0  0  0  0  0  0  0  0  0  0  0  0
    8.3441  -14.2296   18.7010 N   0  0  0  0  0  0  0  0  0  0  0  0
    9.2030  -14.0512   19.8472 C   0  0  0  0  0  0  0  0  0  0  0  0
    9.2329  -15.3602   20.6457 C   0  0  0  0  0  0  0  0  0  0  0  0
   10.1811  -15.2550   21.8053 C   0  0  0  0  0  0  0  0  0  0  0  0
   10.0847  -16.3742   22.8031 C   0  0  2  0  0  0  0  0  0  0  0  0
    8.8170  -16.1615   23.5212 N   0  0  0  0  0  0  0  0  0  0  0  0
   11.1558  -16.2119   23.8059 C   0  0  0  0  0  0  0  0  0  0  0  0
   11.9586  -15.2603   23.7212 O   0  0  0  0  0  0  0  0  0  0  0  0
   11.3087  -17.0931   24.8594 O   0  0  0  0  0  0  0  0  0  0  0  0
  2  1  1  6
  2  3  1  0
  4  2  1  0
  4 11  1  0
  5  4  2  0
  7  6  1  0
  8  9  1  6
  8  7  1  0
 10 11  1  1
 10  8  1  0
 12 10  1  0
 13 12  2  0
 15 14  1  0
 16 15  2  0
 17 15  1  0
 18 17  1  0
 19 20  1  0
 19 18  1  0
 21 20  1  6
 21 22  1  0
 21 23  1  0
 22 12  1  0
 23 25  1  0
 24 23  2  0
M  END
$$$$
