AIR.pdb
     RDKit          3D

 25 24  0  0  1  0  0  0  0  0999 V2000
    8.5352  -19.0922   26.6665 C   0  0  0  0  0  0  0  0  0  0  0  0
    7.1538  -18.5244   26.9678 C   0  0  2  0  0  0  0  0  0  0  0  0
    6.1544  -19.5362   26.8064 N   0  0  0  0  0  0  0  0  0  0  0  0
    6.9276  -17.3935   26.0304 C   0  0  0  0  0  0  0  0  0  0  0  0
    6.3143  -17.5645   24.9495 O   0  0  0  0  0  0  0  0  0  0  0  0
    6.2304  -12.1513   27.7941 C   0  0  0  0  0  0  0  0  0  0  0  0
    6.0121  -13.2532   26.7833 C   0  0  0  0  0  0  0  0  0  0  0  0
    7.2031  -13.6178   25.9819 C   0  0  2  0  0  0  0  0  0  0  0  0
    7.4212  -12.5804   24.8932 C   0  0  0  0  0  0  0  0  0  0  0  0
    7.2476  -14.9669   25.3665 C   0  0  2  0  0  0  0  0  0  0  0  0
    7.3905  -16.0593   26.3030 N   0  0  0  0  0  0  0  0  0  0  0  0
    8.2553  -15.1295   24.3116 C   0  0  0  0  0  0  0  0  0  0  0  0
    9.3086  -15.7700   24.4972 O   0  0  0  0  0  0  0  0  0  0  0  0
    7.6515  -12.7504   15.7729 N   0  0  0  0  0  0  0  0  0  0  0  0
    8.1853  -14.0819   15.8002 C   0  0  0  0  0  0  0  0  0  0  0  0
    8.2840  -14.7604   14.7064 N   0  0  0  0  0  0  0  0  0  0  0  0
    8.6024  -14.6474   17.0292 N   0  0  0  0  0  0  0  0  0  0  0  0
    8.5142  -13.8831   18.2504 C   0  0  0  0  0  0  0  0  0  0  0  0
    9.0005  -14.7580   19.4123 C   0  0  0  0  0  0  0  0  0  0  0  0
    8.3472  -14.3448   20.6997 C   0  0  0  0  0  0  0  0  0  0  0  0
    8.6984  -15.1957   21.8872 C   0  0  2  0  0  0  0  0  0  0  0  0
    8.0498  -14.5554   23.0436 N   0  0  0  0  0  0  0  0  0  0  0  0
   10.1518  -15.1005   22.1281 C   0  0  0  0  0  0  0  0  0  0  0  0
   10.6161  -14.1702   22.8180 O   0  0  0  0  0  0  0  0  0  0  0  0
   11.0396  -16.0226   21.6072 O   0  0  0  0  0  0  0  0  0  0  0  0
  2  1  1  6
  2  3  1  0
  4  2  1  0
  4 11  1  0
  5  4  2  0
  7  6  1  0
  8  9  1  6
  8  7  1  0
 10 11  1  1
 10  8  1  0
 12 10  1  0
 13 12  2  0
 15 14  1  0
 16 15  2  0
 17 15  1  0
 18 17  1  0
 19 20  1  0
 19 18  1  0
 21 20  1  6
 21 22  1  0
 21 23  1  0
 22 12  1  0
 23 25  1  0
 24 23  2  0
M  END
$$$$
