AIR.pdb
     RDKit          3D

 25 24  0  0  1  0  0  0  0  0999 V2000
   10.0824  -18.4421   26.5319 C   0  0  0  0  0  0  0  0  0  0  0  0
    9.0536  -17.8833   27.5068 C   0  0  2  0  0  0  0  0  0  0  0  0
    8.3987  -18.9486   28.2032 N   0  0  0  0  0  0  0  0  0  0  0  0
    8.0826  -17.0849   26.7140 C   0  0  0  0  0  0  0  0  0  0  0  0
    7.0875  -17.6279   26.1768 O   0  0  0  0  0  0  0  0  0  0  0  0
    7.6673  -11.4259   27.4164 C   0  0  0  0  0  0  0  0  0  0  0  0
    7.2102  -12.8545   27.2331 C   0  0  0  0  0  0  0  0  0  0  0  0
    7.4297  -13.4176   25.8808 C   0  0  2  0  0  0  0  0  0  0  0  0
    6.4986  -12.7394   24.8898 C   0  0  0  0  0  0  0  0  0  0  0  0
    7.3182  -14.8866   25.7066 C   0  0  2  0  0  0  0  0  0  0  0  0
    8.2243  -15.6669   26.5196 N   0  0  0  0  0  0  0  0  0  0  0  0
    7.4273  -15.3521   24.3188 C   0  0  0  0  0  0  0  0  0  0  0  0
    6.4227  -15.5556   23.6093 O   0  0  0  0  0  0  0  0  0  0  0  0
    9.3519  -13.2570   17.1740 N   0  0  0  0  0  0  0  0  0  0  0  0
    8.0557  -13.8684   17.2428 C   0  0  0  0  0  0  0  0  0  0  0  0
    7.5727  -14.4756   16.2110 N   0  0  0  0  0  0  0  0  0  0  0  0
    7.3101  -13.8031   18.4444 N   0  0  0  0  0  0  0  0  0  0  0  0
    7.8738  -13.1821   19.6191 C   0  0  0  0  0  0  0  0  0  0  0  0
    8.8431  -14.1706   20.2789 C   0  0  0  0  0  0  0  0  0  0  0  0
    8.5237  -14.3370   21.7366 C   0  0  0  0  0  0  0  0  0  0  0  0
    8.7713  -15.7141   22.2839 C   0  0  2  0  0  0  0  0  0  0  0  0
    8.6926  -15.5825   23.7483 N   0  0  0  0  0  0  0  0  0  0  0  0
   10.1629  -16.1036   21.9818 C   0  0  0  0  0  0  0  0  0  0  0  0
   11.0464  -16.0133   22.8583 O   0  0  0  0  0  0  0  0  0  0  0  0
   10.5348  -16.5748   20.7370 O   0  0  0  0  0  0  0  0  0  0  0  0
  2  1  1  6
  2  3  1  0
  4  2  1  0
  4 11  1  0
  5  4  2  0
  7  6  1  0
  8  9  1  6
  8  7  1  0
 10 11  1  1
 10  8  1  0
 12 10  1  0
 13 12  2  0
 15 14  1  0
 16 15  2  0
 17 15  1  0
 18 17  1  0
 19 20  1  0
 19 18  1  0
 21 20  1  6
 21 22  1  0
 21 23  1  0
 22 12  1  0
 23 25  1  0
 24 23  2  0
M  END
$$$$
