AIR.pdb
     RDKit          3D

 25 24  0  0  1  0  0  0  0  0999 V2000
    6.0437  -15.8948   21.1273 C   0  0  0  0  0  0  0  0  0  0  0  0
    6.8558  -14.6107   21.2397 C   0  0  2  0  0  0  0  0  0  0  0  0
    7.7616  -14.4972   20.1373 N   0  0  0  0  0  0  0  0  0  0  0  0
    7.5884  -14.6635   22.5317 C   0  0  0  0  0  0  0  0  0  0  0  0
    8.7814  -15.0481   22.5815 O   0  0  0  0  0  0  0  0  0  0  0  0
    6.1319  -11.0702   26.7067 C   0  0  0  0  0  0  0  0  0  0  0  0
    6.8987  -11.8772   25.6848 C   0  0  0  0  0  0  0  0  0  0  0  0
    7.1185  -13.2981   26.0403 C   0  0  2  0  0  0  0  0  0  0  0  0
    7.9493  -13.3826   27.3098 C   0  0  0  0  0  0  0  0  0  0  0  0
    7.7205  -14.1909   25.0199 C   0  0  2  0  0  0  0  0  0  0  0  0
    6.9828  -14.2830   23.7796 N   0  0  0  0  0  0  0  0  0  0  0  0
    8.0093  -15.5524   25.4864 C   0  0  0  0  0  0  0  0  0  0  0  0
    7.1068  -16.3912   25.6762 O   0  0  0  0  0  0  0  0  0  0  0  0
    9.4824  -21.9393   23.4421 N   0  0  0  0  0  0  0  0  0  0  0  0
   10.8490  -22.2225   23.7748 C   0  0  0  0  0  0  0  0  0  0  0  0
   11.2037  -23.4264   24.0770 N   0  0  0  0  0  0  0  0  0  0  0  0
   11.8049  -21.1783   23.7703 N   0  0  0  0  0  0  0  0  0  0  0  0
   11.3852  -19.8066   23.6104 C   0  0  0  0  0  0  0  0  0  0  0  0
   10.6858  -19.3547   24.8982 C   0  0  0  0  0  0  0  0  0  0  0  0
   10.2187  -17.9325   24.7796 C   0  0  0  0  0  0  0  0  0  0  0  0
    9.5868  -17.3700   26.0213 C   0  0  2  0  0  0  0  0  0  0  0  0
    9.3368  -15.9478   25.7335 N   0  0  0  0  0  0  0  0  0  0  0  0
   10.5780  -17.3986   27.1149 C   0  0  0  0  0  0  0  0  0  0  0  0
   11.4709  -16.5293   27.1783 O   0  0  0  0  0  0  0  0  0  0  0  0
   10.5560  -18.3735   28.0942 O   0  0  0  0  0  0  0  0  0  0  0  0
  2  1  1  6
  2  3  1  0
  4  2  1  0
  4 11  1  0
  5  4  2  0
  7  6  1  0
  8  9  1  1
  8  7  1  0
 10 11  1  6
 10  8  1  0
 12 10  1  0
 13 12  2  0
 15 14  1  0
 16 15  2  0
 17 15  1  0
 18 17  1  0
 19 20  1  0
 19 18  1  0
 21 20  1  6
 21 22  1  0
 21 23  1  0
 22 12  1  0
 23 25  1  0
 24 23  2  0
M  END
$$$$
