AIR.pdb
     RDKit          3D

 25 24  0  0  1  0  0  0  0  0999 V2000
    6.6427  -14.4057   20.2122 C   0  0  0  0  0  0  0  0  0  0  0  0
    7.0598  -13.0674   20.8091 C   0  0  2  0  0  0  0  0  0  0  0  0
    7.9221  -12.3675   19.9063 N   0  0  0  0  0  0  0  0  0  0  0  0
    7.7486  -13.3532   22.0947 C   0  0  0  0  0  0  0  0  0  0  0  0
    8.9922  -13.5123   22.1387 O   0  0  0  0  0  0  0  0  0  0  0  0
    5.8284  -11.2753   26.9841 C   0  0  0  0  0  0  0  0  0  0  0  0
    6.7481  -11.7166   25.8693 C   0  0  0  0  0  0  0  0  0  0  0  0
    6.9932  -13.1754   25.7951 C   0  0  2  0  0  0  0  0  0  0  0  0
    7.7297  -13.6320   27.0433 C   0  0  0  0  0  0  0  0  0  0  0  0
    7.7021  -13.7074   24.6055 C   0  0  2  0  0  0  0  0  0  0  0  0
    7.0419  -13.4621   23.3426 N   0  0  0  0  0  0  0  0  0  0  0  0
    8.0421  -15.1335   24.6781 C   0  0  0  0  0  0  0  0  0  0  0  0
    7.1668  -16.0203   24.7201 O   0  0  0  0  0  0  0  0  0  0  0  0
   15.0076  -19.3841   21.4851 N   0  0  0  0  0  0  0  0  0  0  0  0
   14.2999  -20.3854   22.2303 C   0  0  0  0  0  0  0  0  0  0  0  0
   14.7211  -21.6057   22.2337 N   0  0  0  0  0  0  0  0  0  0  0  0
   13.1401  -20.0302   22.9601 N   0  0  0  0  0  0  0  0  0  0  0  0
   12.6395  -18.6770   22.9199 C   0  0  0  0  0  0  0  0  0  0  0  0
   11.4621  -18.5607   23.8957 C   0  0  0  0  0  0  0  0  0  0  0  0
   10.8461  -17.1931   23.8264 C   0  0  0  0  0  0  0  0  0  0  0  0
    9.6713  -16.9829   24.7393 C   0  0  2  0  0  0  0  0  0  0  0  0
    9.3895  -15.5382   24.7019 N   0  0  0  0  0  0  0  0  0  0  0  0
   10.0846  -17.2840   26.1241 C   0  0  0  0  0  0  0  0  0  0  0  0
   10.4926  -16.3720   26.8718 O   0  0  0  0  0  0  0  0  0  0  0  0
   10.0369  -18.5662   26.6374 O   0  0  0  0  0  0  0  0  0  0  0  0
  2  1  1  6
  2  3  1  0
  4  2  1  0
  4 11  1  0
  5  4  2  0
  7  6  1  0
  8  9  1  1
  8  7  1  0
 10 11  1  6
 10  8  1  0
 12 10  1  0
 13 12  2  0
 15 14  1  0
 16 15  2  0
 17 15  1  0
 18 17  1  0
 19 20  1  0
 19 18  1  0
 21 20  1  6
 21 22  1  0
 21 23  1  0
 22 12  1  0
 23 25  1  0
 24 23  2  0
M  END
$$$$
