YIK.pdb
     RDKit          3D

 30 30  0  0  1  0  0  0  0  0999 V2000
   11.1142  -19.4742   28.7789 O   0  0  0  0  0  0  0  0  0  0  0  0
   10.0994  -18.7521   28.1842 C   0  0  0  0  0  0  0  0  0  0  0  0
   10.3803  -17.6331   27.4622 C   0  0  0  0  0  0  0  0  0  0  0  0
    9.3671  -16.9162   26.8712 C   0  0  0  0  0  0  0  0  0  0  0  0
    8.0541  -17.3043   26.9907 C   0  0  0  0  0  0  0  0  0  0  0  0
    6.9563  -16.5348   26.3550 C   0  0  0  0  0  0  0  0  0  0  0  0
    6.2797  -17.3394   25.2574 C   0  0  2  0  0  0  0  0  0  0  0  0
    6.3674  -18.7211   25.6144 N   0  0  0  0  0  0  0  0  0  0  0  0
    6.9714  -17.0161   23.9915 C   0  0  0  0  0  0  0  0  0  0  0  0
    7.5246  -17.9284   23.3358 O   0  0  0  0  0  0  0  0  0  0  0  0
    7.7994  -18.4414   27.7277 C   0  0  0  0  0  0  0  0  0  0  0  0
    8.8018  -19.1578   28.3172 C   0  0  0  0  0  0  0  0  0  0  0  0
    7.5728  -12.6137   19.5379 C   0  0  0  0  0  0  0  0  0  0  0  0
    8.0560  -13.8854   20.2051 C   0  0  0  0  0  0  0  0  0  0  0  0
    7.4444  -14.1240   21.5465 C   0  0  2  0  0  0  0  0  0  0  0  0
    7.5564  -12.8834   22.4439 C   0  0  0  0  0  0  0  0  0  0  0  0
    7.7322  -15.3720   22.2395 C   0  0  2  0  0  0  0  0  0  0  0  0
    7.0760  -15.7391   23.4257 N   0  0  0  0  0  0  0  0  0  0  0  0
    9.2094  -15.6066   22.3018 C   0  0  0  0  0  0  0  0  0  0  0  0
    9.9046  -15.1480   23.2547 O   0  0  0  0  0  0  0  0  0  0  0  0
    9.9073  -16.3402   21.3155 N   0  0  0  0  0  0  0  0  0  0  0  0
   11.3037  -16.6862   21.4687 C   0  0  1  0  0  0  0  0  0  0  0  0
   11.5845  -17.9830   20.7472 C   0  0  0  0  0  0  0  0  0  0  0  0
   11.3685  -19.2070   21.5721 C   0  0  0  0  0  0  0  0  0  0  0  0
   11.7352  -20.4680   20.8248 C   0  0  0  0  0  0  0  0  0  0  0  0
   11.4690  -21.7173   21.6066 C   0  0  0  0  0  0  0  0  0  0  0  0
   11.7699  -22.8928   20.7908 N   0  0  0  0  0  0  0  0  0  0  0  0
   12.1607  -15.6273   20.7920 C   0  0  0  0  0  0  0  0  0  0  0  0
   13.4594  -15.3931   21.1977 O   0  0  0  0  0  0  0  0  0  0  0  0
   11.6864  -14.9521   19.8494 O   0  0  0  0  0  0  0  0  0  0  0  0
  2  1  1  0
  3  2  2  0
  4  3  1  0
  5 11  1  0
  5  4  2  0
  6  5  1  0
  7  6  1  0
  7  8  1  1
  9 10  2  0
  9  7  1  0
 11 12  2  0
 12  2  1  0
 14 13  1  0
 15 17  1  0
 15 14  1  0
 15 16  1  1
 17 18  1  1
 18  9  1  0
 19 17  1  0
 20 19  2  0
 21 19  1  0
 22 21  1  0
 22 23  1  6
 23 24  1  0
 24 25  1  0
 25 26  1  0
 27 26  1  0
 28 29  1  0
 28 22  1  0
 30 28  2  0
M  END
$$$$
