YIK.pdb
     RDKit          3D

 30 30  0  0  1  0  0  0  0  0999 V2000
   12.3877  -17.0849   32.0832 O   0  0  0  0  0  0  0  0  0  0  0  0
   11.7778  -17.1968   30.8502 C   0  0  0  0  0  0  0  0  0  0  0  0
   11.6234  -18.4157   30.2648 C   0  0  0  0  0  0  0  0  0  0  0  0
   11.0154  -18.5235   29.0365 C   0  0  0  0  0  0  0  0  0  0  0  0
   10.5505  -17.4149   28.3703 C   0  0  0  0  0  0  0  0  0  0  0  0
    9.8933  -17.5249   27.0445 C   0  0  0  0  0  0  0  0  0  0  0  0
    8.3809  -17.5900   27.1800 C   0  0  2  0  0  0  0  0  0  0  0  0
    8.0013  -18.9683   27.1548 N   0  0  0  0  0  0  0  0  0  0  0  0
    7.8099  -16.8044   26.0655 C   0  0  0  0  0  0  0  0  0  0  0  0
    7.1571  -17.3843   25.1678 O   0  0  0  0  0  0  0  0  0  0  0  0
   10.7205  -16.1936   28.9871 C   0  0  0  0  0  0  0  0  0  0  0  0
   11.3237  -16.0802   30.2073 C   0  0  0  0  0  0  0  0  0  0  0  0
    6.9292  -11.6276   26.9637 C   0  0  0  0  0  0  0  0  0  0  0  0
    6.3074  -12.7148   26.1109 C   0  0  0  0  0  0  0  0  0  0  0  0
    7.1990  -13.1937   25.0128 C   0  0  2  0  0  0  0  0  0  0  0  0
    6.8961  -12.4762   23.6897 C   0  0  0  0  0  0  0  0  0  0  0  0
    7.4230  -14.6246   24.8613 C   0  0  2  0  0  0  0  0  0  0  0  0
    7.9293  -15.4184   25.9034 N   0  0  0  0  0  0  0  0  0  0  0  0
    8.0764  -14.9151   23.5460 C   0  0  0  0  0  0  0  0  0  0  0  0
    9.2516  -15.3811   23.4887 O   0  0  0  0  0  0  0  0  0  0  0  0
    7.4327  -14.6880   22.3083 N   0  0  0  0  0  0  0  0  0  0  0  0
    8.0726  -14.9984   21.0483 C   0  0  1  0  0  0  0  0  0  0  0  0
    7.7689  -13.9099   20.0464 C   0  0  0  0  0  0  0  0  0  0  0  0
    8.5155  -14.0295   18.7604 C   0  0  0  0  0  0  0  0  0  0  0  0
    7.6991  -13.5509   17.5825 C   0  0  0  0  0  0  0  0  0  0  0  0
    8.4488  -13.5943   16.2868 C   0  0  0  0  0  0  0  0  0  0  0  0
    7.6615  -12.9598   15.2307 N   0  0  0  0  0  0  0  0  0  0  0  0
    9.5818  -14.9953   21.2373 C   0  0  0  0  0  0  0  0  0  0  0  0
   10.3766  -15.9628   20.6556 O   0  0  0  0  0  0  0  0  0  0  0  0
   10.1201  -14.1022   21.9317 O   0  0  0  0  0  0  0  0  0  0  0  0
  2  1  1  0
  3  2  2  0
  4  3  1  0
  5 11  1  0
  5  4  2  0
  6  5  1  0
  7  6  1  0
  7  8  1  6
  9 10  2  0
  9  7  1  0
 11 12  2  0
 12  2  1  0
 14 13  1  0
 15 17  1  0
 15 14  1  0
 15 16  1  6
 17 18  1  1
 18  9  1  0
 19 17  1  0
 20 19  2  0
 21 19  1  0
 22 21  1  0
 22 23  1  6
 23 24  1  0
 24 25  1  0
 25 26  1  0
 27 26  1  0
 28 29  1  0
 28 22  1  0
 30 28  2  0
M  END
$$$$
