YIK.pdb
     RDKit          3D

 30 30  0  0  1  0  0  0  0  0999 V2000
    5.4907  -23.0891   29.3934 O   0  0  0  0  0  0  0  0  0  0  0  0
    5.8966  -22.2404   28.3835 C   0  0  0  0  0  0  0  0  0  0  0  0
    6.3588  -20.9937   28.6740 C   0  0  0  0  0  0  0  0  0  0  0  0
    6.7623  -20.1509   27.6656 C   0  0  0  0  0  0  0  0  0  0  0  0
    6.7113  -20.5385   26.3480 C   0  0  0  0  0  0  0  0  0  0  0  0
    7.1456  -19.6334   25.2553 C   0  0  0  0  0  0  0  0  0  0  0  0
    5.9653  -18.8942   24.6468 C   0  0  2  0  0  0  0  0  0  0  0  0
    5.4202  -19.7204   23.6150 N   0  0  0  0  0  0  0  0  0  0  0  0
    6.4726  -17.5968   24.1520 C   0  0  0  0  0  0  0  0  0  0  0  0
    6.9819  -17.5240   23.0102 O   0  0  0  0  0  0  0  0  0  0  0  0
    6.2389  -21.8065   26.0836 C   0  0  0  0  0  0  0  0  0  0  0  0
    5.8366  -22.6483   27.0812 C   0  0  0  0  0  0  0  0  0  0  0  0
    7.5683  -11.5946   25.8179 C   0  0  0  0  0  0  0  0  0  0  0  0
    7.9692  -12.8715   25.1075 C   0  0  0  0  0  0  0  0  0  0  0  0
    7.0731  -14.0275   25.4089 C   0  0  2  0  0  0  0  0  0  0  0  0
    6.8032  -14.1517   26.9151 C   0  0  0  0  0  0  0  0  0  0  0  0
    7.3270  -15.3040   24.7556 C   0  0  2  0  0  0  0  0  0  0  0  0
    6.4408  -16.3885   24.8596 N   0  0  0  0  0  0  0  0  0  0  0  0
    8.7568  -15.7088   24.9371 C   0  0  0  0  0  0  0  0  0  0  0  0
    9.1517  -16.2508   26.0103 O   0  0  0  0  0  0  0  0  0  0  0  0
    9.7378  -15.5115   23.9386 N   0  0  0  0  0  0  0  0  0  0  0  0
   11.0126  -16.1945   23.9772 C   0  0  1  0  0  0  0  0  0  0  0  0
   11.6026  -16.2410   22.5878 C   0  0  0  0  0  0  0  0  0  0  0  0
   10.8036  -17.0283   21.6044 C   0  0  0  0  0  0  0  0  0  0  0  0
   11.4443  -17.0465   20.2361 C   0  0  0  0  0  0  0  0  0  0  0  0
   10.6341  -17.7818   19.2135 C   0  0  0  0  0  0  0  0  0  0  0  0
   11.3536  -17.8265   17.9414 N   0  0  0  0  0  0  0  0  0  0  0  0
   11.9863  -15.3930   24.8276 C   0  0  0  0  0  0  0  0  0  0  0  0
   11.6263  -14.1755   25.3700 O   0  0  0  0  0  0  0  0  0  0  0  0
   13.1367  -15.8392   25.0438 O   0  0  0  0  0  0  0  0  0  0  0  0
  2  1  1  0
  3  2  2  0
  4  3  1  0
  5 11  1  0
  5  4  2  0
  6  5  1  0
  7  6  1  0
  7  8  1  6
  9 10  2  0
  9  7  1  0
 11 12  2  0
 12  2  1  0
 14 13  1  0
 15 17  1  0
 15 14  1  0
 15 16  1  1
 17 18  1  1
 18  9  1  0
 19 17  1  0
 20 19  2  0
 21 19  1  0
 22 21  1  0
 22 23  1  6
 23 24  1  0
 24 25  1  0
 25 26  1  0
 27 26  1  0
 28 29  1  0
 28 22  1  0
 30 28  2  0
M  END
$$$$
