YIK.pdb
     RDKit          3D

 30 30  0  0  1  0  0  0  0  0999 V2000
    5.0328  -10.7247   28.7225 O   0  0  0  0  0  0  0  0  0  0  0  0
    5.7211  -11.6569   27.9728 C   0  0  0  0  0  0  0  0  0  0  0  0
    6.7519  -12.3574   28.5198 C   0  0  0  0  0  0  0  0  0  0  0  0
    7.4354  -13.2852   27.7700 C   0  0  0  0  0  0  0  0  0  0  0  0
    7.1014  -13.5302   26.4596 C   0  0  0  0  0  0  0  0  0  0  0  0
    7.8352  -14.5304   25.6455 C   0  0  0  0  0  0  0  0  0  0  0  0
    6.8795  -15.4143   24.8611 C   0  0  2  0  0  0  0  0  0  0  0  0
    6.4530  -16.4690   25.7271 N   0  0  0  0  0  0  0  0  0  0  0  0
    7.6100  -15.8941   23.6688 C   0  0  0  0  0  0  0  0  0  0  0  0
    8.0308  -17.0731   23.6314 O   0  0  0  0  0  0  0  0  0  0  0  0
    6.0534  -12.8060   25.9321 C   0  0  0  0  0  0  0  0  0  0  0  0
    5.3706  -11.8830   26.6719 C   0  0  0  0  0  0  0  0  0  0  0  0
    7.8616  -12.3025   20.0637 C   0  0  0  0  0  0  0  0  0  0  0  0
    7.4847  -13.7585   19.8801 C   0  0  0  0  0  0  0  0  0  0  0  0
    8.6048  -14.7044   20.1644 C   0  0  2  0  0  0  0  0  0  0  0  0
    9.0402  -15.4566   18.8988 C   0  0  0  0  0  0  0  0  0  0  0  0
    8.5289  -15.5502   21.3474 C   0  0  2  0  0  0  0  0  0  0  0  0
    7.8919  -15.1328   22.5275 N   0  0  0  0  0  0  0  0  0  0  0  0
    9.8492  -16.2065   21.6064 C   0  0  0  0  0  0  0  0  0  0  0  0
   10.7230  -15.6523   22.3352 O   0  0  0  0  0  0  0  0  0  0  0  0
   10.1964  -17.4631   21.0600 N   0  0  0  0  0  0  0  0  0  0  0  0
   11.4824  -18.0753   21.3136 C   0  0  1  0  0  0  0  0  0  0  0  0
   11.3459  -19.5783   21.2576 C   0  0  0  0  0  0  0  0  0  0  0  0
   12.6345  -20.3198   21.3799 C   0  0  0  0  0  0  0  0  0  0  0  0
   12.4493  -21.8112   21.2240 C   0  0  0  0  0  0  0  0  0  0  0  0
   13.7116  -22.5891   21.4344 C   0  0  0  0  0  0  0  0  0  0  0  0
   13.4447  -24.0212   21.3087 N   0  0  0  0  0  0  0  0  0  0  0  0
   12.4485  -17.6930   20.2026 C   0  0  0  0  0  0  0  0  0  0  0  0
   13.8028  -17.5744   20.4430 O   0  0  0  0  0  0  0  0  0  0  0  0
   12.0147  -17.4807   19.0467 O   0  0  0  0  0  0  0  0  0  0  0  0
  2  1  1  0
  3  2  2  0
  4  3  1  0
  5 11  1  0
  5  4  2  0
  6  5  1  0
  7  6  1  0
  7  8  1  1
  9 10  2  0
  9  7  1  0
 11 12  2  0
 12  2  1  0
 14 13  1  0
 15 17  1  0
 15 14  1  0
 15 16  1  6
 17 18  1  1
 18  9  1  0
 19 17  1  0
 20 19  2  0
 21 19  1  0
 22 21  1  0
 22 23  1  6
 23 24  1  0
 24 25  1  0
 25 26  1  0
 27 26  1  0
 28 29  1  0
 28 22  1  0
 30 28  2  0
M  END
$$$$
