YIK.pdb
     RDKit          3D

 30 30  0  0  1  0  0  0  0  0999 V2000
   10.8967  -14.8401   32.1151 O   0  0  0  0  0  0  0  0  0  0  0  0
   10.5537  -15.5392   30.9756 C   0  0  0  0  0  0  0  0  0  0  0  0
   10.3805  -16.8885   31.0198 C   0  0  0  0  0  0  0  0  0  0  0  0
   10.0388  -17.5817   29.8829 C   0  0  0  0  0  0  0  0  0  0  0  0
    9.8638  -16.9394   28.6806 C   0  0  0  0  0  0  0  0  0  0  0  0
    9.4948  -17.6822   27.4502 C   0  0  0  0  0  0  0  0  0  0  0  0
    7.9913  -17.6731   27.2280 C   0  0  2  0  0  0  0  0  0  0  0  0
    7.5425  -19.0306   27.2371 N   0  0  0  0  0  0  0  0  0  0  0  0
    7.7454  -16.9831   25.9439 C   0  0  0  0  0  0  0  0  0  0  0  0
    7.3027  -17.6292   24.9668 O   0  0  0  0  0  0  0  0  0  0  0  0
   10.0457  -15.5728   28.6657 C   0  0  0  0  0  0  0  0  0  0  0  0
   10.3852  -14.8786   29.7919 C   0  0  0  0  0  0  0  0  0  0  0  0
    6.5631  -11.8077   26.2434 C   0  0  0  0  0  0  0  0  0  0  0  0
    6.2243  -13.0294   25.4136 C   0  0  0  0  0  0  0  0  0  0  0  0
    7.3469  -13.4875   24.5417 C   0  0  2  0  0  0  0  0  0  0  0  0
    7.2667  -12.8566   23.1444 C   0  0  0  0  0  0  0  0  0  0  0  0
    7.6915  -14.9022   24.5231 C   0  0  2  0  0  0  0  0  0  0  0  0
    7.9663  -15.6222   25.6973 N   0  0  0  0  0  0  0  0  0  0  0  0
    8.6737  -15.1867   23.4296 C   0  0  0  0  0  0  0  0  0  0  0  0
    9.8837  -14.8294   23.5285 O   0  0  0  0  0  0  0  0  0  0  0  0
    8.3153  -15.8581   22.2385 N   0  0  0  0  0  0  0  0  0  0  0  0
    9.3101  -16.3166   21.2933 C   0  0  1  0  0  0  0  0  0  0  0  0
    8.7249  -17.4146   20.4373 C   0  0  0  0  0  0  0  0  0  0  0  0
    8.7943  -18.7747   21.0463 C   0  0  0  0  0  0  0  0  0  0  0  0
    8.2013  -19.8322   20.1447 C   0  0  0  0  0  0  0  0  0  0  0  0
    8.1971  -21.1982   20.7585 C   0  0  0  0  0  0  0  0  0  0  0  0
    7.4584  -22.1285   19.9062 N   0  0  0  0  0  0  0  0  0  0  0  0
    9.6642  -15.1803   20.3462 C   0  0  0  0  0  0  0  0  0  0  0  0
    8.9079  -14.0261   20.3009 O   0  0  0  0  0  0  0  0  0  0  0  0
   10.6582  -15.2865   19.5911 O   0  0  0  0  0  0  0  0  0  0  0  0
  2  1  1  0
  3  2  2  0
  4  3  1  0
  5 11  1  0
  5  4  2  0
  6  5  1  0
  7  6  1  0
  7  8  1  6
  9 10  2  0
  9  7  1  0
 11 12  2  0
 12  2  1  0
 14 13  1  0
 15 17  1  0
 15 14  1  0
 15 16  1  6
 17 18  1  1
 18  9  1  0
 19 17  1  0
 20 19  2  0
 21 19  1  0
 22 21  1  0
 22 23  1  6
 23 24  1  0
 24 25  1  0
 25 26  1  0
 27 26  1  0
 28 29  1  0
 28 22  1  0
 30 28  2  0
M  END
$$$$
