YIK.pdb
     RDKit          3D

 30 30  0  0  1  0  0  0  0  0999 V2000
    5.4882  -10.5126   28.5145 O   0  0  0  0  0  0  0  0  0  0  0  0
    6.0704  -11.5744   27.8521 C   0  0  0  0  0  0  0  0  0  0  0  0
    7.1180  -12.2431   28.4069 C   0  0  0  0  0  0  0  0  0  0  0  0
    7.6955  -13.3002   27.7443 C   0  0  0  0  0  0  0  0  0  0  0  0
    7.2367  -13.7087   26.5150 C   0  0  0  0  0  0  0  0  0  0  0  0
    7.8558  -14.8490   25.7952 C   0  0  0  0  0  0  0  0  0  0  0  0
    6.8226  -15.6257   24.9958 C   0  0  2  0  0  0  0  0  0  0  0  0
    6.3766  -16.7163   25.8057 N   0  0  0  0  0  0  0  0  0  0  0  0
    7.4763  -16.0561   23.7417 C   0  0  0  0  0  0  0  0  0  0  0  0
    7.7414  -17.2671   23.5637 O   0  0  0  0  0  0  0  0  0  0  0  0
    6.1747  -13.0130   25.9774 C   0  0  0  0  0  0  0  0  0  0  0  0
    5.5967  -11.9620   26.6308 C   0  0  0  0  0  0  0  0  0  0  0  0
    8.8499  -12.6753   18.9261 C   0  0  0  0  0  0  0  0  0  0  0  0
    9.1357  -13.5147   20.1548 C   0  0  0  0  0  0  0  0  0  0  0  0
    8.2664  -14.7239   20.2658 C   0  0  2  0  0  0  0  0  0  0  0  0
    6.8131  -14.4083   19.8845 C   0  0  0  0  0  0  0  0  0  0  0  0
    8.3885  -15.5730   21.4425 C   0  0  2  0  0  0  0  0  0  0  0  0
    7.8456  -15.2123   22.6866 N   0  0  0  0  0  0  0  0  0  0  0  0
    9.7804  -16.1124   21.5559 C   0  0  0  0  0  0  0  0  0  0  0  0
   10.6224  -15.5889   22.3423 O   0  0  0  0  0  0  0  0  0  0  0  0
   10.2328  -17.2194   20.8023 N   0  0  0  0  0  0  0  0  0  0  0  0
   11.5857  -17.7186   20.9185 C   0  0  1  0  0  0  0  0  0  0  0  0
   11.6068  -19.1965   20.6079 C   0  0  0  0  0  0  0  0  0  0  0  0
   10.9551  -20.0532   21.6407 C   0  0  0  0  0  0  0  0  0  0  0  0
   11.0772  -21.5243   21.3185 C   0  0  0  0  0  0  0  0  0  0  0  0
   10.5605  -22.4130   22.4075 C   0  0  0  0  0  0  0  0  0  0  0  0
   10.7493  -23.8160   22.0414 N   0  0  0  0  0  0  0  0  0  0  0  0
   12.4599  -17.0496   19.8688 C   0  0  0  0  0  0  0  0  0  0  0  0
   13.8307  -16.9819   20.0185 O   0  0  0  0  0  0  0  0  0  0  0  0
   11.9337  -16.5491   18.8480 O   0  0  0  0  0  0  0  0  0  0  0  0
  2  1  1  0
  3  2  2  0
  4  3  1  0
  5 11  1  0
  5  4  2  0
  6  5  1  0
  7  6  1  0
  7  8  1  1
  9 10  2  0
  9  7  1  0
 11 12  2  0
 12  2  1  0
 14 13  1  0
 15 17  1  0
 15 14  1  0
 15 16  1  1
 17 18  1  1
 18  9  1  0
 19 17  1  0
 20 19  2  0
 21 19  1  0
 22 21  1  0
 22 23  1  6
 23 24  1  0
 24 25  1  0
 25 26  1  0
 27 26  1  0
 28 29  1  0
 28 22  1  0
 30 28  2  0
M  END
$$$$
