YIK.pdb
     RDKit          3D

 30 30  0  0  1  0  0  0  0  0999 V2000
    7.2531  -13.7322   15.4574 O   0  0  0  0  0  0  0  0  0  0  0  0
    7.2905  -14.0235   16.8060 C   0  0  0  0  0  0  0  0  0  0  0  0
    7.5291  -13.0415   17.7177 C   0  0  0  0  0  0  0  0  0  0  0  0
    7.5656  -13.3353   19.0602 C   0  0  0  0  0  0  0  0  0  0  0  0
    7.3644  -14.6159   19.5166 C   0  0  0  0  0  0  0  0  0  0  0  0
    7.4025  -14.9390   20.9643 C   0  0  0  0  0  0  0  0  0  0  0  0
    8.7521  -14.5954   21.5728 C   0  0  2  0  0  0  0  0  0  0  0  0
    9.7561  -15.2761   20.8160 N   0  0  0  0  0  0  0  0  0  0  0  0
    8.7074  -15.0080   22.9917 C   0  0  0  0  0  0  0  0  0  0  0  0
    9.5330  -15.8462   23.4208 O   0  0  0  0  0  0  0  0  0  0  0  0
    7.1250  -15.5899   18.5706 C   0  0  0  0  0  0  0  0  0  0  0  0
    7.0874  -15.3043   17.2355 C   0  0  0  0  0  0  0  0  0  0  0  0
    5.6924  -11.5106   26.3841 C   0  0  0  0  0  0  0  0  0  0  0  0
    6.7758  -12.2036   25.5829 C   0  0  0  0  0  0  0  0  0  0  0  0
    7.1892  -13.5202   26.1538 C   0  0  2  0  0  0  0  0  0  0  0  0
    7.7144  -13.3707   27.5886 C   0  0  0  0  0  0  0  0  0  0  0  0
    7.9833  -14.4247   25.3341 C   0  0  2  0  0  0  0  0  0  0  0  0
    7.7973  -14.5373   23.9466 N   0  0  0  0  0  0  0  0  0  0  0  0
    8.1212  -15.7549   26.0069 C   0  0  0  0  0  0  0  0  0  0  0  0
    7.1078  -16.4730   26.2495 O   0  0  0  0  0  0  0  0  0  0  0  0
    9.3705  -16.2806   26.4081 N   0  0  0  0  0  0  0  0  0  0  0  0
    9.4798  -17.5575   27.0795 C   0  0  1  0  0  0  0  0  0  0  0  0
   10.5074  -18.4116   26.3756 C   0  0  0  0  0  0  0  0  0  0  0  0
   10.2277  -18.6468   24.9293 C   0  0  0  0  0  0  0  0  0  0  0  0
   11.2704  -19.5304   24.2851 C   0  0  0  0  0  0  0  0  0  0  0  0
   11.0105  -19.7898   22.8332 C   0  0  0  0  0  0  0  0  0  0  0  0
   12.0695  -20.6305   22.2767 N   0  0  0  0  0  0  0  0  0  0  0  0
   10.0013  -17.3394   28.4916 C   0  0  0  0  0  0  0  0  0  0  0  0
   10.0218  -18.3680   29.4123 O   0  0  0  0  0  0  0  0  0  0  0  0
   10.4213  -16.2094   28.8322 O   0  0  0  0  0  0  0  0  0  0  0  0
  2  1  1  0
  3  2  2  0
  4  3  1  0
  5 11  1  0
  5  4  2  0
  6  5  1  0
  7  6  1  0
  7  8  1  6
  9 10  2  0
  9  7  1  0
 11 12  2  0
 12  2  1  0
 14 13  1  0
 15 17  1  0
 15 14  1  0
 15 16  1  1
 17 18  1  6
 18  9  1  0
 19 17  1  0
 20 19  2  0
 21 19  1  0
 22 21  1  0
 22 23  1  6
 23 24  1  0
 24 25  1  0
 25 26  1  0
 27 26  1  0
 28 29  1  0
 28 22  1  0
 30 28  2  0
M  END
$$$$
