YIK.pdb
     RDKit          3D

 30 30  0  0  1  0  0  0  0  0999 V2000
    5.3250  -10.1907   28.0567 O   0  0  0  0  0  0  0  0  0  0  0  0
    5.9783  -11.2428   27.4474 C   0  0  0  0  0  0  0  0  0  0  0  0
    5.5639  -11.7035   26.2356 C   0  0  0  0  0  0  0  0  0  0  0  0
    6.2169  -12.7516   25.6315 C   0  0  0  0  0  0  0  0  0  0  0  0
    7.2963  -13.3588   26.2273 C   0  0  0  0  0  0  0  0  0  0  0  0
    8.0052  -14.4903   25.5801 C   0  0  0  0  0  0  0  0  0  0  0  0
    7.0349  -15.4135   24.8618 C   0  0  2  0  0  0  0  0  0  0  0  0
    6.6364  -16.4292   25.7860 N   0  0  0  0  0  0  0  0  0  0  0  0
    7.7374  -15.9445   23.6744 C   0  0  0  0  0  0  0  0  0  0  0  0
    8.1958  -17.1098   23.6938 O   0  0  0  0  0  0  0  0  0  0  0  0
    7.6937  -12.8713   27.4542 C   0  0  0  0  0  0  0  0  0  0  0  0
    7.0490  -11.8303   28.0593 C   0  0  0  0  0  0  0  0  0  0  0  0
    7.6811  -12.6534   19.5584 C   0  0  0  0  0  0  0  0  0  0  0  0
    7.3416  -14.1160   19.7618 C   0  0  0  0  0  0  0  0  0  0  0  0
    8.5316  -14.9685   20.0572 C   0  0  2  0  0  0  0  0  0  0  0  0
    8.9468  -15.7974   18.8334 C   0  0  0  0  0  0  0  0  0  0  0  0
    8.5697  -15.7154   21.3067 C   0  0  2  0  0  0  0  0  0  0  0  0
    7.9521  -15.2482   22.4783 N   0  0  0  0  0  0  0  0  0  0  0  0
    9.9461  -16.2497   21.5546 C   0  0  0  0  0  0  0  0  0  0  0  0
   10.8606  -15.5093   22.0207 O   0  0  0  0  0  0  0  0  0  0  0  0
   10.3035  -17.5905   21.2853 N   0  0  0  0  0  0  0  0  0  0  0  0
   11.6299  -18.0963   21.5645 C   0  0  1  0  0  0  0  0  0  0  0  0
   11.5249  -19.4482   22.2295 C   0  0  0  0  0  0  0  0  0  0  0  0
   10.9487  -19.4159   23.6051 C   0  0  0  0  0  0  0  0  0  0  0  0
   10.9269  -20.7846   24.2447 C   0  0  0  0  0  0  0  0  0  0  0  0
   10.2333  -20.8063   25.5718 C   0  0  0  0  0  0  0  0  0  0  0  0
   10.2469  -22.1607   26.1225 N   0  0  0  0  0  0  0  0  0  0  0  0
   12.3677  -18.3219   20.2537 C   0  0  0  0  0  0  0  0  0  0  0  0
   13.7289  -18.1131   20.1550 O   0  0  0  0  0  0  0  0  0  0  0  0
   11.7357  -18.7039   19.2417 O   0  0  0  0  0  0  0  0  0  0  0  0
  2  1  1  0
  3  2  2  0
  4  3  1  0
  5 11  1  0
  5  4  2  0
  6  5  1  0
  7  6  1  0
  7  8  1  1
  9 10  2  0
  9  7  1  0
 11 12  2  0
 12  2  1  0
 14 13  1  0
 15 17  1  0
 15 14  1  0
 15 16  1  6
 17 18  1  1
 18  9  1  0
 19 17  1  0
 20 19  2  0
 21 19  1  0
 22 21  1  0
 22 23  1  6
 23 24  1  0
 24 25  1  0
 25 26  1  0
 27 26  1  0
 28 29  1  0
 28 22  1  0
 30 28  2  0
M  END
$$$$
