YIK.pdb
     RDKit          3D

 30 30  0  0  1  0  0  0  0  0999 V2000
   10.8768  -15.2842   31.0447 O   0  0  0  0  0  0  0  0  0  0  0  0
   10.4180  -15.0282   29.7685 C   0  0  0  0  0  0  0  0  0  0  0  0
   10.5775  -15.9501   28.7800 C   0  0  0  0  0  0  0  0  0  0  0  0
   10.1193  -15.6919   27.5099 C   0  0  0  0  0  0  0  0  0  0  0  0
    9.4929  -14.5075   27.2039 C   0  0  0  0  0  0  0  0  0  0  0  0
    8.9961  -14.2232   25.8350 C   0  0  0  0  0  0  0  0  0  0  0  0
    7.8462  -15.1440   25.4611 C   0  0  2  0  0  0  0  0  0  0  0  0
    7.7716  -16.1710   26.4531 N   0  0  0  0  0  0  0  0  0  0  0  0
    8.1252  -15.6594   24.1039 C   0  0  0  0  0  0  0  0  0  0  0  0
    8.1940  -16.8949   23.9110 O   0  0  0  0  0  0  0  0  0  0  0  0
    9.3452  -13.5926   28.2247 C   0  0  0  0  0  0  0  0  0  0  0  0
    9.7984  -13.8434   29.4886 C   0  0  0  0  0  0  0  0  0  0  0  0
    7.3848  -12.1398   20.0911 C   0  0  0  0  0  0  0  0  0  0  0  0
    7.0833  -13.5611   20.5212 C   0  0  0  0  0  0  0  0  0  0  0  0
    8.2767  -14.4583   20.4925 C   0  0  2  0  0  0  0  0  0  0  0  0
    8.3974  -15.1903   19.1483 C   0  0  0  0  0  0  0  0  0  0  0  0
    8.5470  -15.3073   21.6443 C   0  0  2  0  0  0  0  0  0  0  0  0
    8.3292  -14.8740   22.9624 N   0  0  0  0  0  0  0  0  0  0  0  0
    9.8575  -16.0118   21.4785 C   0  0  0  0  0  0  0  0  0  0  0  0
   10.9449  -15.4566   21.8115 O   0  0  0  0  0  0  0  0  0  0  0  0
    9.9594  -17.3173   20.9462 N   0  0  0  0  0  0  0  0  0  0  0  0
   11.2398  -17.9596   20.7429 C   0  0  1  0  0  0  0  0  0  0  0  0
   11.1953  -19.3621   21.3013 C   0  0  0  0  0  0  0  0  0  0  0  0
   11.0530  -19.4311   22.7847 C   0  0  0  0  0  0  0  0  0  0  0  0
   11.0187  -20.8558   23.2868 C   0  0  0  0  0  0  0  0  0  0  0  0
   10.9333  -20.9551   24.7786 C   0  0  0  0  0  0  0  0  0  0  0  0
   10.6978  -22.3424   25.1760 N   0  0  0  0  0  0  0  0  0  0  0  0
   11.4986  -18.1025   19.2508 C   0  0  0  0  0  0  0  0  0  0  0  0
   12.7710  -18.3291   18.7650 O   0  0  0  0  0  0  0  0  0  0  0  0
   10.5454  -18.0144   18.4427 O   0  0  0  0  0  0  0  0  0  0  0  0
  2  1  1  0
  3  2  2  0
  4  3  1  0
  5 11  1  0
  5  4  2  0
  6  5  1  0
  7  6  1  0
  7  8  1  1
  9 10  2  0
  9  7  1  0
 11 12  2  0
 12  2  1  0
 14 13  1  0
 15 17  1  0
 15 14  1  0
 15 16  1  6
 17 18  1  1
 18  9  1  0
 19 17  1  0
 20 19  2  0
 21 19  1  0
 22 21  1  0
 22 23  1  1
 23 24  1  0
 24 25  1  0
 25 26  1  0
 27 26  1  0
 28 29  1  0
 28 22  1  0
 30 28  2  0
M  END
$$$$
