YIK.pdb
     RDKit          3D

 30 30  0  0  1  0  0  0  0  0999 V2000
    2.0803  -19.7649   19.0958 O   0  0  0  0  0  0  0  0  0  0  0  0
    3.0760  -19.2756   19.9169 C   0  0  0  0  0  0  0  0  0  0  0  0
    2.7614  -18.5952   21.0529 C   0  0  0  0  0  0  0  0  0  0  0  0
    3.7557  -18.1092   21.8684 C   0  0  0  0  0  0  0  0  0  0  0  0
    5.0830  -18.2941   21.5638 C   0  0  0  0  0  0  0  0  0  0  0  0
    6.1605  -17.7721   22.4401 C   0  0  0  0  0  0  0  0  0  0  0  0
    6.5159  -16.3375   22.0859 C   0  0  2  0  0  0  0  0  0  0  0  0
    7.1332  -16.3484   20.7962 N   0  0  0  0  0  0  0  0  0  0  0  0
    7.4023  -15.8319   23.1556 C   0  0  0  0  0  0  0  0  0  0  0  0
    8.6434  -15.9565   23.0440 O   0  0  0  0  0  0  0  0  0  0  0  0
    5.3719  -18.9868   20.4072 C   0  0  0  0  0  0  0  0  0  0  0  0
    4.3884  -19.4720   19.5929 C   0  0  0  0  0  0  0  0  0  0  0  0
    5.6884  -11.6865   26.2941 C   0  0  0  0  0  0  0  0  0  0  0  0
    6.7790  -12.3671   25.4922 C   0  0  0  0  0  0  0  0  0  0  0  0
    7.3707  -13.5541   26.1786 C   0  0  2  0  0  0  0  0  0  0  0  0
    8.4177  -13.1366   27.2210 C   0  0  0  0  0  0  0  0  0  0  0  0
    7.7717  -14.7027   25.3782 C   0  0  2  0  0  0  0  0  0  0  0  0
    6.9782  -15.2007   24.3317 N   0  0  0  0  0  0  0  0  0  0  0  0
    8.3151  -15.7872   26.2555 C   0  0  0  0  0  0  0  0  0  0  0  0
    7.5508  -16.4785   26.9900 O   0  0  0  0  0  0  0  0  0  0  0  0
    9.6925  -16.0987   26.3183 N   0  0  0  0  0  0  0  0  0  0  0  0
   10.1828  -17.2384   27.0625 C   0  0  1  0  0  0  0  0  0  0  0  0
   11.3062  -17.8960   26.2965 C   0  0  0  0  0  0  0  0  0  0  0  0
   10.9065  -18.4511   24.9708 C   0  0  0  0  0  0  0  0  0  0  0  0
   12.0641  -19.1113   24.2587 C   0  0  0  0  0  0  0  0  0  0  0  0
   11.7244  -19.5650   22.8725 C   0  0  0  0  0  0  0  0  0  0  0  0
   12.9051  -20.1406   22.2300 N   0  0  0  0  0  0  0  0  0  0  0  0
   10.7843  -16.7601   28.3751 C   0  0  0  0  0  0  0  0  0  0  0  0
   11.1425  -17.6541   29.3645 O   0  0  0  0  0  0  0  0  0  0  0  0
   10.9607  -15.5351   28.5690 O   0  0  0  0  0  0  0  0  0  0  0  0
  2  1  1  0
  3  2  2  0
  4  3  1  0
  5 11  1  0
  5  4  2  0
  6  5  1  0
  7  6  1  0
  7  8  1  6
  9 10  2  0
  9  7  1  0
 11 12  2  0
 12  2  1  0
 14 13  1  0
 15 17  1  0
 15 14  1  0
 15 16  1  6
 17 18  1  1
 18  9  1  0
 19 17  1  0
 20 19  2  0
 21 19  1  0
 22 21  1  0
 22 23  1  6
 23 24  1  0
 24 25  1  0
 25 26  1  0
 27 26  1  0
 28 29  1  0
 28 22  1  0
 30 28  2  0
M  END
$$$$
