YIK.pdb
     RDKit          3D

 30 30  0  0  1  0  0  0  0  0999 V2000
    7.4921  -24.4082   16.7660 O   0  0  0  0  0  0  0  0  0  0  0  0
    7.8421  -23.3513   17.5817 C   0  0  0  0  0  0  0  0  0  0  0  0
    6.9443  -22.3666   17.8586 C   0  0  0  0  0  0  0  0  0  0  0  0
    7.2963  -21.3153   18.6714 C   0  0  0  0  0  0  0  0  0  0  0  0
    8.5522  -21.2285   19.2227 C   0  0  0  0  0  0  0  0  0  0  0  0
    8.9378  -20.0963   20.1009 C   0  0  0  0  0  0  0  0  0  0  0  0
    9.2326  -18.8438   19.2921 C   0  0  2  0  0  0  0  0  0  0  0  0
   10.3530  -19.1243   18.4494 N   0  0  0  0  0  0  0  0  0  0  0  0
    9.4835  -17.7519   20.2567 C   0  0  0  0  0  0  0  0  0  0  0  0
   10.6012  -17.6608   20.8141 O   0  0  0  0  0  0  0  0  0  0  0  0
    9.4406  -22.2399   18.9251 C   0  0  0  0  0  0  0  0  0  0  0  0
    9.0968  -23.2869   18.1182 C   0  0  0  0  0  0  0  0  0  0  0  0
    7.0092  -12.5695   20.1179 C   0  0  0  0  0  0  0  0  0  0  0  0
    7.9320  -13.7713   20.1220 C   0  0  0  0  0  0  0  0  0  0  0  0
    8.0016  -14.4646   21.4429 C   0  0  2  0  0  0  0  0  0  0  0  0
    8.3087  -13.4792   22.5794 C   0  0  0  0  0  0  0  0  0  0  0  0
    8.7384  -15.7167   21.5428 C   0  0  2  0  0  0  0  0  0  0  0  0
    8.5597  -16.7665   20.6270 N   0  0  0  0  0  0  0  0  0  0  0  0
    8.7743  -16.1904   22.9625 C   0  0  0  0  0  0  0  0  0  0  0  0
    7.7295  -16.6152   23.5365 O   0  0  0  0  0  0  0  0  0  0  0  0
    9.9568  -16.1897   23.7368 N   0  0  0  0  0  0  0  0  0  0  0  0
    9.9788  -16.6881   25.0948 C   0  0  1  0  0  0  0  0  0  0  0  0
   10.8184  -17.9418   25.1589 C   0  0  0  0  0  0  0  0  0  0  0  0
   10.8240  -18.6130   26.4911 C   0  0  0  0  0  0  0  0  0  0  0  0
   11.8115  -19.7552   26.5480 C   0  0  0  0  0  0  0  0  0  0  0  0
   11.7573  -20.5202   27.8343 C   0  0  0  0  0  0  0  0  0  0  0  0
   12.6439  -21.6809   27.7649 N   0  0  0  0  0  0  0  0  0  0  0  0
   10.6641  -15.6694   25.9927 C   0  0  0  0  0  0  0  0  0  0  0  0
   11.3370  -14.5871   25.4614 O   0  0  0  0  0  0  0  0  0  0  0  0
   10.6214  -15.8083   27.2370 O   0  0  0  0  0  0  0  0  0  0  0  0
  2  1  1  0
  3  2  2  0
  4  3  1  0
  5 11  1  0
  5  4  2  0
  6  5  1  0
  7  6  1  0
  7  8  1  1
  9 10  2  0
  9  7  1  0
 11 12  2  0
 12  2  1  0
 14 13  1  0
 15 17  1  0
 15 14  1  0
 15 16  1  1
 17 18  1  6
 18  9  1  0
 19 17  1  0
 20 19  2  0
 21 19  1  0
 22 21  1  0
 22 23  1  6
 23 24  1  0
 24 25  1  0
 25 26  1  0
 27 26  1  0
 28 29  1  0
 28 22  1  0
 30 28  2  0
M  END
$$$$
