YIK.pdb
     RDKit          3D

 30 30  0  0  1  0  0  0  0  0999 V2000
   10.5756  -13.9672   31.1357 O   0  0  0  0  0  0  0  0  0  0  0  0
   10.3670  -14.4150   29.8470 C   0  0  0  0  0  0  0  0  0  0  0  0
   10.5926  -15.7179   29.5242 C   0  0  0  0  0  0  0  0  0  0  0  0
   10.3838  -16.1605   28.2395 C   0  0  0  0  0  0  0  0  0  0  0  0
    9.9457  -15.3093   27.2534 C   0  0  0  0  0  0  0  0  0  0  0  0
    9.7184  -15.7813   25.8652 C   0  0  0  0  0  0  0  0  0  0  0  0
    8.2595  -15.6385   25.4638 C   0  0  2  0  0  0  0  0  0  0  0  0
    7.4935  -16.5197   26.2891 N   0  0  0  0  0  0  0  0  0  0  0  0
    8.1710  -15.9596   24.0235 C   0  0  0  0  0  0  0  0  0  0  0  0
    7.8435  -17.1135   23.6637 O   0  0  0  0  0  0  0  0  0  0  0  0
    9.7256  -13.9956   27.6092 C   0  0  0  0  0  0  0  0  0  0  0  0
    9.9312  -13.5499   28.8838 C   0  0  0  0  0  0  0  0  0  0  0  0
    7.6523  -11.8636   20.6806 C   0  0  0  0  0  0  0  0  0  0  0  0
    7.1730  -13.2945   20.8177 C   0  0  0  0  0  0  0  0  0  0  0  0
    8.2479  -14.3069   20.5945 C   0  0  2  0  0  0  0  0  0  0  0  0
    8.2253  -14.8426   19.1558 C   0  0  0  0  0  0  0  0  0  0  0  0
    8.4604  -15.3409   21.5976 C   0  0  2  0  0  0  0  0  0  0  0  0
    8.4268  -15.0672   22.9748 N   0  0  0  0  0  0  0  0  0  0  0  0
    9.6132  -16.2146   21.2117 C   0  0  0  0  0  0  0  0  0  0  0  0
   10.7849  -15.9705   21.6230 O   0  0  0  0  0  0  0  0  0  0  0  0
    9.4667  -17.3453   20.3762 N   0  0  0  0  0  0  0  0  0  0  0  0
   10.5901  -18.1899   20.0331 C   0  0  1  0  0  0  0  0  0  0  0  0
   10.1710  -19.1817   18.9740 C   0  0  0  0  0  0  0  0  0  0  0  0
   11.2432  -20.1333   18.5614 C   0  0  0  0  0  0  0  0  0  0  0  0
   10.7898  -21.0546   17.4530 C   0  0  0  0  0  0  0  0  0  0  0  0
   11.8207  -22.0712   17.0701 C   0  0  0  0  0  0  0  0  0  0  0  0
   11.3628  -22.8380   15.9124 N   0  0  0  0  0  0  0  0  0  0  0  0
   11.6866  -17.3390   19.4106 C   0  0  0  0  0  0  0  0  0  0  0  0
   11.3889  -16.3431   18.5019 O   0  0  0  0  0  0  0  0  0  0  0  0
   12.8830  -17.5397   19.7233 O   0  0  0  0  0  0  0  0  0  0  0  0
  2  1  1  0
  3  2  2  0
  4  3  1  0
  5 11  1  0
  5  4  2  0
  6  5  1  0
  7  6  1  0
  7  8  1  1
  9 10  2  0
  9  7  1  0
 11 12  2  0
 12  2  1  0
 14 13  1  0
 15 17  1  0
 15 14  1  0
 15 16  1  6
 17 18  1  1
 18  9  1  0
 19 17  1  0
 20 19  2  0
 21 19  1  0
 22 21  1  0
 22 23  1  6
 23 24  1  0
 24 25  1  0
 25 26  1  0
 27 26  1  0
 28 29  1  0
 28 22  1  0
 30 28  2  0
M  END
$$$$
