SFT.pdb
     RDKit          3D

 25 25  0  0  1  0  0  0  0  0999 V2000
    9.9093  -18.8144   21.4663 O   0  0  0  0  0  0  0  0  0  0  0  0
    8.9381  -18.1730   20.6768 C   0  0  0  0  0  0  0  0  0  0  0  0
    9.4114  -16.7548   20.4820 C   0  0  2  0  0  0  0  0  0  0  0  0
   10.6806  -16.7828   19.7796 N   0  0  0  0  0  0  0  0  0  0  0  0
    9.5479  -16.0485   21.7809 C   0  0  0  0  0  0  0  0  0  0  0  0
   10.6421  -15.7811   22.3370 O   0  0  0  0  0  0  0  0  0  0  0  0
    8.3544  -15.6478   22.4389 N   0  0  0  0  0  0  0  0  0  0  0  0
    8.3515  -14.9395   23.6943 C   0  0  1  0  0  0  0  0  0  0  0  0
    7.0887  -14.1683   23.9241 C   0  0  0  0  0  0  0  0  0  0  0  0
    7.0755  -13.3596   25.1636 C   0  0  0  0  0  0  0  0  0  0  0  0
    5.9455  -13.3534   25.9904 C   0  0  0  0  0  0  0  0  0  0  0  0
    5.8796  -12.6329   27.1625 C   0  0  0  0  0  0  0  0  0  0  0  0
    6.9601  -11.8780   27.5592 C   0  0  0  0  0  0  0  0  0  0  0  0
    8.0960  -11.8526   26.7776 C   0  0  0  0  0  0  0  0  0  0  0  0
    8.1374  -12.5931   25.5926 C   0  0  0  0  0  0  0  0  0  0  0  0
    8.5297  -15.9263   24.7777 C   0  0  0  0  0  0  0  0  0  0  0  0
    7.6957  -16.8288   25.0409 O   0  0  0  0  0  0  0  0  0  0  0  0
   11.0877  -18.2547   24.8531 C   0  0  0  0  0  0  0  0  0  0  0  0
   11.2550  -17.6574   26.2348 C   0  0  1  0  0  0  0  0  0  0  0  0
   12.2757  -16.7043   26.1422 O   0  0  0  0  0  0  0  0  0  0  0  0
    9.9844  -16.9049   26.5649 C   0  0  2  0  0  0  0  0  0  0  0  0
    9.7002  -15.8757   25.5836 N   0  0  0  0  0  0  0  0  0  0  0  0
   10.0359  -16.3448   27.9390 C   0  0  0  0  0  0  0  0  0  0  0  0
   10.2149  -17.1628   29.0355 O   0  0  0  0  0  0  0  0  0  0  0  0
    9.9159  -15.1100   28.1161 O   0  0  0  0  0  0  0  0  0  0  0  0
  2  1  1  0
  3  5  1  0
  3  2  1  0
  3  4  1  1
  5  6  2  0
  7  5  1  0
  8  7  1  0
  8  9  1  1
  9 10  1  0
 10 15  2  0
 11 10  1  0
 11 12  2  0
 12 13  1  0
 13 14  2  0
 15 14  1  0
 16  8  1  0
 17 16  2  0
 19 18  1  6
 19 21  1  0
 20 19  1  0
 21 23  1  0
 21 22  1  6
 22 16  1  0
 23 24  1  0
 25 23  2  0
M  END
$$$$
