SFT.pdb
     RDKit          3D

 25 25  0  0  1  0  0  0  0  0999 V2000
    8.0889  -19.0867   21.4659 O   0  0  0  0  0  0  0  0  0  0  0  0
    8.4017  -18.4832   20.2347 C   0  0  0  0  0  0  0  0  0  0  0  0
    7.7363  -17.1303   20.2386 C   0  0  2  0  0  0  0  0  0  0  0  0
    7.9990  -16.4816   18.9677 N   0  0  0  0  0  0  0  0  0  0  0  0
    8.2233  -16.2928   21.3638 C   0  0  0  0  0  0  0  0  0  0  0  0
    9.2709  -15.6001   21.3372 O   0  0  0  0  0  0  0  0  0  0  0  0
    7.4472  -16.2758   22.5534 N   0  0  0  0  0  0  0  0  0  0  0  0
    7.8181  -15.5154   23.7205 C   0  0  1  0  0  0  0  0  0  0  0  0
    6.6344  -15.0190   24.4917 C   0  0  0  0  0  0  0  0  0  0  0  0
    6.9612  -14.0815   25.5894 C   0  0  0  0  0  0  0  0  0  0  0  0
    7.3644  -14.5697   26.8382 C   0  0  0  0  0  0  0  0  0  0  0  0
    7.6950  -13.7470   27.8923 C   0  0  0  0  0  0  0  0  0  0  0  0
    7.6337  -12.3809   27.7348 C   0  0  0  0  0  0  0  0  0  0  0  0
    7.2421  -11.8527   26.5227 C   0  0  0  0  0  0  0  0  0  0  0  0
    6.9120  -12.7095   25.4686 C   0  0  0  0  0  0  0  0  0  0  0  0
    8.6432  -16.3797   24.5874 C   0  0  0  0  0  0  0  0  0  0  0  0
    8.2452  -17.4741   25.0600 O   0  0  0  0  0  0  0  0  0  0  0  0
   12.0034  -17.3066   23.5675 C   0  0  0  0  0  0  0  0  0  0  0  0
   12.2146  -16.9478   25.0238 C   0  0  1  0  0  0  0  0  0  0  0  0
   12.7701  -15.6634   25.0470 O   0  0  0  0  0  0  0  0  0  0  0  0
   10.8512  -16.8450   25.6720 C   0  0  2  0  0  0  0  0  0  0  0  0
    9.9649  -15.9758   24.9223 N   0  0  0  0  0  0  0  0  0  0  0  0
   10.9633  -16.4139   27.0884 C   0  0  0  0  0  0  0  0  0  0  0  0
   11.6762  -17.1586   28.0053 O   0  0  0  0  0  0  0  0  0  0  0  0
   10.4049  -15.3579   27.4670 O   0  0  0  0  0  0  0  0  0  0  0  0
  2  1  1  0
  3  5  1  0
  3  2  1  0
  3  4  1  6
  5  6  2  0
  7  5  1  0
  8  7  1  0
  8  9  1  1
  9 10  1  0
 10 15  2  0
 11 10  1  0
 11 12  2  0
 12 13  1  0
 13 14  2  0
 15 14  1  0
 16  8  1  0
 17 16  2  0
 19 18  1  6
 19 21  1  0
 20 19  1  0
 21 23  1  0
 21 22  1  6
 22 16  1  0
 23 24  1  0
 25 23  2  0
M  END
$$$$
