SFT.pdb
     RDKit          3D

 25 25  0  0  1  0  0  0  0  0999 V2000
    8.8443  -19.6471   21.2026 O   0  0  0  0  0  0  0  0  0  0  0  0
    7.5414  -19.1913   20.9334 C   0  0  0  0  0  0  0  0  0  0  0  0
    7.6633  -17.7329   20.5708 C   0  0  2  0  0  0  0  0  0  0  0  0
    8.5059  -17.6170   19.3954 N   0  0  0  0  0  0  0  0  0  0  0  0
    8.2235  -16.9422   21.6959 C   0  0  0  0  0  0  0  0  0  0  0  0
    9.3861  -16.4674   21.7259 O   0  0  0  0  0  0  0  0  0  0  0  0
    7.3825  -16.7078   22.8164 N   0  0  0  0  0  0  0  0  0  0  0  0
    7.7746  -15.8834   23.9319 C   0  0  1  0  0  0  0  0  0  0  0  0
    6.6154  -15.1913   24.5795 C   0  0  0  0  0  0  0  0  0  0  0  0
    6.9881  -14.1755   25.5894 C   0  0  0  0  0  0  0  0  0  0  0  0
    7.0664  -12.8232   25.2349 C   0  0  0  0  0  0  0  0  0  0  0  0
    7.3936  -11.8317   26.1334 C   0  0  0  0  0  0  0  0  0  0  0  0
    7.6596  -12.1606   27.4432 C   0  0  0  0  0  0  0  0  0  0  0  0
    7.5948  -13.4798   27.8400 C   0  0  0  0  0  0  0  0  0  0  0  0
    7.2602  -14.4670   26.9086 C   0  0  0  0  0  0  0  0  0  0  0  0
    8.4500  -16.7444   24.9229 C   0  0  0  0  0  0  0  0  0  0  0  0
    7.9213  -17.7631   25.4348 O   0  0  0  0  0  0  0  0  0  0  0  0
   11.4954  -18.3841   24.1841 C   0  0  0  0  0  0  0  0  0  0  0  0
   11.8381  -17.7373   25.5101 C   0  0  1  0  0  0  0  0  0  0  0  0
   12.5260  -16.5542   25.2168 O   0  0  0  0  0  0  0  0  0  0  0  0
   10.5385  -17.3335   26.1716 C   0  0  2  0  0  0  0  0  0  0  0  0
    9.7720  -16.4265   25.3392 N   0  0  0  0  0  0  0  0  0  0  0  0
   10.7799  -16.7597   27.5195 C   0  0  0  0  0  0  0  0  0  0  0  0
   11.3778  -17.5053   28.5145 O   0  0  0  0  0  0  0  0  0  0  0  0
   10.4387  -15.5796   27.7673 O   0  0  0  0  0  0  0  0  0  0  0  0
  2  1  1  0
  3  5  1  0
  3  2  1  0
  3  4  1  6
  5  6  2  0
  7  5  1  0
  8  7  1  0
  8  9  1  1
  9 10  1  0
 10 15  2  0
 11 10  1  0
 11 12  2  0
 12 13  1  0
 13 14  2  0
 15 14  1  0
 16  8  1  0
 17 16  2  0
 19 18  1  6
 19 21  1  0
 20 19  1  0
 21 23  1  0
 21 22  1  6
 22 16  1  0
 23 24  1  0
 25 23  2  0
M  END
$$$$
