SFT.pdb
     RDKit          3D

 25 25  0  0  1  0  0  0  0  0999 V2000
    8.4479  -19.7136   21.4830 O   0  0  0  0  0  0  0  0  0  0  0  0
    7.0435  -19.7263   21.4096 C   0  0  0  0  0  0  0  0  0  0  0  0
    6.6252  -18.3521   20.9515 C   0  0  2  0  0  0  0  0  0  0  0  0
    6.9576  -18.2116   19.5463 N   0  0  0  0  0  0  0  0  0  0  0  0
    7.2859  -17.2917   21.7538 C   0  0  0  0  0  0  0  0  0  0  0  0
    8.2795  -16.6235   21.3741 O   0  0  0  0  0  0  0  0  0  0  0  0
    6.7541  -17.0154   23.0417 N   0  0  0  0  0  0  0  0  0  0  0  0
    7.3420  -16.0567   23.9434 C   0  0  1  0  0  0  0  0  0  0  0  0
    6.3654  -15.5280   24.9478 C   0  0  0  0  0  0  0  0  0  0  0  0
    6.8561  -14.3788   25.7410 C   0  0  0  0  0  0  0  0  0  0  0  0
    7.3210  -14.5701   27.0478 C   0  0  0  0  0  0  0  0  0  0  0  0
    7.8027  -13.5427   27.8288 C   0  0  0  0  0  0  0  0  0  0  0  0
    7.8384  -12.2628   27.3237 C   0  0  0  0  0  0  0  0  0  0  0  0
    7.3913  -12.0248   26.0411 C   0  0  0  0  0  0  0  0  0  0  0  0
    6.9074  -13.0849   25.2690 C   0  0  0  0  0  0  0  0  0  0  0  0
    8.4621  -16.7144   24.6449 C   0  0  0  0  0  0  0  0  0  0  0  0
    8.3126  -17.6485   25.4723 O   0  0  0  0  0  0  0  0  0  0  0  0
   11.8352  -17.3028   22.7298 C   0  0  0  0  0  0  0  0  0  0  0  0
   12.1735  -16.8212   24.1254 C   0  0  1  0  0  0  0  0  0  0  0  0
   12.4317  -15.4491   24.0278 O   0  0  0  0  0  0  0  0  0  0  0  0
   10.9305  -16.9717   24.9751 C   0  0  2  0  0  0  0  0  0  0  0  0
    9.7942  -16.2871   24.3893 N   0  0  0  0  0  0  0  0  0  0  0  0
   11.1767  -16.5201   26.3680 C   0  0  0  0  0  0  0  0  0  0  0  0
   10.4093  -15.5271   26.9410 O   0  0  0  0  0  0  0  0  0  0  0  0
   12.0942  -17.0434   27.0422 O   0  0  0  0  0  0  0  0  0  0  0  0
  2  1  1  0
  3  5  1  0
  3  2  1  0
  3  4  1  6
  5  6  2  0
  7  5  1  0
  8  7  1  0
  8  9  1  1
  9 10  1  0
 10 15  2  0
 11 10  1  0
 11 12  2  0
 12 13  1  0
 13 14  2  0
 15 14  1  0
 16  8  1  0
 17 16  2  0
 19 18  1  6
 19 21  1  0
 20 19  1  0
 21 23  1  0
 21 22  1  6
 22 16  1  0
 23 24  1  0
 25 23  2  0
M  END
$$$$
