SFT.pdb
     RDKit          3D

 25 25  0  0  1  0  0  0  0  0999 V2000
    8.9221  -18.7011   20.2558 O   0  0  0  0  0  0  0  0  0  0  0  0
    7.7720  -18.0222   19.8150 C   0  0  0  0  0  0  0  0  0  0  0  0
    8.1858  -16.5939   19.5661 C   0  0  2  0  0  0  0  0  0  0  0  0
    9.2657  -16.5869   18.5972 N   0  0  0  0  0  0  0  0  0  0  0  0
    8.6074  -15.9273   20.8241 C   0  0  0  0  0  0  0  0  0  0  0  0
    9.8003  -15.7083   21.1512 O   0  0  0  0  0  0  0  0  0  0  0  0
    7.5869  -15.5087   21.7192 N   0  0  0  0  0  0  0  0  0  0  0  0
    7.8651  -14.8818   22.9871 C   0  0  1  0  0  0  0  0  0  0  0  0
    6.6919  -14.1287   23.5334 C   0  0  0  0  0  0  0  0  0  0  0  0
    6.9282  -13.4827   24.8439 C   0  0  0  0  0  0  0  0  0  0  0  0
    7.7323  -12.3399   24.9328 C   0  0  0  0  0  0  0  0  0  0  0  0
    7.9766  -11.6872   26.1210 C   0  0  0  0  0  0  0  0  0  0  0  0
    7.4164  -12.1610   27.2856 C   0  0  0  0  0  0  0  0  0  0  0  0
    6.6167  -13.2839   27.2482 C   0  0  0  0  0  0  0  0  0  0  0  0
    6.3843  -13.9277   26.0294 C   0  0  0  0  0  0  0  0  0  0  0  0
    8.2617  -15.9354   23.9421 C   0  0  0  0  0  0  0  0  0  0  0  0
    7.5832  -16.9712   24.1567 O   0  0  0  0  0  0  0  0  0  0  0  0
   11.8896  -18.3244   26.0319 C   0  0  0  0  0  0  0  0  0  0  0  0
   11.4429  -17.1790   25.1474 C   0  0  1  0  0  0  0  0  0  0  0  0
   11.4658  -17.6526   23.8306 O   0  0  0  0  0  0  0  0  0  0  0  0
    9.9966  -16.8822   25.4789 C   0  0  2  0  0  0  0  0  0  0  0  0
    9.4736  -15.7960   24.6729 N   0  0  0  0  0  0  0  0  0  0  0  0
    9.8243  -16.6133   26.9290 C   0  0  0  0  0  0  0  0  0  0  0  0
    9.6515  -17.6446   27.8290 O   0  0  0  0  0  0  0  0  0  0  0  0
    9.8346  -15.4338   27.3520 O   0  0  0  0  0  0  0  0  0  0  0  0
  2  1  1  0
  3  5  1  0
  3  2  1  0
  3  4  1  6
  5  6  2  0
  7  5  1  0
  8  7  1  0
  8  9  1  1
  9 10  1  0
 10 15  2  0
 11 10  1  0
 11 12  2  0
 12 13  1  0
 13 14  2  0
 15 14  1  0
 16  8  1  0
 17 16  2  0
 19 18  1  1
 19 21  1  0
 20 19  1  0
 21 23  1  0
 21 22  1  6
 22 16  1  0
 23 24  1  0
 25 23  2  0
M  END
$$$$
