SFT.pdb
     RDKit          3D

 25 25  0  0  1  0  0  0  0  0999 V2000
   10.0714  -18.7027   21.2008 O   0  0  0  0  0  0  0  0  0  0  0  0
    9.0840  -18.0321   20.4570 C   0  0  0  0  0  0  0  0  0  0  0  0
    9.5329  -16.5972   20.3433 C   0  0  2  0  0  0  0  0  0  0  0  0
   10.8076  -16.5645   19.6514 N   0  0  0  0  0  0  0  0  0  0  0  0
    9.6466  -15.9600   21.6796 C   0  0  0  0  0  0  0  0  0  0  0  0
   10.7313  -15.7128   22.2630 O   0  0  0  0  0  0  0  0  0  0  0  0
    8.4413  -15.6060   22.3429 N   0  0  0  0  0  0  0  0  0  0  0  0
    8.4165  -14.9086   23.6042 C   0  0  1  0  0  0  0  0  0  0  0  0
    7.1256  -14.1894   23.8457 C   0  0  0  0  0  0  0  0  0  0  0  0
    7.0843  -13.3968   25.0951 C   0  0  0  0  0  0  0  0  0  0  0  0
    6.2665  -13.7976   26.1586 C   0  0  0  0  0  0  0  0  0  0  0  0
    6.1972  -13.1096   27.3499 C   0  0  0  0  0  0  0  0  0  0  0  0
    6.9562  -11.9750   27.5259 C   0  0  0  0  0  0  0  0  0  0  0  0
    7.7774  -11.5409   26.5066 C   0  0  0  0  0  0  0  0  0  0  0  0
    7.8298  -12.2573   25.3074 C   0  0  0  0  0  0  0  0  0  0  0  0
    8.6381  -15.8965   24.6786 C   0  0  0  0  0  0  0  0  0  0  0  0
    7.8589  -16.8537   24.9153 O   0  0  0  0  0  0  0  0  0  0  0  0
   11.4040  -17.9790   24.7965 C   0  0  0  0  0  0  0  0  0  0  0  0
   11.4434  -17.4485   26.2146 C   0  0  1  0  0  0  0  0  0  0  0  0
   12.4047  -16.4316   26.2390 O   0  0  0  0  0  0  0  0  0  0  0  0
   10.1086  -16.7936   26.4954 C   0  0  2  0  0  0  0  0  0  0  0  0
    9.7886  -15.7823   25.5065 N   0  0  0  0  0  0  0  0  0  0  0  0
   10.0637  -16.2393   27.8722 C   0  0  0  0  0  0  0  0  0  0  0  0
    9.8690  -14.8911   28.0913 O   0  0  0  0  0  0  0  0  0  0  0  0
   10.2038  -17.0004   28.8578 O   0  0  0  0  0  0  0  0  0  0  0  0
  2  1  1  0
  3  5  1  0
  3  2  1  0
  3  4  1  1
  5  6  2  0
  7  5  1  0
  8  7  1  0
  8  9  1  1
  9 10  1  0
 10 15  2  0
 11 10  1  0
 11 12  2  0
 12 13  1  0
 13 14  2  0
 15 14  1  0
 16  8  1  0
 17 16  2  0
 19 18  1  6
 19 21  1  0
 20 19  1  0
 21 23  1  0
 21 22  1  6
 22 16  1  0
 23 24  1  0
 25 23  2  0
M  END
$$$$
