SFT.pdb
     RDKit          3D

 25 25  0  0  1  0  0  0  0  0999 V2000
    8.1202  -18.2563   20.3206 O   0  0  0  0  0  0  0  0  0  0  0  0
    7.3428  -17.2252   19.7635 C   0  0  0  0  0  0  0  0  0  0  0  0
    8.1935  -15.9807   19.7963 C   0  0  2  0  0  0  0  0  0  0  0  0
    9.3814  -16.2108   18.9956 N   0  0  0  0  0  0  0  0  0  0  0  0
    8.5630  -15.6164   21.1875 C   0  0  0  0  0  0  0  0  0  0  0  0
    9.6977  -15.7962   21.6955 O   0  0  0  0  0  0  0  0  0  0  0  0
    7.5598  -15.0225   21.9991 N   0  0  0  0  0  0  0  0  0  0  0  0
    7.8091  -14.5615   23.3419 C   0  0  1  0  0  0  0  0  0  0  0  0
    6.7323  -13.6568   23.8556 C   0  0  0  0  0  0  0  0  0  0  0  0
    7.0256  -13.0273   25.1627 C   0  0  0  0  0  0  0  0  0  0  0  0
    5.9810  -12.5859   25.9839 C   0  0  0  0  0  0  0  0  0  0  0  0
    6.1911  -12.0063   27.2157 C   0  0  0  0  0  0  0  0  0  0  0  0
    7.4761  -11.8433   27.6811 C   0  0  0  0  0  0  0  0  0  0  0  0
    8.5381  -12.2628   26.9078 C   0  0  0  0  0  0  0  0  0  0  0  0
    8.2979  -12.8482   25.6613 C   0  0  0  0  0  0  0  0  0  0  0  0
    7.9191  -15.7436   24.2193 C   0  0  0  0  0  0  0  0  0  0  0  0
    6.9688  -16.5351   24.4428 O   0  0  0  0  0  0  0  0  0  0  0  0
    9.7474  -18.4923   23.5561 C   0  0  0  0  0  0  0  0  0  0  0  0
   10.3116  -18.1888   24.9285 C   0  0  1  0  0  0  0  0  0  0  0  0
   11.5008  -17.4785   24.7285 O   0  0  0  0  0  0  0  0  0  0  0  0
    9.3512  -17.2456   25.6197 C   0  0  2  0  0  0  0  0  0  0  0  0
    9.1570  -16.0259   24.8598 N   0  0  0  0  0  0  0  0  0  0  0  0
    9.7920  -16.9556   27.0076 C   0  0  0  0  0  0  0  0  0  0  0  0
   10.1113  -15.6720   27.4000 O   0  0  0  0  0  0  0  0  0  0  0  0
    9.8785  -17.8851   27.8436 O   0  0  0  0  0  0  0  0  0  0  0  0
  2  1  1  0
  3  5  1  0
  3  2  1  0
  3  4  1  6
  5  6  2  0
  7  5  1  0
  8  7  1  0
  8  9  1  1
  9 10  1  0
 10 15  2  0
 11 10  1  0
 11 12  2  0
 12 13  1  0
 13 14  2  0
 15 14  1  0
 16  8  1  0
 17 16  2  0
 19 18  1  6
 19 21  1  0
 20 19  1  0
 21 23  1  0
 21 22  1  6
 22 16  1  0
 23 24  1  0
 25 23  2  0
M  END
$$$$
