SFT.pdb
     RDKit          3D

 25 25  0  0  1  0  0  0  0  0999 V2000
    9.6704  -18.6683   20.9177 O   0  0  0  0  0  0  0  0  0  0  0  0
    8.6873  -17.9510   20.2129 C   0  0  0  0  0  0  0  0  0  0  0  0
    9.1871  -16.5327   20.1028 C   0  0  2  0  0  0  0  0  0  0  0  0
   10.4304  -16.5369   19.3550 N   0  0  0  0  0  0  0  0  0  0  0  0
    9.3848  -15.9248   21.4429 C   0  0  0  0  0  0  0  0  0  0  0  0
   10.5007  -15.7649   21.9970 O   0  0  0  0  0  0  0  0  0  0  0  0
    8.2278  -15.4945   22.1458 N   0  0  0  0  0  0  0  0  0  0  0  0
    8.2847  -14.8877   23.4521 C   0  0  1  0  0  0  0  0  0  0  0  0
    7.1120  -13.9999   23.7326 C   0  0  0  0  0  0  0  0  0  0  0  0
    7.1384  -13.3418   25.0581 C   0  0  0  0  0  0  0  0  0  0  0  0
    6.2109  -13.7015   26.0434 C   0  0  0  0  0  0  0  0  0  0  0  0
    6.1952  -13.1352   27.2990 C   0  0  0  0  0  0  0  0  0  0  0  0
    7.1227  -12.1711   27.6225 C   0  0  0  0  0  0  0  0  0  0  0  0
    8.0569  -11.7838   26.6849 C   0  0  0  0  0  0  0  0  0  0  0  0
    8.0515  -12.3742   25.4178 C   0  0  0  0  0  0  0  0  0  0  0  0
    8.3360  -15.9678   24.4573 C   0  0  0  0  0  0  0  0  0  0  0  0
    7.4006  -16.7849   24.6490 O   0  0  0  0  0  0  0  0  0  0  0  0
   10.2449  -18.7819   24.4681 C   0  0  0  0  0  0  0  0  0  0  0  0
   10.6709  -18.2003   25.8001 C   0  0  1  0  0  0  0  0  0  0  0  0
   11.8449  -17.4748   25.5674 O   0  0  0  0  0  0  0  0  0  0  0  0
    9.6163  -17.2000   26.2209 C   0  0  2  0  0  0  0  0  0  0  0  0
    9.4958  -16.1144   25.2670 N   0  0  0  0  0  0  0  0  0  0  0  0
    9.8777  -16.6914   27.5912 C   0  0  0  0  0  0  0  0  0  0  0  0
    9.9673  -17.5524   28.6655 O   0  0  0  0  0  0  0  0  0  0  0  0
   10.0208  -15.4617   27.7853 O   0  0  0  0  0  0  0  0  0  0  0  0
  2  1  1  0
  3  5  1  0
  3  2  1  0
  3  4  1  1
  5  6  2  0
  7  5  1  0
  8  7  1  0
  8  9  1  1
  9 10  1  0
 10 15  2  0
 11 10  1  0
 11 12  2  0
 12 13  1  0
 13 14  2  0
 15 14  1  0
 16  8  1  0
 17 16  2  0
 19 18  1  6
 19 21  1  0
 20 19  1  0
 21 23  1  0
 21 22  1  6
 22 16  1  0
 23 24  1  0
 25 23  2  0
M  END
$$$$
