SFT.pdb
     RDKit          3D

 25 25  0  0  1  0  0  0  0  0999 V2000
    8.6474  -18.4782   20.2706 O   0  0  0  0  0  0  0  0  0  0  0  0
    7.4858  -17.7385   19.9849 C   0  0  0  0  0  0  0  0  0  0  0  0
    7.8942  -16.2872   19.9695 C   0  0  2  0  0  0  0  0  0  0  0  0
    8.9160  -16.1047   18.9558 N   0  0  0  0  0  0  0  0  0  0  0  0
    8.3928  -15.8529   21.2989 C   0  0  0  0  0  0  0  0  0  0  0  0
    9.5788  -15.5179   21.5423 O   0  0  0  0  0  0  0  0  0  0  0  0
    7.4600  -15.8146   22.3695 N   0  0  0  0  0  0  0  0  0  0  0  0
    7.8012  -15.3484   23.6902 C   0  0  1  0  0  0  0  0  0  0  0  0
    6.6230  -14.8050   24.4376 C   0  0  0  0  0  0  0  0  0  0  0  0
    6.9405  -13.7059   25.3767 C   0  0  0  0  0  0  0  0  0  0  0  0
    5.9169  -13.0652   26.0854 C   0  0  0  0  0  0  0  0  0  0  0  0
    6.1519  -12.0469   26.9828 C   0  0  0  0  0  0  0  0  0  0  0  0
    7.4417  -11.6234   27.2095 C   0  0  0  0  0  0  0  0  0  0  0  0
    8.4836  -12.2245   26.5349 C   0  0  0  0  0  0  0  0  0  0  0  0
    8.2184  -13.2560   25.6294 C   0  0  0  0  0  0  0  0  0  0  0  0
    8.3806  -16.4803   24.4402 C   0  0  0  0  0  0  0  0  0  0  0  0
    7.7499  -17.5341   24.7068 O   0  0  0  0  0  0  0  0  0  0  0  0
   11.4011  -18.1940   23.4819 C   0  0  0  0  0  0  0  0  0  0  0  0
   11.6724  -17.8902   24.9407 C   0  0  1  0  0  0  0  0  0  0  0  0
   12.4785  -16.7465   24.9722 O   0  0  0  0  0  0  0  0  0  0  0  0
   10.3549  -17.5129   25.5822 C   0  0  2  0  0  0  0  0  0  0  0  0
    9.7245  -16.4003   24.8983 N   0  0  0  0  0  0  0  0  0  0  0  0
   10.5256  -17.2330   27.0303 C   0  0  0  0  0  0  0  0  0  0  0  0
   10.1929  -16.0044   27.5625 O   0  0  0  0  0  0  0  0  0  0  0  0
   10.9786  -18.1208   27.7898 O   0  0  0  0  0  0  0  0  0  0  0  0
  2  1  1  0
  3  5  1  0
  3  2  1  0
  3  4  1  6
  5  6  2  0
  7  5  1  0
  8  7  1  0
  8  9  1  1
  9 10  1  0
 10 15  2  0
 11 10  1  0
 11 12  2  0
 12 13  1  0
 13 14  2  0
 15 14  1  0
 16  8  1  0
 17 16  2  0
 19 18  1  6
 19 21  1  0
 20 19  1  0
 21 23  1  0
 21 22  1  6
 22 16  1  0
 23 24  1  0
 25 23  2  0
M  END
$$$$
