SFT.pdb
     RDKit          3D

 25 25  0  0  1  0  0  0  0  0999 V2000
   10.0786  -18.9366   19.6369 O   0  0  0  0  0  0  0  0  0  0  0  0
    9.2633  -18.2900   20.5831 C   0  0  0  0  0  0  0  0  0  0  0  0
    9.3595  -16.8132   20.2947 C   0  0  2  0  0  0  0  0  0  0  0  0
   10.4853  -16.5872   19.4080 N   0  0  0  0  0  0  0  0  0  0  0  0
    9.5132  -16.0282   21.5456 C   0  0  0  0  0  0  0  0  0  0  0  0
   10.6118  -15.6396   22.0146 O   0  0  0  0  0  0  0  0  0  0  0  0
    8.3319  -15.6945   22.2606 N   0  0  0  0  0  0  0  0  0  0  0  0
    8.3501  -15.0021   23.5248 C   0  0  1  0  0  0  0  0  0  0  0  0
    7.0900  -14.2369   23.7869 C   0  0  0  0  0  0  0  0  0  0  0  0
    7.0443  -13.5525   25.0985 C   0  0  0  0  0  0  0  0  0  0  0  0
    7.7645  -12.3692   25.3027 C   0  0  0  0  0  0  0  0  0  0  0  0
    7.7495  -11.6803   26.4954 C   0  0  0  0  0  0  0  0  0  0  0  0
    7.0007  -12.1568   27.5474 C   0  0  0  0  0  0  0  0  0  0  0  0
    6.2741  -13.3189   27.3940 C   0  0  0  0  0  0  0  0  0  0  0  0
    6.3061  -13.9990   26.1732 C   0  0  0  0  0  0  0  0  0  0  0  0
    8.5499  -16.0021   24.5922 C   0  0  0  0  0  0  0  0  0  0  0  0
    7.7461  -16.9391   24.8272 O   0  0  0  0  0  0  0  0  0  0  0  0
   11.0984  -18.2138   24.5218 C   0  0  0  0  0  0  0  0  0  0  0  0
   11.2998  -17.7149   25.9376 C   0  0  1  0  0  0  0  0  0  0  0  0
   12.3228  -16.7611   25.8883 O   0  0  0  0  0  0  0  0  0  0  0  0
   10.0406  -16.9830   26.3482 C   0  0  2  0  0  0  0  0  0  0  0  0
    9.7071  -15.9242   25.4150 N   0  0  0  0  0  0  0  0  0  0  0  0
   10.1498  -16.4679   27.7365 C   0  0  0  0  0  0  0  0  0  0  0  0
   10.0513  -15.1182   28.0054 O   0  0  0  0  0  0  0  0  0  0  0  0
   10.3345  -17.2640   28.6864 O   0  0  0  0  0  0  0  0  0  0  0  0
  2  1  1  0
  3  5  1  0
  3  2  1  0
  3  4  1  6
  5  6  2  0
  7  5  1  0
  8  7  1  0
  8  9  1  1
  9 10  1  0
 10 15  2  0
 11 10  1  0
 11 12  2  0
 12 13  1  0
 13 14  2  0
 15 14  1  0
 16  8  1  0
 17 16  2  0
 19 18  1  6
 19 21  1  0
 20 19  1  0
 21 23  1  0
 21 22  1  6
 22 16  1  0
 23 24  1  0
 25 23  2  0
M  END
$$$$
