SFT.pdb
     RDKit          3D

 25 25  0  0  1  0  0  0  0  0999 V2000
    9.2371  -18.3522   20.4535 O   0  0  0  0  0  0  0  0  0  0  0  0
    8.0999  -17.7630   19.8725 C   0  0  0  0  0  0  0  0  0  0  0  0
    8.4072  -16.2947   19.7211 C   0  0  2  0  0  0  0  0  0  0  0  0
    9.4931  -16.1447   18.7707 N   0  0  0  0  0  0  0  0  0  0  0  0
    8.7649  -15.6811   21.0250 C   0  0  0  0  0  0  0  0  0  0  0  0
    9.9377  -15.4304   21.3986 O   0  0  0  0  0  0  0  0  0  0  0  0
    7.7031  -15.3556   21.9107 N   0  0  0  0  0  0  0  0  0  0  0  0
    7.9164  -14.7481   23.2004 C   0  0  1  0  0  0  0  0  0  0  0  0
    6.7265  -13.9792   23.6851 C   0  0  0  0  0  0  0  0  0  0  0  0
    6.9174  -13.3013   24.9869 C   0  0  0  0  0  0  0  0  0  0  0  0
    6.4200  -13.8771   26.1623 C   0  0  0  0  0  0  0  0  0  0  0  0
    6.5792  -13.3012   27.4034 C   0  0  0  0  0  0  0  0  0  0  0  0
    7.2535  -12.1068   27.5182 C   0  0  0  0  0  0  0  0  0  0  0  0
    7.7619  -11.5012   26.3883 C   0  0  0  0  0  0  0  0  0  0  0  0
    7.5870  -12.1066   25.1405 C   0  0  0  0  0  0  0  0  0  0  0  0
    8.2364  -15.8194   24.1643 C   0  0  0  0  0  0  0  0  0  0  0  0
    7.4621  -16.7741   24.4260 O   0  0  0  0  0  0  0  0  0  0  0  0
   10.9703  -17.9701   23.7765 C   0  0  0  0  0  0  0  0  0  0  0  0
   11.1914  -17.5175   25.2048 C   0  0  1  0  0  0  0  0  0  0  0  0
   12.1414  -16.4906   25.1609 O   0  0  0  0  0  0  0  0  0  0  0  0
    9.9007  -16.8968   25.6931 C   0  0  2  0  0  0  0  0  0  0  0  0
    9.4826  -15.7944   24.8488 N   0  0  0  0  0  0  0  0  0  0  0  0
   10.0114  -16.4801   27.1140 C   0  0  0  0  0  0  0  0  0  0  0  0
   10.2746  -17.4003   28.1077 O   0  0  0  0  0  0  0  0  0  0  0  0
    9.8649  -15.2753   27.4258 O   0  0  0  0  0  0  0  0  0  0  0  0
  2  1  1  0
  3  5  1  0
  3  2  1  0
  3  4  1  6
  5  6  2  0
  7  5  1  0
  8  7  1  0
  8  9  1  1
  9 10  1  0
 10 15  2  0
 11 10  1  0
 11 12  2  0
 12 13  1  0
 13 14  2  0
 15 14  1  0
 16  8  1  0
 17 16  2  0
 19 18  1  6
 19 21  1  0
 20 19  1  0
 21 23  1  0
 21 22  1  6
 22 16  1  0
 23 24  1  0
 25 23  2  0
M  END
$$$$
