SFT.pdb
     RDKit          3D

 25 25  0  0  1  0  0  0  0  0999 V2000
    7.3097  -19.9554   21.5654 O   0  0  0  0  0  0  0  0  0  0  0  0
    5.9418  -19.9068   21.8885 C   0  0  0  0  0  0  0  0  0  0  0  0
    5.4700  -18.5154   21.5498 C   0  0  2  0  0  0  0  0  0  0  0  0
    5.4112  -18.3852   20.1060 N   0  0  0  0  0  0  0  0  0  0  0  0
    6.3668  -17.4851   22.1318 C   0  0  0  0  0  0  0  0  0  0  0  0
    7.2022  -16.8132   21.4771 O   0  0  0  0  0  0  0  0  0  0  0  0
    6.2709  -17.2444   23.5285 N   0  0  0  0  0  0  0  0  0  0  0  0
    7.0189  -16.2105   24.1989 C   0  0  1  0  0  0  0  0  0  0  0  0
    6.3403  -15.7114   25.4369 C   0  0  0  0  0  0  0  0  0  0  0  0
    6.8734  -14.4342   25.9614 C   0  0  0  0  0  0  0  0  0  0  0  0
    7.8482  -14.4357   26.9665 C   0  0  0  0  0  0  0  0  0  0  0  0
    8.3919  -13.2806   27.4836 C   0  0  0  0  0  0  0  0  0  0  0  0
    7.9742  -12.0588   27.0069 C   0  0  0  0  0  0  0  0  0  0  0  0
    7.0158  -12.0064   26.0166 C   0  0  0  0  0  0  0  0  0  0  0  0
    6.4800  -13.1934   25.5086 C   0  0  0  0  0  0  0  0  0  0  0  0
    8.3439  -16.7582   24.5505 C   0  0  0  0  0  0  0  0  0  0  0  0
    8.5101  -17.7368   25.3213 O   0  0  0  0  0  0  0  0  0  0  0  0
   10.9322  -17.0757   21.7247 C   0  0  0  0  0  0  0  0  0  0  0  0
   11.6859  -16.5583   22.9323 C   0  0  1  0  0  0  0  0  0  0  0  0
   11.8002  -15.1724   22.7740 O   0  0  0  0  0  0  0  0  0  0  0  0
   10.8148  -16.7880   24.1481 C   0  0  2  0  0  0  0  0  0  0  0  0
    9.5137  -16.1647   24.0012 N   0  0  0  0  0  0  0  0  0  0  0  0
   11.4960  -16.3357   25.3875 C   0  0  0  0  0  0  0  0  0  0  0  0
   10.9317  -15.3743   26.2002 O   0  0  0  0  0  0  0  0  0  0  0  0
   12.6020  -16.8294   25.7091 O   0  0  0  0  0  0  0  0  0  0  0  0
  2  1  1  0
  3  5  1  0
  3  2  1  0
  3  4  1  6
  5  6  2  0
  7  5  1  0
  8  7  1  0
  8  9  1  1
  9 10  1  0
 10 15  2  0
 11 10  1  0
 11 12  2  0
 12 13  1  0
 13 14  2  0
 15 14  1  0
 16  8  1  0
 17 16  2  0
 19 18  1  6
 19 21  1  0
 20 19  1  0
 21 23  1  0
 21 22  1  6
 22 16  1  0
 23 24  1  0
 25 23  2  0
M  END
$$$$
