SFT.pdb
     RDKit          3D

 25 25  0  0  1  0  0  0  0  0999 V2000
    9.4738  -18.9109   19.2429 O   0  0  0  0  0  0  0  0  0  0  0  0
    8.8841  -18.1682   20.2814 C   0  0  0  0  0  0  0  0  0  0  0  0
    9.2476  -16.7254   20.0372 C   0  0  2  0  0  0  0  0  0  0  0  0
   10.4651  -16.6818   19.2494 N   0  0  0  0  0  0  0  0  0  0  0  0
    9.4248  -15.9900   21.3149 C   0  0  0  0  0  0  0  0  0  0  0  0
   10.5359  -15.6835   21.8144 O   0  0  0  0  0  0  0  0  0  0  0  0
    8.2526  -15.6073   22.0202 N   0  0  0  0  0  0  0  0  0  0  0  0
    8.2887  -14.9572   23.3062 C   0  0  1  0  0  0  0  0  0  0  0  0
    7.0805  -14.1111   23.5643 C   0  0  0  0  0  0  0  0  0  0  0  0
    7.0743  -13.4271   24.8768 C   0  0  0  0  0  0  0  0  0  0  0  0
    7.9630  -12.3748   25.1286 C   0  0  0  0  0  0  0  0  0  0  0  0
    7.9942  -11.6913   26.3242 C   0  0  0  0  0  0  0  0  0  0  0  0
    7.1227  -12.0403   27.3308 C   0  0  0  0  0  0  0  0  0  0  0  0
    6.2283  -13.0706   27.1295 C   0  0  0  0  0  0  0  0  0  0  0  0
    6.2169  -13.7482   25.9069 C   0  0  0  0  0  0  0  0  0  0  0  0
    8.3895  -16.0014   24.3449 C   0  0  0  0  0  0  0  0  0  0  0  0
    7.5095  -16.8776   24.5384 O   0  0  0  0  0  0  0  0  0  0  0  0
   10.5959  -18.5779   24.3756 C   0  0  0  0  0  0  0  0  0  0  0  0
   10.8990  -18.0020   25.7433 C   0  0  1  0  0  0  0  0  0  0  0  0
   12.0085  -17.1626   25.5914 O   0  0  0  0  0  0  0  0  0  0  0  0
    9.7347  -17.1191   26.1363 C   0  0  2  0  0  0  0  0  0  0  0  0
    9.5346  -16.0412   25.1871 N   0  0  0  0  0  0  0  0  0  0  0  0
    9.8983  -16.6015   27.5183 C   0  0  0  0  0  0  0  0  0  0  0  0
   10.0176  -17.4606   28.5912 O   0  0  0  0  0  0  0  0  0  0  0  0
    9.9297  -15.3658   27.7238 O   0  0  0  0  0  0  0  0  0  0  0  0
  2  1  1  0
  3  5  1  0
  3  2  1  0
  3  4  1  1
  5  6  2  0
  7  5  1  0
  8  7  1  0
  8  9  1  1
  9 10  1  0
 10 15  2  0
 11 10  1  0
 11 12  2  0
 12 13  1  0
 13 14  2  0
 15 14  1  0
 16  8  1  0
 17 16  2  0
 19 18  1  6
 19 21  1  0
 20 19  1  0
 21 23  1  0
 21 22  1  6
 22 16  1  0
 23 24  1  0
 25 23  2  0
M  END
$$$$
