SFT.pdb
     RDKit          3D

 25 25  0  0  1  0  0  0  0  0999 V2000
    9.0125  -18.2644   20.5539 O   0  0  0  0  0  0  0  0  0  0  0  0
    7.7154  -17.7270   20.4731 C   0  0  0  0  0  0  0  0  0  0  0  0
    7.8535  -16.2396   20.6784 C   0  0  2  0  0  0  0  0  0  0  0  0
    8.6840  -15.7011   19.6176 N   0  0  0  0  0  0  0  0  0  0  0  0
    8.4377  -15.9305   22.0080 C   0  0  0  0  0  0  0  0  0  0  0  0
    9.6185  -15.5460   22.1974 O   0  0  0  0  0  0  0  0  0  0  0  0
    7.5991  -16.0812   23.1446 N   0  0  0  0  0  0  0  0  0  0  0  0
    8.0449  -15.8124   24.4888 C   0  0  1  0  0  0  0  0  0  0  0  0
    6.9440  -15.3285   25.3809 C   0  0  0  0  0  0  0  0  0  0  0  0
    6.9445  -13.8690   25.6268 C   0  0  0  0  0  0  0  0  0  0  0  0
    6.0931  -13.3153   26.5907 C   0  0  0  0  0  0  0  0  0  0  0  0
    6.0592  -11.9676   26.8738 C   0  0  0  0  0  0  0  0  0  0  0  0
    6.8898  -11.1077   26.1919 C   0  0  0  0  0  0  0  0  0  0  0  0
    7.7465  -11.6064   25.2331 C   0  0  0  0  0  0  0  0  0  0  0  0
    7.7616  -12.9783   24.9648 C   0  0  0  0  0  0  0  0  0  0  0  0
    8.6142  -17.0578   25.0405 C   0  0  0  0  0  0  0  0  0  0  0  0
    7.9425  -18.1009   25.2410 O   0  0  0  0  0  0  0  0  0  0  0  0
   11.5103  -18.8219   23.6408 C   0  0  0  0  0  0  0  0  0  0  0  0
   11.8789  -18.6557   25.1004 C   0  0  1  0  0  0  0  0  0  0  0  0
   12.7017  -17.5266   25.1834 O   0  0  0  0  0  0  0  0  0  0  0  0
   10.6108  -18.3279   25.8581 C   0  0  2  0  0  0  0  0  0  0  0  0
    9.9960  -17.1075   25.3724 N   0  0  0  0  0  0  0  0  0  0  0  0
   10.8624  -18.2639   27.3200 C   0  0  0  0  0  0  0  0  0  0  0  0
   11.3839  -19.3444   28.0010 O   0  0  0  0  0  0  0  0  0  0  0  0
   10.5999  -17.2157   27.9546 O   0  0  0  0  0  0  0  0  0  0  0  0
  2  1  1  0
  3  5  1  0
  3  2  1  0
  3  4  1  6
  5  6  2  0
  7  5  1  0
  8  7  1  0
  8  9  1  1
  9 10  1  0
 10 15  2  0
 11 10  1  0
 11 12  2  0
 12 13  1  0
 13 14  2  0
 15 14  1  0
 16  8  1  0
 17 16  2  0
 19 18  1  6
 19 21  1  0
 20 19  1  0
 21 23  1  0
 21 22  1  6
 22 16  1  0
 23 24  1  0
 25 23  2  0
M  END
$$$$
