GQS.pdb
     RDKit          3D

 20 19  0  0  1  0  0  0  0  0999 V2000
    4.7732  -19.5782   23.1714 N   0  0  0  0  0  0  0  0  0  0  0  0
    4.8260  -18.1518   23.1954 C   0  0  0  0  0  0  0  0  0  0  0  0
    6.1611  -17.6333   22.7257 C   0  0  0  0  0  0  0  0  0  0  0  0
    7.1008  -18.4314   22.7473 O   0  0  0  0  0  0  0  0  0  0  0  0
    7.2123  -12.6837   18.8716 N   0  0  0  0  0  0  0  0  0  0  0  0
    8.4971  -13.2675   19.0471 C   0  0  0  0  0  0  0  0  0  0  0  0
    9.4206  -12.9335   18.3071 O   0  0  0  0  0  0  0  0  0  0  0  0
    8.6625  -14.2691   20.1399 C   0  0  0  0  0  0  0  0  0  0  0  0
    7.3758  -14.5522   20.8551 C   0  0  0  0  0  0  0  0  0  0  0  0
    7.5194  -15.6525   21.8766 C   0  0  2  0  0  0  0  0  0  0  0  0
    6.3180  -16.2979   22.2844 N   0  0  0  0  0  0  0  0  0  0  0  0
    8.5072  -15.3829   22.9311 C   0  0  0  0  0  0  0  0  0  0  0  0
    8.1272  -14.7738   23.9623 O   0  0  0  0  0  0  0  0  0  0  0  0
   11.0626  -17.2538   25.9652 O   0  0  0  0  0  0  0  0  0  0  0  0
   10.1685  -17.0779   24.9134 C   0  0  0  0  0  0  0  0  0  0  0  0
   10.6986  -15.9782   24.0200 C   0  0  2  0  0  0  0  0  0  0  0  0
    9.8864  -15.7752   22.8540 N   0  0  0  0  0  0  0  0  0  0  0  0
   12.0670  -16.3423   23.6022 C   0  0  0  0  0  0  0  0  0  0  0  0
   12.2333  -16.9540   22.5214 O   0  0  0  0  0  0  0  0  0  0  0  0
   13.1780  -16.0340   24.3594 O   0  0  0  0  0  0  0  0  0  0  0  0
  2  1  1  0
  3  2  1  0
  4  3  2  0
  6  8  1  0
  6  5  1  0
  7  6  2  0
  9  8  1  0
 10  9  1  1
 10 11  1  0
 11  3  1  0
 12 17  1  0
 12 10  1  0
 13 12  2  0
 15 14  1  0
 16 15  1  1
 16 17  1  0
 18 16  1  0
 18 20  1  0
 19 18  2  0
M  END
$$$$
