GQS.pdb
     RDKit          3D

 20 19  0  0  1  0  0  0  0  0999 V2000
    9.1327  -15.2010   16.6948 N   0  0  0  0  0  0  0  0  0  0  0  0
    9.6581  -14.8822   17.9832 C   0  0  0  0  0  0  0  0  0  0  0  0
   11.0860  -15.3409   18.1345 C   0  0  0  0  0  0  0  0  0  0  0  0
   11.3165  -16.5223   17.8664 O   0  0  0  0  0  0  0  0  0  0  0  0
   15.5257  -15.0543   16.0838 N   0  0  0  0  0  0  0  0  0  0  0  0
   16.3003  -15.1149   17.2748 C   0  0  0  0  0  0  0  0  0  0  0  0
   17.2734  -15.8647   17.3271 O   0  0  0  0  0  0  0  0  0  0  0  0
   15.8881  -14.2491   18.4174 C   0  0  0  0  0  0  0  0  0  0  0  0
   14.4784  -13.7576   18.2823 C   0  0  0  0  0  0  0  0  0  0  0  0
   13.4730  -14.7540   18.8030 C   0  0  2  0  0  0  0  0  0  0  0  0
   12.1024  -14.4542   18.5626 N   0  0  0  0  0  0  0  0  0  0  0  0
   13.7974  -15.3183   20.1209 C   0  0  0  0  0  0  0  0  0  0  0  0
   13.7049  -14.5726   21.1279 O   0  0  0  0  0  0  0  0  0  0  0  0
   14.2690  -19.0885   23.0548 O   0  0  0  0  0  0  0  0  0  0  0  0
   13.9730  -18.6470   21.7687 C   0  0  0  0  0  0  0  0  0  0  0  0
   14.4566  -17.2200   21.6347 C   0  0  2  0  0  0  0  0  0  0  0  0
   14.2156  -16.6763   20.3282 N   0  0  0  0  0  0  0  0  0  0  0  0
   15.9066  -17.1961   21.9115 C   0  0  0  0  0  0  0  0  0  0  0  0
   16.7074  -17.0359   20.9613 O   0  0  0  0  0  0  0  0  0  0  0  0
   16.4190  -17.3443   23.1837 O   0  0  0  0  0  0  0  0  0  0  0  0
  2  1  1  0
  3  2  1  0
  4  3  2  0
  6  8  1  0
  6  5  1  0
  7  6  2  0
  9  8  1  0
 10  9  1  1
 10 11  1  0
 11  3  1  0
 12 17  1  0
 12 10  1  0
 13 12  2  0
 15 14  1  0
 16 15  1  6
 16 17  1  0
 18 16  1  0
 18 20  1  0
 19 18  2  0
M  END
$$$$
