GQS.pdb
     RDKit          3D

 20 19  0  0  1  0  0  0  0  0999 V2000
    5.5915  -22.0427   24.6830 N   0  0  0  0  0  0  0  0  0  0  0  0
    6.3814  -23.0868   25.2518 C   0  0  0  0  0  0  0  0  0  0  0  0
    6.9810  -22.6785   26.5731 C   0  0  0  0  0  0  0  0  0  0  0  0
    6.8405  -21.4980   26.9007 O   0  0  0  0  0  0  0  0  0  0  0  0
    8.3549  -26.3430   31.5996 N   0  0  0  0  0  0  0  0  0  0  0  0
    8.9758  -25.1119   31.9473 C   0  0  0  0  0  0  0  0  0  0  0  0
    9.4677  -24.9761   33.0660 O   0  0  0  0  0  0  0  0  0  0  0  0
    9.0021  -24.0314   30.9193 C   0  0  0  0  0  0  0  0  0  0  0  0
    8.2841  -24.4211   29.6623 C   0  0  0  0  0  0  0  0  0  0  0  0
    8.3669  -23.3522   28.6016 C   0  0  2  0  0  0  0  0  0  0  0  0
    7.6678  -23.6091   27.3885 N   0  0  0  0  0  0  0  0  0  0  0  0
    9.6870  -22.7184   28.4737 C   0  0  0  0  0  0  0  0  0  0  0  0
   10.6031  -23.3596   27.9007 O   0  0  0  0  0  0  0  0  0  0  0  0
   10.6472  -19.2710   27.1311 O   0  0  0  0  0  0  0  0  0  0  0  0
   11.2007  -19.3438   28.4059 C   0  0  0  0  0  0  0  0  0  0  0  0
   11.2863  -20.8011   28.8026 C   0  0  2  0  0  0  0  0  0  0  0  0
    9.9944  -21.4050   28.9662 N   0  0  0  0  0  0  0  0  0  0  0  0
   12.0295  -20.8900   30.0752 C   0  0  0  0  0  0  0  0  0  0  0  0
   11.4769  -21.4143   31.0700 O   0  0  0  0  0  0  0  0  0  0  0  0
   13.3173  -20.4155   30.2142 O   0  0  0  0  0  0  0  0  0  0  0  0
  2  1  1  0
  3  2  1  0
  4  3  2  0
  6  8  1  0
  6  5  1  0
  7  6  2  0
  9  8  1  0
 10  9  1  6
 10 11  1  0
 11  3  1  0
 12 17  1  0
 12 10  1  0
 13 12  2  0
 15 14  1  0
 16 15  1  1
 16 17  1  0
 18 16  1  0
 18 20  1  0
 19 18  2  0
M  END
$$$$
