GQS.pdb
     RDKit          3D

 20 19  0  0  1  0  0  0  0  0999 V2000
    9.1995  -17.9888   17.0460 N   0  0  0  0  0  0  0  0  0  0  0  0
    8.2375  -17.7449   18.0721 C   0  0  0  0  0  0  0  0  0  0  0  0
    8.7753  -16.8218   19.1355 C   0  0  0  0  0  0  0  0  0  0  0  0
    9.9519  -16.9874   19.4653 O   0  0  0  0  0  0  0  0  0  0  0  0
    6.7124  -13.2034   17.8518 N   0  0  0  0  0  0  0  0  0  0  0  0
    7.8610  -13.1556   18.6888 C   0  0  0  0  0  0  0  0  0  0  0  0
    8.9519  -13.5039   18.2409 O   0  0  0  0  0  0  0  0  0  0  0  0
    7.6817  -12.6744   20.0892 C   0  0  0  0  0  0  0  0  0  0  0  0
    7.3804  -13.7910   21.0429 C   0  0  0  0  0  0  0  0  0  0  0  0
    8.2775  -14.9843   20.8281 C   0  0  2  0  0  0  0  0  0  0  0  0
    7.9640  -15.8200   19.7193 N   0  0  0  0  0  0  0  0  0  0  0  0
    8.6960  -15.6648   22.0619 C   0  0  0  0  0  0  0  0  0  0  0  0
    7.8057  -16.0713   22.8499 O   0  0  0  0  0  0  0  0  0  0  0  0
   11.1802  -18.4735   22.3920 O   0  0  0  0  0  0  0  0  0  0  0  0
   10.3582  -18.1019   23.4517 C   0  0  0  0  0  0  0  0  0  0  0  0
   10.4444  -16.6004   23.6142 C   0  0  2  0  0  0  0  0  0  0  0  0
   10.0668  -15.8941   22.4230 N   0  0  0  0  0  0  0  0  0  0  0  0
   11.8360  -16.2534   23.9649 C   0  0  0  0  0  0  0  0  0  0  0  0
   12.4970  -15.5229   23.1907 O   0  0  0  0  0  0  0  0  0  0  0  0
   12.4421  -16.7042   25.1191 O   0  0  0  0  0  0  0  0  0  0  0  0
  2  1  1  0
  3  2  1  0
  4  3  2  0
  6  8  1  0
  6  5  1  0
  7  6  2  0
  9  8  1  0
 10  9  1  1
 10 11  1  0
 11  3  1  0
 12 17  1  0
 12 10  1  0
 13 12  2  0
 15 14  1  0
 16 15  1  6
 16 17  1  0
 18 16  1  0
 18 20  1  0
 19 18  2  0
M  END
$$$$
