GQS.pdb
     RDKit          3D

 20 19  0  0  1  0  0  0  0  0999 V2000
   -2.4076  -21.2771   24.1830 N   0  0  0  0  0  0  0  0  0  0  0  0
   -3.3400  -22.1730   23.5782 C   0  0  0  0  0  0  0  0  0  0  0  0
   -4.3079  -22.7379   24.5861 C   0  0  0  0  0  0  0  0  0  0  0  0
   -5.4723  -22.3380   24.5162 O   0  0  0  0  0  0  0  0  0  0  0  0
   -3.2953  -28.0148   28.1137 N   0  0  0  0  0  0  0  0  0  0  0  0
   -4.6166  -27.6386   28.4809 C   0  0  0  0  0  0  0  0  0  0  0  0
   -5.2653  -28.3621   29.2342 O   0  0  0  0  0  0  0  0  0  0  0  0
   -5.1558  -26.3628   27.9271 C   0  0  0  0  0  0  0  0  0  0  0  0
   -4.1787  -25.6745   27.0224 C   0  0  0  0  0  0  0  0  0  0  0  0
   -4.7006  -24.3528   26.5168 C   0  0  2  0  0  0  0  0  0  0  0  0
   -3.8924  -23.6782   25.5586 N   0  0  0  0  0  0  0  0  0  0  0  0
   -5.3366  -23.5137   27.5424 C   0  0  0  0  0  0  0  0  0  0  0  0
   -4.6224  -22.6870   28.1632 O   0  0  0  0  0  0  0  0  0  0  0  0
   -9.3208  -21.5084   29.3733 O   0  0  0  0  0  0  0  0  0  0  0  0
   -8.8376  -22.5129   28.5401 C   0  0  0  0  0  0  0  0  0  0  0  0
   -7.3524  -22.6595   28.7870 C   0  0  2  0  0  0  0  0  0  0  0  0
   -6.7307  -23.5817   27.8794 N   0  0  0  0  0  0  0  0  0  0  0  0
   -7.1595  -23.1351   30.1714 C   0  0  0  0  0  0  0  0  0  0  0  0
   -7.0466  -24.3646   30.3848 O   0  0  0  0  0  0  0  0  0  0  0  0
   -7.0981  -22.2739   31.2472 O   0  0  0  0  0  0  0  0  0  0  0  0
  2  1  1  0
  3  2  1  0
  4  3  2  0
  6  8  1  0
  6  5  1  0
  7  6  2  0
  9  8  1  0
 10  9  1  1
 10 11  1  0
 11  3  1  0
 12 17  1  0
 12 10  1  0
 13 12  2  0
 15 14  1  0
 16 15  1  6
 16 17  1  0
 18 16  1  0
 18 20  1  0
 19 18  2  0
M  END
$$$$
