GQS.pdb
     RDKit          3D

 20 19  0  0  1  0  0  0  0  0999 V2000
    3.7423  -19.3955   22.4762 N   0  0  0  0  0  0  0  0  0  0  0  0
    3.8582  -17.9846   22.2923 C   0  0  0  0  0  0  0  0  0  0  0  0
    5.2907  -17.5626   22.0885 C   0  0  0  0  0  0  0  0  0  0  0  0
    6.1542  -18.4100   22.3272 O   0  0  0  0  0  0  0  0  0  0  0  0
    7.3348  -12.8605   18.2669 N   0  0  0  0  0  0  0  0  0  0  0  0
    8.5108  -13.5370   18.6929 C   0  0  0  0  0  0  0  0  0  0  0  0
    9.5518  -13.4046   18.0520 O   0  0  0  0  0  0  0  0  0  0  0  0
    8.4210  -14.3841   19.9174 C   0  0  0  0  0  0  0  0  0  0  0  0
    7.0034  -14.6811   20.3039 C   0  0  0  0  0  0  0  0  0  0  0  0
    6.9130  -15.7288   21.3852 C   0  0  2  0  0  0  0  0  0  0  0  0
    5.6180  -16.2589   21.6458 N   0  0  0  0  0  0  0  0  0  0  0  0
    7.7628  -15.4731   22.5570 C   0  0  0  0  0  0  0  0  0  0  0  0
    7.4172  -14.5691   23.3582 O   0  0  0  0  0  0  0  0  0  0  0  0
    9.4544  -17.9644   24.9524 O   0  0  0  0  0  0  0  0  0  0  0  0
    9.4438  -16.5980   25.2160 C   0  0  0  0  0  0  0  0  0  0  0  0
    9.8252  -15.8678   23.9473 C   0  0  2  0  0  0  0  0  0  0  0  0
    8.9695  -16.1972   22.8428 N   0  0  0  0  0  0  0  0  0  0  0  0
   11.2166  -16.2272   23.6084 C   0  0  0  0  0  0  0  0  0  0  0  0
   12.1278  -15.9875   24.4344 O   0  0  0  0  0  0  0  0  0  0  0  0
   11.5561  -16.8205   22.4103 O   0  0  0  0  0  0  0  0  0  0  0  0
  2  1  1  0
  3  2  1  0
  4  3  2  0
  6  8  1  0
  6  5  1  0
  7  6  2  0
  9  8  1  0
 10  9  1  1
 10 11  1  0
 11  3  1  0
 12 17  1  0
 12 10  1  0
 13 12  2  0
 15 14  1  0
 16 15  1  1
 16 17  1  0
 18 16  1  0
 18 20  1  0
 19 18  2  0
M  END
$$$$
