GQS.pdb
     RDKit          3D

 20 19  0  0  1  0  0  0  0  0999 V2000
    4.2937  -22.4429   22.3114 N   0  0  0  0  0  0  0  0  0  0  0  0
    3.7812  -21.1185   22.4566 C   0  0  0  0  0  0  0  0  0  0  0  0
    4.6831  -20.2594   23.3054 C   0  0  0  0  0  0  0  0  0  0  0  0
    4.3416  -19.0843   23.4574 O   0  0  0  0  0  0  0  0  0  0  0  0
    8.9897  -20.6978   28.0751 N   0  0  0  0  0  0  0  0  0  0  0  0
    7.7264  -20.0770   28.2773 C   0  0  0  0  0  0  0  0  0  0  0  0
    7.4299  -19.6563   29.3940 O   0  0  0  0  0  0  0  0  0  0  0  0
    6.8118  -19.9630   27.1045 C   0  0  0  0  0  0  0  0  0  0  0  0
    7.3295  -20.6948   25.9030 C   0  0  0  0  0  0  0  0  0  0  0  0
    6.8630  -20.0735   24.6102 C   0  0  2  0  0  0  0  0  0  0  0  0
    5.8588  -20.7833   23.8933 N   0  0  0  0  0  0  0  0  0  0  0  0
    7.9300  -19.4601   23.8065 C   0  0  0  0  0  0  0  0  0  0  0  0
    8.5884  -20.1956   23.0291 O   0  0  0  0  0  0  0  0  0  0  0  0
   10.1872  -15.5840   22.0087 O   0  0  0  0  0  0  0  0  0  0  0  0
    9.1122  -16.0353   22.7685 C   0  0  0  0  0  0  0  0  0  0  0  0
    9.3328  -17.4994   23.0787 C   0  0  2  0  0  0  0  0  0  0  0  0
    8.2669  -18.0652   23.8562 N   0  0  0  0  0  0  0  0  0  0  0  0
   10.6001  -17.6271   23.8252 C   0  0  0  0  0  0  0  0  0  0  0  0
   11.6742  -17.3071   23.2648 O   0  0  0  0  0  0  0  0  0  0  0  0
   10.6498  -18.0880   25.1244 O   0  0  0  0  0  0  0  0  0  0  0  0
  2  1  1  0
  3  2  1  0
  4  3  2  0
  6  8  1  0
  6  5  1  0
  7  6  2  0
  9  8  1  0
 10  9  1  1
 10 11  1  0
 11  3  1  0
 12 17  1  0
 12 10  1  0
 13 12  2  0
 15 14  1  0
 16 15  1  1
 16 17  1  0
 18 16  1  0
 18 20  1  0
 19 18  2  0
M  END
$$$$
