GQS.pdb
     RDKit          3D

 20 19  0  0  1  0  0  0  0  0999 V2000
    8.5676  -13.1819   16.7019 N   0  0  0  0  0  0  0  0  0  0  0  0
    7.8685  -13.8242   17.7680 C   0  0  0  0  0  0  0  0  0  0  0  0
    8.7704  -14.0968   18.9446 C   0  0  0  0  0  0  0  0  0  0  0  0
    9.9495  -13.7559   18.8258 O   0  0  0  0  0  0  0  0  0  0  0  0
    6.9862  -12.5733   24.6216 N   0  0  0  0  0  0  0  0  0  0  0  0
    7.5627  -13.8221   24.2608 C   0  0  0  0  0  0  0  0  0  0  0  0
    8.2695  -14.4196   25.0703 O   0  0  0  0  0  0  0  0  0  0  0  0
    7.2731  -14.3539   22.8975 C   0  0  0  0  0  0  0  0  0  0  0  0
    8.2151  -15.4501   22.4999 C   0  0  0  0  0  0  0  0  0  0  0  0
    9.0200  -15.0960   21.2745 C   0  0  2  0  0  0  0  0  0  0  0  0
    8.2800  -14.7127   20.1206 N   0  0  0  0  0  0  0  0  0  0  0  0
   10.1927  -15.9519   21.0447 C   0  0  0  0  0  0  0  0  0  0  0  0
   10.0065  -17.1092   20.5923 O   0  0  0  0  0  0  0  0  0  0  0  0
   14.0525  -14.4741   20.6321 O   0  0  0  0  0  0  0  0  0  0  0  0
   13.6325  -15.6537   20.0249 C   0  0  0  0  0  0  0  0  0  0  0  0
   12.6771  -16.3559   20.9643 C   0  0  2  0  0  0  0  0  0  0  0  0
   11.5441  -15.5439   21.3072 N   0  0  0  0  0  0  0  0  0  0  0  0
   13.4140  -16.7070   22.1945 C   0  0  0  0  0  0  0  0  0  0  0  0
   14.4657  -17.3821   22.1050 O   0  0  0  0  0  0  0  0  0  0  0  0
   12.9880  -16.3188   23.4478 O   0  0  0  0  0  0  0  0  0  0  0  0
  2  1  1  0
  3  2  1  0
  4  3  2  0
  6  8  1  0
  6  5  1  0
  7  6  2  0
  9  8  1  0
 10  9  1  1
 10 11  1  0
 11  3  1  0
 12 17  1  0
 12 10  1  0
 13 12  2  0
 15 14  1  0
 16 15  1  6
 16 17  1  0
 18 16  1  0
 18 20  1  0
 19 18  2  0
M  END
$$$$
