GQS.pdb
     RDKit          3D

 20 19  0  0  1  0  0  0  0  0999 V2000
    8.3902  -16.1035   19.2758 N   0  0  0  0  0  0  0  0  0  0  0  0
    7.4358  -16.0093   20.3332 C   0  0  0  0  0  0  0  0  0  0  0  0
    8.0887  -15.6656   21.6475 C   0  0  0  0  0  0  0  0  0  0  0  0
    9.2716  -15.9893   21.7764 O   0  0  0  0  0  0  0  0  0  0  0  0
    5.4940  -12.1566   26.4563 N   0  0  0  0  0  0  0  0  0  0  0  0
    6.8176  -12.4331   26.8963 C   0  0  0  0  0  0  0  0  0  0  0  0
    7.2584  -11.8579   27.8897 O   0  0  0  0  0  0  0  0  0  0  0  0
    7.6158  -13.4255   26.1197 C   0  0  0  0  0  0  0  0  0  0  0  0
    7.0498  -13.6702   24.7533 C   0  0  0  0  0  0  0  0  0  0  0  0
    7.8084  -14.7359   24.0025 C   0  0  2  0  0  0  0  0  0  0  0  0
    7.3730  -15.0055   22.6744 N   0  0  0  0  0  0  0  0  0  0  0  0
    8.1920  -15.8999   24.8139 C   0  0  0  0  0  0  0  0  0  0  0  0
    7.2940  -16.7082   25.1589 O   0  0  0  0  0  0  0  0  0  0  0  0
   12.0879  -17.2616   25.0427 O   0  0  0  0  0  0  0  0  0  0  0  0
   11.0130  -18.1297   25.2089 C   0  0  0  0  0  0  0  0  0  0  0  0
    9.9046  -17.3815   25.9159 C   0  0  2  0  0  0  0  0  0  0  0  0
    9.5369  -16.1707   25.2380 N   0  0  0  0  0  0  0  0  0  0  0  0
   10.3655  -17.0545   27.2799 C   0  0  0  0  0  0  0  0  0  0  0  0
   10.3843  -15.8569   27.6476 O   0  0  0  0  0  0  0  0  0  0  0  0
   10.7792  -18.0217   28.1722 O   0  0  0  0  0  0  0  0  0  0  0  0
  2  1  1  0
  3  2  1  0
  4  3  2  0
  6  8  1  0
  6  5  1  0
  7  6  2  0
  9  8  1  0
 10  9  1  1
 10 11  1  0
 11  3  1  0
 12 17  1  0
 12 10  1  0
 13 12  2  0
 15 14  1  0
 16 15  1  6
 16 17  1  0
 18 16  1  0
 18 20  1  0
 19 18  2  0
M  END
$$$$
