GQS.pdb
     RDKit          3D

 20 19  0  0  1  0  0  0  0  0999 V2000
   11.5835  -18.9913   18.6213 N   0  0  0  0  0  0  0  0  0  0  0  0
   12.4643  -19.4853   19.6302 C   0  0  0  0  0  0  0  0  0  0  0  0
   13.1668  -18.3667   20.3563 C   0  0  0  0  0  0  0  0  0  0  0  0
   13.8729  -17.6231   19.6716 O   0  0  0  0  0  0  0  0  0  0  0  0
   11.0264  -15.6817   25.5864 N   0  0  0  0  0  0  0  0  0  0  0  0
   10.5478  -15.5837   24.2509 C   0  0  0  0  0  0  0  0  0  0  0  0
    9.4610  -15.0510   24.0343 O   0  0  0  0  0  0  0  0  0  0  0  0
   11.4043  -16.1381   23.1627 C   0  0  0  0  0  0  0  0  0  0  0  0
   12.7298  -16.6214   23.6691 C   0  0  0  0  0  0  0  0  0  0  0  0
   13.5971  -17.1729   22.5652 C   0  0  2  0  0  0  0  0  0  0  0  0
   13.0175  -18.1873   21.7521 N   0  0  0  0  0  0  0  0  0  0  0  0
   15.0094  -17.3548   22.9301 C   0  0  0  0  0  0  0  0  0  0  0  0
   15.3080  -18.2972   23.7056 O   0  0  0  0  0  0  0  0  0  0  0  0
   17.6272  -15.7882   20.6249 O   0  0  0  0  0  0  0  0  0  0  0  0
   18.3750  -16.4284   21.6086 C   0  0  0  0  0  0  0  0  0  0  0  0
   17.4526  -16.7692   22.7581 C   0  0  2  0  0  0  0  0  0  0  0  0
   16.0730  -16.5172   22.4517 N   0  0  0  0  0  0  0  0  0  0  0  0
   17.8484  -15.9550   23.9244 C   0  0  0  0  0  0  0  0  0  0  0  0
   19.0125  -16.0598   24.3759 O   0  0  0  0  0  0  0  0  0  0  0  0
   16.9818  -15.0769   24.5415 O   0  0  0  0  0  0  0  0  0  0  0  0
  2  1  1  0
  3  2  1  0
  4  3  2  0
  6  8  1  0
  6  5  1  0
  7  6  2  0
  9  8  1  0
 10  9  1  1
 10 11  1  0
 11  3  1  0
 12 17  1  0
 12 10  1  0
 13 12  2  0
 15 14  1  0
 16 15  1  6
 16 17  1  0
 18 16  1  0
 18 20  1  0
 19 18  2  0
M  END
$$$$
