GQS.pdb
     RDKit          3D

 20 19  0  0  1  0  0  0  0  0999 V2000
    5.9493  -17.4922   20.1227 N   0  0  0  0  0  0  0  0  0  0  0  0
    7.2810  -17.2737   20.5881 C   0  0  0  0  0  0  0  0  0  0  0  0
    7.3162  -16.9788   22.0658 C   0  0  0  0  0  0  0  0  0  0  0  0
    6.2438  -16.6735   22.5925 O   0  0  0  0  0  0  0  0  0  0  0  0
    9.4054  -20.5153   26.7960 N   0  0  0  0  0  0  0  0  0  0  0  0
   10.1827  -19.5073   26.1619 C   0  0  0  0  0  0  0  0  0  0  0  0
   11.2657  -19.1833   26.6457 O   0  0  0  0  0  0  0  0  0  0  0  0
    9.6372  -18.8866   24.9201 C   0  0  0  0  0  0  0  0  0  0  0  0
    9.8478  -17.4029   24.8828 C   0  0  0  0  0  0  0  0  0  0  0  0
    8.7346  -16.6852   24.1613 C   0  0  2  0  0  0  0  0  0  0  0  0
    8.5225  -17.0511   22.8022 N   0  0  0  0  0  0  0  0  0  0  0  0
    8.6232  -15.2542   24.4782 C   0  0  0  0  0  0  0  0  0  0  0  0
    9.3280  -14.4429   23.8273 O   0  0  0  0  0  0  0  0  0  0  0  0
    5.5050  -13.4092   24.9848 O   0  0  0  0  0  0  0  0  0  0  0  0
    6.2917  -12.8134   25.9661 C   0  0  0  0  0  0  0  0  0  0  0  0
    7.7064  -13.3275   25.8159 C   0  0  2  0  0  0  0  0  0  0  0  0
    7.7539  -14.7250   25.4912 N   0  0  0  0  0  0  0  0  0  0  0  0
    8.4179  -13.0997   27.0893 C   0  0  0  0  0  0  0  0  0  0  0  0
    8.9528  -14.0711   27.6725 O   0  0  0  0  0  0  0  0  0  0  0  0
    8.5181  -11.8511   27.6672 O   0  0  0  0  0  0  0  0  0  0  0  0
  2  1  1  0
  3  2  1  0
  4  3  2  0
  6  8  1  0
  6  5  1  0
  7  6  2  0
  9  8  1  0
 10  9  1  6
 10 11  1  0
 11  3  1  0
 12 17  1  0
 12 10  1  0
 13 12  2  0
 15 14  1  0
 16 15  1  1
 16 17  1  0
 18 16  1  0
 18 20  1  0
 19 18  2  0
M  END
$$$$
