GQS.pdb
     RDKit          3D

 20 19  0  0  1  0  0  0  0  0999 V2000
    7.5352  -13.1079   18.9540 N   0  0  0  0  0  0  0  0  0  0  0  0
    8.3316  -13.9970   19.7370 C   0  0  0  0  0  0  0  0  0  0  0  0
    7.7875  -14.1526   21.1340 C   0  0  0  0  0  0  0  0  0  0  0  0
    6.9678  -13.3087   21.5034 O   0  0  0  0  0  0  0  0  0  0  0  0
    7.6273  -19.5604   24.5135 N   0  0  0  0  0  0  0  0  0  0  0  0
    7.2453  -18.6000   25.4901 C   0  0  0  0  0  0  0  0  0  0  0  0
    6.8993  -18.9772   26.6080 O   0  0  0  0  0  0  0  0  0  0  0  0
    7.2877  -17.1600   25.1032 C   0  0  0  0  0  0  0  0  0  0  0  0
    7.7387  -16.9618   23.6874 C   0  0  0  0  0  0  0  0  0  0  0  0
    7.7576  -15.5065   23.2917 C   0  0  2  0  0  0  0  0  0  0  0  0
    8.2021  -15.2157   21.9710 N   0  0  0  0  0  0  0  0  0  0  0  0
    8.2079  -14.5908   24.3496 C   0  0  0  0  0  0  0  0  0  0  0  0
    9.4430  -14.4187   24.5031 O   0  0  0  0  0  0  0  0  0  0  0  0
    5.5429  -12.3881   26.6943 O   0  0  0  0  0  0  0  0  0  0  0  0
    6.7687  -11.7980   26.4015 C   0  0  0  0  0  0  0  0  0  0  0  0
    7.7795  -12.8983   26.1646 C   0  0  2  0  0  0  0  0  0  0  0  0
    7.3179  -13.8778   25.2222 N   0  0  0  0  0  0  0  0  0  0  0  0
    8.0549  -13.5580   27.4563 C   0  0  0  0  0  0  0  0  0  0  0  0
    7.7967  -14.7772   27.5869 O   0  0  0  0  0  0  0  0  0  0  0  0
    8.5888  -12.8813   28.5332 O   0  0  0  0  0  0  0  0  0  0  0  0
  2  1  1  0
  3  2  1  0
  4  3  2  0
  6  8  1  0
  6  5  1  0
  7  6  2  0
  9  8  1  0
 10  9  1  1
 10 11  1  0
 11  3  1  0
 12 17  1  0
 12 10  1  0
 13 12  2  0
 15 14  1  0
 16 15  1  1
 16 17  1  0
 18 16  1  0
 18 20  1  0
 19 18  2  0
M  END
$$$$
