GQS.pdb
     RDKit          3D

 20 19  0  0  1  0  0  0  0  0999 V2000
    8.4185  -18.6814   16.0925 N   0  0  0  0  0  0  0  0  0  0  0  0
    7.7525  -18.2322   17.2725 C   0  0  0  0  0  0  0  0  0  0  0  0
    8.7081  -17.5870   18.2433 C   0  0  0  0  0  0  0  0  0  0  0  0
    9.9086  -17.6754   17.9759 O   0  0  0  0  0  0  0  0  0  0  0  0
    7.3443  -11.6657   20.0617 N   0  0  0  0  0  0  0  0  0  0  0  0
    7.4458  -12.8745   20.8038 C   0  0  0  0  0  0  0  0  0  0  0  0
    6.9864  -12.9263   21.9432 O   0  0  0  0  0  0  0  0  0  0  0  0
    8.1122  -14.0380   20.1503 C   0  0  0  0  0  0  0  0  0  0  0  0
    8.4407  -15.1293   21.1241 C   0  0  0  0  0  0  0  0  0  0  0  0
    9.0196  -16.3458   20.4459 C   0  0  2  0  0  0  0  0  0  0  0  0
    8.2421  -16.9166   19.3992 N   0  0  0  0  0  0  0  0  0  0  0  0
    9.6906  -17.2895   21.3514 C   0  0  0  0  0  0  0  0  0  0  0  0
    9.0020  -18.1940   21.8865 O   0  0  0  0  0  0  0  0  0  0  0  0
   13.7850  -17.2926   21.8762 O   0  0  0  0  0  0  0  0  0  0  0  0
   13.1370  -18.4768   22.2141 C   0  0  0  0  0  0  0  0  0  0  0  0
   11.7096  -18.1453   22.5896 C   0  0  2  0  0  0  0  0  0  0  0  0
   11.0915  -17.2400   21.6628 N   0  0  0  0  0  0  0  0  0  0  0  0
   11.7159  -17.5354   23.9342 C   0  0  0  0  0  0  0  0  0  0  0  0
   11.2848  -16.3677   24.0774 O   0  0  0  0  0  0  0  0  0  0  0  0
   12.1808  -18.2045   25.0474 O   0  0  0  0  0  0  0  0  0  0  0  0
  2  1  1  0
  3  2  1  0
  4  3  2  0
  6  8  1  0
  6  5  1  0
  7  6  2  0
  9  8  1  0
 10  9  1  1
 10 11  1  0
 11  3  1  0
 12 17  1  0
 12 10  1  0
 13 12  2  0
 15 14  1  0
 16 15  1  6
 16 17  1  0
 18 16  1  0
 18 20  1  0
 19 18  2  0
M  END
$$$$
