RWR.pdb
     RDKit          3D

 37 38  0  0  1  0  0  0  0  0999 V2000
   18.2062  -22.1605   -9.9688 N   0  0  0  0  0  0  0  0  0  0  0  0
   19.1825  -22.9423  -10.6613 C   0  0  0  0  0  0  0  0  0  0  0  0
   19.7346  -22.5169  -11.7552 N   0  0  0  0  0  0  0  0  0  0  0  0
   19.5916  -24.2180  -10.1848 N   0  0  0  0  0  0  0  0  0  0  0  0
   19.3391  -24.6331   -8.8245 C   0  0  0  0  0  0  0  0  0  0  0  0
   17.8260  -24.5732   -8.5240 C   0  0  0  0  0  0  0  0  0  0  0  0
   17.6278  -25.1014   -7.1417 C   0  0  0  0  0  0  0  0  0  0  0  0
   18.1611  -26.4623   -6.8752 C   0  0  2  0  0  0  0  0  0  0  0  0
   17.7418  -27.4129   -7.9222 N   0  0  0  0  0  0  0  0  0  0  0  0
   17.6826  -26.9570   -5.5673 C   0  0  0  0  0  0  0  0  0  0  0  0
   16.4888  -27.2040   -5.2823 O   0  0  0  0  0  0  0  0  0  0  0  0
   20.3699  -23.0719  -12.3318 N   0  0  0  0  0  0  0  0  0  0  0  0
   18.6379  -27.1804   -4.5206 C   0  0  2  0  0  0  0  0  0  0  0  0
   18.1842  -27.5986   -3.2149 C   0  0  0  0  0  0  0  0  0  0  0  0
   19.2319  -28.4976   -2.6229 C   0  0  0  0  0  0  0  0  0  0  0  0
   19.1789  -29.8892   -3.1136 C   0  0  0  0  0  0  0  0  0  0  0  0
   18.3087  -30.5061   -3.9871 N   0  0  0  0  0  0  0  0  0  0  0  0
   18.6950  -31.7878   -4.0938 C   0  0  0  0  0  0  0  0  0  0  0  0
   19.7711  -32.0423   -3.3370 C   0  0  0  0  0  0  0  0  0  0  0  0
   20.5374  -33.1689   -3.1003 C   0  0  0  0  0  0  0  0  0  0  0  0
   21.6136  -33.1348   -2.2526 C   0  0  0  0  0  0  0  0  0  0  0  0
   21.9427  -31.9595   -1.6223 C   0  0  0  0  0  0  0  0  0  0  0  0
   21.1750  -30.8445   -1.8642 C   0  0  0  0  0  0  0  0  0  0  0  0
   20.0764  -30.8577   -2.7224 C   0  0  0  0  0  0  0  0  0  0  0  0
   18.0163  -26.3891   -2.3181 O   0  0  0  0  0  0  0  0  0  0  0  0
   18.9477  -25.5569   -2.1854 N   0  0  0  0  0  0  0  0  0  0  0  0
   11.0514  -21.8562   -1.9792 C   0  0  0  0  0  0  0  0  0  0  0  0
   12.3019  -21.7191   -2.6964 N   0  0  0  0  0  0  0  0  0  0  0  0
   12.3750  -21.2381   -3.8064 N   0  0  0  0  0  0  0  0  0  0  0  0
   13.5033  -22.1830   -2.0486 C   0  0  0  0  0  0  0  0  0  0  0  0
   13.3755  -22.9069   -0.8149 C   0  0  0  0  0  0  0  0  0  0  0  0
   14.7704  -23.2988   -0.3640 C   0  0  0  0  0  0  0  0  0  0  0  0
   15.2206  -24.4622   -1.1952 C   0  0  1  0  0  0  0  0  0  0  0  0
   16.5330  -25.0475   -0.7742 N   0  0  0  0  0  0  0  0  0  0  0  0
   16.7971  -26.2090   -1.6302 C   0  0  0  0  0  0  0  0  0  0  0  0
   16.5946  -25.4228    0.6492 O   0  0  0  0  0  0  0  0  0  0  0  0
   16.3456  -26.5580    1.1031 O   0  0  0  0  0  0  0  0  0  0  0  0
  2  1  1  0
  3  2  2  0
  4  2  1  0
  5  4  1  0
  6  5  1  0
  7  6  1  0
  8 10  1  0
  8  9  1  6
  8  7  1  0
 10 12  1  0
 11 10  2  0
 12 13  1  0
 13 14  1  6
 14 15  1  0
 15 16  2  0
 15 23  1  0
 16 17  1  0
 17 18  1  0
 18 19  2  0
 19 20  1  0
 21 20  2  0
 22 21  1  0
 23 22  2  0
 23 18  1  0
 24 13  1  0
 25 24  2  0
 27 29  1  0
 27 26  1  0
 28 27  2  0
 30 31  1  0
 30 29  1  0
 31 32  1  0
 33 32  1  6
 33 34  1  0
 34 24  1  0
 35 37  1  0
 35 33  1  0
 36 35  2  0
M  END
$$$$
