RWR.pdb
     RDKit          3D

 37 38  0  0  1  0  0  0  0  0999 V2000
   29.3370  -20.2263  -18.4748 N   0  0  0  0  0  0  0  0  0  0  0  0
   29.1901  -20.8563  -19.7497 C   0  0  0  0  0  0  0  0  0  0  0  0
   29.8800  -20.4682  -20.7772 N   0  0  0  0  0  0  0  0  0  0  0  0
   28.2837  -21.9336  -19.9496 N   0  0  0  0  0  0  0  0  0  0  0  0
   27.6306  -22.5875  -18.8395 C   0  0  0  0  0  0  0  0  0  0  0  0
   26.2099  -22.0146  -18.6479 C   0  0  0  0  0  0  0  0  0  0  0  0
   25.6049  -22.7137  -17.4756 C   0  0  0  0  0  0  0  0  0  0  0  0
   26.5497  -23.1749  -16.4257 C   0  0  2  0  0  0  0  0  0  0  0  0
   26.9037  -24.5943  -16.6143 N   0  0  0  0  0  0  0  0  0  0  0  0
   25.9512  -23.0102  -15.0845 C   0  0  0  0  0  0  0  0  0  0  0  0
   25.0375  -23.7225  -14.6100 O   0  0  0  0  0  0  0  0  0  0  0  0
   29.8322  -20.9049  -21.6998 N   0  0  0  0  0  0  0  0  0  0  0  0
   26.4335  -21.9588  -14.2361 C   0  0  2  0  0  0  0  0  0  0  0  0
   25.9107  -21.8234  -12.8966 C   0  0  0  0  0  0  0  0  0  0  0  0
   26.8298  -20.9186  -12.1266 C   0  0  0  0  0  0  0  0  0  0  0  0
   26.3738  -20.6237  -10.7535 C   0  0  0  0  0  0  0  0  0  0  0  0
   25.1091  -20.4079  -10.2489 N   0  0  0  0  0  0  0  0  0  0  0  0
   25.2408  -20.1747   -8.9330 C   0  0  0  0  0  0  0  0  0  0  0  0
   26.5237  -20.2263   -8.5499 C   0  0  0  0  0  0  0  0  0  0  0  0
   27.1750  -20.0644   -7.3408 C   0  0  0  0  0  0  0  0  0  0  0  0
   28.5373  -20.1778   -7.2431 C   0  0  0  0  0  0  0  0  0  0  0  0
   29.2761  -20.4583   -8.3666 C   0  0  0  0  0  0  0  0  0  0  0  0
   28.6196  -20.6180   -9.5643 C   0  0  0  0  0  0  0  0  0  0  0  0
   27.2351  -20.5066   -9.6854 C   0  0  0  0  0  0  0  0  0  0  0  0
   24.5336  -21.1935  -12.9444 O   0  0  0  0  0  0  0  0  0  0  0  0
   24.3519  -20.0964  -13.5285 N   0  0  0  0  0  0  0  0  0  0  0  0
   18.2921  -24.9481   -8.7900 C   0  0  0  0  0  0  0  0  0  0  0  0
   19.0442  -23.7962   -8.3377 N   0  0  0  0  0  0  0  0  0  0  0  0
   19.1776  -23.5155   -7.1662 N   0  0  0  0  0  0  0  0  0  0  0  0
   19.6522  -22.9547   -9.3380 C   0  0  0  0  0  0  0  0  0  0  0  0
   19.0520  -22.9043  -10.6416 C   0  0  0  0  0  0  0  0  0  0  0  0
   19.7905  -21.8525  -11.4485 C   0  0  0  0  0  0  0  0  0  0  0  0
   21.2393  -22.2341  -11.4986 C   0  0  2  0  0  0  0  0  0  0  0  0
   22.0797  -21.3455  -12.3625 N   0  0  0  0  0  0  0  0  0  0  0  0
   23.4543  -21.8557  -12.3213 C   0  0  0  0  0  0  0  0  0  0  0  0
   22.0389  -19.9230  -11.9806 O   0  0  0  0  0  0  0  0  0  0  0  0
   22.2000  -19.4862  -10.8230 O   0  0  0  0  0  0  0  0  0  0  0  0
  2  1  1  0
  3  2  2  0
  4  2  1  0
  5  4  1  0
  6  5  1  0
  7  6  1  0
  8 10  1  0
  8  9  1  6
  8  7  1  0
 10 12  1  0
 11 10  2  0
 12 13  1  0
 13 14  1  1
 14 15  1  0
 15 16  2  0
 15 23  1  0
 16 17  1  0
 17 18  1  0
 18 19  2  0
 19 20  1  0
 21 20  2  0
 22 21  1  0
 23 22  2  0
 23 18  1  0
 24 13  1  0
 25 24  2  0
 27 29  1  0
 27 26  1  0
 28 27  2  0
 30 31  1  0
 30 29  1  0
 31 32  1  0
 33 32  1  6
 33 34  1  0
 34 24  1  0
 35 37  1  0
 35 33  1  0
 36 35  2  0
M  END
$$$$
