RWR.pdb
     RDKit          3D

 37 38  0  0  1  0  0  0  0  0999 V2000
   30.0452  -18.4613  -16.4191 N   0  0  0  0  0  0  0  0  0  0  0  0
   29.5196  -17.1549  -16.6662 C   0  0  0  0  0  0  0  0  0  0  0  0
   29.9161  -16.4490  -17.6795 N   0  0  0  0  0  0  0  0  0  0  0  0
   28.5414  -16.5710  -15.8152 N   0  0  0  0  0  0  0  0  0  0  0  0
   27.9201  -17.3236  -14.7504 C   0  0  0  0  0  0  0  0  0  0  0  0
   27.2268  -18.5788  -15.3228 C   0  0  0  0  0  0  0  0  0  0  0  0
   26.5453  -19.2656  -14.1858 C   0  0  0  0  0  0  0  0  0  0  0  0
   27.3869  -20.1780  -13.3692 C   0  0  2  0  0  0  0  0  0  0  0  0
   27.9493  -21.2641  -14.1936 N   0  0  0  0  0  0  0  0  0  0  0  0
   26.5902  -20.7761  -12.2775 C   0  0  0  0  0  0  0  0  0  0  0  0
   25.9474  -21.8474  -12.3571 O   0  0  0  0  0  0  0  0  0  0  0  0
   29.5329  -15.5351  -17.9286 N   0  0  0  0  0  0  0  0  0  0  0  0
   26.5282  -20.0980  -11.0148 C   0  0  2  0  0  0  0  0  0  0  0  0
   25.6435  -20.5865   -9.9830 C   0  0  0  0  0  0  0  0  0  0  0  0
   26.0733  -19.9831   -8.6762 C   0  0  0  0  0  0  0  0  0  0  0  0
   27.3999  -20.4351   -8.2113 C   0  0  0  0  0  0  0  0  0  0  0  0
   28.3506  -21.2241   -8.8232 N   0  0  0  0  0  0  0  0  0  0  0  0
   29.3804  -21.3399   -7.9691 C   0  0  0  0  0  0  0  0  0  0  0  0
   29.1543  -20.6691   -6.8315 C   0  0  0  0  0  0  0  0  0  0  0  0
   29.8767  -20.4741   -5.6685 C   0  0  0  0  0  0  0  0  0  0  0  0
   29.3818  -19.7164   -4.6394 C   0  0  0  0  0  0  0  0  0  0  0  0
   28.1428  -19.1360   -4.7604 C   0  0  0  0  0  0  0  0  0  0  0  0
   27.4320  -19.3352   -5.9206 C   0  0  0  0  0  0  0  0  0  0  0  0
   27.9169  -20.1023   -6.9790 C   0  0  0  0  0  0  0  0  0  0  0  0
   24.2224  -20.1513  -10.2769 O   0  0  0  0  0  0  0  0  0  0  0  0
   23.9953  -19.1887  -11.0513 N   0  0  0  0  0  0  0  0  0  0  0  0
   19.5146  -24.8006  -13.0028 C   0  0  0  0  0  0  0  0  0  0  0  0
   19.1834  -24.0104  -14.1702 N   0  0  0  0  0  0  0  0  0  0  0  0
   18.2654  -24.2850  -14.9124 N   0  0  0  0  0  0  0  0  0  0  0  0
   19.9931  -22.8508  -14.4494 C   0  0  0  0  0  0  0  0  0  0  0  0
   21.1965  -22.6616  -13.6890 C   0  0  0  0  0  0  0  0  0  0  0  0
   20.8093  -22.0360  -12.3618 C   0  0  0  0  0  0  0  0  0  0  0  0
   22.0664  -21.7363  -11.6022 C   0  0  1  0  0  0  0  0  0  0  0  0
   21.8464  -21.0098  -10.3114 N   0  0  0  0  0  0  0  0  0  0  0  0
   23.1533  -20.8420   -9.6670 C   0  0  0  0  0  0  0  0  0  0  0  0
   20.8970  -21.6747   -9.4018 O   0  0  0  0  0  0  0  0  0  0  0  0
   21.2039  -22.5228   -8.5396 O   0  0  0  0  0  0  0  0  0  0  0  0
  2  1  1  0
  3  2  2  0
  4  2  1  0
  5  4  1  0
  6  5  1  0
  7  6  1  0
  8 10  1  0
  8  9  1  6
  8  7  1  0
 10 12  1  0
 11 10  2  0
 12 13  1  0
 13 14  1  6
 14 15  1  0
 15 16  2  0
 15 23  1  0
 16 17  1  0
 17 18  1  0
 18 19  2  0
 19 20  1  0
 21 20  2  0
 22 21  1  0
 23 22  2  0
 23 18  1  0
 24 13  1  0
 25 24  2  0
 27 29  1  0
 27 26  1  0
 28 27  2  0
 30 31  1  0
 30 29  1  0
 31 32  1  0
 33 32  1  6
 33 34  1  0
 34 24  1  0
 35 37  1  0
 35 33  1  0
 36 35  2  0
M  END
$$$$
