RWR.pdb
     RDKit          3D

 37 38  0  0  1  0  0  0  0  0999 V2000
   27.8009  -18.0616  -19.6731 N   0  0  0  0  0  0  0  0  0  0  0  0
   27.0553  -19.1417  -19.1063 C   0  0  0  0  0  0  0  0  0  0  0  0
   26.4549  -20.0133  -19.8561 N   0  0  0  0  0  0  0  0  0  0  0  0
   26.9376  -19.3097  -17.6992 N   0  0  0  0  0  0  0  0  0  0  0  0
   27.5092  -18.3588  -16.7743 C   0  0  0  0  0  0  0  0  0  0  0  0
   27.1309  -18.7350  -15.3255 C   0  0  0  0  0  0  0  0  0  0  0  0
   28.4046  -18.9483  -14.5765 C   0  0  0  0  0  0  0  0  0  0  0  0
   28.6989  -20.3452  -14.1645 C   0  0  2  0  0  0  0  0  0  0  0  0
   28.5476  -21.2775  -15.2974 N   0  0  0  0  0  0  0  0  0  0  0  0
   27.7876  -20.7662  -13.0799 C   0  0  0  0  0  0  0  0  0  0  0  0
   26.7016  -21.3675  -13.2428 O   0  0  0  0  0  0  0  0  0  0  0  0
   25.8895  -20.7861  -19.4994 N   0  0  0  0  0  0  0  0  0  0  0  0
   28.1478  -20.4759  -11.7219 C   0  0  2  0  0  0  0  0  0  0  0  0
   27.2517  -20.8417  -10.6500 C   0  0  0  0  0  0  0  0  0  0  0  0
   27.8280  -20.3236   -9.3632 C   0  0  0  0  0  0  0  0  0  0  0  0
   26.9606  -20.5338   -8.1868 C   0  0  0  0  0  0  0  0  0  0  0  0
   25.6670  -21.0006   -8.0907 N   0  0  0  0  0  0  0  0  0  0  0  0
   25.3381  -20.9944   -6.7887 C   0  0  0  0  0  0  0  0  0  0  0  0
   26.3471  -20.5486   -6.0282 C   0  0  0  0  0  0  0  0  0  0  0  0
   26.5163  -20.3549   -4.6694 C   0  0  0  0  0  0  0  0  0  0  0  0
   27.6928  -19.8726   -4.1582 C   0  0  0  0  0  0  0  0  0  0  0  0
   28.7291  -19.5739   -5.0089 C   0  0  0  0  0  0  0  0  0  0  0  0
   28.5516  -19.7700   -6.3583 C   0  0  0  0  0  0  0  0  0  0  0  0
   27.3633  -20.2593   -6.8988 C   0  0  0  0  0  0  0  0  0  0  0  0
   25.8975  -20.1992  -10.8713 O   0  0  0  0  0  0  0  0  0  0  0  0
   25.7734  -18.9493  -10.8627 N   0  0  0  0  0  0  0  0  0  0  0  0
   23.6803  -23.2711  -16.5817 C   0  0  0  0  0  0  0  0  0  0  0  0
   24.3302  -24.1446  -15.6268 N   0  0  0  0  0  0  0  0  0  0  0  0
   25.2336  -24.8940  -15.9285 N   0  0  0  0  0  0  0  0  0  0  0  0
   23.8681  -24.1111  -14.2616 C   0  0  0  0  0  0  0  0  0  0  0  0
   22.6741  -23.3704  -13.9650 C   0  0  0  0  0  0  0  0  0  0  0  0
   22.8624  -22.7168  -12.6085 C   0  0  0  0  0  0  0  0  0  0  0  0
   23.1479  -21.2615  -12.8267 C   0  0  1  0  0  0  0  0  0  0  0  0
   23.4919  -20.5085  -11.5789 N   0  0  0  0  0  0  0  0  0  0  0  0
   24.7733  -21.0250  -11.0865 C   0  0  0  0  0  0  0  0  0  0  0  0
   22.4608  -20.5823  -10.5290 O   0  0  0  0  0  0  0  0  0  0  0  0
   22.5751  -21.2051   -9.4540 O   0  0  0  0  0  0  0  0  0  0  0  0
  2  1  1  0
  3  2  2  0
  4  2  1  0
  5  4  1  0
  6  5  1  0
  7  6  1  0
  8 10  1  0
  8  9  1  6
  8  7  1  0
 10 12  1  0
 11 10  2  0
 12 13  1  0
 13 14  1  6
 14 15  1  0
 15 16  2  0
 15 23  1  0
 16 17  1  0
 17 18  1  0
 18 19  2  0
 19 20  1  0
 21 20  2  0
 22 21  1  0
 23 22  2  0
 23 18  1  0
 24 13  1  0
 25 24  2  0
 27 29  1  0
 27 26  1  0
 28 27  2  0
 30 31  1  0
 30 29  1  0
 31 32  1  0
 33 32  1  6
 33 34  1  0
 34 24  1  0
 35 37  1  0
 35 33  1  0
 36 35  2  0
M  END
$$$$
