RWR.pdb
     RDKit          3D

 37 38  0  0  1  0  0  0  0  0999 V2000
   26.7538  -15.7355  -16.6678 N   0  0  0  0  0  0  0  0  0  0  0  0
   25.8889  -15.7068  -15.5298 C   0  0  0  0  0  0  0  0  0  0  0  0
   25.0446  -14.7390  -15.3486 N   0  0  0  0  0  0  0  0  0  0  0  0
   25.9145  -16.7343  -14.5472 N   0  0  0  0  0  0  0  0  0  0  0  0
   27.0125  -17.6688  -14.4594 C   0  0  0  0  0  0  0  0  0  0  0  0
   26.7848  -18.8473  -15.4304 C   0  0  0  0  0  0  0  0  0  0  0  0
   26.4406  -20.0419  -14.6039 C   0  0  0  0  0  0  0  0  0  0  0  0
   27.4561  -20.4654  -13.6054 C   0  0  2  0  0  0  0  0  0  0  0  0
   28.3358  -21.5151  -14.1530 N   0  0  0  0  0  0  0  0  0  0  0  0
   26.7978  -20.9861  -12.3890 C   0  0  0  0  0  0  0  0  0  0  0  0
   26.2914  -22.1253  -12.2743 O   0  0  0  0  0  0  0  0  0  0  0  0
   24.4233  -14.6619  -14.5410 N   0  0  0  0  0  0  0  0  0  0  0  0
   26.7159  -20.1424  -11.2316 C   0  0  2  0  0  0  0  0  0  0  0  0
   26.1274  -20.6516  -10.0150 C   0  0  0  0  0  0  0  0  0  0  0  0
   26.5943  -19.7914   -8.8755 C   0  0  0  0  0  0  0  0  0  0  0  0
   26.1698  -20.2711   -7.5452 C   0  0  0  0  0  0  0  0  0  0  0  0
   25.0271  -20.9308   -7.1456 N   0  0  0  0  0  0  0  0  0  0  0  0
   25.1283  -21.1349   -5.8221 C   0  0  0  0  0  0  0  0  0  0  0  0
   26.2759  -20.6441   -5.3347 C   0  0  0  0  0  0  0  0  0  0  0  0
   26.8460  -20.5982   -4.0757 C   0  0  0  0  0  0  0  0  0  0  0  0
   28.0689  -20.0160   -3.8667 C   0  0  0  0  0  0  0  0  0  0  0  0
   28.7470  -19.4651   -4.9267 C   0  0  0  0  0  0  0  0  0  0  0  0
   28.1722  -19.5157   -6.1749 C   0  0  0  0  0  0  0  0  0  0  0  0
   26.9296  -20.1029   -6.4090 C   0  0  0  0  0  0  0  0  0  0  0  0
   24.6171  -20.5685  -10.1015 O   0  0  0  0  0  0  0  0  0  0  0  0
   24.0636  -19.6586  -10.7675 N   0  0  0  0  0  0  0  0  0  0  0  0
   17.3318  -23.6455   -7.3174 C   0  0  0  0  0  0  0  0  0  0  0  0
   18.2967  -24.7041   -7.5304 N   0  0  0  0  0  0  0  0  0  0  0  0
   17.9927  -25.7951   -7.9619 N   0  0  0  0  0  0  0  0  0  0  0  0
   19.6753  -24.4329   -7.2071 C   0  0  0  0  0  0  0  0  0  0  0  0
   20.0436  -23.0859   -6.8721 C   0  0  0  0  0  0  0  0  0  0  0  0
   20.3876  -22.3675   -8.1638 C   0  0  0  0  0  0  0  0  0  0  0  0
   21.8803  -22.2706   -8.2613 C   0  0  1  0  0  0  0  0  0  0  0  0
   22.3713  -21.5405   -9.4729 N   0  0  0  0  0  0  0  0  0  0  0  0
   23.8371  -21.5282   -9.4214 C   0  0  0  0  0  0  0  0  0  0  0  0
   21.8417  -20.1720   -9.6056 O   0  0  0  0  0  0  0  0  0  0  0  0
   22.1189  -19.2192   -8.8492 O   0  0  0  0  0  0  0  0  0  0  0  0
  2  1  1  0
  3  2  2  0
  4  2  1  0
  5  4  1  0
  6  5  1  0
  7  6  1  0
  8 10  1  0
  8  9  1  6
  8  7  1  0
 10 12  1  0
 11 10  2  0
 12 13  1  0
 13 14  1  6
 14 15  1  0
 15 16  2  0
 15 23  1  0
 16 17  1  0
 17 18  1  0
 18 19  2  0
 19 20  1  0
 21 20  2  0
 22 21  1  0
 23 22  2  0
 23 18  1  0
 24 13  1  0
 25 24  2  0
 27 29  1  0
 27 26  1  0
 28 27  2  0
 30 31  1  0
 30 29  1  0
 31 32  1  0
 33 32  1  6
 33 34  1  0
 34 24  1  0
 35 37  1  0
 35 33  1  0
 36 35  2  0
M  END
$$$$
