RWR.pdb
     RDKit          3D

 37 38  0  0  1  0  0  0  0  0999 V2000
   29.9493  -27.5809  -16.8246 N   0  0  0  0  0  0  0  0  0  0  0  0
   29.6171  -27.7560  -18.2041 C   0  0  0  0  0  0  0  0  0  0  0  0
   30.5360  -27.8022  -19.1184 N   0  0  0  0  0  0  0  0  0  0  0  0
   28.2687  -27.8869  -18.6361 N   0  0  0  0  0  0  0  0  0  0  0  0
   27.1690  -27.3946  -17.8394 C   0  0  0  0  0  0  0  0  0  0  0  0
   26.9398  -25.8941  -18.1213 C   0  0  0  0  0  0  0  0  0  0  0  0
   25.7401  -25.4745  -17.3379 C   0  0  0  0  0  0  0  0  0  0  0  0
   25.6311  -26.0196  -15.9600 C   0  0  2  0  0  0  0  0  0  0  0  0
   24.5086  -26.9703  -15.8508 N   0  0  0  0  0  0  0  0  0  0  0  0
   25.4220  -24.9264  -14.9877 C   0  0  0  0  0  0  0  0  0  0  0  0
   24.6137  -24.9557  -14.0321 O   0  0  0  0  0  0  0  0  0  0  0  0
   30.3479  -27.9047  -20.1175 N   0  0  0  0  0  0  0  0  0  0  0  0
   26.1907  -23.7229  -15.1242 C   0  0  1  0  0  0  0  0  0  0  0  0
   25.9703  -22.6256  -14.2113 C   0  0  0  0  0  0  0  0  0  0  0  0
   27.1297  -21.6782  -14.3325 C   0  0  0  0  0  0  0  0  0  0  0  0
   26.9358  -20.3956  -13.6272 C   0  0  0  0  0  0  0  0  0  0  0  0
   26.6645  -20.1254  -12.3027 N   0  0  0  0  0  0  0  0  0  0  0  0
   26.5761  -18.7911  -12.1794 C   0  0  0  0  0  0  0  0  0  0  0  0
   26.7750  -18.1741  -13.3520 C   0  0  0  0  0  0  0  0  0  0  0  0
   26.7908  -16.8509  -13.7535 C   0  0  0  0  0  0  0  0  0  0  0  0
   27.0292  -16.5035  -15.0576 C   0  0  0  0  0  0  0  0  0  0  0  0
   27.2579  -17.4863  -15.9895 C   0  0  0  0  0  0  0  0  0  0  0  0
   27.2404  -18.7992  -15.5809 C   0  0  0  0  0  0  0  0  0  0  0  0
   26.9999  -19.1740  -14.2597 C   0  0  0  0  0  0  0  0  0  0  0  0
   24.6995  -21.8918  -14.5881 O   0  0  0  0  0  0  0  0  0  0  0  0
   24.3502  -21.7935  -15.7906 N   0  0  0  0  0  0  0  0  0  0  0  0
   18.9712  -23.0793   -8.9222 C   0  0  0  0  0  0  0  0  0  0  0  0
   18.3139  -23.3575  -10.1822 N   0  0  0  0  0  0  0  0  0  0  0  0
   17.2804  -23.9857  -10.2610 N   0  0  0  0  0  0  0  0  0  0  0  0
   18.9306  -22.8607  -11.3868 C   0  0  0  0  0  0  0  0  0  0  0  0
   20.1649  -22.1358  -11.2706 C   0  0  0  0  0  0  0  0  0  0  0  0
   20.5189  -21.6051  -12.6475 C   0  0  0  0  0  0  0  0  0  0  0  0
   21.8044  -20.8419  -12.5378 C   0  0  2  0  0  0  0  0  0  0  0  0
   22.5791  -20.7553  -13.8163 N   0  0  0  0  0  0  0  0  0  0  0  0
   23.9112  -21.3170  -13.5683 C   0  0  0  0  0  0  0  0  0  0  0  0
   22.6810  -19.3921  -14.3660 O   0  0  0  0  0  0  0  0  0  0  0  0
   23.7046  -18.6795  -14.3314 O   0  0  0  0  0  0  0  0  0  0  0  0
  2  1  1  0
  3  2  2  0
  4  2  1  0
  5  4  1  0
  6  5  1  0
  7  6  1  0
  8 10  1  0
  8  9  1  6
  8  7  1  0
 10 12  1  0
 11 10  2  0
 12 13  1  0
 13 14  1  1
 14 15  1  0
 15 16  2  0
 15 23  1  0
 16 17  1  0
 17 18  1  0
 18 19  2  0
 19 20  1  0
 21 20  2  0
 22 21  1  0
 23 22  2  0
 23 18  1  0
 24 13  1  0
 25 24  2  0
 27 29  1  0
 27 26  1  0
 28 27  2  0
 30 31  1  0
 30 29  1  0
 31 32  1  0
 33 32  1  6
 33 34  1  0
 34 24  1  0
 35 37  1  0
 35 33  1  0
 36 35  2  0
M  END
$$$$
