RWR.pdb
     RDKit          3D

 37 38  0  0  1  0  0  0  0  0999 V2000
   31.1770  -15.8428  -17.8717 N   0  0  0  0  0  0  0  0  0  0  0  0
   30.3199  -16.9839  -17.9567 C   0  0  0  0  0  0  0  0  0  0  0  0
   29.5630  -17.1833  -18.9909 N   0  0  0  0  0  0  0  0  0  0  0  0
   30.2575  -17.9494  -16.9147 N   0  0  0  0  0  0  0  0  0  0  0  0
   29.2887  -19.0206  -16.9341 C   0  0  0  0  0  0  0  0  0  0  0  0
   27.9427  -18.5288  -16.3597 C   0  0  0  0  0  0  0  0  0  0  0  0
   27.2503  -19.7157  -15.7759 C   0  0  0  0  0  0  0  0  0  0  0  0
   27.9096  -20.3520  -14.6062 C   0  0  2  0  0  0  0  0  0  0  0  0
   28.8878  -21.3694  -15.0348 N   0  0  0  0  0  0  0  0  0  0  0  0
   26.9049  -20.9980  -13.7359 C   0  0  0  0  0  0  0  0  0  0  0  0
   26.3728  -22.1106  -13.9510 O   0  0  0  0  0  0  0  0  0  0  0  0
   28.9801  -18.0117  -19.1255 N   0  0  0  0  0  0  0  0  0  0  0  0
   26.4849  -20.3204  -12.5432 C   0  0  1  0  0  0  0  0  0  0  0  0
   25.5205  -20.9443  -11.6676 C   0  0  0  0  0  0  0  0  0  0  0  0
   25.7856  -20.4688  -10.2676 C   0  0  0  0  0  0  0  0  0  0  0  0
   27.1142  -20.8455   -9.7448 C   0  0  0  0  0  0  0  0  0  0  0  0
   28.1573  -21.5261  -10.3358 N   0  0  0  0  0  0  0  0  0  0  0  0
   29.1417  -21.6118   -9.4265 C   0  0  0  0  0  0  0  0  0  0  0  0
   28.7984  -21.0238   -8.2725 C   0  0  0  0  0  0  0  0  0  0  0  0
   29.4348  -20.8402   -7.0585 C   0  0  0  0  0  0  0  0  0  0  0  0
   28.8236  -20.1797   -6.0249 C   0  0  0  0  0  0  0  0  0  0  0  0
   27.5522  -19.6877   -6.1929 C   0  0  0  0  0  0  0  0  0  0  0  0
   26.9276  -19.8749   -7.4036 C   0  0  0  0  0  0  0  0  0  0  0  0
   27.5313  -20.5438   -8.4675 C   0  0  0  0  0  0  0  0  0  0  0  0
   24.1197  -20.5276  -12.0670 O   0  0  0  0  0  0  0  0  0  0  0  0
   23.8278  -19.3135  -12.2031 N   0  0  0  0  0  0  0  0  0  0  0  0
   17.3426  -25.1344   -9.6874 C   0  0  0  0  0  0  0  0  0  0  0  0
   18.1350  -25.5435  -10.8284 N   0  0  0  0  0  0  0  0  0  0  0  0
   18.5584  -26.6707  -10.9659 N   0  0  0  0  0  0  0  0  0  0  0  0
   18.4266  -24.5532  -11.8348 C   0  0  0  0  0  0  0  0  0  0  0  0
   19.7720  -24.4594  -12.3279 C   0  0  0  0  0  0  0  0  0  0  0  0
   20.3531  -23.1472  -11.8348 C   0  0  0  0  0  0  0  0  0  0  0  0
   21.0694  -22.4943  -12.9783 C   0  0  1  0  0  0  0  0  0  0  0  0
   21.7514  -21.2093  -12.6236 N   0  0  0  0  0  0  0  0  0  0  0  0
   23.1432  -21.5233  -12.2835 C   0  0  0  0  0  0  0  0  0  0  0  0
   21.1014  -20.4660  -11.5300 O   0  0  0  0  0  0  0  0  0  0  0  0
   21.4954  -20.4410  -10.3465 O   0  0  0  0  0  0  0  0  0  0  0  0
  2  1  1  0
  3  2  2  0
  4  2  1  0
  5  4  1  0
  6  5  1  0
  7  6  1  0
  8 10  1  0
  8  9  1  6
  8  7  1  0
 10 12  1  0
 11 10  2  0
 12 13  1  0
 13 14  1  6
 14 15  1  0
 15 16  2  0
 15 23  1  0
 16 17  1  0
 17 18  1  0
 18 19  2  0
 19 20  1  0
 21 20  2  0
 22 21  1  0
 23 22  2  0
 23 18  1  0
 24 13  1  0
 25 24  2  0
 27 29  1  0
 27 26  1  0
 28 27  2  0
 30 31  1  0
 30 29  1  0
 31 32  1  0
 33 32  1  6
 33 34  1  0
 34 24  1  0
 35 37  1  0
 35 33  1  0
 36 35  2  0
M  END
$$$$
