RWR.pdb
     RDKit          3D

 37 38  0  0  1  0  0  0  0  0999 V2000
   31.6948  -24.5684  -16.1046 N   0  0  0  0  0  0  0  0  0  0  0  0
   31.2467  -25.1443  -17.3340 C   0  0  0  0  0  0  0  0  0  0  0  0
   31.7430  -26.2575  -17.7776 N   0  0  0  0  0  0  0  0  0  0  0  0
   30.2400  -24.5252  -18.1247 N   0  0  0  0  0  0  0  0  0  0  0  0
   29.6560  -23.2588  -17.7485 C   0  0  0  0  0  0  0  0  0  0  0  0
   28.9268  -23.3925  -16.3943 C   0  0  0  0  0  0  0  0  0  0  0  0
   27.4995  -23.0179  -16.6210 C   0  0  0  0  0  0  0  0  0  0  0  0
   27.0876  -21.6745  -16.1380 C   0  0  2  0  0  0  0  0  0  0  0  0
   28.2592  -20.8060  -15.9168 N   0  0  0  0  0  0  0  0  0  0  0  0
   26.3374  -21.7897  -14.8700 C   0  0  0  0  0  0  0  0  0  0  0  0
   25.3002  -22.4711  -14.7048 O   0  0  0  0  0  0  0  0  0  0  0  0
   31.4103  -26.7425  -18.6132 N   0  0  0  0  0  0  0  0  0  0  0  0
   26.8096  -21.0747  -13.7194 C   0  0  1  0  0  0  0  0  0  0  0  0
   26.1239  -21.2183  -12.4564 C   0  0  0  0  0  0  0  0  0  0  0  0
   26.8831  -20.4371  -11.4222 C   0  0  0  0  0  0  0  0  0  0  0  0
   26.2389  -20.4112  -10.0938 C   0  0  0  0  0  0  0  0  0  0  0  0
   24.9196  -20.5705   -9.7269 N   0  0  0  0  0  0  0  0  0  0  0  0
   24.8617  -20.4520   -8.3905 C   0  0  0  0  0  0  0  0  0  0  0  0
   26.0724  -20.2238   -7.8637 C   0  0  0  0  0  0  0  0  0  0  0  0
   26.5427  -20.0337   -6.5772 C   0  0  0  0  0  0  0  0  0  0  0  0
   27.8725  -19.8152   -6.3283 C   0  0  0  0  0  0  0  0  0  0  0  0
   28.7613  -19.7835   -7.3751 C   0  0  0  0  0  0  0  0  0  0  0  0
   28.2845  -19.9738   -8.6508 C   0  0  0  0  0  0  0  0  0  0  0  0
   26.9360  -20.1974   -8.9256 C   0  0  0  0  0  0  0  0  0  0  0  0
   24.7234  -20.6508  -12.5653 O   0  0  0  0  0  0  0  0  0  0  0  0
   24.5418  -19.4590  -12.9179 N   0  0  0  0  0  0  0  0  0  0  0  0
   16.9542  -22.2292  -10.9268 C   0  0  0  0  0  0  0  0  0  0  0  0
   16.7967  -22.5236  -12.3359 N   0  0  0  0  0  0  0  0  0  0  0  0
   15.7591  -22.3407  -12.9348 N   0  0  0  0  0  0  0  0  0  0  0  0
   17.9333  -23.0603  -13.0421 C   0  0  0  0  0  0  0  0  0  0  0  0
   19.1479  -23.2817  -12.3088 C   0  0  0  0  0  0  0  0  0  0  0  0
   19.8980  -21.9639  -12.2511 C   0  0  0  0  0  0  0  0  0  0  0  0
   21.3613  -22.2521  -12.4025 C   0  0  1  0  0  0  0  0  0  0  0  0
   22.2314  -21.0334  -12.4014 N   0  0  0  0  0  0  0  0  0  0  0  0
   23.6218  -21.4797  -12.2632 C   0  0  0  0  0  0  0  0  0  0  0  0
   21.8911  -20.0530  -11.3555 O   0  0  0  0  0  0  0  0  0  0  0  0
   22.2112  -20.1465  -10.1533 O   0  0  0  0  0  0  0  0  0  0  0  0
  2  1  1  0
  3  2  2  0
  4  2  1  0
  5  4  1  0
  6  5  1  0
  7  6  1  0
  8 10  1  0
  8  9  1  1
  8  7  1  0
 10 12  1  0
 11 10  2  0
 12 13  1  0
 13 14  1  1
 14 15  1  0
 15 16  2  0
 15 23  1  0
 16 17  1  0
 17 18  1  0
 18 19  2  0
 19 20  1  0
 21 20  2  0
 22 21  1  0
 23 22  2  0
 23 18  1  0
 24 13  1  0
 25 24  2  0
 27 29  1  0
 27 26  1  0
 28 27  2  0
 30 31  1  0
 30 29  1  0
 31 32  1  0
 33 32  1  6
 33 34  1  0
 34 24  1  0
 35 37  1  0
 35 33  1  0
 36 35  2  0
M  END
$$$$
