RWR.pdb
     RDKit          3D

 37 38  0  0  1  0  0  0  0  0999 V2000
   25.6481  -20.9700  -19.4559 N   0  0  0  0  0  0  0  0  0  0  0  0
   25.5995  -22.1539  -18.6559 C   0  0  0  0  0  0  0  0  0  0  0  0
   25.4248  -23.3225  -19.1907 N   0  0  0  0  0  0  0  0  0  0  0  0
   25.7397  -22.1050  -17.2417 N   0  0  0  0  0  0  0  0  0  0  0  0
   25.7868  -20.8489  -16.5300 C   0  0  0  0  0  0  0  0  0  0  0  0
   27.1851  -20.2104  -16.6732 C   0  0  0  0  0  0  0  0  0  0  0  0
   27.6481  -19.8461  -15.3013 C   0  0  0  0  0  0  0  0  0  0  0  0
   28.2032  -20.9524  -14.4794 C   0  0  2  0  0  0  0  0  0  0  0  0
   28.2847  -22.2037  -15.2562 N   0  0  0  0  0  0  0  0  0  0  0  0
   27.3566  -21.1872  -13.2910 C   0  0  0  0  0  0  0  0  0  0  0  0
   26.2517  -21.7757  -13.2973 O   0  0  0  0  0  0  0  0  0  0  0  0
   25.4015  -24.1979  -18.6642 N   0  0  0  0  0  0  0  0  0  0  0  0
   27.8094  -20.7137  -12.0147 C   0  0  1  0  0  0  0  0  0  0  0  0
   26.9845  -20.9087  -10.8453 C   0  0  0  0  0  0  0  0  0  0  0  0
   27.7792  -20.4945   -9.6398 C   0  0  0  0  0  0  0  0  0  0  0  0
   27.0315  -20.5739   -8.3690 C   0  0  0  0  0  0  0  0  0  0  0  0
   25.7390  -20.9744   -8.1053 N   0  0  0  0  0  0  0  0  0  0  0  0
   25.5473  -20.8522   -6.7818 C   0  0  0  0  0  0  0  0  0  0  0  0
   26.6451  -20.3932   -6.1657 C   0  0  0  0  0  0  0  0  0  0  0  0
   26.9610  -20.1017   -4.8514 C   0  0  0  0  0  0  0  0  0  0  0  0
   28.2007  -19.6331   -4.5023 C   0  0  0  0  0  0  0  0  0  0  0  0
   29.1532  -19.4475   -5.4745 C   0  0  0  0  0  0  0  0  0  0  0  0
   28.8299  -19.7404   -6.7786 C   0  0  0  0  0  0  0  0  0  0  0  0
   27.5751  -20.2177   -7.1548 C   0  0  0  0  0  0  0  0  0  0  0  0
   25.7488  -20.0369  -10.9378 O   0  0  0  0  0  0  0  0  0  0  0  0
   25.8488  -18.7849  -10.9509 N   0  0  0  0  0  0  0  0  0  0  0  0
   22.6113  -19.1837  -17.4615 C   0  0  0  0  0  0  0  0  0  0  0  0
   21.7008  -18.6017  -16.4974 N   0  0  0  0  0  0  0  0  0  0  0  0
   20.5804  -18.2400  -16.7848 N   0  0  0  0  0  0  0  0  0  0  0  0
   22.1643  -18.4502  -15.1407 C   0  0  0  0  0  0  0  0  0  0  0  0
   23.4975  -18.8805  -14.8247 C   0  0  0  0  0  0  0  0  0  0  0  0
   23.4047  -19.8517  -13.6624 C   0  0  0  0  0  0  0  0  0  0  0  0
   23.3535  -19.0569  -12.3924 C   0  0  1  0  0  0  0  0  0  0  0  0
   23.2358  -19.8872  -11.1518 N   0  0  0  0  0  0  0  0  0  0  0  0
   24.4799  -20.6507  -11.0078 C   0  0  0  0  0  0  0  0  0  0  0  0
   22.0674  -20.7847  -11.1379 O   0  0  0  0  0  0  0  0  0  0  0  0
   20.8815  -20.4164  -11.0174 O   0  0  0  0  0  0  0  0  0  0  0  0
  2  1  1  0
  3  2  2  0
  4  2  1  0
  5  4  1  0
  6  5  1  0
  7  6  1  0
  8 10  1  0
  8  9  1  6
  8  7  1  0
 10 12  1  0
 11 10  2  0
 12 13  1  0
 13 14  1  6
 14 15  1  0
 15 16  2  0
 15 23  1  0
 16 17  1  0
 17 18  1  0
 18 19  2  0
 19 20  1  0
 21 20  2  0
 22 21  1  0
 23 22  2  0
 23 18  1  0
 24 13  1  0
 25 24  2  0
 27 29  1  0
 27 26  1  0
 28 27  2  0
 30 31  1  0
 30 29  1  0
 31 32  1  0
 33 32  1  1
 33 34  1  0
 34 24  1  0
 35 37  1  0
 35 33  1  0
 36 35  2  0
M  END
$$$$
