RWR.pdb
     RDKit          3D

 37 38  0  0  1  0  0  0  0  0999 V2000
   32.7370  -22.7658  -19.6964 N   0  0  0  0  0  0  0  0  0  0  0  0
   31.8015  -22.1174  -20.5615 C   0  0  0  0  0  0  0  0  0  0  0  0
   32.1338  -21.7505  -21.7603 N   0  0  0  0  0  0  0  0  0  0  0  0
   30.4682  -21.8454  -20.1488 N   0  0  0  0  0  0  0  0  0  0  0  0
   29.9985  -22.1993  -18.8296 C   0  0  0  0  0  0  0  0  0  0  0  0
   29.4581  -23.6455  -18.8292 C   0  0  0  0  0  0  0  0  0  0  0  0
   28.6229  -23.8059  -17.6022 C   0  0  0  0  0  0  0  0  0  0  0  0
   27.5997  -22.7557  -17.3615 C   0  0  2  0  0  0  0  0  0  0  0  0
   28.1338  -21.4137  -17.6604 N   0  0  0  0  0  0  0  0  0  0  0  0
   27.1523  -22.7844  -15.9533 C   0  0  0  0  0  0  0  0  0  0  0  0
   27.2681  -23.7617  -15.1793 O   0  0  0  0  0  0  0  0  0  0  0  0
   31.4881  -21.3332  -22.4335 N   0  0  0  0  0  0  0  0  0  0  0  0
   26.5312  -21.6152  -15.4008 C   0  0  1  0  0  0  0  0  0  0  0  0
   26.0752  -21.6269  -14.0305 C   0  0  0  0  0  0  0  0  0  0  0  0
   26.6764  -20.4425  -13.3289 C   0  0  0  0  0  0  0  0  0  0  0  0
   26.2820  -20.3179  -11.9114 C   0  0  0  0  0  0  0  0  0  0  0  0
   25.1335  -19.8196  -11.3342 N   0  0  0  0  0  0  0  0  0  0  0  0
   25.2779  -19.9288  -10.0036 C   0  0  0  0  0  0  0  0  0  0  0  0
   26.4592  -20.4718   -9.6796 C   0  0  0  0  0  0  0  0  0  0  0  0
   27.0769  -20.7912   -8.4843 C   0  0  0  0  0  0  0  0  0  0  0  0
   28.3254  -21.3555   -8.4545 C   0  0  0  0  0  0  0  0  0  0  0  0
   28.9815  -21.6115   -9.6338 C   0  0  0  0  0  0  0  0  0  0  0  0
   28.3592  -21.2907  -10.8173 C   0  0  0  0  0  0  0  0  0  0  0  0
   27.0900  -20.7161  -10.8698 C   0  0  0  0  0  0  0  0  0  0  0  0
   24.5657  -21.5026  -13.9907 O   0  0  0  0  0  0  0  0  0  0  0  0
   23.9805  -20.6030  -14.6434 N   0  0  0  0  0  0  0  0  0  0  0  0
   18.1919  -22.9067   -9.0969 C   0  0  0  0  0  0  0  0  0  0  0  0
   19.4752  -23.2731   -8.5348 N   0  0  0  0  0  0  0  0  0  0  0  0
   19.5970  -24.0944   -7.6518 N   0  0  0  0  0  0  0  0  0  0  0  0
   20.6497  -22.6207   -9.0576 C   0  0  0  0  0  0  0  0  0  0  0  0
   20.4734  -21.4470   -9.8661 C   0  0  0  0  0  0  0  0  0  0  0  0
   20.6110  -21.8633  -11.3188 C   0  0  0  0  0  0  0  0  0  0  0  0
   22.0718  -21.9723  -11.6372 C   0  0  2  0  0  0  0  0  0  0  0  0
   22.3658  -22.3277  -13.0618 N   0  0  0  0  0  0  0  0  0  0  0  0
   23.8229  -22.4120  -13.2078 C   0  0  0  0  0  0  0  0  0  0  0  0
   21.7957  -21.3902  -14.0451 O   0  0  0  0  0  0  0  0  0  0  0  0
   20.6088  -21.3882  -14.4298 O   0  0  0  0  0  0  0  0  0  0  0  0
  2  1  1  0
  3  2  2  0
  4  2  1  0
  5  4  1  0
  6  5  1  0
  7  6  1  0
  8 10  1  0
  8  9  1  1
  8  7  1  0
 10 12  1  0
 11 10  2  0
 12 13  1  0
 13 14  1  1
 14 15  1  0
 15 16  2  0
 15 23  1  0
 16 17  1  0
 17 18  1  0
 18 19  2  0
 19 20  1  0
 21 20  2  0
 22 21  1  0
 23 22  2  0
 23 18  1  0
 24 13  1  0
 25 24  2  0
 27 29  1  0
 27 26  1  0
 28 27  2  0
 30 31  1  0
 30 29  1  0
 31 32  1  0
 33 32  1  1
 33 34  1  0
 34 24  1  0
 35 37  1  0
 35 33  1  0
 36 35  2  0
M  END
$$$$
