RWR.pdb
     RDKit          3D

 37 38  0  0  1  0  0  0  0  0999 V2000
   27.6917  -27.4935  -15.7713 N   0  0  0  0  0  0  0  0  0  0  0  0
   27.4881  -27.5016  -17.1863 C   0  0  0  0  0  0  0  0  0  0  0  0
   26.5832  -28.2528  -17.7332 N   0  0  0  0  0  0  0  0  0  0  0  0
   28.2659  -26.6895  -18.0567 N   0  0  0  0  0  0  0  0  0  0  0  0
   28.9246  -25.4931  -17.5862 C   0  0  0  0  0  0  0  0  0  0  0  0
   28.2481  -24.2432  -18.1892 C   0  0  0  0  0  0  0  0  0  0  0  0
   27.4718  -23.5885  -17.0948 C   0  0  0  0  0  0  0  0  0  0  0  0
   27.7014  -22.1327  -16.9059 C   0  0  2  0  0  0  0  0  0  0  0  0
   29.1409  -21.8308  -16.7950 N   0  0  0  0  0  0  0  0  0  0  0  0
   27.0223  -21.6578  -15.6823 C   0  0  0  0  0  0  0  0  0  0  0  0
   27.1434  -22.1684  -14.5456 O   0  0  0  0  0  0  0  0  0  0  0  0
   26.4142  -28.3092  -18.7394 N   0  0  0  0  0  0  0  0  0  0  0  0
   26.1475  -20.5243  -15.7723 C   0  0  1  0  0  0  0  0  0  0  0  0
   25.4476  -20.0652  -14.5953 C   0  0  0  0  0  0  0  0  0  0  0  0
   25.9660  -18.6989  -14.2477 C   0  0  0  0  0  0  0  0  0  0  0  0
   26.1326  -17.8040  -15.4103 C   0  0  0  0  0  0  0  0  0  0  0  0
   25.2404  -16.9577  -16.0335 N   0  0  0  0  0  0  0  0  0  0  0  0
   25.8926  -16.3721  -17.0509 C   0  0  0  0  0  0  0  0  0  0  0  0
   27.1634  -16.7901  -17.1266 C   0  0  0  0  0  0  0  0  0  0  0  0
   28.2236  -16.5019  -17.9665 C   0  0  0  0  0  0  0  0  0  0  0  0
   29.4468  -17.0974  -17.8018 C   0  0  0  0  0  0  0  0  0  0  0  0
   29.6292  -18.0000  -16.7827 C   0  0  0  0  0  0  0  0  0  0  0  0
   28.5693  -18.2800  -15.9525 C   0  0  0  0  0  0  0  0  0  0  0  0
   27.3171  -17.6856  -16.1027 C   0  0  0  0  0  0  0  0  0  0  0  0
   23.9643  -19.9644  -14.8869 O   0  0  0  0  0  0  0  0  0  0  0  0
   23.5439  -19.9604  -16.0705 N   0  0  0  0  0  0  0  0  0  0  0  0
   18.2927  -24.4409  -17.5327 C   0  0  0  0  0  0  0  0  0  0  0  0
   18.5097  -23.0841  -17.9899 N   0  0  0  0  0  0  0  0  0  0  0  0
   18.4687  -22.7688  -19.1594 N   0  0  0  0  0  0  0  0  0  0  0  0
   18.7889  -22.0763  -16.9975 C   0  0  0  0  0  0  0  0  0  0  0  0
   19.5128  -22.4634  -15.8192 C   0  0  0  0  0  0  0  0  0  0  0  0
   19.7429  -21.2143  -14.9888 C   0  0  0  0  0  0  0  0  0  0  0  0
   21.2188  -21.0591  -14.7773 C   0  0  1  0  0  0  0  0  0  0  0  0
   21.6033  -19.8411  -13.9958 N   0  0  0  0  0  0  0  0  0  0  0  0
   23.0578  -19.8731  -13.8090 C   0  0  0  0  0  0  0  0  0  0  0  0
   20.9130  -19.7156  -12.7002 O   0  0  0  0  0  0  0  0  0  0  0  0
   21.4751  -19.7006  -11.5865 O   0  0  0  0  0  0  0  0  0  0  0  0
  2  1  1  0
  3  2  2  0
  4  2  1  0
  5  4  1  0
  6  5  1  0
  7  6  1  0
  8 10  1  0
  8  9  1  1
  8  7  1  0
 10 12  1  0
 11 10  2  0
 12 13  1  0
 13 14  1  1
 14 15  1  0
 15 16  2  0
 15 23  1  0
 16 17  1  0
 17 18  1  0
 18 19  2  0
 19 20  1  0
 21 20  2  0
 22 21  1  0
 23 22  2  0
 23 18  1  0
 24 13  1  0
 25 24  2  0
 27 29  1  0
 27 26  1  0
 28 27  2  0
 30 31  1  0
 30 29  1  0
 31 32  1  0
 33 32  1  6
 33 34  1  0
 34 24  1  0
 35 37  1  0
 35 33  1  0
 36 35  2  0
M  END
$$$$
