RWR.pdb
     RDKit          3D

 37 38  0  0  1  0  0  0  0  0999 V2000
   29.3902  -23.3717  -19.2366 N   0  0  0  0  0  0  0  0  0  0  0  0
   29.7937  -23.6468  -17.8929 C   0  0  0  0  0  0  0  0  0  0  0  0
   31.0145  -23.4500  -17.5017 N   0  0  0  0  0  0  0  0  0  0  0  0
   28.8784  -24.1475  -16.9267 N   0  0  0  0  0  0  0  0  0  0  0  0
   27.8007  -25.0356  -17.2959 C   0  0  0  0  0  0  0  0  0  0  0  0
   26.6738  -24.2417  -17.9912 C   0  0  0  0  0  0  0  0  0  0  0  0
   25.7663  -23.7315  -16.9211 C   0  0  0  0  0  0  0  0  0  0  0  0
   25.5561  -24.6277  -15.7548 C   0  0  2  0  0  0  0  0  0  0  0  0
   24.5924  -25.6982  -16.0728 N   0  0  0  0  0  0  0  0  0  0  0  0
   25.0468  -23.8599  -14.5993 C   0  0  0  0  0  0  0  0  0  0  0  0
   23.8445  -23.7805  -14.2594 O   0  0  0  0  0  0  0  0  0  0  0  0
   31.3431  -23.6000  -16.5458 N   0  0  0  0  0  0  0  0  0  0  0  0
   25.9796  -23.1367  -13.7840 C   0  0  2  0  0  0  0  0  0  0  0  0
   25.4921  -22.2177  -12.7822 C   0  0  0  0  0  0  0  0  0  0  0  0
   26.6582  -21.7831  -11.9410 C   0  0  0  0  0  0  0  0  0  0  0  0
   26.2794  -21.0285  -10.7297 C   0  0  0  0  0  0  0  0  0  0  0  0
   25.0834  -20.4478  -10.3649 N   0  0  0  0  0  0  0  0  0  0  0  0
   25.2693  -19.8759   -9.1642 C   0  0  0  0  0  0  0  0  0  0  0  0
   26.5227  -20.0514   -8.7241 C   0  0  0  0  0  0  0  0  0  0  0  0
   27.2042  -19.6729   -7.5819 C   0  0  0  0  0  0  0  0  0  0  0  0
   28.5210  -20.0028   -7.3942 C   0  0  0  0  0  0  0  0  0  0  0  0
   29.1826  -20.7246   -8.3576 C   0  0  0  0  0  0  0  0  0  0  0  0
   28.4966  -21.0967   -9.4897 C   0  0  0  0  0  0  0  0  0  0  0  0
   27.1573  -20.7714   -9.7003 C   0  0  0  0  0  0  0  0  0  0  0  0
   24.8931  -20.9982  -13.4525 O   0  0  0  0  0  0  0  0  0  0  0  0
   25.5404  -20.3633  -14.3217 N   0  0  0  0  0  0  0  0  0  0  0  0
   17.7594  -18.2152  -14.5707 C   0  0  0  0  0  0  0  0  0  0  0  0
   17.9747  -19.2393  -13.5697 N   0  0  0  0  0  0  0  0  0  0  0  0
   17.3531  -20.2794  -13.5474 N   0  0  0  0  0  0  0  0  0  0  0  0
   18.9743  -18.9936  -12.5603 C   0  0  0  0  0  0  0  0  0  0  0  0
   19.7057  -17.7589  -12.6127 C   0  0  0  0  0  0  0  0  0  0  0  0
   20.9116  -17.9754  -13.5080 C   0  0  0  0  0  0  0  0  0  0  0  0
   21.7041  -19.1215  -12.9554 C   0  0  1  0  0  0  0  0  0  0  0  0
   22.8650  -19.5336  -13.8067 N   0  0  0  0  0  0  0  0  0  0  0  0
   23.5952  -20.5819  -13.0861 C   0  0  0  0  0  0  0  0  0  0  0  0
   23.7657  -18.4261  -14.1715 O   0  0  0  0  0  0  0  0  0  0  0  0
   24.6520  -17.9497  -13.4337 O   0  0  0  0  0  0  0  0  0  0  0  0
  2  1  1  0
  3  2  2  0
  4  2  1  0
  5  4  1  0
  6  5  1  0
  7  6  1  0
  8 10  1  0
  8  9  1  6
  8  7  1  0
 10 12  1  0
 11 10  2  0
 12 13  1  0
 13 14  1  1
 14 15  1  0
 15 16  2  0
 15 23  1  0
 16 17  1  0
 17 18  1  0
 18 19  2  0
 19 20  1  0
 21 20  2  0
 22 21  1  0
 23 22  2  0
 23 18  1  0
 24 13  1  0
 25 24  2  0
 27 29  1  0
 27 26  1  0
 28 27  2  0
 30 31  1  0
 30 29  1  0
 31 32  1  0
 33 32  1  6
 33 34  1  0
 34 24  1  0
 35 37  1  0
 35 33  1  0
 36 35  2  0
M  END
$$$$
