RWR.pdb
     RDKit          3D

 37 38  0  0  1  0  0  0  0  0999 V2000
   27.5663  -14.7831  -14.7847 N   0  0  0  0  0  0  0  0  0  0  0  0
   28.0124  -15.2398  -16.0639 C   0  0  0  0  0  0  0  0  0  0  0  0
   28.7346  -14.4868  -16.8346 N   0  0  0  0  0  0  0  0  0  0  0  0
   27.6857  -16.5359  -16.5490 N   0  0  0  0  0  0  0  0  0  0  0  0
   27.9610  -17.7239  -15.7750 C   0  0  0  0  0  0  0  0  0  0  0  0
   27.5845  -18.9834  -16.5846 C   0  0  0  0  0  0  0  0  0  0  0  0
   27.0351  -19.9819  -15.6201 C   0  0  0  0  0  0  0  0  0  0  0  0
   27.9641  -20.4525  -14.5604 C   0  0  2  0  0  0  0  0  0  0  0  0
   28.7876  -21.5799  -15.0365 N   0  0  0  0  0  0  0  0  0  0  0  0
   27.2080  -20.8889  -13.3679 C   0  0  0  0  0  0  0  0  0  0  0  0
   26.3268  -21.7781  -13.3580 O   0  0  0  0  0  0  0  0  0  0  0  0
   29.0605  -14.7602  -17.7637 N   0  0  0  0  0  0  0  0  0  0  0  0
   27.4822  -20.2616  -12.1072 C   0  0  2  0  0  0  0  0  0  0  0  0
   26.7246  -20.6430  -10.9383 C   0  0  0  0  0  0  0  0  0  0  0  0
   27.3098  -19.9328   -9.7511 C   0  0  0  0  0  0  0  0  0  0  0  0
   26.6784  -20.2887   -8.4646 C   0  0  0  0  0  0  0  0  0  0  0  0
   25.4756  -20.9033   -8.1886 N   0  0  0  0  0  0  0  0  0  0  0  0
   25.3703  -20.9884   -6.8526 C   0  0  0  0  0  0  0  0  0  0  0  0
   26.4395  -20.4623   -6.2400 C   0  0  0  0  0  0  0  0  0  0  0  0
   26.8121  -20.3068   -4.9173 C   0  0  0  0  0  0  0  0  0  0  0  0
   27.9999  -19.7152   -4.5752 C   0  0  0  0  0  0  0  0  0  0  0  0
   28.8420  -19.2655   -5.5629 C   0  0  0  0  0  0  0  0  0  0  0  0
   28.4632  -19.4247   -6.8752 C   0  0  0  0  0  0  0  0  0  0  0  0
   27.2595  -20.0235   -7.2446 C   0  0  0  0  0  0  0  0  0  0  0  0
   25.2806  -20.2140  -11.1001 O   0  0  0  0  0  0  0  0  0  0  0  0
   24.9906  -19.0099  -11.3099 N   0  0  0  0  0  0  0  0  0  0  0  0
   17.6929  -22.3571  -12.4990 C   0  0  0  0  0  0  0  0  0  0  0  0
   18.1657  -22.0940  -13.8422 N   0  0  0  0  0  0  0  0  0  0  0  0
   17.4814  -21.5607  -14.6885 N   0  0  0  0  0  0  0  0  0  0  0  0
   19.5112  -22.4932  -14.1720 C   0  0  0  0  0  0  0  0  0  0  0  0
   20.3365  -23.0328  -13.1280 C   0  0  0  0  0  0  0  0  0  0  0  0
   20.7755  -21.8793  -12.2451 C   0  0  0  0  0  0  0  0  0  0  0  0
   22.2612  -21.9669  -12.0663 C   0  0  1  0  0  0  0  0  0  0  0  0
   22.8449  -20.8738  -11.2257 N   0  0  0  0  0  0  0  0  0  0  0  0
   24.2617  -21.1865  -11.0104 C   0  0  0  0  0  0  0  0  0  0  0  0
   22.1539  -20.6698   -9.9405 O   0  0  0  0  0  0  0  0  0  0  0  0
   22.4191  -21.2714   -8.8802 O   0  0  0  0  0  0  0  0  0  0  0  0
  2  1  1  0
  3  2  2  0
  4  2  1  0
  5  4  1  0
  6  5  1  0
  7  6  1  0
  8 10  1  0
  8  9  1  6
  8  7  1  0
 10 12  1  0
 11 10  2  0
 12 13  1  0
 13 14  1  1
 14 15  1  0
 15 16  2  0
 15 23  1  0
 16 17  1  0
 17 18  1  0
 18 19  2  0
 19 20  1  0
 21 20  2  0
 22 21  1  0
 23 22  2  0
 23 18  1  0
 24 13  1  0
 25 24  2  0
 27 29  1  0
 27 26  1  0
 28 27  2  0
 30 31  1  0
 30 29  1  0
 31 32  1  0
 33 32  1  6
 33 34  1  0
 34 24  1  0
 35 37  1  0
 35 33  1  0
 36 35  2  0
M  END
$$$$
