RWR.pdb
     RDKit          3D

 37 38  0  0  1  0  0  0  0  0999 V2000
   28.4887  -23.4595  -16.8811 N   0  0  0  0  0  0  0  0  0  0  0  0
   28.0474  -22.2532  -17.5090 C   0  0  0  0  0  0  0  0  0  0  0  0
   27.7509  -22.2195  -18.7712 N   0  0  0  0  0  0  0  0  0  0  0  0
   27.9138  -21.0390  -16.7812 N   0  0  0  0  0  0  0  0  0  0  0  0
   28.2251  -20.9641  -15.3727 C   0  0  0  0  0  0  0  0  0  0  0  0
   27.1447  -20.1454  -14.6336 C   0  0  0  0  0  0  0  0  0  0  0  0
   26.1368  -21.1139  -14.1092 C   0  0  0  0  0  0  0  0  0  0  0  0
   25.0575  -20.5450  -13.2613 C   0  0  2  0  0  0  0  0  0  0  0  0
   25.1785  -19.0786  -13.1581 N   0  0  0  0  0  0  0  0  0  0  0  0
   25.1116  -21.1214  -11.9015 C   0  0  0  0  0  0  0  0  0  0  0  0
   24.9488  -22.3312  -11.6238 O   0  0  0  0  0  0  0  0  0  0  0  0
   27.4665  -21.3757  -19.2724 N   0  0  0  0  0  0  0  0  0  0  0  0
   25.3681  -20.2505  -10.7907 C   0  0  1  0  0  0  0  0  0  0  0  0
   25.4118  -20.7916   -9.4523 C   0  0  0  0  0  0  0  0  0  0  0  0
   26.4201  -20.0052   -8.6641 C   0  0  0  0  0  0  0  0  0  0  0  0
   26.7750  -20.6112   -7.3653 C   0  0  0  0  0  0  0  0  0  0  0  0
   26.5255  -21.8683   -6.8572 N   0  0  0  0  0  0  0  0  0  0  0  0
   27.0574  -21.9115   -5.6249 C   0  0  0  0  0  0  0  0  0  0  0  0
   27.6412  -20.7501   -5.2997 C   0  0  0  0  0  0  0  0  0  0  0  0
   28.3137  -20.2899   -4.1824 C   0  0  0  0  0  0  0  0  0  0  0  0
   28.8201  -19.0176   -4.1278 C   0  0  0  0  0  0  0  0  0  0  0  0
   28.6591  -18.1777   -5.2028 C   0  0  0  0  0  0  0  0  0  0  0  0
   27.9892  -18.6443   -6.3093 C   0  0  0  0  0  0  0  0  0  0  0  0
   27.4665  -19.9345   -6.3852 C   0  0  0  0  0  0  0  0  0  0  0  0
   24.0553  -20.6432   -8.7942 O   0  0  0  0  0  0  0  0  0  0  0  0
   23.4558  -19.5395   -8.8060 N   0  0  0  0  0  0  0  0  0  0  0  0
   17.3087  -23.8300   -5.8746 C   0  0  0  0  0  0  0  0  0  0  0  0
   17.5552  -24.2691   -7.2324 N   0  0  0  0  0  0  0  0  0  0  0  0
   16.7177  -24.2084   -8.1063 N   0  0  0  0  0  0  0  0  0  0  0  0
   18.8587  -24.8021   -7.5408 C   0  0  0  0  0  0  0  0  0  0  0  0
   19.9137  -24.6171   -6.5842 C   0  0  0  0  0  0  0  0  0  0  0  0
   20.3273  -23.1578   -6.6310 C   0  0  0  0  0  0  0  0  0  0  0  0
   21.6205  -23.0625   -7.3830 C   0  0  1  0  0  0  0  0  0  0  0  0
   22.2122  -21.6874   -7.4172 N   0  0  0  0  0  0  0  0  0  0  0  0
   23.4721  -21.7636   -8.1644 C   0  0  0  0  0  0  0  0  0  0  0  0
   22.4292  -21.0934   -6.0864 O   0  0  0  0  0  0  0  0  0  0  0  0
   22.0525  -19.9559   -5.7386 O   0  0  0  0  0  0  0  0  0  0  0  0
  2  1  1  0
  3  2  2  0
  4  2  1  0
  5  4  1  0
  6  5  1  0
  7  6  1  0
  8 10  1  0
  8  9  1  1
  8  7  1  0
 10 12  1  0
 11 10  2  0
 12 13  1  0
 13 14  1  1
 14 15  1  0
 15 16  2  0
 15 23  1  0
 16 17  1  0
 17 18  1  0
 18 19  2  0
 19 20  1  0
 21 20  2  0
 22 21  1  0
 23 22  2  0
 23 18  1  0
 24 13  1  0
 25 24  2  0
 27 29  1  0
 27 26  1  0
 28 27  2  0
 30 31  1  0
 30 29  1  0
 31 32  1  0
 33 32  1  6
 33 34  1  0
 34 24  1  0
 35 37  1  0
 35 33  1  0
 36 35  2  0
M  END
$$$$
