SHG.pdb
     RDKit          3D

 21 21  0  0  1  0  0  0  0  0999 V2000
   14.3586  -17.2710   17.9840 O   0  0  0  0  0  0  0  0  0  0  0  0
   13.1384  -17.3012   17.3314 C   0  0  0  0  0  0  0  0  0  0  0  0
   12.6455  -15.9207   16.9713 C   0  0  2  0  0  0  0  0  0  0  0  0
   13.5489  -15.3514   16.0231 N   0  0  0  0  0  0  0  0  0  0  0  0
   12.4495  -15.0676   18.1717 C   0  0  0  0  0  0  0  0  0  0  0  0
   13.1562  -14.0341   18.2986 O   0  0  0  0  0  0  0  0  0  0  0  0
   11.5185  -15.3316   19.1939 N   0  0  0  0  0  0  0  0  0  0  0  0
   11.3448  -14.6213   20.4190 C   0  0  1  0  0  0  0  0  0  0  0  0
    9.8807  -14.5127   20.7314 C   0  0  0  0  0  0  0  0  0  0  0  0
    9.0767  -13.7262   19.8213 C   0  0  0  0  0  0  0  0  0  0  0  0
    9.4482  -12.9741   18.7446 C   0  0  0  0  0  0  0  0  0  0  0  0
    8.3393  -12.4074   18.2165 N   0  0  0  0  0  0  0  0  0  0  0  0
    7.2918  -12.8027   18.9569 C   0  0  0  0  0  0  0  0  0  0  0  0
    7.7247  -13.6017   19.9322 N   0  0  0  0  0  0  0  0  0  0  0  0
   12.0034  -15.3504   21.5686 C   0  0  0  0  0  0  0  0  0  0  0  0
   11.3247  -16.1281   22.2843 O   0  0  0  0  0  0  0  0  0  0  0  0
   13.3813  -15.1864   21.8741 N   0  0  0  0  0  0  0  0  0  0  0  0
   14.0611  -15.9311   22.8994 C   0  0  0  0  0  0  0  0  0  0  0  0
   15.4874  -15.6003   23.0234 C   0  0  0  0  0  0  0  0  0  0  0  0
   15.9819  -14.8036   22.1925 O   0  0  0  0  0  0  0  0  0  0  0  0
   16.3255  -16.1090   23.9974 O   0  0  0  0  0  0  0  0  0  0  0  0
  2  3  1  0
  2  1  1  0
  3  4  1  6
  3  5  1  0
  5  6  2  0
  7  5  1  0
  7  8  1  0
  8 15  1  0
  8  9  1  1
 10  9  1  0
 11 10  2  0
 12 13  1  0
 12 11  1  0
 13 14  2  0
 14 10  1  0
 15 16  2  0
 17 15  1  0
 17 18  1  0
 19 21  1  0
 19 18  1  0
 20 19  2  0
M  END
$$$$
