SHG.pdb
     RDKit          3D

 21 21  0  0  1  0  0  0  0  0999 V2000
   12.9833  -18.3135   20.6793 O   0  0  0  0  0  0  0  0  0  0  0  0
   12.2810  -18.3300   19.4868 C   0  0  0  0  0  0  0  0  0  0  0  0
   12.2456  -16.9751   18.8224 C   0  0  2  0  0  0  0  0  0  0  0  0
   13.5585  -16.6680   18.3519 N   0  0  0  0  0  0  0  0  0  0  0  0
   11.6903  -15.9285   19.7188 C   0  0  0  0  0  0  0  0  0  0  0  0
   12.4045  -14.9297   19.9942 O   0  0  0  0  0  0  0  0  0  0  0  0
   10.4055  -15.9700   20.2925 N   0  0  0  0  0  0  0  0  0  0  0  0
    9.8498  -15.0710   21.2510 C   0  0  1  0  0  0  0  0  0  0  0  0
    8.4809  -14.6468   20.8045 C   0  0  0  0  0  0  0  0  0  0  0  0
    8.4013  -13.8981   19.5691 C   0  0  0  0  0  0  0  0  0  0  0  0
    8.9680  -12.7050   19.2254 C   0  0  0  0  0  0  0  0  0  0  0  0
    8.5884  -12.3996   17.9635 N   0  0  0  0  0  0  0  0  0  0  0  0
    7.7951  -13.3914   17.5290 C   0  0  0  0  0  0  0  0  0  0  0  0
    7.6735  -14.3052   18.4919 N   0  0  0  0  0  0  0  0  0  0  0  0
    9.7031  -15.7373   22.6006 C   0  0  0  0  0  0  0  0  0  0  0  0
    9.0320  -16.7939   22.7046 O   0  0  0  0  0  0  0  0  0  0  0  0
   10.3047  -15.2051   23.7727 N   0  0  0  0  0  0  0  0  0  0  0  0
   10.1069  -15.7557   25.0864 C   0  0  0  0  0  0  0  0  0  0  0  0
   11.1315  -16.7334   25.4781 C   0  0  0  0  0  0  0  0  0  0  0  0
   12.0079  -17.0379   24.6362 O   0  0  0  0  0  0  0  0  0  0  0  0
   11.1963  -17.3434   26.7165 O   0  0  0  0  0  0  0  0  0  0  0  0
  2  3  1  0
  2  1  1  0
  3  4  1  1
  3  5  1  0
  5  6  2  0
  7  5  1  0
  7  8  1  0
  8 15  1  0
  8  9  1  6
 10  9  1  0
 11 10  2  0
 12 13  1  0
 12 11  1  0
 13 14  2  0
 14 10  1  0
 15 16  2  0
 17 15  1  0
 17 18  1  0
 19 21  1  0
 19 18  1  0
 20 19  2  0
M  END
$$$$
