SHG.pdb
     RDKit          3D

 21 21  0  0  1  0  0  0  0  0999 V2000
    7.4851  -16.0384   18.7885 O   0  0  0  0  0  0  0  0  0  0  0  0
    7.1351  -16.1508   20.1228 C   0  0  0  0  0  0  0  0  0  0  0  0
    7.1553  -14.8206   20.8359 C   0  0  2  0  0  0  0  0  0  0  0  0
    7.6237  -13.8262   19.9242 N   0  0  0  0  0  0  0  0  0  0  0  0
    7.9446  -14.8737   22.0935 C   0  0  0  0  0  0  0  0  0  0  0  0
    9.1027  -14.3813   22.0995 O   0  0  0  0  0  0  0  0  0  0  0  0
    7.4881  -15.4418   23.2977 N   0  0  0  0  0  0  0  0  0  0  0  0
    8.2012  -15.5677   24.5271 C   0  0  1  0  0  0  0  0  0  0  0  0
    7.3067  -15.1757   25.6670 C   0  0  0  0  0  0  0  0  0  0  0  0
    7.0243  -13.7648   25.8183 C   0  0  0  0  0  0  0  0  0  0  0  0
    7.6135  -12.6820   25.2326 C   0  0  0  0  0  0  0  0  0  0  0  0
    7.0155  -11.5636   25.7034 N   0  0  0  0  0  0  0  0  0  0  0  0
    6.0665  -11.9478   26.5714 C   0  0  0  0  0  0  0  0  0  0  0  0
    6.0614  -13.2786   26.6502 N   0  0  0  0  0  0  0  0  0  0  0  0
    8.6362  -16.9972   24.7597 C   0  0  0  0  0  0  0  0  0  0  0  0
    7.7965  -17.9270   24.6693 O   0  0  0  0  0  0  0  0  0  0  0  0
    9.9787  -17.3332   25.0814 N   0  0  0  0  0  0  0  0  0  0  0  0
   10.4470  -18.6858   25.2205 C   0  0  0  0  0  0  0  0  0  0  0  0
   11.8394  -18.7853   25.6794 C   0  0  0  0  0  0  0  0  0  0  0  0
   12.6937  -18.0492   25.1335 O   0  0  0  0  0  0  0  0  0  0  0  0
   12.2743  -19.6382   26.6760 O   0  0  0  0  0  0  0  0  0  0  0  0
  2  3  1  0
  2  1  1  0
  3  4  1  6
  3  5  1  0
  5  6  2  0
  7  5  1  0
  7  8  1  0
  8 15  1  0
  8  9  1  1
 10  9  1  0
 11 10  2  0
 12 13  1  0
 12 11  1  0
 13 14  2  0
 14 10  1  0
 15 16  2  0
 17 15  1  0
 17 18  1  0
 19 21  1  0
 19 18  1  0
 20 19  2  0
M  END
$$$$
