SHG.pdb
     RDKit          3D

 21 21  0  0  1  0  0  0  0  0999 V2000
    9.1873  -18.4492   21.4044 O   0  0  0  0  0  0  0  0  0  0  0  0
    8.7423  -17.5019   20.4988 C   0  0  0  0  0  0  0  0  0  0  0  0
    9.5276  -16.2155   20.5808 C   0  0  2  0  0  0  0  0  0  0  0  0
   10.8301  -16.4460   20.0427 N   0  0  0  0  0  0  0  0  0  0  0  0
    9.5581  -15.6675   21.9615 C   0  0  0  0  0  0  0  0  0  0  0  0
   10.6507  -15.6672   22.5858 O   0  0  0  0  0  0  0  0  0  0  0  0
    8.4400  -15.1404   22.6348 N   0  0  0  0  0  0  0  0  0  0  0  0
    8.3624  -14.7151   23.9945 C   0  0  1  0  0  0  0  0  0  0  0  0
    7.2396  -13.7307   24.1477 C   0  0  0  0  0  0  0  0  0  0  0  0
    7.0433  -13.1660   25.4652 C   0  0  0  0  0  0  0  0  0  0  0  0
    7.7373  -13.3708   26.6224 C   0  0  0  0  0  0  0  0  0  0  0  0
    7.1649  -12.6316   27.6002 N   0  0  0  0  0  0  0  0  0  0  0  0
    6.1276  -11.9760   27.0563 C   0  0  0  0  0  0  0  0  0  0  0  0
    6.0428  -12.2909   25.7637 N   0  0  0  0  0  0  0  0  0  0  0  0
    8.0751  -15.8810   24.9136 C   0  0  0  0  0  0  0  0  0  0  0  0
    7.1739  -16.7033   24.6146 O   0  0  0  0  0  0  0  0  0  0  0  0
    8.7968  -16.0844   26.1205 N   0  0  0  0  0  0  0  0  0  0  0  0
    8.6371  -17.2447   26.9550 C   0  0  0  0  0  0  0  0  0  0  0  0
    9.9080  -17.8258   27.4093 C   0  0  0  0  0  0  0  0  0  0  0  0
   10.9002  -17.7398   26.6492 O   0  0  0  0  0  0  0  0  0  0  0  0
   10.0859  -18.4637   28.6222 O   0  0  0  0  0  0  0  0  0  0  0  0
  2  3  1  0
  2  1  1  0
  3  4  1  1
  3  5  1  0
  5  6  2  0
  7  5  1  0
  7  8  1  0
  8 15  1  0
  8  9  1  6
 10  9  1  0
 11 10  2  0
 12 13  1  0
 12 11  1  0
 13 14  2  0
 14 10  1  0
 15 16  2  0
 17 15  1  0
 17 18  1  0
 19 21  1  0
 19 18  1  0
 20 19  2  0
M  END
$$$$
