SHG.pdb
     RDKit          3D

 21 21  0  0  1  0  0  0  0  0999 V2000
   13.0424  -18.5850   20.5067 O   0  0  0  0  0  0  0  0  0  0  0  0
   12.0176  -18.7303   19.5879 C   0  0  0  0  0  0  0  0  0  0  0  0
   11.8226  -17.4936   18.7447 C   0  0  2  0  0  0  0  0  0  0  0  0
   12.9676  -17.3329   17.9065 N   0  0  0  0  0  0  0  0  0  0  0  0
   11.5357  -16.2936   19.5724 C   0  0  0  0  0  0  0  0  0  0  0  0
   12.3537  -15.3376   19.5518 O   0  0  0  0  0  0  0  0  0  0  0  0
   10.4003  -16.1426   20.3907 N   0  0  0  0  0  0  0  0  0  0  0  0
   10.0005  -14.9840   21.1210 C   0  0  1  0  0  0  0  0  0  0  0  0
    8.5604  -14.6794   20.8273 C   0  0  0  0  0  0  0  0  0  0  0  0
    8.2729  -14.0546   19.5544 C   0  0  0  0  0  0  0  0  0  0  0  0
    9.1185  -13.6465   18.5639 C   0  0  0  0  0  0  0  0  0  0  0  0
    8.3805  -13.1004   17.5703 N   0  0  0  0  0  0  0  0  0  0  0  0
    7.0919  -13.1685   17.9400 C   0  0  0  0  0  0  0  0  0  0  0  0
    7.0129  -13.7442   19.1398 N   0  0  0  0  0  0  0  0  0  0  0  0
   10.1238  -15.2108   22.6111 C   0  0  0  0  0  0  0  0  0  0  0  0
    9.4065  -14.5512   23.4035 O   0  0  0  0  0  0  0  0  0  0  0  0
   11.0340  -16.1558   23.1564 N   0  0  0  0  0  0  0  0  0  0  0  0
   11.0961  -16.4821   24.5556 C   0  0  0  0  0  0  0  0  0  0  0  0
   12.1201  -17.4832   24.8845 C   0  0  0  0  0  0  0  0  0  0  0  0
   12.8449  -17.9114   23.9566 O   0  0  0  0  0  0  0  0  0  0  0  0
   12.3406  -17.9878   26.1520 O   0  0  0  0  0  0  0  0  0  0  0  0
  2  3  1  0
  2  1  1  0
  3  4  1  1
  3  5  1  0
  5  6  2  0
  7  5  1  0
  7  8  1  0
  8 15  1  0
  8  9  1  1
 10  9  1  0
 11 10  2  0
 12 13  1  0
 12 11  1  0
 13 14  2  0
 14 10  1  0
 15 16  2  0
 17 15  1  0
 17 18  1  0
 19 21  1  0
 19 18  1  0
 20 19  2  0
M  END
$$$$
