SHG.pdb
     RDKit          3D

 21 21  0  0  1  0  0  0  0  0999 V2000
    8.5885  -25.8355   24.4871 O   0  0  0  0  0  0  0  0  0  0  0  0
    7.7833  -25.1833   23.5696 C   0  0  0  0  0  0  0  0  0  0  0  0
    8.5513  -24.1824   22.7409 C   0  0  2  0  0  0  0  0  0  0  0  0
    9.7649  -24.7945   22.3030 N   0  0  0  0  0  0  0  0  0  0  0  0
    8.7740  -22.9077   23.4708 C   0  0  0  0  0  0  0  0  0  0  0  0
    9.8067  -22.2371   23.2115 O   0  0  0  0  0  0  0  0  0  0  0  0
    7.9037  -22.3849   24.4459 N   0  0  0  0  0  0  0  0  0  0  0  0
    7.9464  -21.0926   25.0490 C   0  0  1  0  0  0  0  0  0  0  0  0
    6.6967  -20.3368   24.7021 C   0  0  0  0  0  0  0  0  0  0  0  0
    6.4661  -20.0678   23.2993 C   0  0  0  0  0  0  0  0  0  0  0  0
    7.2659  -19.4566   22.3777 C   0  0  0  0  0  0  0  0  0  0  0  0
    6.6069  -19.4211   21.1968 N   0  0  0  0  0  0  0  0  0  0  0  0
    5.4119  -20.0031   21.3834 C   0  0  0  0  0  0  0  0  0  0  0  0
    5.3138  -20.3991   22.6526 N   0  0  0  0  0  0  0  0  0  0  0  0
    8.0121  -21.1975   26.5561 C   0  0  0  0  0  0  0  0  0  0  0  0
    7.9967  -20.1539   27.2550 O   0  0  0  0  0  0  0  0  0  0  0  0
    8.0919  -22.4505   27.2212 N   0  0  0  0  0  0  0  0  0  0  0  0
    8.0447  -22.5945   28.6513 C   0  0  0  0  0  0  0  0  0  0  0  0
    9.3675  -22.5807   29.2910 C   0  0  0  0  0  0  0  0  0  0  0  0
   10.3666  -22.3436   28.5732 O   0  0  0  0  0  0  0  0  0  0  0  0
    9.5875  -22.8122   30.6355 O   0  0  0  0  0  0  0  0  0  0  0  0
  2  3  1  0
  2  1  1  0
  3  4  1  1
  3  5  1  0
  5  6  2  0
  7  5  1  0
  7  8  1  0
  8 15  1  0
  8  9  1  1
 10  9  1  0
 11 10  2  0
 12 13  1  0
 12 11  1  0
 13 14  2  0
 14 10  1  0
 15 16  2  0
 17 15  1  0
 17 18  1  0
 19 21  1  0
 19 18  1  0
 20 19  2  0
M  END
$$$$
