SHG.pdb
     RDKit          3D

 21 21  0  0  1  0  0  0  0  0999 V2000
   12.0432  -19.2525   20.5758 O   0  0  0  0  0  0  0  0  0  0  0  0
   11.5128  -18.9322   19.3382 C   0  0  0  0  0  0  0  0  0  0  0  0
   11.9885  -17.5892   18.8397 C   0  0  2  0  0  0  0  0  0  0  0  0
   13.3563  -17.7112   18.4478 N   0  0  0  0  0  0  0  0  0  0  0  0
   11.7641  -16.5121   19.8381 C   0  0  0  0  0  0  0  0  0  0  0  0
   12.6988  -15.7025   20.0717 O   0  0  0  0  0  0  0  0  0  0  0  0
   10.5665  -16.3255   20.5538 N   0  0  0  0  0  0  0  0  0  0  0  0
   10.2823  -15.3258   21.5313 C   0  0  1  0  0  0  0  0  0  0  0  0
    8.8933  -14.7980   21.3183 C   0  0  0  0  0  0  0  0  0  0  0  0
    8.6704  -14.0136   20.1233 C   0  0  0  0  0  0  0  0  0  0  0  0
    9.5622  -13.5223   19.2144 C   0  0  0  0  0  0  0  0  0  0  0  0
    8.8772  -12.8320   18.2741 N   0  0  0  0  0  0  0  0  0  0  0  0
    7.5755  -12.8937   18.5958 C   0  0  0  0  0  0  0  0  0  0  0  0
    7.4365  -13.6064   19.7138 N   0  0  0  0  0  0  0  0  0  0  0  0
   10.3428  -15.8991   22.9293 C   0  0  0  0  0  0  0  0  0  0  0  0
   10.1458  -15.1511   23.9189 O   0  0  0  0  0  0  0  0  0  0  0  0
   10.6180  -17.2723   23.1690 N   0  0  0  0  0  0  0  0  0  0  0  0
   10.6179  -17.8649   24.4794 C   0  0  0  0  0  0  0  0  0  0  0  0
   11.9430  -17.8977   25.1136 C   0  0  0  0  0  0  0  0  0  0  0  0
   12.9061  -17.3911   24.4928 O   0  0  0  0  0  0  0  0  0  0  0  0
   12.2022  -18.4510   26.3531 O   0  0  0  0  0  0  0  0  0  0  0  0
  2  3  1  0
  2  1  1  0
  3  4  1  1
  3  5  1  0
  5  6  2  0
  7  5  1  0
  7  8  1  0
  8 15  1  0
  8  9  1  6
 10  9  1  0
 11 10  2  0
 12 13  1  0
 12 11  1  0
 13 14  2  0
 14 10  1  0
 15 16  2  0
 17 15  1  0
 17 18  1  0
 19 21  1  0
 19 18  1  0
 20 19  2  0
M  END
$$$$
