SHG.pdb
     RDKit          3D

 21 21  0  0  1  0  0  0  0  0999 V2000
    1.9854  -20.7371   15.8873 O   0  0  0  0  0  0  0  0  0  0  0  0
    2.0952  -19.9871   17.0453 C   0  0  0  0  0  0  0  0  0  0  0  0
    1.5499  -20.7113   18.2522 C   0  0  2  0  0  0  0  0  0  0  0  0
    0.1997  -21.0889   17.9809 N   0  0  0  0  0  0  0  0  0  0  0  0
    1.6901  -19.9089   19.4948 C   0  0  0  0  0  0  0  0  0  0  0  0
    1.2029  -18.7489   19.5214 O   0  0  0  0  0  0  0  0  0  0  0  0
    2.3368  -20.3547   20.6629 N   0  0  0  0  0  0  0  0  0  0  0  0
    2.5374  -19.6332   21.8772 C   0  0  1  0  0  0  0  0  0  0  0  0
    1.9393  -20.4006   23.0202 C   0  0  0  0  0  0  0  0  0  0  0  0
    0.4951  -20.4269   23.1026 C   0  0  0  0  0  0  0  0  0  0  0  0
   -0.4246  -19.4909   22.7275 C   0  0  0  0  0  0  0  0  0  0  0  0
   -1.6581  -19.9628   23.0203 N   0  0  0  0  0  0  0  0  0  0  0  0
   -1.5058  -21.1774   23.5711 C   0  0  0  0  0  0  0  0  0  0  0  0
   -0.2065  -21.4704   23.6268 N   0  0  0  0  0  0  0  0  0  0  0  0
    4.0109  -19.4566   22.1681 C   0  0  0  0  0  0  0  0  0  0  0  0
    4.7886  -20.4375   22.0650 O   0  0  0  0  0  0  0  0  0  0  0  0
    4.5567  -18.2045   22.5594 N   0  0  0  0  0  0  0  0  0  0  0  0
    5.9474  -18.0061   22.8671 C   0  0  0  0  0  0  0  0  0  0  0  0
    6.8094  -17.9217   21.6802 C   0  0  0  0  0  0  0  0  0  0  0  0
    6.2787  -18.0686   20.5549 O   0  0  0  0  0  0  0  0  0  0  0  0
    8.1714  -17.6906   21.7187 O   0  0  0  0  0  0  0  0  0  0  0  0
  2  3  1  0
  2  1  1  0
  3  4  1  6
  3  5  1  0
  5  6  2  0
  7  5  1  0
  7  8  1  0
  8 15  1  0
  8  9  1  1
 10  9  1  0
 11 10  2  0
 12 13  1  0
 12 11  1  0
 13 14  2  0
 14 10  1  0
 15 16  2  0
 17 15  1  0
 17 18  1  0
 19 21  1  0
 19 18  1  0
 20 19  2  0
M  END
$$$$
