SHG.pdb
     RDKit          3D

 21 21  0  0  1  0  0  0  0  0999 V2000
    8.4916  -20.9946   18.6358 O   0  0  0  0  0  0  0  0  0  0  0  0
    8.0363  -19.9002   19.3503 C   0  0  0  0  0  0  0  0  0  0  0  0
    8.5852  -19.8633   20.7559 C   0  0  2  0  0  0  0  0  0  0  0  0
    8.5612  -21.1893   21.2854 N   0  0  0  0  0  0  0  0  0  0  0  0
    7.8658  -18.8836   21.6103 C   0  0  0  0  0  0  0  0  0  0  0  0
    7.8747  -17.6707   21.2750 O   0  0  0  0  0  0  0  0  0  0  0  0
    7.1641  -19.2143   22.7849 N   0  0  0  0  0  0  0  0  0  0  0  0
    6.3368  -18.3616   23.5749 C   0  0  1  0  0  0  0  0  0  0  0  0
    4.9127  -18.8284   23.4915 C   0  0  0  0  0  0  0  0  0  0  0  0
    4.2924  -18.7982   22.1847 C   0  0  0  0  0  0  0  0  0  0  0  0
    4.4966  -17.9521   21.1334 C   0  0  0  0  0  0  0  0  0  0  0  0
    3.6656  -18.3115   20.1283 N   0  0  0  0  0  0  0  0  0  0  0  0
    2.9537  -19.3680   20.5510 C   0  0  0  0  0  0  0  0  0  0  0  0
    3.3235  -19.6729   21.7949 N   0  0  0  0  0  0  0  0  0  0  0  0
    6.7457  -18.4030   25.0302 C   0  0  0  0  0  0  0  0  0  0  0  0
    6.0696  -17.7795   25.8857 O   0  0  0  0  0  0  0  0  0  0  0  0
    7.8825  -19.1314   25.4727 N   0  0  0  0  0  0  0  0  0  0  0  0
    8.2392  -19.2816   26.8578 C   0  0  0  0  0  0  0  0  0  0  0  0
    9.5735  -18.7600   27.1847 C   0  0  0  0  0  0  0  0  0  0  0  0
    9.9978  -18.9178   28.3529 O   0  0  0  0  0  0  0  0  0  0  0  0
   10.3969  -18.1044   26.2892 O   0  0  0  0  0  0  0  0  0  0  0  0
  2  3  1  0
  2  1  1  0
  3  4  1  1
  3  5  1  0
  5  6  2  0
  7  5  1  0
  7  8  1  0
  8 15  1  0
  8  9  1  1
 10  9  1  0
 11 10  2  0
 12 13  1  0
 12 11  1  0
 13 14  2  0
 14 10  1  0
 15 16  2  0
 17 15  1  0
 17 18  1  0
 19 21  1  0
 19 18  1  0
 20 19  2  0
M  END
$$$$
