SHG.pdb
     RDKit          3D

 21 21  0  0  1  0  0  0  0  0999 V2000
   14.3230  -17.5756   18.0158 O   0  0  0  0  0  0  0  0  0  0  0  0
   13.1850  -17.4077   17.2461 C   0  0  0  0  0  0  0  0  0  0  0  0
   12.8657  -15.9525   17.0031 C   0  0  2  0  0  0  0  0  0  0  0  0
   13.8714  -15.4056   16.1495 N   0  0  0  0  0  0  0  0  0  0  0  0
   12.7072  -15.1967   18.2723 C   0  0  0  0  0  0  0  0  0  0  0  0
   13.5415  -14.2949   18.5451 O   0  0  0  0  0  0  0  0  0  0  0  0
   11.6782  -15.4161   19.2075 N   0  0  0  0  0  0  0  0  0  0  0  0
   11.4718  -14.7446   20.4493 C   0  0  1  0  0  0  0  0  0  0  0  0
    9.9994  -14.5809   20.6911 C   0  0  0  0  0  0  0  0  0  0  0  0
    9.2316  -13.9543   19.6370 C   0  0  0  0  0  0  0  0  0  0  0  0
    8.9350  -12.6387   19.4276 C   0  0  0  0  0  0  0  0  0  0  0  0
    8.1708  -12.5449   18.3154 N   0  0  0  0  0  0  0  0  0  0  0  0
    7.9948  -13.7879   17.8402 C   0  0  0  0  0  0  0  0  0  0  0  0
    8.6321  -14.6509   18.6315 N   0  0  0  0  0  0  0  0  0  0  0  0
   12.0367  -15.5452   21.6012 C   0  0  0  0  0  0  0  0  0  0  0  0
   11.3856  -16.5134   22.0660 O   0  0  0  0  0  0  0  0  0  0  0  0
   13.2949  -15.2388   22.1859 N   0  0  0  0  0  0  0  0  0  0  0  0
   13.9048  -16.0328   23.2183 C   0  0  0  0  0  0  0  0  0  0  0  0
   15.1752  -15.4846   23.7131 C   0  0  0  0  0  0  0  0  0  0  0  0
   15.7092  -16.0364   24.7031 O   0  0  0  0  0  0  0  0  0  0  0  0
   15.8252  -14.3977   23.1600 O   0  0  0  0  0  0  0  0  0  0  0  0
  2  3  1  0
  2  1  1  0
  3  4  1  6
  3  5  1  0
  5  6  2  0
  7  5  1  0
  7  8  1  0
  8 15  1  0
  8  9  1  1
 10  9  1  0
 11 10  2  0
 12 13  1  0
 12 11  1  0
 13 14  2  0
 14 10  1  0
 15 16  2  0
 17 15  1  0
 17 18  1  0
 19 21  1  0
 19 18  1  0
 20 19  2  0
M  END
$$$$
