PVL.pdb
     RDKit          3D

 23 23  0  0  1  0  0  0  0  0999 V2000
    8.4965  -14.7772   18.1864 N   0  0  0  0  0  0  0  0  0  0  0  0
    7.5513  -13.9151   17.5768 C   0  0  0  0  0  0  0  0  0  0  0  0
    7.2327  -12.8969   18.6515 C   0  0  0  0  0  0  0  0  0  0  0  0
    8.6110  -12.6859   19.2741 C   0  0  0  0  0  0  0  0  0  0  0  0
    9.0970  -14.1364   19.3372 C   0  0  1  0  0  0  0  0  0  0  0  0
    8.5060  -14.7236   20.5553 C   0  0  0  0  0  0  0  0  0  0  0  0
    7.2889  -14.5460   20.8309 O   0  0  0  0  0  0  0  0  0  0  0  0
    8.3977  -18.2514   21.5127 C   0  0  0  0  0  0  0  0  0  0  0  0
    9.0842  -17.6027   22.6917 C   0  0  1  0  0  0  0  0  0  0  0  0
   10.5822  -17.7933   22.6077 C   0  0  0  0  0  0  0  0  0  0  0  0
    8.7355  -16.1105   22.6303 C   0  0  2  0  0  0  0  0  0  0  0  0
    9.2971  -15.5051   21.4425 N   0  0  0  0  0  0  0  0  0  0  0  0
    9.1375  -15.4741   23.8925 C   0  0  0  0  0  0  0  0  0  0  0  0
   10.3572  -15.1380   24.0785 O   0  0  0  0  0  0  0  0  0  0  0  0
    7.8686  -11.7353   25.8661 C   0  0  0  0  0  0  0  0  0  0  0  0
    6.8771  -12.8499   26.0159 C   0  0  2  0  0  0  0  0  0  0  0  0
    5.6329  -12.3370   26.6987 C   0  0  0  0  0  0  0  0  0  0  0  0
    7.4201  -13.9664   26.8428 C   0  0  0  0  0  0  0  0  0  0  0  0
    8.6453  -14.6419   26.2469 C   0  0  2  0  0  0  0  0  0  0  0  0
    8.2499  -15.1948   24.9570 N   0  0  0  0  0  0  0  0  0  0  0  0
    8.9885  -15.7488   27.1705 C   0  0  0  0  0  0  0  0  0  0  0  0
    8.6479  -16.9428   26.9823 O   0  0  0  0  0  0  0  0  0  0  0  0
    9.7386  -15.4270   28.3143 O   0  0  0  0  0  0  0  0  0  0  0  0
  2  3  1  0
  2  1  1  0
  3  4  1  0
  4  5  1  0
  5  1  1  0
  5  6  1  1
  6 12  1  0
  6  7  2  0
  9  8  1  6
  9 11  1  0
  9 10  1  0
 11 13  1  0
 11 12  1  6
 13 14  2  0
 16 18  1  0
 16 15  1  1
 17 16  1  0
 19 18  1  1
 19 21  1  0
 20 19  1  0
 20 13  1  0
 21 23  1  0
 22 21  2  0
M  END
$$$$
