PVL.pdb
     RDKit          3D

 23 23  0  0  1  0  0  0  0  0999 V2000
    6.6892  -19.7680   21.4924 N   0  0  0  0  0  0  0  0  0  0  0  0
    6.7303  -20.5043   22.7025 C   0  0  0  0  0  0  0  0  0  0  0  0
    6.6196  -19.4479   23.7819 C   0  0  0  0  0  0  0  0  0  0  0  0
    5.6039  -18.4944   23.1566 C   0  0  0  0  0  0  0  0  0  0  0  0
    6.1314  -18.4517   21.7199 C   0  0  1  0  0  0  0  0  0  0  0  0
    7.2354  -17.4724   21.7080 C   0  0  0  0  0  0  0  0  0  0  0  0
    8.4341  -17.8518   21.7959 O   0  0  0  0  0  0  0  0  0  0  0  0
    6.3346  -13.3580   21.5093 C   0  0  0  0  0  0  0  0  0  0  0  0
    7.5653  -13.8456   20.7814 C   0  0  1  0  0  0  0  0  0  0  0  0
    8.6496  -12.7916   20.8020 C   0  0  0  0  0  0  0  0  0  0  0  0
    8.0360  -15.1049   21.5193 C   0  0  2  0  0  0  0  0  0  0  0  0
    6.9696  -16.0796   21.5939 N   0  0  0  0  0  0  0  0  0  0  0  0
    8.6022  -14.7136   22.8178 C   0  0  0  0  0  0  0  0  0  0  0  0
    9.7061  -14.0701   22.8657 O   0  0  0  0  0  0  0  0  0  0  0  0
    8.0308  -11.6351   25.9555 C   0  0  0  0  0  0  0  0  0  0  0  0
    6.9795  -12.6746   25.7066 C   0  0  2  0  0  0  0  0  0  0  0  0
    5.7195  -12.3145   26.4550 C   0  0  0  0  0  0  0  0  0  0  0  0
    7.4136  -14.0235   26.1728 C   0  0  0  0  0  0  0  0  0  0  0  0
    8.5497  -14.6255   25.3609 C   0  0  2  0  0  0  0  0  0  0  0  0
    8.0013  -15.0043   24.0642 N   0  0  0  0  0  0  0  0  0  0  0  0
    8.9692  -15.8449   26.0911 C   0  0  0  0  0  0  0  0  0  0  0  0
    8.6566  -17.0090   25.7385 O   0  0  0  0  0  0  0  0  0  0  0  0
    9.7617  -15.6706   27.2383 O   0  0  0  0  0  0  0  0  0  0  0  0
  2  3  1  0
  2  1  1  0
  3  4  1  0
  4  5  1  0
  5  1  1  0
  5  6  1  1
  6 12  1  0
  6  7  2  0
  9  8  1  1
  9 11  1  0
  9 10  1  0
 11 13  1  0
 11 12  1  1
 13 14  2  0
 16 18  1  0
 16 15  1  1
 17 16  1  0
 19 18  1  1
 19 21  1  0
 20 19  1  0
 20 13  1  0
 21 23  1  0
 22 21  2  0
M  END
$$$$
