PVL.pdb
     RDKit          3D

 23 23  0  0  1  0  0  0  0  0999 V2000
    7.8999  -14.9025   20.8620 N   0  0  0  0  0  0  0  0  0  0  0  0
    8.1661  -16.2253   20.4290 C   0  0  0  0  0  0  0  0  0  0  0  0
    7.8425  -17.0813   21.6356 C   0  0  0  0  0  0  0  0  0  0  0  0
    6.6014  -16.3729   22.1739 C   0  0  0  0  0  0  0  0  0  0  0  0
    7.0468  -14.9150   22.0314 C   0  0  1  0  0  0  0  0  0  0  0  0
    7.8769  -14.6132   23.2136 C   0  0  0  0  0  0  0  0  0  0  0  0
    9.1274  -14.7680   23.1794 O   0  0  0  0  0  0  0  0  0  0  0  0
    7.1930  -11.5053   25.7162 C   0  0  0  0  0  0  0  0  0  0  0  0
    7.3079  -12.8073   26.4736 C   0  0  1  0  0  0  0  0  0  0  0  0
    5.9374  -13.3668   26.7833 C   0  0  0  0  0  0  0  0  0  0  0  0
    8.0812  -13.7713   25.5655 C   0  0  2  0  0  0  0  0  0  0  0  0
    7.2833  -14.1380   24.4159 N   0  0  0  0  0  0  0  0  0  0  0  0
    8.5576  -14.9056   26.3693 C   0  0  0  0  0  0  0  0  0  0  0  0
    7.7906  -15.9070   26.5790 O   0  0  0  0  0  0  0  0  0  0  0  0
   11.8770  -17.4155   25.2604 C   0  0  0  0  0  0  0  0  0  0  0  0
   12.2898  -16.1497   25.9497 C   0  0  2  0  0  0  0  0  0  0  0  0
   13.7903  -16.0020   25.8881 C   0  0  0  0  0  0  0  0  0  0  0  0
   11.8929  -16.1478   27.3876 C   0  0  0  0  0  0  0  0  0  0  0  0
   10.3898  -16.1561   27.6173 C   0  0  2  0  0  0  0  0  0  0  0  0
    9.8440  -14.9794   26.9514 N   0  0  0  0  0  0  0  0  0  0  0  0
   10.2017  -16.0227   29.0811 C   0  0  0  0  0  0  0  0  0  0  0  0
    9.8486  -14.9563   29.6428 O   0  0  0  0  0  0  0  0  0  0  0  0
   10.4338  -17.1627   29.8691 O   0  0  0  0  0  0  0  0  0  0  0  0
  2  3  1  0
  2  1  1  0
  3  4  1  0
  4  5  1  0
  5  1  1  0
  5  6  1  1
  6 12  1  0
  6  7  2  0
  9  8  1  6
  9 11  1  0
  9 10  1  0
 11 13  1  0
 11 12  1  6
 13 14  2  0
 16 18  1  0
 16 15  1  1
 17 16  1  0
 19 18  1  1
 19 21  1  0
 20 19  1  0
 20 13  1  0
 21 23  1  0
 22 21  2  0
M  END
$$$$
