PVL.pdb
     RDKit          3D

 23 23  0  0  1  0  0  0  0  0999 V2000
    8.4169  -14.9533   17.5600 N   0  0  0  0  0  0  0  0  0  0  0  0
    7.5405  -13.9834   17.0128 C   0  0  0  0  0  0  0  0  0  0  0  0
    7.3555  -12.9794   18.1313 C   0  0  0  0  0  0  0  0  0  0  0  0
    8.7666  -12.9236   18.7122 C   0  0  0  0  0  0  0  0  0  0  0  0
    9.1122  -14.4152   18.7099 C   0  0  1  0  0  0  0  0  0  0  0  0
    8.5060  -14.9875   19.9276 C   0  0  0  0  0  0  0  0  0  0  0  0
    7.2895  -14.7929   20.1942 O   0  0  0  0  0  0  0  0  0  0  0  0
   10.7835  -17.5585   22.3878 C   0  0  0  0  0  0  0  0  0  0  0  0
    9.2787  -17.6870   22.3557 C   0  0  1  0  0  0  0  0  0  0  0  0
    8.7573  -18.1826   23.6861 C   0  0  0  0  0  0  0  0  0  0  0  0
    8.7293  -16.2862   22.0596 C   0  0  2  0  0  0  0  0  0  0  0  0
    9.2813  -15.7736   20.8245 N   0  0  0  0  0  0  0  0  0  0  0  0
    8.9497  -15.4292   23.2330 C   0  0  0  0  0  0  0  0  0  0  0  0
   10.1004  -14.9105   23.4382 O   0  0  0  0  0  0  0  0  0  0  0  0
    5.4201  -12.2418   27.1866 C   0  0  0  0  0  0  0  0  0  0  0  0
    6.8033  -12.6756   26.8039 C   0  0  2  0  0  0  0  0  0  0  0  0
    7.6232  -11.4724   26.4072 C   0  0  0  0  0  0  0  0  0  0  0  0
    6.7879  -13.6154   25.6455 C   0  0  0  0  0  0  0  0  0  0  0  0
    8.1406  -14.2339   25.3293 C   0  0  2  0  0  0  0  0  0  0  0  0
    7.9538  -15.1226   24.1886 N   0  0  0  0  0  0  0  0  0  0  0  0
    8.5092  -15.0352   26.5201 C   0  0  0  0  0  0  0  0  0  0  0  0
    8.0697  -16.1900   26.7448 O   0  0  0  0  0  0  0  0  0  0  0  0
    9.4025  -14.4563   27.4374 O   0  0  0  0  0  0  0  0  0  0  0  0
  2  3  1  0
  2  1  1  0
  3  4  1  0
  4  5  1  0
  5  1  1  0
  5  6  1  1
  6 12  1  0
  6  7  2  0
  9  8  1  1
  9 11  1  0
  9 10  1  0
 11 13  1  0
 11 12  1  6
 13 14  2  0
 16 18  1  0
 16 15  1  6
 17 16  1  0
 19 18  1  1
 19 21  1  0
 20 19  1  0
 20 13  1  0
 21 23  1  0
 22 21  2  0
M  END
$$$$
