PVL.pdb
     RDKit          3D

 23 23  0  0  1  0  0  0  0  0999 V2000
    6.5335  -19.2485   20.7940 N   0  0  0  0  0  0  0  0  0  0  0  0
    6.5048  -20.1945   21.8487 C   0  0  0  0  0  0  0  0  0  0  0  0
    6.4758  -19.3477   23.1039 C   0  0  0  0  0  0  0  0  0  0  0  0
    5.5477  -18.2146   22.6723 C   0  0  0  0  0  0  0  0  0  0  0  0
    6.0865  -17.9542   21.2631 C   0  0  1  0  0  0  0  0  0  0  0  0
    7.2686  -17.0848   21.4205 C   0  0  0  0  0  0  0  0  0  0  0  0
    8.4290  -17.5757   21.4561 O   0  0  0  0  0  0  0  0  0  0  0  0
    7.3917  -13.7600   19.6215 C   0  0  0  0  0  0  0  0  0  0  0  0
    7.9840  -13.4482   20.9758 C   0  0  1  0  0  0  0  0  0  0  0  0
    7.0125  -12.6441   21.8104 C   0  0  0  0  0  0  0  0  0  0  0  0
    8.2684  -14.7977   21.6466 C   0  0  2  0  0  0  0  0  0  0  0  0
    7.1232  -15.6742   21.5324 N   0  0  0  0  0  0  0  0  0  0  0  0
    8.7246  -14.5597   23.0232 C   0  0  0  0  0  0  0  0  0  0  0  0
    9.6826  -13.7428   23.2466 O   0  0  0  0  0  0  0  0  0  0  0  0
    8.7221  -11.9691   26.2945 C   0  0  0  0  0  0  0  0  0  0  0  0
    7.4757  -12.6417   25.8029 C   0  0  2  0  0  0  0  0  0  0  0  0
    6.2652  -11.9877   26.4230 C   0  0  0  0  0  0  0  0  0  0  0  0
    7.4463  -14.0878   26.1680 C   0  0  0  0  0  0  0  0  0  0  0  0
    8.5599  -14.9101   25.5388 C   0  0  2  0  0  0  0  0  0  0  0  0
    8.1682  -15.1867   24.1618 N   0  0  0  0  0  0  0  0  0  0  0  0
    8.6065  -16.1807   26.3000 C   0  0  0  0  0  0  0  0  0  0  0  0
    8.1481  -17.2674   25.8685 O   0  0  0  0  0  0  0  0  0  0  0  0
    9.2018  -16.1502   27.5725 O   0  0  0  0  0  0  0  0  0  0  0  0
  2  3  1  0
  2  1  1  0
  3  4  1  0
  4  5  1  0
  5  1  1  0
  5  6  1  1
  6 12  1  0
  6  7  2  0
  9  8  1  6
  9 11  1  0
  9 10  1  0
 11 13  1  0
 11 12  1  1
 13 14  2  0
 16 18  1  0
 16 15  1  1
 17 16  1  0
 19 18  1  1
 19 21  1  0
 20 19  1  0
 20 13  1  0
 21 23  1  0
 22 21  2  0
M  END
$$$$
