PVL.pdb
     RDKit          3D

 23 23  0  0  1  0  0  0  0  0999 V2000
    8.3772  -14.9868   20.8340 N   0  0  0  0  0  0  0  0  0  0  0  0
    8.6992  -16.3124   20.4501 C   0  0  0  0  0  0  0  0  0  0  0  0
    8.1789  -17.1638   21.5893 C   0  0  0  0  0  0  0  0  0  0  0  0
    6.8730  -16.4449   21.9205 C   0  0  0  0  0  0  0  0  0  0  0  0
    7.3471  -14.9908   21.8509 C   0  0  1  0  0  0  0  0  0  0  0  0
    7.9784  -14.6933   23.1512 C   0  0  0  0  0  0  0  0  0  0  0  0
    9.2245  -14.8071   23.3033 O   0  0  0  0  0  0  0  0  0  0  0  0
    7.4914  -12.6990   27.6364 C   0  0  0  0  0  0  0  0  0  0  0  0
    6.7808  -13.0681   26.3554 C   0  0  1  0  0  0  0  0  0  0  0  0
    6.3059  -11.8275   25.6325 C   0  0  0  0  0  0  0  0  0  0  0  0
    7.8005  -13.8250   25.4956 C   0  0  2  0  0  0  0  0  0  0  0  0
    7.1941  -14.2689   24.2594 N   0  0  0  0  0  0  0  0  0  0  0  0
    8.4044  -14.8948   26.3021 C   0  0  0  0  0  0  0  0  0  0  0  0
    7.6808  -15.8585   26.7297 O   0  0  0  0  0  0  0  0  0  0  0  0
   11.7807  -17.4095   25.0364 C   0  0  0  0  0  0  0  0  0  0  0  0
   12.2330  -16.0981   25.6052 C   0  0  2  0  0  0  0  0  0  0  0  0
   13.7305  -15.9723   25.4678 C   0  0  0  0  0  0  0  0  0  0  0  0
   11.8993  -15.9788   27.0542 C   0  0  0  0  0  0  0  0  0  0  0  0
   10.4110  -16.0518   27.3571 C   0  0  2  0  0  0  0  0  0  0  0  0
    9.7722  -14.9440   26.6566 N   0  0  0  0  0  0  0  0  0  0  0  0
   10.2833  -15.8464   28.8191 C   0  0  0  0  0  0  0  0  0  0  0  0
   10.5289  -16.7363   29.6706 O   0  0  0  0  0  0  0  0  0  0  0  0
    9.8651  -14.5794   29.2598 O   0  0  0  0  0  0  0  0  0  0  0  0
  2  3  1  0
  2  1  1  0
  3  4  1  0
  4  5  1  0
  5  1  1  0
  5  6  1  1
  6 12  1  0
  6  7  2  0
  9  8  1  1
  9 11  1  0
  9 10  1  0
 11 13  1  0
 11 12  1  6
 13 14  2  0
 16 18  1  0
 16 15  1  1
 17 16  1  0
 19 18  1  1
 19 21  1  0
 20 19  1  0
 20 13  1  0
 21 23  1  0
 22 21  2  0
M  END
$$$$
