PVL.pdb
     RDKit          3D

 23 23  0  0  1  0  0  0  0  0999 V2000
    8.3671  -14.7432   18.1084 N   0  0  0  0  0  0  0  0  0  0  0  0
    7.4476  -13.8620   17.4869 C   0  0  0  0  0  0  0  0  0  0  0  0
    7.0593  -12.8968   18.5873 C   0  0  0  0  0  0  0  0  0  0  0  0
    8.3988  -12.7031   19.2943 C   0  0  0  0  0  0  0  0  0  0  0  0
    8.8964  -14.1509   19.3185 C   0  0  1  0  0  0  0  0  0  0  0  0
    8.2456  -14.7982   20.4741 C   0  0  0  0  0  0  0  0  0  0  0  0
    7.0113  -14.6522   20.6835 O   0  0  0  0  0  0  0  0  0  0  0  0
    8.0301  -18.2992   23.7718 C   0  0  0  0  0  0  0  0  0  0  0  0
    8.6285  -17.7493   22.4983 C   0  0  1  0  0  0  0  0  0  0  0  0
    7.9644  -18.3657   21.2875 C   0  0  0  0  0  0  0  0  0  0  0  0
    8.3857  -16.2353   22.5228 C   0  0  2  0  0  0  0  0  0  0  0  0
    8.9975  -15.6031   21.3743 N   0  0  0  0  0  0  0  0  0  0  0  0
    8.8215  -15.7029   23.8214 C   0  0  0  0  0  0  0  0  0  0  0  0
   10.0648  -15.6847   24.1197 O   0  0  0  0  0  0  0  0  0  0  0  0
    8.2183  -11.7043   25.9749 C   0  0  0  0  0  0  0  0  0  0  0  0
    7.0082  -12.5878   25.9188 C   0  0  2  0  0  0  0  0  0  0  0  0
    5.8310  -11.8800   26.5437 C   0  0  0  0  0  0  0  0  0  0  0  0
    7.2186  -13.8625   26.6646 C   0  0  0  0  0  0  0  0  0  0  0  0
    8.3506  -14.7204   26.1216 C   0  0  2  0  0  0  0  0  0  0  0  0
    7.9423  -15.1916   24.8036 N   0  0  0  0  0  0  0  0  0  0  0  0
    8.4623  -15.8759   27.0426 C   0  0  0  0  0  0  0  0  0  0  0  0
    7.7852  -16.9271   26.9252 O   0  0  0  0  0  0  0  0  0  0  0  0
    9.3831  -15.7736   28.0992 O   0  0  0  0  0  0  0  0  0  0  0  0
  2  3  1  0
  2  1  1  0
  3  4  1  0
  4  5  1  0
  5  1  1  0
  5  6  1  1
  6 12  1  0
  6  7  2  0
  9  8  1  1
  9 11  1  0
  9 10  1  0
 11 13  1  0
 11 12  1  6
 13 14  2  0
 16 18  1  0
 16 15  1  1
 17 16  1  0
 19 18  1  1
 19 21  1  0
 20 19  1  0
 20 13  1  0
 21 23  1  0
 22 21  2  0
M  END
$$$$
