PVL.pdb
     RDKit          3D

 23 23  0  0  1  0  0  0  0  0999 V2000
    8.3475  -14.4636   18.0912 N   0  0  0  0  0  0  0  0  0  0  0  0
    7.3227  -13.5675   17.6977 C   0  0  0  0  0  0  0  0  0  0  0  0
    7.0431  -12.7552   18.9449 C   0  0  0  0  0  0  0  0  0  0  0  0
    8.4543  -12.5725   19.4988 C   0  0  0  0  0  0  0  0  0  0  0  0
    9.0055  -13.9853   19.2885 C   0  0  1  0  0  0  0  0  0  0  0  0
    8.5344  -14.7930   20.4303 C   0  0  0  0  0  0  0  0  0  0  0  0
    7.3023  -14.9263   20.6603 O   0  0  0  0  0  0  0  0  0  0  0  0
    9.2034  -18.4387   23.5065 C   0  0  0  0  0  0  0  0  0  0  0  0
    9.6474  -17.6761   22.2803 C   0  0  1  0  0  0  0  0  0  0  0  0
    9.1703  -18.3657   21.0218 C   0  0  0  0  0  0  0  0  0  0  0  0
    9.0238  -16.2792   22.3882 C   0  0  2  0  0  0  0  0  0  0  0  0
    9.4612  -15.4407   21.2934 N   0  0  0  0  0  0  0  0  0  0  0  0
    9.2988  -15.7357   23.7256 C   0  0  0  0  0  0  0  0  0  0  0  0
   10.4957  -15.4327   24.0585 O   0  0  0  0  0  0  0  0  0  0  0  0
    8.2234  -12.0373   26.1471 C   0  0  0  0  0  0  0  0  0  0  0  0
    7.0971  -12.9897   25.8784 C   0  0  2  0  0  0  0  0  0  0  0  0
    5.8086  -12.4209   26.4203 C   0  0  0  0  0  0  0  0  0  0  0  0
    7.3207  -14.3106   26.5346 C   0  0  0  0  0  0  0  0  0  0  0  0
    8.5711  -15.0353   26.0618 C   0  0  2  0  0  0  0  0  0  0  0  0
    8.3084  -15.5144   24.7101 N   0  0  0  0  0  0  0  0  0  0  0  0
    8.7362  -16.1949   26.9697 C   0  0  0  0  0  0  0  0  0  0  0  0
    8.1538  -17.2954   26.8055 O   0  0  0  0  0  0  0  0  0  0  0  0
    9.5972  -16.0376   28.0689 O   0  0  0  0  0  0  0  0  0  0  0  0
  2  3  1  0
  2  1  1  0
  3  4  1  0
  4  5  1  0
  5  1  1  0
  5  6  1  1
  6 12  1  0
  6  7  2  0
  9  8  1  1
  9 11  1  0
  9 10  1  0
 11 13  1  0
 11 12  1  6
 13 14  2  0
 16 18  1  0
 16 15  1  1
 17 16  1  0
 19 18  1  1
 19 21  1  0
 20 19  1  0
 20 13  1  0
 21 23  1  0
 22 21  2  0
M  END
$$$$
