PVL.pdb
     RDKit          3D

 23 23  0  0  1  0  0  0  0  0999 V2000
    9.1603  -14.8737   18.6575 N   0  0  0  0  0  0  0  0  0  0  0  0
    8.2312  -14.6189   17.6183 C   0  0  0  0  0  0  0  0  0  0  0  0
    7.2722  -13.6122   18.2184 C   0  0  0  0  0  0  0  0  0  0  0  0
    8.2312  -12.7348   19.0200 C   0  0  0  0  0  0  0  0  0  0  0  0
    9.1184  -13.8153   19.6442 C   0  0  1  0  0  0  0  0  0  0  0  0
    8.3972  -14.3160   20.8304 C   0  0  0  0  0  0  0  0  0  0  0  0
    7.8292  -13.5177   21.6234 O   0  0  0  0  0  0  0  0  0  0  0  0
    8.9578  -18.2874   22.3644 C   0  0  0  0  0  0  0  0  0  0  0  0
    7.5531  -17.7515   22.2169 C   0  0  1  0  0  0  0  0  0  0  0  0
    6.6686  -18.2597   23.3335 C   0  0  0  0  0  0  0  0  0  0  0  0
    7.6622  -16.2232   22.2810 C   0  0  2  0  0  0  0  0  0  0  0  0
    8.3253  -15.7105   21.1018 N   0  0  0  0  0  0  0  0  0  0  0  0
    8.2911  -15.8424   23.5534 C   0  0  0  0  0  0  0  0  0  0  0  0
    9.5573  -15.9487   23.6974 O   0  0  0  0  0  0  0  0  0  0  0  0
    7.8725  -11.8632   25.9704 C   0  0  0  0  0  0  0  0  0  0  0  0
    6.7274  -12.8278   26.0477 C   0  0  2  0  0  0  0  0  0  0  0  0
    5.6179  -12.2360   26.8821 C   0  0  0  0  0  0  0  0  0  0  0  0
    7.1315  -14.1171   26.6800 C   0  0  0  0  0  0  0  0  0  0  0  0
    8.1959  -14.8809   25.9081 C   0  0  2  0  0  0  0  0  0  0  0  0
    7.5806  -15.3510   24.6727 N   0  0  0  0  0  0  0  0  0  0  0  0
    8.5529  -16.0454   26.7522 C   0  0  0  0  0  0  0  0  0  0  0  0
    7.9820  -17.1613   26.6754 O   0  0  0  0  0  0  0  0  0  0  0  0
    9.5911  -15.8744   27.6836 O   0  0  0  0  0  0  0  0  0  0  0  0
  2  3  1  0
  2  1  1  0
  3  4  1  0
  4  5  1  0
  5  1  1  0
  5  6  1  1
  6 12  1  0
  6  7  2  0
  9  8  1  1
  9 11  1  0
  9 10  1  0
 11 13  1  0
 11 12  1  6
 13 14  2  0
 16 18  1  0
 16 15  1  1
 17 16  1  0
 19 18  1  1
 19 21  1  0
 20 19  1  0
 20 13  1  0
 21 23  1  0
 22 21  2  0
M  END
$$$$
