PVL.pdb
     RDKit          3D

 23 23  0  0  1  0  0  0  0  0999 V2000
    6.8907  -19.6644   21.1246 N   0  0  0  0  0  0  0  0  0  0  0  0
    6.8564  -20.4254   22.3196 C   0  0  0  0  0  0  0  0  0  0  0  0
    6.6195  -19.3971   23.4059 C   0  0  0  0  0  0  0  0  0  0  0  0
    5.6269  -18.4642   22.7157 C   0  0  0  0  0  0  0  0  0  0  0  0
    6.2706  -18.3726   21.3296 C   0  0  1  0  0  0  0  0  0  0  0  0
    7.3370  -17.3574   21.4291 C   0  0  0  0  0  0  0  0  0  0  0  0
    8.5183  -17.6900   21.7164 O   0  0  0  0  0  0  0  0  0  0  0  0
    6.3697  -13.2606   21.3232 C   0  0  0  0  0  0  0  0  0  0  0  0
    7.6034  -13.6812   20.5596 C   0  0  1  0  0  0  0  0  0  0  0  0
    8.6723  -12.6147   20.6442 C   0  0  0  0  0  0  0  0  0  0  0  0
    8.0965  -14.9788   21.2116 C   0  0  2  0  0  0  0  0  0  0  0  0
    7.0544  -15.9822   21.1997 N   0  0  0  0  0  0  0  0  0  0  0  0
    8.6354  -14.6690   22.5432 C   0  0  0  0  0  0  0  0  0  0  0  0
    9.5667  -13.8019   22.6697 O   0  0  0  0  0  0  0  0  0  0  0  0
    5.7609  -12.4272   26.8358 C   0  0  0  0  0  0  0  0  0  0  0  0
    7.0813  -13.0955   26.5957 C   0  0  2  0  0  0  0  0  0  0  0  0
    8.1893  -12.0732   26.6610 C   0  0  0  0  0  0  0  0  0  0  0  0
    7.1388  -13.7408   25.2519 C   0  0  0  0  0  0  0  0  0  0  0  0
    8.3132  -14.6890   25.0678 C   0  0  2  0  0  0  0  0  0  0  0  0
    8.1901  -15.2772   23.7394 N   0  0  0  0  0  0  0  0  0  0  0  0
    8.1445  -15.7480   26.0906 C   0  0  0  0  0  0  0  0  0  0  0  0
    7.2610  -16.6385   26.0308 O   0  0  0  0  0  0  0  0  0  0  0  0
    9.0320  -15.7415   27.1801 O   0  0  0  0  0  0  0  0  0  0  0  0
  2  3  1  0
  2  1  1  0
  3  4  1  0
  4  5  1  0
  5  1  1  0
  5  6  1  1
  6 12  1  0
  6  7  2  0
  9  8  1  1
  9 11  1  0
  9 10  1  0
 11 13  1  0
 11 12  1  1
 13 14  2  0
 16 18  1  0
 16 15  1  6
 17 16  1  0
 19 18  1  1
 19 21  1  0
 20 19  1  0
 20 13  1  0
 21 23  1  0
 22 21  2  0
M  END
$$$$
