PVL.pdb
     RDKit          3D

 23 23  0  0  1  0  0  0  0  0999 V2000
    5.1962  -18.5953   19.3535 N   0  0  0  0  0  0  0  0  0  0  0  0
    4.5314  -19.5972   20.1034 C   0  0  0  0  0  0  0  0  0  0  0  0
    4.2449  -18.9337   21.4343 C   0  0  0  0  0  0  0  0  0  0  0  0
    3.8695  -17.5235   20.9845 C   0  0  0  0  0  0  0  0  0  0  0  0
    4.9488  -17.2883   19.9244 C   0  0  1  0  0  0  0  0  0  0  0  0
    6.1618  -16.8620   20.6488 C   0  0  0  0  0  0  0  0  0  0  0  0
    6.9861  -17.7120   21.0811 O   0  0  0  0  0  0  0  0  0  0  0  0
    7.7658  -13.3750   19.7745 C   0  0  0  0  0  0  0  0  0  0  0  0
    7.8861  -13.5537   21.2697 C   0  0  1  0  0  0  0  0  0  0  0  0
    6.8707  -12.6972   21.9925 C   0  0  0  0  0  0  0  0  0  0  0  0
    7.6245  -15.0382   21.5522 C   0  0  2  0  0  0  0  0  0  0  0  0
    6.4276  -15.4824   20.8718 N   0  0  0  0  0  0  0  0  0  0  0  0
    7.6203  -15.2540   23.0058 C   0  0  0  0  0  0  0  0  0  0  0  0
    6.5461  -15.0732   23.6755 O   0  0  0  0  0  0  0  0  0  0  0  0
    9.3348  -18.4624   27.0158 C   0  0  0  0  0  0  0  0  0  0  0  0
    7.9744  -17.9977   26.5902 C   0  0  2  0  0  0  0  0  0  0  0  0
    7.0237  -19.1691   26.5551 C   0  0  0  0  0  0  0  0  0  0  0  0
    7.9978  -17.3921   25.2271 C   0  0  0  0  0  0  0  0  0  0  0  0
    8.7267  -16.0597   25.1517 C   0  0  2  0  0  0  0  0  0  0  0  0
    8.7522  -15.6593   23.7500 N   0  0  0  0  0  0  0  0  0  0  0  0
   10.1102  -16.3268   25.6107 C   0  0  0  0  0  0  0  0  0  0  0  0
   11.0363  -16.6991   24.8485 O   0  0  0  0  0  0  0  0  0  0  0  0
   10.3838  -16.1469   26.9771 O   0  0  0  0  0  0  0  0  0  0  0  0
  2  3  1  0
  2  1  1  0
  3  4  1  0
  4  5  1  0
  5  1  1  0
  5  6  1  1
  6 12  1  0
  6  7  2  0
  9  8  1  6
  9 11  1  0
  9 10  1  0
 11 13  1  0
 11 12  1  1
 13 14  2  0
 16 18  1  0
 16 15  1  6
 17 16  1  0
 19 18  1  6
 19 21  1  0
 20 19  1  0
 20 13  1  0
 21 23  1  0
 22 21  2  0
M  END
$$$$
