PVL.pdb
     RDKit          3D

 23 23  0  0  1  0  0  0  0  0999 V2000
    9.3406  -16.0372   19.8566 N   0  0  0  0  0  0  0  0  0  0  0  0
   10.0592  -17.2356   19.6203 C   0  0  0  0  0  0  0  0  0  0  0  0
    9.7839  -18.0796   20.8471 C   0  0  0  0  0  0  0  0  0  0  0  0
    8.3122  -17.7598   21.0994 C   0  0  0  0  0  0  0  0  0  0  0  0
    8.3278  -16.2462   20.8694 C   0  0  1  0  0  0  0  0  0  0  0  0
    8.7984  -15.6360   22.1281 C   0  0  0  0  0  0  0  0  0  0  0  0
   10.0306  -15.5041   22.3587 O   0  0  0  0  0  0  0  0  0  0  0  0
    6.1359  -14.9382   25.4472 C   0  0  0  0  0  0  0  0  0  0  0  0
    7.1609  -13.8953   25.0677 C   0  0  1  0  0  0  0  0  0  0  0  0
    7.6715  -13.1774   26.2970 C   0  0  0  0  0  0  0  0  0  0  0  0
    8.3071  -14.6440   24.3767 C   0  0  2  0  0  0  0  0  0  0  0  0
    7.8711  -15.1812   23.1061 N   0  0  0  0  0  0  0  0  0  0  0  0
    8.8570  -15.6391   25.3078 C   0  0  0  0  0  0  0  0  0  0  0  0
    8.5736  -16.8773   25.1604 O   0  0  0  0  0  0  0  0  0  0  0  0
   10.9787  -13.3327   27.8583 C   0  0  0  0  0  0  0  0  0  0  0  0
   10.2303  -14.3245   28.6974 C   0  0  2  0  0  0  0  0  0  0  0  0
   10.3723  -13.9675   30.1567 C   0  0  0  0  0  0  0  0  0  0  0  0
   10.7543  -15.7094   28.5166 C   0  0  0  0  0  0  0  0  0  0  0  0
   10.5035  -16.2932   27.1351 C   0  0  2  0  0  0  0  0  0  0  0  0
    9.7049  -15.3240   26.3944 N   0  0  0  0  0  0  0  0  0  0  0  0
    9.7053  -17.5227   27.3524 C   0  0  0  0  0  0  0  0  0  0  0  0
    8.4659  -17.5902   27.1610 O   0  0  0  0  0  0  0  0  0  0  0  0
   10.3892  -18.6675   27.7953 O   0  0  0  0  0  0  0  0  0  0  0  0
  2  3  1  0
  2  1  1  0
  3  4  1  0
  4  5  1  0
  5  1  1  0
  5  6  1  1
  6 12  1  0
  6  7  2  0
  9  8  1  1
  9 11  1  0
  9 10  1  0
 11 13  1  0
 11 12  1  6
 13 14  2  0
 16 18  1  0
 16 15  1  6
 17 16  1  0
 19 18  1  1
 19 21  1  0
 20 19  1  0
 20 13  1  0
 21 23  1  0
 22 21  2  0
M  END
$$$$
