PVL.pdb
     RDKit          3D

 23 23  0  0  1  0  0  0  0  0999 V2000
    7.9560  -19.4876   20.3952 N   0  0  0  0  0  0  0  0  0  0  0  0
    8.3835  -20.4683   21.3246 C   0  0  0  0  0  0  0  0  0  0  0  0
    8.2482  -19.7863   22.6700 C   0  0  0  0  0  0  0  0  0  0  0  0
    6.9494  -19.0072   22.4749 C   0  0  0  0  0  0  0  0  0  0  0  0
    7.1761  -18.4658   21.0608 C   0  0  1  0  0  0  0  0  0  0  0  0
    8.0162  -17.2609   21.2032 C   0  0  0  0  0  0  0  0  0  0  0  0
    9.2736  -17.3474   21.1932 O   0  0  0  0  0  0  0  0  0  0  0  0
    6.2086  -13.4041   21.4727 C   0  0  0  0  0  0  0  0  0  0  0  0
    7.5194  -13.6026   20.7485 C   0  0  1  0  0  0  0  0  0  0  0  0
    8.3704  -12.3553   20.8344 C   0  0  0  0  0  0  0  0  0  0  0  0
    8.2252  -14.7746   21.4413 C   0  0  2  0  0  0  0  0  0  0  0  0
    7.4242  -15.9760   21.3516 N   0  0  0  0  0  0  0  0  0  0  0  0
    8.5820  -14.3754   22.8099 C   0  0  0  0  0  0  0  0  0  0  0  0
    8.9087  -13.1641   23.0574 O   0  0  0  0  0  0  0  0  0  0  0  0
    8.1377  -12.0066   26.2442 C   0  0  0  0  0  0  0  0  0  0  0  0
    7.1732  -12.8579   25.4742 C   0  0  2  0  0  0  0  0  0  0  0  0
    5.7588  -12.5082   25.8670 C   0  0  0  0  0  0  0  0  0  0  0  0
    7.3742  -14.3100   25.7501 C   0  0  0  0  0  0  0  0  0  0  0  0
    8.7269  -14.8451   25.3071 C   0  0  2  0  0  0  0  0  0  0  0  0
    8.5942  -15.2573   23.9149 N   0  0  0  0  0  0  0  0  0  0  0  0
    8.9879  -16.0366   26.1487 C   0  0  0  0  0  0  0  0  0  0  0  0
    8.6512  -17.2029   25.8267 O   0  0  0  0  0  0  0  0  0  0  0  0
    9.6512  -15.8323   27.3705 O   0  0  0  0  0  0  0  0  0  0  0  0
  2  3  1  0
  2  1  1  0
  3  4  1  0
  4  5  1  0
  5  1  1  0
  5  6  1  1
  6 12  1  0
  6  7  2  0
  9  8  1  1
  9 11  1  0
  9 10  1  0
 11 13  1  0
 11 12  1  1
 13 14  2  0
 16 18  1  0
 16 15  1  1
 17 16  1  0
 19 18  1  1
 19 21  1  0
 20 19  1  0
 20 13  1  0
 21 23  1  0
 22 21  2  0
M  END
$$$$
