EHY.pdb
     RDKit          3D

 32 33  0  0  1  0  0  0  0  0999 V2000
   10.4788  -18.6854   19.3886 N   0  0  0  0  0  0  0  0  0  0  0  0
    9.4705  -18.3308   20.3216 C   0  0  1  0  0  0  0  0  0  0  0  0
    9.3185  -19.2542   21.4815 C   0  0  0  0  0  0  0  0  0  0  0  0
   10.0396  -20.5550   21.4240 C   0  0  0  0  0  0  0  0  0  0  0  0
    9.9435  -21.4441   22.5750 C   0  0  0  0  0  0  0  0  0  0  0  0
   10.5422  -21.2004   23.6386 O   0  0  0  0  0  0  0  0  0  0  0  0
    9.6614  -16.9534   20.9084 C   0  0  0  0  0  0  0  0  0  0  0  0
   10.8520  -16.5485   20.9645 O   0  0  0  0  0  0  0  0  0  0  0  0
    9.1542  -22.6129   22.4899 O   0  0  0  0  0  0  0  0  0  0  0  0
    8.6099  -16.1393   21.3753 N   0  0  0  0  0  0  0  0  0  0  0  0
    8.8208  -14.8182   21.9506 C   0  0  1  0  0  0  0  0  0  0  0  0
    7.7352  -13.9349   21.3839 C   0  0  0  0  0  0  0  0  0  0  0  0
    7.7630  -13.8894   19.9052 C   0  0  0  0  0  0  0  0  0  0  0  0
    8.1791  -12.7920   19.1814 C   0  0  0  0  0  0  0  0  0  0  0  0
    8.0686  -13.0940   17.8782 N   0  0  0  0  0  0  0  0  0  0  0  0
    7.5935  -14.3531   17.7536 C   0  0  0  0  0  0  0  0  0  0  0  0
    7.4174  -14.8110   18.9950 N   0  0  0  0  0  0  0  0  0  0  0  0
    8.8582  -14.8490   23.4188 C   0  0  0  0  0  0  0  0  0  0  0  0
    8.4799  -13.8386   24.0663 O   0  0  0  0  0  0  0  0  0  0  0  0
    6.1946  -10.4870   26.9038 O   0  0  0  0  0  0  0  0  0  0  0  0
    6.5359  -11.8040   26.6808 C   0  0  0  0  0  0  0  0  0  0  0  0
    7.8136  -12.2275   27.0184 C   0  0  0  0  0  0  0  0  0  0  0  0
    8.1863  -13.5412   26.8072 C   0  0  0  0  0  0  0  0  0  0  0  0
    7.3211  -14.4654   26.2636 C   0  0  0  0  0  0  0  0  0  0  0  0
    7.7205  -15.8393   26.0256 C   0  0  0  0  0  0  0  0  0  0  0  0
    9.1692  -16.0199   25.6475 C   0  0  2  0  0  0  0  0  0  0  0  0
    9.2974  -15.9548   24.1911 N   0  0  0  0  0  0  0  0  0  0  0  0
    9.6735  -17.2749   26.1829 C   0  0  0  0  0  0  0  0  0  0  0  0
    9.9083  -17.4607   27.5316 O   0  0  0  0  0  0  0  0  0  0  0  0
    6.0564  -14.0379   25.9314 C   0  0  0  0  0  0  0  0  0  0  0  0
    5.6601  -12.7188   26.1357 C   0  0  0  0  0  0  0  0  0  0  0  0
    9.9144  -18.2442   25.4041 O   0  0  0  0  0  0  0  0  0  0  0  0
  2  1  1  1
  2  3  1  0
  3  4  1  0
  5  4  1  0
  5  9  1  0
  6  5  2  0
  7  2  1  0
  8  7  2  0
 10  7  1  0
 11 10  1  0
 11 12  1  1
 13 12  1  0
 13 14  2  0
 15 14  1  0
 16 15  1  0
 17 16  2  0
 17 13  1  0
 18 11  1  0
 18 19  2  0
 21 22  2  0
 21 20  1  0
 23 22  1  0
 24 23  2  0
 25 24  1  0
 26 25  1  6
 26 27  1  0
 27 18  1  0
 28 26  1  0
 29 28  1  0
 30 24  1  0
 30 31  2  0
 31 21  1  0
 32 28  2  0
M  END
$$$$
