EHY.pdb
     RDKit          3D

 32 33  0  0  1  0  0  0  0  0999 V2000
   10.5579  -18.8611   15.7434 N   0  0  0  0  0  0  0  0  0  0  0  0
   10.7302  -17.7042   16.5463 C   0  0  1  0  0  0  0  0  0  0  0  0
   10.0238  -16.4822   16.0680 C   0  0  0  0  0  0  0  0  0  0  0  0
    9.3901  -16.5365   14.7224 C   0  0  0  0  0  0  0  0  0  0  0  0
    8.6501  -15.3672   14.2648 C   0  0  0  0  0  0  0  0  0  0  0  0
    9.2127  -14.4343   13.6628 O   0  0  0  0  0  0  0  0  0  0  0  0
   10.2944  -17.9034   17.9775 C   0  0  0  0  0  0  0  0  0  0  0  0
    9.0578  -17.7957   18.1874 O   0  0  0  0  0  0  0  0  0  0  0  0
    7.2606  -15.2821   14.5064 O   0  0  0  0  0  0  0  0  0  0  0  0
   11.1743  -18.1914   19.0402 N   0  0  0  0  0  0  0  0  0  0  0  0
   10.7338  -18.3441   20.4197 C   0  0  1  0  0  0  0  0  0  0  0  0
   11.6362  -19.3861   21.0360 C   0  0  0  0  0  0  0  0  0  0  0  0
   11.2348  -19.7301   22.4181 C   0  0  0  0  0  0  0  0  0  0  0  0
    9.9259  -19.9124   22.8115 C   0  0  0  0  0  0  0  0  0  0  0  0
    9.9280  -20.2048   24.1216 N   0  0  0  0  0  0  0  0  0  0  0  0
   11.2023  -20.2131   24.5718 C   0  0  0  0  0  0  0  0  0  0  0  0
   11.9723  -19.9228   23.5208 N   0  0  0  0  0  0  0  0  0  0  0  0
   10.7172  -17.0663   21.1444 C   0  0  0  0  0  0  0  0  0  0  0  0
   11.6701  -16.2589   20.9920 O   0  0  0  0  0  0  0  0  0  0  0  0
    7.7959  -12.9847   17.1926 O   0  0  0  0  0  0  0  0  0  0  0  0
    7.9348  -13.4062   18.4978 C   0  0  0  0  0  0  0  0  0  0  0  0
    8.8435  -12.7506   19.3166 C   0  0  0  0  0  0  0  0  0  0  0  0
    9.0061  -13.1493   20.6295 C   0  0  0  0  0  0  0  0  0  0  0  0
    8.2864  -14.1935   21.1680 C   0  0  0  0  0  0  0  0  0  0  0  0
    8.4721  -14.6223   22.5412 C   0  0  0  0  0  0  0  0  0  0  0  0
    9.7350  -15.4072   22.7929 C   0  0  2  0  0  0  0  0  0  0  0  0
    9.6867  -16.6536   22.0276 N   0  0  0  0  0  0  0  0  0  0  0  0
    9.8982  -15.6493   24.2180 C   0  0  0  0  0  0  0  0  0  0  0  0
    9.8945  -16.9219   24.7556 O   0  0  0  0  0  0  0  0  0  0  0  0
    7.3878  -14.8386   20.3501 C   0  0  0  0  0  0  0  0  0  0  0  0
    7.2082  -14.4532   19.0242 C   0  0  0  0  0  0  0  0  0  0  0  0
   10.0486  -14.6746   25.0126 O   0  0  0  0  0  0  0  0  0  0  0  0
  2  1  1  6
  2  3  1  0
  3  4  1  0
  5  4  1  0
  5  9  1  0
  6  5  2  0
  7  2  1  0
  8  7  2  0
 10  7  1  0
 11 10  1  0
 11 12  1  1
 13 12  1  0
 13 14  2  0
 15 14  1  0
 16 15  1  0
 17 16  2  0
 17 13  1  0
 18 11  1  0
 18 19  2  0
 21 22  2  0
 21 20  1  0
 23 22  1  0
 24 23  2  0
 25 24  1  0
 26 25  1  1
 26 27  1  0
 27 18  1  0
 28 26  1  0
 29 28  1  0
 30 24  1  0
 30 31  2  0
 31 21  1  0
 32 28  2  0
M  END
$$$$
