EHY.pdb
     RDKit          3D

 32 33  0  0  1  0  0  0  0  0999 V2000
   11.5169  -16.0714   17.5044 N   0  0  0  0  0  0  0  0  0  0  0  0
   12.0303  -16.1555   18.8243 C   0  0  1  0  0  0  0  0  0  0  0  0
   13.1137  -15.1862   19.1526 C   0  0  0  0  0  0  0  0  0  0  0  0
   14.4786  -15.4796   18.6365 C   0  0  0  0  0  0  0  0  0  0  0  0
   15.5583  -14.5686   18.9953 C   0  0  0  0  0  0  0  0  0  0  0  0
   16.6493  -14.9875   19.4235 O   0  0  0  0  0  0  0  0  0  0  0  0
   10.9733  -15.9735   19.8862 C   0  0  0  0  0  0  0  0  0  0  0  0
   10.4015  -14.8520   19.8949 O   0  0  0  0  0  0  0  0  0  0  0  0
   15.3704  -13.1750   18.8571 O   0  0  0  0  0  0  0  0  0  0  0  0
   10.6166  -16.9617   20.8257 N   0  0  0  0  0  0  0  0  0  0  0  0
    9.6117  -16.7527   21.8586 C   0  0  1  0  0  0  0  0  0  0  0  0
    8.6889  -17.9462   21.7947 C   0  0  0  0  0  0  0  0  0  0  0  0
    7.7695  -17.8838   20.6370 C   0  0  0  0  0  0  0  0  0  0  0  0
    7.7613  -16.8528   19.7215 C   0  0  0  0  0  0  0  0  0  0  0  0
    6.8051  -17.1150   18.8166 N   0  0  0  0  0  0  0  0  0  0  0  0
    6.2052  -18.2844   19.1318 C   0  0  0  0  0  0  0  0  0  0  0  0
    6.8079  -18.7280   20.2372 N   0  0  0  0  0  0  0  0  0  0  0  0
   10.2099  -16.5323   23.1821 C   0  0  0  0  0  0  0  0  0  0  0  0
   11.3066  -17.0819   23.4621 O   0  0  0  0  0  0  0  0  0  0  0  0
    4.9866  -11.9329   26.0151 O   0  0  0  0  0  0  0  0  0  0  0  0
    6.2590  -12.4636   26.0221 C   0  0  0  0  0  0  0  0  0  0  0  0
    6.9601  -12.5294   24.8263 C   0  0  0  0  0  0  0  0  0  0  0  0
    8.2373  -13.0559   24.8002 C   0  0  0  0  0  0  0  0  0  0  0  0
    8.8541  -13.5276   25.9383 C   0  0  0  0  0  0  0  0  0  0  0  0
   10.1878  -14.0969   25.9054 C   0  0  0  0  0  0  0  0  0  0  0  0
   10.2434  -15.5546   25.5226 C   0  0  2  0  0  0  0  0  0  0  0  0
    9.6387  -15.7278   24.2012 N   0  0  0  0  0  0  0  0  0  0  0  0
    9.5816  -16.3634   26.5345 C   0  0  0  0  0  0  0  0  0  0  0  0
   10.0838  -16.5009   27.8141 O   0  0  0  0  0  0  0  0  0  0  0  0
    8.1527  -13.4591   27.1198 C   0  0  0  0  0  0  0  0  0  0  0  0
    6.8647  -12.9324   27.1687 C   0  0  0  0  0  0  0  0  0  0  0  0
    8.5074  -16.9731   26.2546 O   0  0  0  0  0  0  0  0  0  0  0  0
  2  1  1  6
  2  3  1  0
  3  4  1  0
  5  4  1  0
  5  9  1  0
  6  5  2  0
  7  2  1  0
  8  7  2  0
 10  7  1  0
 11 10  1  0
 11 12  1  1
 13 12  1  0
 13 14  2  0
 15 14  1  0
 16 15  1  0
 17 16  2  0
 17 13  1  0
 18 11  1  0
 18 19  2  0
 21 22  2  0
 21 20  1  0
 23 22  1  0
 24 23  2  0
 25 24  1  0
 26 25  1  1
 26 27  1  0
 27 18  1  0
 28 26  1  0
 29 28  1  0
 30 24  1  0
 30 31  2  0
 31 21  1  0
 32 28  2  0
M  END
$$$$
