EHY.pdb
     RDKit          3D

 32 33  0  0  1  0  0  0  0  0999 V2000
    9.6567  -19.9230   18.2189 N   0  0  0  0  0  0  0  0  0  0  0  0
    9.7067  -18.6252   18.7900 C   0  0  1  0  0  0  0  0  0  0  0  0
    8.5886  -17.7157   18.4111 C   0  0  0  0  0  0  0  0  0  0  0  0
    8.9393  -16.4475   17.7155 C   0  0  0  0  0  0  0  0  0  0  0  0
    7.8620  -15.5187   17.3976 C   0  0  0  0  0  0  0  0  0  0  0  0
    7.2670  -15.5600   16.3050 O   0  0  0  0  0  0  0  0  0  0  0  0
    9.7375  -18.6405   20.2989 C   0  0  0  0  0  0  0  0  0  0  0  0
    8.6207  -18.7817   20.8623 O   0  0  0  0  0  0  0  0  0  0  0  0
    7.4774  -14.5449   18.3463 O   0  0  0  0  0  0  0  0  0  0  0  0
   10.9112  -18.5089   21.0681 N   0  0  0  0  0  0  0  0  0  0  0  0
   10.9191  -18.5566   22.5235 C   0  0  1  0  0  0  0  0  0  0  0  0
   12.3145  -18.9728   22.9227 C   0  0  0  0  0  0  0  0  0  0  0  0
   12.4696  -19.0829   24.3901 C   0  0  0  0  0  0  0  0  0  0  0  0
   13.2758  -18.2515   25.1385 C   0  0  0  0  0  0  0  0  0  0  0  0
   13.1835  -18.6361   26.4213 N   0  0  0  0  0  0  0  0  0  0  0  0
   12.3409  -19.6892   26.5088 C   0  0  0  0  0  0  0  0  0  0  0  0
   11.9235  -19.9386   25.2656 N   0  0  0  0  0  0  0  0  0  0  0  0
   10.4797  -17.2905   23.1253 C   0  0  0  0  0  0  0  0  0  0  0  0
   10.8848  -16.2034   22.6383 O   0  0  0  0  0  0  0  0  0  0  0  0
    6.0621  -10.8877   27.1760 O   0  0  0  0  0  0  0  0  0  0  0  0
    6.5379  -11.9736   26.4724 C   0  0  0  0  0  0  0  0  0  0  0  0
    6.3748  -13.2413   27.0130 C   0  0  0  0  0  0  0  0  0  0  0  0
    6.8407  -14.3498   26.3323 C   0  0  0  0  0  0  0  0  0  0  0  0
    7.4736  -14.2431   25.1131 C   0  0  0  0  0  0  0  0  0  0  0  0
    7.9784  -15.4064   24.4092 C   0  0  0  0  0  0  0  0  0  0  0  0
    9.3054  -15.9207   24.9083 C   0  0  2  0  0  0  0  0  0  0  0  0
    9.6112  -17.1873   24.2420 N   0  0  0  0  0  0  0  0  0  0  0  0
    9.2755  -16.0603   26.3559 C   0  0  0  0  0  0  0  0  0  0  0  0
    8.9121  -17.2399   26.9763 O   0  0  0  0  0  0  0  0  0  0  0  0
    7.6317  -12.9831   24.5839 C   0  0  0  0  0  0  0  0  0  0  0  0
    7.1698  -11.8527   25.2528 C   0  0  0  0  0  0  0  0  0  0  0  0
    9.5880  -15.0790   27.0931 O   0  0  0  0  0  0  0  0  0  0  0  0
  2  1  1  1
  2  3  1  0
  3  4  1  0
  5  4  1  0
  5  9  1  0
  6  5  2  0
  7  2  1  0
  8  7  2  0
 10  7  1  0
 11 10  1  0
 11 12  1  1
 13 12  1  0
 13 14  2  0
 15 14  1  0
 16 15  1  0
 17 16  2  0
 17 13  1  0
 18 11  1  0
 18 19  2  0
 21 22  2  0
 21 20  1  0
 23 22  1  0
 24 23  2  0
 25 24  1  0
 26 25  1  6
 26 27  1  0
 27 18  1  0
 28 26  1  0
 29 28  1  0
 30 24  1  0
 30 31  2  0
 31 21  1  0
 32 28  2  0
M  END
$$$$
