EHY.pdb
     RDKit          3D

 32 33  0  0  1  0  0  0  0  0999 V2000
   10.3247  -15.9568   17.7361 N   0  0  0  0  0  0  0  0  0  0  0  0
   10.6007  -16.6992   18.9132 C   0  0  1  0  0  0  0  0  0  0  0  0
   12.0108  -17.1570   19.0651 C   0  0  0  0  0  0  0  0  0  0  0  0
   12.2517  -18.6229   19.1575 C   0  0  0  0  0  0  0  0  0  0  0  0
   13.2568  -19.0948   20.1017 C   0  0  0  0  0  0  0  0  0  0  0  0
   14.4695  -19.0854   19.8217 O   0  0  0  0  0  0  0  0  0  0  0  0
   10.2677  -15.9501   20.1805 C   0  0  0  0  0  0  0  0  0  0  0  0
   11.0935  -15.0619   20.5179 O   0  0  0  0  0  0  0  0  0  0  0  0
   12.8536  -19.5764   21.3674 O   0  0  0  0  0  0  0  0  0  0  0  0
    9.1229  -16.1929   20.9659 N   0  0  0  0  0  0  0  0  0  0  0  0
    8.8039  -15.4314   22.1654 C   0  0  1  0  0  0  0  0  0  0  0  0
    7.3010  -15.4760   22.3041 C   0  0  0  0  0  0  0  0  0  0  0  0
    6.8219  -14.7063   23.4735 C   0  0  0  0  0  0  0  0  0  0  0  0
    6.1962  -15.2779   24.5612 C   0  0  0  0  0  0  0  0  0  0  0  0
    5.8935  -14.2950   25.4239 N   0  0  0  0  0  0  0  0  0  0  0  0
    6.3094  -13.1143   24.9144 C   0  0  0  0  0  0  0  0  0  0  0  0
    6.8674  -13.3920   23.7340 N   0  0  0  0  0  0  0  0  0  0  0  0
    9.5262  -15.9228   23.3464 C   0  0  0  0  0  0  0  0  0  0  0  0
    9.7813  -17.1509   23.4461 O   0  0  0  0  0  0  0  0  0  0  0  0
   11.8542  -16.1651   31.9171 O   0  0  0  0  0  0  0  0  0  0  0  0
   11.5787  -15.7807   30.6222 C   0  0  0  0  0  0  0  0  0  0  0  0
   10.6561  -14.7658   30.4104 C   0  0  0  0  0  0  0  0  0  0  0  0
   10.3581  -14.3578   29.1244 C   0  0  0  0  0  0  0  0  0  0  0  0
   10.9534  -14.9312   28.0220 C   0  0  0  0  0  0  0  0  0  0  0  0
   10.6253  -14.5140   26.6721 C   0  0  0  0  0  0  0  0  0  0  0  0
   10.4794  -15.6408   25.6803 C   0  0  2  0  0  0  0  0  0  0  0  0
    9.9741  -15.1051   24.4156 N   0  0  0  0  0  0  0  0  0  0  0  0
    9.6091  -16.6736   26.2206 C   0  0  0  0  0  0  0  0  0  0  0  0
    8.2728  -16.7643   25.8820 O   0  0  0  0  0  0  0  0  0  0  0  0
   11.8667  -15.9366   28.2401 C   0  0  0  0  0  0  0  0  0  0  0  0
   12.1817  -16.3631   29.5275 C   0  0  0  0  0  0  0  0  0  0  0  0
   10.0704  -17.5290   27.0327 O   0  0  0  0  0  0  0  0  0  0  0  0
  2  1  1  6
  2  3  1  0
  3  4  1  0
  5  4  1  0
  5  9  1  0
  6  5  2  0
  7  2  1  0
  8  7  2  0
 10  7  1  0
 11 10  1  0
 11 12  1  1
 13 12  1  0
 13 14  2  0
 15 14  1  0
 16 15  1  0
 17 16  2  0
 17 13  1  0
 18 11  1  0
 18 19  2  0
 21 22  2  0
 21 20  1  0
 23 22  1  0
 24 23  2  0
 25 24  1  0
 26 25  1  1
 26 27  1  0
 27 18  1  0
 28 26  1  0
 29 28  1  0
 30 24  1  0
 30 31  2  0
 31 21  1  0
 32 28  2  0
M  END
$$$$
