EHY.pdb
     RDKit          3D

 32 33  0  0  1  0  0  0  0  0999 V2000
   10.2175  -18.1907   18.8500 N   0  0  0  0  0  0  0  0  0  0  0  0
   10.7230  -18.9398   19.9437 C   0  0  1  0  0  0  0  0  0  0  0  0
   12.1879  -18.8104   20.1855 C   0  0  0  0  0  0  0  0  0  0  0  0
   12.8279  -17.5091   19.8502 C   0  0  0  0  0  0  0  0  0  0  0  0
   14.2612  -17.3711   20.0761 C   0  0  0  0  0  0  0  0  0  0  0  0
   14.9477  -18.3174   20.5032 O   0  0  0  0  0  0  0  0  0  0  0  0
   10.0537  -18.6040   21.2542 C   0  0  0  0  0  0  0  0  0  0  0  0
    9.6794  -17.4088   21.3809 O   0  0  0  0  0  0  0  0  0  0  0  0
   14.8946  -16.1372   19.8066 O   0  0  0  0  0  0  0  0  0  0  0  0
    9.8406  -19.5307   22.2945 N   0  0  0  0  0  0  0  0  0  0  0  0
    9.1487  -19.1947   23.5310 C   0  0  1  0  0  0  0  0  0  0  0  0
    9.0763  -20.4724   24.3325 C   0  0  0  0  0  0  0  0  0  0  0  0
    8.2141  -20.3376   25.5274 C   0  0  0  0  0  0  0  0  0  0  0  0
    7.3351  -19.2933   25.7225 C   0  0  0  0  0  0  0  0  0  0  0  0
    6.7263  -19.4845   26.9035 N   0  0  0  0  0  0  0  0  0  0  0  0
    7.1944  -20.6215   27.4646 C   0  0  0  0  0  0  0  0  0  0  0  0
    8.0930  -21.1174   26.6112 N   0  0  0  0  0  0  0  0  0  0  0  0
    9.7886  -18.0803   24.2428 C   0  0  0  0  0  0  0  0  0  0  0  0
   10.6434  -17.3767   23.6450 O   0  0  0  0  0  0  0  0  0  0  0  0
    6.5248  -10.5592   26.4886 O   0  0  0  0  0  0  0  0  0  0  0  0
    6.8814  -11.8483   26.1549 C   0  0  0  0  0  0  0  0  0  0  0  0
    7.1003  -12.7642   27.1744 C   0  0  0  0  0  0  0  0  0  0  0  0
    7.4590  -14.0640   26.8727 C   0  0  0  0  0  0  0  0  0  0  0  0
    7.6109  -14.4946   25.5727 C   0  0  0  0  0  0  0  0  0  0  0  0
    8.0056  -15.8546   25.2588 C   0  0  0  0  0  0  0  0  0  0  0  0
    9.2176  -16.3496   26.0074 C   0  0  2  0  0  0  0  0  0  0  0  0
    9.5154  -17.7194   25.5872 N   0  0  0  0  0  0  0  0  0  0  0  0
    8.9925  -16.2567   27.4415 C   0  0  0  0  0  0  0  0  0  0  0  0
    8.0720  -17.0512   28.0971 O   0  0  0  0  0  0  0  0  0  0  0  0
    7.3924  -13.5809   24.5677 C   0  0  0  0  0  0  0  0  0  0  0  0
    7.0302  -12.2663   24.8494 C   0  0  0  0  0  0  0  0  0  0  0  0
    9.6508  -15.4246   28.1331 O   0  0  0  0  0  0  0  0  0  0  0  0
  2  1  1  6
  2  3  1  0
  3  4  1  0
  5  4  1  0
  5  9  1  0
  6  5  2  0
  7  2  1  0
  8  7  2  0
 10  7  1  0
 11 10  1  0
 11 12  1  1
 13 12  1  0
 13 14  2  0
 15 14  1  0
 16 15  1  0
 17 16  2  0
 17 13  1  0
 18 11  1  0
 18 19  2  0
 21 22  2  0
 21 20  1  0
 23 22  1  0
 24 23  2  0
 25 24  1  0
 26 25  1  6
 26 27  1  0
 27 18  1  0
 28 26  1  0
 29 28  1  0
 30 24  1  0
 30 31  2  0
 31 21  1  0
 32 28  2  0
M  END
$$$$
