EHY.pdb
     RDKit          3D

 32 33  0  0  1  0  0  0  0  0999 V2000
    9.0028  -17.9788   17.7396 N   0  0  0  0  0  0  0  0  0  0  0  0
    8.4427  -17.8634   19.0380 C   0  0  1  0  0  0  0  0  0  0  0  0
    8.7296  -18.9970   19.9619 C   0  0  0  0  0  0  0  0  0  0  0  0
   10.1493  -19.4164   20.1156 C   0  0  0  0  0  0  0  0  0  0  0  0
   10.4377  -20.5622   20.9691 C   0  0  0  0  0  0  0  0  0  0  0  0
    9.5321  -21.1799   21.5589 O   0  0  0  0  0  0  0  0  0  0  0  0
    8.8783  -16.6141   19.7645 C   0  0  0  0  0  0  0  0  0  0  0  0
    9.3919  -15.7192   19.0433 O   0  0  0  0  0  0  0  0  0  0  0  0
   11.7741  -20.9887   21.1369 O   0  0  0  0  0  0  0  0  0  0  0  0
    8.7406  -16.4173   21.1532 N   0  0  0  0  0  0  0  0  0  0  0  0
    8.6653  -15.0990   21.7671 C   0  0  1  0  0  0  0  0  0  0  0  0
    7.4901  -14.4024   21.1239 C   0  0  0  0  0  0  0  0  0  0  0  0
    7.7612  -14.0247   19.7192 C   0  0  0  0  0  0  0  0  0  0  0  0
    8.4346  -12.8789   19.3516 C   0  0  0  0  0  0  0  0  0  0  0  0
    8.4947  -12.8505   18.0109 N   0  0  0  0  0  0  0  0  0  0  0  0
    7.8780  -13.9467   17.5162 C   0  0  0  0  0  0  0  0  0  0  0  0
    7.4436  -14.6397   18.5711 N   0  0  0  0  0  0  0  0  0  0  0  0
    8.5870  -15.1698   23.2323 C   0  0  0  0  0  0  0  0  0  0  0  0
    7.4752  -15.3853   23.7805 O   0  0  0  0  0  0  0  0  0  0  0  0
    6.1467  -10.3271   27.0688 O   0  0  0  0  0  0  0  0  0  0  0  0
    6.6329  -11.5877   26.7945 C   0  0  0  0  0  0  0  0  0  0  0  0
    7.8610  -11.9580   27.3241 C   0  0  0  0  0  0  0  0  0  0  0  0
    8.3757  -13.2143   27.0675 C   0  0  0  0  0  0  0  0  0  0  0  0
    7.7031  -14.1322   26.2905 C   0  0  0  0  0  0  0  0  0  0  0  0
    8.2538  -15.4438   26.0072 C   0  0  0  0  0  0  0  0  0  0  0  0
    9.6767  -15.4373   25.5074 C   0  0  2  0  0  0  0  0  0  0  0  0
    9.6922  -15.0116   24.1074 N   0  0  0  0  0  0  0  0  0  0  0  0
   10.2750  -16.7515   25.6836 C   0  0  0  0  0  0  0  0  0  0  0  0
   10.4225  -17.3346   26.9273 O   0  0  0  0  0  0  0  0  0  0  0  0
    6.4864  -13.7576   25.7690 C   0  0  0  0  0  0  0  0  0  0  0  0
    5.9494  -12.4968   26.0150 C   0  0  0  0  0  0  0  0  0  0  0  0
   10.6834  -17.4013   24.6761 O   0  0  0  0  0  0  0  0  0  0  0  0
  2  1  1  6
  2  3  1  0
  3  4  1  0
  5  4  1  0
  5  9  1  0
  6  5  2  0
  7  2  1  0
  8  7  2  0
 10  7  1  0
 11 10  1  0
 11 12  1  6
 13 12  1  0
 13 14  2  0
 15 14  1  0
 16 15  1  0
 17 16  2  0
 17 13  1  0
 18 11  1  0
 18 19  2  0
 21 22  2  0
 21 20  1  0
 23 22  1  0
 24 23  2  0
 25 24  1  0
 26 25  1  6
 26 27  1  0
 27 18  1  0
 28 26  1  0
 29 28  1  0
 30 24  1  0
 30 31  2  0
 31 21  1  0
 32 28  2  0
M  END
$$$$
