EHY.pdb
     RDKit          3D

 32 33  0  0  1  0  0  0  0  0999 V2000
    9.3597  -18.4413   17.7857 N   0  0  0  0  0  0  0  0  0  0  0  0
   10.5185  -18.2942   18.5910 C   0  0  1  0  0  0  0  0  0  0  0  0
   11.8122  -18.2657   17.8517 C   0  0  0  0  0  0  0  0  0  0  0  0
   11.8299  -17.5964   16.5224 C   0  0  0  0  0  0  0  0  0  0  0  0
   13.0500  -17.6785   15.7292 C   0  0  0  0  0  0  0  0  0  0  0  0
   13.4985  -18.7705   15.3345 O   0  0  0  0  0  0  0  0  0  0  0  0
   10.4974  -17.0473   19.4411 C   0  0  0  0  0  0  0  0  0  0  0  0
   11.5723  -16.3926   19.4696 O   0  0  0  0  0  0  0  0  0  0  0  0
   13.7467  -16.4954   15.3959 O   0  0  0  0  0  0  0  0  0  0  0  0
    9.3756  -16.6059   20.1713 N   0  0  0  0  0  0  0  0  0  0  0  0
    9.3728  -15.3863   20.9669 C   0  0  1  0  0  0  0  0  0  0  0  0
    8.0478  -14.7133   20.6995 C   0  0  0  0  0  0  0  0  0  0  0  0
    7.9011  -14.3038   19.2853 C   0  0  0  0  0  0  0  0  0  0  0  0
    8.1673  -13.0312   18.8259 C   0  0  0  0  0  0  0  0  0  0  0  0
    7.9237  -13.0120   17.5060 N   0  0  0  0  0  0  0  0  0  0  0  0
    7.5098  -14.2373   17.1137 C   0  0  0  0  0  0  0  0  0  0  0  0
    7.5053  -14.9993   18.2097 N   0  0  0  0  0  0  0  0  0  0  0  0
    9.6322  -15.6476   22.3890 C   0  0  0  0  0  0  0  0  0  0  0  0
    8.9365  -16.5028   22.9954 O   0  0  0  0  0  0  0  0  0  0  0  0
   10.2785  -15.6544   30.9367 O   0  0  0  0  0  0  0  0  0  0  0  0
   10.1597  -15.3654   29.5939 C   0  0  0  0  0  0  0  0  0  0  0  0
   10.5793  -16.3113   28.6691 C   0  0  0  0  0  0  0  0  0  0  0  0
   10.4735  -16.0517   27.3161 C   0  0  0  0  0  0  0  0  0  0  0  0
    9.9572  -14.8663   26.8401 C   0  0  0  0  0  0  0  0  0  0  0  0
    9.8644  -14.5884   25.4195 C   0  0  0  0  0  0  0  0  0  0  0  0
   10.8842  -15.3019   24.5679 C   0  0  2  0  0  0  0  0  0  0  0  0
   10.6309  -14.9980   23.1590 N   0  0  0  0  0  0  0  0  0  0  0  0
   10.8446  -16.7318   24.8322 C   0  0  0  0  0  0  0  0  0  0  0  0
   11.8971  -17.4024   25.4247 O   0  0  0  0  0  0  0  0  0  0  0  0
    9.5436  -13.9337   27.7630 C   0  0  0  0  0  0  0  0  0  0  0  0
    9.6411  -14.1747   29.1308 C   0  0  0  0  0  0  0  0  0  0  0  0
    9.8204  -17.4061   24.5151 O   0  0  0  0  0  0  0  0  0  0  0  0
  2  1  1  6
  2  3  1  0
  3  4  1  0
  5  4  1  0
  5  9  1  0
  6  5  2  0
  7  2  1  0
  8  7  2  0
 10  7  1  0
 11 10  1  0
 11 12  1  1
 13 12  1  0
 13 14  2  0
 15 14  1  0
 16 15  1  0
 17 16  2  0
 17 13  1  0
 18 11  1  0
 18 19  2  0
 21 22  2  0
 21 20  1  0
 23 22  1  0
 24 23  2  0
 25 24  1  0
 26 25  1  1
 26 27  1  0
 27 18  1  0
 28 26  1  0
 29 28  1  0
 30 24  1  0
 30 31  2  0
 31 21  1  0
 32 28  2  0
M  END
$$$$
