EHY.pdb
     RDKit          3D

 32 33  0  0  1  0  0  0  0  0999 V2000
   12.6546  -19.8463   19.8736 N   0  0  0  0  0  0  0  0  0  0  0  0
   13.2249  -18.7885   20.6277 C   0  0  1  0  0  0  0  0  0  0  0  0
   14.5706  -18.3340   20.1766 C   0  0  0  0  0  0  0  0  0  0  0  0
   15.3773  -19.2800   19.3582 C   0  0  0  0  0  0  0  0  0  0  0  0
   16.4765  -19.9835   20.0071 C   0  0  0  0  0  0  0  0  0  0  0  0
   17.4564  -19.3733   20.4727 O   0  0  0  0  0  0  0  0  0  0  0  0
   12.3597  -17.5523   20.6664 C   0  0  0  0  0  0  0  0  0  0  0  0
   12.9678  -16.4719   20.8843 O   0  0  0  0  0  0  0  0  0  0  0  0
   16.4373  -21.3918   20.1144 O   0  0  0  0  0  0  0  0  0  0  0  0
   10.9630  -17.5575   20.4779 N   0  0  0  0  0  0  0  0  0  0  0  0
   10.1428  -16.3576   20.5678 C   0  0  1  0  0  0  0  0  0  0  0  0
    9.0366  -16.5278   19.5543 C   0  0  0  0  0  0  0  0  0  0  0  0
    8.1484  -15.3462   19.4885 C   0  0  0  0  0  0  0  0  0  0  0  0
    6.9050  -15.2900   20.0818 C   0  0  0  0  0  0  0  0  0  0  0  0
    6.3786  -14.0836   19.8181 N   0  0  0  0  0  0  0  0  0  0  0  0
    7.2532  -13.3715   19.0733 C   0  0  0  0  0  0  0  0  0  0  0  0
    8.3151  -14.1589   18.8886 N   0  0  0  0  0  0  0  0  0  0  0  0
    9.6655  -16.1097   21.9348 C   0  0  0  0  0  0  0  0  0  0  0  0
    9.3415  -17.0848   22.6609 O   0  0  0  0  0  0  0  0  0  0  0  0
    5.8387  -11.7998   28.7095 O   0  0  0  0  0  0  0  0  0  0  0  0
    6.4377  -12.1772   27.5265 C   0  0  0  0  0  0  0  0  0  0  0  0
    5.9655  -11.6368   26.3386 C   0  0  0  0  0  0  0  0  0  0  0  0
    6.5445  -11.9951   25.1363 C   0  0  0  0  0  0  0  0  0  0  0  0
    7.5935  -12.8859   25.0698 C   0  0  0  0  0  0  0  0  0  0  0  0
    8.1876  -13.2747   23.8050 C   0  0  0  0  0  0  0  0  0  0  0  0
    8.9116  -14.5975   23.8269 C   0  0  2  0  0  0  0  0  0  0  0  0
    9.5356  -14.8253   22.5229 N   0  0  0  0  0  0  0  0  0  0  0  0
    7.9913  -15.6659   24.1843 C   0  0  0  0  0  0  0  0  0  0  0  0
    7.1093  -16.2155   23.2741 O   0  0  0  0  0  0  0  0  0  0  0  0
    8.0558  -13.4173   26.2515 C   0  0  0  0  0  0  0  0  0  0  0  0
    7.4871  -13.0700   27.4741 C   0  0  0  0  0  0  0  0  0  0  0  0
    7.9795  -16.1225   25.3655 O   0  0  0  0  0  0  0  0  0  0  0  0
  2  1  1  6
  2  3  1  0
  3  4  1  0
  5  4  1  0
  5  9  1  0
  6  5  2  0
  7  2  1  0
  8  7  2  0
 10  7  1  0
 11 10  1  0
 11 12  1  6
 13 12  1  0
 13 14  2  0
 15 14  1  0
 16 15  1  0
 17 16  2  0
 17 13  1  0
 18 11  1  0
 18 19  2  0
 21 22  2  0
 21 20  1  0
 23 22  1  0
 24 23  2  0
 25 24  1  0
 26 25  1  6
 26 27  1  0
 27 18  1  0
 28 26  1  0
 29 28  1  0
 30 24  1  0
 30 31  2  0
 31 21  1  0
 32 28  2  0
M  END
$$$$
