EHY.pdb
     RDKit          3D

 32 33  0  0  1  0  0  0  0  0999 V2000
   10.0604  -15.9340   18.3678 N   0  0  0  0  0  0  0  0  0  0  0  0
   10.7323  -16.0402   19.6128 C   0  0  1  0  0  0  0  0  0  0  0  0
   11.7596  -14.9934   19.8770 C   0  0  0  0  0  0  0  0  0  0  0  0
   13.0685  -15.1231   19.1805 C   0  0  0  0  0  0  0  0  0  0  0  0
   14.1455  -14.2217   19.5704 C   0  0  0  0  0  0  0  0  0  0  0  0
   15.3129  -14.6269   19.7192 O   0  0  0  0  0  0  0  0  0  0  0  0
    9.7971  -16.0138   20.7972 C   0  0  0  0  0  0  0  0  0  0  0  0
    9.0265  -15.0201   20.8571 O   0  0  0  0  0  0  0  0  0  0  0  0
   13.8665  -12.8537   19.7870 O   0  0  0  0  0  0  0  0  0  0  0  0
    9.7532  -17.0096   21.7935 N   0  0  0  0  0  0  0  0  0  0  0  0
    8.8055  -16.9891   22.8989 C   0  0  1  0  0  0  0  0  0  0  0  0
    8.1086  -18.3284   22.8798 C   0  0  0  0  0  0  0  0  0  0  0  0
    7.1469  -18.4453   21.7614 C   0  0  0  0  0  0  0  0  0  0  0  0
    6.9089  -17.4392   20.8490 C   0  0  0  0  0  0  0  0  0  0  0  0
    5.9821  -17.8804   19.9840 N   0  0  0  0  0  0  0  0  0  0  0  0
    5.6242  -19.1392   20.3216 C   0  0  0  0  0  0  0  0  0  0  0  0
    6.3440  -19.4562   21.4002 N   0  0  0  0  0  0  0  0  0  0  0  0
    9.4499  -16.6708   24.1801 C   0  0  0  0  0  0  0  0  0  0  0  0
   10.6965  -16.7997   24.2918 O   0  0  0  0  0  0  0  0  0  0  0  0
    7.0689  -10.2779   24.9794 O   0  0  0  0  0  0  0  0  0  0  0  0
    7.4014  -11.4620   25.6021 C   0  0  0  0  0  0  0  0  0  0  0  0
    8.7353  -11.8432   25.6401 C   0  0  0  0  0  0  0  0  0  0  0  0
    9.1010  -13.0244   26.2566 C   0  0  0  0  0  0  0  0  0  0  0  0
    8.1738  -13.8552   26.8470 C   0  0  0  0  0  0  0  0  0  0  0  0
    8.5577  -15.1039   27.4773 C   0  0  0  0  0  0  0  0  0  0  0  0
    9.4205  -16.0021   26.6269 C   0  0  2  0  0  0  0  0  0  0  0  0
    8.7649  -16.2165   25.3362 N   0  0  0  0  0  0  0  0  0  0  0  0
    9.6771  -17.2540   27.3219 C   0  0  0  0  0  0  0  0  0  0  0  0
   10.3717  -17.3069   28.5149 O   0  0  0  0  0  0  0  0  0  0  0  0
    6.8536  -13.4707   26.8050 C   0  0  0  0  0  0  0  0  0  0  0  0
    6.4633  -12.2845   26.1891 C   0  0  0  0  0  0  0  0  0  0  0  0
    9.2600  -18.3459   26.8341 O   0  0  0  0  0  0  0  0  0  0  0  0
  2  1  1  6
  2  3  1  0
  3  4  1  0
  5  4  1  0
  5  9  1  0
  6  5  2  0
  7  2  1  0
  8  7  2  0
 10  7  1  0
 11 10  1  0
 11 12  1  1
 13 12  1  0
 13 14  2  0
 15 14  1  0
 16 15  1  0
 17 16  2  0
 17 13  1  0
 18 11  1  0
 18 19  2  0
 21 22  2  0
 21 20  1  0
 23 22  1  0
 24 23  2  0
 25 24  1  0
 26 25  1  1
 26 27  1  0
 27 18  1  0
 28 26  1  0
 29 28  1  0
 30 24  1  0
 30 31  2  0
 31 21  1  0
 32 28  2  0
M  END
$$$$
