EHY.pdb
     RDKit          3D

 32 33  0  0  1  0  0  0  0  0999 V2000
   13.2072  -18.9764   19.9541 N   0  0  0  0  0  0  0  0  0  0  0  0
   13.0704  -17.5935   19.6683 C   0  0  1  0  0  0  0  0  0  0  0  0
   12.8656  -17.2541   18.2317 C   0  0  0  0  0  0  0  0  0  0  0  0
   12.5552  -18.3714   17.2986 C   0  0  0  0  0  0  0  0  0  0  0  0
   12.4011  -18.0604   15.8830 C   0  0  0  0  0  0  0  0  0  0  0  0
   12.0736  -18.9312   15.0562 O   0  0  0  0  0  0  0  0  0  0  0  0
   11.9329  -16.9414   20.4161 C   0  0  0  0  0  0  0  0  0  0  0  0
   11.8209  -15.6980   20.2552 O   0  0  0  0  0  0  0  0  0  0  0  0
   12.6272  -16.7414   15.4296 O   0  0  0  0  0  0  0  0  0  0  0  0
   11.0327  -17.6353   21.2494 N   0  0  0  0  0  0  0  0  0  0  0  0
    9.9808  -16.9750   22.0097 C   0  0  1  0  0  0  0  0  0  0  0  0
    8.7320  -17.7979   21.8016 C   0  0  0  0  0  0  0  0  0  0  0  0
    8.2146  -17.6935   20.4193 C   0  0  0  0  0  0  0  0  0  0  0  0
    8.7974  -16.9158   19.4411 C   0  0  0  0  0  0  0  0  0  0  0  0
    8.0699  -17.0514   18.3212 N   0  0  0  0  0  0  0  0  0  0  0  0
    7.0405  -17.8939   18.5606 C   0  0  0  0  0  0  0  0  0  0  0  0
    7.1520  -18.2674   19.8373 N   0  0  0  0  0  0  0  0  0  0  0  0
   10.3447  -16.7909   23.4211 C   0  0  0  0  0  0  0  0  0  0  0  0
   10.9468  -17.7141   24.0279 O   0  0  0  0  0  0  0  0  0  0  0  0
    6.1424  -10.1536   26.5962 O   0  0  0  0  0  0  0  0  0  0  0  0
    6.5804  -11.3982   26.1968 C   0  0  0  0  0  0  0  0  0  0  0  0
    5.7270  -12.4830   26.3414 C   0  0  0  0  0  0  0  0  0  0  0  0
    6.1365  -13.7435   25.9507 C   0  0  0  0  0  0  0  0  0  0  0  0
    7.3844  -13.9696   25.4121 C   0  0  0  0  0  0  0  0  0  0  0  0
    7.8190  -15.2966   25.0198 C   0  0  0  0  0  0  0  0  0  0  0  0
    9.2426  -15.6304   25.3892 C   0  0  2  0  0  0  0  0  0  0  0  0
   10.0666  -15.6250   24.1798 N   0  0  0  0  0  0  0  0  0  0  0  0
    9.2939  -16.9110   26.0774 C   0  0  0  0  0  0  0  0  0  0  0  0
    9.0881  -18.1097   25.4223 O   0  0  0  0  0  0  0  0  0  0  0  0
    8.2247  -12.8893   25.2720 C   0  0  0  0  0  0  0  0  0  0  0  0
    7.8323  -11.6107   25.6592 C   0  0  0  0  0  0  0  0  0  0  0  0
    9.5324  -16.9524   27.3206 O   0  0  0  0  0  0  0  0  0  0  0  0
  2  1  1  6
  2  3  1  0
  3  4  1  0
  5  4  1  0
  5  9  1  0
  6  5  2  0
  7  2  1  0
  8  7  2  0
 10  7  1  0
 11 10  1  0
 11 12  1  1
 13 12  1  0
 13 14  2  0
 15 14  1  0
 16 15  1  0
 17 16  2  0
 17 13  1  0
 18 11  1  0
 18 19  2  0
 21 22  2  0
 21 20  1  0
 23 22  1  0
 24 23  2  0
 25 24  1  0
 26 25  1  6
 26 27  1  0
 27 18  1  0
 28 26  1  0
 29 28  1  0
 30 24  1  0
 30 31  2  0
 31 21  1  0
 32 28  2  0
M  END
$$$$
