EHY.pdb
     RDKit          3D

 32 33  0  0  1  0  0  0  0  0999 V2000
   11.2933  -16.5070   15.0852 N   0  0  0  0  0  0  0  0  0  0  0  0
   10.7457  -15.9591   16.2738 C   0  0  1  0  0  0  0  0  0  0  0  0
    9.4023  -16.4777   16.6579 C   0  0  0  0  0  0  0  0  0  0  0  0
    9.3116  -17.8993   17.0894 C   0  0  0  0  0  0  0  0  0  0  0  0
    8.0150  -18.4025   17.5254 C   0  0  0  0  0  0  0  0  0  0  0  0
    7.2331  -17.6990   18.1909 O   0  0  0  0  0  0  0  0  0  0  0  0
   11.6290  -16.1571   17.4816 C   0  0  0  0  0  0  0  0  0  0  0  0
   11.8769  -17.3543   17.7813 O   0  0  0  0  0  0  0  0  0  0  0  0
    7.6285  -19.7192   17.1893 O   0  0  0  0  0  0  0  0  0  0  0  0
   12.1629  -15.1051   18.2527 N   0  0  0  0  0  0  0  0  0  0  0  0
   13.0683  -15.3189   19.3731 C   0  0  1  0  0  0  0  0  0  0  0  0
   14.2648  -14.4329   19.1214 C   0  0  0  0  0  0  0  0  0  0  0  0
   15.0849  -14.9062   17.9844 C   0  0  0  0  0  0  0  0  0  0  0  0
   15.3633  -14.1414   16.8714 C   0  0  0  0  0  0  0  0  0  0  0  0
   16.1202  -14.8800   16.0447 N   0  0  0  0  0  0  0  0  0  0  0  0
   16.3304  -16.0934   16.6015 C   0  0  0  0  0  0  0  0  0  0  0  0
   15.6931  -16.0823   17.7744 N   0  0  0  0  0  0  0  0  0  0  0  0
   12.4165  -15.0862   20.6689 C   0  0  0  0  0  0  0  0  0  0  0  0
   12.8053  -14.1328   21.3920 O   0  0  0  0  0  0  0  0  0  0  0  0
    7.6846  -11.8485   18.3680 O   0  0  0  0  0  0  0  0  0  0  0  0
    8.0986  -12.7099   19.3615 C   0  0  0  0  0  0  0  0  0  0  0  0
    7.6313  -14.0166   19.3479 C   0  0  0  0  0  0  0  0  0  0  0  0
    8.0276  -14.9042   20.3299 C   0  0  0  0  0  0  0  0  0  0  0  0
    8.8860  -14.5348   21.3423 C   0  0  0  0  0  0  0  0  0  0  0  0
    9.2861  -15.4631   22.3825 C   0  0  0  0  0  0  0  0  0  0  0  0
   10.7754  -15.6585   22.5167 C   0  0  2  0  0  0  0  0  0  0  0  0
   11.3539  -15.8689   21.1890 N   0  0  0  0  0  0  0  0  0  0  0  0
   11.0558  -16.7680   23.4148 C   0  0  0  0  0  0  0  0  0  0  0  0
   10.6916  -16.7491   24.7473 O   0  0  0  0  0  0  0  0  0  0  0  0
    9.3448  -13.2379   21.3491 C   0  0  0  0  0  0  0  0  0  0  0  0
    8.9582  -12.3271   20.3694 C   0  0  0  0  0  0  0  0  0  0  0  0
   11.6550  -17.7966   22.9824 O   0  0  0  0  0  0  0  0  0  0  0  0
  2  1  1  6
  2  3  1  0
  3  4  1  0
  5  4  1  0
  5  9  1  0
  6  5  2  0
  7  2  1  0
  8  7  2  0
 10  7  1  0
 11 10  1  0
 11 12  1  6
 13 12  1  0
 13 14  2  0
 15 14  1  0
 16 15  1  0
 17 16  2  0
 17 13  1  0
 18 11  1  0
 18 19  2  0
 21 22  2  0
 21 20  1  0
 23 22  1  0
 24 23  2  0
 25 24  1  0
 26 25  1  6
 26 27  1  0
 27 18  1  0
 28 26  1  0
 29 28  1  0
 30 24  1  0
 30 31  2  0
 31 21  1  0
 32 28  2  0
M  END
$$$$
