EHY.pdb
     RDKit          3D

 32 33  0  0  1  0  0  0  0  0999 V2000
   10.5610  -19.2471   18.5470 N   0  0  0  0  0  0  0  0  0  0  0  0
   11.6005  -18.4587   19.1044 C   0  0  1  0  0  0  0  0  0  0  0  0
   12.5193  -17.8216   18.1190 C   0  0  0  0  0  0  0  0  0  0  0  0
   11.9685  -17.4979   16.7747 C   0  0  0  0  0  0  0  0  0  0  0  0
   12.8803  -16.9663   15.7696 C   0  0  0  0  0  0  0  0  0  0  0  0
   13.9499  -16.4143   16.0867 O   0  0  0  0  0  0  0  0  0  0  0  0
   11.0932  -17.3413   19.9832 C   0  0  0  0  0  0  0  0  0  0  0  0
   11.9808  -16.6203   20.5095 O   0  0  0  0  0  0  0  0  0  0  0  0
   12.5500  -17.0756   14.4002 O   0  0  0  0  0  0  0  0  0  0  0  0
    9.7293  -17.0837   20.2279 N   0  0  0  0  0  0  0  0  0  0  0  0
    9.2646  -16.0058   21.0897 C   0  0  1  0  0  0  0  0  0  0  0  0
    7.8659  -15.6727   20.6287 C   0  0  0  0  0  0  0  0  0  0  0  0
    7.8604  -14.7440   19.4768 C   0  0  0  0  0  0  0  0  0  0  0  0
    9.0048  -14.2480   18.8887 C   0  0  0  0  0  0  0  0  0  0  0  0
    8.6326  -13.4378   17.8853 N   0  0  0  0  0  0  0  0  0  0  0  0
    7.2830  -13.4050   17.8194 C   0  0  0  0  0  0  0  0  0  0  0  0
    6.8414  -14.2039   18.7934 N   0  0  0  0  0  0  0  0  0  0  0  0
    9.3558  -16.3522   22.5144 C   0  0  0  0  0  0  0  0  0  0  0  0
    9.1417  -17.5384   22.8752 O   0  0  0  0  0  0  0  0  0  0  0  0
   11.1123  -15.6116   31.2226 O   0  0  0  0  0  0  0  0  0  0  0  0
   10.8744  -15.3865   29.8835 C   0  0  0  0  0  0  0  0  0  0  0  0
   10.1726  -14.2478   29.5136 C   0  0  0  0  0  0  0  0  0  0  0  0
    9.9179  -13.9939   28.1795 C   0  0  0  0  0  0  0  0  0  0  0  0
   10.3424  -14.8445   27.1822 C   0  0  0  0  0  0  0  0  0  0  0  0
   10.0579  -14.5855   25.7837 C   0  0  0  0  0  0  0  0  0  0  0  0
    9.7754  -15.8153   24.9579 C   0  0  2  0  0  0  0  0  0  0  0  0
    9.6747  -15.4349   23.5483 N   0  0  0  0  0  0  0  0  0  0  0  0
    8.5664  -16.4702   25.4328 C   0  0  0  0  0  0  0  0  0  0  0  0
    8.6010  -17.5422   26.3035 O   0  0  0  0  0  0  0  0  0  0  0  0
   11.0374  -15.9711   27.5568 C   0  0  0  0  0  0  0  0  0  0  0  0
   11.3049  -16.2463   28.8952 C   0  0  0  0  0  0  0  0  0  0  0  0
    7.4316  -16.0615   25.0465 O   0  0  0  0  0  0  0  0  0  0  0  0
  2  1  1  6
  2  3  1  0
  3  4  1  0
  5  4  1  0
  5  9  1  0
  6  5  2  0
  7  2  1  0
  8  7  2  0
 10  7  1  0
 11 10  1  0
 11 12  1  6
 13 12  1  0
 13 14  2  0
 15 14  1  0
 16 15  1  0
 17 16  2  0
 17 13  1  0
 18 11  1  0
 18 19  2  0
 21 22  2  0
 21 20  1  0
 23 22  1  0
 24 23  2  0
 25 24  1  0
 26 25  1  1
 26 27  1  0
 27 18  1  0
 28 26  1  0
 29 28  1  0
 30 24  1  0
 30 31  2  0
 31 21  1  0
 32 28  2  0
M  END
$$$$
