QTN.pdb
     RDKit          3D

 25 24  0  0  1  0  0  0  0  0999 V2000
   28.2972  -11.9378  -15.8777 N   0  0  0  0  0  0  0  0  0  0  0  0
   27.8607  -13.2907  -15.7462 C   0  0  0  0  0  0  0  0  0  0  0  0
   28.6892  -14.1556  -15.3829 O   0  0  0  0  0  0  0  0  0  0  0  0
   26.4486  -13.5765  -16.0502 C   0  0  0  0  0  0  0  0  0  0  0  0
   25.6100  -12.3656  -16.3374 C   0  0  0  0  0  0  0  0  0  0  0  0
   24.1816  -12.7079  -16.5990 C   0  0  2  0  0  0  0  0  0  0  0  0
   24.0718  -13.7739  -17.6027 N   0  0  0  0  0  0  0  0  0  0  0  0
   23.3776  -11.5227  -17.0113 C   0  0  0  0  0  0  0  0  0  0  0  0
   23.4891  -11.1138  -18.1952 O   0  0  0  0  0  0  0  0  0  0  0  0
   19.9029  -11.1803  -17.5705 C   0  0  0  0  0  0  0  0  0  0  0  0
   20.2091  -10.1131  -16.5666 C   0  0  1  0  0  0  0  0  0  0  0  0
   20.0313  -10.6884  -15.2749 O   0  0  0  0  0  0  0  0  0  0  0  0
   21.6831   -9.6892  -16.6212 C   0  0  2  0  0  0  0  0  0  0  0  0
   22.4945  -10.8234  -16.1601 N   0  0  0  0  0  0  0  0  0  0  0  0
   21.8640   -8.5436  -15.7057 C   0  0  0  0  0  0  0  0  0  0  0  0
   22.9886   -8.3646  -15.1018 O   0  0  0  0  0  0  0  0  0  0  0  0
   22.0942   -3.8845  -13.5632 N   0  0  0  0  0  0  0  0  0  0  0  0
   22.6778   -4.3582  -14.7933 C   0  0  0  0  0  0  0  0  0  0  0  0
   23.5321   -3.6237  -15.3158 O   0  0  0  0  0  0  0  0  0  0  0  0
   22.2543   -5.6320  -15.3491 C   0  0  0  0  0  0  0  0  0  0  0  0
   21.2168   -6.3855  -14.5485 C   0  0  2  0  0  0  0  0  0  0  0  0
   20.8952   -7.5630  -15.4002 N   0  0  0  0  0  0  0  0  0  0  0  0
   20.0103   -5.5413  -14.4320 C   0  0  0  0  0  0  0  0  0  0  0  0
   19.2571   -5.4225  -15.4225 O   0  0  0  0  0  0  0  0  0  0  0  0
   19.7002   -4.8920  -13.2710 O   0  0  0  0  0  0  0  0  0  0  0  0
  2  1  1  0
  2  3  2  0
  4  2  1  0
  5  4  1  0
  6  7  1  6
  6  5  1  0
  8  6  1  0
  9  8  2  0
 11 10  1  6
 11 13  1  0
 11 12  1  0
 13 14  1  1
 14  8  1  0
 15 22  1  0
 15 13  1  0
 16 15  2  0
 18 17  1  0
 19 18  2  0
 20 18  1  0
 21 20  1  6
 21 22  1  0
 23 21  1  0
 23 25  1  0
 24 23  2  0
M  END
$$$$
