QTN.pdb
     RDKit          3D

 25 24  0  0  1  0  0  0  0  0999 V2000
   14.3185  -13.4924  -15.4176 N   0  0  0  0  0  0  0  0  0  0  0  0
   15.1381  -14.6563  -15.3088 C   0  0  0  0  0  0  0  0  0  0  0  0
   14.6953  -15.6451  -14.6821 O   0  0  0  0  0  0  0  0  0  0  0  0
   16.4626  -14.6110  -15.9505 C   0  0  0  0  0  0  0  0  0  0  0  0
   16.7990  -13.3038  -16.6061 C   0  0  0  0  0  0  0  0  0  0  0  0
   17.6940  -12.4560  -15.7658 C   0  0  2  0  0  0  0  0  0  0  0  0
   17.1441  -12.2896  -14.4146 N   0  0  0  0  0  0  0  0  0  0  0  0
   17.9643  -11.1266  -16.3828 C   0  0  0  0  0  0  0  0  0  0  0  0
   18.5032  -11.0990  -17.5187 O   0  0  0  0  0  0  0  0  0  0  0  0
   15.5853   -8.3767  -17.2625 C   0  0  0  0  0  0  0  0  0  0  0  0
   16.6475   -7.7703  -16.3996 C   0  0  1  0  0  0  0  0  0  0  0  0
   16.1828   -7.8349  -15.0539 O   0  0  0  0  0  0  0  0  0  0  0  0
   17.9384   -8.6000  -16.4219 C   0  0  2  0  0  0  0  0  0  0  0  0
   17.6556   -9.8891  -15.7772 N   0  0  0  0  0  0  0  0  0  0  0  0
   18.9643   -7.8712  -15.6476 C   0  0  0  0  0  0  0  0  0  0  0  0
   19.0946   -8.0799  -14.3823 O   0  0  0  0  0  0  0  0  0  0  0  0
   22.8656   -4.5263  -14.2489 N   0  0  0  0  0  0  0  0  0  0  0  0
   23.0217   -5.0275  -15.5915 C   0  0  0  0  0  0  0  0  0  0  0  0
   24.0728   -4.7174  -16.1759 O   0  0  0  0  0  0  0  0  0  0  0  0
   21.9767   -5.8461  -16.1820 C   0  0  0  0  0  0  0  0  0  0  0  0
   20.8143   -6.1816  -15.2758 C   0  0  2  0  0  0  0  0  0  0  0  0
   19.8738   -6.9212  -16.1612 N   0  0  0  0  0  0  0  0  0  0  0  0
   20.1723   -4.9212  -14.8503 C   0  0  0  0  0  0  0  0  0  0  0  0
   20.7623   -4.1897  -14.0263 O   0  0  0  0  0  0  0  0  0  0  0  0
   18.9544   -4.5385  -15.3364 O   0  0  0  0  0  0  0  0  0  0  0  0
  2  1  1  0
  2  3  2  0
  4  2  1  0
  5  4  1  0
  6  7  1  1
  6  5  1  0
  8  6  1  0
  9  8  2  0
 11 10  1  6
 11 13  1  0
 11 12  1  0
 13 14  1  1
 14  8  1  0
 15 22  1  0
 15 13  1  0
 16 15  2  0
 18 17  1  0
 19 18  2  0
 20 18  1  0
 21 20  1  6
 21 22  1  0
 23 21  1  0
 23 25  1  0
 24 23  2  0
M  END
$$$$
