QTN.pdb
     RDKit          3D

 25 24  0  0  1  0  0  0  0  0999 V2000
   16.6994  -12.8762  -13.2895 N   0  0  0  0  0  0  0  0  0  0  0  0
   16.1326  -13.4436  -12.1085 C   0  0  0  0  0  0  0  0  0  0  0  0
   16.1568  -14.6871  -11.9692 O   0  0  0  0  0  0  0  0  0  0  0  0
   15.5531  -12.5138  -11.1246 C   0  0  0  0  0  0  0  0  0  0  0  0
   15.6888  -11.0614  -11.4765 C   0  0  0  0  0  0  0  0  0  0  0  0
   15.2026  -10.1617  -10.3902 C   0  0  2  0  0  0  0  0  0  0  0  0
   13.7760  -10.3837  -10.1229 N   0  0  0  0  0  0  0  0  0  0  0  0
   15.4572   -8.7231  -10.6847 C   0  0  0  0  0  0  0  0  0  0  0  0
   14.6109   -8.1010  -11.3762 O   0  0  0  0  0  0  0  0  0  0  0  0
   15.2223   -5.7447   -8.8588 C   0  0  0  0  0  0  0  0  0  0  0  0
   16.6472   -5.7613   -9.3169 C   0  0  1  0  0  0  0  0  0  0  0  0
   17.4026   -6.4367   -8.3148 O   0  0  0  0  0  0  0  0  0  0  0  0
   16.8238   -6.5997  -10.5903 C   0  0  2  0  0  0  0  0  0  0  0  0
   16.5888   -8.0063  -10.2386 N   0  0  0  0  0  0  0  0  0  0  0  0
   18.2142   -6.4303  -11.0605 C   0  0  0  0  0  0  0  0  0  0  0  0
   19.2021   -6.7821  -10.3109 O   0  0  0  0  0  0  0  0  0  0  0  0
   20.5816   -8.4426  -12.0859 N   0  0  0  0  0  0  0  0  0  0  0  0
   20.5292   -8.0533  -13.4730 C   0  0  0  0  0  0  0  0  0  0  0  0
   20.7326   -8.9526  -14.3049 O   0  0  0  0  0  0  0  0  0  0  0  0
   20.2501   -6.6715  -13.8243 C   0  0  0  0  0  0  0  0  0  0  0  0
   20.0459   -5.7266  -12.6623 C   0  0  2  0  0  0  0  0  0  0  0  0
   18.6108   -5.9017  -12.3083 N   0  0  0  0  0  0  0  0  0  0  0  0
   20.2508   -4.3441  -13.1403 C   0  0  0  0  0  0  0  0  0  0  0  0
   21.4177   -3.9248  -13.2973 O   0  0  0  0  0  0  0  0  0  0  0  0
   19.1979   -3.5181  -13.4145 O   0  0  0  0  0  0  0  0  0  0  0  0
  2  1  1  0
  2  3  2  0
  4  2  1  0
  5  4  1  0
  6  7  1  6
  6  5  1  0
  8  6  1  0
  9  8  2  0
 11 10  1  1
 11 13  1  0
 11 12  1  0
 13 14  1  1
 14  8  1  0
 15 22  1  0
 15 13  1  0
 16 15  2  0
 18 17  1  0
 19 18  2  0
 20 18  1  0
 21 20  1  6
 21 22  1  0
 23 21  1  0
 23 25  1  0
 24 23  2  0
M  END
$$$$
