QTN.pdb
     RDKit          3D

 25 24  0  0  1  0  0  0  0  0999 V2000
   14.8617  -13.0584  -15.5736 N   0  0  0  0  0  0  0  0  0  0  0  0
   15.2053  -13.1814  -16.9538 C   0  0  0  0  0  0  0  0  0  0  0  0
   14.3226  -13.5495  -17.7611 O   0  0  0  0  0  0  0  0  0  0  0  0
   16.5912  -12.8614  -17.3350 C   0  0  0  0  0  0  0  0  0  0  0  0
   17.4473  -12.3444  -16.2163 C   0  0  0  0  0  0  0  0  0  0  0  0
   18.8049  -11.9327  -16.6782 C   0  0  2  0  0  0  0  0  0  0  0  0
   19.5922  -13.0977  -17.1010 N   0  0  0  0  0  0  0  0  0  0  0  0
   19.5459  -11.1528  -15.6468 C   0  0  0  0  0  0  0  0  0  0  0  0
   19.2835  -11.3715  -14.4366 O   0  0  0  0  0  0  0  0  0  0  0  0
   23.0897  -11.1398  -14.7680 C   0  0  0  0  0  0  0  0  0  0  0  0
   22.7452   -9.7139  -15.0656 C   0  0  1  0  0  0  0  0  0  0  0  0
   23.0029   -9.5000  -16.4509 O   0  0  0  0  0  0  0  0  0  0  0  0
   21.2450   -9.4437  -14.8868 C   0  0  2  0  0  0  0  0  0  0  0  0
   20.5275  -10.1799  -15.9359 N   0  0  0  0  0  0  0  0  0  0  0  0
   21.0183   -7.9932  -15.0534 C   0  0  0  0  0  0  0  0  0  0  0  0
   20.2321   -7.5595  -15.9782 O   0  0  0  0  0  0  0  0  0  0  0  0
   20.2835   -2.9195  -14.7630 N   0  0  0  0  0  0  0  0  0  0  0  0
   19.3675   -3.9978  -14.4860 C   0  0  0  0  0  0  0  0  0  0  0  0
   18.1735   -3.6843  -14.3505 O   0  0  0  0  0  0  0  0  0  0  0  0
   19.8658   -5.3584  -14.3809 C   0  0  0  0  0  0  0  0  0  0  0  0
   21.3553   -5.5291  -14.5732 C   0  0  2  0  0  0  0  0  0  0  0  0
   21.5914   -6.9673  -14.2707 N   0  0  0  0  0  0  0  0  0  0  0  0
   22.0556   -4.7112  -13.5621 C   0  0  0  0  0  0  0  0  0  0  0  0
   22.3890   -5.2413  -12.4803 O   0  0  0  0  0  0  0  0  0  0  0  0
   22.3467   -3.3949  -13.7826 O   0  0  0  0  0  0  0  0  0  0  0  0
  2  1  1  0
  2  3  2  0
  4  2  1  0
  5  4  1  0
  6  7  1  1
  6  5  1  0
  8  6  1  0
  9  8  2  0
 11 10  1  6
 11 13  1  0
 11 12  1  0
 13 14  1  6
 14  8  1  0
 15 22  1  0
 15 13  1  0
 16 15  2  0
 18 17  1  0
 19 18  2  0
 20 18  1  0
 21 20  1  1
 21 22  1  0
 23 21  1  0
 23 25  1  0
 24 23  2  0
M  END
$$$$
