QTN.pdb
     RDKit          3D

 25 24  0  0  1  0  0  0  0  0999 V2000
   24.5124  -20.1677   -8.5206 N   0  0  0  0  0  0  0  0  0  0  0  0
   23.4764  -21.0330   -8.9853 C   0  0  0  0  0  0  0  0  0  0  0  0
   22.8128  -21.6798   -8.1440 O   0  0  0  0  0  0  0  0  0  0  0  0
   23.2582  -21.1037  -10.4398 C   0  0  0  0  0  0  0  0  0  0  0  0
   24.0937  -20.1543  -11.2475 C   0  0  0  0  0  0  0  0  0  0  0  0
   25.2379  -20.8321  -11.9236 C   0  0  2  0  0  0  0  0  0  0  0  0
   26.1457  -21.4371  -10.9408 N   0  0  0  0  0  0  0  0  0  0  0  0
   25.9890  -19.9166  -12.8285 C   0  0  0  0  0  0  0  0  0  0  0  0
   26.9211  -19.2306  -12.3367 O   0  0  0  0  0  0  0  0  0  0  0  0
   28.5650  -19.9248  -13.8273 C   0  0  0  0  0  0  0  0  0  0  0  0
   27.9490  -19.7531  -15.1807 C   0  0  1  0  0  0  0  0  0  0  0  0
   27.6282  -21.0549  -15.6641 O   0  0  0  0  0  0  0  0  0  0  0  0
   26.6091  -19.0087  -15.1037 C   0  0  2  0  0  0  0  0  0  0  0  0
   25.7253  -19.7654  -14.2073 N   0  0  0  0  0  0  0  0  0  0  0  0
   26.0272  -18.9722  -16.4614 C   0  0  0  0  0  0  0  0  0  0  0  0
   25.2814  -19.9383  -16.8758 O   0  0  0  0  0  0  0  0  0  0  0  0
   22.2743  -17.6315  -18.6663 N   0  0  0  0  0  0  0  0  0  0  0  0
   22.7043  -17.0058  -17.4408 C   0  0  0  0  0  0  0  0  0  0  0  0
   21.8061  -16.6364  -16.6668 O   0  0  0  0  0  0  0  0  0  0  0  0
   24.1230  -16.8403  -17.1746 C   0  0  0  0  0  0  0  0  0  0  0  0
   25.0578  -17.4192  -18.2119 C   0  0  2  0  0  0  0  0  0  0  0  0
   26.1987  -17.9419  -17.4115 N   0  0  0  0  0  0  0  0  0  0  0  0
   25.5452  -16.3198  -19.0696 C   0  0  0  0  0  0  0  0  0  0  0  0
   26.4306  -15.5556  -18.6289 O   0  0  0  0  0  0  0  0  0  0  0  0
   25.0529  -16.1219  -20.3284 O   0  0  0  0  0  0  0  0  0  0  0  0
  2  1  1  0
  2  3  2  0
  4  2  1  0
  5  4  1  0
  6  7  1  1
  6  5  1  0
  8  6  1  0
  9  8  2  0
 11 10  1  1
 11 13  1  0
 11 12  1  0
 13 14  1  1
 14  8  1  0
 15 22  1  0
 15 13  1  0
 16 15  2  0
 18 17  1  0
 19 18  2  0
 20 18  1  0
 21 20  1  1
 21 22  1  0
 23 21  1  0
 23 25  1  0
 24 23  2  0
M  END
$$$$
