QTN.pdb
     RDKit          3D

 25 24  0  0  1  0  0  0  0  0999 V2000
   18.7378  -18.9396  -15.4050 N   0  0  0  0  0  0  0  0  0  0  0  0
   18.9776  -18.0768  -16.5169 C   0  0  0  0  0  0  0  0  0  0  0  0
   18.0324  -17.3801  -16.9502 O   0  0  0  0  0  0  0  0  0  0  0  0
   20.3373  -18.0667  -17.0820 C   0  0  0  0  0  0  0  0  0  0  0  0
   20.9228  -16.7002  -17.2864 C   0  0  0  0  0  0  0  0  0  0  0  0
   22.3401  -16.6108  -16.8293 C   0  0  2  0  0  0  0  0  0  0  0  0
   22.7791  -17.8761  -16.2273 N   0  0  0  0  0  0  0  0  0  0  0  0
   22.5639  -15.4813  -15.8832 C   0  0  0  0  0  0  0  0  0  0  0  0
   22.2843  -15.6601  -14.6703 O   0  0  0  0  0  0  0  0  0  0  0  0
   25.6200  -13.9638  -14.8227 C   0  0  0  0  0  0  0  0  0  0  0  0
   24.7955  -12.8064  -15.2930 C   0  0  1  0  0  0  0  0  0  0  0  0
   25.1251  -12.5848  -16.6617 O   0  0  0  0  0  0  0  0  0  0  0  0
   23.2970  -13.1378  -15.2864 C   0  0  2  0  0  0  0  0  0  0  0  0
   23.0710  -14.2175  -16.2562 N   0  0  0  0  0  0  0  0  0  0  0  0
   22.5591  -11.9289  -15.7074 C   0  0  0  0  0  0  0  0  0  0  0  0
   21.8135  -11.9547  -16.7585 O   0  0  0  0  0  0  0  0  0  0  0  0
   19.6391   -7.7095  -16.0238 N   0  0  0  0  0  0  0  0  0  0  0  0
   19.2848   -9.0010  -15.4902 C   0  0  0  0  0  0  0  0  0  0  0  0
   18.0782   -9.1917  -15.2665 O   0  0  0  0  0  0  0  0  0  0  0  0
   20.3211   -9.9894  -15.2456 C   0  0  0  0  0  0  0  0  0  0  0  0
   21.7368   -9.5400  -15.5261 C   0  0  2  0  0  0  0  0  0  0  0  0
   22.5723  -10.6775  -15.0535 N   0  0  0  0  0  0  0  0  0  0  0  0
   22.0283   -8.3583  -14.6892 C   0  0  0  0  0  0  0  0  0  0  0  0
   22.4105   -8.5303  -13.5116 O   0  0  0  0  0  0  0  0  0  0  0  0
   21.8914   -7.0878  -15.1719 O   0  0  0  0  0  0  0  0  0  0  0  0
  2  1  1  0
  2  3  2  0
  4  2  1  0
  5  4  1  0
  6  7  1  1
  6  5  1  0
  8  6  1  0
  9  8  2  0
 11 10  1  6
 11 13  1  0
 11 12  1  0
 13 14  1  6
 14  8  1  0
 15 22  1  0
 15 13  1  0
 16 15  2  0
 18 17  1  0
 19 18  2  0
 20 18  1  0
 21 20  1  1
 21 22  1  0
 23 21  1  0
 23 25  1  0
 24 23  2  0
M  END
$$$$
