QTN.pdb
     RDKit          3D

 25 24  0  0  1  0  0  0  0  0999 V2000
   14.5885  -15.9183  -12.8178 N   0  0  0  0  0  0  0  0  0  0  0  0
   13.4042  -15.1413  -12.9962 C   0  0  0  0  0  0  0  0  0  0  0  0
   12.3001  -15.7298  -13.0296 O   0  0  0  0  0  0  0  0  0  0  0  0
   13.5672  -13.6839  -13.1291 C   0  0  0  0  0  0  0  0  0  0  0  0
   14.9680  -13.1868  -12.9232 C   0  0  0  0  0  0  0  0  0  0  0  0
   15.5254  -12.5268  -14.1396 C   0  0  2  0  0  0  0  0  0  0  0  0
   15.9602  -13.5237  -15.1260 N   0  0  0  0  0  0  0  0  0  0  0  0
   16.6416  -11.5923  -13.8203 C   0  0  0  0  0  0  0  0  0  0  0  0
   17.8009  -11.9039  -14.1948 O   0  0  0  0  0  0  0  0  0  0  0  0
   18.4790  -10.0713  -15.2256 C   0  0  0  0  0  0  0  0  0  0  0  0
   17.9730   -8.9353  -14.3926 C   0  0  1  0  0  0  0  0  0  0  0  0
   16.7639   -8.4797  -14.9939 O   0  0  0  0  0  0  0  0  0  0  0  0
   17.5751   -9.3979  -12.9843 C   0  0  2  0  0  0  0  0  0  0  0  0
   16.4868  -10.3745  -13.1227 N   0  0  0  0  0  0  0  0  0  0  0  0
   17.0933   -8.2194  -12.2346 C   0  0  0  0  0  0  0  0  0  0  0  0
   16.0125   -8.2900  -11.5358 O   0  0  0  0  0  0  0  0  0  0  0  0
   16.5605   -3.8658   -9.4624 N   0  0  0  0  0  0  0  0  0  0  0  0
   17.0616   -5.1405   -9.0127 C   0  0  0  0  0  0  0  0  0  0  0  0
   17.1909   -5.2790   -7.7853 O   0  0  0  0  0  0  0  0  0  0  0  0
   17.3828   -6.1725   -9.9835 C   0  0  0  0  0  0  0  0  0  0  0  0
   17.1222   -5.8179  -11.4296 C   0  0  2  0  0  0  0  0  0  0  0  0
   17.7159   -6.9530  -12.1876 N   0  0  0  0  0  0  0  0  0  0  0  0
   17.8729   -4.5877  -11.7535 C   0  0  0  0  0  0  0  0  0  0  0  0
   19.0150   -4.6892  -12.2509 O   0  0  0  0  0  0  0  0  0  0  0  0
   17.3483   -3.3476  -11.5237 O   0  0  0  0  0  0  0  0  0  0  0  0
  2  1  1  0
  2  3  2  0
  4  2  1  0
  5  4  1  0
  6  7  1  6
  6  5  1  0
  8  6  1  0
  9  8  2  0
 11 10  1  6
 11 13  1  0
 11 12  1  0
 13 14  1  6
 14  8  1  0
 15 22  1  0
 15 13  1  0
 16 15  2  0
 18 17  1  0
 19 18  2  0
 20 18  1  0
 21 20  1  1
 21 22  1  0
 23 21  1  0
 23 25  1  0
 24 23  2  0
M  END
$$$$
