QTN.pdb
     RDKit          3D

 25 24  0  0  1  0  0  0  0  0999 V2000
   28.7428  -21.9717  -17.6311 N   0  0  0  0  0  0  0  0  0  0  0  0
   28.5716  -22.9541  -16.6095 C   0  0  0  0  0  0  0  0  0  0  0  0
   28.9859  -24.1163  -16.8195 O   0  0  0  0  0  0  0  0  0  0  0  0
   27.9124  -22.5250  -15.3647 C   0  0  0  0  0  0  0  0  0  0  0  0
   26.4136  -22.5931  -15.3915 C   0  0  0  0  0  0  0  0  0  0  0  0
   25.7792  -21.2429  -15.3764 C   0  0  2  0  0  0  0  0  0  0  0  0
   26.2888  -20.4350  -14.2613 N   0  0  0  0  0  0  0  0  0  0  0  0
   24.2912  -21.3125  -15.3286 C   0  0  0  0  0  0  0  0  0  0  0  0
   23.7027  -22.0127  -16.1916 O   0  0  0  0  0  0  0  0  0  0  0  0
   22.1026  -22.7552  -12.8843 C   0  0  0  0  0  0  0  0  0  0  0  0
   21.6005  -21.3526  -13.0303 C   0  0  1  0  0  0  0  0  0  0  0  0
   22.2482  -20.5687  -12.0317 O   0  0  0  0  0  0  0  0  0  0  0  0
   22.0261  -20.7344  -14.3690 C   0  0  2  0  0  0  0  0  0  0  0  0
   23.4921  -20.6433  -14.3762 N   0  0  0  0  0  0  0  0  0  0  0  0
   21.4433  -19.3793  -14.4531 C   0  0  0  0  0  0  0  0  0  0  0  0
   22.1084  -18.3577  -14.0341 O   0  0  0  0  0  0  0  0  0  0  0  0
   19.3793  -15.1338  -16.5008 N   0  0  0  0  0  0  0  0  0  0  0  0
   20.4859  -15.9328  -16.9648 C   0  0  0  0  0  0  0  0  0  0  0  0
   21.1721  -15.4451  -17.8778 O   0  0  0  0  0  0  0  0  0  0  0  0
   20.7407  -17.2306  -16.3635 C   0  0  0  0  0  0  0  0  0  0  0  0
   19.7860  -17.6455  -15.2674 C   0  0  2  0  0  0  0  0  0  0  0  0
   20.1716  -19.0525  -14.9724 N   0  0  0  0  0  0  0  0  0  0  0  0
   18.4131  -17.6348  -15.8124 C   0  0  0  0  0  0  0  0  0  0  0  0
   17.5642  -16.8748  -15.2987 O   0  0  0  0  0  0  0  0  0  0  0  0
   18.0530  -18.4326  -16.8611 O   0  0  0  0  0  0  0  0  0  0  0  0
  2  1  1  0
  2  3  2  0
  4  2  1  0
  5  4  1  0
  6  7  1  1
  6  5  1  0
  8  6  1  0
  9  8  2  0
 11 10  1  6
 11 13  1  0
 11 12  1  0
 13 14  1  1
 14  8  1  0
 15 22  1  0
 15 13  1  0
 16 15  2  0
 18 17  1  0
 19 18  2  0
 20 18  1  0
 21 20  1  6
 21 22  1  0
 23 21  1  0
 23 25  1  0
 24 23  2  0
M  END
$$$$
