WLM.pdb
     RDKit          3D

 31 32  0  0  1  0  0  0  0  0999 V2000
   23.2085  -18.8014  -13.6725 N   0  0  0  0  0  0  0  0  0  0  0  0
   23.1087  -20.0178  -14.4499 C   0  0  1  0  0  0  0  0  0  0  0  0
   22.9757  -19.6715  -15.9166 C   0  0  0  0  0  0  0  0  0  0  0  0
   21.9577  -18.6573  -16.2003 C   0  0  0  0  0  0  0  0  0  0  0  0
   22.2241  -17.3181  -16.4320 C   0  0  0  0  0  0  0  0  0  0  0  0
   21.0603  -16.6939  -16.6559 N   0  0  0  0  0  0  0  0  0  0  0  0
   20.0361  -17.5940  -16.5762 C   0  0  0  0  0  0  0  0  0  0  0  0
   18.6682  -17.4551  -16.7253 C   0  0  0  0  0  0  0  0  0  0  0  0
   17.8855  -18.5804  -16.5802 C   0  0  0  0  0  0  0  0  0  0  0  0
   18.4678  -19.8096  -16.2931 C   0  0  0  0  0  0  0  0  0  0  0  0
   19.8293  -19.9602  -16.1424 C   0  0  0  0  0  0  0  0  0  0  0  0
   20.6102  -18.8217  -16.2900 C   0  0  0  0  0  0  0  0  0  0  0  0
   24.3654  -20.7709  -14.3010 C   0  0  0  0  0  0  0  0  0  0  0  0
   24.5319  -21.8382  -14.8933 O   0  0  0  0  0  0  0  0  0  0  0  0
   29.3330  -18.8533  -14.6144 C   0  0  0  0  0  0  0  0  0  0  0  0
   28.0025  -19.6426  -14.7208 C   0  0  1  0  0  0  0  0  0  0  0  0
   28.2281  -20.5882  -15.8605 C   0  0  0  0  0  0  0  0  0  0  0  0
   27.8017  -20.2442  -13.3885 C   0  0  0  0  0  0  0  0  0  0  0  0
   26.5669  -20.9965  -13.1023 C   0  0  2  0  0  0  0  0  0  0  0  0
   25.3975  -20.2725  -13.4718 N   0  0  0  0  0  0  0  0  0  0  0  0
   26.5030  -21.5901  -11.7496 C   0  0  0  0  0  0  0  0  0  0  0  0
   27.3883  -22.3551  -11.2773 O   0  0  0  0  0  0  0  0  0  0  0  0
   29.3618  -19.5946   -7.1927 C   0  0  0  0  0  0  0  0  0  0  0  0
   27.6815  -19.0132   -6.9016 S   0  0  0  0  0  0  0  0  0  0  0  0
   26.4317  -20.1875   -7.4428 C   0  0  0  0  0  0  0  0  0  0  0  0
   26.3922  -20.2161   -8.9533 C   0  0  0  0  0  0  0  0  0  0  0  0
   25.4492  -21.2750   -9.4723 C   0  0  2  0  0  0  0  0  0  0  0  0
   25.3995  -21.3121  -10.8943 N   0  0  0  0  0  0  0  0  0  0  0  0
   24.0952  -21.0516   -8.8653 C   0  0  0  0  0  0  0  0  0  0  0  0
   23.1438  -20.7307   -9.6177 O   0  0  0  0  0  0  0  0  0  0  0  0
   23.8555  -21.1833   -7.5267 O   0  0  0  0  0  0  0  0  0  0  0  0
  2 13  1  0
  2  1  1  1
  3  2  1  0
  4  3  1  0
  4  5  2  0
  6  5  1  0
  7 12  2  0
  7  6  1  0
  8  7  1  0
  9 10  1  0
  9  8  2  0
 10 11  2  0
 11 12  1  0
 12  4  1  0
 13 14  2  0
 16 15  1  1
 17 16  1  0
 18 16  1  0
 19 18  1  1
 20 19  1  0
 20 13  1  0
 21 19  1  0
 21 22  2  0
 23 24  1  0
 25 26  1  0
 25 24  1  0
 27 26  1  6
 27 28  1  0
 27 29  1  0
 28 21  1  0
 29 30  2  0
 29 31  1  0
M  END
$$$$
