WLM.pdb
     RDKit          3D

 31 32  0  0  1  0  0  0  0  0999 V2000
   26.9892  -20.4277  -17.1280 N   0  0  0  0  0  0  0  0  0  0  0  0
   26.5220  -19.9506  -15.8443 C   0  0  1  0  0  0  0  0  0  0  0  0
   25.0133  -19.8412  -15.8635 C   0  0  0  0  0  0  0  0  0  0  0  0
   24.5013  -18.8119  -16.7713 C   0  0  0  0  0  0  0  0  0  0  0  0
   24.8930  -18.6612  -18.0912 C   0  0  0  0  0  0  0  0  0  0  0  0
   24.2205  -17.6255  -18.6102 N   0  0  0  0  0  0  0  0  0  0  0  0
   23.3962  -17.0934  -17.6600 C   0  0  0  0  0  0  0  0  0  0  0  0
   22.5108  -16.0315  -17.6924 C   0  0  0  0  0  0  0  0  0  0  0  0
   21.8111  -15.7390  -16.5414 C   0  0  0  0  0  0  0  0  0  0  0  0
   22.0005  -16.4971  -15.3917 C   0  0  0  0  0  0  0  0  0  0  0  0
   22.8798  -17.5573  -15.3474 C   0  0  0  0  0  0  0  0  0  0  0  0
   23.5805  -17.8449  -16.5111 C   0  0  0  0  0  0  0  0  0  0  0  0
   26.8647  -20.9531  -14.8213 C   0  0  0  0  0  0  0  0  0  0  0  0
   26.7994  -22.1568  -15.0749 O   0  0  0  0  0  0  0  0  0  0  0  0
   31.2460  -20.4791  -11.7295 C   0  0  0  0  0  0  0  0  0  0  0  0
   30.1242  -20.9487  -12.6915 C   0  0  1  0  0  0  0  0  0  0  0  0
   30.6554  -22.2195  -13.2803 C   0  0  0  0  0  0  0  0  0  0  0  0
   28.9158  -21.0598  -11.8520 C   0  0  0  0  0  0  0  0  0  0  0  0
   27.6257  -21.4188  -12.4679 C   0  0  2  0  0  0  0  0  0  0  0  0
   27.2738  -20.5397  -13.5317 N   0  0  0  0  0  0  0  0  0  0  0  0
   26.5293  -21.6684  -11.5077 C   0  0  0  0  0  0  0  0  0  0  0  0
   26.4433  -22.7070  -10.7966 O   0  0  0  0  0  0  0  0  0  0  0  0
   27.7120  -19.4479   -7.3768 C   0  0  0  0  0  0  0  0  0  0  0  0
   25.9211  -19.4473   -7.1799 S   0  0  0  0  0  0  0  0  0  0  0  0
   25.1081  -20.7074   -8.1722 C   0  0  0  0  0  0  0  0  0  0  0  0
   24.3413  -20.0447   -9.2933 C   0  0  0  0  0  0  0  0  0  0  0  0
   24.3243  -20.8926  -10.5425 C   0  0  2  0  0  0  0  0  0  0  0  0
   25.4886  -20.7115  -11.3410 N   0  0  0  0  0  0  0  0  0  0  0  0
   23.0654  -20.5998  -11.3047 C   0  0  0  0  0  0  0  0  0  0  0  0
   21.9644  -20.7074  -10.7127 O   0  0  0  0  0  0  0  0  0  0  0  0
   23.0685  -20.2206  -12.6173 O   0  0  0  0  0  0  0  0  0  0  0  0
  2 13  1  0
  2  1  1  6
  3  2  1  0
  4  3  1  0
  4  5  2  0
  6  5  1  0
  7 12  2  0
  7  6  1  0
  8  7  1  0
  9 10  1  0
  9  8  2  0
 10 11  2  0
 11 12  1  0
 12  4  1  0
 13 14  2  0
 16 15  1  1
 17 16  1  0
 18 16  1  0
 19 18  1  1
 20 19  1  0
 20 13  1  0
 21 19  1  0
 21 22  2  0
 23 24  1  0
 25 26  1  0
 25 24  1  0
 27 26  1  1
 27 28  1  0
 27 29  1  0
 28 21  1  0
 29 30  2  0
 29 31  1  0
M  END
$$$$
