WLM.pdb
     RDKit          3D

 31 32  0  0  1  0  0  0  0  0999 V2000
   20.9706  -14.2281  -16.6722 N   0  0  0  0  0  0  0  0  0  0  0  0
   21.1498  -13.0410  -17.4799 C   0  0  1  0  0  0  0  0  0  0  0  0
   19.8253  -12.6398  -18.0910 C   0  0  0  0  0  0  0  0  0  0  0  0
   19.3170  -13.5857  -19.0872 C   0  0  0  0  0  0  0  0  0  0  0  0
   18.8502  -14.8574  -18.7988 C   0  0  0  0  0  0  0  0  0  0  0  0
   18.4676  -15.4317  -19.9468 N   0  0  0  0  0  0  0  0  0  0  0  0
   18.6730  -14.5649  -20.9822 C   0  0  0  0  0  0  0  0  0  0  0  0
   18.4463  -14.6769  -22.3418 C   0  0  0  0  0  0  0  0  0  0  0  0
   18.7675  -13.6005  -23.1407 C   0  0  0  0  0  0  0  0  0  0  0  0
   19.3019  -12.4452  -22.5821 C   0  0  0  0  0  0  0  0  0  0  0  0
   19.5321  -12.3219  -21.2290 C   0  0  0  0  0  0  0  0  0  0  0  0
   19.2059  -13.4109  -20.4318 C   0  0  0  0  0  0  0  0  0  0  0  0
   21.5661  -11.9363  -16.5995 C   0  0  0  0  0  0  0  0  0  0  0  0
   20.9731  -11.7184  -15.5419 O   0  0  0  0  0  0  0  0  0  0  0  0
   26.7837  -10.4815  -15.7232 C   0  0  0  0  0  0  0  0  0  0  0  0
   25.3046  -10.9354  -15.6192 C   0  0  1  0  0  0  0  0  0  0  0  0
   25.1197  -11.2497  -14.1663 C   0  0  0  0  0  0  0  0  0  0  0  0
   24.5160   -9.8124  -16.1614 C   0  0  0  0  0  0  0  0  0  0  0  0
   23.0509   -9.9308  -16.2711 C   0  0  2  0  0  0  0  0  0  0  0  0
   22.6565  -11.1115  -16.9629 N   0  0  0  0  0  0  0  0  0  0  0  0
   22.3636   -8.7061  -16.7335 C   0  0  0  0  0  0  0  0  0  0  0  0
   22.5023   -8.2182  -17.8888 O   0  0  0  0  0  0  0  0  0  0  0  0
   15.7906   -4.5039  -16.5266 C   0  0  0  0  0  0  0  0  0  0  0  0
   16.7765   -5.9465  -16.0872 S   0  0  0  0  0  0  0  0  0  0  0  0
   18.5355   -5.7041  -16.3714 C   0  0  0  0  0  0  0  0  0  0  0  0
   19.2792   -6.9713  -16.0180 C   0  0  0  0  0  0  0  0  0  0  0  0
   20.7708   -6.8171  -16.1944 C   0  0  2  0  0  0  0  0  0  0  0  0
   21.4853   -8.0024  -15.8618 N   0  0  0  0  0  0  0  0  0  0  0  0
   21.2301   -5.6363  -15.3903 C   0  0  0  0  0  0  0  0  0  0  0  0
   20.8167   -4.4948  -15.7069 O   0  0  0  0  0  0  0  0  0  0  0  0
   22.0803   -5.7530  -14.3271 O   0  0  0  0  0  0  0  0  0  0  0  0
  2 13  1  0
  2  1  1  1
  3  2  1  0
  4  3  1  0
  4  5  2  0
  6  5  1  0
  7 12  2  0
  7  6  1  0
  8  7  1  0
  9 10  1  0
  9  8  2  0
 10 11  2  0
 11 12  1  0
 12  4  1  0
 13 14  2  0
 16 15  1  1
 17 16  1  0
 18 16  1  0
 19 18  1  6
 20 19  1  0
 20 13  1  0
 21 19  1  0
 21 22  2  0
 23 24  1  0
 25 26  1  0
 25 24  1  0
 27 26  1  1
 27 28  1  0
 27 29  1  0
 28 21  1  0
 29 30  2  0
 29 31  1  0
M  END
$$$$
