WLM.pdb
     RDKit          3D

 31 32  0  0  1  0  0  0  0  0999 V2000
   26.1486  -21.2784  -14.7373 N   0  0  0  0  0  0  0  0  0  0  0  0
   26.8893  -20.4941  -13.7729 C   0  0  1  0  0  0  0  0  0  0  0  0
   25.9923  -19.4200  -13.1980 C   0  0  0  0  0  0  0  0  0  0  0  0
   25.5882  -18.3986  -14.1670 C   0  0  0  0  0  0  0  0  0  0  0  0
   24.2766  -18.0436  -14.4355 C   0  0  0  0  0  0  0  0  0  0  0  0
   24.2873  -17.0822  -15.3681 N   0  0  0  0  0  0  0  0  0  0  0  0
   25.5768  -16.7984  -15.7174 C   0  0  0  0  0  0  0  0  0  0  0  0
   26.1146  -15.8996  -16.6204 C   0  0  0  0  0  0  0  0  0  0  0  0
   27.4866  -15.8529  -16.7455 C   0  0  0  0  0  0  0  0  0  0  0  0
   28.2911  -16.6897  -15.9807 C   0  0  0  0  0  0  0  0  0  0  0  0
   27.7667  -17.5891  -15.0779 C   0  0  0  0  0  0  0  0  0  0  0  0
   26.3840  -17.6296  -14.9583 C   0  0  0  0  0  0  0  0  0  0  0  0
   27.2748  -21.3721  -12.6551 C   0  0  0  0  0  0  0  0  0  0  0  0
   26.6581  -22.4154  -12.4345 O   0  0  0  0  0  0  0  0  0  0  0  0
   32.6945  -21.6680   -9.9000 C   0  0  0  0  0  0  0  0  0  0  0  0
   31.3356  -22.4135   -9.9444 C   0  0  1  0  0  0  0  0  0  0  0  0
   30.9301  -22.5211   -8.5064 C   0  0  0  0  0  0  0  0  0  0  0  0
   30.4733  -21.5949  -10.8182 C   0  0  0  0  0  0  0  0  0  0  0  0
   29.0417  -21.9209  -10.9489 C   0  0  2  0  0  0  0  0  0  0  0  0
   28.3625  -21.0227  -11.8209 N   0  0  0  0  0  0  0  0  0  0  0  0
   28.3415  -22.1594   -9.6686 C   0  0  0  0  0  0  0  0  0  0  0  0
   28.7993  -22.8857   -8.7440 O   0  0  0  0  0  0  0  0  0  0  0  0
   29.8177  -19.8485   -4.9123 C   0  0  0  0  0  0  0  0  0  0  0  0
   28.4459  -18.7698   -5.3604 S   0  0  0  0  0  0  0  0  0  0  0  0
   27.0993  -19.6488   -6.1652 C   0  0  0  0  0  0  0  0  0  0  0  0
   27.5172  -20.0305   -7.5665 C   0  0  0  0  0  0  0  0  0  0  0  0
   26.6205  -21.0951   -8.1516 C   0  0  2  0  0  0  0  0  0  0  0  0
   27.0762  -21.5567   -9.4186 N   0  0  0  0  0  0  0  0  0  0  0  0
   25.2195  -20.5613   -8.2155 C   0  0  0  0  0  0  0  0  0  0  0  0
   24.4035  -20.9044   -7.3262 O   0  0  0  0  0  0  0  0  0  0  0  0
   24.7956  -19.7169   -9.2023 O   0  0  0  0  0  0  0  0  0  0  0  0
  2 13  1  0
  2  1  1  6
  3  2  1  0
  4  3  1  0
  4  5  2  0
  6  5  1  0
  7 12  2  0
  7  6  1  0
  8  7  1  0
  9 10  1  0
  9  8  2  0
 10 11  2  0
 11 12  1  0
 12  4  1  0
 13 14  2  0
 16 15  1  1
 17 16  1  0
 18 16  1  0
 19 18  1  1
 20 19  1  0
 20 13  1  0
 21 19  1  0
 21 22  2  0
 23 24  1  0
 25 26  1  0
 25 24  1  0
 27 26  1  6
 27 28  1  0
 27 29  1  0
 28 21  1  0
 29 30  2  0
 29 31  1  0
M  END
$$$$
