WLM.pdb
     RDKit          3D

 31 32  0  0  1  0  0  0  0  0999 V2000
   23.4166  -17.8899  -16.7182 N   0  0  0  0  0  0  0  0  0  0  0  0
   22.9155  -19.1407  -17.2457 C   0  0  1  0  0  0  0  0  0  0  0  0
   23.2679  -19.2486  -18.7129 C   0  0  0  0  0  0  0  0  0  0  0  0
   22.4180  -18.4418  -19.5916 C   0  0  0  0  0  0  0  0  0  0  0  0
   21.3268  -17.7013  -19.1682 C   0  0  0  0  0  0  0  0  0  0  0  0
   20.7940  -17.0950  -20.2371 N   0  0  0  0  0  0  0  0  0  0  0  0
   21.5114  -17.4213  -21.3526 C   0  0  0  0  0  0  0  0  0  0  0  0
   21.3718  -17.0619  -22.6807 C   0  0  0  0  0  0  0  0  0  0  0  0
   22.2778  -17.5714  -23.5860 C   0  0  0  0  0  0  0  0  0  0  0  0
   23.2948  -18.4187  -23.1618 C   0  0  0  0  0  0  0  0  0  0  0  0
   23.4440  -18.7837  -21.8413 C   0  0  0  0  0  0  0  0  0  0  0  0
   22.5270  -18.2662  -20.9362 C   0  0  0  0  0  0  0  0  0  0  0  0
   23.6044  -20.2461  -16.5584 C   0  0  0  0  0  0  0  0  0  0  0  0
   23.4638  -21.4085  -16.9412 O   0  0  0  0  0  0  0  0  0  0  0  0
   26.4938  -18.2519  -14.7660 C   0  0  0  0  0  0  0  0  0  0  0  0
   27.1736  -19.5991  -15.1227 C   0  0  1  0  0  0  0  0  0  0  0  0
   28.6201  -19.3747  -14.8042 C   0  0  0  0  0  0  0  0  0  0  0  0
   26.4664  -20.6144  -14.3189 C   0  0  0  0  0  0  0  0  0  0  0  0
   25.0764  -20.9750  -14.6515 C   0  0  2  0  0  0  0  0  0  0  0  0
   24.4378  -19.9808  -15.4465 N   0  0  0  0  0  0  0  0  0  0  0  0
   24.2659  -21.4391  -13.5052 C   0  0  0  0  0  0  0  0  0  0  0  0
   24.6236  -22.3607  -12.7212 O   0  0  0  0  0  0  0  0  0  0  0  0
   22.7527  -20.5305   -7.2878 C   0  0  0  0  0  0  0  0  0  0  0  0
   21.4787  -19.9196   -8.4058 S   0  0  0  0  0  0  0  0  0  0  0  0
   21.2849  -20.9435   -9.8713 C   0  0  0  0  0  0  0  0  0  0  0  0
   22.2510  -20.4803  -10.9371 C   0  0  0  0  0  0  0  0  0  0  0  0
   22.0962  -21.2653  -12.2175 C   0  0  2  0  0  0  0  0  0  0  0  0
   23.0029  -20.8426  -13.2300 N   0  0  0  0  0  0  0  0  0  0  0  0
   20.6670  -21.1759  -12.6660 C   0  0  0  0  0  0  0  0  0  0  0  0
   20.4130  -20.6142  -13.7588 O   0  0  0  0  0  0  0  0  0  0  0  0
   19.6304  -21.6810  -11.9332 O   0  0  0  0  0  0  0  0  0  0  0  0
  2 13  1  0
  2  1  1  1
  3  2  1  0
  4  3  1  0
  4  5  2  0
  6  5  1  0
  7 12  2  0
  7  6  1  0
  8  7  1  0
  9 10  1  0
  9  8  2  0
 10 11  2  0
 11 12  1  0
 12  4  1  0
 13 14  2  0
 16 15  1  1
 17 16  1  0
 18 16  1  0
 19 18  1  1
 20 19  1  0
 20 13  1  0
 21 19  1  0
 21 22  2  0
 23 24  1  0
 25 26  1  0
 25 24  1  0
 27 26  1  1
 27 28  1  0
 27 29  1  0
 28 21  1  0
 29 30  2  0
 29 31  1  0
M  END
$$$$
