WLM.pdb
     RDKit          3D

 31 32  0  0  1  0  0  0  0  0999 V2000
   23.5319  -19.4888  -10.9362 N   0  0  0  0  0  0  0  0  0  0  0  0
   24.8308  -19.8683  -11.4488 C   0  0  1  0  0  0  0  0  0  0  0  0
   25.3662  -21.0390  -10.6541 C   0  0  0  0  0  0  0  0  0  0  0  0
   25.6060  -20.7407   -9.2402 C   0  0  0  0  0  0  0  0  0  0  0  0
   24.6454  -20.8190   -8.2455 C   0  0  0  0  0  0  0  0  0  0  0  0
   25.2192  -20.4794   -7.0838 N   0  0  0  0  0  0  0  0  0  0  0  0
   26.5351  -20.1798   -7.2943 C   0  0  0  0  0  0  0  0  0  0  0  0
   27.5422  -19.7799   -6.4350 C   0  0  0  0  0  0  0  0  0  0  0  0
   28.7924  -19.5502   -6.9682 C   0  0  0  0  0  0  0  0  0  0  0  0
   29.0182  -19.7197   -8.3292 C   0  0  0  0  0  0  0  0  0  0  0  0
   28.0228  -20.1179   -9.1951 C   0  0  0  0  0  0  0  0  0  0  0  0
   26.7666  -20.3469   -8.6498 C   0  0  0  0  0  0  0  0  0  0  0  0
   24.6670  -20.3331  -12.8365 C   0  0  0  0  0  0  0  0  0  0  0  0
   23.5643  -20.6912  -13.2529 O   0  0  0  0  0  0  0  0  0  0  0  0
   28.7331  -20.6011  -15.6891 C   0  0  0  0  0  0  0  0  0  0  0  0
   28.1801  -19.3445  -14.9682 C   0  0  1  0  0  0  0  0  0  0  0  0
   29.1810  -18.2742  -15.2789 C   0  0  0  0  0  0  0  0  0  0  0  0
   26.8189  -19.1572  -15.5060 C   0  0  0  0  0  0  0  0  0  0  0  0
   25.7376  -20.0726  -15.0994 C   0  0  2  0  0  0  0  0  0  0  0  0
   25.7808  -20.3726  -13.7078 N   0  0  0  0  0  0  0  0  0  0  0  0
   25.5736  -21.2604  -15.9647 C   0  0  0  0  0  0  0  0  0  0  0  0
   25.5862  -21.2161  -17.2256 O   0  0  0  0  0  0  0  0  0  0  0  0
   27.3280  -27.7540  -16.6306 C   0  0  0  0  0  0  0  0  0  0  0  0
   28.1790  -26.4306  -15.7527 S   0  0  0  0  0  0  0  0  0  0  0  0
   27.3999  -24.8262  -15.9811 C   0  0  0  0  0  0  0  0  0  0  0  0
   25.9430  -24.9166  -15.5895 C   0  0  0  0  0  0  0  0  0  0  0  0
   25.1446  -23.7481  -16.1156 C   0  0  2  0  0  0  0  0  0  0  0  0
   25.3883  -22.5489  -15.3886 N   0  0  0  0  0  0  0  0  0  0  0  0
   23.6912  -24.1216  -16.1182 C   0  0  0  0  0  0  0  0  0  0  0  0
   22.9067  -23.4927  -15.3676 O   0  0  0  0  0  0  0  0  0  0  0  0
   23.1867  -25.1186  -16.9043 O   0  0  0  0  0  0  0  0  0  0  0  0
  2 13  1  0
  2  1  1  1
  3  2  1  0
  4  3  1  0
  4  5  2  0
  6  5  1  0
  7 12  2  0
  7  6  1  0
  8  7  1  0
  9 10  1  0
  9  8  2  0
 10 11  2  0
 11 12  1  0
 12  4  1  0
 13 14  2  0
 16 15  1  6
 17 16  1  0
 18 16  1  0
 19 18  1  6
 20 19  1  0
 20 13  1  0
 21 19  1  0
 21 22  2  0
 23 24  1  0
 25 26  1  0
 25 24  1  0
 27 26  1  1
 27 28  1  0
 27 29  1  0
 28 21  1  0
 29 30  2  0
 29 31  1  0
M  END
$$$$
