WLM.pdb
     RDKit          3D

 31 32  0  0  1  0  0  0  0  0999 V2000
   23.0699  -20.4963  -15.7297 N   0  0  0  0  0  0  0  0  0  0  0  0
   24.0558  -19.8691  -14.8762 C   0  0  1  0  0  0  0  0  0  0  0  0
   23.3645  -18.9421  -13.9008 C   0  0  0  0  0  0  0  0  0  0  0  0
   22.7780  -17.7522  -14.5218 C   0  0  0  0  0  0  0  0  0  0  0  0
   21.4196  -17.4932  -14.5990 C   0  0  0  0  0  0  0  0  0  0  0  0
   21.2534  -16.3222  -15.2277 N   0  0  0  0  0  0  0  0  0  0  0  0
   22.4726  -15.8071  -15.5648 C   0  0  0  0  0  0  0  0  0  0  0  0
   22.8375  -14.6427  -16.2155 C   0  0  0  0  0  0  0  0  0  0  0  0
   24.1815  -14.4050  -16.4084 C   0  0  0  0  0  0  0  0  0  0  0  0
   25.1286  -15.3170  -15.9570 C   0  0  0  0  0  0  0  0  0  0  0  0
   24.7770  -16.4804  -15.3075 C   0  0  0  0  0  0  0  0  0  0  0  0
   23.4212  -16.7120  -15.1175 C   0  0  0  0  0  0  0  0  0  0  0  0
   24.7146  -20.9160  -14.0770 C   0  0  0  0  0  0  0  0  0  0  0  0
   24.1406  -21.9799  -13.8403 O   0  0  0  0  0  0  0  0  0  0  0  0
   30.3709  -20.4619  -13.4832 C   0  0  0  0  0  0  0  0  0  0  0  0
   28.8441  -20.2180  -13.3651 C   0  0  1  0  0  0  0  0  0  0  0  0
   28.5032  -19.4314  -14.5935 C   0  0  0  0  0  0  0  0  0  0  0  0
   28.2452  -21.5615  -13.2493 C   0  0  0  0  0  0  0  0  0  0  0  0
   26.8130  -21.7008  -12.9301 C   0  0  2  0  0  0  0  0  0  0  0  0
   26.0193  -20.7074  -13.5716 N   0  0  0  0  0  0  0  0  0  0  0  0
   26.5129  -21.8730  -11.4926 C   0  0  0  0  0  0  0  0  0  0  0  0
   26.7192  -22.9430  -10.8567 O   0  0  0  0  0  0  0  0  0  0  0  0
   28.2990  -20.1409   -5.3675 C   0  0  0  0  0  0  0  0  0  0  0  0
   26.9997  -19.0762   -6.0191 S   0  0  0  0  0  0  0  0  0  0  0  0
   25.8315  -19.9580   -7.0638 C   0  0  0  0  0  0  0  0  0  0  0  0
   26.2952  -19.8913   -8.5006 C   0  0  0  0  0  0  0  0  0  0  0  0
   25.5534  -20.8709   -9.3781 C   0  0  2  0  0  0  0  0  0  0  0  0
   25.9587  -20.7987  -10.7406 N   0  0  0  0  0  0  0  0  0  0  0  0
   24.0795  -20.6419   -9.2144 C   0  0  0  0  0  0  0  0  0  0  0  0
   23.4282  -20.1926  -10.1882 O   0  0  0  0  0  0  0  0  0  0  0  0
   23.4170  -20.9024   -8.0482 O   0  0  0  0  0  0  0  0  0  0  0  0
  2 13  1  0
  2  1  1  6
  3  2  1  0
  4  3  1  0
  4  5  2  0
  6  5  1  0
  7 12  2  0
  7  6  1  0
  8  7  1  0
  9 10  1  0
  9  8  2  0
 10 11  2  0
 11 12  1  0
 12  4  1  0
 13 14  2  0
 16 15  1  6
 17 16  1  0
 18 16  1  0
 19 18  1  1
 20 19  1  0
 20 13  1  0
 21 19  1  0
 21 22  2  0
 23 24  1  0
 25 26  1  0
 25 24  1  0
 27 26  1  1
 27 28  1  0
 27 29  1  0
 28 21  1  0
 29 30  2  0
 29 31  1  0
M  END
$$$$
