WLM.pdb
     RDKit          3D

 31 32  0  0  1  0  0  0  0  0999 V2000
   26.8445  -21.0289  -12.6254 N   0  0  0  0  0  0  0  0  0  0  0  0
   26.0919  -20.4990  -11.5088 C   0  0  1  0  0  0  0  0  0  0  0  0
   24.6468  -20.9320  -11.6215 C   0  0  0  0  0  0  0  0  0  0  0  0
   23.9572  -20.4077  -12.8026 C   0  0  0  0  0  0  0  0  0  0  0  0
   24.3330  -20.6624  -14.1111 C   0  0  0  0  0  0  0  0  0  0  0  0
   23.4785  -20.0250  -14.9221 N   0  0  0  0  0  0  0  0  0  0  0  0
   22.5502  -19.3578  -14.1747 C   0  0  0  0  0  0  0  0  0  0  0  0
   21.4739  -18.5647  -14.5282 C   0  0  0  0  0  0  0  0  0  0  0  0
   20.7117  -18.0222  -13.5159 C   0  0  0  0  0  0  0  0  0  0  0  0
   21.0278  -18.2738  -12.1858 C   0  0  0  0  0  0  0  0  0  0  0  0
   22.0976  -19.0623  -11.8214 C   0  0  0  0  0  0  0  0  0  0  0  0
   22.8600  -19.6046  -12.8473 C   0  0  0  0  0  0  0  0  0  0  0  0
   26.6197  -21.0908  -10.2678 C   0  0  0  0  0  0  0  0  0  0  0  0
   26.7717  -22.3092  -10.1681 O   0  0  0  0  0  0  0  0  0  0  0  0
   27.4240  -19.3231   -4.8152 C   0  0  0  0  0  0  0  0  0  0  0  0
   27.7410  -18.8120   -6.2445 C   0  0  1  0  0  0  0  0  0  0  0  0
   28.8714  -17.8493   -6.0465 C   0  0  0  0  0  0  0  0  0  0  0  0
   28.0316  -20.0245   -7.0335 C   0  0  0  0  0  0  0  0  0  0  0  0
   26.9571  -20.6693   -7.8096 C   0  0  2  0  0  0  0  0  0  0  0  0
   26.9584  -20.2603   -9.1738 N   0  0  0  0  0  0  0  0  0  0  0  0
   25.6235  -20.6294   -7.1722 C   0  0  0  0  0  0  0  0  0  0  0  0
   25.2628  -19.7370   -6.3564 O   0  0  0  0  0  0  0  0  0  0  0  0
   20.4368  -19.3776   -9.9375 C   0  0  0  0  0  0  0  0  0  0  0  0
   19.8145  -20.7551   -8.9570 S   0  0  0  0  0  0  0  0  0  0  0  0
   20.9108  -21.2015   -7.6033 C   0  0  0  0  0  0  0  0  0  0  0  0
   22.3371  -21.2287   -8.1023 C   0  0  0  0  0  0  0  0  0  0  0  0
   23.3063  -21.6305   -7.0164 C   0  0  2  0  0  0  0  0  0  0  0  0
   24.6573  -21.6333   -7.4643 N   0  0  0  0  0  0  0  0  0  0  0  0
   22.8895  -22.9644   -6.4699 C   0  0  0  0  0  0  0  0  0  0  0  0
   21.7303  -23.0896   -6.0065 O   0  0  0  0  0  0  0  0  0  0  0  0
   23.7206  -24.0487   -6.4562 O   0  0  0  0  0  0  0  0  0  0  0  0
  2 13  1  0
  2  1  1  6
  3  2  1  0
  4  3  1  0
  4  5  2  0
  6  5  1  0
  7 12  2  0
  7  6  1  0
  8  7  1  0
  9 10  1  0
  9  8  2  0
 10 11  2  0
 11 12  1  0
 12  4  1  0
 13 14  2  0
 16 15  1  1
 17 16  1  0
 18 16  1  0
 19 18  1  1
 20 19  1  0
 20 13  1  0
 21 19  1  0
 21 22  2  0
 23 24  1  0
 25 26  1  0
 25 24  1  0
 27 26  1  6
 27 28  1  0
 27 29  1  0
 28 21  1  0
 29 30  2  0
 29 31  1  0
M  END
$$$$
