WLM.pdb
     RDKit          3D

 31 32  0  0  1  0  0  0  0  0999 V2000
   21.9602  -20.7965  -16.3396 N   0  0  0  0  0  0  0  0  0  0  0  0
   22.6142  -19.6228  -15.8023 C   0  0  1  0  0  0  0  0  0  0  0  0
   21.7275  -18.9835  -14.7565 C   0  0  0  0  0  0  0  0  0  0  0  0
   20.5332  -18.3348  -15.3025 C   0  0  0  0  0  0  0  0  0  0  0  0
   19.2372  -18.7857  -15.1147 C   0  0  0  0  0  0  0  0  0  0  0  0
   18.4080  -17.9493  -15.7527 N   0  0  0  0  0  0  0  0  0  0  0  0
   19.1312  -16.9595  -16.3550 C   0  0  0  0  0  0  0  0  0  0  0  0
   18.7530  -15.8727  -17.1220 C   0  0  0  0  0  0  0  0  0  0  0  0
   19.7445  -15.0402  -17.5952 C   0  0  0  0  0  0  0  0  0  0  0  0
   21.0785  -15.2981  -17.3018 C   0  0  0  0  0  0  0  0  0  0  0  0
   21.4674  -16.3777  -16.5387 C   0  0  0  0  0  0  0  0  0  0  0  0
   20.4624  -17.2112  -16.0663 C   0  0  0  0  0  0  0  0  0  0  0  0
   23.8459  -20.0482  -15.1162 C   0  0  0  0  0  0  0  0  0  0  0  0
   23.8882  -21.1184  -14.5076 O   0  0  0  0  0  0  0  0  0  0  0  0
   28.8072  -18.1383  -16.8752 C   0  0  0  0  0  0  0  0  0  0  0  0
   27.6679  -19.1223  -16.5034 C   0  0  1  0  0  0  0  0  0  0  0  0
   28.2283  -20.4720  -16.8324 C   0  0  0  0  0  0  0  0  0  0  0  0
   27.3729  -18.8540  -15.0828 C   0  0  0  0  0  0  0  0  0  0  0  0
   26.2057  -19.4882  -14.4439 C   0  0  2  0  0  0  0  0  0  0  0  0
   24.9970  -19.2266  -15.1502 N   0  0  0  0  0  0  0  0  0  0  0  0
   26.1064  -19.2740  -12.9842 C   0  0  0  0  0  0  0  0  0  0  0  0
   25.4290  -18.3499  -12.4558 O   0  0  0  0  0  0  0  0  0  0  0  0
   22.3158  -21.5967   -7.3176 C   0  0  0  0  0  0  0  0  0  0  0  0
   22.9489  -21.6024   -9.0044 S   0  0  0  0  0  0  0  0  0  0  0  0
   24.6550  -21.0448   -9.1127 C   0  0  0  0  0  0  0  0  0  0  0  0
   25.0329  -20.8683  -10.5653 C   0  0  0  0  0  0  0  0  0  0  0  0
   26.4435  -20.3531  -10.7220 C   0  0  2  0  0  0  0  0  0  0  0  0
   26.7964  -20.1336  -12.0833 N   0  0  0  0  0  0  0  0  0  0  0  0
   27.3815  -21.3067  -10.0420 C   0  0  0  0  0  0  0  0  0  0  0  0
   27.7571  -21.0506   -8.8725 O   0  0  0  0  0  0  0  0  0  0  0  0
   27.8438  -22.4428  -10.6439 O   0  0  0  0  0  0  0  0  0  0  0  0
  2 13  1  0
  2  1  1  1
  3  2  1  0
  4  3  1  0
  4  5  2  0
  6  5  1  0
  7 12  2  0
  7  6  1  0
  8  7  1  0
  9 10  1  0
  9  8  2  0
 10 11  2  0
 11 12  1  0
 12  4  1  0
 13 14  2  0
 16 15  1  1
 17 16  1  0
 18 16  1  0
 19 18  1  6
 20 19  1  0
 20 13  1  0
 21 19  1  0
 21 22  2  0
 23 24  1  0
 25 26  1  0
 25 24  1  0
 27 26  1  6
 27 28  1  0
 27 29  1  0
 28 21  1  0
 29 30  2  0
 29 31  1  0
M  END
$$$$
