WLM.pdb
     RDKit          3D

 31 32  0  0  1  0  0  0  0  0999 V2000
   24.0361  -19.8211  -16.5110 N   0  0  0  0  0  0  0  0  0  0  0  0
   24.5811  -18.9496  -15.4926 C   0  0  1  0  0  0  0  0  0  0  0  0
   23.4905  -18.0434  -14.9653 C   0  0  0  0  0  0  0  0  0  0  0  0
   23.1994  -16.8958  -15.8277 C   0  0  0  0  0  0  0  0  0  0  0  0
   21.9822  -16.6656  -16.4473 C   0  0  0  0  0  0  0  0  0  0  0  0
   22.0802  -15.5296  -17.1501 N   0  0  0  0  0  0  0  0  0  0  0  0
   23.3347  -15.0092  -17.0054 C   0  0  0  0  0  0  0  0  0  0  0  0
   23.9294  -13.8711  -17.5187 C   0  0  0  0  0  0  0  0  0  0  0  0
   25.2410  -13.6185  -17.1782 C   0  0  0  0  0  0  0  0  0  0  0  0
   25.9310  -14.4901  -16.3437 C   0  0  0  0  0  0  0  0  0  0  0  0
   25.3491  -15.6271  -15.8263 C   0  0  0  0  0  0  0  0  0  0  0  0
   24.0278  -15.8739  -16.1744 C   0  0  0  0  0  0  0  0  0  0  0  0
   25.0319  -19.7784  -14.3618 C   0  0  0  0  0  0  0  0  0  0  0  0
   24.3653  -20.7436  -13.9857 O   0  0  0  0  0  0  0  0  0  0  0  0
   30.4492  -20.6417  -13.2957 C   0  0  0  0  0  0  0  0  0  0  0  0
   28.9495  -20.8578  -13.6256 C   0  0  1  0  0  0  0  0  0  0  0  0
   28.8102  -22.3451  -13.7379 C   0  0  0  0  0  0  0  0  0  0  0  0
   28.2133  -20.2028  -12.5274 C   0  0  0  0  0  0  0  0  0  0  0  0
   26.7401  -20.1626  -12.5538 C   0  0  2  0  0  0  0  0  0  0  0  0
   26.2407  -19.4711  -13.6944 N   0  0  0  0  0  0  0  0  0  0  0  0
   26.1088  -19.7547  -11.2805 C   0  0  0  0  0  0  0  0  0  0  0  0
   25.9647  -18.5534  -10.9228 O   0  0  0  0  0  0  0  0  0  0  0  0
   21.7220  -22.1451   -5.1048 C   0  0  0  0  0  0  0  0  0  0  0  0
   22.6044  -22.5483   -6.6229 S   0  0  0  0  0  0  0  0  0  0  0  0
   23.7141  -21.2376   -7.1558 C   0  0  0  0  0  0  0  0  0  0  0  0
   24.2456  -21.5604   -8.5332 C   0  0  0  0  0  0  0  0  0  0  0  0
   25.1681  -20.4818   -9.0484 C   0  0  2  0  0  0  0  0  0  0  0  0
   25.6202  -20.7373  -10.3736 N   0  0  0  0  0  0  0  0  0  0  0  0
   26.3066  -20.3225   -8.0840 C   0  0  0  0  0  0  0  0  0  0  0  0
   26.3186  -19.3222   -7.3267 O   0  0  0  0  0  0  0  0  0  0  0  0
   27.3312  -21.2221   -7.9964 O   0  0  0  0  0  0  0  0  0  0  0  0
  2 13  1  0
  2  1  1  6
  3  2  1  0
  4  3  1  0
  4  5  2  0
  6  5  1  0
  7 12  2  0
  7  6  1  0
  8  7  1  0
  9 10  1  0
  9  8  2  0
 10 11  2  0
 11 12  1  0
 12  4  1  0
 13 14  2  0
 16 15  1  1
 17 16  1  0
 18 16  1  0
 19 18  1  1
 20 19  1  0
 20 13  1  0
 21 19  1  0
 21 22  2  0
 23 24  1  0
 25 26  1  0
 25 24  1  0
 27 26  1  1
 27 28  1  0
 27 29  1  0
 28 21  1  0
 29 30  2  0
 29 31  1  0
M  END
$$$$
