WLM.pdb
     RDKit          3D

 31 32  0  0  1  0  0  0  0  0999 V2000
   26.2837  -21.9463  -12.6151 N   0  0  0  0  0  0  0  0  0  0  0  0
   26.5817  -20.7448  -11.8658 C   0  0  1  0  0  0  0  0  0  0  0  0
   25.5534  -19.6817  -12.1839 C   0  0  0  0  0  0  0  0  0  0  0  0
   25.5772  -19.2261  -13.5758 C   0  0  0  0  0  0  0  0  0  0  0  0
   24.4524  -18.9134  -14.3210 C   0  0  0  0  0  0  0  0  0  0  0  0
   24.8527  -18.5350  -15.5419 N   0  0  0  0  0  0  0  0  0  0  0  0
   26.2155  -18.5926  -15.6144 C   0  0  0  0  0  0  0  0  0  0  0  0
   27.1006  -18.3087  -16.6384 C   0  0  0  0  0  0  0  0  0  0  0  0
   28.4469  -18.4712  -16.3915 C   0  0  0  0  0  0  0  0  0  0  0  0
   28.8857  -18.9075  -15.1468 C   0  0  0  0  0  0  0  0  0  0  0  0
   28.0134  -19.1935  -14.1190 C   0  0  0  0  0  0  0  0  0  0  0  0
   26.6591  -19.0272  -14.3763 C   0  0  0  0  0  0  0  0  0  0  0  0
   26.4539  -21.0467  -10.4301 C   0  0  0  0  0  0  0  0  0  0  0  0
   26.0172  -22.1353  -10.0536 O   0  0  0  0  0  0  0  0  0  0  0  0
   29.2140  -20.5886   -5.7213 C   0  0  0  0  0  0  0  0  0  0  0  0
   28.0675  -19.5656   -5.9298 C   0  0  1  0  0  0  0  0  0  0  0  0
   28.5476  -18.3305   -5.2313 C   0  0  0  0  0  0  0  0  0  0  0  0
   27.8904  -19.4754   -7.3919 C   0  0  0  0  0  0  0  0  0  0  0  0
   26.8769  -20.3110   -8.0606 C   0  0  2  0  0  0  0  0  0  0  0  0
   26.8337  -20.0837   -9.4659 N   0  0  0  0  0  0  0  0  0  0  0  0
   25.5484  -20.3115   -7.4114 C   0  0  0  0  0  0  0  0  0  0  0  0
   25.3126  -19.7688   -6.2970 O   0  0  0  0  0  0  0  0  0  0  0  0
   21.0123  -21.2277  -11.7569 C   0  0  0  0  0  0  0  0  0  0  0  0
   20.8697  -19.7278  -10.7688 S   0  0  0  0  0  0  0  0  0  0  0  0
   22.0896  -19.6404   -9.4506 C   0  0  0  0  0  0  0  0  0  0  0  0
   22.0858  -20.9392   -8.6778 C   0  0  0  0  0  0  0  0  0  0  0  0
   23.1015  -20.9330   -7.5606 C   0  0  2  0  0  0  0  0  0  0  0  0
   24.4413  -20.9476   -8.0409 N   0  0  0  0  0  0  0  0  0  0  0  0
   22.8167  -22.0881   -6.6461 C   0  0  0  0  0  0  0  0  0  0  0  0
   23.6655  -23.0076   -6.5553 O   0  0  0  0  0  0  0  0  0  0  0  0
   21.6707  -22.1799   -5.9078 O   0  0  0  0  0  0  0  0  0  0  0  0
  2 13  1  0
  2  1  1  6
  3  2  1  0
  4  3  1  0
  4  5  2  0
  6  5  1  0
  7 12  2  0
  7  6  1  0
  8  7  1  0
  9 10  1  0
  9  8  2  0
 10 11  2  0
 11 12  1  0
 12  4  1  0
 13 14  2  0
 16 15  1  6
 17 16  1  0
 18 16  1  0
 19 18  1  1
 20 19  1  0
 20 13  1  0
 21 19  1  0
 21 22  2  0
 23 24  1  0
 25 26  1  0
 25 24  1  0
 27 26  1  6
 27 28  1  0
 27 29  1  0
 28 21  1  0
 29 30  2  0
 29 31  1  0
M  END
$$$$
