WLM.pdb
     RDKit          3D

 31 32  0  0  1  0  0  0  0  0999 V2000
   16.4566  -18.4226    2.2376 N   0  0  0  0  0  0  0  0  0  0  0  0
   17.2599  -19.1064    3.2281 C   0  0  1  0  0  0  0  0  0  0  0  0
   18.1675  -20.1040    2.5429 C   0  0  0  0  0  0  0  0  0  0  0  0
   17.4566  -21.1218    1.7656 C   0  0  0  0  0  0  0  0  0  0  0  0
   17.4806  -21.2161    0.3840 C   0  0  0  0  0  0  0  0  0  0  0  0
   16.7231  -22.2604    0.0240 N   0  0  0  0  0  0  0  0  0  0  0  0
   16.2025  -22.8535    1.1388 C   0  0  0  0  0  0  0  0  0  0  0  0
   15.3717  -23.9468    1.3031 C   0  0  0  0  0  0  0  0  0  0  0  0
   15.0175  -24.3011    2.5872 C   0  0  0  0  0  0  0  0  0  0  0  0
   15.4890  -23.5724    3.6730 C   0  0  0  0  0  0  0  0  0  0  0  0
   16.3172  -22.4814    3.5217 C   0  0  0  0  0  0  0  0  0  0  0  0
   16.6688  -22.1313    2.2249 C   0  0  0  0  0  0  0  0  0  0  0  0
   18.1309  -18.1177    3.8857 C   0  0  0  0  0  0  0  0  0  0  0  0
   19.3530  -18.1593    3.7361 O   0  0  0  0  0  0  0  0  0  0  0  0
   16.9472  -12.8399    3.9874 C   0  0  0  0  0  0  0  0  0  0  0  0
   17.6520  -14.2110    3.8205 C   0  0  1  0  0  0  0  0  0  0  0  0
   18.9346  -13.8803    3.1207 C   0  0  0  0  0  0  0  0  0  0  0  0
   17.7626  -14.7583    5.1863 C   0  0  0  0  0  0  0  0  0  0  0  0
   18.3136  -16.1098    5.3922 C   0  0  2  0  0  0  0  0  0  0  0  0
   17.5685  -17.1064    4.6994 N   0  0  0  0  0  0  0  0  0  0  0  0
   18.6073  -16.4507    6.8007 C   0  0  0  0  0  0  0  0  0  0  0  0
   17.7643  -16.9603    7.5891 O   0  0  0  0  0  0  0  0  0  0  0  0
   24.3147  -18.7075   11.7346 C   0  0  0  0  0  0  0  0  0  0  0  0
   23.7944  -18.0786   10.1284 S   0  0  0  0  0  0  0  0  0  0  0  0
   22.1171  -17.4305   10.1413 C   0  0  0  0  0  0  0  0  0  0  0  0
   21.7369  -16.9974    8.7442 C   0  0  0  0  0  0  0  0  0  0  0  0
   20.3068  -16.5184    8.6724 C   0  0  2  0  0  0  0  0  0  0  0  0
   19.9009  -16.2088    7.3437 N   0  0  0  0  0  0  0  0  0  0  0  0
   20.1445  -15.3496    9.5994 C   0  0  0  0  0  0  0  0  0  0  0  0
   20.2319  -14.1904    9.1276 O   0  0  0  0  0  0  0  0  0  0  0  0
   19.9054  -15.4958   10.9366 O   0  0  0  0  0  0  0  0  0  0  0  0
  2 13  1  0
  2  1  1  6
  3  2  1  0
  4  3  1  0
  4  5  2  0
  6  5  1  0
  7 12  2  0
  7  6  1  0
  8  7  1  0
  9 10  1  0
  9  8  2  0
 10 11  2  0
 11 12  1  0
 12  4  1  0
 13 14  2  0
 16 15  1  1
 17 16  1  0
 18 16  1  0
 19 18  1  1
 20 19  1  0
 20 13  1  0
 21 19  1  0
 21 22  2  0
 23 24  1  0
 25 26  1  0
 25 24  1  0
 27 26  1  6
 27 28  1  0
 27 29  1  0
 28 21  1  0
 29 30  2  0
 29 31  1  0
M  END
$$$$
