SPI.pdb
     RDKit          3D

 22 22  0  0  1  0  0  0  0  0999 V2000
   10.1794  -14.5879   18.3778 O   0  0  0  0  0  0  0  0  0  0  0  0
    9.5391  -13.9332   19.3836 C   0  0  0  0  0  0  0  0  0  0  0  0
    8.0301  -14.1894   19.2705 C   0  0  2  0  0  0  0  0  0  0  0  0
    7.4357  -12.8919   18.8559 N   0  0  0  0  0  0  0  0  0  0  0  0
    7.4904  -14.5247   20.6023 C   0  0  0  0  0  0  0  0  0  0  0  0
    7.2932  -13.5502   21.3879 O   0  0  0  0  0  0  0  0  0  0  0  0
    7.1735  -15.8225   21.0729 N   0  0  0  0  0  0  0  0  0  0  0  0
    7.2465  -17.0201   20.2712 C   0  0  0  0  0  0  0  0  0  0  0  0
    6.1802  -17.9302   20.9070 C   0  0  0  0  0  0  0  0  0  0  0  0
    6.4806  -17.6397   22.3647 C   0  0  0  0  0  0  0  0  0  0  0  0
    6.7207  -16.1679   22.3652 C   0  0  1  0  0  0  0  0  0  0  0  0
    7.6144  -15.7218   23.4622 C   0  0  0  0  0  0  0  0  0  0  0  0
    8.8427  -15.7230   23.2199 O   0  0  0  0  0  0  0  0  0  0  0  0
    5.9848  -11.7178   26.5900 C   0  0  0  0  0  0  0  0  0  0  0  0
    6.7943  -12.6928   25.8145 C   0  0  0  0  0  0  0  0  0  0  0  0
    7.4710  -13.7752   26.5896 C   0  0  2  0  0  0  0  0  0  0  0  0
    8.3096  -13.2595   27.7412 C   0  0  0  0  0  0  0  0  0  0  0  0
    8.0167  -14.9200   25.8493 C   0  0  2  0  0  0  0  0  0  0  0  0
    7.1539  -15.3106   24.7235 N   0  0  0  0  0  0  0  0  0  0  0  0
    8.4969  -16.0874   26.5772 C   0  0  0  0  0  0  0  0  0  0  0  0
    7.8351  -17.1390   26.7896 O   0  0  0  0  0  0  0  0  0  0  0  0
    9.7982  -16.1526   27.1383 O   0  0  0  0  0  0  0  0  0  0  0  0
  1  2  1  0
  2  3  1  0
  3  4  1  1
  3  5  1  0
  5  7  1  0
  5  6  2  0
  7  8  1  0
  9  8  1  0
 10 11  1  0
 10  9  1  0
 11  7  1  0
 11 12  1  1
 12 19  1  0
 13 12  2  0
 15 14  1  0
 16 17  1  6
 16 15  1  0
 18 20  1  0
 18 16  1  0
 18 19  1  6
 20 22  1  0
 21 20  2  0
M  END
$$$$
