SPI.pdb
     RDKit          3D

 22 22  0  0  1  0  0  0  0  0999 V2000
   11.3031  -18.6734   21.3839 O   0  0  0  0  0  0  0  0  0  0  0  0
   10.5334  -18.5657   20.2675 C   0  0  0  0  0  0  0  0  0  0  0  0
   10.4575  -17.0912   19.8487 C   0  0  2  0  0  0  0  0  0  0  0  0
   11.8629  -16.6734   19.6054 N   0  0  0  0  0  0  0  0  0  0  0  0
    9.9399  -16.2896   20.9744 C   0  0  0  0  0  0  0  0  0  0  0  0
   10.8058  -15.6921   21.6807 O   0  0  0  0  0  0  0  0  0  0  0  0
    8.5781  -16.1279   21.3282 N   0  0  0  0  0  0  0  0  0  0  0  0
    7.4712  -16.6678   20.5762 C   0  0  0  0  0  0  0  0  0  0  0  0
    6.3314  -15.6773   20.8747 C   0  0  0  0  0  0  0  0  0  0  0  0
    6.5823  -15.4904   22.3585 C   0  0  0  0  0  0  0  0  0  0  0  0
    8.0695  -15.4122   22.4345 C   0  0  1  0  0  0  0  0  0  0  0  0
    8.6117  -15.8506   23.7439 C   0  0  0  0  0  0  0  0  0  0  0  0
    9.1332  -16.9882   23.7821 O   0  0  0  0  0  0  0  0  0  0  0  0
   10.4017  -13.3143   29.1824 C   0  0  0  0  0  0  0  0  0  0  0  0
   10.0066  -14.5173   28.4052 C   0  0  0  0  0  0  0  0  0  0  0  0
    9.4173  -14.2832   27.0531 C   0  0  2  0  0  0  0  0  0  0  0  0
    8.3826  -13.1769   27.0285 C   0  0  0  0  0  0  0  0  0  0  0  0
    9.1415  -15.4507   26.2061 C   0  0  2  0  0  0  0  0  0  0  0  0
    8.5659  -15.0664   24.9079 N   0  0  0  0  0  0  0  0  0  0  0  0
    8.4521  -16.6042   26.7695 C   0  0  0  0  0  0  0  0  0  0  0  0
    8.9384  -17.4062   27.6117 O   0  0  0  0  0  0  0  0  0  0  0  0
    7.1240  -16.9485   26.4087 O   0  0  0  0  0  0  0  0  0  0  0  0
  1  2  1  0
  2  3  1  0
  3  4  1  1
  3  5  1  0
  5  7  1  0
  5  6  2  0
  7  8  1  0
  9  8  1  0
 10 11  1  0
 10  9  1  0
 11  7  1  0
 11 12  1  1
 12 19  1  0
 13 12  2  0
 15 14  1  0
 16 17  1  1
 16 15  1  0
 18 20  1  0
 18 16  1  0
 18 19  1  6
 20 22  1  0
 21 20  2  0
M  END
$$$$
