SPI.pdb
     RDKit          3D

 22 22  0  0  1  0  0  0  0  0999 V2000
   11.8574  -18.7520   19.5448 O   0  0  0  0  0  0  0  0  0  0  0  0
   11.0950  -18.0840   20.4519 C   0  0  0  0  0  0  0  0  0  0  0  0
    9.9822  -17.3273   19.7141 C   0  0  2  0  0  0  0  0  0  0  0  0
   10.6643  -16.2253   18.9866 N   0  0  0  0  0  0  0  0  0  0  0  0
    9.0701  -16.7164   20.7003 C   0  0  0  0  0  0  0  0  0  0  0  0
    9.3485  -15.5347   21.0632 O   0  0  0  0  0  0  0  0  0  0  0  0
    7.9234  -17.3248   21.2668 N   0  0  0  0  0  0  0  0  0  0  0  0
    7.4183  -18.6223   20.8878 C   0  0  0  0  0  0  0  0  0  0  0  0
    5.9097  -18.5046   21.1698 C   0  0  0  0  0  0  0  0  0  0  0  0
    5.9878  -17.7699   22.4941 C   0  0  0  0  0  0  0  0  0  0  0  0
    7.0783  -16.7804   22.2587 C   0  0  1  0  0  0  0  0  0  0  0  0
    7.7805  -16.3777   23.5020 C   0  0  0  0  0  0  0  0  0  0  0  0
    8.9106  -16.8807   23.6953 O   0  0  0  0  0  0  0  0  0  0  0  0
    5.9828  -11.7306   25.7913 C   0  0  0  0  0  0  0  0  0  0  0  0
    6.9153  -12.7647   25.2732 C   0  0  0  0  0  0  0  0  0  0  0  0
    7.3421  -13.8285   26.2305 C   0  0  2  0  0  0  0  0  0  0  0  0
    7.9907  -13.2852   27.4872 C   0  0  0  0  0  0  0  0  0  0  0  0
    7.9188  -15.0628   25.6825 C   0  0  2  0  0  0  0  0  0  0  0  0
    7.2466  -15.4826   24.4431 N   0  0  0  0  0  0  0  0  0  0  0  0
    8.1624  -16.1983   26.5626 C   0  0  0  0  0  0  0  0  0  0  0  0
    9.2205  -16.4016   27.2168 O   0  0  0  0  0  0  0  0  0  0  0  0
    7.2004  -17.2198   26.7715 O   0  0  0  0  0  0  0  0  0  0  0  0
  1  2  1  0
  2  3  1  0
  3  4  1  1
  3  5  1  0
  5  7  1  0
  5  6  2  0
  7  8  1  0
  9  8  1  0
 10 11  1  0
 10  9  1  0
 11  7  1  0
 11 12  1  1
 12 19  1  0
 13 12  2  0
 15 14  1  0
 16 17  1  1
 16 15  1  0
 18 20  1  0
 18 16  1  0
 18 19  1  6
 20 22  1  0
 21 20  2  0
M  END
$$$$
