SPI.pdb
     RDKit          3D

 22 22  0  0  1  0  0  0  0  0999 V2000
    9.7779  -18.2025   21.2009 O   0  0  0  0  0  0  0  0  0  0  0  0
    9.4798  -18.0881   19.8787 C   0  0  0  0  0  0  0  0  0  0  0  0
   10.0440  -16.7631   19.3482 C   0  0  2  0  0  0  0  0  0  0  0  0
   11.5177  -16.9491   19.2985 N   0  0  0  0  0  0  0  0  0  0  0  0
    9.7602  -15.6881   20.3185 C   0  0  0  0  0  0  0  0  0  0  0  0
   10.6558  -15.4677   21.1874 O   0  0  0  0  0  0  0  0  0  0  0  0
    8.5921  -14.8883   20.3614 N   0  0  0  0  0  0  0  0  0  0  0  0
    7.5377  -14.9328   19.3773 C   0  0  0  0  0  0  0  0  0  0  0  0
    6.9590  -13.5071   19.4224 C   0  0  0  0  0  0  0  0  0  0  0  0
    6.9646  -13.3125   20.9263 C   0  0  0  0  0  0  0  0  0  0  0  0
    8.2665  -13.9157   21.3323 C   0  0  1  0  0  0  0  0  0  0  0  0
    8.2659  -14.4240   22.7260 C   0  0  0  0  0  0  0  0  0  0  0  0
    9.1347  -15.2792   23.0111 O   0  0  0  0  0  0  0  0  0  0  0  0
    6.0522  -10.9583   26.3492 C   0  0  0  0  0  0  0  0  0  0  0  0
    7.0596  -11.9324   25.8557 C   0  0  0  0  0  0  0  0  0  0  0  0
    6.7141  -13.3802   25.9775 C   0  0  2  0  0  0  0  0  0  0  0  0
    6.4280  -13.8151   27.4002 C   0  0  0  0  0  0  0  0  0  0  0  0
    7.4435  -14.3395   25.1384 C   0  0  2  0  0  0  0  0  0  0  0  0
    7.3586  -13.9986   23.7098 N   0  0  0  0  0  0  0  0  0  0  0  0
    7.2622  -15.7694   25.3525 C   0  0  0  0  0  0  0  0  0  0  0  0
    7.8785  -16.4644   26.2046 O   0  0  0  0  0  0  0  0  0  0  0  0
    6.3459  -16.5426   24.5941 O   0  0  0  0  0  0  0  0  0  0  0  0
  1  2  1  0
  2  3  1  0
  3  4  1  1
  3  5  1  0
  5  7  1  0
  5  6  2  0
  7  8  1  0
  9  8  1  0
 10 11  1  0
 10  9  1  0
 11  7  1  0
 11 12  1  1
 12 19  1  0
 13 12  2  0
 15 14  1  0
 16 17  1  1
 16 15  1  0
 18 20  1  0
 18 16  1  0
 18 19  1  6
 20 22  1  0
 21 20  2  0
M  END
$$$$
