SPI.pdb
     RDKit          3D

 22 22  0  0  1  0  0  0  0  0999 V2000
    6.4922  -18.1128   20.7876 O   0  0  0  0  0  0  0  0  0  0  0  0
    7.7127  -18.5589   20.3857 C   0  0  0  0  0  0  0  0  0  0  0  0
    8.4948  -17.3938   19.7640 C   0  0  2  0  0  0  0  0  0  0  0  0
    9.8089  -17.9632   19.3667 N   0  0  0  0  0  0  0  0  0  0  0  0
    8.7440  -16.3676   20.7947 C   0  0  0  0  0  0  0  0  0  0  0  0
    9.4281  -16.7347   21.7961 O   0  0  0  0  0  0  0  0  0  0  0  0
    8.2951  -15.0246   20.7622 N   0  0  0  0  0  0  0  0  0  0  0  0
    7.6909  -14.3952   19.6129 C   0  0  0  0  0  0  0  0  0  0  0  0
    8.0636  -12.9125   19.7920 C   0  0  0  0  0  0  0  0  0  0  0  0
    7.8167  -12.7998   21.2839 C   0  0  0  0  0  0  0  0  0  0  0  0
    8.3749  -14.0792   21.8084 C   0  0  1  0  0  0  0  0  0  0  0  0
    7.7395  -14.5185   23.0750 C   0  0  0  0  0  0  0  0  0  0  0  0
    6.5119  -14.3018   23.1907 O   0  0  0  0  0  0  0  0  0  0  0  0
    5.7282  -12.2996   25.8082 C   0  0  0  0  0  0  0  0  0  0  0  0
    6.9094  -12.9096   25.1450 C   0  0  0  0  0  0  0  0  0  0  0  0
    7.8138  -13.7329   26.0021 C   0  0  2  0  0  0  0  0  0  0  0  0
    8.1576  -13.0755   27.3230 C   0  0  0  0  0  0  0  0  0  0  0  0
    8.8935  -14.4837   25.3487 C   0  0  2  0  0  0  0  0  0  0  0  0
    8.4367  -15.1486   24.1185 N   0  0  0  0  0  0  0  0  0  0  0  0
    9.7426  -15.3636   26.1412 C   0  0  0  0  0  0  0  0  0  0  0  0
   10.2966  -15.0570   27.2312 O   0  0  0  0  0  0  0  0  0  0  0  0
   10.0398  -16.6934   25.7464 O   0  0  0  0  0  0  0  0  0  0  0  0
  1  2  1  0
  2  3  1  0
  3  4  1  1
  3  5  1  0
  5  7  1  0
  5  6  2  0
  7  8  1  0
  9  8  1  0
 10 11  1  0
 10  9  1  0
 11  7  1  0
 11 12  1  1
 12 19  1  0
 13 12  2  0
 15 14  1  0
 16 17  1  1
 16 15  1  0
 18 20  1  0
 18 16  1  0
 18 19  1  6
 20 22  1  0
 21 20  2  0
M  END
$$$$
