SPI.pdb
     RDKit          3D

 22 22  0  0  1  0  0  0  0  0999 V2000
    9.9175  -19.0667   21.5413 O   0  0  0  0  0  0  0  0  0  0  0  0
   11.0351  -18.4892   21.0237 C   0  0  0  0  0  0  0  0  0  0  0  0
   10.6231  -17.3410   20.0925 C   0  0  2  0  0  0  0  0  0  0  0  0
   11.8954  -16.7380   19.6166 N   0  0  0  0  0  0  0  0  0  0  0  0
    9.9041  -16.3143   20.8714 C   0  0  0  0  0  0  0  0  0  0  0  0
   10.6128  -15.5929   21.6350 O   0  0  0  0  0  0  0  0  0  0  0  0
    8.5104  -16.0644   20.8384 N   0  0  0  0  0  0  0  0  0  0  0  0
    7.5746  -16.7766   20.0020 C   0  0  0  0  0  0  0  0  0  0  0  0
    6.4615  -15.7402   19.7644 C   0  0  0  0  0  0  0  0  0  0  0  0
    6.3753  -15.1802   21.1710 C   0  0  0  0  0  0  0  0  0  0  0  0
    7.8070  -15.0883   21.5780 C   0  0  1  0  0  0  0  0  0  0  0  0
    8.0044  -15.1781   23.0456 C   0  0  0  0  0  0  0  0  0  0  0  0
    8.6824  -16.1448   23.4618 O   0  0  0  0  0  0  0  0  0  0  0  0
    7.2460  -11.5968   28.1423 C   0  0  0  0  0  0  0  0  0  0  0  0
    7.4748  -12.9385   27.5467 C   0  0  0  0  0  0  0  0  0  0  0  0
    7.2246  -13.0774   26.0810 C   0  0  2  0  0  0  0  0  0  0  0  0
    5.8937  -12.5044   25.6386 C   0  0  0  0  0  0  0  0  0  0  0  0
    7.6508  -14.3174   25.4199 C   0  0  2  0  0  0  0  0  0  0  0  0
    7.4782  -14.2516   23.9604 N   0  0  0  0  0  0  0  0  0  0  0  0
    7.2127  -15.6035   25.9466 C   0  0  0  0  0  0  0  0  0  0  0  0
    7.7314  -16.2076   26.9238 O   0  0  0  0  0  0  0  0  0  0  0  0
    6.1257  -16.3244   25.3887 O   0  0  0  0  0  0  0  0  0  0  0  0
  1  2  1  0
  2  3  1  0
  3  4  1  1
  3  5  1  0
  5  7  1  0
  5  6  2  0
  7  8  1  0
  9  8  1  0
 10 11  1  0
 10  9  1  0
 11  7  1  0
 11 12  1  1
 12 19  1  0
 13 12  2  0
 15 14  1  0
 16 17  1  1
 16 15  1  0
 18 20  1  0
 18 16  1  0
 18 19  1  6
 20 22  1  0
 21 20  2  0
M  END
$$$$
