SPI.pdb
     RDKit          3D

 22 22  0  0  1  0  0  0  0  0999 V2000
   10.6318  -14.6523   19.5756 O   0  0  0  0  0  0  0  0  0  0  0  0
    9.9378  -13.5445   19.1995 C   0  0  0  0  0  0  0  0  0  0  0  0
    8.4565  -13.9104   19.0346 C   0  0  2  0  0  0  0  0  0  0  0  0
    7.7907  -12.6706   18.5566 N   0  0  0  0  0  0  0  0  0  0  0  0
    7.8863  -14.2456   20.3537 C   0  0  0  0  0  0  0  0  0  0  0  0
    7.7154  -13.2766   21.1521 O   0  0  0  0  0  0  0  0  0  0  0  0
    7.5142  -15.5375   20.7992 N   0  0  0  0  0  0  0  0  0  0  0  0
    7.6388  -16.7388   20.0097 C   0  0  0  0  0  0  0  0  0  0  0  0
    6.5111  -17.6330   20.5559 C   0  0  0  0  0  0  0  0  0  0  0  0
    6.6917  -17.3410   22.0329 C   0  0  0  0  0  0  0  0  0  0  0  0
    6.9499  -15.8724   22.0499 C   0  0  1  0  0  0  0  0  0  0  0  0
    7.7540  -15.4338   23.2170 C   0  0  0  0  0  0  0  0  0  0  0  0
    8.9923  -15.3588   23.0481 O   0  0  0  0  0  0  0  0  0  0  0  0
    5.5495  -11.6472   26.2423 C   0  0  0  0  0  0  0  0  0  0  0  0
    6.5254  -12.5064   25.5234 C   0  0  0  0  0  0  0  0  0  0  0  0
    7.2370  -13.5409   26.3317 C   0  0  2  0  0  0  0  0  0  0  0  0
    7.9114  -12.9827   27.5682 C   0  0  0  0  0  0  0  0  0  0  0  0
    7.9614  -14.6003   25.6180 C   0  0  2  0  0  0  0  0  0  0  0  0
    7.2007  -15.1088   24.4660 N   0  0  0  0  0  0  0  0  0  0  0  0
    8.5732  -15.6886   26.3695 C   0  0  0  0  0  0  0  0  0  0  0  0
    9.7013  -15.6453   26.9303 O   0  0  0  0  0  0  0  0  0  0  0  0
    7.9373  -16.9446   26.5447 O   0  0  0  0  0  0  0  0  0  0  0  0
  1  2  1  0
  2  3  1  0
  3  4  1  1
  3  5  1  0
  5  7  1  0
  5  6  2  0
  7  8  1  0
  9  8  1  0
 10 11  1  0
 10  9  1  0
 11  7  1  0
 11 12  1  1
 12 19  1  0
 13 12  2  0
 15 14  1  0
 16 17  1  6
 16 15  1  0
 18 20  1  0
 18 16  1  0
 18 19  1  6
 20 22  1  0
 21 20  2  0
M  END
$$$$
