SPI.pdb
     RDKit          3D

 22 22  0  0  1  0  0  0  0  0999 V2000
   10.8369  -13.0988   19.9390 O   0  0  0  0  0  0  0  0  0  0  0  0
   10.2733  -14.0985   19.2087 C   0  0  0  0  0  0  0  0  0  0  0  0
    8.7590  -13.8652   19.1204 C   0  0  2  0  0  0  0  0  0  0  0  0
    8.5919  -12.4006   18.9310 N   0  0  0  0  0  0  0  0  0  0  0  0
    8.1334  -14.2251   20.4075 C   0  0  0  0  0  0  0  0  0  0  0  0
    7.9121  -13.2689   21.2090 O   0  0  0  0  0  0  0  0  0  0  0  0
    7.7595  -15.5277   20.8194 N   0  0  0  0  0  0  0  0  0  0  0  0
    7.8942  -16.7102   20.0035 C   0  0  0  0  0  0  0  0  0  0  0  0
    6.7631  -17.6187   20.5180 C   0  0  0  0  0  0  0  0  0  0  0  0
    6.9288  -17.3607   22.0031 C   0  0  0  0  0  0  0  0  0  0  0  0
    7.1840  -15.8924   22.0564 C   0  0  1  0  0  0  0  0  0  0  0  0
    7.9758  -15.4795   23.2411 C   0  0  0  0  0  0  0  0  0  0  0  0
    9.2184  -15.4311   23.0955 O   0  0  0  0  0  0  0  0  0  0  0  0
    5.6790  -11.7913   26.2679 C   0  0  0  0  0  0  0  0  0  0  0  0
    6.7331  -12.5730   25.5713 C   0  0  0  0  0  0  0  0  0  0  0  0
    7.4421  -13.6140   26.3737 C   0  0  2  0  0  0  0  0  0  0  0  0
    8.1237  -13.0635   27.6097 C   0  0  0  0  0  0  0  0  0  0  0  0
    8.1584  -14.6747   25.6540 C   0  0  2  0  0  0  0  0  0  0  0  0
    7.4069  -15.1504   24.4821 N   0  0  0  0  0  0  0  0  0  0  0  0
    8.7385  -15.7861   26.3968 C   0  0  0  0  0  0  0  0  0  0  0  0
    9.8414  -15.7606   27.0065 O   0  0  0  0  0  0  0  0  0  0  0  0
    8.0970  -17.0467   26.5053 O   0  0  0  0  0  0  0  0  0  0  0  0
  1  2  1  0
  2  3  1  0
  3  4  1  1
  3  5  1  0
  5  7  1  0
  5  6  2  0
  7  8  1  0
  9  8  1  0
 10 11  1  0
 10  9  1  0
 11  7  1  0
 11 12  1  1
 12 19  1  0
 13 12  2  0
 15 14  1  0
 16 17  1  6
 16 15  1  0
 18 20  1  0
 18 16  1  0
 18 19  1  6
 20 22  1  0
 21 20  2  0
M  END
$$$$
