SPI.pdb
     RDKit          3D

 22 22  0  0  1  0  0  0  0  0999 V2000
   10.4122  -13.2912   20.3892 O   0  0  0  0  0  0  0  0  0  0  0  0
   10.0586  -14.0190   19.2958 C   0  0  0  0  0  0  0  0  0  0  0  0
    8.5378  -13.9364   19.1064 C   0  0  2  0  0  0  0  0  0  0  0  0
    8.2522  -12.5120   18.7929 N   0  0  0  0  0  0  0  0  0  0  0  0
    7.8686  -14.2578   20.3817 C   0  0  0  0  0  0  0  0  0  0  0  0
    7.6110  -13.2769   21.1413 O   0  0  0  0  0  0  0  0  0  0  0  0
    7.4899  -15.5488   20.8243 N   0  0  0  0  0  0  0  0  0  0  0  0
    7.5762  -16.7437   20.0199 C   0  0  0  0  0  0  0  0  0  0  0  0
    6.4507  -17.6273   20.5874 C   0  0  0  0  0  0  0  0  0  0  0  0
    6.6747  -17.3530   22.0618 C   0  0  0  0  0  0  0  0  0  0  0  0
    6.9545  -15.8885   22.0863 C   0  0  1  0  0  0  0  0  0  0  0  0
    7.7955  -15.4731   23.2356 C   0  0  0  0  0  0  0  0  0  0  0  0
    9.0297  -15.4126   23.0340 O   0  0  0  0  0  0  0  0  0  0  0  0
    5.6394  -11.7978   26.4707 C   0  0  0  0  0  0  0  0  0  0  0  0
    6.5355  -12.6642   25.6621 C   0  0  0  0  0  0  0  0  0  0  0  0
    7.3849  -13.6394   26.4089 C   0  0  2  0  0  0  0  0  0  0  0  0
    8.1610  -13.0143   27.5501 C   0  0  0  0  0  0  0  0  0  0  0  0
    8.0809  -14.6810   25.6427 C   0  0  2  0  0  0  0  0  0  0  0  0
    7.2806  -15.1544   24.5026 N   0  0  0  0  0  0  0  0  0  0  0  0
    8.7122  -15.7919   26.3431 C   0  0  0  0  0  0  0  0  0  0  0  0
    8.1900  -16.9220   26.5410 O   0  0  0  0  0  0  0  0  0  0  0  0
   10.0178  -15.7033   26.8909 O   0  0  0  0  0  0  0  0  0  0  0  0
  1  2  1  0
  2  3  1  0
  3  4  1  1
  3  5  1  0
  5  7  1  0
  5  6  2  0
  7  8  1  0
  9  8  1  0
 10 11  1  0
 10  9  1  0
 11  7  1  0
 11 12  1  1
 12 19  1  0
 13 12  2  0
 15 14  1  0
 16 17  1  6
 16 15  1  0
 18 20  1  0
 18 16  1  0
 18 19  1  6
 20 22  1  0
 21 20  2  0
M  END
$$$$
