SPI.pdb
     RDKit          3D

 22 22  0  0  1  0  0  0  0  0999 V2000
   10.5717  -14.1018   19.9370 O   0  0  0  0  0  0  0  0  0  0  0  0
    9.7318  -13.1978   19.3647 C   0  0  0  0  0  0  0  0  0  0  0  0
    8.3671  -13.8586   19.1274 C   0  0  2  0  0  0  0  0  0  0  0  0
    7.4922  -12.7840   18.5902 N   0  0  0  0  0  0  0  0  0  0  0  0
    7.8028  -14.2919   20.4202 C   0  0  0  0  0  0  0  0  0  0  0  0
    7.3842  -13.3720   21.1846 O   0  0  0  0  0  0  0  0  0  0  0  0
    7.6854  -15.6282   20.8747 N   0  0  0  0  0  0  0  0  0  0  0  0
    8.0081  -16.7898   20.0817 C   0  0  0  0  0  0  0  0  0  0  0  0
    7.0779  -17.8731   20.6567 C   0  0  0  0  0  0  0  0  0  0  0  0
    7.2394  -17.5465   22.1287 C   0  0  0  0  0  0  0  0  0  0  0  0
    7.2243  -16.0554   22.1394 C   0  0  1  0  0  0  0  0  0  0  0  0
    7.9637  -15.4716   23.2855 C   0  0  0  0  0  0  0  0  0  0  0  0
    9.1860  -15.2606   23.1149 O   0  0  0  0  0  0  0  0  0  0  0  0
    5.5303  -11.7026   26.1764 C   0  0  0  0  0  0  0  0  0  0  0  0
    6.4908  -12.5976   25.4807 C   0  0  0  0  0  0  0  0  0  0  0  0
    7.2802  -13.5342   26.3349 C   0  0  2  0  0  0  0  0  0  0  0  0
    7.9213  -12.8641   27.5329 C   0  0  0  0  0  0  0  0  0  0  0  0
    8.0737  -14.5760   25.6705 C   0  0  2  0  0  0  0  0  0  0  0  0
    7.3679  -15.1552   24.5170 N   0  0  0  0  0  0  0  0  0  0  0  0
    8.7200  -15.6098   26.4685 C   0  0  0  0  0  0  0  0  0  0  0  0
    8.2269  -16.7375   26.7408 O   0  0  0  0  0  0  0  0  0  0  0  0
   10.0083  -15.4386   27.0373 O   0  0  0  0  0  0  0  0  0  0  0  0
  1  2  1  0
  2  3  1  0
  3  4  1  1
  3  5  1  0
  5  7  1  0
  5  6  2  0
  7  8  1  0
  9  8  1  0
 10 11  1  0
 10  9  1  0
 11  7  1  0
 11 12  1  1
 12 19  1  0
 13 12  2  0
 15 14  1  0
 16 17  1  6
 16 15  1  0
 18 20  1  0
 18 16  1  0
 18 19  1  6
 20 22  1  0
 21 20  2  0
M  END
$$$$
