SPI.pdb
     RDKit          3D

 22 22  0  0  1  0  0  0  0  0999 V2000
   10.8260  -13.2457   20.1399 O   0  0  0  0  0  0  0  0  0  0  0  0
   10.3091  -14.0815   19.1993 C   0  0  0  0  0  0  0  0  0  0  0  0
    8.8008  -13.8271   19.0742 C   0  0  2  0  0  0  0  0  0  0  0  0
    8.6599  -12.3623   18.8653 N   0  0  0  0  0  0  0  0  0  0  0  0
    8.1411  -14.1635   20.3506 C   0  0  0  0  0  0  0  0  0  0  0  0
    7.9880  -13.2092   21.1701 O   0  0  0  0  0  0  0  0  0  0  0  0
    7.6663  -15.4416   20.7343 N   0  0  0  0  0  0  0  0  0  0  0  0
    7.7387  -16.6202   19.9050 C   0  0  0  0  0  0  0  0  0  0  0  0
    6.5337  -17.4532   20.3780 C   0  0  0  0  0  0  0  0  0  0  0  0
    6.6789  -17.2263   21.8704 C   0  0  0  0  0  0  0  0  0  0  0  0
    7.0349  -15.7805   21.9513 C   0  0  1  0  0  0  0  0  0  0  0  0
    7.8231  -15.4394   23.1610 C   0  0  0  0  0  0  0  0  0  0  0  0
    9.0677  -15.4079   23.0286 O   0  0  0  0  0  0  0  0  0  0  0  0
    5.6658  -11.7159   26.2741 C   0  0  0  0  0  0  0  0  0  0  0  0
    6.5929  -12.6098   25.5333 C   0  0  0  0  0  0  0  0  0  0  0  0
    7.3011  -13.6561   26.3295 C   0  0  2  0  0  0  0  0  0  0  0  0
    8.0065  -13.1091   27.5536 C   0  0  0  0  0  0  0  0  0  0  0  0
    7.9947  -14.7278   25.6037 C   0  0  2  0  0  0  0  0  0  0  0  0
    7.2487  -15.1587   24.4113 N   0  0  0  0  0  0  0  0  0  0  0  0
    8.5250  -15.8699   26.3369 C   0  0  0  0  0  0  0  0  0  0  0  0
    7.9120  -16.9509   26.5482 O   0  0  0  0  0  0  0  0  0  0  0  0
    9.8249  -15.8729   26.9052 O   0  0  0  0  0  0  0  0  0  0  0  0
  1  2  1  0
  2  3  1  0
  3  4  1  1
  3  5  1  0
  5  7  1  0
  5  6  2  0
  7  8  1  0
  9  8  1  0
 10 11  1  0
 10  9  1  0
 11  7  1  0
 11 12  1  1
 12 19  1  0
 13 12  2  0
 15 14  1  0
 16 17  1  6
 16 15  1  0
 18 20  1  0
 18 16  1  0
 18 19  1  6
 20 22  1  0
 21 20  2  0
M  END
$$$$
