SPI.pdb
     RDKit          3D

 22 22  0  0  1  0  0  0  0  0999 V2000
    5.4727  -18.2171   23.0829 O   0  0  0  0  0  0  0  0  0  0  0  0
    5.0558  -18.0982   21.7935 C   0  0  0  0  0  0  0  0  0  0  0  0
    6.2753  -17.8746   20.8889 C   0  0  2  0  0  0  0  0  0  0  0  0
    6.9731  -19.1855   20.8296 N   0  0  0  0  0  0  0  0  0  0  0  0
    7.1886  -16.9090   21.5300 C   0  0  0  0  0  0  0  0  0  0  0  0
    7.9654  -17.3764   22.4153 O   0  0  0  0  0  0  0  0  0  0  0  0
    7.2755  -15.5245   21.2442 N   0  0  0  0  0  0  0  0  0  0  0  0
    6.6503  -14.8857   20.1114 C   0  0  0  0  0  0  0  0  0  0  0  0
    7.5763  -13.6882   19.8322 C   0  0  0  0  0  0  0  0  0  0  0  0
    7.8150  -13.2531   21.2651 C   0  0  0  0  0  0  0  0  0  0  0  0
    7.9859  -14.5506   21.9799 C   0  0  1  0  0  0  0  0  0  0  0  0
    7.6142  -14.4810   23.4145 C   0  0  0  0  0  0  0  0  0  0  0  0
    6.6307  -13.7624   23.7044 O   0  0  0  0  0  0  0  0  0  0  0  0
    5.8436  -12.0950   26.0236 C   0  0  0  0  0  0  0  0  0  0  0  0
    6.9824  -12.8100   25.3917 C   0  0  0  0  0  0  0  0  0  0  0  0
    7.8256  -13.6585   26.2856 C   0  0  2  0  0  0  0  0  0  0  0  0
    8.2642  -12.9516   27.5518 C   0  0  0  0  0  0  0  0  0  0  0  0
    8.8118  -14.5520   25.6647 C   0  0  2  0  0  0  0  0  0  0  0  0
    8.2988  -15.1670   24.4307 N   0  0  0  0  0  0  0  0  0  0  0  0
    9.5213  -15.5251   26.4850 C   0  0  0  0  0  0  0  0  0  0  0  0
   10.1090  -15.2744   27.5716 O   0  0  0  0  0  0  0  0  0  0  0  0
    9.6247  -16.8934   26.1249 O   0  0  0  0  0  0  0  0  0  0  0  0
  1  2  1  0
  2  3  1  0
  3  4  1  1
  3  5  1  0
  5  7  1  0
  5  6  2  0
  7  8  1  0
  9  8  1  0
 10 11  1  0
 10  9  1  0
 11  7  1  0
 11 12  1  1
 12 19  1  0
 13 12  2  0
 15 14  1  0
 16 17  1  1
 16 15  1  0
 18 20  1  0
 18 16  1  0
 18 19  1  6
 20 22  1  0
 21 20  2  0
M  END
$$$$
