SPI.pdb
     RDKit          3D

 22 22  0  0  1  0  0  0  0  0999 V2000
    8.3838  -18.5320   21.3978 O   0  0  0  0  0  0  0  0  0  0  0  0
    7.9530  -18.2879   20.1308 C   0  0  0  0  0  0  0  0  0  0  0  0
    8.8692  -17.2425   19.4803 C   0  0  2  0  0  0  0  0  0  0  0  0
   10.1656  -17.9337   19.2556 N   0  0  0  0  0  0  0  0  0  0  0  0
    9.1074  -16.1412   20.4331 C   0  0  0  0  0  0  0  0  0  0  0  0
   10.0958  -16.2805   21.2137 O   0  0  0  0  0  0  0  0  0  0  0  0
    8.3413  -14.9555   20.5482 N   0  0  0  0  0  0  0  0  0  0  0  0
    7.1509  -14.6772   19.7815 C   0  0  0  0  0  0  0  0  0  0  0  0
    7.1435  -13.1402   19.6960 C   0  0  0  0  0  0  0  0  0  0  0  0
    7.5497  -12.8362   21.1251 C   0  0  0  0  0  0  0  0  0  0  0  0
    8.6064  -13.8541   21.3914 C   0  0  1  0  0  0  0  0  0  0  0  0
    8.7321  -14.2040   22.8277 C   0  0  0  0  0  0  0  0  0  0  0  0
    9.8930  -14.2459   23.2947 O   0  0  0  0  0  0  0  0  0  0  0  0
    6.0929  -11.2637   26.2104 C   0  0  0  0  0  0  0  0  0  0  0  0
    7.0980  -12.2041   25.6514 C   0  0  0  0  0  0  0  0  0  0  0  0
    6.8155  -13.6626   25.8041 C   0  0  2  0  0  0  0  0  0  0  0  0
    6.3599  -14.0468   27.1970 C   0  0  0  0  0  0  0  0  0  0  0  0
    7.7024  -14.6151   25.1241 C   0  0  2  0  0  0  0  0  0  0  0  0
    7.6362  -14.4819   23.6605 N   0  0  0  0  0  0  0  0  0  0  0  0
    7.7035  -16.0151   25.5281 C   0  0  0  0  0  0  0  0  0  0  0  0
    6.9330  -16.9057   25.0787 O   0  0  0  0  0  0  0  0  0  0  0  0
    8.6001  -16.5259   26.5016 O   0  0  0  0  0  0  0  0  0  0  0  0
  1  2  1  0
  2  3  1  0
  3  4  1  1
  3  5  1  0
  5  7  1  0
  5  6  2  0
  7  8  1  0
  9  8  1  0
 10 11  1  0
 10  9  1  0
 11  7  1  0
 11 12  1  1
 12 19  1  0
 13 12  2  0
 15 14  1  0
 16 17  1  1
 16 15  1  0
 18 20  1  0
 18 16  1  0
 18 19  1  6
 20 22  1  0
 21 20  2  0
M  END
$$$$
