SPI.pdb
     RDKit          3D

 22 22  0  0  1  0  0  0  0  0999 V2000
   11.2478  -18.3787   21.7245 O   0  0  0  0  0  0  0  0  0  0  0  0
   12.0207  -17.4291   21.1319 C   0  0  0  0  0  0  0  0  0  0  0  0
   11.1376  -16.5460   20.2400 C   0  0  2  0  0  0  0  0  0  0  0  0
   12.0584  -15.5554   19.6237 N   0  0  0  0  0  0  0  0  0  0  0  0
   10.1797  -15.8041   21.0823 C   0  0  0  0  0  0  0  0  0  0  0  0
   10.6594  -14.8573   21.7744 O   0  0  0  0  0  0  0  0  0  0  0  0
    8.7885  -16.0511   21.1814 N   0  0  0  0  0  0  0  0  0  0  0  0
    8.0894  -17.0791   20.4488 C   0  0  0  0  0  0  0  0  0  0  0  0
    6.6698  -16.5012   20.3071 C   0  0  0  0  0  0  0  0  0  0  0  0
    6.5166  -15.9417   21.7081 C   0  0  0  0  0  0  0  0  0  0  0  0
    7.8569  -15.3442   21.9732 C   0  0  1  0  0  0  0  0  0  0  0  0
    8.1994  -15.2936   23.4158 C   0  0  0  0  0  0  0  0  0  0  0  0
    9.1070  -16.0639   23.8038 O   0  0  0  0  0  0  0  0  0  0  0  0
    5.5897  -11.9094   27.5955 C   0  0  0  0  0  0  0  0  0  0  0  0
    6.0051  -12.8351   26.5103 C   0  0  0  0  0  0  0  0  0  0  0  0
    7.4710  -13.0702   26.3485 C   0  0  2  0  0  0  0  0  0  0  0  0
    8.2363  -11.8366   25.9154 C   0  0  0  0  0  0  0  0  0  0  0  0
    7.9079  -14.3449   25.7648 C   0  0  2  0  0  0  0  0  0  0  0  0
    7.5669  -14.4433   24.3372 N   0  0  0  0  0  0  0  0  0  0  0  0
    7.6262  -15.5925   26.4629 C   0  0  0  0  0  0  0  0  0  0  0  0
    8.2245  -16.0043   27.4932 O   0  0  0  0  0  0  0  0  0  0  0  0
    6.6197  -16.4951   26.0330 O   0  0  0  0  0  0  0  0  0  0  0  0
  1  2  1  0
  2  3  1  0
  3  4  1  1
  3  5  1  0
  5  7  1  0
  5  6  2  0
  7  8  1  0
  9  8  1  0
 10 11  1  0
 10  9  1  0
 11  7  1  0
 11 12  1  1
 12 19  1  0
 13 12  2  0
 15 14  1  0
 16 17  1  6
 16 15  1  0
 18 20  1  0
 18 16  1  0
 18 19  1  6
 20 22  1  0
 21 20  2  0
M  END
$$$$
