EVW.pdb
     RDKit          3D

 31 32  0  0  1  0  0  0  0  0999 V2000
   27.3055  -21.6395  -16.9555 N   0  0  0  0  0  0  0  0  0  0  0  0
   28.5903  -21.2307  -16.4116 C   0  0  1  0  0  0  0  0  0  0  0  0
   29.3080  -20.4823  -17.5167 C   0  0  0  0  0  0  0  0  0  0  0  0
   29.2093  -21.2227  -18.8312 C   0  0  0  0  0  0  0  0  0  0  0  0
   30.3714  -20.8945  -19.6610 C   0  0  0  0  0  0  0  0  0  0  0  0
   30.8661  -21.7639  -20.4163 O   0  0  0  0  0  0  0  0  0  0  0  0
   28.4301  -20.4159  -15.1967 C   0  0  0  0  0  0  0  0  0  0  0  0
   28.8752  -19.2440  -15.1831 O   0  0  0  0  0  0  0  0  0  0  0  0
   30.9719  -19.6384  -19.6569 O   0  0  0  0  0  0  0  0  0  0  0  0
   25.1319  -19.5083  -13.9148 C   0  0  0  0  0  0  0  0  0  0  0  0
   26.4370  -18.9955  -13.3469 C   0  0  2  0  0  0  0  0  0  0  0  0
   27.1259  -18.0498  -14.3121 C   0  0  0  0  0  0  0  0  0  0  0  0
   27.3445  -20.1342  -12.9405 C   0  0  2  0  0  0  0  0  0  0  0  0
   27.7819  -20.9339  -14.0442 N   0  0  0  0  0  0  0  0  0  0  0  0
   26.6630  -20.9560  -11.9065 C   0  0  0  0  0  0  0  0  0  0  0  0
   26.0173  -21.9848  -12.2420 O   0  0  0  0  0  0  0  0  0  0  0  0
   26.7150  -20.6180  -10.5375 N   0  0  0  0  0  0  0  0  0  0  0  0
   26.0885  -21.4044   -9.4925 C   0  0  1  0  0  0  0  0  0  0  0  0
   27.1162  -21.6812   -8.4174 C   0  0  0  0  0  0  0  0  0  0  0  0
   27.4622  -20.4919   -7.6376 C   0  0  0  0  0  0  0  0  0  0  0  0
   27.1168  -19.1937   -7.9383 C   0  0  0  0  0  0  0  0  0  0  0  0
   27.6070  -18.3560   -6.9964 N   0  0  0  0  0  0  0  0  0  0  0  0
   28.2740  -19.0829   -6.0739 C   0  0  0  0  0  0  0  0  0  0  0  0
   28.9442  -18.7079   -4.9336 C   0  0  0  0  0  0  0  0  0  0  0  0
   29.5584  -19.6526   -4.1362 C   0  0  0  0  0  0  0  0  0  0  0  0
   29.4786  -20.9698   -4.5164 C   0  0  0  0  0  0  0  0  0  0  0  0
   28.8087  -21.3492   -5.6570 C   0  0  0  0  0  0  0  0  0  0  0  0
   28.1883  -20.4231   -6.4679 C   0  0  0  0  0  0  0  0  0  0  0  0
   24.8792  -20.7379   -8.9532 C   0  0  0  0  0  0  0  0  0  0  0  0
   24.4986  -19.4843   -9.3822 O   0  0  0  0  0  0  0  0  0  0  0  0
   24.1733  -21.3110   -8.0865 O   0  0  0  0  0  0  0  0  0  0  0  0
  2  3  1  0
  2  1  1  6
  3  4  1  0
  4  5  1  0
  5  9  1  0
  5  6  2  0
  7 14  1  0
  7  2  1  0
  8  7  2  0
 11 10  1  6
 12 11  1  0
 13 11  1  0
 13 14  1  6
 13 15  1  0
 15 17  1  0
 16 15  2  0
 17 18  1  0
 18 19  1  1
 19 20  1  0
 20 21  2  0
 20 28  1  0
 21 22  1  0
 22 23  1  0
 23 24  2  0
 24 25  1  0
 26 25  2  0
 27 26  1  0
 28 27  2  0
 28 23  1  0
 29 30  1  0
 29 18  1  0
 31 29  2  0
M  END
$$$$
