EVW.pdb
     RDKit          3D

 31 32  0  0  1  0  0  0  0  0999 V2000
   26.1535  -33.7984  -15.0401 N   0  0  0  0  0  0  0  0  0  0  0  0
   25.3524  -32.9441  -14.1788 C   0  0  1  0  0  0  0  0  0  0  0  0
   24.2045  -32.4327  -15.0257 C   0  0  0  0  0  0  0  0  0  0  0  0
   24.6699  -31.3641  -15.9885 C   0  0  0  0  0  0  0  0  0  0  0  0
   23.5615  -30.9906  -16.8712 C   0  0  0  0  0  0  0  0  0  0  0  0
   22.4579  -31.5761  -16.7711 O   0  0  0  0  0  0  0  0  0  0  0  0
   24.8877  -33.6637  -12.9823 C   0  0  0  0  0  0  0  0  0  0  0  0
   24.6547  -34.8931  -13.0600 O   0  0  0  0  0  0  0  0  0  0  0  0
   23.6693  -29.9960  -17.8394 O   0  0  0  0  0  0  0  0  0  0  0  0
   25.9291  -32.3727   -9.1242 C   0  0  0  0  0  0  0  0  0  0  0  0
   25.4099  -33.7393   -9.5129 C   0  0  2  0  0  0  0  0  0  0  0  0
   26.5307  -34.6388   -9.9981 C   0  0  0  0  0  0  0  0  0  0  0  0
   24.2988  -33.6353  -10.5327 C   0  0  2  0  0  0  0  0  0  0  0  0
   24.6997  -32.9905  -11.7462 N   0  0  0  0  0  0  0  0  0  0  0  0
   23.1303  -32.9568   -9.9136 C   0  0  0  0  0  0  0  0  0  0  0  0
   23.1375  -31.7069   -9.7540 O   0  0  0  0  0  0  0  0  0  0  0  0
   21.9928  -33.6769   -9.4910 N   0  0  0  0  0  0  0  0  0  0  0  0
   20.8399  -33.0599   -8.8640 C   0  0  1  0  0  0  0  0  0  0  0  0
   19.5875  -33.6553   -9.4687 C   0  0  0  0  0  0  0  0  0  0  0  0
   18.3599  -33.0415   -8.9603 C   0  0  0  0  0  0  0  0  0  0  0  0
   17.6070  -32.0809   -9.5972 C   0  0  0  0  0  0  0  0  0  0  0  0
   16.5422  -31.7476   -8.8329 N   0  0  0  0  0  0  0  0  0  0  0  0
   16.5792  -32.4757   -7.6959 C   0  0  0  0  0  0  0  0  0  0  0  0
   15.7360  -32.5080   -6.6104 C   0  0  0  0  0  0  0  0  0  0  0  0
   15.9888  -33.3531   -5.5487 C   0  0  0  0  0  0  0  0  0  0  0  0
   17.1020  -34.1549   -5.6115 C   0  0  0  0  0  0  0  0  0  0  0  0
   17.9484  -34.1255   -6.6961 C   0  0  0  0  0  0  0  0  0  0  0  0
   17.7155  -33.2897   -7.7672 C   0  0  0  0  0  0  0  0  0  0  0  0
   20.8733  -33.2046   -7.3890 C   0  0  0  0  0  0  0  0  0  0  0  0
   20.4743  -32.1798   -6.5578 O   0  0  0  0  0  0  0  0  0  0  0  0
   21.2703  -34.2756   -6.8664 O   0  0  0  0  0  0  0  0  0  0  0  0
  2  3  1  0
  2  1  1  6
  3  4  1  0
  4  5  1  0
  5  9  1  0
  5  6  2  0
  7 14  1  0
  7  2  1  0
  8  7  2  0
 11 10  1  6
 12 11  1  0
 13 11  1  0
 13 14  1  6
 13 15  1  0
 15 17  1  0
 16 15  2  0
 17 18  1  0
 18 19  1  6
 19 20  1  0
 20 21  2  0
 20 28  1  0
 21 22  1  0
 22 23  1  0
 23 24  2  0
 24 25  1  0
 26 25  2  0
 27 26  1  0
 28 27  2  0
 28 23  1  0
 29 30  1  0
 29 18  1  0
 31 29  2  0
M  END
$$$$
