EVW.pdb
     RDKit          3D

 31 32  0  0  1  0  0  0  0  0999 V2000
   20.5058  -11.3105  -15.7947 N   0  0  0  0  0  0  0  0  0  0  0  0
   19.4472  -10.3357  -15.5875 C   0  0  1  0  0  0  0  0  0  0  0  0
   18.1451  -11.1107  -15.5684 C   0  0  0  0  0  0  0  0  0  0  0  0
   17.3624  -10.8949  -16.8438 C   0  0  0  0  0  0  0  0  0  0  0  0
   17.9912  -11.6482  -17.9320 C   0  0  0  0  0  0  0  0  0  0  0  0
   17.9300  -12.9000  -17.9429 O   0  0  0  0  0  0  0  0  0  0  0  0
   19.6563   -9.5626  -14.3530 C   0  0  0  0  0  0  0  0  0  0  0  0
   19.9264  -10.1693  -13.2898 O   0  0  0  0  0  0  0  0  0  0  0  0
   18.6704  -11.0346  -18.9811 O   0  0  0  0  0  0  0  0  0  0  0  0
   20.5371   -5.1767  -12.2195 C   0  0  0  0  0  0  0  0  0  0  0  0
   20.5349   -6.0825  -13.4312 C   0  0  2  0  0  0  0  0  0  0  0  0
   20.0589   -5.3476  -14.6697 C   0  0  0  0  0  0  0  0  0  0  0  0
   19.7241   -7.3336  -13.1804 C   0  0  2  0  0  0  0  0  0  0  0  0
   19.5573   -8.1460  -14.3471 N   0  0  0  0  0  0  0  0  0  0  0  0
   18.4153   -6.9558  -12.5859 C   0  0  0  0  0  0  0  0  0  0  0  0
   17.4668   -6.5877  -13.3293 O   0  0  0  0  0  0  0  0  0  0  0  0
   18.1943   -6.9959  -11.1929 N   0  0  0  0  0  0  0  0  0  0  0  0
   16.9377   -6.6289  -10.5690 C   0  0  1  0  0  0  0  0  0  0  0  0
   16.7591   -7.4636   -9.3200 C   0  0  0  0  0  0  0  0  0  0  0  0
   15.5210   -7.1590   -8.6012 C   0  0  0  0  0  0  0  0  0  0  0  0
   15.2767   -6.0372   -7.8416 C   0  0  0  0  0  0  0  0  0  0  0  0
   14.0273   -6.0918   -7.3267 N   0  0  0  0  0  0  0  0  0  0  0  0
   13.4391   -7.2368   -7.7357 C   0  0  0  0  0  0  0  0  0  0  0  0
   12.1890   -7.7535   -7.4898 C   0  0  0  0  0  0  0  0  0  0  0  0
   11.8106   -8.9660   -8.0303 C   0  0  0  0  0  0  0  0  0  0  0  0
   12.7171   -9.6346   -8.8159 C   0  0  0  0  0  0  0  0  0  0  0  0
   13.9693   -9.1208   -9.0643 C   0  0  0  0  0  0  0  0  0  0  0  0
   14.3683   -7.9122   -8.5352 C   0  0  0  0  0  0  0  0  0  0  0  0
   16.8683   -5.1754  -10.2862 C   0  0  0  0  0  0  0  0  0  0  0  0
   17.9387   -4.4978   -9.7425 O   0  0  0  0  0  0  0  0  0  0  0  0
   15.8211   -4.5298  -10.5401 O   0  0  0  0  0  0  0  0  0  0  0  0
  2  3  1  0
  2  1  1  1
  3  4  1  0
  4  5  1  0
  5  9  1  0
  5  6  2  0
  7 14  1  0
  7  2  1  0
  8  7  2  0
 11 10  1  1
 12 11  1  0
 13 11  1  0
 13 14  1  6
 13 15  1  0
 15 17  1  0
 16 15  2  0
 17 18  1  0
 18 19  1  1
 19 20  1  0
 20 21  2  0
 20 28  1  0
 21 22  1  0
 22 23  1  0
 23 24  2  0
 24 25  1  0
 26 25  2  0
 27 26  1  0
 28 27  2  0
 28 23  1  0
 29 30  1  0
 29 18  1  0
 31 29  2  0
M  END
$$$$
