EVW.pdb
     RDKit          3D

 31 32  0  0  1  0  0  0  0  0999 V2000
   24.6054  -20.9269  -17.9686 N   0  0  0  0  0  0  0  0  0  0  0  0
   24.0589  -20.7654  -16.6311 C   0  0  1  0  0  0  0  0  0  0  0  0
   22.8444  -21.6682  -16.5496 C   0  0  0  0  0  0  0  0  0  0  0  0
   21.7340  -21.1722  -17.4478 C   0  0  0  0  0  0  0  0  0  0  0  0
   21.4569  -22.1780  -18.4767 C   0  0  0  0  0  0  0  0  0  0  0  0
   20.9856  -23.2927  -18.1507 O   0  0  0  0  0  0  0  0  0  0  0  0
   25.0577  -21.0765  -15.5962 C   0  0  0  0  0  0  0  0  0  0  0  0
   25.1935  -22.2628  -15.2142 O   0  0  0  0  0  0  0  0  0  0  0  0
   21.6942  -21.9584  -19.8308 O   0  0  0  0  0  0  0  0  0  0  0  0
   28.9206  -19.5728  -12.8447 C   0  0  0  0  0  0  0  0  0  0  0  0
   27.8950  -19.2336  -13.9037 C   0  0  2  0  0  0  0  0  0  0  0  0
   27.3291  -17.8413  -13.6989 C   0  0  0  0  0  0  0  0  0  0  0  0
   26.8013  -20.2755  -13.9632 C   0  0  2  0  0  0  0  0  0  0  0  0
   25.8669  -20.0585  -15.0257 N   0  0  0  0  0  0  0  0  0  0  0  0
   26.1214  -20.3453  -12.6434 C   0  0  0  0  0  0  0  0  0  0  0  0
   25.1474  -19.5858  -12.3940 O   0  0  0  0  0  0  0  0  0  0  0  0
   26.5365  -21.2488  -11.6422 N   0  0  0  0  0  0  0  0  0  0  0  0
   26.0894  -21.1804  -10.2644 C   0  0  1  0  0  0  0  0  0  0  0  0
   27.2398  -20.6971   -9.4090 C   0  0  0  0  0  0  0  0  0  0  0  0
   26.8456  -20.4132   -8.0283 C   0  0  0  0  0  0  0  0  0  0  0  0
   25.5586  -20.3801   -7.5406 C   0  0  0  0  0  0  0  0  0  0  0  0
   25.5729  -20.0858   -6.2207 N   0  0  0  0  0  0  0  0  0  0  0  0
   26.8544  -19.9231   -5.8262 C   0  0  0  0  0  0  0  0  0  0  0  0
   27.3952  -19.6189   -4.5993 C   0  0  0  0  0  0  0  0  0  0  0  0
   28.7618  -19.5043   -4.4422 C   0  0  0  0  0  0  0  0  0  0  0  0
   29.5579  -19.7026   -5.5434 C   0  0  0  0  0  0  0  0  0  0  0  0
   29.0206  -20.0071   -6.7732 C   0  0  0  0  0  0  0  0  0  0  0  0
   27.6591  -20.1265   -6.9530 C   0  0  0  0  0  0  0  0  0  0  0  0
   24.8859  -20.3271  -10.1187 C   0  0  0  0  0  0  0  0  0  0  0  0
   24.9185  -18.9824  -10.4202 O   0  0  0  0  0  0  0  0  0  0  0  0
   23.8044  -20.8211   -9.7136 O   0  0  0  0  0  0  0  0  0  0  0  0
  2  3  1  0
  2  1  1  6
  3  4  1  0
  4  5  1  0
  5  9  1  0
  5  6  2  0
  7 14  1  0
  7  2  1  0
  8  7  2  0
 11 10  1  1
 12 11  1  0
 13 11  1  0
 13 14  1  6
 13 15  1  0
 15 17  1  0
 16 15  2  0
 17 18  1  0
 18 19  1  1
 19 20  1  0
 20 21  2  0
 20 28  1  0
 21 22  1  0
 22 23  1  0
 23 24  2  0
 24 25  1  0
 26 25  2  0
 27 26  1  0
 28 27  2  0
 28 23  1  0
 29 30  1  0
 29 18  1  0
 31 29  2  0
M  END
$$$$
