EVW.pdb
     RDKit          3D

 31 32  0  0  1  0  0  0  0  0999 V2000
   16.4805  -26.2956    2.5812 N   0  0  0  0  0  0  0  0  0  0  0  0
   16.1252  -25.1525    3.4062 C   0  0  1  0  0  0  0  0  0  0  0  0
   16.8519  -25.3294    4.7243 C   0  0  0  0  0  0  0  0  0  0  0  0
   16.1496  -26.3388    5.6039 C   0  0  0  0  0  0  0  0  0  0  0  0
   15.3338  -25.6332    6.5956 C   0  0  0  0  0  0  0  0  0  0  0  0
   14.8975  -24.4854    6.3440 O   0  0  0  0  0  0  0  0  0  0  0  0
   16.4644  -23.8816    2.7465 C   0  0  0  0  0  0  0  0  0  0  0  0
   17.3659  -23.8661    1.8755 O   0  0  0  0  0  0  0  0  0  0  0  0
   15.0080  -26.1811    7.8333 O   0  0  0  0  0  0  0  0  0  0  0  0
   13.5720  -20.9540    2.1962 C   0  0  0  0  0  0  0  0  0  0  0  0
   14.9022  -21.0323    1.4800 C   0  0  2  0  0  0  0  0  0  0  0  0
   14.8325  -21.9643    0.2854 C   0  0  0  0  0  0  0  0  0  0  0  0
   16.0139  -21.4233    2.4268 C   0  0  2  0  0  0  0  0  0  0  0  0
   15.7895  -22.6773    3.0796 N   0  0  0  0  0  0  0  0  0  0  0  0
   16.2277  -20.3272    3.4076 C   0  0  0  0  0  0  0  0  0  0  0  0
   15.7270  -20.4057    4.5612 O   0  0  0  0  0  0  0  0  0  0  0  0
   16.9856  -19.1814    3.0856 N   0  0  0  0  0  0  0  0  0  0  0  0
   17.1083  -18.0295    3.9581 C   0  0  1  0  0  0  0  0  0  0  0  0
   18.3508  -17.2602    3.5668 C   0  0  0  0  0  0  0  0  0  0  0  0
   18.5499  -16.0508    4.3668 C   0  0  0  0  0  0  0  0  0  0  0  0
   18.5504  -15.9762    5.7414 C   0  0  0  0  0  0  0  0  0  0  0  0
   18.7645  -14.6999    6.1341 N   0  0  0  0  0  0  0  0  0  0  0  0
   18.9061  -13.9261    5.0361 C   0  0  0  0  0  0  0  0  0  0  0  0
   19.1375  -12.5777    4.8992 C   0  0  0  0  0  0  0  0  0  0  0  0
   19.2463  -12.0066    3.6473 C   0  0  0  0  0  0  0  0  0  0  0  0
   19.1168  -12.8233    2.5508 C   0  0  0  0  0  0  0  0  0  0  0  0
   18.8852  -14.1732    2.6836 C   0  0  0  0  0  0  0  0  0  0  0  0
   18.7731  -14.7647    3.9236 C   0  0  0  0  0  0  0  0  0  0  0  0
   15.8918  -17.1830    3.9253 C   0  0  0  0  0  0  0  0  0  0  0  0
   15.4054  -16.5804    5.0657 O   0  0  0  0  0  0  0  0  0  0  0  0
   15.2771  -16.9989    2.8454 O   0  0  0  0  0  0  0  0  0  0  0  0
  2  3  1  0
  2  1  1  6
  3  4  1  0
  4  5  1  0
  5  9  1  0
  5  6  2  0
  7 14  1  0
  7  2  1  0
  8  7  2  0
 11 10  1  1
 12 11  1  0
 13 11  1  0
 13 14  1  1
 13 15  1  0
 15 17  1  0
 16 15  2  0
 17 18  1  0
 18 19  1  6
 19 20  1  0
 20 21  2  0
 20 28  1  0
 21 22  1  0
 22 23  1  0
 23 24  2  0
 24 25  1  0
 26 25  2  0
 27 26  1  0
 28 27  2  0
 28 23  1  0
 29 30  1  0
 29 18  1  0
 31 29  2  0
M  END
$$$$
