EVW.pdb
     RDKit          3D

 31 32  0  0  1  0  0  0  0  0999 V2000
   24.6638  -19.4809  -17.6168 N   0  0  0  0  0  0  0  0  0  0  0  0
   24.8850  -18.9217  -16.2932 C   0  0  1  0  0  0  0  0  0  0  0  0
   23.5838  -18.2639  -15.8799 C   0  0  0  0  0  0  0  0  0  0  0  0
   23.2795  -17.0631  -16.7467 C   0  0  0  0  0  0  0  0  0  0  0  0
   24.1787  -15.9640  -16.3854 C   0  0  0  0  0  0  0  0  0  0  0  0
   24.2175  -15.5508  -15.2027 O   0  0  0  0  0  0  0  0  0  0  0  0
   25.3205  -19.9508  -15.3357 C   0  0  0  0  0  0  0  0  0  0  0  0
   24.6769  -21.0238  -15.2564 O   0  0  0  0  0  0  0  0  0  0  0  0
   25.0135  -15.3374  -17.3066 O   0  0  0  0  0  0  0  0  0  0  0  0
   28.9174  -21.8299  -12.5231 C   0  0  0  0  0  0  0  0  0  0  0  0
   28.4502  -20.7444  -13.4676 C   0  0  2  0  0  0  0  0  0  0  0  0
   29.0148  -19.3918  -13.0774 C   0  0  0  0  0  0  0  0  0  0  0  0
   26.9419  -20.7111  -13.5634 C   0  0  2  0  0  0  0  0  0  0  0  0
   26.4533  -19.7487  -14.5036 N   0  0  0  0  0  0  0  0  0  0  0  0
   26.3717  -20.4899  -12.2087 C   0  0  0  0  0  0  0  0  0  0  0  0
   26.3857  -19.3380  -11.6981 O   0  0  0  0  0  0  0  0  0  0  0  0
   25.8049  -21.5441  -11.4615 N   0  0  0  0  0  0  0  0  0  0  0  0
   25.4985  -21.4506  -10.0471 C   0  0  1  0  0  0  0  0  0  0  0  0
   26.6408  -20.7415   -9.3535 C   0  0  0  0  0  0  0  0  0  0  0  0
   26.4440  -20.6186   -7.9084 C   0  0  0  0  0  0  0  0  0  0  0  0
   25.4647  -21.2384   -7.1656 C   0  0  0  0  0  0  0  0  0  0  0  0
   25.5866  -20.8948   -5.8632 N   0  0  0  0  0  0  0  0  0  0  0  0
   26.6355  -20.0540   -5.7326 C   0  0  0  0  0  0  0  0  0  0  0  0
   27.1672  -19.4301   -4.6288 C   0  0  0  0  0  0  0  0  0  0  0  0
   28.2639  -18.6007   -4.7502 C   0  0  0  0  0  0  0  0  0  0  0  0
   28.8027  -18.4203   -6.0004 C   0  0  0  0  0  0  0  0  0  0  0  0
   28.2735  -19.0430   -7.1076 C   0  0  0  0  0  0  0  0  0  0  0  0
   27.1790  -19.8752   -7.0098 C   0  0  0  0  0  0  0  0  0  0  0  0
   24.1971  -20.7818   -9.8096 C   0  0  0  0  0  0  0  0  0  0  0  0
   23.5821  -20.8249   -8.5767 O   0  0  0  0  0  0  0  0  0  0  0  0
   23.6268  -20.1576  -10.7386 O   0  0  0  0  0  0  0  0  0  0  0  0
  2  3  1  0
  2  1  1  6
  3  4  1  0
  4  5  1  0
  5  9  1  0
  5  6  2  0
  7 14  1  0
  7  2  1  0
  8  7  2  0
 11 10  1  1
 12 11  1  0
 13 11  1  0
 13 14  1  6
 13 15  1  0
 15 17  1  0
 16 15  2  0
 17 18  1  0
 18 19  1  1
 19 20  1  0
 20 21  2  0
 20 28  1  0
 21 22  1  0
 22 23  1  0
 23 24  2  0
 24 25  1  0
 26 25  2  0
 27 26  1  0
 28 27  2  0
 28 23  1  0
 29 30  1  0
 29 18  1  0
 31 29  2  0
M  END
$$$$
