EVW.pdb
     RDKit          3D

 31 32  0  0  1  0  0  0  0  0999 V2000
   23.0427  -18.1992  -16.7139 N   0  0  0  0  0  0  0  0  0  0  0  0
   24.2207  -18.4659  -15.9048 C   0  0  1  0  0  0  0  0  0  0  0  0
   25.0779  -17.2177  -15.9665 C   0  0  0  0  0  0  0  0  0  0  0  0
   25.6887  -17.0420  -17.3383 C   0  0  0  0  0  0  0  0  0  0  0  0
   26.6686  -18.1059  -17.5726 C   0  0  0  0  0  0  0  0  0  0  0  0
   26.4380  -18.9909  -18.4297 O   0  0  0  0  0  0  0  0  0  0  0  0
   23.8598  -18.8290  -14.5251 C   0  0  0  0  0  0  0  0  0  0  0  0
   23.1147  -18.0655  -13.8667 O   0  0  0  0  0  0  0  0  0  0  0  0
   27.8723  -18.1902  -16.8781 O   0  0  0  0  0  0  0  0  0  0  0  0
   23.9542  -22.9058  -13.1160 C   0  0  0  0  0  0  0  0  0  0  0  0
   23.1683  -21.7245  -12.5912 C   0  0  2  0  0  0  0  0  0  0  0  0
   21.8649  -21.5484  -13.3465 C   0  0  0  0  0  0  0  0  0  0  0  0
   23.9976  -20.4607  -12.6102 C   0  0  2  0  0  0  0  0  0  0  0  0
   24.3402  -20.0256  -13.9302 N   0  0  0  0  0  0  0  0  0  0  0  0
   25.2068  -20.6578  -11.7687 C   0  0  0  0  0  0  0  0  0  0  0  0
   26.2213  -21.2329  -12.2461 O   0  0  0  0  0  0  0  0  0  0  0  0
   25.2589  -20.2151  -10.4300 N   0  0  0  0  0  0  0  0  0  0  0  0
   26.2197  -20.7041   -9.4601 C   0  0  1  0  0  0  0  0  0  0  0  0
   27.0438  -19.5348   -8.9679 C   0  0  0  0  0  0  0  0  0  0  0  0
   28.1121  -19.9343   -8.0507 C   0  0  0  0  0  0  0  0  0  0  0  0
   29.1047  -20.8525   -8.3093 C   0  0  0  0  0  0  0  0  0  0  0  0
   29.9163  -20.9697   -7.2338 N   0  0  0  0  0  0  0  0  0  0  0  0
   29.4742  -20.1400   -6.2641 C   0  0  0  0  0  0  0  0  0  0  0  0
   29.9460  -19.8915   -4.9968 C   0  0  0  0  0  0  0  0  0  0  0  0
   29.3112  -18.9811   -4.1762 C   0  0  0  0  0  0  0  0  0  0  0  0
   28.2008  -18.3363   -4.6633 C   0  0  0  0  0  0  0  0  0  0  0  0
   27.7254  -18.5822   -5.9310 C   0  0  0  0  0  0  0  0  0  0  0  0
   28.3434  -19.4869   -6.7675 C   0  0  0  0  0  0  0  0  0  0  0  0
   25.5586  -21.4304   -8.3496 C   0  0  0  0  0  0  0  0  0  0  0  0
   26.2264  -22.3929   -7.6231 O   0  0  0  0  0  0  0  0  0  0  0  0
   24.3654  -21.1778   -8.0491 O   0  0  0  0  0  0  0  0  0  0  0  0
  2  3  1  0
  2  1  1  6
  3  4  1  0
  4  5  1  0
  5  9  1  0
  5  6  2  0
  7 14  1  0
  7  2  1  0
  8  7  2  0
 11 10  1  6
 12 11  1  0
 13 11  1  0
 13 14  1  6
 13 15  1  0
 15 17  1  0
 16 15  2  0
 17 18  1  0
 18 19  1  1
 19 20  1  0
 20 21  2  0
 20 28  1  0
 21 22  1  0
 22 23  1  0
 23 24  2  0
 24 25  1  0
 26 25  2  0
 27 26  1  0
 28 27  2  0
 28 23  1  0
 29 30  1  0
 29 18  1  0
 31 29  2  0
M  END
$$$$
