EVW.pdb
     RDKit          3D

 31 32  0  0  1  0  0  0  0  0999 V2000
   28.2889  -23.8803  -18.8059 N   0  0  0  0  0  0  0  0  0  0  0  0
   27.2329  -23.1035  -18.1774 C   0  0  1  0  0  0  0  0  0  0  0  0
   26.0546  -24.0402  -18.0017 C   0  0  0  0  0  0  0  0  0  0  0  0
   25.3266  -24.2533  -19.3095 C   0  0  0  0  0  0  0  0  0  0  0  0
   26.0798  -25.2014  -20.1348 C   0  0  0  0  0  0  0  0  0  0  0  0
   26.2334  -26.3833  -19.7471 O   0  0  0  0  0  0  0  0  0  0  0  0
   27.6765  -22.5172  -16.9027 C   0  0  0  0  0  0  0  0  0  0  0  0
   28.5213  -23.1306  -16.2086 O   0  0  0  0  0  0  0  0  0  0  0  0
   26.6488  -24.8529  -21.3567 O   0  0  0  0  0  0  0  0  0  0  0  0
   28.1181  -18.5013  -14.0529 C   0  0  0  0  0  0  0  0  0  0  0  0
   27.7501  -19.1380  -15.3749 C   0  0  2  0  0  0  0  0  0  0  0  0
   26.5236  -18.4832  -15.9811 C   0  0  0  0  0  0  0  0  0  0  0  0
   27.5708  -20.6324  -15.2340 C   0  0  2  0  0  0  0  0  0  0  0  0
   27.1649  -21.2730  -16.4481 N   0  0  0  0  0  0  0  0  0  0  0  0
   26.6186  -20.9073  -14.1264 C   0  0  0  0  0  0  0  0  0  0  0  0
   25.3777  -20.9038  -14.3450 O   0  0  0  0  0  0  0  0  0  0  0  0
   27.0644  -21.1771  -12.8151 N   0  0  0  0  0  0  0  0  0  0  0  0
   26.1777  -21.2848  -11.6726 C   0  0  1  0  0  0  0  0  0  0  0  0
   27.0063  -21.6138  -10.4503 C   0  0  0  0  0  0  0  0  0  0  0  0
   26.5953  -20.8638   -9.2624 C   0  0  0  0  0  0  0  0  0  0  0  0
   25.3200  -20.4338   -8.9733 C   0  0  0  0  0  0  0  0  0  0  0  0
   25.3123  -19.7730   -7.7933 N   0  0  0  0  0  0  0  0  0  0  0  0
   26.5679  -19.7593   -7.2955 C   0  0  0  0  0  0  0  0  0  0  0  0
   27.0801  -19.2213   -6.1386 C   0  0  0  0  0  0  0  0  0  0  0  0
   28.4233  -19.3394   -5.8429 C   0  0  0  0  0  0  0  0  0  0  0  0
   29.2254  -20.0069   -6.7357 C   0  0  0  0  0  0  0  0  0  0  0  0
   28.7166  -20.5468   -7.8947 C   0  0  0  0  0  0  0  0  0  0  0  0
   27.3789  -20.4409   -8.2100 C   0  0  0  0  0  0  0  0  0  0  0  0
   25.3686  -20.0566  -11.4869 C   0  0  0  0  0  0  0  0  0  0  0  0
   24.0467  -20.1192  -11.1010 O   0  0  0  0  0  0  0  0  0  0  0  0
   25.8801  -18.9258  -11.6806 O   0  0  0  0  0  0  0  0  0  0  0  0
  2  3  1  0
  2  1  1  1
  3  4  1  0
  4  5  1  0
  5  9  1  0
  5  6  2  0
  7 14  1  0
  7  2  1  0
  8  7  2  0
 11 10  1  1
 12 11  1  0
 13 11  1  0
 13 14  1  6
 13 15  1  0
 15 17  1  0
 16 15  2  0
 17 18  1  0
 18 19  1  1
 19 20  1  0
 20 21  2  0
 20 28  1  0
 21 22  1  0
 22 23  1  0
 23 24  2  0
 24 25  1  0
 26 25  2  0
 27 26  1  0
 28 27  2  0
 28 23  1  0
 29 30  1  0
 29 18  1  0
 31 29  2  0
M  END
$$$$
