EVW.pdb
     RDKit          3D

 31 32  0  0  1  0  0  0  0  0999 V2000
   23.9126  -22.0503  -19.5757 N   0  0  0  0  0  0  0  0  0  0  0  0
   23.3941  -21.7677  -18.2472 C   0  0  1  0  0  0  0  0  0  0  0  0
   22.4131  -20.6229  -18.4015 C   0  0  0  0  0  0  0  0  0  0  0  0
   23.1333  -19.3148  -18.6378 C   0  0  0  0  0  0  0  0  0  0  0  0
   22.1516  -18.2666  -18.9290 C   0  0  0  0  0  0  0  0  0  0  0  0
   22.0803  -17.2547  -18.1929 O   0  0  0  0  0  0  0  0  0  0  0  0
   22.7745  -22.9577  -17.6426 C   0  0  0  0  0  0  0  0  0  0  0  0
   21.8620  -23.5536  -18.2621 O   0  0  0  0  0  0  0  0  0  0  0  0
   21.2713  -18.3344  -20.0055 O   0  0  0  0  0  0  0  0  0  0  0  0
   22.8231  -26.4325  -14.0850 C   0  0  0  0  0  0  0  0  0  0  0  0
   23.5272  -25.2995  -14.7985 C   0  0  2  0  0  0  0  0  0  0  0  0
   24.2363  -24.3849  -13.8180 C   0  0  0  0  0  0  0  0  0  0  0  0
   22.5737  -24.5320  -15.6857 C   0  0  2  0  0  0  0  0  0  0  0  0
   23.1922  -23.4398  -16.3739 N   0  0  0  0  0  0  0  0  0  0  0  0
   21.4112  -24.0803  -14.8771 C   0  0  0  0  0  0  0  0  0  0  0  0
   21.5675  -23.2133  -13.9761 O   0  0  0  0  0  0  0  0  0  0  0  0
   20.1156  -24.5981  -15.0873 N   0  0  0  0  0  0  0  0  0  0  0  0
   18.9590  -24.2085  -14.3041 C   0  0  1  0  0  0  0  0  0  0  0  0
   17.9021  -23.6692  -15.2427 C   0  0  0  0  0  0  0  0  0  0  0  0
   16.6681  -23.2869  -14.5547 C   0  0  0  0  0  0  0  0  0  0  0  0
   16.4611  -22.1288  -13.8398 C   0  0  0  0  0  0  0  0  0  0  0  0
   15.2034  -22.1119  -13.3429 N   0  0  0  0  0  0  0  0  0  0  0  0
   14.5728  -23.2454  -13.7196 C   0  0  0  0  0  0  0  0  0  0  0  0
   13.2985  -23.6998  -13.4749 C   0  0  0  0  0  0  0  0  0  0  0  0
   12.8765  -24.9143  -13.9773 C   0  0  0  0  0  0  0  0  0  0  0  0
   13.7648  -25.6487  -14.7241 C   0  0  0  0  0  0  0  0  0  0  0  0
   15.0411  -25.1974  -14.9712 C   0  0  0  0  0  0  0  0  0  0  0  0
   15.4836  -23.9880  -14.4797 C   0  0  0  0  0  0  0  0  0  0  0  0
   18.4534  -25.3289  -13.4755 C   0  0  0  0  0  0  0  0  0  0  0  0
   18.5051  -26.6321  -13.9218 O   0  0  0  0  0  0  0  0  0  0  0  0
   17.9640  -25.1066  -12.3402 O   0  0  0  0  0  0  0  0  0  0  0  0
  2  3  1  0
  2  1  1  6
  3  4  1  0
  4  5  1  0
  5  9  1  0
  5  6  2  0
  7 14  1  0
  7  2  1  0
  8  7  2  0
 11 10  1  1
 12 11  1  0
 13 11  1  0
 13 14  1  1
 13 15  1  0
 15 17  1  0
 16 15  2  0
 17 18  1  0
 18 19  1  6
 19 20  1  0
 20 21  2  0
 20 28  1  0
 21 22  1  0
 22 23  1  0
 23 24  2  0
 24 25  1  0
 26 25  2  0
 27 26  1  0
 28 27  2  0
 28 23  1  0
 29 30  1  0
 29 18  1  0
 31 29  2  0
M  END
$$$$
