EVW.pdb
     RDKit          3D

 31 32  0  0  1  0  0  0  0  0999 V2000
   21.7773  -21.1835  -14.8295 N   0  0  0  0  0  0  0  0  0  0  0  0
   21.0980  -20.5874  -13.6906 C   0  0  1  0  0  0  0  0  0  0  0  0
   19.6406  -20.4486  -14.0820 C   0  0  0  0  0  0  0  0  0  0  0  0
   19.4591  -19.3891  -15.1451 C   0  0  0  0  0  0  0  0  0  0  0  0
   19.4036  -18.0697  -14.5102 C   0  0  0  0  0  0  0  0  0  0  0  0
   20.4379  -17.3653  -14.4403 O   0  0  0  0  0  0  0  0  0  0  0  0
   21.2758  -21.3921  -12.4715 C   0  0  0  0  0  0  0  0  0  0  0  0
   21.2756  -22.6427  -12.5587 O   0  0  0  0  0  0  0  0  0  0  0  0
   18.2356  -17.5418  -13.9665 O   0  0  0  0  0  0  0  0  0  0  0  0
   22.6898  -21.6740   -7.7416 C   0  0  0  0  0  0  0  0  0  0  0  0
   22.5978  -20.8892   -9.0316 C   0  0  2  0  0  0  0  0  0  0  0  0
   22.3084  -19.4239   -8.7676 C   0  0  0  0  0  0  0  0  0  0  0  0
   21.5824  -21.4962   -9.9728 C   0  0  2  0  0  0  0  0  0  0  0  0
   21.4468  -20.7770  -11.2030 N   0  0  0  0  0  0  0  0  0  0  0  0
   20.2799  -21.6246   -9.2684 C   0  0  0  0  0  0  0  0  0  0  0  0
   19.3696  -20.7757   -9.4645 O   0  0  0  0  0  0  0  0  0  0  0  0
   20.0230  -22.6834   -8.3718 N   0  0  0  0  0  0  0  0  0  0  0  0
   18.7497  -22.8797   -7.7060 C   0  0  1  0  0  0  0  0  0  0  0  0
   17.6708  -23.0055   -8.7590 C   0  0  0  0  0  0  0  0  0  0  0  0
   17.8689  -24.1526   -9.6462 C   0  0  0  0  0  0  0  0  0  0  0  0
   18.1570  -25.4413   -9.2569 C   0  0  0  0  0  0  0  0  0  0  0  0
   18.2721  -26.2369  -10.3446 N   0  0  0  0  0  0  0  0  0  0  0  0
   18.0638  -25.4915  -11.4515 C   0  0  0  0  0  0  0  0  0  0  0  0
   18.0701  -25.8250  -12.7852 C   0  0  0  0  0  0  0  0  0  0  0  0
   17.8241  -24.8691  -13.7502 C   0  0  0  0  0  0  0  0  0  0  0  0
   17.5744  -23.5833  -13.3374 C   0  0  0  0  0  0  0  0  0  0  0  0
   17.5672  -23.2454  -12.0035 C   0  0  0  0  0  0  0  0  0  0  0  0
   17.8102  -24.1835  -11.0231 C   0  0  0  0  0  0  0  0  0  0  0  0
   18.7808  -24.0477   -6.7936 C   0  0  0  0  0  0  0  0  0  0  0  0
   17.7443  -24.3060   -5.9223 O   0  0  0  0  0  0  0  0  0  0  0  0
   19.7635  -24.8301   -6.7995 O   0  0  0  0  0  0  0  0  0  0  0  0
  2  3  1  0
  2  1  1  6
  3  4  1  0
  4  5  1  0
  5  9  1  0
  5  6  2  0
  7 14  1  0
  7  2  1  0
  8  7  2  0
 11 10  1  1
 12 11  1  0
 13 11  1  0
 13 14  1  6
 13 15  1  0
 15 17  1  0
 16 15  2  0
 17 18  1  0
 18 19  1  6
 19 20  1  0
 20 21  2  0
 20 28  1  0
 21 22  1  0
 22 23  1  0
 23 24  2  0
 24 25  1  0
 26 25  2  0
 27 26  1  0
 28 27  2  0
 28 23  1  0
 29 30  1  0
 29 18  1  0
 31 29  2  0
M  END
$$$$
