EVW.pdb
     RDKit          3D

 31 32  0  0  1  0  0  0  0  0999 V2000
   19.6748  -22.1370  -13.7743 N   0  0  0  0  0  0  0  0  0  0  0  0
   20.5500  -21.1090  -13.2347 C   0  0  1  0  0  0  0  0  0  0  0  0
   19.7877  -20.4417  -12.1077 C   0  0  0  0  0  0  0  0  0  0  0  0
   18.6250  -19.6338  -12.6381 C   0  0  0  0  0  0  0  0  0  0  0  0
   19.1129  -18.3367  -13.1140 C   0  0  0  0  0  0  0  0  0  0  0  0
   18.8503  -17.9593  -14.2800 O   0  0  0  0  0  0  0  0  0  0  0  0
   21.8339  -21.6710  -12.7860 C   0  0  0  0  0  0  0  0  0  0  0  0
   21.8407  -22.7577  -12.1610 O   0  0  0  0  0  0  0  0  0  0  0  0
   19.8713  -17.4784  -12.3224 O   0  0  0  0  0  0  0  0  0  0  0  0
   26.5757  -22.3171  -13.5469 C   0  0  0  0  0  0  0  0  0  0  0  0
   25.2327  -21.7405  -13.9374 C   0  0  2  0  0  0  0  0  0  0  0  0
   25.3918  -20.4596  -14.7339 C   0  0  0  0  0  0  0  0  0  0  0  0
   24.3492  -21.5375  -12.7276 C   0  0  2  0  0  0  0  0  0  0  0  0
   23.0600  -21.0045  -13.0485 N   0  0  0  0  0  0  0  0  0  0  0  0
   25.0623  -20.6858  -11.7401 C   0  0  0  0  0  0  0  0  0  0  0  0
   25.0182  -19.4305  -11.8406 O   0  0  0  0  0  0  0  0  0  0  0  0
   25.7999  -21.2444  -10.6748 N   0  0  0  0  0  0  0  0  0  0  0  0
   26.6405  -20.4658   -9.7859 C   0  0  1  0  0  0  0  0  0  0  0  0
   26.2382  -20.7653   -8.3586 C   0  0  0  0  0  0  0  0  0  0  0  0
   26.9511  -19.9436   -7.3794 C   0  0  0  0  0  0  0  0  0  0  0  0
   26.9313  -18.5692   -7.3030 C   0  0  0  0  0  0  0  0  0  0  0  0
   27.7055  -18.1532   -6.2750 N   0  0  0  0  0  0  0  0  0  0  0  0
   28.2392  -19.2353   -5.6681 C   0  0  0  0  0  0  0  0  0  0  0  0
   29.0834  -19.3469   -4.5886 C   0  0  0  0  0  0  0  0  0  0  0  0
   29.4983  -20.5866   -4.1457 C   0  0  0  0  0  0  0  0  0  0  0  0
   29.0436  -21.6971   -4.8137 C   0  0  0  0  0  0  0  0  0  0  0  0
   28.1986  -21.5897   -5.8945 C   0  0  0  0  0  0  0  0  0  0  0  0
   27.7716  -20.3622   -6.3538 C   0  0  0  0  0  0  0  0  0  0  0  0
   28.0807  -20.7213  -10.0274 C   0  0  0  0  0  0  0  0  0  0  0  0
   29.0417  -19.7945   -9.6843 O   0  0  0  0  0  0  0  0  0  0  0  0
   28.4532  -21.7988  -10.5547 O   0  0  0  0  0  0  0  0  0  0  0  0
  2  3  1  0
  2  1  1  1
  3  4  1  0
  4  5  1  0
  5  9  1  0
  5  6  2  0
  7 14  1  0
  7  2  1  0
  8  7  2  0
 11 10  1  1
 12 11  1  0
 13 11  1  0
 13 14  1  6
 13 15  1  0
 15 17  1  0
 16 15  2  0
 17 18  1  0
 18 19  1  1
 19 20  1  0
 20 21  2  0
 20 28  1  0
 21 22  1  0
 22 23  1  0
 23 24  2  0
 24 25  1  0
 26 25  2  0
 27 26  1  0
 28 27  2  0
 28 23  1  0
 29 30  1  0
 29 18  1  0
 31 29  2  0
M  END
$$$$
