EVW.pdb
     RDKit          3D

 31 32  0  0  1  0  0  0  0  0999 V2000
   16.7702   -0.0800  -15.9805 N   0  0  0  0  0  0  0  0  0  0  0  0
   17.3266   -1.2180  -16.6941 C   0  0  1  0  0  0  0  0  0  0  0  0
   18.4440   -0.6775  -17.5635 C   0  0  0  0  0  0  0  0  0  0  0  0
   17.8954    0.1217  -18.7236 C   0  0  0  0  0  0  0  0  0  0  0  0
   19.0075    0.6314  -19.5302 C   0  0  0  0  0  0  0  0  0  0  0  0
   18.7814    1.4101  -20.4859 O   0  0  0  0  0  0  0  0  0  0  0  0
   17.7932   -2.2627  -15.7686 C   0  0  0  0  0  0  0  0  0  0  0  0
   18.1557   -1.9386  -14.6131 O   0  0  0  0  0  0  0  0  0  0  0  0
   20.3351    0.2898  -19.2875 O   0  0  0  0  0  0  0  0  0  0  0  0
   16.6176   -6.3177  -16.1828 C   0  0  0  0  0  0  0  0  0  0  0  0
   17.2242   -5.6787  -14.9530 C   0  0  2  0  0  0  0  0  0  0  0  0
   16.1603   -5.0417  -14.0795 C   0  0  0  0  0  0  0  0  0  0  0  0
   18.3051   -4.6893  -15.3243 C   0  0  2  0  0  0  0  0  0  0  0  0
   17.8391   -3.6264  -16.1621 N   0  0  0  0  0  0  0  0  0  0  0  0
   19.4408   -5.4183  -15.9472 C   0  0  0  0  0  0  0  0  0  0  0  0
   19.4444   -5.6400  -17.1876 O   0  0  0  0  0  0  0  0  0  0  0  0
   20.5345   -5.8787  -15.1838 N   0  0  0  0  0  0  0  0  0  0  0  0
   21.6239   -6.6620  -15.7341 C   0  0  1  0  0  0  0  0  0  0  0  0
   22.8406   -6.4784  -14.8540 C   0  0  0  0  0  0  0  0  0  0  0  0
   23.9899   -7.2701  -15.2952 C   0  0  0  0  0  0  0  0  0  0  0  0
   24.9365   -6.8850  -16.2175 C   0  0  0  0  0  0  0  0  0  0  0  0
   25.8509   -7.8684  -16.3781 N   0  0  0  0  0  0  0  0  0  0  0  0
   25.5224   -8.9021  -15.5732 C   0  0  0  0  0  0  0  0  0  0  0  0
   26.1240  -10.1216  -15.3700 C   0  0  0  0  0  0  0  0  0  0  0  0
   25.5899  -11.0290  -14.4774 C   0  0  0  0  0  0  0  0  0  0  0  0
   24.4462  -10.6765  -13.8038 C   0  0  0  0  0  0  0  0  0  0  0  0
   23.8411   -9.4570  -14.0043 C   0  0  0  0  0  0  0  0  0  0  0  0
   24.3569   -8.5357  -14.8905 C   0  0  0  0  0  0  0  0  0  0  0  0
   21.2526   -8.0891  -15.8862 C   0  0  0  0  0  0  0  0  0  0  0  0
   21.5797   -8.7990  -17.0216 O   0  0  0  0  0  0  0  0  0  0  0  0
   20.6267   -8.6817  -14.9724 O   0  0  0  0  0  0  0  0  0  0  0  0
  2  3  1  0
  2  1  1  1
  3  4  1  0
  4  5  1  0
  5  9  1  0
  5  6  2  0
  7 14  1  0
  7  2  1  0
  8  7  2  0
 11 10  1  6
 12 11  1  0
 13 11  1  0
 13 14  1  6
 13 15  1  0
 15 17  1  0
 16 15  2  0
 17 18  1  0
 18 19  1  1
 19 20  1  0
 20 21  2  0
 20 28  1  0
 21 22  1  0
 22 23  1  0
 23 24  2  0
 24 25  1  0
 26 25  2  0
 27 26  1  0
 28 27  2  0
 28 23  1  0
 29 30  1  0
 29 18  1  0
 31 29  2  0
M  END
$$$$
