WCN.pdb
     RDKit          3D

 29 30  0  0  1  0  0  0  0  0999 V2000
   27.6380  -19.2189  -10.1010 N   0  0  0  0  0  0  0  0  0  0  0  0
   26.8294  -20.3746   -9.8536 C   0  0  1  0  0  0  0  0  0  0  0  0
   26.3192  -20.5259   -8.4612 C   0  0  0  0  0  0  0  0  0  0  0  0
   27.1829  -19.8415   -7.4755 C   0  0  0  0  0  0  0  0  0  0  0  0
   27.5918  -18.5241   -7.5096 C   0  0  0  0  0  0  0  0  0  0  0  0
   28.3327  -18.3370   -6.4112 N   0  0  0  0  0  0  0  0  0  0  0  0
   28.4193  -19.4592   -5.6802 C   0  0  0  0  0  0  0  0  0  0  0  0
   29.0601  -19.7599   -4.4967 C   0  0  0  0  0  0  0  0  0  0  0  0
   28.9765  -21.0297   -3.9752 C   0  0  0  0  0  0  0  0  0  0  0  0
   28.2569  -22.0260   -4.6158 C   0  0  0  0  0  0  0  0  0  0  0  0
   27.6266  -21.6959   -5.7972 C   0  0  0  0  0  0  0  0  0  0  0  0
   27.6958  -20.4236   -6.3415 C   0  0  0  0  0  0  0  0  0  0  0  0
   25.7534  -20.4723  -10.8738 C   0  0  0  0  0  0  0  0  0  0  0  0
   25.0420  -19.4523  -11.1220 O   0  0  0  0  0  0  0  0  0  0  0  0
   25.4584  -21.6402  -11.6019 N   0  0  0  0  0  0  0  0  0  0  0  0
   24.8277  -21.6536  -12.8997 C   0  0  1  0  0  0  0  0  0  0  0  0
   25.4081  -22.8232  -13.6680 C   0  0  0  0  0  0  0  0  0  0  0  0
   27.1238  -22.3933  -14.0726 S   0  0  0  0  0  0  0  0  0  0  0  0
   23.3494  -21.7325  -12.8075 C   0  0  0  0  0  0  0  0  0  0  0  0
   22.8370  -22.6152  -12.0704 O   0  0  0  0  0  0  0  0  0  0  0  0
   20.2562  -19.4121  -11.2262 N   0  0  0  0  0  0  0  0  0  0  0  0
   20.0078  -18.8402  -12.5019 C   0  0  0  0  0  0  0  0  0  0  0  0
   19.5014  -17.6894  -12.5231 O   0  0  0  0  0  0  0  0  0  0  0  0
   20.3551  -19.6227  -13.6889 C   0  0  0  0  0  0  0  0  0  0  0  0
   21.0249  -20.9284  -13.3933 C   0  0  2  0  0  0  0  0  0  0  0  0
   22.4618  -20.8770  -13.4966 N   0  0  0  0  0  0  0  0  0  0  0  0
   20.4524  -22.0604  -14.1670 C   0  0  0  0  0  0  0  0  0  0  0  0
   19.3127  -22.7100  -13.6570 O   0  0  0  0  0  0  0  0  0  0  0  0
   20.9021  -22.4820  -15.2346 O   0  0  0  0  0  0  0  0  0  0  0  0
  2  1  1  1
  2 13  1  0
  3  2  1  0
  3  4  1  0
  4  5  2  0
  4 12  1  0
  5  6  1  0
  6  7  1  0
  7  8  2  0
  8  9  1  0
 10  9  2  0
 11 10  1  0
 12 11  2  0
 12  7  1  0
 13 14  2  0
 15 16  1  0
 15 13  1  0
 16 17  1  6
 17 18  1  0
 19 16  1  0
 19 26  1  0
 20 19  2  0
 22 21  1  0
 23 22  2  0
 24 22  1  0
 25 26  1  0
 25 24  1  6
 27 25  1  0
 28 27  1  0
 29 27  2  0
M  END
$$$$
