WCN.pdb
     RDKit          3D

 29 30  0  0  1  0  0  0  0  0999 V2000
   27.2425  -21.1458  -14.6197 N   0  0  0  0  0  0  0  0  0  0  0  0
   26.4133  -21.6940  -13.5888 C   0  0  1  0  0  0  0  0  0  0  0  0
   26.2497  -20.8529  -12.3692 C   0  0  0  0  0  0  0  0  0  0  0  0
   27.4787  -20.8201  -11.5477 C   0  0  0  0  0  0  0  0  0  0  0  0
   28.7794  -20.8019  -12.0079 C   0  0  0  0  0  0  0  0  0  0  0  0
   29.5569  -20.7472  -10.9202 N   0  0  0  0  0  0  0  0  0  0  0  0
   28.8263  -20.7300   -9.7946 C   0  0  0  0  0  0  0  0  0  0  0  0
   29.1642  -20.6838   -8.4584 C   0  0  0  0  0  0  0  0  0  0  0  0
   28.1768  -20.6847   -7.5011 C   0  0  0  0  0  0  0  0  0  0  0  0
   26.8360  -20.7316   -7.8487 C   0  0  0  0  0  0  0  0  0  0  0  0
   26.5284  -20.7769   -9.1924 C   0  0  0  0  0  0  0  0  0  0  0  0
   27.5056  -20.7762  -10.1748 C   0  0  0  0  0  0  0  0  0  0  0  0
   25.1150  -22.1370  -14.1599 C   0  0  0  0  0  0  0  0  0  0  0  0
   24.4099  -21.3072  -14.8098 O   0  0  0  0  0  0  0  0  0  0  0  0
   24.5978  -23.4396  -14.0301 N   0  0  0  0  0  0  0  0  0  0  0  0
   23.2589  -23.8256  -14.4049 C   0  0  1  0  0  0  0  0  0  0  0  0
   23.1891  -25.3368  -14.3245 C   0  0  0  0  0  0  0  0  0  0  0  0
   21.5658  -25.8280  -14.9696 S   0  0  0  0  0  0  0  0  0  0  0  0
   22.2275  -23.1794  -13.5570 C   0  0  0  0  0  0  0  0  0  0  0  0
   22.5964  -22.3499  -12.6847 O   0  0  0  0  0  0  0  0  0  0  0  0
   18.8657  -20.1250  -11.3668 N   0  0  0  0  0  0  0  0  0  0  0  0
   18.6160  -20.5418  -12.7010 C   0  0  0  0  0  0  0  0  0  0  0  0
   17.5000  -20.2385  -13.1947 O   0  0  0  0  0  0  0  0  0  0  0  0
   19.6643  -21.2870  -13.3992 C   0  0  0  0  0  0  0  0  0  0  0  0
   19.8205  -22.7049  -12.9453 C   0  0  2  0  0  0  0  0  0  0  0  0
   20.8414  -23.4307  -13.6586 N   0  0  0  0  0  0  0  0  0  0  0  0
   18.5333  -23.4462  -12.9105 C   0  0  0  0  0  0  0  0  0  0  0  0
   17.7749  -23.5248  -14.0936 O   0  0  0  0  0  0  0  0  0  0  0  0
   18.0699  -24.0057  -11.9145 O   0  0  0  0  0  0  0  0  0  0  0  0
  2  1  1  6
  2 13  1  0
  3  2  1  0
  3  4  1  0
  4  5  2  0
  4 12  1  0
  5  6  1  0
  6  7  1  0
  7  8  2  0
  8  9  1  0
 10  9  2  0
 11 10  1  0
 12 11  2  0
 12  7  1  0
 13 14  2  0
 15 16  1  0
 15 13  1  0
 16 17  1  1
 17 18  1  0
 19 16  1  0
 19 26  1  0
 20 19  2  0
 22 21  1  0
 23 22  2  0
 24 22  1  0
 25 26  1  0
 25 24  1  6
 27 25  1  0
 28 27  1  0
 29 27  2  0
M  END
$$$$
