WCN.pdb
     RDKit          3D

 29 30  0  0  1  0  0  0  0  0999 V2000
   25.9368  -18.4748   -9.3927 N   0  0  0  0  0  0  0  0  0  0  0  0
   26.5749  -19.7198   -9.6987 C   0  0  1  0  0  0  0  0  0  0  0  0
   26.4374  -20.7912   -8.6714 C   0  0  0  0  0  0  0  0  0  0  0  0
   26.7992  -20.3143   -7.3194 C   0  0  0  0  0  0  0  0  0  0  0  0
   26.0010  -19.5898   -6.4581 C   0  0  0  0  0  0  0  0  0  0  0  0
   26.7252  -19.4048   -5.3483 N   0  0  0  0  0  0  0  0  0  0  0  0
   27.9383  -19.9692   -5.4536 C   0  0  0  0  0  0  0  0  0  0  0  0
   29.0162  -20.0415   -4.5965 C   0  0  0  0  0  0  0  0  0  0  0  0
   30.1604  -20.6965   -4.9877 C   0  0  0  0  0  0  0  0  0  0  0  0
   30.2592  -21.2923   -6.2351 C   0  0  0  0  0  0  0  0  0  0  0  0
   29.1654  -21.2040   -7.0706 C   0  0  0  0  0  0  0  0  0  0  0  0
   28.0018  -20.5502   -6.6983 C   0  0  0  0  0  0  0  0  0  0  0  0
   26.1827  -20.1735  -11.0583 C   0  0  0  0  0  0  0  0  0  0  0  0
   24.9660  -20.1004  -11.4076 O   0  0  0  0  0  0  0  0  0  0  0  0
   27.0828  -20.6902  -12.0092 N   0  0  0  0  0  0  0  0  0  0  0  0
   26.8051  -20.7942  -13.4214 C   0  0  1  0  0  0  0  0  0  0  0  0
   28.1387  -20.8751  -14.1355 C   0  0  0  0  0  0  0  0  0  0  0  0
   28.9681  -19.2796  -13.8930 S   0  0  0  0  0  0  0  0  0  0  0  0
   25.9362  -21.9530  -13.7414 C   0  0  0  0  0  0  0  0  0  0  0  0
   25.9911  -22.9707  -13.0023 O   0  0  0  0  0  0  0  0  0  0  0  0
   21.1552  -23.0913  -13.0453 N   0  0  0  0  0  0  0  0  0  0  0  0
   21.6326  -21.7674  -13.2342 C   0  0  0  0  0  0  0  0  0  0  0  0
   20.7771  -20.8458  -13.2301 O   0  0  0  0  0  0  0  0  0  0  0  0
   23.0712  -21.5718  -13.4182 C   0  0  0  0  0  0  0  0  0  0  0  0
   23.6061  -22.1040  -14.7112 C   0  0  2  0  0  0  0  0  0  0  0  0
   25.0387  -21.9983  -14.8309 N   0  0  0  0  0  0  0  0  0  0  0  0
   22.9068  -21.5485  -15.8988 C   0  0  0  0  0  0  0  0  0  0  0  0
   23.1722  -20.2166  -16.2685 O   0  0  0  0  0  0  0  0  0  0  0  0
   22.1016  -22.1695  -16.5957 O   0  0  0  0  0  0  0  0  0  0  0  0
  2  1  1  1
  2 13  1  0
  3  2  1  0
  3  4  1  0
  4  5  2  0
  4 12  1  0
  5  6  1  0
  6  7  1  0
  7  8  2  0
  8  9  1  0
 10  9  2  0
 11 10  1  0
 12 11  2  0
 12  7  1  0
 13 14  2  0
 15 16  1  0
 15 13  1  0
 16 17  1  6
 17 18  1  0
 19 16  1  0
 19 26  1  0
 20 19  2  0
 22 21  1  0
 23 22  2  0
 24 22  1  0
 25 26  1  0
 25 24  1  1
 27 25  1  0
 28 27  1  0
 29 27  2  0
M  END
$$$$
