WCN.pdb
     RDKit          3D

 29 30  0  0  1  0  0  0  0  0999 V2000
   24.8999  -19.2770  -12.0422 N   0  0  0  0  0  0  0  0  0  0  0  0
   26.0149  -20.1647  -12.1822 C   0  0  1  0  0  0  0  0  0  0  0  0
   26.0670  -21.3008  -11.2186 C   0  0  0  0  0  0  0  0  0  0  0  0
   26.1352  -20.8373   -9.8162 C   0  0  0  0  0  0  0  0  0  0  0  0
   25.0712  -20.6270   -8.9632 C   0  0  0  0  0  0  0  0  0  0  0  0
   25.6014  -20.2394   -7.7974 N   0  0  0  0  0  0  0  0  0  0  0  0
   26.9411  -20.1904   -7.8592 C   0  0  0  0  0  0  0  0  0  0  0  0
   27.9102  -19.8510   -6.9387 C   0  0  0  0  0  0  0  0  0  0  0  0
   29.2378  -19.8875   -7.2957 C   0  0  0  0  0  0  0  0  0  0  0  0
   29.6311  -20.2606   -8.5712 C   0  0  0  0  0  0  0  0  0  0  0  0
   28.6400  -20.5948   -9.4702 C   0  0  0  0  0  0  0  0  0  0  0  0
   27.2962  -20.5664   -9.1333 C   0  0  0  0  0  0  0  0  0  0  0  0
   26.1431  -20.6038  -13.5959 C   0  0  0  0  0  0  0  0  0  0  0  0
   25.1044  -20.6670  -14.3205 O   0  0  0  0  0  0  0  0  0  0  0  0
   27.3604  -20.9632  -14.2045 N   0  0  0  0  0  0  0  0  0  0  0  0
   27.5170  -21.2396  -15.6121 C   0  0  1  0  0  0  0  0  0  0  0  0
   28.9976  -21.4320  -15.8689 C   0  0  0  0  0  0  0  0  0  0  0  0
   29.1820  -21.8436  -17.6265 S   0  0  0  0  0  0  0  0  0  0  0  0
   26.7238  -22.4149  -16.0476 C   0  0  0  0  0  0  0  0  0  0  0  0
   26.8241  -23.4863  -15.3940 O   0  0  0  0  0  0  0  0  0  0  0  0
   23.7149  -25.9404  -17.5922 N   0  0  0  0  0  0  0  0  0  0  0  0
   22.9573  -24.7657  -17.3426 C   0  0  0  0  0  0  0  0  0  0  0  0
   21.7366  -24.9180  -17.0821 O   0  0  0  0  0  0  0  0  0  0  0  0
   23.6439  -23.4749  -17.4057 C   0  0  0  0  0  0  0  0  0  0  0  0
   25.1216  -23.5717  -17.6248 C   0  0  2  0  0  0  0  0  0  0  0  0
   25.8516  -22.4195  -17.1583 N   0  0  0  0  0  0  0  0  0  0  0  0
   25.4770  -23.9257  -19.0235 C   0  0  0  0  0  0  0  0  0  0  0  0
   26.3148  -25.0359  -19.2398 O   0  0  0  0  0  0  0  0  0  0  0  0
   25.0916  -23.3164  -20.0234 O   0  0  0  0  0  0  0  0  0  0  0  0
  2  1  1  6
  2 13  1  0
  3  2  1  0
  3  4  1  0
  4  5  2  0
  4 12  1  0
  5  6  1  0
  6  7  1  0
  7  8  2  0
  8  9  1  0
 10  9  2  0
 11 10  1  0
 12 11  2  0
 12  7  1  0
 13 14  2  0
 15 16  1  0
 15 13  1  0
 16 17  1  1
 17 18  1  0
 19 16  1  0
 19 26  1  0
 20 19  2  0
 22 21  1  0
 23 22  2  0
 24 22  1  0
 25 26  1  0
 25 24  1  6
 27 25  1  0
 28 27  1  0
 29 27  2  0
M  END
$$$$
