WCN.pdb
     RDKit          3D

 29 30  0  0  1  0  0  0  0  0999 V2000
   23.1587  -20.7093  -14.6343 N   0  0  0  0  0  0  0  0  0  0  0  0
   22.0289  -20.2817  -13.8653 C   0  0  1  0  0  0  0  0  0  0  0  0
   20.7660  -20.0678  -14.6278 C   0  0  0  0  0  0  0  0  0  0  0  0
   20.7348  -18.7471  -15.2919 C   0  0  0  0  0  0  0  0  0  0  0  0
   21.0044  -18.4835  -16.6192 C   0  0  0  0  0  0  0  0  0  0  0  0
   20.8293  -17.1665  -16.7787 N   0  0  0  0  0  0  0  0  0  0  0  0
   20.4644  -16.5768  -15.6298 C   0  0  0  0  0  0  0  0  0  0  0  0
   20.1803  -15.2692  -15.2963 C   0  0  0  0  0  0  0  0  0  0  0  0
   19.8321  -14.9513  -14.0044 C   0  0  0  0  0  0  0  0  0  0  0  0
   19.7586  -15.9222  -13.0181 C   0  0  0  0  0  0  0  0  0  0  0  0
   20.0478  -17.2209  -13.3811 C   0  0  0  0  0  0  0  0  0  0  0  0
   20.4001  -17.5653  -14.6762 C   0  0  0  0  0  0  0  0  0  0  0  0
   21.8464  -21.1710  -12.6889 C   0  0  0  0  0  0  0  0  0  0  0  0
   22.2908  -22.3577  -12.7359 O   0  0  0  0  0  0  0  0  0  0  0  0
   21.2019  -20.7847  -11.4986 N   0  0  0  0  0  0  0  0  0  0  0  0
   21.0493  -21.6342  -10.3422 C   0  0  1  0  0  0  0  0  0  0  0  0
   21.4291  -20.8111   -9.1284 C   0  0  0  0  0  0  0  0  0  0  0  0
   20.5619  -19.2237   -9.2714 S   0  0  0  0  0  0  0  0  0  0  0  0
   19.6783  -22.1884  -10.2266 C   0  0  0  0  0  0  0  0  0  0  0  0
   18.7331  -21.5845  -10.7982 O   0  0  0  0  0  0  0  0  0  0  0  0
   19.3238  -23.8333   -6.9563 N   0  0  0  0  0  0  0  0  0  0  0  0
   18.6407  -25.0408   -7.2587 C   0  0  0  0  0  0  0  0  0  0  0  0
   18.6726  -25.9482   -6.3888 O   0  0  0  0  0  0  0  0  0  0  0  0
   17.9553  -25.1422   -8.5478 C   0  0  0  0  0  0  0  0  0  0  0  0
   18.0209  -23.9004   -9.3812 C   0  0  2  0  0  0  0  0  0  0  0  0
   19.3515  -23.3615   -9.5112 N   0  0  0  0  0  0  0  0  0  0  0  0
   17.0418  -22.8665   -8.9566 C   0  0  0  0  0  0  0  0  0  0  0  0
   17.5328  -21.6561   -8.4321 O   0  0  0  0  0  0  0  0  0  0  0  0
   15.8169  -22.9857   -9.0278 O   0  0  0  0  0  0  0  0  0  0  0  0
  2  1  1  6
  2 13  1  0
  3  2  1  0
  3  4  1  0
  4  5  2  0
  4 12  1  0
  5  6  1  0
  6  7  1  0
  7  8  2  0
  8  9  1  0
 10  9  2  0
 11 10  1  0
 12 11  2  0
 12  7  1  0
 13 14  2  0
 15 16  1  0
 15 13  1  0
 16 17  1  1
 17 18  1  0
 19 16  1  0
 19 26  1  0
 20 19  2  0
 22 21  1  0
 23 22  2  0
 24 22  1  0
 25 26  1  0
 25 24  1  1
 27 25  1  0
 28 27  1  0
 29 27  2  0
M  END
$$$$
