WCN.pdb
     RDKit          3D

 29 30  0  0  1  0  0  0  0  0999 V2000
   22.3743  -12.4465  -16.5837 N   0  0  0  0  0  0  0  0  0  0  0  0
   23.2223  -11.3310  -16.2885 C   0  0  1  0  0  0  0  0  0  0  0  0
   24.2882  -11.0410  -17.2894 C   0  0  0  0  0  0  0  0  0  0  0  0
   25.1714  -12.2054  -17.5138 C   0  0  0  0  0  0  0  0  0  0  0  0
   25.0363  -13.1680  -18.4931 C   0  0  0  0  0  0  0  0  0  0  0  0
   26.0678  -14.0055  -18.3347 N   0  0  0  0  0  0  0  0  0  0  0  0
   26.8512  -13.6320  -17.3110 C   0  0  0  0  0  0  0  0  0  0  0  0
   28.0011  -14.1649  -16.7676 C   0  0  0  0  0  0  0  0  0  0  0  0
   28.5960  -13.5547  -15.6883 C   0  0  0  0  0  0  0  0  0  0  0  0
   28.0634  -12.4052  -15.1263 C   0  0  0  0  0  0  0  0  0  0  0  0
   26.9132  -11.8952  -15.6910 C   0  0  0  0  0  0  0  0  0  0  0  0
   26.2964  -12.4918  -16.7789 C   0  0  0  0  0  0  0  0  0  0  0  0
   22.4000  -10.1371  -15.9623 C   0  0  0  0  0  0  0  0  0  0  0  0
   21.3508   -9.9061  -16.6359 O   0  0  0  0  0  0  0  0  0  0  0  0
   22.7064   -9.2224  -14.9372 N   0  0  0  0  0  0  0  0  0  0  0  0
   21.9790   -8.0008  -14.6913 C   0  0  1  0  0  0  0  0  0  0  0  0
   21.6611   -7.9590  -13.2106 C   0  0  0  0  0  0  0  0  0  0  0  0
   21.2882   -6.2321  -12.7967 S   0  0  0  0  0  0  0  0  0  0  0  0
   22.7305   -6.7991  -15.1288 C   0  0  0  0  0  0  0  0  0  0  0  0
   23.9852   -6.8011  -15.0247 O   0  0  0  0  0  0  0  0  0  0  0  0
   25.7060   -3.9602  -18.4310 N   0  0  0  0  0  0  0  0  0  0  0  0
   24.3109   -3.8740  -18.1812 C   0  0  0  0  0  0  0  0  0  0  0  0
   23.7189   -2.8454  -18.5967 O   0  0  0  0  0  0  0  0  0  0  0  0
   23.6681   -4.9768  -17.4654 C   0  0  0  0  0  0  0  0  0  0  0  0
   22.8520   -4.5534  -16.2840 C   0  0  2  0  0  0  0  0  0  0  0  0
   22.1321   -5.6360  -15.6612 N   0  0  0  0  0  0  0  0  0  0  0  0
   21.9689   -3.3947  -16.5765 C   0  0  0  0  0  0  0  0  0  0  0  0
   22.4507   -2.1010  -16.3023 O   0  0  0  0  0  0  0  0  0  0  0  0
   20.8322   -3.4770  -17.0465 O   0  0  0  0  0  0  0  0  0  0  0  0
  2  1  1  6
  2 13  1  0
  3  2  1  0
  3  4  1  0
  4  5  2  0
  4 12  1  0
  5  6  1  0
  6  7  1  0
  7  8  2  0
  8  9  1  0
 10  9  2  0
 11 10  1  0
 12 11  2  0
 12  7  1  0
 13 14  2  0
 15 16  1  0
 15 13  1  0
 16 17  1  1
 17 18  1  0
 19 16  1  0
 19 26  1  0
 20 19  2  0
 22 21  1  0
 23 22  2  0
 24 22  1  0
 25 26  1  0
 25 24  1  6
 27 25  1  0
 28 27  1  0
 29 27  2  0
M  END
$$$$
