WCN.pdb
     RDKit          3D

 29 30  0  0  1  0  0  0  0  0999 V2000
   28.0872  -20.9303  -10.9226 N   0  0  0  0  0  0  0  0  0  0  0  0
   26.7994  -21.0859  -10.3161 C   0  0  1  0  0  0  0  0  0  0  0  0
   26.6705  -20.5738   -8.9221 C   0  0  0  0  0  0  0  0  0  0  0  0
   27.9235  -20.7331   -8.1535 C   0  0  0  0  0  0  0  0  0  0  0  0
   29.0823  -21.3480   -8.5813 C   0  0  0  0  0  0  0  0  0  0  0  0
   29.9559  -21.2347   -7.5740 N   0  0  0  0  0  0  0  0  0  0  0  0
   29.4199  -20.5838   -6.5299 C   0  0  0  0  0  0  0  0  0  0  0  0
   29.9123  -20.2345   -5.2900 C   0  0  0  0  0  0  0  0  0  0  0  0
   29.1110  -19.5591   -4.3995 C   0  0  0  0  0  0  0  0  0  0  0  0
   27.8068  -19.2167   -4.7198 C   0  0  0  0  0  0  0  0  0  0  0  0
   27.3419  -19.5789   -5.9667 C   0  0  0  0  0  0  0  0  0  0  0  0
   28.1307  -20.2589   -6.8808 C   0  0  0  0  0  0  0  0  0  0  0  0
   25.7428  -20.5628  -11.2205 C   0  0  0  0  0  0  0  0  0  0  0  0
   25.5944  -19.3089  -11.3380 O   0  0  0  0  0  0  0  0  0  0  0  0
   24.8745  -21.3747  -11.9742 N   0  0  0  0  0  0  0  0  0  0  0  0
   23.8423  -20.8718  -12.8482 C   0  0  1  0  0  0  0  0  0  0  0  0
   24.3753  -20.9526  -14.2640 C   0  0  0  0  0  0  0  0  0  0  0  0
   25.3016  -22.5075  -14.3942 S   0  0  0  0  0  0  0  0  0  0  0  0
   22.5651  -21.6107  -12.6960 C   0  0  0  0  0  0  0  0  0  0  0  0
   22.6040  -22.8123  -12.3223 O   0  0  0  0  0  0  0  0  0  0  0  0
   18.3531  -23.8211  -10.6394 N   0  0  0  0  0  0  0  0  0  0  0  0
   18.3573  -22.4569  -11.0332 C   0  0  0  0  0  0  0  0  0  0  0  0
   17.2396  -21.8920  -11.1474 O   0  0  0  0  0  0  0  0  0  0  0  0
   19.6485  -21.8121  -11.2757 C   0  0  0  0  0  0  0  0  0  0  0  0
   20.0401  -21.7378  -12.7186 C   0  0  2  0  0  0  0  0  0  0  0  0
   21.2901  -21.0562  -12.9437 N   0  0  0  0  0  0  0  0  0  0  0  0
   18.9553  -21.2097  -13.5859 C   0  0  0  0  0  0  0  0  0  0  0  0
   18.0383  -22.1224  -14.1401 O   0  0  0  0  0  0  0  0  0  0  0  0
   18.7919  -20.0195  -13.8627 O   0  0  0  0  0  0  0  0  0  0  0  0
  2  1  1  6
  2 13  1  0
  3  2  1  0
  3  4  1  0
  4  5  2  0
  4 12  1  0
  5  6  1  0
  6  7  1  0
  7  8  2  0
  8  9  1  0
 10  9  2  0
 11 10  1  0
 12 11  2  0
 12  7  1  0
 13 14  2  0
 15 16  1  0
 15 13  1  0
 16 17  1  6
 17 18  1  0
 19 16  1  0
 19 26  1  0
 20 19  2  0
 22 21  1  0
 23 22  2  0
 24 22  1  0
 25 26  1  0
 25 24  1  1
 27 25  1  0
 28 27  1  0
 29 27  2  0
M  END
$$$$
