WCN.pdb
     RDKit          3D

 29 30  0  0  1  0  0  0  0  0999 V2000
   22.8871  -21.0584  -15.5378 N   0  0  0  0  0  0  0  0  0  0  0  0
   22.1115  -20.4146  -14.5206 C   0  0  1  0  0  0  0  0  0  0  0  0
   20.6778  -20.1739  -14.8499 C   0  0  0  0  0  0  0  0  0  0  0  0
   20.5162  -19.4268  -16.1157 C   0  0  0  0  0  0  0  0  0  0  0  0
   20.2104  -19.9550  -17.3532 C   0  0  0  0  0  0  0  0  0  0  0  0
   20.1395  -18.9156  -18.1929 N   0  0  0  0  0  0  0  0  0  0  0  0
   20.3830  -17.7566  -17.5615 C   0  0  0  0  0  0  0  0  0  0  0  0
   20.4283  -16.4468  -17.9906 C   0  0  0  0  0  0  0  0  0  0  0  0
   20.7169  -15.4422  -17.0969 C   0  0  0  0  0  0  0  0  0  0  0  0
   20.9663  -15.7153  -15.7613 C   0  0  0  0  0  0  0  0  0  0  0  0
   20.9138  -17.0341  -15.3612 C   0  0  0  0  0  0  0  0  0  0  0  0
   20.6243  -18.0631  -16.2429 C   0  0  0  0  0  0  0  0  0  0  0  0
   22.2934  -21.1128  -13.2216 C   0  0  0  0  0  0  0  0  0  0  0  0
   22.4335  -22.3731  -13.2112 O   0  0  0  0  0  0  0  0  0  0  0  0
   22.3225  -20.4639  -11.9728 N   0  0  0  0  0  0  0  0  0  0  0  0
   22.3292  -21.1451  -10.7008 C   0  0  1  0  0  0  0  0  0  0  0  0
   23.0082  -20.2276   -9.7047 C   0  0  0  0  0  0  0  0  0  0  0  0
   23.2707  -21.1908   -8.1895 S   0  0  0  0  0  0  0  0  0  0  0  0
   20.9659  -21.5277  -10.2589 C   0  0  0  0  0  0  0  0  0  0  0  0
   20.0585  -20.6552  -10.2775 O   0  0  0  0  0  0  0  0  0  0  0  0
   17.6122  -24.5253   -7.5160 N   0  0  0  0  0  0  0  0  0  0  0  0
   18.7678  -24.0868   -6.8170 C   0  0  0  0  0  0  0  0  0  0  0  0
   18.8515  -24.3965   -5.6011 O   0  0  0  0  0  0  0  0  0  0  0  0
   19.7686  -23.3139   -7.5536 C   0  0  0  0  0  0  0  0  0  0  0  0
   19.4512  -23.1155   -9.0030 C   0  0  2  0  0  0  0  0  0  0  0  0
   20.6067  -22.8184   -9.8121 N   0  0  0  0  0  0  0  0  0  0  0  0
   18.3514  -22.1416   -9.2262 C   0  0  0  0  0  0  0  0  0  0  0  0
   17.1547  -22.6055   -9.8040 O   0  0  0  0  0  0  0  0  0  0  0  0
   18.4040  -20.9432   -8.9420 O   0  0  0  0  0  0  0  0  0  0  0  0
  2  1  1  6
  2 13  1  0
  3  2  1  0
  3  4  1  0
  4  5  2  0
  4 12  1  0
  5  6  1  0
  6  7  1  0
  7  8  2  0
  8  9  1  0
 10  9  2  0
 11 10  1  0
 12 11  2  0
 12  7  1  0
 13 14  2  0
 15 16  1  0
 15 13  1  0
 16 17  1  1
 17 18  1  0
 19 16  1  0
 19 26  1  0
 20 19  2  0
 22 21  1  0
 23 22  2  0
 24 22  1  0
 25 26  1  0
 25 24  1  1
 27 25  1  0
 28 27  1  0
 29 27  2  0
M  END
$$$$
