WCN.pdb
     RDKit          3D

 29 30  0  0  1  0  0  0  0  0999 V2000
   26.1333  -19.8163  -17.6968 N   0  0  0  0  0  0  0  0  0  0  0  0
   26.7097  -19.0504  -16.6329 C   0  0  1  0  0  0  0  0  0  0  0  0
   26.0975  -17.7137  -16.3875 C   0  0  0  0  0  0  0  0  0  0  0  0
   26.1011  -16.8696  -17.6015 C   0  0  0  0  0  0  0  0  0  0  0  0
   25.0124  -16.2497  -18.1798 C   0  0  0  0  0  0  0  0  0  0  0  0
   25.4858  -15.5768  -19.2349 N   0  0  0  0  0  0  0  0  0  0  0  0
   26.8127  -15.7328  -19.3620 C   0  0  0  0  0  0  0  0  0  0  0  0
   27.7301  -15.2530  -20.2730 C   0  0  0  0  0  0  0  0  0  0  0  0
   29.0571  -15.5940  -20.1542 C   0  0  0  0  0  0  0  0  0  0  0  0
   29.5010  -16.4168  -19.1311 C   0  0  0  0  0  0  0  0  0  0  0  0
   28.5610  -16.8812  -18.2350 C   0  0  0  0  0  0  0  0  0  0  0  0
   27.2190  -16.5506  -18.3338 C   0  0  0  0  0  0  0  0  0  0  0  0
   26.8001  -19.8760  -15.4007 C   0  0  0  0  0  0  0  0  0  0  0  0
   25.8111  -20.5947  -15.0639 O   0  0  0  0  0  0  0  0  0  0  0  0
   27.9283  -19.9206  -14.5602 N   0  0  0  0  0  0  0  0  0  0  0  0
   27.9393  -20.5070  -13.2418 C   0  0  1  0  0  0  0  0  0  0  0  0
   29.3281  -20.3026  -12.6720 C   0  0  0  0  0  0  0  0  0  0  0  0
   29.3152  -20.9780  -10.9880 S   0  0  0  0  0  0  0  0  0  0  0  0
   26.8915  -19.9350  -12.3614 C   0  0  0  0  0  0  0  0  0  0  0  0
   26.8028  -18.6829  -12.2638 O   0  0  0  0  0  0  0  0  0  0  0  0
   23.3669  -21.6904  -12.8965 N   0  0  0  0  0  0  0  0  0  0  0  0
   22.9761  -21.1085  -11.6616 C   0  0  0  0  0  0  0  0  0  0  0  0
   22.0419  -21.6711  -11.0355 O   0  0  0  0  0  0  0  0  0  0  0  0
   23.6810  -19.9081  -11.2102 C   0  0  0  0  0  0  0  0  0  0  0  0
   25.0449  -20.1671  -10.6500 C   0  0  2  0  0  0  0  0  0  0  0  0
   25.9728  -20.7041  -11.6137 N   0  0  0  0  0  0  0  0  0  0  0  0
   25.0140  -20.9710   -9.4007 C   0  0  0  0  0  0  0  0  0  0  0  0
   24.2475  -20.4970   -8.3196 O   0  0  0  0  0  0  0  0  0  0  0  0
   25.6145  -22.0345   -9.2331 O   0  0  0  0  0  0  0  0  0  0  0  0
  2  1  1  6
  2 13  1  0
  3  2  1  0
  3  4  1  0
  4  5  2  0
  4 12  1  0
  5  6  1  0
  6  7  1  0
  7  8  2  0
  8  9  1  0
 10  9  2  0
 11 10  1  0
 12 11  2  0
 12  7  1  0
 13 14  2  0
 15 16  1  0
 15 13  1  0
 16 17  1  1
 17 18  1  0
 19 16  1  0
 19 26  1  0
 20 19  2  0
 22 21  1  0
 23 22  2  0
 24 22  1  0
 25 26  1  0
 25 24  1  6
 27 25  1  0
 28 27  1  0
 29 27  2  0
M  END
$$$$
