WCN.pdb
     RDKit          3D

 29 30  0  0  1  0  0  0  0  0999 V2000
   22.5069  -21.2905  -17.3435 N   0  0  0  0  0  0  0  0  0  0  0  0
   21.1960  -21.7575  -17.6816 C   0  0  1  0  0  0  0  0  0  0  0  0
   21.1003  -23.1876  -18.0911 C   0  0  0  0  0  0  0  0  0  0  0  0
   21.6920  -23.4243  -19.4254 C   0  0  0  0  0  0  0  0  0  0  0  0
   23.0354  -23.4966  -19.7321 C   0  0  0  0  0  0  0  0  0  0  0  0
   23.1032  -23.7491  -21.0444 N   0  0  0  0  0  0  0  0  0  0  0  0
   21.8808  -23.8411  -21.5906 C   0  0  0  0  0  0  0  0  0  0  0  0
   21.4444  -24.0781  -22.8771 C   0  0  0  0  0  0  0  0  0  0  0  0
   20.0966  -24.1100  -23.1490 C   0  0  0  0  0  0  0  0  0  0  0  0
   19.1553  -23.9076  -22.1521 C   0  0  0  0  0  0  0  0  0  0  0  0
   19.6213  -23.6730  -20.8754 C   0  0  0  0  0  0  0  0  0  0  0  0
   20.9740  -23.6371  -20.5772 C   0  0  0  0  0  0  0  0  0  0  0  0
   20.2346  -21.4023  -16.6057 C   0  0  0  0  0  0  0  0  0  0  0  0
   20.6507  -21.3050  -15.4118 O   0  0  0  0  0  0  0  0  0  0  0  0
   18.8644  -21.1601  -16.8185 N   0  0  0  0  0  0  0  0  0  0  0  0
   17.8979  -20.9676  -15.7646 C   0  0  1  0  0  0  0  0  0  0  0  0
   16.7453  -20.1793  -16.3521 C   0  0  0  0  0  0  0  0  0  0  0  0
   15.7565  -19.5673  -14.9592 S   0  0  0  0  0  0  0  0  0  0  0  0
   17.4449  -22.2505  -15.1736 C   0  0  0  0  0  0  0  0  0  0  0  0
   17.9279  -23.3242  -15.6196 O   0  0  0  0  0  0  0  0  0  0  0  0
   16.5410  -25.9490  -12.0204 N   0  0  0  0  0  0  0  0  0  0  0  0
   17.7569  -25.2180  -12.0796 C   0  0  0  0  0  0  0  0  0  0  0  0
   18.7932  -25.7989  -11.6673 O   0  0  0  0  0  0  0  0  0  0  0  0
   17.7179  -23.8549  -12.6107 C   0  0  0  0  0  0  0  0  0  0  0  0
   16.4050  -23.4652  -13.2151 C   0  0  2  0  0  0  0  0  0  0  0  0
   16.4973  -22.3566  -14.1318 N   0  0  0  0  0  0  0  0  0  0  0  0
   15.3393  -23.2597  -12.2002 C   0  0  0  0  0  0  0  0  0  0  0  0
   14.2115  -24.1011  -12.2353 O   0  0  0  0  0  0  0  0  0  0  0  0
   15.3643  -22.3993  -11.3178 O   0  0  0  0  0  0  0  0  0  0  0  0
  2  1  1  1
  2 13  1  0
  3  2  1  0
  3  4  1  0
  4  5  2  0
  4 12  1  0
  5  6  1  0
  6  7  1  0
  7  8  2  0
  8  9  1  0
 10  9  2  0
 11 10  1  0
 12 11  2  0
 12  7  1  0
 13 14  2  0
 15 16  1  0
 15 13  1  0
 16 17  1  6
 17 18  1  0
 19 16  1  0
 19 26  1  0
 20 19  2  0
 22 21  1  0
 23 22  2  0
 24 22  1  0
 25 26  1  0
 25 24  1  1
 27 25  1  0
 28 27  1  0
 29 27  2  0
M  END
$$$$
