WCN.pdb
     RDKit          3D

 29 30  0  0  1  0  0  0  0  0999 V2000
   28.2509  -21.3366  -12.7789 N   0  0  0  0  0  0  0  0  0  0  0  0
   27.0196  -21.3148  -12.0480 C   0  0  1  0  0  0  0  0  0  0  0  0
   26.9329  -20.3114  -10.9491 C   0  0  0  0  0  0  0  0  0  0  0  0
   28.0870  -20.3941  -10.0286 C   0  0  0  0  0  0  0  0  0  0  0  0
   29.4078  -20.5916  -10.3757 C   0  0  0  0  0  0  0  0  0  0  0  0
   30.0995  -20.5704   -9.2305 N   0  0  0  0  0  0  0  0  0  0  0  0
   29.2953  -20.3713   -8.1746 C   0  0  0  0  0  0  0  0  0  0  0  0
   29.5331  -20.2791   -6.8194 C   0  0  0  0  0  0  0  0  0  0  0  0
   28.4859  -20.0736   -5.9520 C   0  0  0  0  0  0  0  0  0  0  0  0
   27.1831  -19.9557   -6.4100 C   0  0  0  0  0  0  0  0  0  0  0  0
   26.9759  -20.0518   -7.7701 C   0  0  0  0  0  0  0  0  0  0  0  0
   28.0150  -20.2578   -8.6634 C   0  0  0  0  0  0  0  0  0  0  0  0
   25.8702  -21.2399  -12.9867 C   0  0  0  0  0  0  0  0  0  0  0  0
   25.7195  -20.2012  -13.6982 O   0  0  0  0  0  0  0  0  0  0  0  0
   24.9142  -22.2603  -13.1486 N   0  0  0  0  0  0  0  0  0  0  0  0
   23.8156  -22.2066  -14.0826 C   0  0  1  0  0  0  0  0  0  0  0  0
   23.4526  -23.6358  -14.4301 C   0  0  0  0  0  0  0  0  0  0  0  0
   23.2348  -24.5239  -12.8629 S   0  0  0  0  0  0  0  0  0  0  0  0
   22.6541  -21.4572  -13.5444 C   0  0  0  0  0  0  0  0  0  0  0  0
   22.5649  -21.2953  -12.2991 O   0  0  0  0  0  0  0  0  0  0  0  0
   19.4092  -17.4334  -12.1779 N   0  0  0  0  0  0  0  0  0  0  0  0
   19.4987  -17.9059  -13.5139 C   0  0  0  0  0  0  0  0  0  0  0  0
   18.5445  -17.6264  -14.2837 O   0  0  0  0  0  0  0  0  0  0  0  0
   20.6828  -18.6764  -13.8960 C   0  0  0  0  0  0  0  0  0  0  0  0
   20.5019  -20.1608  -13.8274 C   0  0  2  0  0  0  0  0  0  0  0  0
   21.6260  -20.9041  -14.3392 N   0  0  0  0  0  0  0  0  0  0  0  0
   19.2183  -20.6151  -14.4221 C   0  0  0  0  0  0  0  0  0  0  0  0
   19.1769  -20.8745  -15.8049 O   0  0  0  0  0  0  0  0  0  0  0  0
   18.1721  -20.7853  -13.7926 O   0  0  0  0  0  0  0  0  0  0  0  0
  2  1  1  6
  2 13  1  0
  3  2  1  0
  3  4  1  0
  4  5  2  0
  4 12  1  0
  5  6  1  0
  6  7  1  0
  7  8  2  0
  8  9  1  0
 10  9  2  0
 11 10  1  0
 12 11  2  0
 12  7  1  0
 13 14  2  0
 15 16  1  0
 15 13  1  0
 16 17  1  1
 17 18  1  0
 19 16  1  0
 19 26  1  0
 20 19  2  0
 22 21  1  0
 23 22  2  0
 24 22  1  0
 25 26  1  0
 25 24  1  6
 27 25  1  0
 28 27  1  0
 29 27  2  0
M  END
$$$$
