WCN.pdb
     RDKit          3D

 29 30  0  0  1  0  0  0  0  0999 V2000
   18.8754  -12.2484  -17.4399 N   0  0  0  0  0  0  0  0  0  0  0  0
   19.4274  -10.9902  -17.8435 C   0  0  1  0  0  0  0  0  0  0  0  0
   18.5260  -10.1095  -18.6396 C   0  0  0  0  0  0  0  0  0  0  0  0
   18.1009  -10.7472  -19.9041 C   0  0  0  0  0  0  0  0  0  0  0  0
   17.0127  -11.5758  -20.0862 C   0  0  0  0  0  0  0  0  0  0  0  0
   17.0011  -11.8924  -21.3863 N   0  0  0  0  0  0  0  0  0  0  0  0
   18.0191  -11.3136  -22.0419 C   0  0  0  0  0  0  0  0  0  0  0  0
   18.4218  -11.3421  -23.3605 C   0  0  0  0  0  0  0  0  0  0  0  0
   19.5367  -10.6386  -23.7522 C   0  0  0  0  0  0  0  0  0  0  0  0
   20.2741   -9.8936  -22.8456 C   0  0  0  0  0  0  0  0  0  0  0  0
   19.8473   -9.8837  -21.5341 C   0  0  0  0  0  0  0  0  0  0  0  0
   18.7269  -10.5838  -21.1162 C   0  0  0  0  0  0  0  0  0  0  0  0
   20.0227  -10.2952  -16.6728 C   0  0  0  0  0  0  0  0  0  0  0  0
   19.3536  -10.2083  -15.5991 O   0  0  0  0  0  0  0  0  0  0  0  0
   21.3041   -9.7126  -16.6671 N   0  0  0  0  0  0  0  0  0  0  0  0
   21.8724   -9.0051  -15.5452 C   0  0  1  0  0  0  0  0  0  0  0  0
   23.2950   -9.4985  -15.3783 C   0  0  0  0  0  0  0  0  0  0  0  0
   23.2136  -11.0383  -14.4218 S   0  0  0  0  0  0  0  0  0  0  0  0
   21.8154   -7.5331  -15.7194 C   0  0  0  0  0  0  0  0  0  0  0  0
   22.2142   -7.0382  -16.8061 O   0  0  0  0  0  0  0  0  0  0  0  0
   21.1195   -2.4667  -15.1695 N   0  0  0  0  0  0  0  0  0  0  0  0
   19.8975   -3.1562  -14.9516 C   0  0  0  0  0  0  0  0  0  0  0  0
   18.8549   -2.4580  -14.8683 O   0  0  0  0  0  0  0  0  0  0  0  0
   19.9379   -4.6148  -14.8407 C   0  0  0  0  0  0  0  0  0  0  0  0
   21.3153   -5.1994  -14.8850 C   0  0  2  0  0  0  0  0  0  0  0  0
   21.3393   -6.6334  -14.7404 N   0  0  0  0  0  0  0  0  0  0  0  0
   22.2577   -4.5309  -13.9507 C   0  0  0  0  0  0  0  0  0  0  0  0
   22.7311   -5.2598  -12.8435 O   0  0  0  0  0  0  0  0  0  0  0  0
   22.6636   -3.3729  -14.0692 O   0  0  0  0  0  0  0  0  0  0  0  0
  2  1  1  1
  2 13  1  0
  3  2  1  0
  3  4  1  0
  4  5  2  0
  4 12  1  0
  5  6  1  0
  6  7  1  0
  7  8  2  0
  8  9  1  0
 10  9  2  0
 11 10  1  0
 12 11  2  0
 12  7  1  0
 13 14  2  0
 15 16  1  0
 15 13  1  0
 16 17  1  6
 17 18  1  0
 19 16  1  0
 19 26  1  0
 20 19  2  0
 22 21  1  0
 23 22  2  0
 24 22  1  0
 25 26  1  0
 25 24  1  1
 27 25  1  0
 28 27  1  0
 29 27  2  0
M  END
$$$$
