WCN.pdb
     RDKit          3D

 29 30  0  0  1  0  0  0  0  0999 V2000
   28.4114  -20.9967  -14.7456 N   0  0  0  0  0  0  0  0  0  0  0  0
   27.2310  -20.1955  -14.6221 C   0  0  1  0  0  0  0  0  0  0  0  0
   26.6308  -19.7194  -15.9008 C   0  0  0  0  0  0  0  0  0  0  0  0
   27.5190  -18.7771  -16.6146 C   0  0  0  0  0  0  0  0  0  0  0  0
   28.2445  -19.0327  -17.7602 C   0  0  0  0  0  0  0  0  0  0  0  0
   28.8776  -17.8928  -18.0604 N   0  0  0  0  0  0  0  0  0  0  0  0
   28.5975  -16.9267  -17.1719 C   0  0  0  0  0  0  0  0  0  0  0  0
   29.0032  -15.6139  -17.0555 C   0  0  0  0  0  0  0  0  0  0  0  0
   28.5466  -14.8452  -16.0105 C   0  0  0  0  0  0  0  0  0  0  0  0
   27.6797  -15.3621  -15.0606 C   0  0  0  0  0  0  0  0  0  0  0  0
   27.2912  -16.6777  -15.2029 C   0  0  0  0  0  0  0  0  0  0  0  0
   27.7372  -17.4713  -16.2476 C   0  0  0  0  0  0  0  0  0  0  0  0
   26.2444  -20.8729  -13.7414 C   0  0  0  0  0  0  0  0  0  0  0  0
   25.5394  -21.8156  -14.2128 O   0  0  0  0  0  0  0  0  0  0  0  0
   26.0294  -20.5381  -12.3912 N   0  0  0  0  0  0  0  0  0  0  0  0
   24.9867  -21.1016  -11.5681 C   0  0  1  0  0  0  0  0  0  0  0  0
   25.2497  -20.6560  -10.1443 C   0  0  0  0  0  0  0  0  0  0  0  0
   26.9742  -21.0754   -9.7670 S   0  0  0  0  0  0  0  0  0  0  0  0
   23.6319  -20.7102  -12.0280 C   0  0  0  0  0  0  0  0  0  0  0  0
   23.3215  -19.4901  -12.0211 O   0  0  0  0  0  0  0  0  0  0  0  0
   21.1694  -19.3051  -14.8945 N   0  0  0  0  0  0  0  0  0  0  0  0
   21.0312  -20.6458  -15.3414 C   0  0  0  0  0  0  0  0  0  0  0  0
   20.9058  -20.8249  -16.5798 O   0  0  0  0  0  0  0  0  0  0  0  0
   21.0444  -21.7125  -14.3396 C   0  0  0  0  0  0  0  0  0  0  0  0
   21.3388  -21.2480  -12.9473 C   0  0  2  0  0  0  0  0  0  0  0  0
   22.6505  -21.6200  -12.4794 N   0  0  0  0  0  0  0  0  0  0  0  0
   20.2767  -21.6197  -11.9768 C   0  0  0  0  0  0  0  0  0  0  0  0
   19.2488  -20.6924  -11.7231 O   0  0  0  0  0  0  0  0  0  0  0  0
   20.2232  -22.6901  -11.3677 O   0  0  0  0  0  0  0  0  0  0  0  0
  2  1  1  6
  2 13  1  0
  3  2  1  0
  3  4  1  0
  4  5  2  0
  4 12  1  0
  5  6  1  0
  6  7  1  0
  7  8  2  0
  8  9  1  0
 10  9  2  0
 11 10  1  0
 12 11  2  0
 12  7  1  0
 13 14  2  0
 15 16  1  0
 15 13  1  0
 16 17  1  1
 17 18  1  0
 19 16  1  0
 19 26  1  0
 20 19  2  0
 22 21  1  0
 23 22  2  0
 24 22  1  0
 25 26  1  0
 25 24  1  6
 27 25  1  0
 28 27  1  0
 29 27  2  0
M  END
$$$$
