DWI.pdb
     RDKit          3D

 31 32  0  0  1  0  0  0  0  0999 V2000
   28.3646  -20.2125  -13.9480 N   0  0  0  0  0  0  0  0  0  0  0  0
   27.3524  -20.8465  -14.7689 C   0  0  1  0  0  0  0  0  0  0  0  0
   27.9284  -22.0837  -15.4272 C   0  0  0  0  0  0  0  0  0  0  0  0
   28.9493  -21.6771  -16.4163 C   0  0  0  0  0  0  0  0  0  0  0  0
   29.6894  -22.5471  -16.9299 O   0  0  0  0  0  0  0  0  0  0  0  0
   26.2819  -21.3501  -13.8421 C   0  0  0  0  0  0  0  0  0  0  0  0
   25.6794  -22.4137  -14.0561 O   0  0  0  0  0  0  0  0  0  0  0  0
   29.1298  -20.3602  -16.8088 O   0  0  0  0  0  0  0  0  0  0  0  0
   25.9444  -20.5993  -12.6927 N   0  0  0  0  0  0  0  0  0  0  0  0
   24.9466  -20.9095  -11.7241 C   0  0  1  0  0  0  0  0  0  0  0  0
   25.2800  -20.3928  -10.3094 C   0  0  0  0  0  0  0  0  0  0  0  0
   26.6029  -20.8251   -9.8381 C   0  0  0  0  0  0  0  0  0  0  0  0
   27.4806  -21.7025  -10.3991 C   0  0  0  0  0  0  0  0  0  0  0  0
   28.6001  -21.8104   -9.6336 N   0  0  0  0  0  0  0  0  0  0  0  0
   28.4784  -21.0192   -8.5763 C   0  0  0  0  0  0  0  0  0  0  0  0
   29.2810  -20.7221   -7.4848 C   0  0  0  0  0  0  0  0  0  0  0  0
   28.8523  -19.8284   -6.5368 C   0  0  0  0  0  0  0  0  0  0  0  0
   27.6262  -19.1953   -6.6228 C   0  0  0  0  0  0  0  0  0  0  0  0
   26.8365  -19.4997   -7.7136 C   0  0  0  0  0  0  0  0  0  0  0  0
   27.2596  -20.3953   -8.6684 C   0  0  0  0  0  0  0  0  0  0  0  0
   23.5770  -20.5482  -12.0577 C   0  0  0  0  0  0  0  0  0  0  0  0
   23.3019  -19.3324  -12.3479 O   0  0  0  0  0  0  0  0  0  0  0  0
   21.0700  -22.9559  -15.9906 C   0  0  0  0  0  0  0  0  0  0  0  0
   21.6078  -22.0087  -14.9641 C   0  0  0  0  0  0  0  0  0  0  0  0
   20.7454  -21.8869  -13.7768 C   0  0  2  0  0  0  0  0  0  0  0  0
   19.2931  -21.5891  -14.1802 C   0  0  0  0  0  0  0  0  0  0  0  0
   21.1641  -21.0503  -12.6428 C   0  0  2  0  0  0  0  0  0  0  0  0
   22.4745  -21.4445  -12.0952 N   0  0  0  0  0  0  0  0  0  0  0  0
   20.2150  -21.0493  -11.5223 C   0  0  0  0  0  0  0  0  0  0  0  0
   19.2904  -20.0004  -11.3211 O   0  0  0  0  0  0  0  0  0  0  0  0
   20.1501  -21.9693  -10.6685 O   0  0  0  0  0  0  0  0  0  0  0  0
  2  1  1  1
  2  6  1  0
  3  4  1  0
  3  2  1  0
  4  5  2  0
  6  7  2  0
  8  4  1  0
  9  6  1  0
  9 10  1  0
 10 11  1  1
 11 12  1  0
 12 13  2  0
 13 14  1  0
 15 14  1  0
 16 15  2  0
 17 16  1  0
 18 19  1  0
 18 17  2  0
 19 20  2  0
 20 12  1  0
 20 15  1  0
 21 10  1  0
 21 22  2  0
 23 24  1  0
 24 25  1  0
 25 27  1  0
 25 26  1  6
 27 29  1  0
 27 28  1  1
 28 21  1  0
 29 30  1  0
 31 29  2  0
M  END
$$$$
