DWI.pdb
     RDKit          3D

 31 32  0  0  1  0  0  0  0  0999 V2000
   27.9631  -22.1209  -15.4932 N   0  0  0  0  0  0  0  0  0  0  0  0
   28.3849  -21.2177  -14.4411 C   0  0  1  0  0  0  0  0  0  0  0  0
   28.2277  -19.7836  -14.9042 C   0  0  0  0  0  0  0  0  0  0  0  0
   27.2560  -19.7362  -16.0175 C   0  0  0  0  0  0  0  0  0  0  0  0
   26.3258  -18.8983  -15.9871 O   0  0  0  0  0  0  0  0  0  0  0  0
   27.4150  -21.3779  -13.3045 C   0  0  0  0  0  0  0  0  0  0  0  0
   26.3326  -21.9677  -13.4470 O   0  0  0  0  0  0  0  0  0  0  0  0
   27.3256  -20.5866  -17.1096 O   0  0  0  0  0  0  0  0  0  0  0  0
   27.7347  -20.8455  -12.0343 N   0  0  0  0  0  0  0  0  0  0  0  0
   26.9654  -20.9476  -10.8395 C   0  0  1  0  0  0  0  0  0  0  0  0
   27.7560  -20.5861   -9.5652 C   0  0  0  0  0  0  0  0  0  0  0  0
   26.9523  -20.6990   -8.3403 C   0  0  0  0  0  0  0  0  0  0  0  0
   25.7048  -21.2164   -8.1649 C   0  0  0  0  0  0  0  0  0  0  0  0
   25.3334  -21.1302   -6.8589 N   0  0  0  0  0  0  0  0  0  0  0  0
   26.3139  -20.5653   -6.1674 C   0  0  0  0  0  0  0  0  0  0  0  0
   26.4981  -20.2316   -4.8338 C   0  0  0  0  0  0  0  0  0  0  0  0
   27.6671  -19.6413   -4.4260 C   0  0  0  0  0  0  0  0  0  0  0  0
   28.6946  -19.3572   -5.3063 C   0  0  0  0  0  0  0  0  0  0  0  0
   28.4989  -19.6937   -6.6310 C   0  0  0  0  0  0  0  0  0  0  0  0
   27.3290  -20.2858   -7.0474 C   0  0  0  0  0  0  0  0  0  0  0  0
   25.6860  -20.2544  -10.8245 C   0  0  0  0  0  0  0  0  0  0  0  0
   25.6572  -18.9869  -11.0002 O   0  0  0  0  0  0  0  0  0  0  0  0
   23.4355  -20.4072  -14.9380 C   0  0  0  0  0  0  0  0  0  0  0  0
   23.8531  -20.0518  -13.5453 C   0  0  0  0  0  0  0  0  0  0  0  0
   22.9003  -20.5061  -12.5187 C   0  0  2  0  0  0  0  0  0  0  0  0
   21.4617  -20.1179  -12.8933 C   0  0  0  0  0  0  0  0  0  0  0  0
   23.1676  -20.2462  -11.0967 C   0  0  2  0  0  0  0  0  0  0  0  0
   24.4191  -20.8679  -10.6277 N   0  0  0  0  0  0  0  0  0  0  0  0
   22.1001  -20.7032  -10.1978 C   0  0  0  0  0  0  0  0  0  0  0  0
   21.1579  -19.8131   -9.6361 O   0  0  0  0  0  0  0  0  0  0  0  0
   21.9416  -21.9048   -9.8648 O   0  0  0  0  0  0  0  0  0  0  0  0
  2  1  1  6
  2  6  1  0
  3  4  1  0
  3  2  1  0
  4  5  2  0
  6  7  2  0
  8  4  1  0
  9  6  1  0
  9 10  1  0
 10 11  1  1
 11 12  1  0
 12 13  2  0
 13 14  1  0
 15 14  1  0
 16 15  2  0
 17 16  1  0
 18 19  1  0
 18 17  2  0
 19 20  2  0
 20 12  1  0
 20 15  1  0
 21 10  1  0
 21 22  2  0
 23 24  1  0
 24 25  1  0
 25 27  1  0
 25 26  1  6
 27 29  1  0
 27 28  1  1
 28 21  1  0
 29 30  1  0
 31 29  2  0
M  END
$$$$
