DWI.pdb
     RDKit          3D

 31 32  0  0  1  0  0  0  0  0999 V2000
   28.0956  -20.1574  -14.4743 N   0  0  0  0  0  0  0  0  0  0  0  0
   27.2252  -21.1641  -15.0480 C   0  0  1  0  0  0  0  0  0  0  0  0
   28.0180  -22.4235  -15.3337 C   0  0  0  0  0  0  0  0  0  0  0  0
   29.0222  -22.1384  -16.3806 C   0  0  0  0  0  0  0  0  0  0  0  0
   30.1160  -22.7481  -16.3665 O   0  0  0  0  0  0  0  0  0  0  0  0
   26.2338  -21.5498  -13.9866 C   0  0  0  0  0  0  0  0  0  0  0  0
   25.5365  -22.5716  -14.0837 O   0  0  0  0  0  0  0  0  0  0  0  0
   28.8088  -21.2154  -17.3922 O   0  0  0  0  0  0  0  0  0  0  0  0
   26.0835  -20.7328  -12.8425 N   0  0  0  0  0  0  0  0  0  0  0  0
   25.1535  -20.9060  -11.7771 C   0  0  1  0  0  0  0  0  0  0  0  0
   25.5735  -20.1986  -10.4721 C   0  0  0  0  0  0  0  0  0  0  0  0
   26.8876  -20.6351   -9.9807 C   0  0  0  0  0  0  0  0  0  0  0  0
   27.8490  -21.3688  -10.6068 C   0  0  0  0  0  0  0  0  0  0  0  0
   28.9230  -21.5418   -9.7897 N   0  0  0  0  0  0  0  0  0  0  0  0
   28.6888  -20.9347   -8.6341 C   0  0  0  0  0  0  0  0  0  0  0  0
   29.4027  -20.7754   -7.4557 C   0  0  0  0  0  0  0  0  0  0  0  0
   28.8634  -20.0648   -6.4138 C   0  0  0  0  0  0  0  0  0  0  0  0
   27.6098  -19.4865   -6.4877 C   0  0  0  0  0  0  0  0  0  0  0  0
   26.9091  -19.6526   -7.6657 C   0  0  0  0  0  0  0  0  0  0  0  0
   27.4434  -20.3643   -8.7150 C   0  0  0  0  0  0  0  0  0  0  0  0
   23.7619  -20.5943  -12.0668 C   0  0  0  0  0  0  0  0  0  0  0  0
   23.3875  -19.3709  -12.1028 O   0  0  0  0  0  0  0  0  0  0  0  0
   21.6935  -22.1596  -16.5569 C   0  0  0  0  0  0  0  0  0  0  0  0
   22.0181  -21.3871  -15.3168 C   0  0  0  0  0  0  0  0  0  0  0  0
   21.1457  -21.7211  -14.1786 C   0  0  2  0  0  0  0  0  0  0  0  0
   19.6647  -21.5611  -14.5552 C   0  0  0  0  0  0  0  0  0  0  0  0
   21.4194  -21.1583  -12.8484 C   0  0  2  0  0  0  0  0  0  0  0  0
   22.7404  -21.5486  -12.3238 N   0  0  0  0  0  0  0  0  0  0  0  0
   20.4283  -21.5292  -11.8303 C   0  0  0  0  0  0  0  0  0  0  0  0
   20.5363  -22.7170  -11.0734 O   0  0  0  0  0  0  0  0  0  0  0  0
   19.4224  -20.8277  -11.5546 O   0  0  0  0  0  0  0  0  0  0  0  0
  2  1  1  1
  2  6  1  0
  3  4  1  0
  3  2  1  0
  4  5  2  0
  6  7  2  0
  8  4  1  0
  9  6  1  0
  9 10  1  0
 10 11  1  1
 11 12  1  0
 12 13  2  0
 13 14  1  0
 15 14  1  0
 16 15  2  0
 17 16  1  0
 18 19  1  0
 18 17  2  0
 19 20  2  0
 20 12  1  0
 20 15  1  0
 21 10  1  0
 21 22  2  0
 23 24  1  0
 24 25  1  0
 25 27  1  0
 25 26  1  6
 27 29  1  0
 27 28  1  1
 28 21  1  0
 29 30  1  0
 31 29  2  0
M  END
$$$$
