DWI.pdb
     RDKit          3D

 31 32  0  0  1  0  0  0  0  0999 V2000
   27.4506  -20.1134  -15.8193 N   0  0  0  0  0  0  0  0  0  0  0  0
   27.5466  -18.8225  -15.1677 C   0  0  1  0  0  0  0  0  0  0  0  0
   26.9221  -17.7578  -16.0465 C   0  0  0  0  0  0  0  0  0  0  0  0
   27.6910  -17.6543  -17.3051 C   0  0  0  0  0  0  0  0  0  0  0  0
   27.2497  -16.9467  -18.2393 O   0  0  0  0  0  0  0  0  0  0  0  0
   26.6834  -18.8813  -13.9388 C   0  0  0  0  0  0  0  0  0  0  0  0
   26.3628  -17.8572  -13.3156 O   0  0  0  0  0  0  0  0  0  0  0  0
   28.8946  -18.3120  -17.5042 O   0  0  0  0  0  0  0  0  0  0  0  0
   26.2191  -20.1323  -13.4716 N   0  0  0  0  0  0  0  0  0  0  0  0
   25.2807  -20.3663  -12.4254 C   0  0  1  0  0  0  0  0  0  0  0  0
   24.1117  -21.2831  -12.8405 C   0  0  0  0  0  0  0  0  0  0  0  0
   23.3105  -20.7283  -13.9403 C   0  0  0  0  0  0  0  0  0  0  0  0
   23.4976  -20.8252  -15.2858 C   0  0  0  0  0  0  0  0  0  0  0  0
   22.5117  -20.1655  -15.9518 N   0  0  0  0  0  0  0  0  0  0  0  0
   21.6753  -19.6344  -15.0703 C   0  0  0  0  0  0  0  0  0  0  0  0
   20.5173  -18.8765  -15.1607 C   0  0  0  0  0  0  0  0  0  0  0  0
   19.8654  -18.4752  -14.0225 C   0  0  0  0  0  0  0  0  0  0  0  0
   20.3224  -18.8004  -12.7589 C   0  0  0  0  0  0  0  0  0  0  0  0
   21.4761  -19.5549  -12.6822 C   0  0  0  0  0  0  0  0  0  0  0  0
   22.1355  -19.9608  -13.8194 C   0  0  0  0  0  0  0  0  0  0  0  0
   25.8203  -20.8213  -11.1529 C   0  0  0  0  0  0  0  0  0  0  0  0
   26.5359  -21.8819  -11.1182 O   0  0  0  0  0  0  0  0  0  0  0  0
   27.9281  -17.7923   -7.0771 C   0  0  0  0  0  0  0  0  0  0  0  0
   27.6728  -18.8757   -8.0778 C   0  0  0  0  0  0  0  0  0  0  0  0
   26.5916  -19.7924   -7.6793 C   0  0  2  0  0  0  0  0  0  0  0  0
   26.8897  -20.4346   -6.3157 C   0  0  0  0  0  0  0  0  0  0  0  0
   26.0766  -20.7855   -8.6331 C   0  0  2  0  0  0  0  0  0  0  0  0
   25.6249  -20.1809   -9.8992 N   0  0  0  0  0  0  0  0  0  0  0  0
   24.9564  -21.5817   -8.1157 C   0  0  0  0  0  0  0  0  0  0  0  0
   25.1561  -22.7432   -7.3368 O   0  0  0  0  0  0  0  0  0  0  0  0
   23.7499  -21.2949   -8.3200 O   0  0  0  0  0  0  0  0  0  0  0  0
  2  1  1  6
  2  6  1  0
  3  4  1  0
  3  2  1  0
  4  5  2  0
  6  7  2  0
  8  4  1  0
  9  6  1  0
  9 10  1  0
 10 11  1  6
 11 12  1  0
 12 13  2  0
 13 14  1  0
 15 14  1  0
 16 15  2  0
 17 16  1  0
 18 19  1  0
 18 17  2  0
 19 20  2  0
 20 12  1  0
 20 15  1  0
 21 10  1  0
 21 22  2  0
 23 24  1  0
 24 25  1  0
 25 27  1  0
 25 26  1  1
 27 29  1  0
 27 28  1  6
 28 21  1  0
 29 30  1  0
 31 29  2  0
M  END
$$$$
