DWI.pdb
     RDKit          3D

 31 32  0  0  1  0  0  0  0  0999 V2000
   20.6264  -14.4611  -19.7389 N   0  0  0  0  0  0  0  0  0  0  0  0
   19.6476  -13.8566  -18.8575 C   0  0  1  0  0  0  0  0  0  0  0  0
   19.6436  -14.5783  -17.5252 C   0  0  0  0  0  0  0  0  0  0  0  0
   18.6678  -15.6879  -17.5767 C   0  0  0  0  0  0  0  0  0  0  0  0
   17.9563  -15.8348  -18.5967 O   0  0  0  0  0  0  0  0  0  0  0  0
   20.1244  -12.4640  -18.5547 C   0  0  0  0  0  0  0  0  0  0  0  0
   21.3317  -12.1787  -18.5236 O   0  0  0  0  0  0  0  0  0  0  0  0
   18.4998  -16.5869  -16.5354 O   0  0  0  0  0  0  0  0  0  0  0  0
   19.1801  -11.4439  -18.2964 N   0  0  0  0  0  0  0  0  0  0  0  0
   19.4497  -10.0823  -17.9751 C   0  0  1  0  0  0  0  0  0  0  0  0
   18.3243   -9.1155  -18.3975 C   0  0  0  0  0  0  0  0  0  0  0  0
   18.2002   -8.9822  -19.8556 C   0  0  0  0  0  0  0  0  0  0  0  0
   18.6219   -9.8198  -20.8432 C   0  0  0  0  0  0  0  0  0  0  0  0
   18.2960   -9.3170  -22.0647 N   0  0  0  0  0  0  0  0  0  0  0  0
   17.6656   -8.1617  -21.9021 C   0  0  0  0  0  0  0  0  0  0  0  0
   17.1119   -7.2251  -22.7623 C   0  0  0  0  0  0  0  0  0  0  0  0
   16.5083   -6.1003  -22.2605 C   0  0  0  0  0  0  0  0  0  0  0  0
   16.4252   -5.8526  -20.9029 C   0  0  0  0  0  0  0  0  0  0  0  0
   16.9804   -6.7922  -20.0571 C   0  0  0  0  0  0  0  0  0  0  0  0
   17.5877   -7.9227  -20.5531 C   0  0  0  0  0  0  0  0  0  0  0  0
   19.8366   -9.7991  -16.6012 C   0  0  0  0  0  0  0  0  0  0  0  0
   19.0552  -10.1398  -15.6465 O   0  0  0  0  0  0  0  0  0  0  0  0
   22.6749  -11.9439  -14.1354 C   0  0  0  0  0  0  0  0  0  0  0  0
   23.2054  -10.8207  -14.9705 C   0  0  0  0  0  0  0  0  0  0  0  0
   22.7759   -9.4932  -14.5000 C   0  0  2  0  0  0  0  0  0  0  0  0
   23.1419   -9.2886  -13.0218 C   0  0  0  0  0  0  0  0  0  0  0  0
   21.4146   -9.0150  -14.7814 C   0  0  2  0  0  0  0  0  0  0  0  0
   21.0404   -9.1588  -16.1998 N   0  0  0  0  0  0  0  0  0  0  0  0
   21.1918   -7.6090  -14.4208 C   0  0  0  0  0  0  0  0  0  0  0  0
   20.7053   -7.2266  -13.1509 O   0  0  0  0  0  0  0  0  0  0  0  0
   21.4158   -6.6497  -15.2013 O   0  0  0  0  0  0  0  0  0  0  0  0
  2  1  1  6
  2  6  1  0
  3  4  1  0
  3  2  1  0
  4  5  2  0
  6  7  2  0
  8  4  1  0
  9  6  1  0
  9 10  1  0
 10 11  1  1
 11 12  1  0
 12 13  2  0
 13 14  1  0
 15 14  1  0
 16 15  2  0
 17 16  1  0
 18 19  1  0
 18 17  2  0
 19 20  2  0
 20 12  1  0
 20 15  1  0
 21 10  1  0
 21 22  2  0
 23 24  1  0
 24 25  1  0
 25 27  1  0
 25 26  1  1
 27 29  1  0
 27 28  1  6
 28 21  1  0
 29 30  1  0
 31 29  2  0
M  END
$$$$
