DWI.pdb
     RDKit          3D

 31 32  0  0  1  0  0  0  0  0999 V2000
   29.8200  -21.5837  -18.8118 N   0  0  0  0  0  0  0  0  0  0  0  0
   29.1601  -22.4515  -17.8569 C   0  0  1  0  0  0  0  0  0  0  0  0
   30.1895  -23.0790  -16.9390 C   0  0  0  0  0  0  0  0  0  0  0  0
   30.8781  -24.1727  -17.6570 C   0  0  0  0  0  0  0  0  0  0  0  0
   30.5562  -24.4310  -18.8394 O   0  0  0  0  0  0  0  0  0  0  0  0
   28.3177  -21.5767  -16.9717 C   0  0  0  0  0  0  0  0  0  0  0  0
   28.8040  -20.6275  -16.3373 O   0  0  0  0  0  0  0  0  0  0  0  0
   31.8777  -24.9374  -17.0766 O   0  0  0  0  0  0  0  0  0  0  0  0
   26.9327  -21.8339  -16.8512 N   0  0  0  0  0  0  0  0  0  0  0  0
   25.9913  -21.1227  -16.0525 C   0  0  1  0  0  0  0  0  0  0  0  0
   24.6070  -20.9755  -16.7169 C   0  0  0  0  0  0  0  0  0  0  0  0
   23.6646  -20.1879  -15.9101 C   0  0  0  0  0  0  0  0  0  0  0  0
   23.8445  -18.9899  -15.2879 C   0  0  0  0  0  0  0  0  0  0  0  0
   22.7045  -18.6092  -14.6504 N   0  0  0  0  0  0  0  0  0  0  0  0
   21.7735  -19.5343  -14.8406 C   0  0  0  0  0  0  0  0  0  0  0  0
   20.4528  -19.6826  -14.4442 C   0  0  0  0  0  0  0  0  0  0  0  0
   19.7394  -20.7910  -14.8235 C   0  0  0  0  0  0  0  0  0  0  0  0
   20.2917  -21.7911  -15.6021 C   0  0  0  0  0  0  0  0  0  0  0  0
   21.6072  -21.6320  -15.9900 C   0  0  0  0  0  0  0  0  0  0  0  0
   22.3291  -20.5231  -15.6131 C   0  0  0  0  0  0  0  0  0  0  0  0
   25.8206  -21.5791  -14.6813 C   0  0  0  0  0  0  0  0  0  0  0  0
   25.6094  -22.8210  -14.4552 O   0  0  0  0  0  0  0  0  0  0  0  0
   29.2195  -20.6752  -10.6646 C   0  0  0  0  0  0  0  0  0  0  0  0
   28.2162  -21.2546  -11.6121 C   0  0  0  0  0  0  0  0  0  0  0  0
   26.8268  -20.9030  -11.2744 C   0  0  2  0  0  0  0  0  0  0  0  0
   26.5109  -21.2528   -9.8120 C   0  0  0  0  0  0  0  0  0  0  0  0
   25.7271  -21.3007  -12.1653 C   0  0  2  0  0  0  0  0  0  0  0  0
   25.8676  -20.7523  -13.5262 N   0  0  0  0  0  0  0  0  0  0  0  0
   24.3977  -20.9079  -11.6809 C   0  0  0  0  0  0  0  0  0  0  0  0
   23.5430  -21.8131  -11.0134 O   0  0  0  0  0  0  0  0  0  0  0  0
   23.9241  -19.7517  -11.8179 O   0  0  0  0  0  0  0  0  0  0  0  0
  2  1  1  6
  2  6  1  0
  3  4  1  0
  3  2  1  0
  4  5  2  0
  6  7  2  0
  8  4  1  0
  9  6  1  0
  9 10  1  0
 10 11  1  6
 11 12  1  0
 12 13  2  0
 13 14  1  0
 15 14  1  0
 16 15  2  0
 17 16  1  0
 18 19  1  0
 18 17  2  0
 19 20  2  0
 20 12  1  0
 20 15  1  0
 21 10  1  0
 21 22  2  0
 23 24  1  0
 24 25  1  0
 25 27  1  0
 25 26  1  1
 27 29  1  0
 27 28  1  6
 28 21  1  0
 29 30  1  0
 31 29  2  0
M  END
$$$$
