DWI.pdb
     RDKit          3D

 31 32  0  0  1  0  0  0  0  0999 V2000
   26.6537  -20.9023  -15.1232 N   0  0  0  0  0  0  0  0  0  0  0  0
   27.5351  -19.9981  -14.4118 C   0  0  1  0  0  0  0  0  0  0  0  0
   27.6330  -18.6843  -15.1604 C   0  0  0  0  0  0  0  0  0  0  0  0
   28.3336  -18.9071  -16.4431 C   0  0  0  0  0  0  0  0  0  0  0  0
   28.6124  -20.0755  -16.7972 O   0  0  0  0  0  0  0  0  0  0  0  0
   26.8682  -19.6644  -13.1071 C   0  0  0  0  0  0  0  0  0  0  0  0
   26.7737  -18.4955  -12.7015 O   0  0  0  0  0  0  0  0  0  0  0  0
   28.7023  -17.8702  -17.2855 O   0  0  0  0  0  0  0  0  0  0  0  0
   26.3309  -20.7031  -12.3125 N   0  0  0  0  0  0  0  0  0  0  0  0
   25.6503  -20.5707  -11.0678 C   0  0  1  0  0  0  0  0  0  0  0  0
   24.3029  -21.3202  -11.0201 C   0  0  0  0  0  0  0  0  0  0  0  0
   23.1699  -20.4910  -11.4538 C   0  0  0  0  0  0  0  0  0  0  0  0
   22.1609  -19.9466  -10.7188 C   0  0  0  0  0  0  0  0  0  0  0  0
   21.3185  -19.2383  -11.5187 N   0  0  0  0  0  0  0  0  0  0  0  0
   21.7533  -19.3043  -12.7698 C   0  0  0  0  0  0  0  0  0  0  0  0
   21.3156  -18.7898  -13.9812 C   0  0  0  0  0  0  0  0  0  0  0  0
   22.0151  -19.0474  -15.1326 C   0  0  0  0  0  0  0  0  0  0  0  0
   23.1646  -19.8155  -15.1395 C   0  0  0  0  0  0  0  0  0  0  0  0
   23.5897  -20.3222  -13.9276 C   0  0  0  0  0  0  0  0  0  0  0  0
   22.8931  -20.0684  -12.7687 C   0  0  0  0  0  0  0  0  0  0  0  0
   26.4149  -20.8791   -9.8686 C   0  0  0  0  0  0  0  0  0  0  0  0
   27.0292  -21.9989   -9.7870 O   0  0  0  0  0  0  0  0  0  0  0  0
   29.7352  -18.6659   -5.2417 C   0  0  0  0  0  0  0  0  0  0  0  0
   28.8815  -19.8029   -5.7094 C   0  0  0  0  0  0  0  0  0  0  0  0
   28.0849  -19.4787   -6.9045 C   0  0  2  0  0  0  0  0  0  0  0  0
   27.3731  -18.1269   -6.7409 C   0  0  0  0  0  0  0  0  0  0  0  0
   27.1863  -20.4851   -7.4883 C   0  0  2  0  0  0  0  0  0  0  0  0
   26.5525  -20.0286   -8.7382 N   0  0  0  0  0  0  0  0  0  0  0  0
   26.1046  -20.9089   -6.5901 C   0  0  0  0  0  0  0  0  0  0  0  0
   26.3417  -21.7195   -5.4578 O   0  0  0  0  0  0  0  0  0  0  0  0
   24.9011  -20.5861   -6.7545 O   0  0  0  0  0  0  0  0  0  0  0  0
  2  1  1  6
  2  6  1  0
  3  4  1  0
  3  2  1  0
  4  5  2  0
  6  7  2  0
  8  4  1  0
  9  6  1  0
  9 10  1  0
 10 11  1  6
 11 12  1  0
 12 13  2  0
 13 14  1  0
 15 14  1  0
 16 15  2  0
 17 16  1  0
 18 19  1  0
 18 17  2  0
 19 20  2  0
 20 12  1  0
 20 15  1  0
 21 10  1  0
 21 22  2  0
 23 24  1  0
 24 25  1  0
 25 27  1  0
 25 26  1  1
 27 29  1  0
 27 28  1  6
 28 21  1  0
 29 30  1  0
 31 29  2  0
M  END
$$$$
