DWI.pdb
     RDKit          3D

 31 32  0  0  1  0  0  0  0  0999 V2000
   29.0723  -20.8879  -14.1210 N   0  0  0  0  0  0  0  0  0  0  0  0
   27.6670  -20.7060  -14.4249 C   0  0  1  0  0  0  0  0  0  0  0  0
   27.2425  -21.6927  -15.4936 C   0  0  0  0  0  0  0  0  0  0  0  0
   28.0013  -21.4224  -16.7333 C   0  0  0  0  0  0  0  0  0  0  0  0
   27.9497  -20.2829  -17.2503 O   0  0  0  0  0  0  0  0  0  0  0  0
   26.8942  -21.0933  -13.1956 C   0  0  0  0  0  0  0  0  0  0  0  0
   25.8375  -21.7402  -13.2646 O   0  0  0  0  0  0  0  0  0  0  0  0
   28.7788  -22.3830  -17.3605 O   0  0  0  0  0  0  0  0  0  0  0  0
   27.3753  -20.7150  -11.9211 N   0  0  0  0  0  0  0  0  0  0  0  0
   26.7076  -20.8601  -10.6709 C   0  0  1  0  0  0  0  0  0  0  0  0
   27.5390  -20.3686   -9.4681 C   0  0  0  0  0  0  0  0  0  0  0  0
   26.8418  -20.5303   -8.1847 C   0  0  0  0  0  0  0  0  0  0  0  0
   25.6363  -21.1050   -7.9177 C   0  0  0  0  0  0  0  0  0  0  0  0
   25.3676  -21.0493   -6.5852 N   0  0  0  0  0  0  0  0  0  0  0  0
   26.3746  -20.4482   -5.9661 C   0  0  0  0  0  0  0  0  0  0  0  0
   26.6505  -20.1208   -4.6469 C   0  0  0  0  0  0  0  0  0  0  0  0
   27.8214  -19.4829   -4.3253 C   0  0  0  0  0  0  0  0  0  0  0  0
   28.7615  -19.1437   -5.2806 C   0  0  0  0  0  0  0  0  0  0  0  0
   28.4751  -19.4748   -6.5900 C   0  0  0  0  0  0  0  0  0  0  0  0
   27.3026  -20.1143   -6.9203 C   0  0  0  0  0  0  0  0  0  0  0  0
   25.3620  -20.3133  -10.5810 C   0  0  0  0  0  0  0  0  0  0  0  0
   25.2026  -19.0444  -10.5309 O   0  0  0  0  0  0  0  0  0  0  0  0
   22.6392  -20.7471  -14.6615 C   0  0  0  0  0  0  0  0  0  0  0  0
   23.1680  -20.2672  -13.3461 C   0  0  0  0  0  0  0  0  0  0  0  0
   22.3826  -20.7430  -12.1951 C   0  0  2  0  0  0  0  0  0  0  0  0
   20.8972  -20.3854  -12.3573 C   0  0  0  0  0  0  0  0  0  0  0  0
   22.8462  -20.4790  -10.8252 C   0  0  2  0  0  0  0  0  0  0  0  0
   24.1637  -21.0766  -10.5428 N   0  0  0  0  0  0  0  0  0  0  0  0
   21.9276  -20.9572   -9.7841 C   0  0  0  0  0  0  0  0  0  0  0  0
   22.2218  -22.0810   -8.9802 O   0  0  0  0  0  0  0  0  0  0  0  0
   20.8251  -20.4106   -9.5285 O   0  0  0  0  0  0  0  0  0  0  0  0
  2  1  1  1
  2  6  1  0
  3  4  1  0
  3  2  1  0
  4  5  2  0
  6  7  2  0
  8  4  1  0
  9  6  1  0
  9 10  1  0
 10 11  1  1
 11 12  1  0
 12 13  2  0
 13 14  1  0
 15 14  1  0
 16 15  2  0
 17 16  1  0
 18 19  1  0
 18 17  2  0
 19 20  2  0
 20 12  1  0
 20 15  1  0
 21 10  1  0
 21 22  2  0
 23 24  1  0
 24 25  1  0
 25 27  1  0
 25 26  1  1
 27 29  1  0
 27 28  1  1
 28 21  1  0
 29 30  1  0
 31 29  2  0
M  END
$$$$
