DWI.pdb
     RDKit          3D

 31 32  0  0  1  0  0  0  0  0999 V2000
   26.8332  -20.7110  -16.2101 N   0  0  0  0  0  0  0  0  0  0  0  0
   27.4825  -21.4409  -15.1396 C   0  0  1  0  0  0  0  0  0  0  0  0
   28.9843  -21.4150  -15.3399 C   0  0  0  0  0  0  0  0  0  0  0  0
   29.3540  -22.4078  -16.3711 C   0  0  0  0  0  0  0  0  0  0  0  0
   28.4520  -22.9976  -17.0089 O   0  0  0  0  0  0  0  0  0  0  0  0
   27.2369  -20.6762  -13.8694 C   0  0  0  0  0  0  0  0  0  0  0  0
   27.6481  -19.5157  -13.7152 O   0  0  0  0  0  0  0  0  0  0  0  0
   30.6701  -22.7220  -16.6711 O   0  0  0  0  0  0  0  0  0  0  0  0
   26.5190  -21.2866  -12.8154 N   0  0  0  0  0  0  0  0  0  0  0  0
   25.9779  -20.6508  -11.6608 C   0  0  1  0  0  0  0  0  0  0  0  0
   24.4510  -20.4427  -11.7312 C   0  0  0  0  0  0  0  0  0  0  0  0
   24.0426  -19.5619  -12.8342 C   0  0  0  0  0  0  0  0  0  0  0  0
   24.5907  -18.3893  -13.2576 C   0  0  0  0  0  0  0  0  0  0  0  0
   23.9022  -17.9002  -14.3242 N   0  0  0  0  0  0  0  0  0  0  0  0
   22.9085  -18.7293  -14.6141 C   0  0  0  0  0  0  0  0  0  0  0  0
   21.9069  -18.7512  -15.5732 C   0  0  0  0  0  0  0  0  0  0  0  0
   21.0082  -19.7867  -15.6079 C   0  0  0  0  0  0  0  0  0  0  0  0
   21.0575  -20.8349  -14.7077 C   0  0  0  0  0  0  0  0  0  0  0  0
   22.0588  -20.8014  -13.7578 C   0  0  0  0  0  0  0  0  0  0  0  0
   22.9637  -19.7659  -13.7166 C   0  0  0  0  0  0  0  0  0  0  0  0
   26.3254  -21.2304  -10.3721 C   0  0  0  0  0  0  0  0  0  0  0  0
   26.1796  -22.4888  -10.1903 O   0  0  0  0  0  0  0  0  0  0  0  0
   27.9729  -18.5642   -5.2641 C   0  0  0  0  0  0  0  0  0  0  0  0
   27.3603  -18.9716   -6.5676 C   0  0  0  0  0  0  0  0  0  0  0  0
   27.7168  -20.3410   -6.9749 C   0  0  2  0  0  0  0  0  0  0  0  0
   29.1881  -20.4197   -7.4107 C   0  0  0  0  0  0  0  0  0  0  0  0
   26.8487  -21.0864   -7.8978 C   0  0  2  0  0  0  0  0  0  0  0  0
   26.8299  -20.5111   -9.2547 N   0  0  0  0  0  0  0  0  0  0  0  0
   25.4520  -21.1818   -7.4543 C   0  0  0  0  0  0  0  0  0  0  0  0
   24.4035  -20.5114   -8.1226 O   0  0  0  0  0  0  0  0  0  0  0  0
   25.0851  -21.8596   -6.4615 O   0  0  0  0  0  0  0  0  0  0  0  0
  2  1  1  6
  2  6  1  0
  3  4  1  0
  3  2  1  0
  4  5  2  0
  6  7  2  0
  8  4  1  0
  9  6  1  0
  9 10  1  0
 10 11  1  6
 11 12  1  0
 12 13  2  0
 13 14  1  0
 15 14  1  0
 16 15  2  0
 17 16  1  0
 18 19  1  0
 18 17  2  0
 19 20  2  0
 20 12  1  0
 20 15  1  0
 21 10  1  0
 21 22  2  0
 23 24  1  0
 24 25  1  0
 25 27  1  0
 25 26  1  6
 27 29  1  0
 27 28  1  6
 28 21  1  0
 29 30  1  0
 31 29  2  0
M  END
$$$$
