DWI.pdb
     RDKit          3D

 31 32  0  0  1  0  0  0  0  0999 V2000
   27.9980  -22.0585  -15.1937 N   0  0  0  0  0  0  0  0  0  0  0  0
   27.8217  -20.8117  -14.4762 C   0  0  1  0  0  0  0  0  0  0  0  0
   27.0206  -19.8430  -15.3223 C   0  0  0  0  0  0  0  0  0  0  0  0
   27.8505  -19.3893  -16.4586 C   0  0  0  0  0  0  0  0  0  0  0  0
   27.3112  -19.1791  -17.5692 O   0  0  0  0  0  0  0  0  0  0  0  0
   26.9580  -21.1060  -13.2821 C   0  0  0  0  0  0  0  0  0  0  0  0
   25.8706  -21.6938  -13.3909 O   0  0  0  0  0  0  0  0  0  0  0  0
   29.2167  -19.1820  -16.3530 O   0  0  0  0  0  0  0  0  0  0  0  0
   27.3867  -20.7064  -11.9955 N   0  0  0  0  0  0  0  0  0  0  0  0
   26.6448  -20.7746  -10.7810 C   0  0  1  0  0  0  0  0  0  0  0  0
   27.4144  -20.2340   -9.5582 C   0  0  0  0  0  0  0  0  0  0  0  0
   26.7281  -20.4984   -8.2861 C   0  0  0  0  0  0  0  0  0  0  0  0
   25.5369  -21.1165   -8.0542 C   0  0  0  0  0  0  0  0  0  0  0  0
   25.2745  -21.1580   -6.7198 N   0  0  0  0  0  0  0  0  0  0  0  0
   26.2717  -20.5786   -6.0652 C   0  0  0  0  0  0  0  0  0  0  0  0
   26.5478  -20.3361   -4.7278 C   0  0  0  0  0  0  0  0  0  0  0  0
   27.7064  -19.6960   -4.3681 C   0  0  0  0  0  0  0  0  0  0  0  0
   28.6335  -19.2716   -5.3018 C   0  0  0  0  0  0  0  0  0  0  0  0
   28.3470  -19.5186   -6.6296 C   0  0  0  0  0  0  0  0  0  0  0  0
   27.1868  -20.1597   -6.9980 C   0  0  0  0  0  0  0  0  0  0  0  0
   25.3071  -20.2020  -10.7991 C   0  0  0  0  0  0  0  0  0  0  0  0
   25.1679  -18.9373  -10.9374 O   0  0  0  0  0  0  0  0  0  0  0  0
   22.9398  -20.0568  -14.8675 C   0  0  0  0  0  0  0  0  0  0  0  0
   23.3784  -19.8329  -13.4541 C   0  0  0  0  0  0  0  0  0  0  0  0
   22.4871  -20.4582  -12.4628 C   0  0  2  0  0  0  0  0  0  0  0  0
   21.0177  -20.1114  -12.7482 C   0  0  0  0  0  0  0  0  0  0  0  0
   22.7889  -20.3522  -11.0279 C   0  0  2  0  0  0  0  0  0  0  0  0
   24.0958  -20.9350  -10.6745 N   0  0  0  0  0  0  0  0  0  0  0  0
   21.7885  -20.9881  -10.1612 C   0  0  0  0  0  0  0  0  0  0  0  0
   20.8350  -20.2380   -9.4376 O   0  0  0  0  0  0  0  0  0  0  0  0
   21.7018  -22.2316   -9.9998 O   0  0  0  0  0  0  0  0  0  0  0  0
  2  1  1  6
  2  6  1  0
  3  4  1  0
  3  2  1  0
  4  5  2  0
  6  7  2  0
  8  4  1  0
  9  6  1  0
  9 10  1  0
 10 11  1  1
 11 12  1  0
 12 13  2  0
 13 14  1  0
 15 14  1  0
 16 15  2  0
 17 16  1  0
 18 19  1  0
 18 17  2  0
 19 20  2  0
 20 12  1  0
 20 15  1  0
 21 10  1  0
 21 22  2  0
 23 24  1  0
 24 25  1  0
 25 27  1  0
 25 26  1  1
 27 29  1  0
 27 28  1  6
 28 21  1  0
 29 30  1  0
 31 29  2  0
M  END
$$$$
