DWI.pdb
     RDKit          3D

 31 32  0  0  1  0  0  0  0  0999 V2000
   28.1259  -22.3827  -15.5512 N   0  0  0  0  0  0  0  0  0  0  0  0
   28.2388  -21.2329  -14.6763 C   0  0  1  0  0  0  0  0  0  0  0  0
   27.6330  -20.0172  -15.3481 C   0  0  0  0  0  0  0  0  0  0  0  0
   28.4940  -19.6068  -16.4777 C   0  0  0  0  0  0  0  0  0  0  0  0
   27.9659  -19.1911  -17.5345 O   0  0  0  0  0  0  0  0  0  0  0  0
   27.3710  -21.5003  -13.4790 C   0  0  0  0  0  0  0  0  0  0  0  0
   26.2757  -22.0748  -13.5807 O   0  0  0  0  0  0  0  0  0  0  0  0
   29.8778  -19.6602  -16.4232 O   0  0  0  0  0  0  0  0  0  0  0  0
   27.8047  -21.0899  -12.1974 N   0  0  0  0  0  0  0  0  0  0  0  0
   27.0493  -21.0979  -10.9894 C   0  0  1  0  0  0  0  0  0  0  0  0
   27.8586  -20.6523   -9.7541 C   0  0  0  0  0  0  0  0  0  0  0  0
   27.0420  -20.5609   -8.5360 C   0  0  0  0  0  0  0  0  0  0  0  0
   25.7197  -20.8319   -8.3546 C   0  0  0  0  0  0  0  0  0  0  0  0
   25.3643  -20.6208   -7.0584 N   0  0  0  0  0  0  0  0  0  0  0  0
   26.4287  -20.2154   -6.3792 C   0  0  0  0  0  0  0  0  0  0  0  0
   26.6649  -19.8622   -5.0589 C   0  0  0  0  0  0  0  0  0  0  0  0
   27.9206  -19.4792   -4.6617 C   0  0  0  0  0  0  0  0  0  0  0  0
   28.9871  -19.4282   -5.5401 C   0  0  0  0  0  0  0  0  0  0  0  0
   28.7391  -19.7818   -6.8515 C   0  0  0  0  0  0  0  0  0  0  0  0
   27.4821  -20.1667   -7.2573 C   0  0  0  0  0  0  0  0  0  0  0  0
   25.7761  -20.3935  -11.0099 C   0  0  0  0  0  0  0  0  0  0  0  0
   25.7656  -19.1148  -10.9558 O   0  0  0  0  0  0  0  0  0  0  0  0
   21.7268  -21.7497  -14.5769 C   0  0  0  0  0  0  0  0  0  0  0  0
   22.1852  -21.7213  -13.1524 C   0  0  0  0  0  0  0  0  0  0  0  0
   22.7994  -20.4406  -12.7646 C   0  0  2  0  0  0  0  0  0  0  0  0
   23.8583  -20.0057  -13.7895 C   0  0  0  0  0  0  0  0  0  0  0  0
   23.2764  -20.2370  -11.3890 C   0  0  2  0  0  0  0  0  0  0  0  0
   24.4964  -21.0073  -11.0876 N   0  0  0  0  0  0  0  0  0  0  0  0
   22.2876  -20.5819  -10.3596 C   0  0  0  0  0  0  0  0  0  0  0  0
   21.1151  -19.8202  -10.1581 O   0  0  0  0  0  0  0  0  0  0  0  0
   22.4040  -21.5688   -9.5901 O   0  0  0  0  0  0  0  0  0  0  0  0
  2  1  1  6
  2  6  1  0
  3  4  1  0
  3  2  1  0
  4  5  2  0
  6  7  2  0
  8  4  1  0
  9  6  1  0
  9 10  1  0
 10 11  1  1
 11 12  1  0
 12 13  2  0
 13 14  1  0
 15 14  1  0
 16 15  2  0
 17 16  1  0
 18 19  1  0
 18 17  2  0
 19 20  2  0
 20 12  1  0
 20 15  1  0
 21 10  1  0
 21 22  2  0
 23 24  1  0
 24 25  1  0
 25 27  1  0
 25 26  1  6
 27 29  1  0
 27 28  1  1
 28 21  1  0
 29 30  1  0
 31 29  2  0
M  END
$$$$
