DWI.pdb
     RDKit          3D

 31 32  0  0  1  0  0  0  0  0999 V2000
   23.7682  -19.7481  -15.4456 N   0  0  0  0  0  0  0  0  0  0  0  0
   22.7766  -20.4963  -14.6991 C   0  0  1  0  0  0  0  0  0  0  0  0
   22.3572  -21.7196  -15.4887 C   0  0  0  0  0  0  0  0  0  0  0  0
   21.6150  -21.2896  -16.6929 C   0  0  0  0  0  0  0  0  0  0  0  0
   22.2388  -21.0816  -17.7586 O   0  0  0  0  0  0  0  0  0  0  0  0
   23.4570  -21.0297  -13.4698 C   0  0  0  0  0  0  0  0  0  0  0  0
   23.0652  -22.0608  -12.9013 O   0  0  0  0  0  0  0  0  0  0  0  0
   20.2417  -21.1028  -16.6998 O   0  0  0  0  0  0  0  0  0  0  0  0
   24.5743  -20.3455  -12.9385 N   0  0  0  0  0  0  0  0  0  0  0  0
   25.2648  -20.6354  -11.7264 C   0  0  1  0  0  0  0  0  0  0  0  0
   26.6513  -19.9658  -11.6324 C   0  0  0  0  0  0  0  0  0  0  0  0
   27.4812  -20.5149  -10.5512 C   0  0  0  0  0  0  0  0  0  0  0  0
   28.3177  -21.5896  -10.5589 C   0  0  0  0  0  0  0  0  0  0  0  0
   28.9019  -21.7463   -9.3403 N   0  0  0  0  0  0  0  0  0  0  0  0
   28.4668  -20.7935   -8.5268 C   0  0  0  0  0  0  0  0  0  0  0  0
   28.7096  -20.4572   -7.2034 C   0  0  0  0  0  0  0  0  0  0  0  0
   28.0824  -19.3748   -6.6409 C   0  0  0  0  0  0  0  0  0  0  0  0
   27.1975  -18.5853   -7.3516 C   0  0  0  0  0  0  0  0  0  0  0  0
   26.9640  -18.9306   -8.6678 C   0  0  0  0  0  0  0  0  0  0  0  0
   27.5892  -20.0150   -9.2387 C   0  0  0  0  0  0  0  0  0  0  0  0
   24.5356  -20.4074  -10.4879 C   0  0  0  0  0  0  0  0  0  0  0  0
   23.9300  -19.2935  -10.3125 O   0  0  0  0  0  0  0  0  0  0  0  0
   19.9927  -21.4458   -9.5982 C   0  0  0  0  0  0  0  0  0  0  0  0
   21.3530  -20.8363   -9.4630 C   0  0  0  0  0  0  0  0  0  0  0  0
   22.1822  -21.4869   -8.4348 C   0  0  2  0  0  0  0  0  0  0  0  0
   21.4333  -21.5696   -7.0957 C   0  0  0  0  0  0  0  0  0  0  0  0
   23.5777  -21.0686   -8.2381 C   0  0  2  0  0  0  0  0  0  0  0  0
   24.4246  -21.3331   -9.4151 N   0  0  0  0  0  0  0  0  0  0  0  0
   24.2328  -21.7048   -7.0881 C   0  0  0  0  0  0  0  0  0  0  0  0
   24.1618  -21.1605   -5.7865 O   0  0  0  0  0  0  0  0  0  0  0  0
   24.8960  -22.7693   -7.1701 O   0  0  0  0  0  0  0  0  0  0  0  0
  2  1  1  6
  2  6  1  0
  3  4  1  0
  3  2  1  0
  4  5  2  0
  6  7  2  0
  8  4  1  0
  9  6  1  0
  9 10  1  0
 10 11  1  1
 11 12  1  0
 12 13  2  0
 13 14  1  0
 15 14  1  0
 16 15  2  0
 17 16  1  0
 18 19  1  0
 18 17  2  0
 19 20  2  0
 20 12  1  0
 20 15  1  0
 21 10  1  0
 21 22  2  0
 23 24  1  0
 24 25  1  0
 25 27  1  0
 25 26  1  1
 27 29  1  0
 27 28  1  6
 28 21  1  0
 29 30  1  0
 31 29  2  0
M  END
$$$$
