CCK.pdb
     RDKit          3D

 22 21  0  0  1  0  0  0  0  0999 V2000
    6.8356  -16.2084   18.7451 N   0  0  0  0  0  0  0  0  0  0  0  0
    7.7895  -15.1388   18.5083 C   0  0  1  0  0  0  0  0  0  0  0  0
    7.0000  -13.9078   18.1511 C   0  0  0  0  0  0  0  0  0  0  0  0
    8.0381  -12.5450   17.5898 S   0  0  0  0  0  0  0  0  0  0  0  0
    8.6498  -14.9544   19.6920 C   0  0  0  0  0  0  0  0  0  0  0  0
    9.8773  -14.7134   19.5260 O   0  0  0  0  0  0  0  0  0  0  0  0
    8.1897  -15.0295   21.0249 N   0  0  0  0  0  0  0  0  0  0  0  0
    8.9834  -14.8578   22.1961 C   0  0  1  0  0  0  0  0  0  0  0  0
    8.1032  -14.2154   23.2762 C   0  0  0  0  0  0  0  0  0  0  0  0
    6.7843  -15.3069   23.8076 S   0  0  0  0  0  0  0  0  0  0  0  0
    9.6152  -16.0796   22.6896 C   0  0  0  0  0  0  0  0  0  0  0  0
    8.9709  -17.1562   22.6542 O   0  0  0  0  0  0  0  0  0  0  0  0
   10.9300  -16.1406   23.2168 N   0  0  0  0  0  0  0  0  0  0  0  0
   11.5889  -17.3869   23.5912 C   0  0  1  0  0  0  0  0  0  0  0  0
   12.7190  -17.7498   22.7040 C   0  0  0  0  0  0  0  0  0  0  0  0
   12.4194  -18.4953   21.4631 C   0  0  0  0  0  0  0  0  0  0  0  0
   13.5741  -18.8660   20.5953 C   0  0  0  0  0  0  0  0  0  0  0  0
   13.0270  -19.6683   19.3971 C   0  0  0  0  0  0  0  0  0  0  0  0
   14.1357  -20.1654   18.6037 N   0  0  0  0  0  0  0  0  0  0  0  0
   11.9275  -17.2972   25.0270 C   0  0  0  0  0  0  0  0  0  0  0  0
   11.7526  -16.2278   25.6595 O   0  0  0  0  0  0  0  0  0  0  0  0
   12.4468  -18.3828   25.7144 O   0  0  0  0  0  0  0  0  0  0  0  0
  2  1  1  1
  2  5  1  0
  3  2  1  0
  4  3  1  0
  5  6  2  0
  7  5  1  0
  7  8  1  0
  8 11  1  0
  8  9  1  1
 10  9  1  0
 11 13  1  0
 12 11  2  0
 13 14  1  0
 14 15  1  6
 15 16  1  0
 16 17  1  0
 17 18  1  0
 19 18  1  0
 20 22  1  0
 20 14  1  0
 21 20  2  0
M  END
$$$$
