CCK.pdb
     RDKit          3D

 22 21  0  0  1  0  0  0  0  0999 V2000
    8.0708  -13.8852   20.2173 N   0  0  0  0  0  0  0  0  0  0  0  0
    7.2179  -14.3498   21.2975 C   0  0  1  0  0  0  0  0  0  0  0  0
    6.6983  -15.7066   20.9037 C   0  0  0  0  0  0  0  0  0  0  0  0
    5.8387  -16.5474   22.2469 S   0  0  0  0  0  0  0  0  0  0  0  0
    7.9675  -14.3605   22.5676 C   0  0  0  0  0  0  0  0  0  0  0  0
    9.1936  -14.6586   22.5531 O   0  0  0  0  0  0  0  0  0  0  0  0
    7.4008  -14.0551   23.8244 N   0  0  0  0  0  0  0  0  0  0  0  0
    8.0645  -14.1304   25.0833 C   0  0  1  0  0  0  0  0  0  0  0  0
    7.3129  -13.2284   26.0710 C   0  0  0  0  0  0  0  0  0  0  0  0
    5.6269  -13.7768   26.3353 S   0  0  0  0  0  0  0  0  0  0  0  0
    8.2139  -15.4835   25.6145 C   0  0  0  0  0  0  0  0  0  0  0  0
    7.2340  -16.2667   25.5719 O   0  0  0  0  0  0  0  0  0  0  0  0
    9.4088  -15.9882   26.1868 N   0  0  0  0  0  0  0  0  0  0  0  0
    9.5338  -17.3369   26.7282 C   0  0  1  0  0  0  0  0  0  0  0  0
   10.1741  -18.2934   25.7949 C   0  0  0  0  0  0  0  0  0  0  0  0
    9.4765  -19.5661   25.5141 C   0  0  0  0  0  0  0  0  0  0  0  0
    8.6138  -19.6165   24.2988 C   0  0  0  0  0  0  0  0  0  0  0  0
    8.0644  -21.0517   24.1678 C   0  0  0  0  0  0  0  0  0  0  0  0
    7.1510  -21.1169   23.0420 N   0  0  0  0  0  0  0  0  0  0  0  0
   10.1836  -17.2268   28.0510 C   0  0  0  0  0  0  0  0  0  0  0  0
   10.4536  -18.2545   28.7182 O   0  0  0  0  0  0  0  0  0  0  0  0
   10.5110  -15.9940   28.5930 O   0  0  0  0  0  0  0  0  0  0  0  0
  2  1  1  6
  2  5  1  0
  3  2  1  0
  4  3  1  0
  5  6  2  0
  7  5  1  0
  7  8  1  0
  8 11  1  0
  8  9  1  1
 10  9  1  0
 11 13  1  0
 12 11  2  0
 13 14  1  0
 14 15  1  6
 15 16  1  0
 16 17  1  0
 17 18  1  0
 19 18  1  0
 20 22  1  0
 20 14  1  0
 21 20  2  0
M  END
$$$$
