CCK.pdb
     RDKit          3D

 22 21  0  0  1  0  0  0  0  0999 V2000
   10.4616  -19.4878   18.3378 N   0  0  0  0  0  0  0  0  0  0  0  0
   11.5535  -20.2913   18.8598 C   0  0  1  0  0  0  0  0  0  0  0  0
   12.6336  -20.3112   17.8114 C   0  0  0  0  0  0  0  0  0  0  0  0
   12.9751  -21.9668   17.1850 S   0  0  0  0  0  0  0  0  0  0  0  0
   12.0091  -19.7495   20.1537 C   0  0  0  0  0  0  0  0  0  0  0  0
   11.5558  -18.6396   20.5473 O   0  0  0  0  0  0  0  0  0  0  0  0
   12.9350  -20.3963   21.0012 N   0  0  0  0  0  0  0  0  0  0  0  0
   13.3255  -19.9626   22.3014 C   0  0  1  0  0  0  0  0  0  0  0  0
   12.0640  -19.8701   23.1698 C   0  0  0  0  0  0  0  0  0  0  0  0
   12.4398  -19.3871   24.8546 S   0  0  0  0  0  0  0  0  0  0  0  0
   14.3452  -20.7916   22.9406 C   0  0  0  0  0  0  0  0  0  0  0  0
   14.0490  -21.9596   23.2919 O   0  0  0  0  0  0  0  0  0  0  0  0
   15.6725  -20.3655   23.1989 N   0  0  0  0  0  0  0  0  0  0  0  0
   16.7078  -21.2413   23.7363 C   0  0  1  0  0  0  0  0  0  0  0  0
   18.0852  -20.7871   23.4322 C   0  0  0  0  0  0  0  0  0  0  0  0
   18.5019  -20.7256   22.0152 C   0  0  0  0  0  0  0  0  0  0  0  0
   19.8680  -20.2003   21.7291 C   0  0  0  0  0  0  0  0  0  0  0  0
   20.1072  -20.3078   20.2092 C   0  0  0  0  0  0  0  0  0  0  0  0
   21.3364  -19.6174   19.8651 N   0  0  0  0  0  0  0  0  0  0  0  0
   16.4201  -21.4414   25.1721 C   0  0  0  0  0  0  0  0  0  0  0  0
   15.7209  -20.6142   25.8053 O   0  0  0  0  0  0  0  0  0  0  0  0
   16.9114  -22.5399   25.8595 O   0  0  0  0  0  0  0  0  0  0  0  0
  2  1  1  6
  2  5  1  0
  3  2  1  0
  4  3  1  0
  5  6  2  0
  7  5  1  0
  7  8  1  0
  8 11  1  0
  8  9  1  1
 10  9  1  0
 11 13  1  0
 12 11  2  0
 13 14  1  0
 14 15  1  1
 15 16  1  0
 16 17  1  0
 17 18  1  0
 19 18  1  0
 20 22  1  0
 20 14  1  0
 21 20  2  0
M  END
$$$$
