CCK.pdb
     RDKit          3D

 22 21  0  0  1  0  0  0  0  0999 V2000
    8.6343  -12.8273   18.0147 N   0  0  0  0  0  0  0  0  0  0  0  0
    9.1601  -14.0104   18.6734 C   0  0  1  0  0  0  0  0  0  0  0  0
   10.6439  -13.8110   18.8309 C   0  0  0  0  0  0  0  0  0  0  0  0
   11.0584  -12.5566   20.0575 S   0  0  0  0  0  0  0  0  0  0  0  0
    8.4637  -14.2298   19.9549 C   0  0  0  0  0  0  0  0  0  0  0  0
    7.8620  -13.2632   20.4988 O   0  0  0  0  0  0  0  0  0  0  0  0
    8.4208  -15.4688   20.6309 N   0  0  0  0  0  0  0  0  0  0  0  0
    7.8006  -15.7151   21.8901 C   0  0  1  0  0  0  0  0  0  0  0  0
    6.8106  -16.8739   21.7133 C   0  0  0  0  0  0  0  0  0  0  0  0
    6.0940  -17.3917   23.2725 S   0  0  0  0  0  0  0  0  0  0  0  0
    8.7296  -15.9789   22.9868 C   0  0  0  0  0  0  0  0  0  0  0  0
    9.7433  -16.6867   22.7700 O   0  0  0  0  0  0  0  0  0  0  0  0
    8.5677  -15.4843   24.3056 N   0  0  0  0  0  0  0  0  0  0  0  0
    9.4848  -15.7912   25.3976 C   0  0  1  0  0  0  0  0  0  0  0  0
    9.1900  -15.0488   26.6458 C   0  0  0  0  0  0  0  0  0  0  0  0
   10.0040  -15.3473   27.8431 C   0  0  0  0  0  0  0  0  0  0  0  0
    9.6643  -14.6159   29.0975 C   0  0  0  0  0  0  0  0  0  0  0  0
   10.6284  -15.0967   30.2012 C   0  0  0  0  0  0  0  0  0  0  0  0
   10.3542  -14.3731   31.4289 N   0  0  0  0  0  0  0  0  0  0  0  0
    9.5282  -17.2613   25.5422 C   0  0  0  0  0  0  0  0  0  0  0  0
    8.4826  -17.9459   25.4309 O   0  0  0  0  0  0  0  0  0  0  0  0
   10.7161  -17.9251   25.8051 O   0  0  0  0  0  0  0  0  0  0  0  0
  2  1  1  1
  2  5  1  0
  3  2  1  0
  4  3  1  0
  5  6  2  0
  7  5  1  0
  7  8  1  0
  8 11  1  0
  8  9  1  6
 10  9  1  0
 11 13  1  0
 12 11  2  0
 13 14  1  0
 14 15  1  1
 15 16  1  0
 16 17  1  0
 17 18  1  0
 19 18  1  0
 20 22  1  0
 20 14  1  0
 21 20  2  0
M  END
$$$$
