CCK.pdb
     RDKit          3D

 22 21  0  0  1  0  0  0  0  0999 V2000
    7.4960  -14.4051   17.3321 N   0  0  0  0  0  0  0  0  0  0  0  0
    8.3702  -14.1802   18.4703 C   0  0  1  0  0  0  0  0  0  0  0  0
    7.8359  -12.9855   19.2142 C   0  0  0  0  0  0  0  0  0  0  0  0
    8.9495  -11.5688   19.1617 S   0  0  0  0  0  0  0  0  0  0  0  0
    8.4451  -15.3965   19.3011 C   0  0  0  0  0  0  0  0  0  0  0  0
    7.6550  -16.3512   19.0628 O   0  0  0  0  0  0  0  0  0  0  0  0
    9.3558  -15.5736   20.3657 N   0  0  0  0  0  0  0  0  0  0  0  0
    9.5326  -16.7650   21.1274 C   0  0  1  0  0  0  0  0  0  0  0  0
   10.0114  -17.8698   20.1765 C   0  0  0  0  0  0  0  0  0  0  0  0
   10.3898  -19.3905   21.0468 S   0  0  0  0  0  0  0  0  0  0  0  0
   10.4308  -16.6297   22.2722 C   0  0  0  0  0  0  0  0  0  0  0  0
   11.6330  -16.3299   22.0716 O   0  0  0  0  0  0  0  0  0  0  0  0
   10.0368  -16.8160   23.6213 N   0  0  0  0  0  0  0  0  0  0  0  0
   10.8221  -16.3518   24.7596 C   0  0  1  0  0  0  0  0  0  0  0  0
    9.9970  -15.9157   25.9106 C   0  0  0  0  0  0  0  0  0  0  0  0
   10.6905  -15.3958   27.1081 C   0  0  0  0  0  0  0  0  0  0  0  0
    9.8488  -15.0697   28.2951 C   0  0  0  0  0  0  0  0  0  0  0  0
   10.7868  -14.5984   29.4251 C   0  0  0  0  0  0  0  0  0  0  0  0
    9.9932  -14.1523   30.5552 N   0  0  0  0  0  0  0  0  0  0  0  0
   11.8194  -17.3978   25.0682 C   0  0  0  0  0  0  0  0  0  0  0  0
   11.5446  -18.6112   24.9054 O   0  0  0  0  0  0  0  0  0  0  0  0
   13.0796  -17.0740   25.5455 O   0  0  0  0  0  0  0  0  0  0  0  0
  2  1  1  6
  2  5  1  0
  3  2  1  0
  4  3  1  0
  5  6  2  0
  7  5  1  0
  7  8  1  0
  8 11  1  0
  8  9  1  6
 10  9  1  0
 11 13  1  0
 12 11  2  0
 13 14  1  0
 14 15  1  1
 15 16  1  0
 16 17  1  0
 17 18  1  0
 19 18  1  0
 20 22  1  0
 20 14  1  0
 21 20  2  0
M  END
$$$$
