CCK.pdb
     RDKit          3D

 22 21  0  0  1  0  0  0  0  0999 V2000
    9.0949  -15.7248   20.4898 N   0  0  0  0  0  0  0  0  0  0  0  0
    8.0665  -15.7268   21.5157 C   0  0  1  0  0  0  0  0  0  0  0  0
    7.6225  -17.1535   21.6996 C   0  0  0  0  0  0  0  0  0  0  0  0
    6.6513  -17.7719   20.3124 S   0  0  0  0  0  0  0  0  0  0  0  0
    8.5834  -15.1147   22.7540 C   0  0  0  0  0  0  0  0  0  0  0  0
    9.7965  -15.2803   23.0595 O   0  0  0  0  0  0  0  0  0  0  0  0
    7.8029  -14.3408   23.6405 N   0  0  0  0  0  0  0  0  0  0  0  0
    8.2263  -13.8301   24.9018 C   0  0  1  0  0  0  0  0  0  0  0  0
    7.1878  -12.8027   25.3709 C   0  0  0  0  0  0  0  0  0  0  0  0
    7.5557  -12.1721   27.0080 S   0  0  0  0  0  0  0  0  0  0  0  0
    8.4601  -14.8472   25.9247 C   0  0  0  0  0  0  0  0  0  0  0  0
    7.5343  -15.6431   26.2158 O   0  0  0  0  0  0  0  0  0  0  0  0
    9.6811  -15.0052   26.6279 N   0  0  0  0  0  0  0  0  0  0  0  0
    9.9380  -16.1001   27.5568 C   0  0  1  0  0  0  0  0  0  0  0  0
   11.1064  -16.9319   27.1840 C   0  0  0  0  0  0  0  0  0  0  0  0
   11.0828  -17.6206   25.8762 C   0  0  0  0  0  0  0  0  0  0  0  0
   12.3127  -18.3621   25.4744 C   0  0  0  0  0  0  0  0  0  0  0  0
   12.0954  -18.8994   24.0451 C   0  0  0  0  0  0  0  0  0  0  0  0
   13.2989  -19.5749   23.5964 N   0  0  0  0  0  0  0  0  0  0  0  0
    9.9902  -15.5260   28.9176 C   0  0  0  0  0  0  0  0  0  0  0  0
    9.9681  -14.2832   29.0885 O   0  0  0  0  0  0  0  0  0  0  0  0
   10.0664  -16.3362   30.0394 O   0  0  0  0  0  0  0  0  0  0  0  0
  2  1  1  6
  2  5  1  0
  3  2  1  0
  4  3  1  0
  5  6  2  0
  7  5  1  0
  7  8  1  0
  8 11  1  0
  8  9  1  1
 10  9  1  0
 11 13  1  0
 12 11  2  0
 13 14  1  0
 14 15  1  6
 15 16  1  0
 16 17  1  0
 17 18  1  0
 19 18  1  0
 20 22  1  0
 20 14  1  0
 21 20  2  0
M  END
$$$$
