CCK.pdb
     RDKit          3D

 22 21  0  0  1  0  0  0  0  0999 V2000
    7.9521  -12.7172   18.1587 N   0  0  0  0  0  0  0  0  0  0  0  0
    8.5120  -13.9521   18.6800 C   0  0  1  0  0  0  0  0  0  0  0  0
   10.0070  -13.7807   18.7236 C   0  0  0  0  0  0  0  0  0  0  0  0
   10.5323  -12.4725   19.8472 S   0  0  0  0  0  0  0  0  0  0  0  0
    7.9236  -14.2603   19.9969 C   0  0  0  0  0  0  0  0  0  0  0  0
    7.5188  -13.3120   20.7244 O   0  0  0  0  0  0  0  0  0  0  0  0
    7.7776  -15.5666   20.5129 N   0  0  0  0  0  0  0  0  0  0  0  0
    7.2570  -15.9075   21.7950 C   0  0  1  0  0  0  0  0  0  0  0  0
    6.4231  -17.1865   21.6441 C   0  0  0  0  0  0  0  0  0  0  0  0
    5.8297  -17.7940   23.2227 S   0  0  0  0  0  0  0  0  0  0  0  0
    8.2647  -16.0564   22.8428 C   0  0  0  0  0  0  0  0  0  0  0  0
    9.3796  -16.5530   22.5502 O   0  0  0  0  0  0  0  0  0  0  0  0
    8.0724  -15.6735   24.1943 N   0  0  0  0  0  0  0  0  0  0  0  0
    9.0916  -15.8277   25.2264 C   0  0  1  0  0  0  0  0  0  0  0  0
    8.7803  -15.1018   26.4802 C   0  0  0  0  0  0  0  0  0  0  0  0
    9.7245  -15.2267   27.6108 C   0  0  0  0  0  0  0  0  0  0  0  0
    9.3940  -14.4821   28.8598 C   0  0  0  0  0  0  0  0  0  0  0  0
   10.4939  -14.7868   29.8973 C   0  0  0  0  0  0  0  0  0  0  0  0
   10.2856  -13.9657   31.0755 N   0  0  0  0  0  0  0  0  0  0  0  0
    9.3437  -17.2747   25.3900 C   0  0  0  0  0  0  0  0  0  0  0  0
    8.3972  -18.0972   25.3491 O   0  0  0  0  0  0  0  0  0  0  0  0
   10.6239  -17.7649   25.5940 O   0  0  0  0  0  0  0  0  0  0  0  0
  2  1  1  1
  2  5  1  0
  3  2  1  0
  4  3  1  0
  5  6  2  0
  7  5  1  0
  7  8  1  0
  8 11  1  0
  8  9  1  6
 10  9  1  0
 11 13  1  0
 12 11  2  0
 13 14  1  0
 14 15  1  1
 15 16  1  0
 16 17  1  0
 17 18  1  0
 19 18  1  0
 20 22  1  0
 20 14  1  0
 21 20  2  0
M  END
$$$$
