CCK.pdb
     RDKit          3D

 22 21  0  0  1  0  0  0  0  0999 V2000
    7.8155  -16.9242   21.1200 N   0  0  0  0  0  0  0  0  0  0  0  0
    6.8473  -16.3239   22.0213 C   0  0  1  0  0  0  0  0  0  0  0  0
    6.0034  -17.4398   22.5770 C   0  0  0  0  0  0  0  0  0  0  0  0
    6.8124  -18.3322   23.9184 S   0  0  0  0  0  0  0  0  0  0  0  0
    7.5398  -15.5441   23.0642 C   0  0  0  0  0  0  0  0  0  0  0  0
    8.7749  -15.7267   23.2474 O   0  0  0  0  0  0  0  0  0  0  0  0
    6.9077  -14.5883   23.8894 N   0  0  0  0  0  0  0  0  0  0  0  0
    7.5074  -13.8973   24.9820 C   0  0  1  0  0  0  0  0  0  0  0  0
    6.4955  -12.8707   25.5074 C   0  0  0  0  0  0  0  0  0  0  0  0
    7.0795  -12.0457   26.9878 S   0  0  0  0  0  0  0  0  0  0  0  0
    7.9898  -14.7597   26.0586 C   0  0  0  0  0  0  0  0  0  0  0  0
    7.2316  -15.6516   26.5113 O   0  0  0  0  0  0  0  0  0  0  0  0
    9.2782  -14.6618   26.6423 N   0  0  0  0  0  0  0  0  0  0  0  0
    9.7512  -15.5481   27.6998 C   0  0  1  0  0  0  0  0  0  0  0  0
   10.7415  -16.5483   27.2363 C   0  0  0  0  0  0  0  0  0  0  0  0
   11.2964  -17.4919   28.2298 C   0  0  0  0  0  0  0  0  0  0  0  0
   12.2600  -18.5158   27.7328 C   0  0  0  0  0  0  0  0  0  0  0  0
   12.7616  -19.3225   28.9479 C   0  0  0  0  0  0  0  0  0  0  0  0
   13.7440  -20.2956   28.5076 N   0  0  0  0  0  0  0  0  0  0  0  0
   10.2010  -14.6997   28.8232 C   0  0  0  0  0  0  0  0  0  0  0  0
   10.3012  -13.4566   28.6854 O   0  0  0  0  0  0  0  0  0  0  0  0
   10.5257  -15.2466   30.0546 O   0  0  0  0  0  0  0  0  0  0  0  0
  2  1  1  6
  2  5  1  0
  3  2  1  0
  4  3  1  0
  5  6  2  0
  7  5  1  0
  7  8  1  0
  8 11  1  0
  8  9  1  1
 10  9  1  0
 11 13  1  0
 12 11  2  0
 13 14  1  0
 14 15  1  6
 15 16  1  0
 16 17  1  0
 17 18  1  0
 19 18  1  0
 20 22  1  0
 20 14  1  0
 21 20  2  0
M  END
$$$$
