CCK.pdb
     RDKit          3D

 22 21  0  0  1  0  0  0  0  0999 V2000
    8.0225  -13.9930   20.0332 N   0  0  0  0  0  0  0  0  0  0  0  0
    7.2015  -14.0644   21.2295 C   0  0  1  0  0  0  0  0  0  0  0  0
    6.3027  -15.2630   21.0827 C   0  0  0  0  0  0  0  0  0  0  0  0
    7.1948  -16.8267   21.1779 S   0  0  0  0  0  0  0  0  0  0  0  0
    8.0569  -14.1226   22.4296 C   0  0  0  0  0  0  0  0  0  0  0  0
    9.2915  -14.3443   22.2921 O   0  0  0  0  0  0  0  0  0  0  0  0
    7.5843  -13.9445   23.7483 N   0  0  0  0  0  0  0  0  0  0  0  0
    8.3624  -14.0463   24.9379 C   0  0  1  0  0  0  0  0  0  0  0  0
    7.7579  -13.0995   25.9830 C   0  0  0  0  0  0  0  0  0  0  0  0
    6.0033  -13.3834   26.2145 S   0  0  0  0  0  0  0  0  0  0  0  0
    8.4923  -15.4019   25.4680 C   0  0  0  0  0  0  0  0  0  0  0  0
    7.4733  -16.1320   25.5310 O   0  0  0  0  0  0  0  0  0  0  0  0
    9.7097  -15.9657   25.9263 N   0  0  0  0  0  0  0  0  0  0  0  0
    9.8366  -17.3473   26.3767 C   0  0  1  0  0  0  0  0  0  0  0  0
   10.9186  -18.0960   25.6951 C   0  0  0  0  0  0  0  0  0  0  0  0
   10.7552  -18.4036   24.2584 C   0  0  0  0  0  0  0  0  0  0  0  0
   11.6803  -17.7238   23.3066 C   0  0  0  0  0  0  0  0  0  0  0  0
   11.1959  -18.0314   21.8750 C   0  0  0  0  0  0  0  0  0  0  0  0
   12.1044  -17.4263   20.9187 N   0  0  0  0  0  0  0  0  0  0  0  0
    9.9255  -17.3279   27.8518 C   0  0  0  0  0  0  0  0  0  0  0  0
    9.9482  -16.2402   28.4767 O   0  0  0  0  0  0  0  0  0  0  0  0
    9.9880  -18.5019   28.5857 O   0  0  0  0  0  0  0  0  0  0  0  0
  2  1  1  6
  2  5  1  0
  3  2  1  0
  4  3  1  0
  5  6  2  0
  7  5  1  0
  7  8  1  0
  8 11  1  0
  8  9  1  1
 10  9  1  0
 11 13  1  0
 12 11  2  0
 13 14  1  0
 14 15  1  6
 15 16  1  0
 16 17  1  0
 17 18  1  0
 19 18  1  0
 20 22  1  0
 20 14  1  0
 21 20  2  0
M  END
$$$$
