CCK.pdb
     RDKit          3D

 22 21  0  0  1  0  0  0  0  0999 V2000
    9.7614  -16.0674   20.3771 N   0  0  0  0  0  0  0  0  0  0  0  0
    8.9306  -16.4370   21.5100 C   0  0  1  0  0  0  0  0  0  0  0  0
    8.9221  -17.9405   21.5852 C   0  0  0  0  0  0  0  0  0  0  0  0
    8.3136  -18.5620   23.1643 S   0  0  0  0  0  0  0  0  0  0  0  0
    9.4340  -15.7963   22.7393 C   0  0  0  0  0  0  0  0  0  0  0  0
   10.6800  -15.7032   22.9159 O   0  0  0  0  0  0  0  0  0  0  0  0
    8.6054  -15.2686   23.7537 N   0  0  0  0  0  0  0  0  0  0  0  0
    9.0460  -14.6998   24.9839 C   0  0  1  0  0  0  0  0  0  0  0  0
    7.9733  -13.7123   25.4615 C   0  0  0  0  0  0  0  0  0  0  0  0
    8.3239  -13.0775   27.1008 S   0  0  0  0  0  0  0  0  0  0  0  0
    9.3672  -15.6729   26.0258 C   0  0  0  0  0  0  0  0  0  0  0  0
    8.5162  -16.5439   26.3296 O   0  0  0  0  0  0  0  0  0  0  0  0
   10.5950  -15.7069   26.7340 N   0  0  0  0  0  0  0  0  0  0  0  0
   10.9177  -16.7173   27.7354 C   0  0  1  0  0  0  0  0  0  0  0  0
   12.2769  -17.2881   27.5850 C   0  0  0  0  0  0  0  0  0  0  0  0
   12.6129  -18.5014   28.3597 C   0  0  0  0  0  0  0  0  0  0  0  0
   14.0201  -18.9895   28.2849 C   0  0  0  0  0  0  0  0  0  0  0  0
   14.1646  -20.1690   29.2681 C   0  0  0  0  0  0  0  0  0  0  0  0
   15.5270  -20.6671   29.2260 N   0  0  0  0  0  0  0  0  0  0  0  0
   10.6291  -16.1358   29.0631 C   0  0  0  0  0  0  0  0  0  0  0  0
   10.4914  -14.8965   29.2020 O   0  0  0  0  0  0  0  0  0  0  0  0
   10.5043  -16.9350   30.1884 O   0  0  0  0  0  0  0  0  0  0  0  0
  2  1  1  6
  2  5  1  0
  3  2  1  0
  4  3  1  0
  5  6  2  0
  7  5  1  0
  7  8  1  0
  8 11  1  0
  8  9  1  1
 10  9  1  0
 11 13  1  0
 12 11  2  0
 13 14  1  0
 14 15  1  1
 15 16  1  0
 16 17  1  0
 17 18  1  0
 19 18  1  0
 20 22  1  0
 20 14  1  0
 21 20  2  0
M  END
$$$$
