CCK.pdb
     RDKit          3D

 22 21  0  0  1  0  0  0  0  0999 V2000
    7.8399  -13.4660   19.5929 N   0  0  0  0  0  0  0  0  0  0  0  0
    6.9389  -13.8549   20.6640 C   0  0  1  0  0  0  0  0  0  0  0  0
    6.3990  -15.2174   20.3202 C   0  0  0  0  0  0  0  0  0  0  0  0
    7.6356  -16.5211   20.4661 S   0  0  0  0  0  0  0  0  0  0  0  0
    7.6441  -13.8188   21.9589 C   0  0  0  0  0  0  0  0  0  0  0  0
    8.9041  -13.7511   21.9690 O   0  0  0  0  0  0  0  0  0  0  0  0
    6.9978  -13.8553   23.2139 N   0  0  0  0  0  0  0  0  0  0  0  0
    7.6385  -13.8429   24.4867 C   0  0  1  0  0  0  0  0  0  0  0  0
    6.6685  -13.2222   25.5006 C   0  0  0  0  0  0  0  0  0  0  0  0
    7.3263  -13.2518   27.1678 S   0  0  0  0  0  0  0  0  0  0  0  0
    8.1141  -15.1471   24.9433 C   0  0  0  0  0  0  0  0  0  0  0  0
    7.2761  -16.0443   25.2045 O   0  0  0  0  0  0  0  0  0  0  0  0
    9.4809  -15.4815   25.1170 N   0  0  0  0  0  0  0  0  0  0  0  0
    9.9327  -16.6901   25.7973 C   0  0  1  0  0  0  0  0  0  0  0  0
   11.3839  -16.6942   26.0973 C   0  0  0  0  0  0  0  0  0  0  0  0
   11.9446  -17.8605   26.8119 C   0  0  0  0  0  0  0  0  0  0  0  0
   13.0511  -18.6025   26.1418 C   0  0  0  0  0  0  0  0  0  0  0  0
   13.4006  -19.8230   27.0176 C   0  0  0  0  0  0  0  0  0  0  0  0
   14.3594  -20.6587   26.3188 N   0  0  0  0  0  0  0  0  0  0  0  0
    9.0537  -16.8970   26.9672 C   0  0  0  0  0  0  0  0  0  0  0  0
    8.2672  -17.8736   27.0112 O   0  0  0  0  0  0  0  0  0  0  0  0
    9.0690  -16.0243   28.0437 O   0  0  0  0  0  0  0  0  0  0  0  0
  2  1  1  6
  2  5  1  0
  3  2  1  0
  4  3  1  0
  5  6  2  0
  7  5  1  0
  7  8  1  0
  8 11  1  0
  8  9  1  1
 10  9  1  0
 11 13  1  0
 12 11  2  0
 13 14  1  0
 14 15  1  1
 15 16  1  0
 16 17  1  0
 17 18  1  0
 19 18  1  0
 20 22  1  0
 20 14  1  0
 21 20  2  0
M  END
$$$$
