CCK.pdb
     RDKit          3D

 22 21  0  0  1  0  0  0  0  0999 V2000
    8.1504  -14.4428   20.6394 N   0  0  0  0  0  0  0  0  0  0  0  0
    7.3038  -14.6460   21.8023 C   0  0  1  0  0  0  0  0  0  0  0  0
    6.7314  -16.0345   21.7003 C   0  0  0  0  0  0  0  0  0  0  0  0
    5.7710  -16.5075   23.1508 S   0  0  0  0  0  0  0  0  0  0  0  0
    8.0776  -14.4256   23.0384 C   0  0  0  0  0  0  0  0  0  0  0  0
    9.2733  -14.8251   23.0925 O   0  0  0  0  0  0  0  0  0  0  0  0
    7.5665  -13.7866   24.1893 N   0  0  0  0  0  0  0  0  0  0  0  0
    8.2572  -13.6041   25.4225 C   0  0  1  0  0  0  0  0  0  0  0  0
    7.5025  -12.5454   26.2371 C   0  0  0  0  0  0  0  0  0  0  0  0
    5.7590  -12.9317   26.3930 S   0  0  0  0  0  0  0  0  0  0  0  0
    8.4520  -14.8263   26.1995 C   0  0  0  0  0  0  0  0  0  0  0  0
    7.6612  -15.7868   26.0335 O   0  0  0  0  0  0  0  0  0  0  0  0
    9.4899  -15.0117   27.1474 N   0  0  0  0  0  0  0  0  0  0  0  0
    9.9371  -16.3231   27.6037 C   0  0  1  0  0  0  0  0  0  0  0  0
   10.9407  -16.9506   26.7121 C   0  0  0  0  0  0  0  0  0  0  0  0
   11.4340  -18.3003   27.0589 C   0  0  0  0  0  0  0  0  0  0  0  0
   12.5202  -18.8678   26.2091 C   0  0  0  0  0  0  0  0  0  0  0  0
   12.9412  -20.2199   26.8202 C   0  0  0  0  0  0  0  0  0  0  0  0
   13.9668  -20.8248   25.9906 N   0  0  0  0  0  0  0  0  0  0  0  0
   10.3564  -16.1841   29.0140 C   0  0  0  0  0  0  0  0  0  0  0  0
   10.4869  -15.0495   29.5334 O   0  0  0  0  0  0  0  0  0  0  0  0
   10.6185  -17.2945   29.8009 O   0  0  0  0  0  0  0  0  0  0  0  0
  2  1  1  6
  2  5  1  0
  3  2  1  0
  4  3  1  0
  5  6  2  0
  7  5  1  0
  7  8  1  0
  8 11  1  0
  8  9  1  1
 10  9  1  0
 11 13  1  0
 12 11  2  0
 13 14  1  0
 14 15  1  6
 15 16  1  0
 16 17  1  0
 17 18  1  0
 19 18  1  0
 20 22  1  0
 20 14  1  0
 21 20  2  0
M  END
$$$$
