CCK.pdb
     RDKit          3D

 22 21  0  0  1  0  0  0  0  0999 V2000
    8.1523  -12.7534   18.7540 N   0  0  0  0  0  0  0  0  0  0  0  0
    7.2124  -13.3472   19.6890 C   0  0  1  0  0  0  0  0  0  0  0  0
    6.6930  -14.6111   19.0573 C   0  0  0  0  0  0  0  0  0  0  0  0
    7.9147  -15.9365   19.0289 S   0  0  0  0  0  0  0  0  0  0  0  0
    7.8666  -13.5745   20.9911 C   0  0  0  0  0  0  0  0  0  0  0  0
    9.1215  -13.7008   21.0329 O   0  0  0  0  0  0  0  0  0  0  0  0
    7.1760  -13.6627   22.2197 N   0  0  0  0  0  0  0  0  0  0  0  0
    7.7493  -13.9975   23.4807 C   0  0  1  0  0  0  0  0  0  0  0  0
    6.6807  -13.7816   24.5603 C   0  0  0  0  0  0  0  0  0  0  0  0
    7.2687  -14.2378   26.1911 S   0  0  0  0  0  0  0  0  0  0  0  0
    8.3109  -15.3444   23.5576 C   0  0  0  0  0  0  0  0  0  0  0  0
    7.6556  -16.3058   23.0867 O   0  0  0  0  0  0  0  0  0  0  0  0
    9.5677  -15.6526   24.1368 N   0  0  0  0  0  0  0  0  0  0  0  0
   10.0856  -17.0108   24.2582 C   0  0  1  0  0  0  0  0  0  0  0  0
   11.3187  -17.2475   23.4711 C   0  0  0  0  0  0  0  0  0  0  0  0
   11.9738  -18.5680   23.5824 C   0  0  0  0  0  0  0  0  0  0  0  0
   13.1872  -18.7991   22.7468 C   0  0  0  0  0  0  0  0  0  0  0  0
   13.6287  -20.2631   22.9485 C   0  0  0  0  0  0  0  0  0  0  0  0
   14.6544  -20.5951   21.9770 N   0  0  0  0  0  0  0  0  0  0  0  0
   10.1977  -17.3170   25.6996 C   0  0  0  0  0  0  0  0  0  0  0  0
   10.1600  -16.3983   26.5532 O   0  0  0  0  0  0  0  0  0  0  0  0
   10.3488  -18.6188   26.1504 O   0  0  0  0  0  0  0  0  0  0  0  0
  2  1  1  6
  2  5  1  0
  3  2  1  0
  4  3  1  0
  5  6  2  0
  7  5  1  0
  7  8  1  0
  8 11  1  0
  8  9  1  1
 10  9  1  0
 11 13  1  0
 12 11  2  0
 13 14  1  0
 14 15  1  1
 15 16  1  0
 16 17  1  0
 17 18  1  0
 19 18  1  0
 20 22  1  0
 20 14  1  0
 21 20  2  0
M  END
$$$$
