CCK.pdb
     RDKit          3D

 22 21  0  0  1  0  0  0  0  0999 V2000
    8.2387  -13.7585   17.9833 N   0  0  0  0  0  0  0  0  0  0  0  0
    8.8648  -13.6286   19.2876 C   0  0  1  0  0  0  0  0  0  0  0  0
    7.9345  -12.8184   20.1504 C   0  0  0  0  0  0  0  0  0  0  0  0
    6.5717  -13.7901   20.8202 S   0  0  0  0  0  0  0  0  0  0  0  0
    9.1602  -14.9621   19.8442 C   0  0  0  0  0  0  0  0  0  0  0  0
    9.5880  -15.8663   19.0749 O   0  0  0  0  0  0  0  0  0  0  0  0
    8.9956  -15.3072   21.2035 N   0  0  0  0  0  0  0  0  0  0  0  0
    9.7695  -16.2619   21.9251 C   0  0  1  0  0  0  0  0  0  0  0  0
   11.2494  -15.8870   21.7718 C   0  0  0  0  0  0  0  0  0  0  0  0
   12.3243  -17.0054   22.6699 S   0  0  0  0  0  0  0  0  0  0  0  0
    9.4054  -16.4038   23.3332 C   0  0  0  0  0  0  0  0  0  0  0  0
    9.6024  -15.4408   24.1137 O   0  0  0  0  0  0  0  0  0  0  0  0
    8.8340  -17.5733   23.8952 N   0  0  0  0  0  0  0  0  0  0  0  0
    8.5415  -17.7220   25.3165 C   0  0  1  0  0  0  0  0  0  0  0  0
    7.7639  -18.9420   25.6373 C   0  0  0  0  0  0  0  0  0  0  0  0
    6.7992  -19.4377   24.6329 C   0  0  0  0  0  0  0  0  0  0  0  0
    6.1592  -20.7586   24.8968 C   0  0  0  0  0  0  0  0  0  0  0  0
    5.1761  -21.0467   23.7439 C   0  0  0  0  0  0  0  0  0  0  0  0
    4.5522  -22.3399   23.9548 N   0  0  0  0  0  0  0  0  0  0  0  0
    9.8172  -17.5850   26.0499 C   0  0  0  0  0  0  0  0  0  0  0  0
    9.8249  -17.3005   27.2719 O   0  0  0  0  0  0  0  0  0  0  0  0
   11.0363  -17.7635   25.4153 O   0  0  0  0  0  0  0  0  0  0  0  0
  2  1  1  6
  2  5  1  0
  3  2  1  0
  4  3  1  0
  5  6  2  0
  7  5  1  0
  7  8  1  0
  8 11  1  0
  8  9  1  1
 10  9  1  0
 11 13  1  0
 12 11  2  0
 13 14  1  0
 14 15  1  6
 15 16  1  0
 16 17  1  0
 17 18  1  0
 19 18  1  0
 20 22  1  0
 20 14  1  0
 21 20  2  0
M  END
$$$$
