YFF.pdb
     RDKit          3D

 35 37  0  0  1  0  0  0  0  0999 V2000
    9.6997  -24.0318   17.4428 O   0  0  0  0  0  0  0  0  0  0  0  0
    9.8710  -22.9076   18.2604 C   0  0  0  0  0  0  0  0  0  0  0  0
   11.0619  -22.2299   18.1462 C   0  0  0  0  0  0  0  0  0  0  0  0
   11.2493  -21.1170   18.9458 C   0  0  0  0  0  0  0  0  0  0  0  0
   10.3003  -20.6795   19.8310 C   0  0  0  0  0  0  0  0  0  0  0  0
   10.5836  -19.4662   20.6587 C   0  0  0  0  0  0  0  0  0  0  0  0
    9.5232  -18.4271   20.2978 C   0  0  2  0  0  0  0  0  0  0  0  0
    9.6242  -18.1611   18.8793 N   0  0  0  0  0  0  0  0  0  0  0  0
    9.6676  -17.2015   21.1047 C   0  0  0  0  0  0  0  0  0  0  0  0
   10.6343  -16.4118   20.9393 O   0  0  0  0  0  0  0  0  0  0  0  0
    9.1186  -21.3672   19.9320 C   0  0  0  0  0  0  0  0  0  0  0  0
    8.8895  -22.4919   19.1461 C   0  0  0  0  0  0  0  0  0  0  0  0
    8.7150  -16.8882   22.0873 N   0  0  0  0  0  0  0  0  0  0  0  0
    8.7617  -15.7048   22.9285 C   0  0  1  0  0  0  0  0  0  0  0  0
    7.4360  -15.5800   23.6485 C   0  0  0  0  0  0  0  0  0  0  0  0
    7.3842  -14.4317   24.5516 C   0  0  0  0  0  0  0  0  0  0  0  0
    7.9025  -13.2041   24.2128 C   0  0  0  0  0  0  0  0  0  0  0  0
    7.8641  -12.1163   25.0480 C   0  0  0  0  0  0  0  0  0  0  0  0
    7.2864  -12.2234   26.2919 C   0  0  0  0  0  0  0  0  0  0  0  0
    6.7573  -13.4424   26.6608 C   0  0  0  0  0  0  0  0  0  0  0  0
    6.8057  -14.5391   25.7969 C   0  0  0  0  0  0  0  0  0  0  0  0
    9.9232  -15.8192   23.8246 C   0  0  0  0  0  0  0  0  0  0  0  0
   10.9466  -15.1327   23.6129 O   0  0  0  0  0  0  0  0  0  0  0  0
    9.9218  -16.6962   24.9439 N   0  0  0  0  0  0  0  0  0  0  0  0
   11.1017  -16.8011   25.8064 C   0  0  1  0  0  0  0  0  0  0  0  0
   11.3876  -15.4377   26.4127 C   0  0  0  0  0  0  0  0  0  0  0  0
   10.3478  -15.0305   27.3799 C   0  0  0  0  0  0  0  0  0  0  0  0
    9.4201  -14.0516   27.1088 C   0  0  0  0  0  0  0  0  0  0  0  0
    8.4675  -13.7058   28.0452 C   0  0  0  0  0  0  0  0  0  0  0  0
    8.4008  -14.3138   29.2757 C   0  0  0  0  0  0  0  0  0  0  0  0
    9.3273  -15.2965   29.5560 C   0  0  0  0  0  0  0  0  0  0  0  0
   10.2848  -15.6425   28.6119 C   0  0  0  0  0  0  0  0  0  0  0  0
   10.9381  -17.8366   26.8373 C   0  0  0  0  0  0  0  0  0  0  0  0
    9.7771  -18.5839   26.8661 O   0  0  0  0  0  0  0  0  0  0  0  0
   11.8163  -18.0710   27.6997 O   0  0  0  0  0  0  0  0  0  0  0  0
  2  3  2  0
  2  1  1  0
  4  3  1  0
  5  4  2  0
  6  5  1  0
  7  6  1  0
  7  8  1  6
  9  7  1  0
  9 10  2  0
 11  5  1  0
 11 12  2  0
 12  2  1  0
 13  9  1  0
 14 13  1  0
 14 15  1  1
 16 17  2  0
 16 15  1  0
 18 17  1  0
 19 18  2  0
 20 21  2  0
 20 19  1  0
 21 16  1  0
 22 14  1  0
 23 22  2  0
 24 22  1  0
 25 26  1  1
 25 24  1  0
 26 27  1  0
 27 28  2  0
 27 32  1  0
 28 29  1  0
 29 30  2  0
 31 30  1  0
 32 31  2  0
 33 25  1  0
 34 33  1  0
 35 33  2  0
M  END
$$$$
