YFF.pdb
     RDKit          3D

 35 37  0  0  1  0  0  0  0  0999 V2000
    7.1594  -14.0664   14.4995 O   0  0  0  0  0  0  0  0  0  0  0  0
    7.6831  -14.1365   15.7965 C   0  0  0  0  0  0  0  0  0  0  0  0
    7.0996  -13.3337   16.7482 C   0  0  0  0  0  0  0  0  0  0  0  0
    7.6035  -13.3893   18.0350 C   0  0  0  0  0  0  0  0  0  0  0  0
    8.6471  -14.2057   18.3815 C   0  0  0  0  0  0  0  0  0  0  0  0
    9.1312  -14.2050   19.7967 C   0  0  0  0  0  0  0  0  0  0  0  0
    9.1837  -15.6640   20.2471 C   0  0  2  0  0  0  0  0  0  0  0  0
    7.9450  -16.2978   19.8506 N   0  0  0  0  0  0  0  0  0  0  0  0
    9.4259  -15.7759   21.6972 C   0  0  0  0  0  0  0  0  0  0  0  0
   10.4993  -15.3764   22.2205 O   0  0  0  0  0  0  0  0  0  0  0  0
    9.2171  -14.9996   17.4199 C   0  0  0  0  0  0  0  0  0  0  0  0
    8.7407  -14.9742   16.1132 C   0  0  0  0  0  0  0  0  0  0  0  0
    8.4489  -16.3389   22.5336 N   0  0  0  0  0  0  0  0  0  0  0  0
    8.6128  -16.5500   23.9614 C   0  0  1  0  0  0  0  0  0  0  0  0
    7.2936  -16.2523   24.6413 C   0  0  0  0  0  0  0  0  0  0  0  0
    7.1868  -14.8671   25.0960 C   0  0  0  0  0  0  0  0  0  0  0  0
    6.5828  -14.5261   26.2832 C   0  0  0  0  0  0  0  0  0  0  0  0
    6.4723  -13.2320   26.7249 C   0  0  0  0  0  0  0  0  0  0  0  0
    6.9793  -12.2006   25.9686 C   0  0  0  0  0  0  0  0  0  0  0  0
    7.5913  -12.5110   24.7723 C   0  0  0  0  0  0  0  0  0  0  0  0
    7.6945  -13.8348   24.3388 C   0  0  0  0  0  0  0  0  0  0  0  0
    9.1017  -17.9216   24.1736 C   0  0  0  0  0  0  0  0  0  0  0  0
    9.4383  -18.6241   23.1956 O   0  0  0  0  0  0  0  0  0  0  0  0
    9.2092  -18.4852   25.4748 N   0  0  0  0  0  0  0  0  0  0  0  0
    9.8779  -17.7481   26.5502 C   0  0  1  0  0  0  0  0  0  0  0  0
    9.1200  -16.4557   26.8026 C   0  0  0  0  0  0  0  0  0  0  0  0
    9.7317  -15.6546   27.8827 C   0  0  0  0  0  0  0  0  0  0  0  0
    9.7766  -16.0782   29.1907 C   0  0  0  0  0  0  0  0  0  0  0  0
   10.3592  -15.2938   30.1650 C   0  0  0  0  0  0  0  0  0  0  0  0
   10.9143  -14.0696   29.8797 C   0  0  0  0  0  0  0  0  0  0  0  0
   10.8736  -13.6371   28.5705 C   0  0  0  0  0  0  0  0  0  0  0  0
   10.2868  -14.4283   27.5921 C   0  0  0  0  0  0  0  0  0  0  0  0
   10.0071  -18.5558   27.7719 C   0  0  0  0  0  0  0  0  0  0  0  0
   11.2468  -18.6899   28.3652 O   0  0  0  0  0  0  0  0  0  0  0  0
    9.0299  -19.1339   28.3017 O   0  0  0  0  0  0  0  0  0  0  0  0
  2  3  2  0
  2  1  1  0
  4  3  1  0
  5  4  2  0
  6  5  1  0
  7  6  1  0
  7  8  1  1
  9  7  1  0
  9 10  2  0
 11  5  1  0
 11 12  2  0
 12  2  1  0
 13  9  1  0
 14 13  1  0
 14 15  1  1
 16 17  2  0
 16 15  1  0
 18 17  1  0
 19 18  2  0
 20 21  2  0
 20 19  1  0
 21 16  1  0
 22 14  1  0
 23 22  2  0
 24 22  1  0
 25 26  1  1
 25 24  1  0
 26 27  1  0
 27 28  2  0
 27 32  1  0
 28 29  1  0
 29 30  2  0
 31 30  1  0
 32 31  2  0
 33 25  1  0
 34 33  1  0
 35 33  2  0
M  END
$$$$
