YFF.pdb
     RDKit          3D

 35 37  0  0  1  0  0  0  0  0999 V2000
   10.5246  -12.0789   19.1343 O   0  0  0  0  0  0  0  0  0  0  0  0
    9.5545  -13.0866   19.0636 C   0  0  0  0  0  0  0  0  0  0  0  0
    9.9881  -14.3811   19.2277 C   0  0  0  0  0  0  0  0  0  0  0  0
    9.0443  -15.3900   19.1611 C   0  0  0  0  0  0  0  0  0  0  0  0
    7.7158  -15.1409   18.9405 C   0  0  0  0  0  0  0  0  0  0  0  0
    6.7609  -16.2907   18.8829 C   0  0  0  0  0  0  0  0  0  0  0  0
    7.3939  -17.4318   19.6775 C   0  0  2  0  0  0  0  0  0  0  0  0
    7.0268  -18.6771   19.0389 N   0  0  0  0  0  0  0  0  0  0  0  0
    6.9912  -17.3945   21.0954 C   0  0  0  0  0  0  0  0  0  0  0  0
    5.7795  -17.3902   21.4381 O   0  0  0  0  0  0  0  0  0  0  0  0
    7.3010  -13.8441   18.7791 C   0  0  0  0  0  0  0  0  0  0  0  0
    8.2176  -12.7994   18.8389 C   0  0  0  0  0  0  0  0  0  0  0  0
    7.9667  -17.3627   22.1045 N   0  0  0  0  0  0  0  0  0  0  0  0
    8.2050  -16.2289   22.9808 C   0  0  1  0  0  0  0  0  0  0  0  0
    6.9847  -16.0388   23.8560 C   0  0  0  0  0  0  0  0  0  0  0  0
    7.0911  -14.8775   24.7375 C   0  0  0  0  0  0  0  0  0  0  0  0
    7.5957  -13.6720   24.3099 C   0  0  0  0  0  0  0  0  0  0  0  0
    7.7043  -12.5726   25.1234 C   0  0  0  0  0  0  0  0  0  0  0  0
    7.2983  -12.6442   26.4359 C   0  0  0  0  0  0  0  0  0  0  0  0
    6.7875  -13.8404   26.8944 C   0  0  0  0  0  0  0  0  0  0  0  0
    6.6845  -14.9494   26.0514 C   0  0  0  0  0  0  0  0  0  0  0  0
    9.4480  -16.4751   23.7289 C   0  0  0  0  0  0  0  0  0  0  0  0
   10.5525  -16.1851   23.2197 O   0  0  0  0  0  0  0  0  0  0  0  0
    9.4370  -17.0385   25.0345 N   0  0  0  0  0  0  0  0  0  0  0  0
   10.6819  -17.1742   25.7951 C   0  0  1  0  0  0  0  0  0  0  0  0
   11.3089  -15.7998   25.9571 C   0  0  0  0  0  0  0  0  0  0  0  0
   10.7739  -15.0797   27.1309 C   0  0  0  0  0  0  0  0  0  0  0  0
   11.0058  -13.7423   27.3541 C   0  0  0  0  0  0  0  0  0  0  0  0
   10.4842  -13.1135   28.4661 C   0  0  0  0  0  0  0  0  0  0  0  0
    9.7191  -13.7833   29.3904 C   0  0  0  0  0  0  0  0  0  0  0  0
    9.4816  -15.1247   29.1743 C   0  0  0  0  0  0  0  0  0  0  0  0
   10.0077  -15.7551   28.0546 C   0  0  0  0  0  0  0  0  0  0  0  0
   10.4648  -17.8343   27.0908 C   0  0  0  0  0  0  0  0  0  0  0  0
    9.1781  -18.1483   27.4819 O   0  0  0  0  0  0  0  0  0  0  0  0
   11.4076  -18.1260   27.8628 O   0  0  0  0  0  0  0  0  0  0  0  0
  2  3  2  0
  2  1  1  0
  4  3  1  0
  5  4  2  0
  6  5  1  0
  7  6  1  0
  7  8  1  6
  9  7  1  0
  9 10  2  0
 11  5  1  0
 11 12  2  0
 12  2  1  0
 13  9  1  0
 14 13  1  0
 14 15  1  1
 16 17  2  0
 16 15  1  0
 18 17  1  0
 19 18  2  0
 20 21  2  0
 20 19  1  0
 21 16  1  0
 22 14  1  0
 23 22  2  0
 24 22  1  0
 25 26  1  1
 25 24  1  0
 26 27  1  0
 27 28  2  0
 27 32  1  0
 28 29  1  0
 29 30  2  0
 31 30  1  0
 32 31  2  0
 33 25  1  0
 34 33  1  0
 35 33  2  0
M  END
$$$$
