YFF.pdb
     RDKit          3D

 35 37  0  0  1  0  0  0  0  0999 V2000
   14.8396  -21.1139   20.8836 O   0  0  0  0  0  0  0  0  0  0  0  0
   13.5672  -20.5688   20.6702 C   0  0  0  0  0  0  0  0  0  0  0  0
   13.1958  -20.3464   19.3651 C   0  0  0  0  0  0  0  0  0  0  0  0
   11.9426  -19.8085   19.1346 C   0  0  0  0  0  0  0  0  0  0  0  0
   11.0779  -19.4972   20.1500 C   0  0  0  0  0  0  0  0  0  0  0  0
    9.7404  -18.9184   19.8132 C   0  0  0  0  0  0  0  0  0  0  0  0
    9.9628  -17.4375   19.5101 C   0  0  2  0  0  0  0  0  0  0  0  0
   11.1712  -17.3201   18.7232 N   0  0  0  0  0  0  0  0  0  0  0  0
   10.0233  -16.6340   20.7449 C   0  0  0  0  0  0  0  0  0  0  0  0
   11.1194  -16.2412   21.2244 O   0  0  0  0  0  0  0  0  0  0  0  0
   11.4646  -19.7256   21.4453 C   0  0  0  0  0  0  0  0  0  0  0  0
   12.7166  -20.2653   21.7213 C   0  0  0  0  0  0  0  0  0  0  0  0
    8.8415  -16.2870   21.4186 N   0  0  0  0  0  0  0  0  0  0  0  0
    8.7963  -15.5708   22.6817 C   0  0  1  0  0  0  0  0  0  0  0  0
    7.4012  -15.0122   22.8626 C   0  0  0  0  0  0  0  0  0  0  0  0
    7.2746  -14.1690   24.0500 C   0  0  0  0  0  0  0  0  0  0  0  0
    7.6861  -12.8572   24.0692 C   0  0  0  0  0  0  0  0  0  0  0  0
    7.5764  -12.0520   25.1745 C   0  0  0  0  0  0  0  0  0  0  0  0
    7.0332  -12.5484   26.3369 C   0  0  0  0  0  0  0  0  0  0  0  0
    6.6110  -13.8612   26.3489 C   0  0  0  0  0  0  0  0  0  0  0  0
    6.7307  -14.6662   25.2136 C   0  0  0  0  0  0  0  0  0  0  0  0
    9.2184  -16.4899   23.7505 C   0  0  0  0  0  0  0  0  0  0  0  0
    8.8508  -17.6847   23.7296 O   0  0  0  0  0  0  0  0  0  0  0  0
   10.0464  -16.0601   24.8238 N   0  0  0  0  0  0  0  0  0  0  0  0
   10.6699  -17.0388   25.7184 C   0  0  1  0  0  0  0  0  0  0  0  0
   11.6810  -16.3233   26.5982 C   0  0  0  0  0  0  0  0  0  0  0  0
   11.0300  -15.4435   27.5905 C   0  0  0  0  0  0  0  0  0  0  0  0
   10.7982  -15.8297   28.8903 C   0  0  0  0  0  0  0  0  0  0  0  0
   10.1862  -14.9717   29.7810 C   0  0  0  0  0  0  0  0  0  0  0  0
    9.7849  -13.7087   29.4177 C   0  0  0  0  0  0  0  0  0  0  0  0
   10.0136  -13.3133   28.1162 C   0  0  0  0  0  0  0  0  0  0  0  0
   10.6295  -14.1785   27.2219 C   0  0  0  0  0  0  0  0  0  0  0  0
    9.6722  -17.7706   26.5127 C   0  0  0  0  0  0  0  0  0  0  0  0
    8.3336  -17.4669   26.3616 O   0  0  0  0  0  0  0  0  0  0  0  0
    9.9891  -18.6664   27.3293 O   0  0  0  0  0  0  0  0  0  0  0  0
  2  3  2  0
  2  1  1  0
  4  3  1  0
  5  4  2  0
  6  5  1  0
  7  6  1  0
  7  8  1  1
  9  7  1  0
  9 10  2  0
 11  5  1  0
 11 12  2  0
 12  2  1  0
 13  9  1  0
 14 13  1  0
 14 15  1  1
 16 17  2  0
 16 15  1  0
 18 17  1  0
 19 18  2  0
 20 21  2  0
 20 19  1  0
 21 16  1  0
 22 14  1  0
 23 22  2  0
 24 22  1  0
 25 26  1  1
 25 24  1  0
 26 27  1  0
 27 28  2  0
 27 32  1  0
 28 29  1  0
 29 30  2  0
 31 30  1  0
 32 31  2  0
 33 25  1  0
 34 33  1  0
 35 33  2  0
M  END
$$$$
