YFF.pdb
     RDKit          3D

 35 37  0  0  1  0  0  0  0  0999 V2000
    8.2272  -26.1232   21.9275 O   0  0  0  0  0  0  0  0  0  0  0  0
    8.5726  -24.7663   21.9602 C   0  0  0  0  0  0  0  0  0  0  0  0
    9.9125  -24.4662   22.0316 C   0  0  0  0  0  0  0  0  0  0  0  0
   10.2729  -23.1313   22.0648 C   0  0  0  0  0  0  0  0  0  0  0  0
    9.3507  -22.1195   22.0293 C   0  0  0  0  0  0  0  0  0  0  0  0
    9.8258  -20.7018   22.0693 C   0  0  0  0  0  0  0  0  0  0  0  0
    9.3179  -20.0288   20.7951 C   0  0  2  0  0  0  0  0  0  0  0  0
    9.9403  -20.6851   19.6659 N   0  0  0  0  0  0  0  0  0  0  0  0
    9.5780  -18.5776   20.8072 C   0  0  0  0  0  0  0  0  0  0  0  0
   10.6923  -18.1033   20.4622 O   0  0  0  0  0  0  0  0  0  0  0  0
    8.0188  -22.4369   21.9581 C   0  0  0  0  0  0  0  0  0  0  0  0
    7.6131  -23.7670   21.9226 C   0  0  0  0  0  0  0  0  0  0  0  0
    8.5723  -17.6846   21.2098 N   0  0  0  0  0  0  0  0  0  0  0  0
    8.7563  -16.2507   21.3526 C   0  0  1  0  0  0  0  0  0  0  0  0
    7.4050  -15.5817   21.2193 C   0  0  0  0  0  0  0  0  0  0  0  0
    7.4810  -14.1239   21.2962 C   0  0  0  0  0  0  0  0  0  0  0  0
    7.8355  -13.3469   20.2187 C   0  0  0  0  0  0  0  0  0  0  0  0
    7.9134  -11.9782   20.2731 C   0  0  0  0  0  0  0  0  0  0  0  0
    7.6297  -11.3185   21.4466 C   0  0  0  0  0  0  0  0  0  0  0  0
    7.2709  -12.0707   22.5454 C   0  0  0  0  0  0  0  0  0  0  0  0
    7.1970  -13.4636   22.4711 C   0  0  0  0  0  0  0  0  0  0  0  0
    9.4285  -15.9958   22.6365 C   0  0  0  0  0  0  0  0  0  0  0  0
   10.3596  -15.1637   22.7008 O   0  0  0  0  0  0  0  0  0  0  0  0
    9.0480  -16.6722   23.8281 N   0  0  0  0  0  0  0  0  0  0  0  0
    9.5315  -16.2090   25.1314 C   0  0  1  0  0  0  0  0  0  0  0  0
    8.3670  -16.1905   26.1071 C   0  0  0  0  0  0  0  0  0  0  0  0
    7.6102  -14.9233   26.0451 C   0  0  0  0  0  0  0  0  0  0  0  0
    6.2485  -14.8770   25.8552 C   0  0  0  0  0  0  0  0  0  0  0  0
    5.5856  -13.6679   25.8044 C   0  0  0  0  0  0  0  0  0  0  0  0
    6.2442  -12.4694   25.9390 C   0  0  0  0  0  0  0  0  0  0  0  0
    7.6098  -12.5066   26.1298 C   0  0  0  0  0  0  0  0  0  0  0  0
    8.2744  -13.7246   26.1806 C   0  0  0  0  0  0  0  0  0  0  0  0
   10.6483  -17.0277   25.6255 C   0  0  0  0  0  0  0  0  0  0  0  0
   11.3691  -16.5963   26.7216 O   0  0  0  0  0  0  0  0  0  0  0  0
   10.9770  -18.1107   25.0879 O   0  0  0  0  0  0  0  0  0  0  0  0
  2  3  2  0
  2  1  1  0
  4  3  1  0
  5  4  2  0
  6  5  1  0
  7  6  1  0
  7  8  1  6
  9  7  1  0
  9 10  2  0
 11  5  1  0
 11 12  2  0
 12  2  1  0
 13  9  1  0
 14 13  1  0
 14 15  1  1
 16 17  2  0
 16 15  1  0
 18 17  1  0
 19 18  2  0
 20 21  2  0
 20 19  1  0
 21 16  1  0
 22 14  1  0
 23 22  2  0
 24 22  1  0
 25 26  1  1
 25 24  1  0
 26 27  1  0
 27 28  2  0
 27 32  1  0
 28 29  1  0
 29 30  2  0
 31 30  1  0
 32 31  2  0
 33 25  1  0
 34 33  1  0
 35 33  2  0
M  END
$$$$
