YFF.pdb
     RDKit          3D

 35 37  0  0  1  0  0  0  0  0999 V2000
   17.0378  -23.2836   18.9869 O   0  0  0  0  0  0  0  0  0  0  0  0
   16.2541  -22.2681   19.5492 C   0  0  0  0  0  0  0  0  0  0  0  0
   16.9206  -21.1913   20.0848 C   0  0  0  0  0  0  0  0  0  0  0  0
   16.1633  -20.1783   20.6447 C   0  0  0  0  0  0  0  0  0  0  0  0
   14.7947  -20.2170   20.6800 C   0  0  0  0  0  0  0  0  0  0  0  0
   14.0518  -19.0789   21.3048 C   0  0  0  0  0  0  0  0  0  0  0  0
   13.5181  -18.2180   20.1610 C   0  0  2  0  0  0  0  0  0  0  0  0
   14.6466  -17.7803   19.3683 N   0  0  0  0  0  0  0  0  0  0  0  0
   12.7182  -17.0852   20.6620 C   0  0  0  0  0  0  0  0  0  0  0  0
   13.2597  -16.0630   21.1595 O   0  0  0  0  0  0  0  0  0  0  0  0
   14.1465  -21.2983   20.1414 C   0  0  0  0  0  0  0  0  0  0  0  0
   14.8702  -22.3390   19.5683 C   0  0  0  0  0  0  0  0  0  0  0  0
   11.3167  -17.1267   20.5922 N   0  0  0  0  0  0  0  0  0  0  0  0
   10.4392  -16.0712   21.0680 C   0  0  1  0  0  0  0  0  0  0  0  0
    9.4417  -15.7525   19.9750 C   0  0  0  0  0  0  0  0  0  0  0  0
    8.4434  -14.7663   20.3846 C   0  0  0  0  0  0  0  0  0  0  0  0
    8.6093  -13.4181   20.1717 C   0  0  0  0  0  0  0  0  0  0  0  0
    7.6841  -12.4787   20.5507 C   0  0  0  0  0  0  0  0  0  0  0  0
    6.5227  -12.8692   21.1763 C   0  0  0  0  0  0  0  0  0  0  0  0
    6.3274  -14.2153   21.4038 C   0  0  0  0  0  0  0  0  0  0  0  0
    7.2808  -15.1575   21.0109 C   0  0  0  0  0  0  0  0  0  0  0  0
    9.8258  -16.5130   22.3305 C   0  0  0  0  0  0  0  0  0  0  0  0
    9.8923  -17.7141   22.6717 O   0  0  0  0  0  0  0  0  0  0  0  0
    9.1508  -15.6057   23.1926 N   0  0  0  0  0  0  0  0  0  0  0  0
    9.4550  -15.5774   24.6257 C   0  0  1  0  0  0  0  0  0  0  0  0
    9.1895  -14.1782   25.1549 C   0  0  0  0  0  0  0  0  0  0  0  0
    9.4252  -14.0805   26.6101 C   0  0  0  0  0  0  0  0  0  0  0  0
    8.8615  -13.0992   27.3921 C   0  0  0  0  0  0  0  0  0  0  0  0
    9.1118  -13.0493   28.7482 C   0  0  0  0  0  0  0  0  0  0  0  0
    9.9245  -13.9641   29.3734 C   0  0  0  0  0  0  0  0  0  0  0  0
   10.4939  -14.9515   28.5967 C   0  0  0  0  0  0  0  0  0  0  0  0
   10.2404  -14.9995   27.2324 C   0  0  0  0  0  0  0  0  0  0  0  0
    8.6993  -16.5972   25.3678 C   0  0  0  0  0  0  0  0  0  0  0  0
    7.4495  -16.9735   24.9166 O   0  0  0  0  0  0  0  0  0  0  0  0
    9.1459  -17.1438   26.4029 O   0  0  0  0  0  0  0  0  0  0  0  0
  2  3  2  0
  2  1  1  0
  4  3  1  0
  5  4  2  0
  6  5  1  0
  7  6  1  0
  7  8  1  1
  9  7  1  0
  9 10  2  0
 11  5  1  0
 11 12  2  0
 12  2  1  0
 13  9  1  0
 14 13  1  0
 14 15  1  6
 16 17  2  0
 16 15  1  0
 18 17  1  0
 19 18  2  0
 20 21  2  0
 20 19  1  0
 21 16  1  0
 22 14  1  0
 23 22  2  0
 24 22  1  0
 25 26  1  1
 25 24  1  0
 26 27  1  0
 27 28  2  0
 27 32  1  0
 28 29  1  0
 29 30  2  0
 31 30  1  0
 32 31  2  0
 33 25  1  0
 34 33  1  0
 35 33  2  0
M  END
$$$$
