YFF.pdb
     RDKit          3D

 35 37  0  0  1  0  0  0  0  0999 V2000
    9.0740  -22.3749   15.5834 O   0  0  0  0  0  0  0  0  0  0  0  0
    9.4452  -21.5849   16.6787 C   0  0  0  0  0  0  0  0  0  0  0  0
    8.5346  -21.4727   17.7028 C   0  0  0  0  0  0  0  0  0  0  0  0
    8.8835  -20.6966   18.7931 C   0  0  0  0  0  0  0  0  0  0  0  0
   10.0871  -20.0490   18.8797 C   0  0  0  0  0  0  0  0  0  0  0  0
   10.3852  -19.2292   20.0948 C   0  0  0  0  0  0  0  0  0  0  0  0
    9.9641  -17.7956   19.7754 C   0  0  2  0  0  0  0  0  0  0  0  0
   10.8419  -17.2932   18.7408 N   0  0  0  0  0  0  0  0  0  0  0  0
    9.9798  -16.9444   20.9792 C   0  0  0  0  0  0  0  0  0  0  0  0
   11.0303  -16.3694   21.3681 O   0  0  0  0  0  0  0  0  0  0  0  0
   10.9833  -20.1719   17.8494 C   0  0  0  0  0  0  0  0  0  0  0  0
   10.6721  -20.9430   16.7342 C   0  0  0  0  0  0  0  0  0  0  0  0
    8.8053  -16.7570   21.7252 N   0  0  0  0  0  0  0  0  0  0  0  0
    8.7126  -15.9325   22.9176 C   0  0  1  0  0  0  0  0  0  0  0  0
    7.2693  -15.5124   23.0950 C   0  0  0  0  0  0  0  0  0  0  0  0
    7.0519  -14.7155   24.3011 C   0  0  0  0  0  0  0  0  0  0  0  0
    6.3647  -15.1991   25.3895 C   0  0  0  0  0  0  0  0  0  0  0  0
    6.1501  -14.4652   26.5286 C   0  0  0  0  0  0  0  0  0  0  0  0
    6.6318  -13.1798   26.6206 C   0  0  0  0  0  0  0  0  0  0  0  0
    7.3255  -12.6665   25.5448 C   0  0  0  0  0  0  0  0  0  0  0  0
    7.5343  -13.4288   24.3930 C   0  0  0  0  0  0  0  0  0  0  0  0
    9.2598  -16.6947   24.0512 C   0  0  0  0  0  0  0  0  0  0  0  0
    8.8526  -17.8545   24.2801 O   0  0  0  0  0  0  0  0  0  0  0  0
   10.2549  -16.1501   24.9088 N   0  0  0  0  0  0  0  0  0  0  0  0
   10.8587  -16.9719   25.9610 C   0  0  1  0  0  0  0  0  0  0  0  0
   11.9368  -16.1596   26.6583 C   0  0  0  0  0  0  0  0  0  0  0  0
   11.3668  -15.1120   27.5303 C   0  0  0  0  0  0  0  0  0  0  0  0
   11.0175  -15.3419   28.8408 C   0  0  0  0  0  0  0  0  0  0  0  0
   10.4882  -14.3305   29.6159 C   0  0  0  0  0  0  0  0  0  0  0  0
   10.2874  -13.0636   29.1231 C   0  0  0  0  0  0  0  0  0  0  0  0
   10.6348  -12.8244   27.8099 C   0  0  0  0  0  0  0  0  0  0  0  0
   11.1673  -13.8438   27.0321 C   0  0  0  0  0  0  0  0  0  0  0  0
    9.8538  -17.4772   26.9079 C   0  0  0  0  0  0  0  0  0  0  0  0
    8.5596  -17.0005   26.8379 O   0  0  0  0  0  0  0  0  0  0  0  0
   10.1256  -18.3299   27.7847 O   0  0  0  0  0  0  0  0  0  0  0  0
  2  3  2  0
  2  1  1  0
  4  3  1  0
  5  4  2  0
  6  5  1  0
  7  6  1  0
  7  8  1  6
  9  7  1  0
  9 10  2  0
 11  5  1  0
 11 12  2  0
 12  2  1  0
 13  9  1  0
 14 13  1  0
 14 15  1  1
 16 17  2  0
 16 15  1  0
 18 17  1  0
 19 18  2  0
 20 21  2  0
 20 19  1  0
 21 16  1  0
 22 14  1  0
 23 22  2  0
 24 22  1  0
 25 26  1  1
 25 24  1  0
 26 27  1  0
 27 28  2  0
 27 32  1  0
 28 29  1  0
 29 30  2  0
 31 30  1  0
 32 31  2  0
 33 25  1  0
 34 33  1  0
 35 33  2  0
M  END
$$$$
