YFF.pdb
     RDKit          3D

 35 37  0  0  1  0  0  0  0  0999 V2000
    9.3920  -23.2971   16.3459 O   0  0  0  0  0  0  0  0  0  0  0  0
    9.7727  -22.3277   17.2823 C   0  0  0  0  0  0  0  0  0  0  0  0
    8.9162  -22.1089   18.3356 C   0  0  0  0  0  0  0  0  0  0  0  0
    9.2754  -21.1551   19.2706 C   0  0  0  0  0  0  0  0  0  0  0  0
   10.4375  -20.4363   19.1788 C   0  0  0  0  0  0  0  0  0  0  0  0
   10.7502  -19.4230   20.2336 C   0  0  0  0  0  0  0  0  0  0  0  0
   10.0600  -18.1247   19.8184 C   0  0  2  0  0  0  0  0  0  0  0  0
   10.7371  -17.6151   18.6458 N   0  0  0  0  0  0  0  0  0  0  0  0
   10.0410  -17.1441   20.9193 C   0  0  0  0  0  0  0  0  0  0  0  0
   11.0562  -16.4588   21.2111 O   0  0  0  0  0  0  0  0  0  0  0  0
   11.2798  -20.6674   18.1220 C   0  0  0  0  0  0  0  0  0  0  0  0
   10.9566  -21.6180   17.1591 C   0  0  0  0  0  0  0  0  0  0  0  0
    8.8723  -16.9539   21.6736 N   0  0  0  0  0  0  0  0  0  0  0  0
    8.7577  -16.0348   22.7927 C   0  0  1  0  0  0  0  0  0  0  0  0
    7.3143  -15.5916   22.8989 C   0  0  0  0  0  0  0  0  0  0  0  0
    7.0814  -14.6706   24.0100 C   0  0  0  0  0  0  0  0  0  0  0  0
    7.4186  -13.3391   23.9461 C   0  0  0  0  0  0  0  0  0  0  0  0
    7.2088  -12.4610   24.9791 C   0  0  0  0  0  0  0  0  0  0  0  0
    6.6355  -12.8998   26.1501 C   0  0  0  0  0  0  0  0  0  0  0  0
    6.2861  -14.2306   26.2447 C   0  0  0  0  0  0  0  0  0  0  0  0
    6.5074  -15.1100   25.1823 C   0  0  0  0  0  0  0  0  0  0  0  0
    9.2699  -16.7064   23.9977 C   0  0  0  0  0  0  0  0  0  0  0  0
    9.0277  -17.9180   24.1894 O   0  0  0  0  0  0  0  0  0  0  0  0
   10.0464  -16.0145   24.9675 N   0  0  0  0  0  0  0  0  0  0  0  0
   10.8859  -16.7555   25.9125 C   0  0  1  0  0  0  0  0  0  0  0  0
   11.7083  -15.7641   26.7183 C   0  0  0  0  0  0  0  0  0  0  0  0
   10.8944  -15.0603   27.7307 C   0  0  0  0  0  0  0  0  0  0  0  0
   10.8060  -15.4789   29.0381 C   0  0  0  0  0  0  0  0  0  0  0  0
   10.0321  -14.7877   29.9477 C   0  0  0  0  0  0  0  0  0  0  0  0
    9.3228  -13.6645   29.5962 C   0  0  0  0  0  0  0  0  0  0  0  0
    9.4058  -13.2377   28.2872 C   0  0  0  0  0  0  0  0  0  0  0  0
   10.1853  -13.9350   27.3739 C   0  0  0  0  0  0  0  0  0  0  0  0
   10.0908  -17.6396   26.7773 C   0  0  0  0  0  0  0  0  0  0  0  0
    8.7149  -17.6418   26.6586 O   0  0  0  0  0  0  0  0  0  0  0  0
   10.6145  -18.3979   27.6261 O   0  0  0  0  0  0  0  0  0  0  0  0
  2  3  2  0
  2  1  1  0
  4  3  1  0
  5  4  2  0
  6  5  1  0
  7  6  1  0
  7  8  1  6
  9  7  1  0
  9 10  2  0
 11  5  1  0
 11 12  2  0
 12  2  1  0
 13  9  1  0
 14 13  1  0
 14 15  1  1
 16 17  2  0
 16 15  1  0
 18 17  1  0
 19 18  2  0
 20 21  2  0
 20 19  1  0
 21 16  1  0
 22 14  1  0
 23 22  2  0
 24 22  1  0
 25 26  1  1
 25 24  1  0
 26 27  1  0
 27 28  2  0
 27 32  1  0
 28 29  1  0
 29 30  2  0
 31 30  1  0
 32 31  2  0
 33 25  1  0
 34 33  1  0
 35 33  2  0
M  END
$$$$
