YFF.pdb
     RDKit          3D

 35 37  0  0  1  0  0  0  0  0999 V2000
    6.7359  -12.3930   17.7376 O   0  0  0  0  0  0  0  0  0  0  0  0
    7.8324  -13.2069   18.0488 C   0  0  0  0  0  0  0  0  0  0  0  0
    8.7992  -12.6649   18.8626 C   0  0  0  0  0  0  0  0  0  0  0  0
    9.8898  -13.4538   19.1809 C   0  0  0  0  0  0  0  0  0  0  0  0
   10.0311  -14.7347   18.7174 C   0  0  0  0  0  0  0  0  0  0  0  0
   11.2423  -15.5198   19.1099 C   0  0  0  0  0  0  0  0  0  0  0  0
   10.7669  -16.6262   20.0502 C   0  0  2  0  0  0  0  0  0  0  0  0
    9.6073  -17.2516   19.4524 N   0  0  0  0  0  0  0  0  0  0  0  0
   10.4835  -16.1061   21.4005 C   0  0  0  0  0  0  0  0  0  0  0  0
   11.3497  -15.4734   22.0600 O   0  0  0  0  0  0  0  0  0  0  0  0
    9.0575  -15.2592   17.9071 C   0  0  0  0  0  0  0  0  0  0  0  0
    7.9442  -14.4997   17.5625 C   0  0  0  0  0  0  0  0  0  0  0  0
    9.2232  -16.3104   21.9843 N   0  0  0  0  0  0  0  0  0  0  0  0
    8.8352  -15.8169   23.2943 C   0  0  1  0  0  0  0  0  0  0  0  0
    7.3737  -15.4262   23.2424 C   0  0  0  0  0  0  0  0  0  0  0  0
    6.9239  -14.7406   24.4525 C   0  0  0  0  0  0  0  0  0  0  0  0
    6.2670  -15.3941   25.4683 C   0  0  0  0  0  0  0  0  0  0  0  0
    5.8365  -14.7667   26.6099 C   0  0  0  0  0  0  0  0  0  0  0  0
    6.0560  -13.4193   26.7797 C   0  0  0  0  0  0  0  0  0  0  0  0
    6.7127  -12.7359   25.7779 C   0  0  0  0  0  0  0  0  0  0  0  0
    7.1438  -13.3916   24.6223 C   0  0  0  0  0  0  0  0  0  0  0  0
    9.1443  -16.8550   24.2904 C   0  0  0  0  0  0  0  0  0  0  0  0
    8.7515  -18.0287   24.1131 O   0  0  0  0  0  0  0  0  0  0  0  0
    9.8892  -16.5658   25.4667 N   0  0  0  0  0  0  0  0  0  0  0  0
   10.4423  -17.6513   26.2808 C   0  0  1  0  0  0  0  0  0  0  0  0
   11.7039  -17.1549   26.9666 C   0  0  0  0  0  0  0  0  0  0  0  0
   11.4603  -15.9340   27.7620 C   0  0  0  0  0  0  0  0  0  0  0  0
   11.2677  -15.9579   29.1239 C   0  0  0  0  0  0  0  0  0  0  0  0
   11.0434  -14.7900   29.8237 C   0  0  0  0  0  0  0  0  0  0  0  0
   11.0022  -13.5649   29.2028 C   0  0  0  0  0  0  0  0  0  0  0  0
   11.1942  -13.5317   27.8373 C   0  0  0  0  0  0  0  0  0  0  0  0
   11.4198  -14.7083   27.1355 C   0  0  0  0  0  0  0  0  0  0  0  0
    9.4610  -18.1693   27.2454 C   0  0  0  0  0  0  0  0  0  0  0  0
    9.7893  -19.2631   28.0218 O   0  0  0  0  0  0  0  0  0  0  0  0
    8.3280  -17.6551   27.3932 O   0  0  0  0  0  0  0  0  0  0  0  0
  2  3  2  0
  2  1  1  0
  4  3  1  0
  5  4  2  0
  6  5  1  0
  7  6  1  0
  7  8  1  6
  9  7  1  0
  9 10  2  0
 11  5  1  0
 11 12  2  0
 12  2  1  0
 13  9  1  0
 14 13  1  0
 14 15  1  6
 16 17  2  0
 16 15  1  0
 18 17  1  0
 19 18  2  0
 20 21  2  0
 20 19  1  0
 21 16  1  0
 22 14  1  0
 23 22  2  0
 24 22  1  0
 25 26  1  1
 25 24  1  0
 26 27  1  0
 27 28  2  0
 27 32  1  0
 28 29  1  0
 29 30  2  0
 31 30  1  0
 32 31  2  0
 33 25  1  0
 34 33  1  0
 35 33  2  0
M  END
$$$$
