YFF.pdb
     RDKit          3D

 35 37  0  0  1  0  0  0  0  0999 V2000
   13.4134  -21.0377   15.2628 O   0  0  0  0  0  0  0  0  0  0  0  0
   13.0770  -20.1251   16.2705 C   0  0  0  0  0  0  0  0  0  0  0  0
   13.2462  -18.7909   15.9844 C   0  0  0  0  0  0  0  0  0  0  0  0
   12.9193  -17.8745   16.9675 C   0  0  0  0  0  0  0  0  0  0  0  0
   12.4410  -18.2514   18.1942 C   0  0  0  0  0  0  0  0  0  0  0  0
   12.1116  -17.1955   19.2012 C   0  0  0  0  0  0  0  0  0  0  0  0
   11.0692  -17.7936   20.1446 C   0  0  2  0  0  0  0  0  0  0  0  0
    9.8728  -18.0597   19.3759 N   0  0  0  0  0  0  0  0  0  0  0  0
   10.8060  -16.9083   21.2939 C   0  0  0  0  0  0  0  0  0  0  0  0
   11.7428  -16.3950   21.9605 O   0  0  0  0  0  0  0  0  0  0  0  0
   12.2785  -19.5860   18.4625 C   0  0  0  0  0  0  0  0  0  0  0  0
   12.5953  -20.5407   17.5016 C   0  0  0  0  0  0  0  0  0  0  0  0
    9.4855  -16.6173   21.6714 N   0  0  0  0  0  0  0  0  0  0  0  0
    9.1178  -15.8589   22.8546 C   0  0  1  0  0  0  0  0  0  0  0  0
    7.6789  -15.4131   22.7062 C   0  0  0  0  0  0  0  0  0  0  0  0
    7.2182  -14.5929   23.8251 C   0  0  0  0  0  0  0  0  0  0  0  0
    6.4457  -15.1018   24.8424 C   0  0  0  0  0  0  0  0  0  0  0  0
    6.0034  -14.3468   25.8991 C   0  0  0  0  0  0  0  0  0  0  0  0
    6.3299  -13.0126   25.9765 C   0  0  0  0  0  0  0  0  0  0  0  0
    7.1040  -12.4729   24.9708 C   0  0  0  0  0  0  0  0  0  0  0  0
    7.5452  -13.2573   23.9025 C   0  0  0  0  0  0  0  0  0  0  0  0
    9.3678  -16.6968   24.0380 C   0  0  0  0  0  0  0  0  0  0  0  0
    8.8554  -17.8345   24.1186 O   0  0  0  0  0  0  0  0  0  0  0  0
   10.1883  -16.2516   25.1108 N   0  0  0  0  0  0  0  0  0  0  0  0
   10.5779  -17.1746   26.1800 C   0  0  1  0  0  0  0  0  0  0  0  0
   11.6716  -16.5263   27.0118 C   0  0  0  0  0  0  0  0  0  0  0  0
   11.1714  -15.3703   27.7838 C   0  0  0  0  0  0  0  0  0  0  0  0
   10.9308  -14.1416   27.2140 C   0  0  0  0  0  0  0  0  0  0  0  0
   10.4634  -13.0912   27.9771 C   0  0  0  0  0  0  0  0  0  0  0  0
   10.2193  -13.2203   29.3232 C   0  0  0  0  0  0  0  0  0  0  0  0
   10.4579  -14.4491   29.9027 C   0  0  0  0  0  0  0  0  0  0  0  0
   10.9282  -15.5044   29.1326 C   0  0  0  0  0  0  0  0  0  0  0  0
    9.4285  -17.5777   27.0034 C   0  0  0  0  0  0  0  0  0  0  0  0
    9.6010  -18.5386   27.9802 O   0  0  0  0  0  0  0  0  0  0  0  0
    8.2878  -17.0816   26.8539 O   0  0  0  0  0  0  0  0  0  0  0  0
  2  3  2  0
  2  1  1  0
  4  3  1  0
  5  4  2  0
  6  5  1  0
  7  6  1  0
  7  8  1  6
  9  7  1  0
  9 10  2  0
 11  5  1  0
 11 12  2  0
 12  2  1  0
 13  9  1  0
 14 13  1  0
 14 15  1  6
 16 17  2  0
 16 15  1  0
 18 17  1  0
 19 18  2  0
 20 21  2  0
 20 19  1  0
 21 16  1  0
 22 14  1  0
 23 22  2  0
 24 22  1  0
 25 26  1  1
 25 24  1  0
 26 27  1  0
 27 28  2  0
 27 32  1  0
 28 29  1  0
 29 30  2  0
 31 30  1  0
 32 31  2  0
 33 25  1  0
 34 33  1  0
 35 33  2  0
M  END
$$$$
