YFF.pdb
     RDKit          3D

 35 37  0  0  1  0  0  0  0  0999 V2000
    7.6392  -24.7907   22.2998 O   0  0  0  0  0  0  0  0  0  0  0  0
    8.1792  -23.5071   22.1505 C   0  0  0  0  0  0  0  0  0  0  0  0
    8.9418  -23.2788   21.0293 C   0  0  0  0  0  0  0  0  0  0  0  0
    9.4836  -22.0169   20.8646 C   0  0  0  0  0  0  0  0  0  0  0  0
    9.2858  -21.0080   21.7693 C   0  0  0  0  0  0  0  0  0  0  0  0
    9.9083  -19.6718   21.5150 C   0  0  0  0  0  0  0  0  0  0  0  0
    8.7930  -18.7507   21.0230 C   0  0  2  0  0  0  0  0  0  0  0  0
    8.7954  -18.7809   19.5765 N   0  0  0  0  0  0  0  0  0  0  0  0
    8.9470  -17.3824   21.5505 C   0  0  0  0  0  0  0  0  0  0  0  0
    9.7379  -16.5564   21.0236 O   0  0  0  0  0  0  0  0  0  0  0  0
    8.5228  -21.2532   22.8817 C   0  0  0  0  0  0  0  0  0  0  0  0
    7.9592  -22.5085   23.0858 C   0  0  0  0  0  0  0  0  0  0  0  0
    8.2029  -16.9697   22.6672 N   0  0  0  0  0  0  0  0  0  0  0  0
    8.2604  -15.6386   23.2460 C   0  0  1  0  0  0  0  0  0  0  0  0
    6.8693  -15.2591   23.7065 C   0  0  0  0  0  0  0  0  0  0  0  0
    6.8380  -13.9988   24.4463 C   0  0  0  0  0  0  0  0  0  0  0  0
    6.2683  -13.8904   25.6930 C   0  0  0  0  0  0  0  0  0  0  0  0
    6.2286  -12.7159   26.4009 C   0  0  0  0  0  0  0  0  0  0  0  0
    6.7759  -11.5718   25.8679 C   0  0  0  0  0  0  0  0  0  0  0  0
    7.3550  -11.6486   24.6186 C   0  0  0  0  0  0  0  0  0  0  0  0
    7.3860  -12.8535   23.9125 C   0  0  0  0  0  0  0  0  0  0  0  0
    9.2677  -15.6431   24.3187 C   0  0  0  0  0  0  0  0  0  0  0  0
    9.2278  -14.7753   25.2179 O   0  0  0  0  0  0  0  0  0  0  0  0
   10.3012  -16.6184   24.3710 N   0  0  0  0  0  0  0  0  0  0  0  0
   11.2375  -16.6482   25.4977 C   0  0  1  0  0  0  0  0  0  0  0  0
   10.4453  -16.7550   26.7898 C   0  0  0  0  0  0  0  0  0  0  0  0
   10.4819  -15.5005   27.5693 C   0  0  0  0  0  0  0  0  0  0  0  0
   10.9141  -15.4463   28.8741 C   0  0  0  0  0  0  0  0  0  0  0  0
   10.9299  -14.2499   29.5613 C   0  0  0  0  0  0  0  0  0  0  0  0
   10.5205  -13.0722   28.9836 C   0  0  0  0  0  0  0  0  0  0  0  0
   10.0856  -13.1175   27.6754 C   0  0  0  0  0  0  0  0  0  0  0  0
   10.0707  -14.3227   26.9862 C   0  0  0  0  0  0  0  0  0  0  0  0
   12.2210  -17.7331   25.3660 C   0  0  0  0  0  0  0  0  0  0  0  0
   12.1236  -18.6078   24.3018 O   0  0  0  0  0  0  0  0  0  0  0  0
   13.1525  -17.8991   26.1874 O   0  0  0  0  0  0  0  0  0  0  0  0
  2  3  2  0
  2  1  1  0
  4  3  1  0
  5  4  2  0
  6  5  1  0
  7  6  1  0
  7  8  1  6
  9  7  1  0
  9 10  2  0
 11  5  1  0
 11 12  2  0
 12  2  1  0
 13  9  1  0
 14 13  1  0
 14 15  1  1
 16 17  2  0
 16 15  1  0
 18 17  1  0
 19 18  2  0
 20 21  2  0
 20 19  1  0
 21 16  1  0
 22 14  1  0
 23 22  2  0
 24 22  1  0
 25 26  1  1
 25 24  1  0
 26 27  1  0
 27 28  2  0
 27 32  1  0
 28 29  1  0
 29 30  2  0
 31 30  1  0
 32 31  2  0
 33 25  1  0
 34 33  1  0
 35 33  2  0
M  END
$$$$
