YFF.pdb
     RDKit          3D

 35 37  0  0  1  0  0  0  0  0999 V2000
 3036.4321-2888.1277 -438.1593 O   0  0  0  0  0  0  0  0  0  0  0  0
 3035.6960-2888.9102 -437.2619 C   0  0  0  0  0  0  0  0  0  0  0  0
 3034.7725-2888.2556 -436.4792 C   0  0  0  0  0  0  0  0  0  0  0  0
 3034.0354-2889.0127 -435.5870 C   0  0  0  0  0  0  0  0  0  0  0  0
 3034.1960-2890.3679 -435.4613 C   0  0  0  0  0  0  0  0  0  0  0  0
 3033.3569-2891.1094 -434.4701 C   0  0  0  0  0  0  0  0  0  0  0  0
 3034.1963-2891.2542 -433.2017 C   0  0  2  0  0  0  0  0  0  0  0  0
 3033.6587-2892.3557 -432.4331 N   0  0  0  0  0  0  0  0  0  0  0  0
 3034.2273-2889.9980 -432.4270 C   0  0  0  0  0  0  0  0  0  0  0  0
 3033.2749-2889.1780 -432.4604 O   0  0  0  0  0  0  0  0  0  0  0  0
 3035.1206-2891.0010 -436.2496 C   0  0  0  0  0  0  0  0  0  0  0  0
 3035.8835-2890.2783 -437.1611 C   0  0  0  0  0  0  0  0  0  0  0  0
 3035.3401-2889.6926 -431.6271 N   0  0  0  0  0  0  0  0  0  0  0  0
 3035.8853-2888.3569 -431.4544 C   0  0  1  0  0  0  0  0  0  0  0  0
 3035.5686-2887.8909 -430.0508 C   0  0  0  0  0  0  0  0  0  0  0  0
 3034.7021-2886.7141 -430.0231 C   0  0  0  0  0  0  0  0  0  0  0  0
 3034.6289-2885.8801 -428.9313 C   0  0  0  0  0  0  0  0  0  0  0  0
 3033.8191-2884.7722 -428.8855 C   0  0  0  0  0  0  0  0  0  0  0  0
 3033.0325-2884.4514 -429.9680 C   0  0  0  0  0  0  0  0  0  0  0  0
 3033.0830-2885.2673 -431.0768 C   0  0  0  0  0  0  0  0  0  0  0  0
 3033.9131-2886.3916 -431.1049 C   0  0  0  0  0  0  0  0  0  0  0  0
 3037.3232-2888.4026 -431.7629 C   0  0  0  0  0  0  0  0  0  0  0  0
 3038.0774-2887.4910 -431.3592 O   0  0  0  0  0  0  0  0  0  0  0  0
 3037.8950-2889.4644 -432.5147 N   0  0  0  0  0  0  0  0  0  0  0  0
 3037.2129-2890.7568 -432.6121 C   0  0  1  0  0  0  0  0  0  0  0  0
 3035.7659-2890.5171 -433.0074 C   0  0  0  0  0  0  0  0  0  0  0  0
 3034.9297-2891.7197 -432.8152 C   0  0  0  0  0  0  0  0  0  0  0  0
 3033.7651-2891.9360 -433.5143 C   0  0  0  0  0  0  0  0  0  0  0  0
 3033.0178-2893.0774 -433.3026 C   0  0  0  0  0  0  0  0  0  0  0  0
 3033.3958-2894.0374 -432.3941 C   0  0  0  0  0  0  0  0  0  0  0  0
 3034.5620-2893.8274 -431.6891 C   0  0  0  0  0  0  0  0  0  0  0  0
 3035.3127-2892.6799 -431.9063 C   0  0  0  0  0  0  0  0  0  0  0  0
 3037.8906-2891.6682 -433.5452 C   0  0  0  0  0  0  0  0  0  0  0  0
 3037.7178-2893.0305 -433.4046 O   0  0  0  0  0  0  0  0  0  0  0  0
 3038.6265-2891.2554 -434.4727 O   0  0  0  0  0  0  0  0  0  0  0  0
  2  3  2  0
  2  1  1  0
  4  3  1  0
  5  4  2  0
  6  5  1  0
  7  6  1  0
  7  8  1  1
  9  7  1  0
  9 10  2  0
 11  5  1  0
 11 12  2  0
 12  2  1  0
 13  9  1  0
 14 13  1  0
 14 15  1  1
 16 17  2  0
 16 15  1  0
 18 17  1  0
 19 18  2  0
 20 21  2  0
 20 19  1  0
 21 16  1  0
 22 14  1  0
 23 22  2  0
 24 22  1  0
 25 26  1  6
 25 24  1  0
 26 27  1  0
 27 28  2  0
 27 32  1  0
 28 29  1  0
 29 30  2  0
 31 30  1  0
 32 31  2  0
 33 25  1  0
 34 33  1  0
 35 33  2  0
M  END
$$$$
