YFF.pdb
     RDKit          3D

 35 37  0  0  1  0  0  0  0  0999 V2000
   10.4628  -22.6800   15.9124 O   0  0  0  0  0  0  0  0  0  0  0  0
   10.3593  -21.7597   16.9630 C   0  0  0  0  0  0  0  0  0  0  0  0
   10.4601  -22.2588   18.2403 C   0  0  0  0  0  0  0  0  0  0  0  0
   10.3602  -21.3649   19.2911 C   0  0  0  0  0  0  0  0  0  0  0  0
   10.1675  -20.0227   19.0989 C   0  0  0  0  0  0  0  0  0  0  0  0
   10.0704  -19.1247   20.2912 C   0  0  0  0  0  0  0  0  0  0  0  0
    9.7582  -17.7243   19.7660 C   0  0  2  0  0  0  0  0  0  0  0  0
   10.6653  -17.4452   18.6740 N   0  0  0  0  0  0  0  0  0  0  0  0
    9.8464  -16.7119   20.8343 C   0  0  0  0  0  0  0  0  0  0  0  0
   10.9139  -16.0846   21.0635 O   0  0  0  0  0  0  0  0  0  0  0  0
   10.0692  -19.5423   17.8185 C   0  0  0  0  0  0  0  0  0  0  0  0
   10.1642  -20.4071   16.7331 C   0  0  0  0  0  0  0  0  0  0  0  0
    8.7242  -16.4248   21.6276 N   0  0  0  0  0  0  0  0  0  0  0  0
    8.7217  -15.4889   22.7386 C   0  0  1  0  0  0  0  0  0  0  0  0
    7.3409  -14.8776   22.8430 C   0  0  0  0  0  0  0  0  0  0  0  0
    7.1823  -14.0260   24.0205 C   0  0  0  0  0  0  0  0  0  0  0  0
    7.7108  -12.7586   24.0894 C   0  0  0  0  0  0  0  0  0  0  0  0
    7.5733  -11.9463   25.1865 C   0  0  0  0  0  0  0  0  0  0  0  0
    6.8791  -12.3893   26.2885 C   0  0  0  0  0  0  0  0  0  0  0  0
    6.3369  -13.6568   26.2496 C   0  0  0  0  0  0  0  0  0  0  0  0
    6.4873  -14.4697   25.1237 C   0  0  0  0  0  0  0  0  0  0  0  0
    9.1542  -16.2055   23.9488 C   0  0  0  0  0  0  0  0  0  0  0  0
    8.4489  -17.1260   24.4165 O   0  0  0  0  0  0  0  0  0  0  0  0
   10.3686  -15.8844   24.6153 N   0  0  0  0  0  0  0  0  0  0  0  0
   10.8342  -16.6966   25.7424 C   0  0  1  0  0  0  0  0  0  0  0  0
    9.7476  -16.7298   26.8038 C   0  0  0  0  0  0  0  0  0  0  0  0
    9.7802  -15.5335   27.6700 C   0  0  0  0  0  0  0  0  0  0  0  0
   10.2316  -15.5662   28.9691 C   0  0  0  0  0  0  0  0  0  0  0  0
   10.2426  -14.4214   29.7394 C   0  0  0  0  0  0  0  0  0  0  0  0
    9.8095  -13.2115   29.2530 C   0  0  0  0  0  0  0  0  0  0  0  0
    9.3552  -13.1697   27.9513 C   0  0  0  0  0  0  0  0  0  0  0  0
    9.3452  -14.3230   27.1783 C   0  0  0  0  0  0  0  0  0  0  0  0
   11.2293  -18.0481   25.3193 C   0  0  0  0  0  0  0  0  0  0  0  0
   11.8866  -18.8707   26.2127 O   0  0  0  0  0  0  0  0  0  0  0  0
   10.9928  -18.4886   24.1704 O   0  0  0  0  0  0  0  0  0  0  0  0
  2  3  2  0
  2  1  1  0
  4  3  1  0
  5  4  2  0
  6  5  1  0
  7  6  1  0
  7  8  1  6
  9  7  1  0
  9 10  2  0
 11  5  1  0
 11 12  2  0
 12  2  1  0
 13  9  1  0
 14 13  1  0
 14 15  1  1
 16 17  2  0
 16 15  1  0
 18 17  1  0
 19 18  2  0
 20 21  2  0
 20 19  1  0
 21 16  1  0
 22 14  1  0
 23 22  2  0
 24 22  1  0
 25 26  1  1
 25 24  1  0
 26 27  1  0
 27 28  2  0
 27 32  1  0
 28 29  1  0
 29 30  2  0
 31 30  1  0
 32 31  2  0
 33 25  1  0
 34 33  1  0
 35 33  2  0
M  END
$$$$
