YFF.pdb
     RDKit          3D

 35 37  0  0  1  0  0  0  0  0999 V2000
   10.6134  -23.5704   17.5830 O   0  0  0  0  0  0  0  0  0  0  0  0
   10.5591  -22.4924   18.4755 C   0  0  0  0  0  0  0  0  0  0  0  0
   11.7561  -21.9157   18.8293 C   0  0  0  0  0  0  0  0  0  0  0  0
   11.7224  -20.8497   19.7099 C   0  0  0  0  0  0  0  0  0  0  0  0
   10.5529  -20.3618   20.2294 C   0  0  0  0  0  0  0  0  0  0  0  0
   10.6054  -19.2049   21.1761 C   0  0  0  0  0  0  0  0  0  0  0  0
    9.9604  -18.0186   20.4612 C   0  0  2  0  0  0  0  0  0  0  0  0
   10.6799  -17.7979   19.2255 N   0  0  0  0  0  0  0  0  0  0  0  0
    9.9400  -16.8165   21.3147 C   0  0  0  0  0  0  0  0  0  0  0  0
   10.8701  -15.9683   21.2837 O   0  0  0  0  0  0  0  0  0  0  0  0
    9.3685  -20.9488   19.8658 C   0  0  0  0  0  0  0  0  0  0  0  0
    9.3576  -22.0235   18.9826 C   0  0  0  0  0  0  0  0  0  0  0  0
    8.8662  -16.5925   22.1910 N   0  0  0  0  0  0  0  0  0  0  0  0
    8.7995  -15.4995   23.1456 C   0  0  1  0  0  0  0  0  0  0  0  0
    7.3462  -15.2606   23.4949 C   0  0  0  0  0  0  0  0  0  0  0  0
    7.1612  -14.1644   24.4442 C   0  0  0  0  0  0  0  0  0  0  0  0
    7.6835  -12.9103   24.2320 C   0  0  0  0  0  0  0  0  0  0  0  0
    7.5212  -11.8706   25.1122 C   0  0  0  0  0  0  0  0  0  0  0  0
    6.8071  -12.0564   26.2733 C   0  0  0  0  0  0  0  0  0  0  0  0
    6.2705  -13.3038   26.5145 C   0  0  0  0  0  0  0  0  0  0  0  0
    6.4462  -14.3506   25.6065 C   0  0  0  0  0  0  0  0  0  0  0  0
    9.6463  -15.8403   24.2997 C   0  0  0  0  0  0  0  0  0  0  0  0
   10.5945  -15.0919   24.6226 O   0  0  0  0  0  0  0  0  0  0  0  0
    9.4187  -17.0098   25.0759 N   0  0  0  0  0  0  0  0  0  0  0  0
   10.3903  -17.4289   26.0895 C   0  0  1  0  0  0  0  0  0  0  0  0
    9.7703  -17.2510   27.4651 C   0  0  0  0  0  0  0  0  0  0  0  0
    9.7552  -15.8358   27.8890 C   0  0  0  0  0  0  0  0  0  0  0  0
   10.8645  -15.1968   28.3923 C   0  0  0  0  0  0  0  0  0  0  0  0
   10.8009  -13.8727   28.7752 C   0  0  0  0  0  0  0  0  0  0  0  0
    9.6432  -13.1394   28.6735 C   0  0  0  0  0  0  0  0  0  0  0  0
    8.5260  -13.7724   28.1697 C   0  0  0  0  0  0  0  0  0  0  0  0
    8.5928  -15.1049   27.7852 C   0  0  0  0  0  0  0  0  0  0  0  0
   10.8527  -18.8073   25.8702 C   0  0  0  0  0  0  0  0  0  0  0  0
   11.8348  -19.3287   26.6891 O   0  0  0  0  0  0  0  0  0  0  0  0
   10.3888  -19.5353   24.9621 O   0  0  0  0  0  0  0  0  0  0  0  0
  2  3  2  0
  2  1  1  0
  4  3  1  0
  5  4  2  0
  6  5  1  0
  7  6  1  0
  7  8  1  6
  9  7  1  0
  9 10  2  0
 11  5  1  0
 11 12  2  0
 12  2  1  0
 13  9  1  0
 14 13  1  0
 14 15  1  1
 16 17  2  0
 16 15  1  0
 18 17  1  0
 19 18  2  0
 20 21  2  0
 20 19  1  0
 21 16  1  0
 22 14  1  0
 23 22  2  0
 24 22  1  0
 25 26  1  1
 25 24  1  0
 26 27  1  0
 27 28  2  0
 27 32  1  0
 28 29  1  0
 29 30  2  0
 31 30  1  0
 32 31  2  0
 33 25  1  0
 34 33  1  0
 35 33  2  0
M  END
$$$$
