YFF.pdb
     RDKit          3D

 35 37  0  0  1  0  0  0  0  0999 V2000
   10.0792  -12.8919   15.9595 O   0  0  0  0  0  0  0  0  0  0  0  0
    9.3614  -13.1259   17.1391 C   0  0  0  0  0  0  0  0  0  0  0  0
    9.9272  -13.9835   18.0529 C   0  0  0  0  0  0  0  0  0  0  0  0
    9.2328  -14.2269   19.2240 C   0  0  0  0  0  0  0  0  0  0  0  0
    8.0210  -13.6489   19.4941 C   0  0  0  0  0  0  0  0  0  0  0  0
    7.3364  -13.9662   20.7856 C   0  0  0  0  0  0  0  0  0  0  0  0
    7.0695  -15.4706   20.7868 C   0  0  2  0  0  0  0  0  0  0  0  0
    6.1563  -15.7622   19.7031 N   0  0  0  0  0  0  0  0  0  0  0  0
    6.5511  -15.9288   22.0889 C   0  0  0  0  0  0  0  0  0  0  0  0
    5.4850  -15.4675   22.5748 O   0  0  0  0  0  0  0  0  0  0  0  0
    7.4714  -12.7962   18.5718 C   0  0  0  0  0  0  0  0  0  0  0  0
    8.1367  -12.5240   17.3808 C   0  0  0  0  0  0  0  0  0  0  0  0
    7.2479  -16.9027   22.8216 N   0  0  0  0  0  0  0  0  0  0  0  0
    6.8070  -17.4432   24.0959 C   0  0  1  0  0  0  0  0  0  0  0  0
    6.4275  -18.8942   23.8919 C   0  0  0  0  0  0  0  0  0  0  0  0
    5.3233  -19.0673   22.9498 C   0  0  0  0  0  0  0  0  0  0  0  0
    5.5219  -19.4525   21.6449 C   0  0  0  0  0  0  0  0  0  0  0  0
    4.4981  -19.6182   20.7468 C   0  0  0  0  0  0  0  0  0  0  0  0
    3.1974  -19.3970   21.1368 C   0  0  0  0  0  0  0  0  0  0  0  0
    2.9660  -19.0096   22.4400 C   0  0  0  0  0  0  0  0  0  0  0  0
    4.0212  -18.8458   23.3404 C   0  0  0  0  0  0  0  0  0  0  0  0
    7.8788  -17.2357   25.0826 C   0  0  0  0  0  0  0  0  0  0  0  0
    9.0538  -17.5632   24.8080 O   0  0  0  0  0  0  0  0  0  0  0  0
    7.6211  -16.6635   26.3586 N   0  0  0  0  0  0  0  0  0  0  0  0
    8.7146  -16.4470   27.3097 C   0  0  1  0  0  0  0  0  0  0  0  0
    8.4658  -15.1459   28.0537 C   0  0  0  0  0  0  0  0  0  0  0  0
    8.2114  -14.0191   27.1328 C   0  0  0  0  0  0  0  0  0  0  0  0
    6.9737  -13.4348   26.9941 C   0  0  0  0  0  0  0  0  0  0  0  0
    6.7855  -12.3838   26.1201 C   0  0  0  0  0  0  0  0  0  0  0  0
    7.8103  -11.8777   25.3574 C   0  0  0  0  0  0  0  0  0  0  0  0
    9.0547  -12.4577   25.4902 C   0  0  0  0  0  0  0  0  0  0  0  0
    9.2415  -13.5151   26.3704 C   0  0  0  0  0  0  0  0  0  0  0  0
    8.8755  -17.5828   28.2294 C   0  0  0  0  0  0  0  0  0  0  0  0
    9.9705  -17.6218   29.0698 O   0  0  0  0  0  0  0  0  0  0  0  0
    8.0528  -18.5263   28.2824 O   0  0  0  0  0  0  0  0  0  0  0  0
  2  3  2  0
  2  1  1  0
  4  3  1  0
  5  4  2  0
  6  5  1  0
  7  6  1  0
  7  8  1  6
  9  7  1  0
  9 10  2  0
 11  5  1  0
 11 12  2  0
 12  2  1  0
 13  9  1  0
 14 13  1  0
 14 15  1  6
 16 17  2  0
 16 15  1  0
 18 17  1  0
 19 18  2  0
 20 21  2  0
 20 19  1  0
 21 16  1  0
 22 14  1  0
 23 22  2  0
 24 22  1  0
 25 26  1  1
 25 24  1  0
 26 27  1  0
 27 28  2  0
 27 32  1  0
 28 29  1  0
 29 30  2  0
 31 30  1  0
 32 31  2  0
 33 25  1  0
 34 33  1  0
 35 33  2  0
M  END
$$$$
