TFG.pdb
     RDKit          3D

 23 23  0  0  1  0  0  0  0  0999 V2000
    6.6256  -14.1691   18.6484 C   0  0  0  0  0  0  0  0  0  0  0  0
    7.3142  -14.6436   19.9098 C   0  0  1  0  0  0  0  0  0  0  0  0
    8.4719  -15.3243   19.5368 O   0  0  0  0  0  0  0  0  0  0  0  0
    7.7323  -13.4674   20.7600 C   0  0  2  0  0  0  0  0  0  0  0  0
    8.4449  -12.5124   19.9400 N   0  0  0  0  0  0  0  0  0  0  0  0
    8.5118  -13.8847   21.9524 C   0  0  0  0  0  0  0  0  0  0  0  0
    9.7332  -13.6499   21.9639 O   0  0  0  0  0  0  0  0  0  0  0  0
    7.9564  -14.5325   23.0778 N   0  0  0  0  0  0  0  0  0  0  0  0
    8.6531  -14.8288   24.2856 C   0  0  1  0  0  0  0  0  0  0  0  0
    7.6252  -14.9076   25.4098 C   0  0  0  0  0  0  0  0  0  0  0  0
    7.2545  -13.5693   25.9101 C   0  0  0  0  0  0  0  0  0  0  0  0
    8.1876  -12.5801   26.1341 C   0  0  0  0  0  0  0  0  0  0  0  0
    7.8488  -11.3286   26.6013 C   0  0  0  0  0  0  0  0  0  0  0  0
    6.5174  -11.0543   26.8556 C   0  0  0  0  0  0  0  0  0  0  0  0
    5.5432  -12.0250   26.6428 C   0  0  0  0  0  0  0  0  0  0  0  0
    5.9317  -13.2820   26.1678 C   0  0  0  0  0  0  0  0  0  0  0  0
    9.4151  -16.0625   24.2843 C   0  0  0  0  0  0  0  0  0  0  0  0
    9.9236  -16.5085   25.3343 O   0  0  0  0  0  0  0  0  0  0  0  0
    9.5958  -16.7861   23.0831 N   0  0  0  0  0  0  0  0  0  0  0  0
   10.2788  -18.0717   23.1350 C   0  0  0  0  0  0  0  0  0  0  0  0
   11.7312  -17.8690   23.2721 C   0  0  0  0  0  0  0  0  0  0  0  0
   12.2975  -16.9000   22.7085 O   0  0  0  0  0  0  0  0  0  0  0  0
   12.4779  -18.7419   24.0201 O   0  0  0  0  0  0  0  0  0  0  0  0
  2  1  1  6
  2  4  1  0
  3  2  1  0
  4  5  1  6
  6  4  1  0
  7  6  2  0
  8  6  1  0
  9  8  1  0
  9 10  1  1
 10 11  1  0
 11 12  2  0
 11 16  1  0
 12 13  1  0
 13 14  2  0
 15 14  1  0
 16 15  2  0
 17 19  1  0
 17  9  1  0
 18 17  2  0
 20 19  1  0
 21 20  1  0
 21 23  1  0
 22 21  2  0
M  END
$$$$
