TFG.pdb
     RDKit          3D

 23 23  0  0  1  0  0  0  0  0999 V2000
    7.1543  -18.0307   19.3243 C   0  0  0  0  0  0  0  0  0  0  0  0
    7.7136  -17.4553   20.6074 C   0  0  1  0  0  0  0  0  0  0  0  0
    9.0329  -17.8875   20.7325 O   0  0  0  0  0  0  0  0  0  0  0  0
    7.7334  -15.9463   20.5473 C   0  0  2  0  0  0  0  0  0  0  0  0
    8.4486  -15.5229   19.3635 N   0  0  0  0  0  0  0  0  0  0  0  0
    8.2807  -15.3415   21.7875 C   0  0  0  0  0  0  0  0  0  0  0  0
    9.3850  -14.7728   21.7227 O   0  0  0  0  0  0  0  0  0  0  0  0
    7.6283  -15.3693   23.0398 N   0  0  0  0  0  0  0  0  0  0  0  0
    8.1634  -14.8613   24.2595 C   0  0  1  0  0  0  0  0  0  0  0  0
    7.0218  -14.7685   25.2669 C   0  0  0  0  0  0  0  0  0  0  0  0
    6.8352  -13.3899   25.7603 C   0  0  0  0  0  0  0  0  0  0  0  0
    6.0257  -13.0937   26.8356 C   0  0  0  0  0  0  0  0  0  0  0  0
    5.8466  -11.8091   27.3016 C   0  0  0  0  0  0  0  0  0  0  0  0
    6.5067  -10.7748   26.6634 C   0  0  0  0  0  0  0  0  0  0  0  0
    7.3336  -11.0304   25.5738 C   0  0  0  0  0  0  0  0  0  0  0  0
    7.4866  -12.3495   25.1342 C   0  0  0  0  0  0  0  0  0  0  0  0
    9.2265  -15.6478   24.8545 C   0  0  0  0  0  0  0  0  0  0  0  0
    9.8394  -15.2451   25.8654 O   0  0  0  0  0  0  0  0  0  0  0  0
    9.5889  -16.8941   24.2938 N   0  0  0  0  0  0  0  0  0  0  0  0
   10.6727  -17.6501   24.9067 C   0  0  0  0  0  0  0  0  0  0  0  0
   10.7901  -18.9739   24.2716 C   0  0  0  0  0  0  0  0  0  0  0  0
   10.0687  -19.2779   23.2894 O   0  0  0  0  0  0  0  0  0  0  0  0
   11.6926  -19.8871   24.7514 O   0  0  0  0  0  0  0  0  0  0  0  0
  2  1  1  6
  2  4  1  0
  3  2  1  0
  4  5  1  6
  6  4  1  0
  7  6  2  0
  8  6  1  0
  9  8  1  0
  9 10  1  1
 10 11  1  0
 11 12  2  0
 11 16  1  0
 12 13  1  0
 13 14  2  0
 15 14  1  0
 16 15  2  0
 17 19  1  0
 17  9  1  0
 18 17  2  0
 20 19  1  0
 21 20  1  0
 21 23  1  0
 22 21  2  0
M  END
$$$$
