TFG.pdb
     RDKit          3D

 23 23  0  0  1  0  0  0  0  0999 V2000
    6.7130  -14.5841   18.7064 C   0  0  0  0  0  0  0  0  0  0  0  0
    7.3693  -14.9284   20.0259 C   0  0  1  0  0  0  0  0  0  0  0  0
    8.5925  -15.5375   19.7509 O   0  0  0  0  0  0  0  0  0  0  0  0
    7.6537  -13.6753   20.8194 C   0  0  2  0  0  0  0  0  0  0  0  0
    8.3327  -12.7169   19.9752 N   0  0  0  0  0  0  0  0  0  0  0  0
    8.4010  -13.9594   22.0701 C   0  0  0  0  0  0  0  0  0  0  0  0
    9.5795  -13.5694   22.1485 O   0  0  0  0  0  0  0  0  0  0  0  0
    7.8606  -14.6454   23.1801 N   0  0  0  0  0  0  0  0  0  0  0  0
    8.5261  -14.8557   24.4230 C   0  0  1  0  0  0  0  0  0  0  0  0
    7.4653  -14.9026   25.5181 C   0  0  0  0  0  0  0  0  0  0  0  0
    7.0721  -13.5505   25.9605 C   0  0  0  0  0  0  0  0  0  0  0  0
    7.9657  -12.5027   26.0158 C   0  0  0  0  0  0  0  0  0  0  0  0
    7.6058  -11.2378   26.4280 C   0  0  0  0  0  0  0  0  0  0  0  0
    6.2937  -11.0109   26.8015 C   0  0  0  0  0  0  0  0  0  0  0  0
    5.3594  -12.0414   26.7604 C   0  0  0  0  0  0  0  0  0  0  0  0
    5.7682  -13.3099   26.3355 C   0  0  0  0  0  0  0  0  0  0  0  0
    9.3206  -16.0654   24.5130 C   0  0  0  0  0  0  0  0  0  0  0  0
    9.7705  -16.4625   25.6083 O   0  0  0  0  0  0  0  0  0  0  0  0
    9.6006  -16.8209   23.3512 N   0  0  0  0  0  0  0  0  0  0  0  0
   10.3687  -18.0516   23.4834 C   0  0  0  0  0  0  0  0  0  0  0  0
   11.8110  -17.7569   23.4334 C   0  0  0  0  0  0  0  0  0  0  0  0
   12.2555  -16.6642   23.8644 O   0  0  0  0  0  0  0  0  0  0  0  0
   12.6817  -18.6789   22.9132 O   0  0  0  0  0  0  0  0  0  0  0  0
  2  1  1  6
  2  4  1  0
  3  2  1  0
  4  5  1  6
  6  4  1  0
  7  6  2  0
  8  6  1  0
  9  8  1  0
  9 10  1  1
 10 11  1  0
 11 12  2  0
 11 16  1  0
 12 13  1  0
 13 14  2  0
 15 14  1  0
 16 15  2  0
 17 19  1  0
 17  9  1  0
 18 17  2  0
 20 19  1  0
 21 20  1  0
 21 23  1  0
 22 21  2  0
M  END
$$$$
