TFG.pdb
     RDKit          3D

 23 23  0  0  1  0  0  0  0  0999 V2000
    6.6642  -15.0181   19.1560 C   0  0  0  0  0  0  0  0  0  0  0  0
    7.3605  -15.1555   20.4926 C   0  0  1  0  0  0  0  0  0  0  0  0
    8.6523  -15.6231   20.2576 O   0  0  0  0  0  0  0  0  0  0  0  0
    7.4799  -13.8104   21.1689 C   0  0  2  0  0  0  0  0  0  0  0  0
    8.0021  -12.8448   20.2269 N   0  0  0  0  0  0  0  0  0  0  0  0
    8.2821  -13.8776   22.4160 C   0  0  0  0  0  0  0  0  0  0  0  0
    9.3880  -13.3083   22.4313 O   0  0  0  0  0  0  0  0  0  0  0  0
    7.8714  -14.5471   23.5898 N   0  0  0  0  0  0  0  0  0  0  0  0
    8.6727  -14.7382   24.7531 C   0  0  1  0  0  0  0  0  0  0  0  0
    7.7430  -14.7566   25.9622 C   0  0  0  0  0  0  0  0  0  0  0  0
    7.3032  -13.3986   26.3379 C   0  0  0  0  0  0  0  0  0  0  0  0
    8.1940  -12.3826   26.6092 C   0  0  0  0  0  0  0  0  0  0  0  0
    7.7907  -11.1125   26.9607 C   0  0  0  0  0  0  0  0  0  0  0  0
    6.4360  -10.8469   27.0445 C   0  0  0  0  0  0  0  0  0  0  0  0
    5.5030  -11.8445   26.7785 C   0  0  0  0  0  0  0  0  0  0  0  0
    5.9566  -13.1197   26.4252 C   0  0  0  0  0  0  0  0  0  0  0  0
    9.4664  -15.9516   24.7764 C   0  0  0  0  0  0  0  0  0  0  0  0
   10.0269  -16.3366   25.8239 O   0  0  0  0  0  0  0  0  0  0  0  0
    9.6191  -16.7246   23.6024 N   0  0  0  0  0  0  0  0  0  0  0  0
   10.3408  -17.9873   23.6834 C   0  0  0  0  0  0  0  0  0  0  0  0
   11.7923  -17.7473   23.6120 C   0  0  0  0  0  0  0  0  0  0  0  0
   12.2438  -16.5778   23.5354 O   0  0  0  0  0  0  0  0  0  0  0  0
   12.6639  -18.8049   23.6288 O   0  0  0  0  0  0  0  0  0  0  0  0
  2  1  1  6
  2  4  1  0
  3  2  1  0
  4  5  1  6
  6  4  1  0
  7  6  2  0
  8  6  1  0
  9  8  1  0
  9 10  1  1
 10 11  1  0
 11 12  2  0
 11 16  1  0
 12 13  1  0
 13 14  2  0
 15 14  1  0
 16 15  2  0
 17 19  1  0
 17  9  1  0
 18 17  2  0
 20 19  1  0
 21 20  1  0
 21 23  1  0
 22 21  2  0
M  END
$$$$
