TFG.pdb
     RDKit          3D

 23 23  0  0  1  0  0  0  0  0999 V2000
    7.4945  -14.9788   16.8945 C   0  0  0  0  0  0  0  0  0  0  0  0
    7.9566  -14.9890   18.3355 C   0  0  1  0  0  0  0  0  0  0  0  0
    9.3415  -15.1469   18.3411 O   0  0  0  0  0  0  0  0  0  0  0  0
    7.6467  -13.6691   19.0009 C   0  0  2  0  0  0  0  0  0  0  0  0
    8.2320  -12.5944   18.2298 N   0  0  0  0  0  0  0  0  0  0  0  0
    8.0711  -13.6434   20.4231 C   0  0  0  0  0  0  0  0  0  0  0  0
    9.1458  -13.0830   20.7026 O   0  0  0  0  0  0  0  0  0  0  0  0
    7.3329  -14.2148   21.4830 N   0  0  0  0  0  0  0  0  0  0  0  0
    7.6832  -14.1454   22.8630 C   0  0  1  0  0  0  0  0  0  0  0  0
    6.4285  -13.7685   23.6443 C   0  0  0  0  0  0  0  0  0  0  0  0
    6.7511  -13.2812   24.9998 C   0  0  0  0  0  0  0  0  0  0  0  0
    6.3352  -13.9367   26.1385 C   0  0  0  0  0  0  0  0  0  0  0  0
    6.6323  -13.4875   27.4071 C   0  0  0  0  0  0  0  0  0  0  0  0
    7.3788  -12.3311   27.5425 C   0  0  0  0  0  0  0  0  0  0  0  0
    7.8186  -11.6387   26.4185 C   0  0  0  0  0  0  0  0  0  0  0  0
    7.4940  -12.1305   25.1498 C   0  0  0  0  0  0  0  0  0  0  0  0
    8.2221  -15.3635   23.4360 C   0  0  0  0  0  0  0  0  0  0  0  0
    7.4939  -16.3566   23.6439 O   0  0  0  0  0  0  0  0  0  0  0  0
    9.5932  -15.4462   23.7713 N   0  0  0  0  0  0  0  0  0  0  0  0
   10.0862  -16.6574   24.4131 C   0  0  0  0  0  0  0  0  0  0  0  0
   11.5191  -16.5190   24.7246 C   0  0  0  0  0  0  0  0  0  0  0  0
   12.1473  -15.4820   24.3967 O   0  0  0  0  0  0  0  0  0  0  0  0
   12.1793  -17.5268   25.3781 O   0  0  0  0  0  0  0  0  0  0  0  0
  2  1  1  6
  2  4  1  0
  3  2  1  0
  4  5  1  6
  6  4  1  0
  7  6  2  0
  8  6  1  0
  9  8  1  0
  9 10  1  1
 10 11  1  0
 11 12  2  0
 11 16  1  0
 12 13  1  0
 13 14  2  0
 15 14  1  0
 16 15  2  0
 17 19  1  0
 17  9  1  0
 18 17  2  0
 20 19  1  0
 21 20  1  0
 21 23  1  0
 22 21  2  0
M  END
$$$$
