TFG.pdb
     RDKit          3D

 23 23  0  0  1  0  0  0  0  0999 V2000
    8.0395  -18.7725   18.7883 C   0  0  0  0  0  0  0  0  0  0  0  0
    8.3039  -18.0971   20.1165 C   0  0  1  0  0  0  0  0  0  0  0  0
    9.4619  -18.6529   20.6577 O   0  0  0  0  0  0  0  0  0  0  0  0
    8.5569  -16.6212   19.9198 C   0  0  2  0  0  0  0  0  0  0  0  0
    9.6413  -16.4419   18.9794 N   0  0  0  0  0  0  0  0  0  0  0  0
    8.7968  -15.9160   21.2037 C   0  0  0  0  0  0  0  0  0  0  0  0
    9.9629  -15.8640   21.6333 O   0  0  0  0  0  0  0  0  0  0  0  0
    7.7853  -15.2984   21.9720 N   0  0  0  0  0  0  0  0  0  0  0  0
    7.9565  -14.7618   23.2814 C   0  0  1  0  0  0  0  0  0  0  0  0
    6.7617  -13.8605   23.5761 C   0  0  0  0  0  0  0  0  0  0  0  0
    6.8885  -13.1907   24.8853 C   0  0  0  0  0  0  0  0  0  0  0  0
    6.1359  -13.5593   25.9793 C   0  0  0  0  0  0  0  0  0  0  0  0
    6.2488  -12.9383   27.2045 C   0  0  0  0  0  0  0  0  0  0  0  0
    7.1549  -11.9025   27.3413 C   0  0  0  0  0  0  0  0  0  0  0  0
    7.9345  -11.4989   26.2616 C   0  0  0  0  0  0  0  0  0  0  0  0
    7.7873  -12.1571   25.0361 C   0  0  0  0  0  0  0  0  0  0  0  0
    8.0608  -15.7360   24.3505 C   0  0  0  0  0  0  0  0  0  0  0  0
    7.0829  -16.4390   24.6811 O   0  0  0  0  0  0  0  0  0  0  0  0
    9.2826  -15.9062   25.0414 N   0  0  0  0  0  0  0  0  0  0  0  0
    9.3831  -16.9643   26.0375 C   0  0  0  0  0  0  0  0  0  0  0  0
   10.6990  -16.9159   26.6976 C   0  0  0  0  0  0  0  0  0  0  0  0
   11.5871  -16.1240   26.2956 O   0  0  0  0  0  0  0  0  0  0  0  0
   10.9636  -17.7395   27.7608 O   0  0  0  0  0  0  0  0  0  0  0  0
  2  1  1  6
  2  4  1  0
  3  2  1  0
  4  5  1  6
  6  4  1  0
  7  6  2  0
  8  6  1  0
  9  8  1  0
  9 10  1  1
 10 11  1  0
 11 12  2  0
 11 16  1  0
 12 13  1  0
 13 14  2  0
 15 14  1  0
 16 15  2  0
 17 19  1  0
 17  9  1  0
 18 17  2  0
 20 19  1  0
 21 20  1  0
 21 23  1  0
 22 21  2  0
M  END
$$$$
