TFG.pdb
     RDKit          3D

 23 23  0  0  1  0  0  0  0  0999 V2000
    7.3599  -16.4216   20.0660 C   0  0  0  0  0  0  0  0  0  0  0  0
    7.9726  -15.1429   19.5373 C   0  0  1  0  0  0  0  0  0  0  0  0
    7.4616  -14.9180   18.2602 O   0  0  0  0  0  0  0  0  0  0  0  0
    7.5747  -13.9684   20.3995 C   0  0  2  0  0  0  0  0  0  0  0  0
    7.7931  -12.7403   19.6671 N   0  0  0  0  0  0  0  0  0  0  0  0
    8.2655  -13.9760   21.7133 C   0  0  0  0  0  0  0  0  0  0  0  0
    9.4045  -13.4803   21.7779 O   0  0  0  0  0  0  0  0  0  0  0  0
    7.7133  -14.5105   22.8982 N   0  0  0  0  0  0  0  0  0  0  0  0
    8.3986  -14.6412   24.1412 C   0  0  1  0  0  0  0  0  0  0  0  0
    7.3500  -14.7963   25.2381 C   0  0  0  0  0  0  0  0  0  0  0  0
    6.9079  -13.4900   25.7641 C   0  0  0  0  0  0  0  0  0  0  0  0
    5.6254  -13.2732   26.2195 C   0  0  0  0  0  0  0  0  0  0  0  0
    5.2055  -12.0563   26.7118 C   0  0  0  0  0  0  0  0  0  0  0  0
    6.1087  -11.0098   26.7502 C   0  0  0  0  0  0  0  0  0  0  0  0
    7.4136  -11.1862   26.3000 C   0  0  0  0  0  0  0  0  0  0  0  0
    7.7971  -12.4383   25.8083 C   0  0  0  0  0  0  0  0  0  0  0  0
    9.3189  -15.7578   24.2364 C   0  0  0  0  0  0  0  0  0  0  0  0
    9.9651  -15.9746   25.2829 O   0  0  0  0  0  0  0  0  0  0  0  0
    9.5004  -16.6262   23.1354 N   0  0  0  0  0  0  0  0  0  0  0  0
   10.3512  -17.7972   23.2990 C   0  0  0  0  0  0  0  0  0  0  0  0
   11.7543  -17.3842   23.4732 C   0  0  0  0  0  0  0  0  0  0  0  0
   12.2770  -17.3618   24.6150 O   0  0  0  0  0  0  0  0  0  0  0  0
   12.5022  -17.0197   22.3839 O   0  0  0  0  0  0  0  0  0  0  0  0
  2  1  1  1
  2  4  1  0
  3  2  1  0
  4  5  1  6
  6  4  1  0
  7  6  2  0
  8  6  1  0
  9  8  1  0
  9 10  1  1
 10 11  1  0
 11 12  2  0
 11 16  1  0
 12 13  1  0
 13 14  2  0
 15 14  1  0
 16 15  2  0
 17 19  1  0
 17  9  1  0
 18 17  2  0
 20 19  1  0
 21 20  1  0
 21 23  1  0
 22 21  2  0
M  END
$$$$
