TFG.pdb
     RDKit          3D

 23 23  0  0  1  0  0  0  0  0999 V2000
    7.2917  -19.4695   20.0269 C   0  0  0  0  0  0  0  0  0  0  0  0
    7.8005  -18.4153   20.9861 C   0  0  1  0  0  0  0  0  0  0  0  0
    9.1711  -18.2710   20.7776 O   0  0  0  0  0  0  0  0  0  0  0  0
    7.1540  -17.0810   20.6989 C   0  0  2  0  0  0  0  0  0  0  0  0
    7.3741  -16.7299   19.3131 N   0  0  0  0  0  0  0  0  0  0  0  0
    7.6125  -16.0218   21.6323 C   0  0  0  0  0  0  0  0  0  0  0  0
    8.4272  -15.1824   21.2095 O   0  0  0  0  0  0  0  0  0  0  0  0
    7.1835  -15.9038   22.9727 N   0  0  0  0  0  0  0  0  0  0  0  0
    7.5369  -14.8469   23.8614 C   0  0  1  0  0  0  0  0  0  0  0  0
    6.5801  -14.8958   25.0484 C   0  0  0  0  0  0  0  0  0  0  0  0
    6.7086  -13.7022   25.9072 C   0  0  0  0  0  0  0  0  0  0  0  0
    5.9965  -12.5454   25.6751 C   0  0  0  0  0  0  0  0  0  0  0  0
    6.1115  -11.4272   26.4725 C   0  0  0  0  0  0  0  0  0  0  0  0
    6.9774  -11.4682   27.5500 C   0  0  0  0  0  0  0  0  0  0  0  0
    7.7153  -12.6167   27.8198 C   0  0  0  0  0  0  0  0  0  0  0  0
    7.5676  -13.7287   26.9843 C   0  0  0  0  0  0  0  0  0  0  0  0
    8.8929  -14.8844   24.3739 C   0  0  0  0  0  0  0  0  0  0  0  0
    9.3330  -13.9713   25.1035 O   0  0  0  0  0  0  0  0  0  0  0  0
    9.7455  -15.9654   24.0522 N   0  0  0  0  0  0  0  0  0  0  0  0
   11.1008  -15.9724   24.5861 C   0  0  0  0  0  0  0  0  0  0  0  0
   11.9120  -16.9906   23.8972 C   0  0  0  0  0  0  0  0  0  0  0  0
   13.1064  -17.1894   24.2307 O   0  0  0  0  0  0  0  0  0  0  0  0
   11.3649  -17.7318   22.8822 O   0  0  0  0  0  0  0  0  0  0  0  0
  2  1  1  6
  2  4  1  0
  3  2  1  0
  4  5  1  6
  6  4  1  0
  7  6  2  0
  8  6  1  0
  9  8  1  0
  9 10  1  1
 10 11  1  0
 11 12  2  0
 11 16  1  0
 12 13  1  0
 13 14  2  0
 15 14  1  0
 16 15  2  0
 17 19  1  0
 17  9  1  0
 18 17  2  0
 20 19  1  0
 21 20  1  0
 21 23  1  0
 22 21  2  0
M  END
$$$$
