TFG.pdb
     RDKit          3D

 23 23  0  0  1  0  0  0  0  0999 V2000
    8.5254  -18.6460   18.8237 C   0  0  0  0  0  0  0  0  0  0  0  0
    8.7595  -17.9517   20.1479 C   0  0  1  0  0  0  0  0  0  0  0  0
    9.8841  -18.5242   20.7398 O   0  0  0  0  0  0  0  0  0  0  0  0
    9.0550  -16.4863   19.9332 C   0  0  2  0  0  0  0  0  0  0  0  0
   10.1953  -16.3509   19.0537 N   0  0  0  0  0  0  0  0  0  0  0  0
    9.2355  -15.7560   21.2128 C   0  0  0  0  0  0  0  0  0  0  0  0
   10.3872  -15.6572   21.6722 O   0  0  0  0  0  0  0  0  0  0  0  0
    8.1829  -15.1641   21.9451 N   0  0  0  0  0  0  0  0  0  0  0  0
    8.2874  -14.6521   23.2713 C   0  0  1  0  0  0  0  0  0  0  0  0
    7.0118  -13.8716   23.5720 C   0  0  0  0  0  0  0  0  0  0  0  0
    7.0324  -13.2860   24.9267 C   0  0  0  0  0  0  0  0  0  0  0  0
    6.3038  -13.8140   25.9706 C   0  0  0  0  0  0  0  0  0  0  0  0
    6.3180  -13.2725   27.2379 C   0  0  0  0  0  0  0  0  0  0  0  0
    7.0958  -12.1530   27.4713 C   0  0  0  0  0  0  0  0  0  0  0  0
    7.8468  -11.5883   26.4449 C   0  0  0  0  0  0  0  0  0  0  0  0
    7.8028  -12.1705   25.1738 C   0  0  0  0  0  0  0  0  0  0  0  0
    8.4658  -15.6432   24.3148 C   0  0  0  0  0  0  0  0  0  0  0  0
    7.6221  -16.5452   24.4997 O   0  0  0  0  0  0  0  0  0  0  0  0
    9.6085  -15.6030   25.1464 N   0  0  0  0  0  0  0  0  0  0  0  0
   10.0645  -16.8372   25.7715 C   0  0  0  0  0  0  0  0  0  0  0  0
    9.8226  -16.7896   27.2237 C   0  0  0  0  0  0  0  0  0  0  0  0
   10.5331  -17.4608   28.0124 O   0  0  0  0  0  0  0  0  0  0  0  0
    8.8149  -16.0079   27.7258 O   0  0  0  0  0  0  0  0  0  0  0  0
  2  1  1  6
  2  4  1  0
  3  2  1  0
  4  5  1  6
  6  4  1  0
  7  6  2  0
  8  6  1  0
  9  8  1  0
  9 10  1  1
 10 11  1  0
 11 12  2  0
 11 16  1  0
 12 13  1  0
 13 14  2  0
 15 14  1  0
 16 15  2  0
 17 19  1  0
 17  9  1  0
 18 17  2  0
 20 19  1  0
 21 20  1  0
 21 23  1  0
 22 21  2  0
M  END
$$$$
