TFG.pdb
     RDKit          3D

 23 23  0  0  1  0  0  0  0  0999 V2000
    6.9321  -14.4886   18.7806 C   0  0  0  0  0  0  0  0  0  0  0  0
    7.5598  -14.8021   20.1215 C   0  0  1  0  0  0  0  0  0  0  0  0
    8.8363  -15.3115   19.8894 O   0  0  0  0  0  0  0  0  0  0  0  0
    7.7148  -13.5433   20.9415 C   0  0  2  0  0  0  0  0  0  0  0  0
    8.3236  -12.5134   20.1286 N   0  0  0  0  0  0  0  0  0  0  0  0
    8.4578  -13.7829   22.2040 C   0  0  0  0  0  0  0  0  0  0  0  0
    9.5973  -13.2963   22.3132 O   0  0  0  0  0  0  0  0  0  0  0  0
    7.9548  -14.5291   23.2926 N   0  0  0  0  0  0  0  0  0  0  0  0
    8.6734  -14.8336   24.4854 C   0  0  1  0  0  0  0  0  0  0  0  0
    7.6601  -14.9790   25.6162 C   0  0  0  0  0  0  0  0  0  0  0  0
    7.2037  -13.6677   26.1170 C   0  0  0  0  0  0  0  0  0  0  0  0
    5.8944  -13.2513   26.0100 C   0  0  0  0  0  0  0  0  0  0  0  0
    5.4612  -12.0284   26.4751 C   0  0  0  0  0  0  0  0  0  0  0  0
    6.3788  -11.1845   27.0739 C   0  0  0  0  0  0  0  0  0  0  0  0
    7.7108  -11.5663   27.2021 C   0  0  0  0  0  0  0  0  0  0  0  0
    8.1069  -12.8166   26.7159 C   0  0  0  0  0  0  0  0  0  0  0  0
    9.4778  -16.0394   24.4433 C   0  0  0  0  0  0  0  0  0  0  0  0
   10.0467  -16.4722   25.4674 O   0  0  0  0  0  0  0  0  0  0  0  0
    9.6318  -16.7500   23.2307 N   0  0  0  0  0  0  0  0  0  0  0  0
   10.3786  -18.0007   23.2411 C   0  0  0  0  0  0  0  0  0  0  0  0
   11.8133  -17.7362   23.0384 C   0  0  0  0  0  0  0  0  0  0  0  0
   12.6265  -18.6849   22.9111 O   0  0  0  0  0  0  0  0  0  0  0  0
   12.2723  -16.4457   22.9874 O   0  0  0  0  0  0  0  0  0  0  0  0
  2  1  1  6
  2  4  1  0
  3  2  1  0
  4  5  1  6
  6  4  1  0
  7  6  2  0
  8  6  1  0
  9  8  1  0
  9 10  1  1
 10 11  1  0
 11 12  2  0
 11 16  1  0
 12 13  1  0
 13 14  2  0
 15 14  1  0
 16 15  2  0
 17 19  1  0
 17  9  1  0
 18 17  2  0
 20 19  1  0
 21 20  1  0
 21 23  1  0
 22 21  2  0
M  END
$$$$
