TFG.pdb
     RDKit          3D

 23 23  0  0  1  0  0  0  0  0999 V2000
    6.9232  -14.2771   18.7545 C   0  0  0  0  0  0  0  0  0  0  0  0
    7.5134  -14.6787   20.0889 C   0  0  1  0  0  0  0  0  0  0  0  0
    8.7336  -15.3074   19.8468 O   0  0  0  0  0  0  0  0  0  0  0  0
    7.7906  -13.4585   20.9347 C   0  0  2  0  0  0  0  0  0  0  0  0
    8.5199  -12.4867   20.1499 N   0  0  0  0  0  0  0  0  0  0  0  0
    8.4834  -13.7990   22.2026 C   0  0  0  0  0  0  0  0  0  0  0  0
    9.6525  -13.4027   22.3548 O   0  0  0  0  0  0  0  0  0  0  0  0
    7.9009  -14.5455   23.2505 N   0  0  0  0  0  0  0  0  0  0  0  0
    8.5593  -14.9270   24.4558 C   0  0  1  0  0  0  0  0  0  0  0  0
    7.5108  -14.9849   25.5621 C   0  0  0  0  0  0  0  0  0  0  0  0
    7.1886  -13.6426   26.0847 C   0  0  0  0  0  0  0  0  0  0  0  0
    5.8956  -13.1728   26.1664 C   0  0  0  0  0  0  0  0  0  0  0  0
    5.5874  -11.9207   26.6530 C   0  0  0  0  0  0  0  0  0  0  0  0
    6.6186  -11.1022   27.0766 C   0  0  0  0  0  0  0  0  0  0  0  0
    7.9386  -11.5380   27.0111 C   0  0  0  0  0  0  0  0  0  0  0  0
    8.2059  -12.8164   26.5103 C   0  0  0  0  0  0  0  0  0  0  0  0
    9.2466  -16.2033   24.4190 C   0  0  0  0  0  0  0  0  0  0  0  0
    9.6595  -16.7449   25.4658 O   0  0  0  0  0  0  0  0  0  0  0  0
    9.4617  -16.8603   23.1856 N   0  0  0  0  0  0  0  0  0  0  0  0
   10.0668  -18.1853   23.1932 C   0  0  0  0  0  0  0  0  0  0  0  0
   11.5291  -18.0758   23.0548 C   0  0  0  0  0  0  0  0  0  0  0  0
   12.2247  -17.5941   23.9830 O   0  0  0  0  0  0  0  0  0  0  0  0
   12.1430  -18.5013   21.9056 O   0  0  0  0  0  0  0  0  0  0  0  0
  2  1  1  6
  2  4  1  0
  3  2  1  0
  4  5  1  6
  6  4  1  0
  7  6  2  0
  8  6  1  0
  9  8  1  0
  9 10  1  1
 10 11  1  0
 11 12  2  0
 11 16  1  0
 12 13  1  0
 13 14  2  0
 15 14  1  0
 16 15  2  0
 17 19  1  0
 17  9  1  0
 18 17  2  0
 20 19  1  0
 21 20  1  0
 21 23  1  0
 22 21  2  0
M  END
$$$$
