NPR.pdb
     RDKit          3D

 27 27  0  0  1  0  0  0  0  0999 V2000
   21.9051  -12.1218  -21.5358 N   0  0  0  0  0  0  0  0  0  0  0  0
   21.4405  -12.3797  -20.2276 C   0  0  0  0  0  0  0  0  0  0  0  0
   20.7927  -13.4077  -19.9081 O   0  0  0  0  0  0  0  0  0  0  0  0
   21.7226  -11.3911  -19.1466 C   0  0  0  0  0  0  0  0  0  0  0  0
   23.2253  -11.2695  -18.9120 C   0  0  2  0  0  0  0  0  0  0  0  0
   23.7071  -12.5509  -18.4707 N   0  0  0  0  0  0  0  0  0  0  0  0
   23.4927  -10.1784  -17.9402 C   0  0  0  0  0  0  0  0  0  0  0  0
   23.5241  -10.5709  -16.7221 O   0  0  0  0  0  0  0  0  0  0  0  0
   23.6987   -8.8178  -18.2857 N   0  0  0  0  0  0  0  0  0  0  0  0
   23.6400   -8.2531  -19.5953 C   0  0  0  0  0  0  0  0  0  0  0  0
   24.1378   -6.8495  -19.4620 C   0  0  0  0  0  0  0  0  0  0  0  0
   24.8521   -6.8168  -18.1027 C   0  0  0  0  0  0  0  0  0  0  0  0
   23.9929   -7.7908  -17.3311 C   0  0  1  0  0  0  0  0  0  0  0  0
   22.7853   -7.0799  -16.8580 C   0  0  0  0  0  0  0  0  0  0  0  0
   21.7892   -7.0248  -17.6081 O   0  0  0  0  0  0  0  0  0  0  0  0
   17.2194  -10.3556  -11.5156 N   0  0  0  0  0  0  0  0  0  0  0  0
   16.6927   -9.2527  -12.2689 C   0  0  0  0  0  0  0  0  0  0  0  0
   15.4252   -9.2021  -12.4075 N   0  0  0  0  0  0  0  0  0  0  0  0
   17.5122   -8.2695  -12.8313 N   0  0  0  0  0  0  0  0  0  0  0  0
   18.8412   -8.5240  -13.3483 C   0  0  0  0  0  0  0  0  0  0  0  0
   19.4356   -7.2201  -13.8283 C   0  0  0  0  0  0  0  0  0  0  0  0
   20.7759   -7.4498  -14.4766 C   0  0  0  0  0  0  0  0  0  0  0  0
   21.4475   -6.2068  -14.9689 C   0  0  2  0  0  0  0  0  0  0  0  0
   22.7243   -6.4654  -15.5897 N   0  0  0  0  0  0  0  0  0  0  0  0
   21.6665   -5.2783  -13.7990 C   0  0  0  0  0  0  0  0  0  0  0  0
   22.7983   -5.1861  -13.2727 O   0  0  0  0  0  0  0  0  0  0  0  0
   20.6260   -4.5171  -13.2902 O   0  0  0  0  0  0  0  0  0  0  0  0
  2  1  1  0
  2  3  2  0
  4  2  1  0
  5  4  1  0
  5  6  1  1
  7  5  1  0
  7  9  1  0
  8  7  2  0
  9 13  1  0
 10  9  1  0
 10 11  1  0
 11 12  1  0
 13 12  1  0
 14 24  1  0
 13 14  1  6
 15 14  2  0
 17 16  1  0
 17 19  1  0
 18 17  2  0
 20 19  1  0
 21 22  1  0
 21 20  1  0
 23 22  1  1
 23 24  1  0
 25 23  1  0
 25 27  1  0
 26 25  2  0
M  END
$$$$
