NPR.pdb
     RDKit          3D

 27 27  0  0  1  0  0  0  0  0999 V2000
   18.4185  -18.7862  -17.0651 N   0  0  0  0  0  0  0  0  0  0  0  0
   18.9219  -17.8214  -17.9649 C   0  0  0  0  0  0  0  0  0  0  0  0
   19.2525  -18.0787  -19.1494 O   0  0  0  0  0  0  0  0  0  0  0  0
   19.0787  -16.4103  -17.5070 C   0  0  0  0  0  0  0  0  0  0  0  0
   20.5500  -16.0876  -17.2635 C   0  0  2  0  0  0  0  0  0  0  0  0
   21.0242  -16.9557  -16.2193 N   0  0  0  0  0  0  0  0  0  0  0  0
   20.6980  -14.6461  -16.9370 C   0  0  0  0  0  0  0  0  0  0  0  0
   20.4766  -14.3721  -15.7062 O   0  0  0  0  0  0  0  0  0  0  0  0
   21.0488  -13.6358  -17.8692 N   0  0  0  0  0  0  0  0  0  0  0  0
   21.2118  -13.7961  -19.2782 C   0  0  0  0  0  0  0  0  0  0  0  0
   21.7885  -12.5095  -19.7758 C   0  0  0  0  0  0  0  0  0  0  0  0
   22.3102  -11.8031  -18.5158 C   0  0  0  0  0  0  0  0  0  0  0  0
   21.2841  -12.2690  -17.5097 C   0  0  1  0  0  0  0  0  0  0  0  0
   20.0787  -11.4223  -17.6410 C   0  0  0  0  0  0  0  0  0  0  0  0
   19.3642  -11.5492  -18.6566 O   0  0  0  0  0  0  0  0  0  0  0  0
   14.3027  -13.6994  -13.2445 N   0  0  0  0  0  0  0  0  0  0  0  0
   15.2793  -14.3283  -14.0883 C   0  0  0  0  0  0  0  0  0  0  0  0
   15.2869  -15.6043  -14.1095 N   0  0  0  0  0  0  0  0  0  0  0  0
   16.1872  -13.5962  -14.8591 N   0  0  0  0  0  0  0  0  0  0  0  0
   16.2114  -12.1491  -14.9214 C   0  0  0  0  0  0  0  0  0  0  0  0
   17.3791  -11.7175  -15.7784 C   0  0  0  0  0  0  0  0  0  0  0  0
   17.3710  -10.2248  -15.9807 C   0  0  0  0  0  0  0  0  0  0  0  0
   18.5040   -9.7053  -16.8083 C   0  0  2  0  0  0  0  0  0  0  0  0
   19.7123  -10.4798  -16.6573 N   0  0  0  0  0  0  0  0  0  0  0  0
   18.7953   -8.2835  -16.3935 C   0  0  0  0  0  0  0  0  0  0  0  0
   19.8844   -7.9986  -15.8464 O   0  0  0  0  0  0  0  0  0  0  0  0
   17.8689   -7.2753  -16.6090 O   0  0  0  0  0  0  0  0  0  0  0  0
  2  1  1  0
  2  3  2  0
  4  2  1  0
  5  4  1  0
  5  6  1  1
  7  5  1  0
  7  9  1  0
  8  7  2  0
  9 13  1  0
 10  9  1  0
 10 11  1  0
 11 12  1  0
 13 12  1  0
 14 24  1  0
 13 14  1  6
 15 14  2  0
 17 16  1  0
 17 19  1  0
 18 17  2  0
 20 19  1  0
 21 22  1  0
 21 20  1  0
 23 22  1  1
 23 24  1  0
 25 23  1  0
 25 27  1  0
 26 25  2  0
M  END
$$$$
