NPR.pdb
     RDKit          3D

 27 27  0  0  1  0  0  0  0  0999 V2000
   28.1931  -23.0736  -15.9774 N   0  0  0  0  0  0  0  0  0  0  0  0
   27.6921  -22.2864  -17.0372 C   0  0  0  0  0  0  0  0  0  0  0  0
   28.0210  -22.4456  -18.2393 O   0  0  0  0  0  0  0  0  0  0  0  0
   26.7159  -21.1988  -16.7381 C   0  0  0  0  0  0  0  0  0  0  0  0
   26.4552  -21.1119  -15.2373 C   0  0  2  0  0  0  0  0  0  0  0  0
   25.9783  -22.3960  -14.7983 N   0  0  0  0  0  0  0  0  0  0  0  0
   25.5012  -20.0080  -14.9588 C   0  0  0  0  0  0  0  0  0  0  0  0
   24.3566  -20.4085  -14.5487 O   0  0  0  0  0  0  0  0  0  0  0  0
   25.7894  -18.6280  -15.1192 N   0  0  0  0  0  0  0  0  0  0  0  0
   27.0146  -18.0619  -15.5836 C   0  0  0  0  0  0  0  0  0  0  0  0
   26.8957  -16.5873  -15.3678 C   0  0  0  0  0  0  0  0  0  0  0  0
   25.7216  -16.4299  -14.3902 C   0  0  0  0  0  0  0  0  0  0  0  0
   24.8522  -17.5819  -14.8365 C   0  0  1  0  0  0  0  0  0  0  0  0
   24.0846  -17.1578  -16.0275 C   0  0  0  0  0  0  0  0  0  0  0  0
   24.4569  -17.5506  -17.1522 O   0  0  0  0  0  0  0  0  0  0  0  0
   20.9931  -21.6481  -13.0848 N   0  0  0  0  0  0  0  0  0  0  0  0
   19.9068  -20.7347  -12.8678 C   0  0  0  0  0  0  0  0  0  0  0  0
   19.3121  -20.8036  -11.7408 N   0  0  0  0  0  0  0  0  0  0  0  0
   19.5045  -19.8055  -13.8317 N   0  0  0  0  0  0  0  0  0  0  0  0
   20.1615  -19.6327  -15.1111 C   0  0  0  0  0  0  0  0  0  0  0  0
   20.5542  -18.1815  -15.2655 C   0  0  0  0  0  0  0  0  0  0  0  0
   21.2339  -17.9493  -16.5897 C   0  0  0  0  0  0  0  0  0  0  0  0
   21.7964  -16.5741  -16.7650 C   0  0  2  0  0  0  0  0  0  0  0  0
   22.9486  -16.3270  -15.9319 N   0  0  0  0  0  0  0  0  0  0  0  0
   20.7297  -15.5656  -16.4131 C   0  0  0  0  0  0  0  0  0  0  0  0
   20.6544  -15.1099  -15.2497 O   0  0  0  0  0  0  0  0  0  0  0  0
   19.8212  -15.1294  -17.3645 O   0  0  0  0  0  0  0  0  0  0  0  0
  2  1  1  0
  2  3  2  0
  4  2  1  0
  5  4  1  0
  5  6  1  6
  7  5  1  0
  7  9  1  0
  8  7  2  0
  9 13  1  0
 10  9  1  0
 10 11  1  0
 11 12  1  0
 13 12  1  0
 14 24  1  0
 13 14  1  6
 15 14  2  0
 17 16  1  0
 17 19  1  0
 18 17  2  0
 20 19  1  0
 21 22  1  0
 21 20  1  0
 23 22  1  1
 23 24  1  0
 25 23  1  0
 25 27  1  0
 26 25  2  0
M  END
$$$$
