NPR.pdb
     RDKit          3D

 27 27  0  0  1  0  0  0  0  0999 V2000
   13.1276  -22.4328    5.0329 N   0  0  0  0  0  0  0  0  0  0  0  0
   12.4016  -23.0445    3.9877 C   0  0  0  0  0  0  0  0  0  0  0  0
   11.2068  -23.4180    4.0948 O   0  0  0  0  0  0  0  0  0  0  0  0
   13.0687  -23.2703    2.6727 C   0  0  0  0  0  0  0  0  0  0  0  0
   14.4860  -22.7054    2.6881 C   0  0  2  0  0  0  0  0  0  0  0  0
   14.3937  -21.2801    2.5179 N   0  0  0  0  0  0  0  0  0  0  0  0
   15.2995  -23.3679    1.6365 C   0  0  0  0  0  0  0  0  0  0  0  0
   15.4980  -22.6380    0.6037 O   0  0  0  0  0  0  0  0  0  0  0  0
   15.8255  -24.6825    1.7268 N   0  0  0  0  0  0  0  0  0  0  0  0
   15.6451  -25.6001    2.8052 C   0  0  0  0  0  0  0  0  0  0  0  0
   16.5630  -26.7474    2.5285 C   0  0  0  0  0  0  0  0  0  0  0  0
   17.5428  -26.2166    1.4716 C   0  0  0  0  0  0  0  0  0  0  0  0
   16.6272  -25.2900    0.7066 C   0  0  1  0  0  0  0  0  0  0  0  0
   15.8340  -26.0950   -0.2475 C   0  0  0  0  0  0  0  0  0  0  0  0
   14.8994  -26.7964    0.1914 O   0  0  0  0  0  0  0  0  0  0  0  0
   18.8146  -24.6152   -7.0718 N   0  0  0  0  0  0  0  0  0  0  0  0
   18.4815  -25.9220   -7.5645 C   0  0  0  0  0  0  0  0  0  0  0  0
   19.0199  -26.2776   -8.6654 N   0  0  0  0  0  0  0  0  0  0  0  0
   17.6116  -26.7801   -6.8852 N   0  0  0  0  0  0  0  0  0  0  0  0
   16.4446  -26.3334   -6.1525 C   0  0  0  0  0  0  0  0  0  0  0  0
   16.5115  -26.8838   -4.7465 C   0  0  0  0  0  0  0  0  0  0  0  0
   15.3283  -26.4240   -3.9354 C   0  0  0  0  0  0  0  0  0  0  0  0
   15.3161  -26.9169   -2.5228 C   0  0  2  0  0  0  0  0  0  0  0  0
   16.0994  -26.0939   -1.6330 N   0  0  0  0  0  0  0  0  0  0  0  0
   15.8776  -28.3177   -2.4933 C   0  0  0  0  0  0  0  0  0  0  0  0
   17.0750  -28.5088   -2.1831 O   0  0  0  0  0  0  0  0  0  0  0  0
   15.0835  -29.4095   -2.8071 O   0  0  0  0  0  0  0  0  0  0  0  0
  2  1  1  0
  2  3  2  0
  4  2  1  0
  5  4  1  0
  5  6  1  6
  7  5  1  0
  7  9  1  0
  8  7  2  0
  9 13  1  0
 10  9  1  0
 10 11  1  0
 11 12  1  0
 13 12  1  0
 14 24  1  0
 13 14  1  6
 15 14  2  0
 17 16  1  0
 17 19  1  0
 18 17  2  0
 20 19  1  0
 21 22  1  0
 21 20  1  0
 23 22  1  6
 23 24  1  0
 25 23  1  0
 25 27  1  0
 26 25  2  0
M  END
$$$$
