NPR.pdb
     RDKit          3D

 27 27  0  0  1  0  0  0  0  0999 V2000
   27.2657  -21.8170  -11.8960 N   0  0  0  0  0  0  0  0  0  0  0  0
   26.0313  -22.5012  -11.8508 C   0  0  0  0  0  0  0  0  0  0  0  0
   25.9019  -23.7231  -12.1126 O   0  0  0  0  0  0  0  0  0  0  0  0
   24.7973  -21.7529  -11.4732 C   0  0  0  0  0  0  0  0  0  0  0  0
   25.1327  -20.3023  -11.1395 C   0  0  2  0  0  0  0  0  0  0  0  0
   24.3829  -19.9354   -9.9681 N   0  0  0  0  0  0  0  0  0  0  0  0
   24.8421  -19.4394  -12.3131 C   0  0  0  0  0  0  0  0  0  0  0  0
   23.6684  -18.9285  -12.2978 O   0  0  0  0  0  0  0  0  0  0  0  0
   25.7491  -19.1800  -13.3728 N   0  0  0  0  0  0  0  0  0  0  0  0
   27.0924  -19.6509  -13.4789 C   0  0  0  0  0  0  0  0  0  0  0  0
   27.6892  -18.9356  -14.6483 C   0  0  0  0  0  0  0  0  0  0  0  0
   26.7383  -17.7585  -14.9118 C   0  0  0  0  0  0  0  0  0  0  0  0
   25.4228  -18.3919  -14.5238 C   0  0  1  0  0  0  0  0  0  0  0  0
   24.9386  -19.2043  -15.6609 C   0  0  0  0  0  0  0  0  0  0  0  0
   25.5732  -20.2315  -15.9773 O   0  0  0  0  0  0  0  0  0  0  0  0
   19.4062  -22.6748  -11.3587 N   0  0  0  0  0  0  0  0  0  0  0  0
   19.0521  -22.9590  -12.7208 C   0  0  0  0  0  0  0  0  0  0  0  0
   18.1358  -23.8270  -12.9092 N   0  0  0  0  0  0  0  0  0  0  0  0
   19.6688  -22.3254  -13.8037 N   0  0  0  0  0  0  0  0  0  0  0  0
   20.8388  -21.4796  -13.6855 C   0  0  0  0  0  0  0  0  0  0  0  0
   20.7331  -20.3577  -14.6927 C   0  0  0  0  0  0  0  0  0  0  0  0
   22.0573  -19.6581  -14.8549 C   0  0  0  0  0  0  0  0  0  0  0  0
   22.5759  -19.6304  -16.2580 C   0  0  2  0  0  0  0  0  0  0  0  0
   23.7858  -18.8560  -16.3955 N   0  0  0  0  0  0  0  0  0  0  0  0
   21.5206  -19.0272  -17.1530 C   0  0  0  0  0  0  0  0  0  0  0  0
   21.1594  -17.8402  -16.9878 O   0  0  0  0  0  0  0  0  0  0  0  0
   20.9366  -19.7712  -18.1662 O   0  0  0  0  0  0  0  0  0  0  0  0
  2  1  1  0
  2  3  2  0
  4  2  1  0
  5  4  1  0
  5  6  1  1
  7  5  1  0
  7  9  1  0
  8  7  2  0
  9 13  1  0
 10  9  1  0
 10 11  1  0
 11 12  1  0
 13 12  1  0
 14 24  1  0
 13 14  1  6
 15 14  2  0
 17 16  1  0
 17 19  1  0
 18 17  2  0
 20 19  1  0
 21 22  1  0
 21 20  1  0
 23 22  1  1
 23 24  1  0
 25 23  1  0
 25 27  1  0
 26 25  2  0
M  END
$$$$
