NPR.pdb
     RDKit          3D

 27 27  0  0  1  0  0  0  0  0999 V2000
   13.0347  -11.1267  -10.0016 N   0  0  0  0  0  0  0  0  0  0  0  0
   14.3685  -11.4038  -10.3729 C   0  0  0  0  0  0  0  0  0  0  0  0
   14.9070  -12.5319  -10.2465 O   0  0  0  0  0  0  0  0  0  0  0  0
   15.2054  -10.3124  -10.9505 C   0  0  0  0  0  0  0  0  0  0  0  0
   14.4155   -9.0085  -11.0124 C   0  0  2  0  0  0  0  0  0  0  0  0
   13.3833   -9.1657  -12.0017 N   0  0  0  0  0  0  0  0  0  0  0  0
   15.3362   -7.8797  -11.3029 C   0  0  0  0  0  0  0  0  0  0  0  0
   15.4703   -7.6338  -12.5520 O   0  0  0  0  0  0  0  0  0  0  0  0
   16.0225   -7.1202  -10.3205 N   0  0  0  0  0  0  0  0  0  0  0  0
   16.0418   -7.3649   -8.9144 C   0  0  0  0  0  0  0  0  0  0  0  0
   16.7127   -6.1792   -8.2985 C   0  0  0  0  0  0  0  0  0  0  0  0
   16.6833   -5.1024   -9.3933 C   0  0  0  0  0  0  0  0  0  0  0  0
   16.8250   -5.9719  -10.6205 C   0  0  1  0  0  0  0  0  0  0  0  0
   18.2558   -6.2996  -10.8019 C   0  0  0  0  0  0  0  0  0  0  0  0
   18.8412   -6.9454   -9.9085 O   0  0  0  0  0  0  0  0  0  0  0  0
   19.9863  -11.2293  -16.8008 N   0  0  0  0  0  0  0  0  0  0  0  0
   18.9984  -11.2144  -15.7591 C   0  0  0  0  0  0  0  0  0  0  0  0
   18.1289  -12.1482  -15.7757 N   0  0  0  0  0  0  0  0  0  0  0  0
   18.9733  -10.2331  -14.7636 N   0  0  0  0  0  0  0  0  0  0  0  0
   19.9409   -9.1599  -14.6624 C   0  0  0  0  0  0  0  0  0  0  0  0
   19.6288   -8.3362  -13.4343 C   0  0  0  0  0  0  0  0  0  0  0  0
   20.5690   -7.1645  -13.3230 C   0  0  0  0  0  0  0  0  0  0  0  0
   20.3525   -6.3086  -12.1151 C   0  0  2  0  0  0  0  0  0  0  0  0
   18.9764   -5.9070  -11.9494 N   0  0  0  0  0  0  0  0  0  0  0  0
   21.1988   -5.0654  -12.2439 C   0  0  0  0  0  0  0  0  0  0  0  0
   20.6659   -3.9682  -12.5249 O   0  0  0  0  0  0  0  0  0  0  0  0
   22.5710   -5.1158  -12.0552 O   0  0  0  0  0  0  0  0  0  0  0  0
  2  1  1  0
  2  3  2  0
  4  2  1  0
  5  4  1  0
  5  6  1  6
  7  5  1  0
  7  9  1  0
  8  7  2  0
  9 13  1  0
 10  9  1  0
 10 11  1  0
 11 12  1  0
 13 12  1  0
 14 24  1  0
 13 14  1  1
 15 14  2  0
 17 16  1  0
 17 19  1  0
 18 17  2  0
 20 19  1  0
 21 22  1  0
 21 20  1  0
 23 22  1  6
 23 24  1  0
 25 23  1  0
 25 27  1  0
 26 25  2  0
M  END
$$$$
