NPR.pdb
     RDKit          3D

 27 27  0  0  1  0  0  0  0  0999 V2000
   27.9339  -16.6682  -21.8960 N   0  0  0  0  0  0  0  0  0  0  0  0
   27.9526  -16.6613  -20.4841 C   0  0  0  0  0  0  0  0  0  0  0  0
   28.6065  -15.8351  -19.7999 O   0  0  0  0  0  0  0  0  0  0  0  0
   27.1590  -17.6822  -19.7403 C   0  0  0  0  0  0  0  0  0  0  0  0
   27.8567  -18.0555  -18.4358 C   0  0  2  0  0  0  0  0  0  0  0  0
   28.7455  -19.1527  -18.7101 N   0  0  0  0  0  0  0  0  0  0  0  0
   26.8413  -18.3715  -17.3986 C   0  0  0  0  0  0  0  0  0  0  0  0
   26.6167  -19.6245  -17.2637 O   0  0  0  0  0  0  0  0  0  0  0  0
   26.1607  -17.4078  -16.6107 N   0  0  0  0  0  0  0  0  0  0  0  0
   26.2047  -15.9903  -16.7722 C   0  0  0  0  0  0  0  0  0  0  0  0
   25.5075  -15.4173  -15.5802 C   0  0  0  0  0  0  0  0  0  0  0  0
   25.4497  -16.5726  -14.5699 C   0  0  0  0  0  0  0  0  0  0  0  0
   25.2991  -17.7411  -15.5156 C   0  0  1  0  0  0  0  0  0  0  0  0
   23.8778  -17.8458  -15.9109 C   0  0  0  0  0  0  0  0  0  0  0  0
   23.4153  -17.0095  -16.7138 O   0  0  0  0  0  0  0  0  0  0  0  0
   19.2198  -23.5677  -13.4786 N   0  0  0  0  0  0  0  0  0  0  0  0
   18.4123  -22.4447  -13.0937 C   0  0  0  0  0  0  0  0  0  0  0  0
   17.1474  -22.6134  -13.1045 N   0  0  0  0  0  0  0  0  0  0  0  0
   18.9655  -21.2163  -12.7202 N   0  0  0  0  0  0  0  0  0  0  0  0
   19.3824  -20.1981  -13.6624 C   0  0  0  0  0  0  0  0  0  0  0  0
   20.8302  -20.4340  -14.0264 C   0  0  0  0  0  0  0  0  0  0  0  0
   21.0402  -20.2821  -15.5103 C   0  0  0  0  0  0  0  0  0  0  0  0
   21.6872  -18.9955  -15.9162 C   0  0  2  0  0  0  0  0  0  0  0  0
   23.0321  -18.8583  -15.4113 N   0  0  0  0  0  0  0  0  0  0  0  0
   20.8607  -17.8490  -15.3863 C   0  0  0  0  0  0  0  0  0  0  0  0
   19.8396  -17.4717  -16.0040 O   0  0  0  0  0  0  0  0  0  0  0  0
   21.2150  -17.1979  -14.2152 O   0  0  0  0  0  0  0  0  0  0  0  0
  2  1  1  0
  2  3  2  0
  4  2  1  0
  5  4  1  0
  5  6  1  6
  7  5  1  0
  7  9  1  0
  8  7  2  0
  9 13  1  0
 10  9  1  0
 10 11  1  0
 11 12  1  0
 13 12  1  0
 14 24  1  0
 13 14  1  6
 15 14  2  0
 17 16  1  0
 17 19  1  0
 18 17  2  0
 20 19  1  0
 21 22  1  0
 21 20  1  0
 23 22  1  1
 23 24  1  0
 25 23  1  0
 25 27  1  0
 26 25  2  0
M  END
$$$$
