NPR.pdb
     RDKit          3D

 27 27  0  0  1  0  0  0  0  0999 V2000
   28.3674  -19.9036   -9.1583 N   0  0  0  0  0  0  0  0  0  0  0  0
   27.5908  -20.2879   -8.0434 C   0  0  0  0  0  0  0  0  0  0  0  0
   28.0722  -20.5257   -6.9075 O   0  0  0  0  0  0  0  0  0  0  0  0
   26.1134  -20.4256   -8.1976 C   0  0  0  0  0  0  0  0  0  0  0  0
   25.6441  -19.7467   -9.4808 C   0  0  2  0  0  0  0  0  0  0  0  0
   25.9200  -18.3401   -9.3609 N   0  0  0  0  0  0  0  0  0  0  0  0
   24.2061  -20.0429   -9.7059 C   0  0  0  0  0  0  0  0  0  0  0  0
   23.4224  -19.4283   -8.9016 O   0  0  0  0  0  0  0  0  0  0  0  0
   23.7054  -20.9175  -10.7045 N   0  0  0  0  0  0  0  0  0  0  0  0
   24.4752  -21.7484  -11.5731 C   0  0  0  0  0  0  0  0  0  0  0  0
   23.5127  -22.3022  -12.5743 C   0  0  0  0  0  0  0  0  0  0  0  0
   22.2688  -21.4092  -12.4545 C   0  0  0  0  0  0  0  0  0  0  0  0
   22.3105  -21.0981  -10.9767 C   0  0  1  0  0  0  0  0  0  0  0  0
   21.7216  -22.2371  -10.2396 C   0  0  0  0  0  0  0  0  0  0  0  0
   22.3491  -23.3154  -10.2009 O   0  0  0  0  0  0  0  0  0  0  0  0
   14.8735  -23.3307   -4.3129 N   0  0  0  0  0  0  0  0  0  0  0  0
   15.6441  -24.5314   -4.4738 C   0  0  0  0  0  0  0  0  0  0  0  0
   15.2922  -25.5402   -3.7760 N   0  0  0  0  0  0  0  0  0  0  0  0
   16.7314  -24.6129   -5.3488 N   0  0  0  0  0  0  0  0  0  0  0  0
   17.2462  -23.4895   -6.1046 C   0  0  0  0  0  0  0  0  0  0  0  0
   18.3073  -23.9885   -7.0581 C   0  0  0  0  0  0  0  0  0  0  0  0
   18.8904  -22.8495   -7.8530 C   0  0  0  0  0  0  0  0  0  0  0  0
   19.9925  -23.2442   -8.7847 C   0  0  2  0  0  0  0  0  0  0  0  0
   20.4778  -22.1427   -9.5807 N   0  0  0  0  0  0  0  0  0  0  0  0
   19.4791  -24.3149   -9.7167 C   0  0  0  0  0  0  0  0  0  0  0  0
   18.9026  -23.9981  -10.7816 O   0  0  0  0  0  0  0  0  0  0  0  0
   19.6353  -25.6580   -9.4124 O   0  0  0  0  0  0  0  0  0  0  0  0
  2  1  1  0
  2  3  2  0
  4  2  1  0
  5  4  1  0
  5  6  1  1
  7  5  1  0
  7  9  1  0
  8  7  2  0
  9 13  1  0
 10  9  1  0
 10 11  1  0
 11 12  1  0
 13 12  1  0
 14 24  1  0
 13 14  1  1
 15 14  2  0
 17 16  1  0
 17 19  1  0
 18 17  2  0
 20 19  1  0
 21 22  1  0
 21 20  1  0
 23 22  1  1
 23 24  1  0
 25 23  1  0
 25 27  1  0
 26 25  2  0
M  END
$$$$
