NPR.pdb
     RDKit          3D

 27 27  0  0  1  0  0  0  0  0999 V2000
   21.7828  -16.7026  -16.6100 N   0  0  0  0  0  0  0  0  0  0  0  0
   22.5030  -17.3678  -15.5938 C   0  0  0  0  0  0  0  0  0  0  0  0
   23.1711  -16.7743  -14.7106 O   0  0  0  0  0  0  0  0  0  0  0  0
   22.4848  -18.8586  -15.5448 C   0  0  0  0  0  0  0  0  0  0  0  0
   23.9008  -19.4148  -15.6613 C   0  0  2  0  0  0  0  0  0  0  0  0
   24.3772  -19.1316  -16.9886 N   0  0  0  0  0  0  0  0  0  0  0  0
   23.8962  -20.8648  -15.3391 C   0  0  0  0  0  0  0  0  0  0  0  0
   23.6420  -21.6144  -16.3453 O   0  0  0  0  0  0  0  0  0  0  0  0
   24.1439  -21.4101  -14.0530 N   0  0  0  0  0  0  0  0  0  0  0  0
   24.3986  -20.6805  -12.8529 C   0  0  0  0  0  0  0  0  0  0  0  0
   24.8079  -21.6941  -11.8329 C   0  0  0  0  0  0  0  0  0  0  0  0
   25.1586  -22.9477  -12.6480 C   0  0  0  0  0  0  0  0  0  0  0  0
   24.1613  -22.8155  -13.7750 C   0  0  1  0  0  0  0  0  0  0  0  0
   22.8544  -23.3276  -13.3090 C   0  0  0  0  0  0  0  0  0  0  0  0
   22.7470  -24.5420  -13.0413 O   0  0  0  0  0  0  0  0  0  0  0  0
   19.0603  -24.5783   -6.2618 N   0  0  0  0  0  0  0  0  0  0  0  0
   18.1358  -24.8241   -7.3325 C   0  0  0  0  0  0  0  0  0  0  0  0
   17.2539  -25.7255   -7.1372 N   0  0  0  0  0  0  0  0  0  0  0  0
   18.1816  -24.1196   -8.5391 N   0  0  0  0  0  0  0  0  0  0  0  0
   19.3995  -23.8673   -9.2817 C   0  0  0  0  0  0  0  0  0  0  0  0
   19.0676  -23.0226  -10.4903 C   0  0  0  0  0  0  0  0  0  0  0  0
   20.3235  -22.5176  -11.1510 C   0  0  0  0  0  0  0  0  0  0  0  0
   20.5216  -22.9974  -12.5543 C   0  0  2  0  0  0  0  0  0  0  0  0
   21.7302  -22.4891  -13.1573 N   0  0  0  0  0  0  0  0  0  0  0  0
   19.3476  -22.5486  -13.3903 C   0  0  0  0  0  0  0  0  0  0  0  0
   19.3239  -21.3939  -13.8727 O   0  0  0  0  0  0  0  0  0  0  0  0
   18.2825  -23.4005  -13.6367 O   0  0  0  0  0  0  0  0  0  0  0  0
  2  1  1  0
  2  3  2  0
  4  2  1  0
  5  4  1  0
  5  6  1  6
  7  5  1  0
  7  9  1  0
  8  7  2  0
  9 13  1  0
 10  9  1  0
 10 11  1  0
 11 12  1  0
 13 12  1  0
 14 24  1  0
 13 14  1  1
 15 14  2  0
 17 16  1  0
 17 19  1  0
 18 17  2  0
 20 19  1  0
 21 22  1  0
 21 20  1  0
 23 22  1  1
 23 24  1  0
 25 23  1  0
 25 27  1  0
 26 25  2  0
M  END
$$$$
