DPM.pdb
     RDKit          3D

 24 24  0  0  1  0  0  0  0  0999 V2000
   22.3260  -21.2439  -14.2450 N   0  0  0  0  0  0  0  0  0  0  0  0
   21.9229  -19.9355  -14.7213 C   0  0  1  0  0  0  0  0  0  0  0  0
   21.7678  -19.0761  -13.4743 C   0  0  0  0  0  0  0  0  0  0  0  0
   20.6513  -19.6258  -12.6731 C   0  0  0  0  0  0  0  0  0  0  0  0
   19.9210  -20.5258  -13.1364 O   0  0  0  0  0  0  0  0  0  0  0  0
   22.9700  -19.3289  -15.6246 C   0  0  0  0  0  0  0  0  0  0  0  0
   24.0979  -19.2196  -15.0796 O   0  0  0  0  0  0  0  0  0  0  0  0
   20.3898  -19.1573  -11.3943 O   0  0  0  0  0  0  0  0  0  0  0  0
   22.6677  -18.9426  -16.9304 N   0  0  0  0  0  0  0  0  0  0  0  0
   21.5312  -19.5444  -17.6811 C   0  0  0  0  0  0  0  0  0  0  0  0
   20.8548  -18.3088  -18.1757 C   0  0  0  0  0  0  0  0  0  0  0  0
   21.9158  -17.2173  -18.2011 C   0  0  0  0  0  0  0  0  0  0  0  0
   23.1793  -18.0239  -17.8755 C   0  0  1  0  0  0  0  0  0  0  0  0
   24.2968  -17.1707  -17.5439 C   0  0  0  0  0  0  0  0  0  0  0  0
   24.2639  -16.3344  -16.6259 O   0  0  0  0  0  0  0  0  0  0  0  0
   32.0584  -15.8249  -17.3941 C   0  0  0  0  0  0  0  0  0  0  0  0
   30.6897  -16.9599  -17.7557 S   0  0  0  0  0  0  0  0  0  0  0  0
   29.0973  -16.1098  -17.7612 C   0  0  0  0  0  0  0  0  0  0  0  0
   27.9490  -17.0498  -17.9878 C   0  0  0  0  0  0  0  0  0  0  0  0
   26.6505  -16.3387  -18.0032 C   0  0  2  0  0  0  0  0  0  0  0  0
   25.5368  -17.2365  -18.2666 N   0  0  0  0  0  0  0  0  0  0  0  0
   26.6595  -15.1900  -18.9048 C   0  0  0  0  0  0  0  0  0  0  0  0
   26.6177  -14.0296  -18.3460 O   0  0  0  0  0  0  0  0  0  0  0  0
   26.7094  -15.1821  -20.2697 O   0  0  0  0  0  0  0  0  0  0  0  0
  2  1  1  1
  2  3  1  0
  3  4  1  0
  4  8  1  0
  5  4  2  0
  6  7  2  0
  6  2  1  0
  9  6  1  0
 10  9  1  0
 11 10  1  0
 12 11  1  0
 12 13  1  0
 13 14  1  1
 13  9  1  0
 14 21  1  0
 15 14  2  0
 17 16  1  0
 17 18  1  0
 19 18  1  0
 20 19  1  6
 21 20  1  0
 22 24  1  0
 22 20  1  0
 23 22  2  0
M  END
$$$$
