DPM.pdb
     RDKit          3D

 24 24  0  0  1  0  0  0  0  0999 V2000
   24.5525  -22.2523  -16.5352 N   0  0  0  0  0  0  0  0  0  0  0  0
   24.7136  -21.1540  -15.6030 C   0  0  1  0  0  0  0  0  0  0  0  0
   23.3020  -20.7388  -15.2121 C   0  0  0  0  0  0  0  0  0  0  0  0
   22.6320  -20.1979  -16.4160 C   0  0  0  0  0  0  0  0  0  0  0  0
   22.8724  -19.0377  -16.8085 O   0  0  0  0  0  0  0  0  0  0  0  0
   25.4729  -21.5819  -14.3699 C   0  0  0  0  0  0  0  0  0  0  0  0
   24.9820  -22.5931  -13.8062 O   0  0  0  0  0  0  0  0  0  0  0  0
   21.7251  -20.9625  -17.1344 O   0  0  0  0  0  0  0  0  0  0  0  0
   26.6043  -20.8906  -13.9368 N   0  0  0  0  0  0  0  0  0  0  0  0
   27.6045  -20.3473  -14.8971 C   0  0  0  0  0  0  0  0  0  0  0  0
   27.7291  -18.9490  -14.3891 C   0  0  0  0  0  0  0  0  0  0  0  0
   27.3083  -18.9827  -12.9263 C   0  0  0  0  0  0  0  0  0  0  0  0
   27.1536  -20.4914  -12.6967 C   0  0  1  0  0  0  0  0  0  0  0  0
   26.4686  -20.7840  -11.4589 C   0  0  0  0  0  0  0  0  0  0  0  0
   25.2358  -20.7035  -11.3294 O   0  0  0  0  0  0  0  0  0  0  0  0
   29.4028  -20.1771   -5.0288 C   0  0  0  0  0  0  0  0  0  0  0  0
   28.0243  -19.1408   -5.5929 S   0  0  0  0  0  0  0  0  0  0  0  0
   26.9203  -20.0397   -6.7028 C   0  0  0  0  0  0  0  0  0  0  0  0
   27.5250  -20.2531   -8.0602 C   0  0  0  0  0  0  0  0  0  0  0  0
   26.6368  -21.0464   -8.9398 C   0  0  2  0  0  0  0  0  0  0  0  0
   27.1816  -21.1930  -10.2805 N   0  0  0  0  0  0  0  0  0  0  0  0
   25.2692  -20.5345   -8.9518 C   0  0  0  0  0  0  0  0  0  0  0  0
   24.4180  -21.1723   -8.2244 O   0  0  0  0  0  0  0  0  0  0  0  0
   24.7702  -19.4613   -9.6335 O   0  0  0  0  0  0  0  0  0  0  0  0
  2  1  1  6
  2  3  1  0
  3  4  1  0
  4  8  1  0
  5  4  2  0
  6  7  2  0
  6  2  1  0
  9  6  1  0
 10  9  1  0
 11 10  1  0
 12 11  1  0
 12 13  1  0
 13 14  1  1
 13  9  1  0
 14 21  1  0
 15 14  2  0
 17 16  1  0
 17 18  1  0
 19 18  1  0
 20 19  1  1
 21 20  1  0
 22 24  1  0
 22 20  1  0
 23 22  2  0
M  END
$$$$
