DPM.pdb
     RDKit          3D

 24 24  0  0  1  0  0  0  0  0999 V2000
   25.6693  -23.0092  -16.5755 N   0  0  0  0  0  0  0  0  0  0  0  0
   24.9730  -22.3345  -15.4979 C   0  0  1  0  0  0  0  0  0  0  0  0
   23.7676  -23.2080  -15.1794 C   0  0  0  0  0  0  0  0  0  0  0  0
   22.5511  -22.3731  -15.2966 C   0  0  0  0  0  0  0  0  0  0  0  0
   22.5814  -21.1620  -14.9959 O   0  0  0  0  0  0  0  0  0  0  0  0
   25.8432  -22.2090  -14.2701 C   0  0  0  0  0  0  0  0  0  0  0  0
   25.8267  -23.2319  -13.5390 O   0  0  0  0  0  0  0  0  0  0  0  0
   21.3533  -22.9123  -15.7412 O   0  0  0  0  0  0  0  0  0  0  0  0
   26.5762  -21.0502  -14.0143 N   0  0  0  0  0  0  0  0  0  0  0  0
   27.1840  -20.2501  -15.1135 C   0  0  0  0  0  0  0  0  0  0  0  0
   26.7072  -18.8846  -14.7437 C   0  0  0  0  0  0  0  0  0  0  0  0
   26.4212  -18.9178  -13.2488 C   0  0  0  0  0  0  0  0  0  0  0  0
   26.9579  -20.3053  -12.8748 C   0  0  1  0  0  0  0  0  0  0  0  0
   26.5370  -20.7114  -11.5538 C   0  0  0  0  0  0  0  0  0  0  0  0
   25.4020  -21.1526  -11.3083 O   0  0  0  0  0  0  0  0  0  0  0  0
   28.0404  -20.0805   -3.7499 C   0  0  0  0  0  0  0  0  0  0  0  0
   28.4707  -19.6100   -5.4486 S   0  0  0  0  0  0  0  0  0  0  0  0
   27.4136  -20.4312   -6.6599 C   0  0  0  0  0  0  0  0  0  0  0  0
   27.8364  -20.1474   -8.0721 C   0  0  0  0  0  0  0  0  0  0  0  0
   26.9665  -20.8322   -9.0550 C   0  0  2  0  0  0  0  0  0  0  0  0
   27.4188  -20.6292  -10.4225 N   0  0  0  0  0  0  0  0  0  0  0  0
   25.5580  -20.4877   -8.8819 C   0  0  0  0  0  0  0  0  0  0  0  0
   25.1859  -19.3560   -9.3733 O   0  0  0  0  0  0  0  0  0  0  0  0
   24.5761  -21.2112   -8.2672 O   0  0  0  0  0  0  0  0  0  0  0  0
  2  1  1  6
  2  3  1  0
  3  4  1  0
  4  8  1  0
  5  4  2  0
  6  7  2  0
  6  2  1  0
  9  6  1  0
 10  9  1  0
 11 10  1  0
 12 11  1  0
 12 13  1  0
 13 14  1  1
 13  9  1  0
 14 21  1  0
 15 14  2  0
 17 16  1  0
 17 18  1  0
 19 18  1  0
 20 19  1  1
 21 20  1  0
 22 24  1  0
 22 20  1  0
 23 22  2  0
M  END
$$$$
