DPM.pdb
     RDKit          3D

 24 24  0  0  1  0  0  0  0  0999 V2000
   25.9818  -19.0846  -17.3682 N   0  0  0  0  0  0  0  0  0  0  0  0
   26.4409  -19.1052  -15.9934 C   0  0  1  0  0  0  0  0  0  0  0  0
   26.3978  -17.6571  -15.5258 C   0  0  0  0  0  0  0  0  0  0  0  0
   27.3962  -16.8922  -16.3061 C   0  0  0  0  0  0  0  0  0  0  0  0
   28.4840  -17.4127  -16.6280 O   0  0  0  0  0  0  0  0  0  0  0  0
   25.5375  -19.9439  -15.1210 C   0  0  0  0  0  0  0  0  0  0  0  0
   24.3216  -19.6403  -15.2230 O   0  0  0  0  0  0  0  0  0  0  0  0
   27.1495  -15.5847  -16.6972 O   0  0  0  0  0  0  0  0  0  0  0  0
   26.0490  -20.9471  -14.2979 N   0  0  0  0  0  0  0  0  0  0  0  0
   27.3486  -21.6126  -14.5906 C   0  0  0  0  0  0  0  0  0  0  0  0
   28.0096  -21.5042  -13.2564 C   0  0  0  0  0  0  0  0  0  0  0  0
   26.8922  -21.3668  -12.2316 C   0  0  0  0  0  0  0  0  0  0  0  0
   25.6552  -21.6012  -13.1079 C   0  0  1  0  0  0  0  0  0  0  0  0
   24.4337  -21.2297  -12.4321 C   0  0  0  0  0  0  0  0  0  0  0  0
   24.4142  -20.6675  -11.3246 O   0  0  0  0  0  0  0  0  0  0  0  0
   21.7282  -20.2286   -8.9221 C   0  0  0  0  0  0  0  0  0  0  0  0
   20.7845  -18.8857   -9.6956 S   0  0  0  0  0  0  0  0  0  0  0  0
   20.6667  -19.0932  -11.4850 C   0  0  0  0  0  0  0  0  0  0  0  0
   21.9535  -19.5749  -12.0897 C   0  0  0  0  0  0  0  0  0  0  0  0
   21.9042  -21.0195  -12.4099 C   0  0  2  0  0  0  0  0  0  0  0  0
   23.1435  -21.4912  -13.0077 N   0  0  0  0  0  0  0  0  0  0  0  0
   20.7354  -21.3688  -13.2126 C   0  0  0  0  0  0  0  0  0  0  0  0
   20.9179  -21.4235  -14.4871 O   0  0  0  0  0  0  0  0  0  0  0  0
   19.4676  -21.6497  -12.7892 O   0  0  0  0  0  0  0  0  0  0  0  0
  2  1  1  6
  2  3  1  0
  3  4  1  0
  4  8  1  0
  5  4  2  0
  6  7  2  0
  6  2  1  0
  9  6  1  0
 10  9  1  0
 11 10  1  0
 12 11  1  0
 12 13  1  0
 13 14  1  1
 13  9  1  0
 14 21  1  0
 15 14  2  0
 17 16  1  0
 17 18  1  0
 19 18  1  0
 20 19  1  6
 21 20  1  0
 22 24  1  0
 22 20  1  0
 23 22  2  0
M  END
$$$$
