DPM.pdb
     RDKit          3D

 24 24  0  0  1  0  0  0  0  0999 V2000
   16.7209  -24.7206    2.8903 N   0  0  0  0  0  0  0  0  0  0  0  0
   16.0365  -23.6702    3.6180 C   0  0  1  0  0  0  0  0  0  0  0  0
   15.7962  -24.2289    5.0136 C   0  0  0  0  0  0  0  0  0  0  0  0
   14.7267  -25.2480    4.9228 C   0  0  0  0  0  0  0  0  0  0  0  0
   14.0189  -25.3354    3.8984 O   0  0  0  0  0  0  0  0  0  0  0  0
   16.8814  -22.4222    3.7132 C   0  0  0  0  0  0  0  0  0  0  0  0
   18.0172  -22.6244    4.2136 O   0  0  0  0  0  0  0  0  0  0  0  0
   14.4852  -26.1268    5.9681 O   0  0  0  0  0  0  0  0  0  0  0  0
   16.4047  -21.1867    3.2752 N   0  0  0  0  0  0  0  0  0  0  0  0
   15.6489  -21.0472    1.9997 C   0  0  0  0  0  0  0  0  0  0  0  0
   14.4723  -20.2591    2.4723 C   0  0  0  0  0  0  0  0  0  0  0  0
   14.9191  -19.5313    3.7327 C   0  0  0  0  0  0  0  0  0  0  0  0
   16.4188  -19.8535    3.7457 C   0  0  1  0  0  0  0  0  0  0  0  0
   17.0330  -19.5249    5.0112 C   0  0  0  0  0  0  0  0  0  0  0  0
   16.7664  -20.1177    6.0698 O   0  0  0  0  0  0  0  0  0  0  0  0
   23.0613  -16.7580    9.2224 C   0  0  0  0  0  0  0  0  0  0  0  0
   22.3974  -17.3022    7.6239 S   0  0  0  0  0  0  0  0  0  0  0  0
   20.5937  -17.3755    7.6370 C   0  0  0  0  0  0  0  0  0  0  0  0
   20.0327  -17.8668    6.3341 C   0  0  0  0  0  0  0  0  0  0  0  0
   18.5661  -18.0569    6.4032 C   0  0  2  0  0  0  0  0  0  0  0  0
   18.0067  -18.4748    5.1272 N   0  0  0  0  0  0  0  0  0  0  0  0
   17.8819  -16.8887    6.9506 C   0  0  0  0  0  0  0  0  0  0  0  0
   18.0601  -16.6635    8.2068 O   0  0  0  0  0  0  0  0  0  0  0  0
   17.0757  -15.9961    6.3034 O   0  0  0  0  0  0  0  0  0  0  0  0
  2  1  1  6
  2  3  1  0
  3  4  1  0
  4  8  1  0
  5  4  2  0
  6  7  2  0
  6  2  1  0
  9  6  1  0
 10  9  1  0
 11 10  1  0
 12 11  1  0
 12 13  1  0
 13 14  1  1
 13  9  1  0
 14 21  1  0
 15 14  2  0
 17 16  1  0
 17 18  1  0
 19 18  1  0
 20 19  1  6
 21 20  1  0
 22 24  1  0
 22 20  1  0
 23 22  2  0
M  END
$$$$
