DPM.pdb
     RDKit          3D

 24 24  0  0  1  0  0  0  0  0999 V2000
   23.2198  -19.4511  -17.8569 N   0  0  0  0  0  0  0  0  0  0  0  0
   24.1239  -18.6755  -17.0309 C   0  0  1  0  0  0  0  0  0  0  0  0
   23.3414  -17.4358  -16.6204 C   0  0  0  0  0  0  0  0  0  0  0  0
   23.4973  -16.4202  -17.6857 C   0  0  0  0  0  0  0  0  0  0  0  0
   24.2615  -16.6254  -18.6511 O   0  0  0  0  0  0  0  0  0  0  0  0
   24.5400  -19.4406  -15.7972 C   0  0  0  0  0  0  0  0  0  0  0  0
   23.5689  -19.8436  -15.1077 O   0  0  0  0  0  0  0  0  0  0  0  0
   22.8018  -15.2213  -17.6385 O   0  0  0  0  0  0  0  0  0  0  0  0
   25.8846  -19.6541  -15.4937 N   0  0  0  0  0  0  0  0  0  0  0  0
   26.9037  -19.8632  -16.5592 C   0  0  0  0  0  0  0  0  0  0  0  0
   27.9476  -18.8886  -16.1241 C   0  0  0  0  0  0  0  0  0  0  0  0
   27.7437  -18.6769  -14.6303 C   0  0  0  0  0  0  0  0  0  0  0  0
   26.6747  -19.7335  -14.3239 C   0  0  1  0  0  0  0  0  0  0  0  0
   26.0824  -19.5432  -13.0201 C   0  0  0  0  0  0  0  0  0  0  0  0
   25.1153  -18.7907  -12.8167 O   0  0  0  0  0  0  0  0  0  0  0  0
   21.1711  -20.9100   -7.9413 C   0  0  0  0  0  0  0  0  0  0  0  0
   22.1445  -21.3286   -9.4142 S   0  0  0  0  0  0  0  0  0  0  0  0
   23.8032  -20.6195   -9.3454 C   0  0  0  0  0  0  0  0  0  0  0  0
   24.5347  -20.7505  -10.6498 C   0  0  0  0  0  0  0  0  0  0  0  0
   25.9028  -20.1901  -10.5722 C   0  0  2  0  0  0  0  0  0  0  0  0
   26.5827  -20.2234  -11.8576 N   0  0  0  0  0  0  0  0  0  0  0  0
   26.6945  -20.8082   -9.5121 C   0  0  0  0  0  0  0  0  0  0  0  0
   27.2636  -21.9261   -9.8070 O   0  0  0  0  0  0  0  0  0  0  0  0
   26.9156  -20.3545   -8.2429 O   0  0  0  0  0  0  0  0  0  0  0  0
  2  1  1  6
  2  3  1  0
  3  4  1  0
  4  8  1  0
  5  4  2  0
  6  7  2  0
  6  2  1  0
  9  6  1  0
 10  9  1  0
 11 10  1  0
 12 11  1  0
 12 13  1  0
 13 14  1  1
 13  9  1  0
 14 21  1  0
 15 14  2  0
 17 16  1  0
 17 18  1  0
 19 18  1  0
 20 19  1  6
 21 20  1  0
 22 24  1  0
 22 20  1  0
 23 22  2  0
M  END
$$$$
