DPM.pdb
     RDKit          3D

 24 24  0  0  1  0  0  0  0  0999 V2000
   29.1931  -23.6177  -18.0688 N   0  0  0  0  0  0  0  0  0  0  0  0
   28.1946  -22.5686  -18.0067 C   0  0  1  0  0  0  0  0  0  0  0  0
   26.9436  -23.1562  -18.6450 C   0  0  0  0  0  0  0  0  0  0  0  0
   26.1073  -22.0366  -19.1328 C   0  0  0  0  0  0  0  0  0  0  0  0
   26.5459  -21.2446  -19.9920 O   0  0  0  0  0  0  0  0  0  0  0  0
   27.8949  -22.1739  -16.5802 C   0  0  0  0  0  0  0  0  0  0  0  0
   27.4617  -23.1236  -15.8792 O   0  0  0  0  0  0  0  0  0  0  0  0
   24.8222  -21.8404  -18.6500 O   0  0  0  0  0  0  0  0  0  0  0  0
   28.0953  -20.8690  -16.1299 N   0  0  0  0  0  0  0  0  0  0  0  0
   29.1211  -19.9792  -16.7412 C   0  0  0  0  0  0  0  0  0  0  0  0
   28.3024  -18.7538  -16.9796 C   0  0  0  0  0  0  0  0  0  0  0  0
   27.1421  -18.8123  -15.9957 C   0  0  0  0  0  0  0  0  0  0  0  0
   27.5370  -20.0246  -15.1429 C   0  0  1  0  0  0  0  0  0  0  0  0
   26.4467  -20.4818  -14.3127 C   0  0  0  0  0  0  0  0  0  0  0  0
   25.4101  -20.9895  -14.7718 O   0  0  0  0  0  0  0  0  0  0  0  0
   23.4866  -21.2447   -6.9232 C   0  0  0  0  0  0  0  0  0  0  0  0
   24.8334  -20.6351   -7.9752 S   0  0  0  0  0  0  0  0  0  0  0  0
   24.5758  -21.0639   -9.7098 C   0  0  0  0  0  0  0  0  0  0  0  0
   25.6863  -20.5701  -10.5910 C   0  0  0  0  0  0  0  0  0  0  0  0
   25.4139  -20.8374  -12.0215 C   0  0  2  0  0  0  0  0  0  0  0  0
   26.4933  -20.3763  -12.8806 N   0  0  0  0  0  0  0  0  0  0  0  0
   24.1139  -20.3227  -12.4427 C   0  0  0  0  0  0  0  0  0  0  0  0
   24.1053  -19.1266  -12.9222 O   0  0  0  0  0  0  0  0  0  0  0  0
   22.8991  -20.9454  -12.3984 O   0  0  0  0  0  0  0  0  0  0  0  0
  2  1  1  1
  2  3  1  0
  3  4  1  0
  4  8  1  0
  5  4  2  0
  6  7  2  0
  6  2  1  0
  9  6  1  0
 10  9  1  0
 11 10  1  0
 12 11  1  0
 12 13  1  0
 13 14  1  6
 13  9  1  0
 14 21  1  0
 15 14  2  0
 17 16  1  0
 17 18  1  0
 19 18  1  0
 20 19  1  1
 21 20  1  0
 22 24  1  0
 22 20  1  0
 23 22  2  0
M  END
$$$$
