DPM.pdb
     RDKit          3D

 24 24  0  0  1  0  0  0  0  0999 V2000
   21.1900  -21.6424  -14.2016 N   0  0  0  0  0  0  0  0  0  0  0  0
   21.6229  -20.4253  -13.5440 C   0  0  1  0  0  0  0  0  0  0  0  0
   20.3709  -19.8350  -12.9102 C   0  0  0  0  0  0  0  0  0  0  0  0
   20.1010  -18.5301  -13.5545 C   0  0  0  0  0  0  0  0  0  0  0  0
   20.4435  -18.3234  -14.7368 O   0  0  0  0  0  0  0  0  0  0  0  0
   22.6453  -20.7104  -12.4699 C   0  0  0  0  0  0  0  0  0  0  0  0
   22.3235  -20.2595  -11.3410 O   0  0  0  0  0  0  0  0  0  0  0  0
   19.4642  -17.5096  -12.8645 O   0  0  0  0  0  0  0  0  0  0  0  0
   23.8187  -21.4103  -12.7509 N   0  0  0  0  0  0  0  0  0  0  0  0
   23.8855  -22.4185  -13.8448 C   0  0  0  0  0  0  0  0  0  0  0  0
   25.1192  -21.9632  -14.5515 C   0  0  0  0  0  0  0  0  0  0  0  0
   25.9402  -21.1887  -13.5298 C   0  0  0  0  0  0  0  0  0  0  0  0
   25.1393  -21.4479  -12.2474 C   0  0  1  0  0  0  0  0  0  0  0  0
   25.5426  -20.5738  -11.1703 C   0  0  0  0  0  0  0  0  0  0  0  0
   25.4860  -19.3350  -11.2434 O   0  0  0  0  0  0  0  0  0  0  0  0
   28.9858  -18.7237   -4.3871 C   0  0  0  0  0  0  0  0  0  0  0  0
   27.8330  -19.8448   -5.2275 S   0  0  0  0  0  0  0  0  0  0  0  0
   28.0864  -19.8506   -7.0149 C   0  0  0  0  0  0  0  0  0  0  0  0
   26.9944  -20.5784   -7.7440 C   0  0  0  0  0  0  0  0  0  0  0  0
   27.1559  -20.4843   -9.2126 C   0  0  2  0  0  0  0  0  0  0  0  0
   26.0429  -21.0905   -9.9265 N   0  0  0  0  0  0  0  0  0  0  0  0
   28.4465  -20.9992   -9.6615 C   0  0  0  0  0  0  0  0  0  0  0  0
   29.2991  -20.1208  -10.0642 O   0  0  0  0  0  0  0  0  0  0  0  0
   28.8736  -22.2957   -9.7088 O   0  0  0  0  0  0  0  0  0  0  0  0
  2  1  1  1
  2  3  1  0
  3  4  1  0
  4  8  1  0
  5  4  2  0
  6  7  2  0
  6  2  1  0
  9  6  1  0
 10  9  1  0
 11 10  1  0
 12 11  1  0
 12 13  1  0
 13 14  1  1
 13  9  1  0
 14 21  1  0
 15 14  2  0
 17 16  1  0
 17 18  1  0
 19 18  1  0
 20 19  1  1
 21 20  1  0
 22 24  1  0
 22 20  1  0
 23 22  2  0
M  END
$$$$
