DPM.pdb
     RDKit          3D

 24 24  0  0  1  0  0  0  0  0999 V2000
   28.1894  -23.6241  -17.1238 N   0  0  0  0  0  0  0  0  0  0  0  0
   27.8862  -22.2114  -17.2411 C   0  0  1  0  0  0  0  0  0  0  0  0
   27.3476  -22.0244  -18.6527 C   0  0  0  0  0  0  0  0  0  0  0  0
   28.4632  -22.2362  -19.6021 C   0  0  0  0  0  0  0  0  0  0  0  0
   29.4114  -21.4264  -19.6576 O   0  0  0  0  0  0  0  0  0  0  0  0
   26.8379  -21.7857  -16.2410 C   0  0  0  0  0  0  0  0  0  0  0  0
   25.9499  -22.6546  -16.0471 O   0  0  0  0  0  0  0  0  0  0  0  0
   28.4830  -23.3338  -20.4494 O   0  0  0  0  0  0  0  0  0  0  0  0
   26.8916  -20.5388  -15.6181 N   0  0  0  0  0  0  0  0  0  0  0  0
   28.1848  -19.9224  -15.2114 C   0  0  0  0  0  0  0  0  0  0  0  0
   28.0253  -18.5584  -15.7969 C   0  0  0  0  0  0  0  0  0  0  0  0
   26.5277  -18.3193  -15.9310 C   0  0  0  0  0  0  0  0  0  0  0  0
   25.9648  -19.5516  -15.2116 C   0  0  1  0  0  0  0  0  0  0  0  0
   24.5512  -19.7229  -15.4551 C   0  0  0  0  0  0  0  0  0  0  0  0
   24.0639  -19.8098  -16.5944 O   0  0  0  0  0  0  0  0  0  0  0  0
   20.2677  -24.2083  -13.3744 C   0  0  0  0  0  0  0  0  0  0  0  0
   19.4899  -22.6187  -12.9740 S   0  0  0  0  0  0  0  0  0  0  0  0
   20.1590  -21.2738  -13.9751 C   0  0  0  0  0  0  0  0  0  0  0  0
   21.6035  -21.0002  -13.6717 C   0  0  0  0  0  0  0  0  0  0  0  0
   22.1789  -19.9955  -14.5943 C   0  0  2  0  0  0  0  0  0  0  0  0
   23.6045  -19.8048  -14.3774 N   0  0  0  0  0  0  0  0  0  0  0  0
   21.4424  -18.7347  -14.5685 C   0  0  0  0  0  0  0  0  0  0  0  0
   21.8894  -17.8327  -13.7640 O   0  0  0  0  0  0  0  0  0  0  0  0
   20.3379  -18.3815  -15.2900 O   0  0  0  0  0  0  0  0  0  0  0  0
  2  1  1  1
  2  3  1  0
  3  4  1  0
  4  8  1  0
  5  4  2  0
  6  7  2  0
  6  2  1  0
  9  6  1  0
 10  9  1  0
 11 10  1  0
 12 11  1  0
 12 13  1  0
 13 14  1  6
 13  9  1  0
 14 21  1  0
 15 14  2  0
 17 16  1  0
 17 18  1  0
 19 18  1  0
 20 19  1  1
 21 20  1  0
 22 24  1  0
 22 20  1  0
 23 22  2  0
M  END
$$$$
