DPM.pdb
     RDKit          3D

 24 24  0  0  1  0  0  0  0  0999 V2000
   23.4567  -20.3111  -15.8978 N   0  0  0  0  0  0  0  0  0  0  0  0
   24.3057  -19.5854  -14.9738 C   0  0  1  0  0  0  0  0  0  0  0  0
   23.3590  -18.7789  -14.0956 C   0  0  0  0  0  0  0  0  0  0  0  0
   22.5630  -17.8910  -14.9723 C   0  0  0  0  0  0  0  0  0  0  0  0
   21.3163  -17.9519  -14.9731 O   0  0  0  0  0  0  0  0  0  0  0  0
   25.1155  -20.5247  -14.1122 C   0  0  0  0  0  0  0  0  0  0  0  0
   24.4116  -21.2426  -13.3571 O   0  0  0  0  0  0  0  0  0  0  0  0
   23.1789  -16.9738  -15.8105 O   0  0  0  0  0  0  0  0  0  0  0  0
   26.5082  -20.5567  -14.1825 N   0  0  0  0  0  0  0  0  0  0  0  0
   27.2383  -20.1659  -15.4202 C   0  0  0  0  0  0  0  0  0  0  0  0
   28.2421  -19.2196  -14.8495 C   0  0  0  0  0  0  0  0  0  0  0  0
   28.4039  -19.5954  -13.3831 C   0  0  0  0  0  0  0  0  0  0  0  0
   27.5745  -20.8839  -13.3137 C   0  0  1  0  0  0  0  0  0  0  0  0
   27.3171  -21.2904  -11.9515 C   0  0  0  0  0  0  0  0  0  0  0  0
   28.1776  -21.8143  -11.2249 O   0  0  0  0  0  0  0  0  0  0  0  0
   29.0553  -19.6331   -6.5074 C   0  0  0  0  0  0  0  0  0  0  0  0
   27.4121  -18.9399   -6.8411 S   0  0  0  0  0  0  0  0  0  0  0  0
   26.3586  -20.1083   -7.7265 C   0  0  0  0  0  0  0  0  0  0  0  0
   26.6763  -20.1658   -9.1926 C   0  0  0  0  0  0  0  0  0  0  0  0
   25.8270  -21.1497   -9.9015 C   0  0  2  0  0  0  0  0  0  0  0  0
   26.0287  -21.1113  -11.3415 N   0  0  0  0  0  0  0  0  0  0  0  0
   24.4180  -21.0283   -9.5373 C   0  0  0  0  0  0  0  0  0  0  0  0
   23.6276  -20.6020  -10.4615 O   0  0  0  0  0  0  0  0  0  0  0  0
   23.8227  -21.3110   -8.3410 O   0  0  0  0  0  0  0  0  0  0  0  0
  2  1  1  6
  2  3  1  0
  3  4  1  0
  4  8  1  0
  5  4  2  0
  6  7  2  0
  6  2  1  0
  9  6  1  0
 10  9  1  0
 11 10  1  0
 12 11  1  0
 12 13  1  0
 13 14  1  1
 13  9  1  0
 14 21  1  0
 15 14  2  0
 17 16  1  0
 17 18  1  0
 19 18  1  0
 20 19  1  1
 21 20  1  0
 22 24  1  0
 22 20  1  0
 23 22  2  0
M  END
$$$$
