DPM.pdb
     RDKit          3D

 24 24  0  0  1  0  0  0  0  0999 V2000
   15.7039  -11.0166  -17.5787 N   0  0  0  0  0  0  0  0  0  0  0  0
   15.8308   -9.5738  -17.5189 C   0  0  1  0  0  0  0  0  0  0  0  0
   14.9606   -9.1348  -16.3493 C   0  0  0  0  0  0  0  0  0  0  0  0
   13.5730   -9.5736  -16.6187 C   0  0  0  0  0  0  0  0  0  0  0  0
   12.8901   -9.0130  -17.5003 O   0  0  0  0  0  0  0  0  0  0  0  0
   17.2598   -9.1540  -17.2696 C   0  0  0  0  0  0  0  0  0  0  0  0
   17.8437   -9.8565  -16.4054 O   0  0  0  0  0  0  0  0  0  0  0  0
   12.9996  -10.6134  -15.9021 O   0  0  0  0  0  0  0  0  0  0  0  0
   17.8330   -8.0837  -17.9561 N   0  0  0  0  0  0  0  0  0  0  0  0
   17.5707   -7.8520  -19.4036 C   0  0  0  0  0  0  0  0  0  0  0  0
   17.2100   -6.4035  -19.3802 C   0  0  0  0  0  0  0  0  0  0  0  0
   17.8518   -5.8195  -18.1293 C   0  0  0  0  0  0  0  0  0  0  0  0
   18.6949   -7.0066  -17.6465 C   0  0  1  0  0  0  0  0  0  0  0  0
   19.1802   -6.8146  -16.2994 C   0  0  0  0  0  0  0  0  0  0  0  0
   18.4289   -6.6979  -15.3170 O   0  0  0  0  0  0  0  0  0  0  0  0
   22.9631   -9.5804  -10.4097 C   0  0  0  0  0  0  0  0  0  0  0  0
   22.7366   -9.5462  -12.2096 S   0  0  0  0  0  0  0  0  0  0  0  0
   22.1019   -7.9538  -12.7754 C   0  0  0  0  0  0  0  0  0  0  0  0
   21.6285   -8.0011  -14.1992 C   0  0  0  0  0  0  0  0  0  0  0  0
   21.1045   -6.6914  -14.6487 C   0  0  2  0  0  0  0  0  0  0  0  0
   20.5850   -6.7454  -16.0063 N   0  0  0  0  0  0  0  0  0  0  0  0
   22.0765   -5.6162  -14.4713 C   0  0  0  0  0  0  0  0  0  0  0  0
   22.7261   -5.2587  -15.5252 O   0  0  0  0  0  0  0  0  0  0  0  0
   22.3884   -4.9331  -13.3304 O   0  0  0  0  0  0  0  0  0  0  0  0
  2  1  1  1
  2  3  1  0
  3  4  1  0
  4  8  1  0
  5  4  2  0
  6  7  2  0
  6  2  1  0
  9  6  1  0
 10  9  1  0
 11 10  1  0
 12 11  1  0
 12 13  1  0
 13 14  1  1
 13  9  1  0
 14 21  1  0
 15 14  2  0
 17 16  1  0
 17 18  1  0
 19 18  1  0
 20 19  1  6
 21 20  1  0
 22 24  1  0
 22 20  1  0
 23 22  2  0
M  END
$$$$
