DPM.pdb
     RDKit          3D

 24 24  0  0  1  0  0  0  0  0999 V2000
   13.3224   -9.0073  -12.1504 N   0  0  0  0  0  0  0  0  0  0  0  0
   14.5281   -9.3622  -11.4282 C   0  0  1  0  0  0  0  0  0  0  0  0
   14.9814  -10.6910  -12.0169 C   0  0  0  0  0  0  0  0  0  0  0  0
   14.0678  -11.7468  -11.5258 C   0  0  0  0  0  0  0  0  0  0  0  0
   13.0811  -11.4540  -10.8197 O   0  0  0  0  0  0  0  0  0  0  0  0
   15.6127   -8.3292  -11.6210 C   0  0  0  0  0  0  0  0  0  0  0  0
   16.3314   -8.5414  -12.6307 O   0  0  0  0  0  0  0  0  0  0  0  0
   14.2838  -13.0811  -11.8362 O   0  0  0  0  0  0  0  0  0  0  0  0
   15.7633   -7.2603  -10.7376 N   0  0  0  0  0  0  0  0  0  0  0  0
   14.5930   -6.6256  -10.0705 C   0  0  0  0  0  0  0  0  0  0  0  0
   15.0644   -6.6207   -8.6540 C   0  0  0  0  0  0  0  0  0  0  0  0
   16.5853   -6.6669   -8.7056 C   0  0  0  0  0  0  0  0  0  0  0  0
   16.8362   -6.5054  -10.2103 C   0  0  1  0  0  0  0  0  0  0  0  0
   18.2011   -6.8145  -10.5686 C   0  0  0  0  0  0  0  0  0  0  0  0
   18.7289   -7.9167  -10.3457 O   0  0  0  0  0  0  0  0  0  0  0  0
   21.2610   -8.3632  -16.4317 C   0  0  0  0  0  0  0  0  0  0  0  0
   21.2351   -8.9779  -14.7248 S   0  0  0  0  0  0  0  0  0  0  0  0
   21.4249   -7.6403  -13.5274 C   0  0  0  0  0  0  0  0  0  0  0  0
   20.1452   -7.3355  -12.8043 C   0  0  0  0  0  0  0  0  0  0  0  0
   20.3040   -6.2102  -11.8554 C   0  0  2  0  0  0  0  0  0  0  0  0
   19.0479   -5.8510  -11.2157 N   0  0  0  0  0  0  0  0  0  0  0  0
   20.9616   -5.0589  -12.4674 C   0  0  0  0  0  0  0  0  0  0  0  0
   22.2463   -5.0227  -12.3733 O   0  0  0  0  0  0  0  0  0  0  0  0
   20.3926   -4.0105  -13.1327 O   0  0  0  0  0  0  0  0  0  0  0  0
  2  1  1  6
  2  3  1  0
  3  4  1  0
  4  8  1  0
  5  4  2  0
  6  7  2  0
  6  2  1  0
  9  6  1  0
 10  9  1  0
 11 10  1  0
 12 11  1  0
 12 13  1  0
 13 14  1  1
 13  9  1  0
 14 21  1  0
 15 14  2  0
 17 16  1  0
 17 18  1  0
 19 18  1  0
 20 19  1  6
 21 20  1  0
 22 24  1  0
 22 20  1  0
 23 22  2  0
M  END
$$$$
