DPM.pdb
     RDKit          3D

 24 24  0  0  1  0  0  0  0  0999 V2000
   22.8077  -21.3293  -14.2021 N   0  0  0  0  0  0  0  0  0  0  0  0
   23.6498  -20.2703  -13.6818 C   0  0  1  0  0  0  0  0  0  0  0  0
   22.6957  -19.1719  -13.2335 C   0  0  0  0  0  0  0  0  0  0  0  0
   21.8411  -18.8070  -14.3856 C   0  0  0  0  0  0  0  0  0  0  0  0
   22.0847  -19.2572  -15.5240 O   0  0  0  0  0  0  0  0  0  0  0  0
   24.4660  -20.7417  -12.5019 C   0  0  0  0  0  0  0  0  0  0  0  0
   23.7972  -20.8497  -11.4426 O   0  0  0  0  0  0  0  0  0  0  0  0
   20.7539  -17.9603  -14.2300 O   0  0  0  0  0  0  0  0  0  0  0  0
   25.8277  -21.0180  -12.6243 N   0  0  0  0  0  0  0  0  0  0  0  0
   26.4123  -21.5234  -13.8972 C   0  0  0  0  0  0  0  0  0  0  0  0
   27.5636  -20.5857  -14.0522 C   0  0  0  0  0  0  0  0  0  0  0  0
   27.8917  -20.0717  -12.6573 C   0  0  0  0  0  0  0  0  0  0  0  0
   26.9705  -20.9442  -11.7951 C   0  0  1  0  0  0  0  0  0  0  0  0
   26.8681  -20.4513  -10.4411 C   0  0  0  0  0  0  0  0  0  0  0  0
   26.1735  -19.4710  -10.1258 O   0  0  0  0  0  0  0  0  0  0  0  0
   28.6693  -19.1860   -4.4955 C   0  0  0  0  0  0  0  0  0  0  0  0
   27.5664  -18.6286   -5.8241 S   0  0  0  0  0  0  0  0  0  0  0  0
   26.2036  -19.7818   -6.0922 C   0  0  0  0  0  0  0  0  0  0  0  0
   26.1988  -20.3465   -7.4830 C   0  0  0  0  0  0  0  0  0  0  0  0
   27.5714  -20.5386   -8.0037 C   0  0  2  0  0  0  0  0  0  0  0  0
   27.5748  -21.0740   -9.3561 N   0  0  0  0  0  0  0  0  0  0  0  0
   28.4025  -21.3246   -7.0960 C   0  0  0  0  0  0  0  0  0  0  0  0
   29.6506  -21.0073   -7.0508 O   0  0  0  0  0  0  0  0  0  0  0  0
   28.0298  -22.3558   -6.2816 O   0  0  0  0  0  0  0  0  0  0  0  0
  2  1  1  1
  2  3  1  0
  3  4  1  0
  4  8  1  0
  5  4  2  0
  6  7  2  0
  6  2  1  0
  9  6  1  0
 10  9  1  0
 11 10  1  0
 12 11  1  0
 12 13  1  0
 13 14  1  1
 13  9  1  0
 14 21  1  0
 15 14  2  0
 17 16  1  0
 17 18  1  0
 19 18  1  0
 20 19  1  1
 21 20  1  0
 22 24  1  0
 22 20  1  0
 23 22  2  0
M  END
$$$$
