DPM.pdb
     RDKit          3D

 24 24  0  0  1  0  0  0  0  0999 V2000
   20.5994  -20.1437  -14.0593 N   0  0  0  0  0  0  0  0  0  0  0  0
   22.0224  -19.8857  -14.1579 C   0  0  1  0  0  0  0  0  0  0  0  0
   22.1558  -18.3756  -14.2972 C   0  0  0  0  0  0  0  0  0  0  0  0
   21.6370  -17.9892  -15.6285 C   0  0  0  0  0  0  0  0  0  0  0  0
   22.0496  -16.9563  -16.1949 O   0  0  0  0  0  0  0  0  0  0  0  0
   22.7549  -20.3444  -12.9195 C   0  0  0  0  0  0  0  0  0  0  0  0
   22.3872  -19.7521  -11.8730 O   0  0  0  0  0  0  0  0  0  0  0  0
   20.6843  -18.7609  -16.2766 O   0  0  0  0  0  0  0  0  0  0  0  0
   23.7369  -21.3331  -12.9804 N   0  0  0  0  0  0  0  0  0  0  0  0
   23.6665  -22.4462  -13.9672 C   0  0  0  0  0  0  0  0  0  0  0  0
   25.0451  -22.3845  -14.5369 C   0  0  0  0  0  0  0  0  0  0  0  0
   25.9179  -21.7181  -13.4824 C   0  0  0  0  0  0  0  0  0  0  0  0
   24.9418  -21.6288  -12.3024 C   0  0  1  0  0  0  0  0  0  0  0  0
   25.4322  -20.7598  -11.2577 C   0  0  0  0  0  0  0  0  0  0  0  0
   25.4322  -19.5210  -11.3491 O   0  0  0  0  0  0  0  0  0  0  0  0
   28.9749  -18.9044   -4.5216 C   0  0  0  0  0  0  0  0  0  0  0  0
   27.8062  -20.0167   -5.3518 S   0  0  0  0  0  0  0  0  0  0  0  0
   28.0087  -19.9847   -7.1453 C   0  0  0  0  0  0  0  0  0  0  0  0
   26.9107  -20.7204   -7.8571 C   0  0  0  0  0  0  0  0  0  0  0  0
   27.0778  -20.6702   -9.3273 C   0  0  2  0  0  0  0  0  0  0  0  0
   25.9593  -21.2821  -10.0275 N   0  0  0  0  0  0  0  0  0  0  0  0
   28.3631  -21.2144   -9.7569 C   0  0  0  0  0  0  0  0  0  0  0  0
   28.4534  -22.4995   -9.7883 O   0  0  0  0  0  0  0  0  0  0  0  0
   29.4879  -20.5381  -10.1349 O   0  0  0  0  0  0  0  0  0  0  0  0
  2  1  1  1
  2  3  1  0
  3  4  1  0
  4  8  1  0
  5  4  2  0
  6  7  2  0
  6  2  1  0
  9  6  1  0
 10  9  1  0
 11 10  1  0
 12 11  1  0
 12 13  1  0
 13 14  1  1
 13  9  1  0
 14 21  1  0
 15 14  2  0
 17 16  1  0
 17 18  1  0
 19 18  1  0
 20 19  1  1
 21 20  1  0
 22 24  1  0
 22 20  1  0
 23 22  2  0
M  END
$$$$
