DPM.pdb
     RDKit          3D

 24 24  0  0  1  0  0  0  0  0999 V2000
   25.6255  -33.6279    3.2228 N   0  0  0  0  0  0  0  0  0  0  0  0
   25.5736  -33.1914    4.6041 C   0  0  1  0  0  0  0  0  0  0  0  0
   26.7714  -32.2698    4.7873 C   0  0  0  0  0  0  0  0  0  0  0  0
   28.0009  -33.0861    4.6751 C   0  0  0  0  0  0  0  0  0  0  0  0
   28.7795  -32.9313    3.7119 O   0  0  0  0  0  0  0  0  0  0  0  0
   24.3025  -32.4303    4.8964 C   0  0  0  0  0  0  0  0  0  0  0  0
   24.2010  -31.3585    4.2467 O   0  0  0  0  0  0  0  0  0  0  0  0
   28.3172  -34.0385    5.6322 O   0  0  0  0  0  0  0  0  0  0  0  0
   23.3615  -32.9100    5.8074 N   0  0  0  0  0  0  0  0  0  0  0  0
   23.1992  -34.3667    6.0707 C   0  0  0  0  0  0  0  0  0  0  0  0
   23.2364  -34.3733    7.5631 C   0  0  0  0  0  0  0  0  0  0  0  0
   22.8170  -32.9799    8.0109 C   0  0  0  0  0  0  0  0  0  0  0  0
   22.3944  -32.3538    6.6758 C   0  0  1  0  0  0  0  0  0  0  0  0
   22.2305  -30.9220    6.7762 C   0  0  0  0  0  0  0  0  0  0  0  0
   23.0441  -30.1105    6.3044 O   0  0  0  0  0  0  0  0  0  0  0  0
   20.1094  -24.3844    4.4649 C   0  0  0  0  0  0  0  0  0  0  0  0
   20.2860  -26.1900    4.4386 S   0  0  0  0  0  0  0  0  0  0  0  0
   20.4826  -26.8687    6.0998 C   0  0  0  0  0  0  0  0  0  0  0  0
   20.8002  -28.3358    6.0832 C   0  0  0  0  0  0  0  0  0  0  0  0
   20.8451  -28.9045    7.4494 C   0  0  2  0  0  0  0  0  0  0  0  0
   21.0980  -30.3369    7.4390 N   0  0  0  0  0  0  0  0  0  0  0  0
   19.6620  -28.5579    8.2321 C   0  0  0  0  0  0  0  0  0  0  0  0
   18.6707  -29.3777    8.1558 O   0  0  0  0  0  0  0  0  0  0  0  0
   19.4664  -27.4752    9.0414 O   0  0  0  0  0  0  0  0  0  0  0  0
  2  1  1  6
  2  3  1  0
  3  4  1  0
  4  8  1  0
  5  4  2  0
  6  7  2  0
  6  2  1  0
  9  6  1  0
 10  9  1  0
 11 10  1  0
 12 11  1  0
 12 13  1  0
 13 14  1  1
 13  9  1  0
 14 21  1  0
 15 14  2  0
 17 16  1  0
 17 18  1  0
 19 18  1  0
 20 19  1  6
 21 20  1  0
 22 24  1  0
 22 20  1  0
 23 22  2  0
M  END
$$$$
