DPM.pdb
     RDKit          3D

 24 24  0  0  1  0  0  0  0  0999 V2000
   18.8545  -10.2924  -17.3824 N   0  0  0  0  0  0  0  0  0  0  0  0
   20.0895   -9.8840  -16.7426 C   0  0  1  0  0  0  0  0  0  0  0  0
   21.1234   -9.8114  -17.8577 C   0  0  0  0  0  0  0  0  0  0  0  0
   21.2584  -11.1620  -18.4479 C   0  0  0  0  0  0  0  0  0  0  0  0
   21.3649  -12.1669  -17.7151 O   0  0  0  0  0  0  0  0  0  0  0  0
   19.9534   -8.5279  -16.0923 C   0  0  0  0  0  0  0  0  0  0  0  0
   19.5188   -7.6414  -16.8709 O   0  0  0  0  0  0  0  0  0  0  0  0
   21.2700  -11.3442  -19.8226 O   0  0  0  0  0  0  0  0  0  0  0  0
   20.2900   -8.3269  -14.7537 N   0  0  0  0  0  0  0  0  0  0  0  0
   19.9686   -9.3353  -13.7061 C   0  0  0  0  0  0  0  0  0  0  0  0
   21.2951   -9.4496  -13.0307 C   0  0  0  0  0  0  0  0  0  0  0  0
   22.0355   -8.1494  -13.3119 C   0  0  0  0  0  0  0  0  0  0  0  0
   20.9376   -7.3245  -13.9955 C   0  0  1  0  0  0  0  0  0  0  0  0
   21.4667   -6.1425  -14.6356 C   0  0  0  0  0  0  0  0  0  0  0  0
   22.2593   -6.1846  -15.5911 O   0  0  0  0  0  0  0  0  0  0  0  0
   21.2358   -1.2738  -19.9147 C   0  0  0  0  0  0  0  0  0  0  0  0
   20.7599   -2.7201  -18.9278 S   0  0  0  0  0  0  0  0  0  0  0  0
   21.2676   -2.5519  -17.2037 C   0  0  0  0  0  0  0  0  0  0  0  0
   20.9315   -3.7667  -16.3883 C   0  0  0  0  0  0  0  0  0  0  0  0
   21.3829   -3.6297  -14.9850 C   0  0  2  0  0  0  0  0  0  0  0  0
   21.1036   -4.8223  -14.2003 N   0  0  0  0  0  0  0  0  0  0  0  0
   20.8661   -2.4189  -14.3532 C   0  0  0  0  0  0  0  0  0  0  0  0
   19.7205   -2.5261  -13.7729 O   0  0  0  0  0  0  0  0  0  0  0  0
   21.4403   -1.1811  -14.2929 O   0  0  0  0  0  0  0  0  0  0  0  0
  2  1  1  6
  2  3  1  0
  3  4  1  0
  4  8  1  0
  5  4  2  0
  6  7  2  0
  6  2  1  0
  9  6  1  0
 10  9  1  0
 11 10  1  0
 12 11  1  0
 12 13  1  0
 13 14  1  6
 13  9  1  0
 14 21  1  0
 15 14  2  0
 17 16  1  0
 17 18  1  0
 19 18  1  0
 20 19  1  6
 21 20  1  0
 22 24  1  0
 22 20  1  0
 23 22  2  0
M  END
$$$$
