SIL.pdb
     RDKit          3D

 23 22  0  0  1  0  0  0  0  0999 V2000
   29.6734  -22.4777  -15.6309 O   0  0  0  0  0  0  0  0  0  0  0  0
   29.1735  -21.5518  -14.7255 C   0  0  0  0  0  0  0  0  0  0  0  0
   27.7763  -21.0938  -15.1445 C   0  0  2  0  0  0  0  0  0  0  0  0
   27.8925  -20.1656  -16.2306 N   0  0  0  0  0  0  0  0  0  0  0  0
   27.1022  -20.4557  -14.0129 C   0  0  0  0  0  0  0  0  0  0  0  0
   27.2057  -19.2126  -13.8404 O   0  0  0  0  0  0  0  0  0  0  0  0
   22.3448  -20.1082  -14.4670 C   0  0  0  0  0  0  0  0  0  0  0  0
   23.7777  -19.9998  -14.0456 C   0  0  0  0  0  0  0  0  0  0  0  0
   23.9716  -20.6783  -12.7214 C   0  0  2  0  0  0  0  0  0  0  0  0
   23.0676  -20.1156  -11.6545 C   0  0  0  0  0  0  0  0  0  0  0  0
   25.4029  -20.5848  -12.2439 C   0  0  2  0  0  0  0  0  0  0  0  0
   26.3315  -21.2292  -13.1069 N   0  0  0  0  0  0  0  0  0  0  0  0
   25.5084  -21.2385  -10.8914 C   0  0  0  0  0  0  0  0  0  0  0  0
   25.3586  -22.4819  -10.7434 O   0  0  0  0  0  0  0  0  0  0  0  0
   28.8878  -20.7161   -7.6417 C   0  0  0  0  0  0  0  0  0  0  0  0
   27.8924  -19.6366   -7.8165 C   0  0  2  0  0  0  0  0  0  0  0  0
   28.2439  -18.4369   -6.9022 C   0  0  0  0  0  0  0  0  0  0  0  0
   26.4739  -19.9227   -7.5940 C   0  0  0  0  0  0  0  0  0  0  0  0
   25.7586  -20.9580   -8.3775 C   0  0  2  0  0  0  0  0  0  0  0  0
   25.7823  -20.4230   -9.7716 N   0  0  0  0  0  0  0  0  0  0  0  0
   24.3415  -21.1356   -8.0658 C   0  0  0  0  0  0  0  0  0  0  0  0
   23.4501  -20.4951   -8.7333 O   0  0  0  0  0  0  0  0  0  0  0  0
   23.8142  -21.9656   -7.0826 O   0  0  0  0  0  0  0  0  0  0  0  0
  1  2  1  0
  2  3  1  0
  3  4  1  6
  3  5  1  0
  5  6  2  0
  7  8  1  0
  8  9  1  0
  9 11  1  0
  9 10  1  1
 11 13  1  0
 12  5  1  0
 11 12  1  6
 13 14  2  0
 16 17  1  1
 16 15  1  0
 18 16  1  0
 19 18  1  1
 19 21  1  0
 20 13  1  0
 20 19  1  0
 21 22  2  0
 21 23  1  0
M  END
$$$$
