SIL.pdb
     RDKit          3D

 23 22  0  0  1  0  0  0  0  0999 V2000
   21.1559  -18.4357  -17.8289 O   0  0  0  0  0  0  0  0  0  0  0  0
   21.0528  -19.2216  -16.6894 C   0  0  0  0  0  0  0  0  0  0  0  0
   22.3725  -19.2208  -15.9173 C   0  0  2  0  0  0  0  0  0  0  0  0
   22.2516  -20.0848  -14.7800 N   0  0  0  0  0  0  0  0  0  0  0  0
   22.6913  -17.8611  -15.4794 C   0  0  0  0  0  0  0  0  0  0  0  0
   22.2236  -17.4252  -14.3945 O   0  0  0  0  0  0  0  0  0  0  0  0
   27.5791  -15.9358  -15.7160 C   0  0  0  0  0  0  0  0  0  0  0  0
   26.1623  -16.2729  -15.3671 C   0  0  0  0  0  0  0  0  0  0  0  0
   25.2317  -15.2852  -16.0072 C   0  0  2  0  0  0  0  0  0  0  0  0
   25.4037  -13.8953  -15.4499 C   0  0  0  0  0  0  0  0  0  0  0  0
   23.7841  -15.6936  -15.8550 C   0  0  2  0  0  0  0  0  0  0  0  0
   23.5253  -17.0289  -16.2699 N   0  0  0  0  0  0  0  0  0  0  0  0
   22.9302  -14.7815  -16.6957 C   0  0  0  0  0  0  0  0  0  0  0  0
   22.9437  -14.8369  -17.9555 O   0  0  0  0  0  0  0  0  0  0  0  0
   18.5598  -11.1826  -16.9073 C   0  0  0  0  0  0  0  0  0  0  0  0
   18.7200  -12.6374  -17.1185 C   0  0  2  0  0  0  0  0  0  0  0  0
   17.4640  -13.3890  -16.6121 C   0  0  0  0  0  0  0  0  0  0  0  0
   19.8744  -13.3261  -16.5382 C   0  0  0  0  0  0  0  0  0  0  0  0
   21.2607  -12.8673  -16.7930 C   0  0  2  0  0  0  0  0  0  0  0  0
   22.0994  -13.8469  -16.0398 N   0  0  0  0  0  0  0  0  0  0  0  0
   21.6179  -11.5619  -16.2406 C   0  0  0  0  0  0  0  0  0  0  0  0
   21.7465  -10.5471  -17.0178 O   0  0  0  0  0  0  0  0  0  0  0  0
   21.8415  -11.2705  -14.8995 O   0  0  0  0  0  0  0  0  0  0  0  0
  1  2  1  0
  2  3  1  0
  3  4  1  1
  3  5  1  0
  5  6  2  0
  7  8  1  0
  8  9  1  0
  9 11  1  0
  9 10  1  1
 11 13  1  0
 12  5  1  0
 11 12  1  6
 13 14  2  0
 16 17  1  1
 16 15  1  0
 18 16  1  0
 19 18  1  1
 19 21  1  0
 20 13  1  0
 20 19  1  0
 21 22  2  0
 21 23  1  0
M  END
$$$$
