SIL.pdb
     RDKit          3D

 23 22  0  0  1  0  0  0  0  0999 V2000
   27.7977  -24.9956  -18.2497 O   0  0  0  0  0  0  0  0  0  0  0  0
   27.7323  -24.2518  -17.0795 C   0  0  0  0  0  0  0  0  0  0  0  0
   28.9035  -23.2722  -17.0017 C   0  0  2  0  0  0  0  0  0  0  0  0
   30.0521  -23.9540  -16.4816 N   0  0  0  0  0  0  0  0  0  0  0  0
   28.5543  -22.1481  -16.1318 C   0  0  0  0  0  0  0  0  0  0  0  0
   28.8798  -22.1709  -14.9155 O   0  0  0  0  0  0  0  0  0  0  0  0
   28.3003  -16.9793  -17.9682 C   0  0  0  0  0  0  0  0  0  0  0  0
   28.5672  -18.1828  -17.1179 C   0  0  0  0  0  0  0  0  0  0  0  0
   27.2919  -18.6473  -16.4785 C   0  0  2  0  0  0  0  0  0  0  0  0
   26.7512  -17.6454  -15.4906 C   0  0  0  0  0  0  0  0  0  0  0  0
   27.4633  -19.9760  -15.7780 C   0  0  2  0  0  0  0  0  0  0  0  0
   27.8503  -21.0306  -16.6499 N   0  0  0  0  0  0  0  0  0  0  0  0
   26.1534  -20.3652  -15.1453 C   0  0  0  0  0  0  0  0  0  0  0  0
   25.2256  -20.8943  -15.8158 O   0  0  0  0  0  0  0  0  0  0  0  0
   25.7775  -22.5469  -10.7960 C   0  0  0  0  0  0  0  0  0  0  0  0
   26.0034  -21.0883  -10.8862 C   0  0  2  0  0  0  0  0  0  0  0  0
   26.1092  -20.4786   -9.4665 C   0  0  0  0  0  0  0  0  0  0  0  0
   25.0495  -20.2564  -11.6221 C   0  0  0  0  0  0  0  0  0  0  0  0
   24.7288  -20.5172  -13.0457 C   0  0  2  0  0  0  0  0  0  0  0  0
   25.9771  -20.1241  -13.7651 N   0  0  0  0  0  0  0  0  0  0  0  0
   23.6784  -19.6860  -13.6311 C   0  0  0  0  0  0  0  0  0  0  0  0
   22.4502  -20.0557  -13.5602 O   0  0  0  0  0  0  0  0  0  0  0  0
   23.8600  -18.4731  -14.2863 O   0  0  0  0  0  0  0  0  0  0  0  0
  1  2  1  0
  2  3  1  0
  3  4  1  1
  3  5  1  0
  5  6  2  0
  7  8  1  0
  8  9  1  0
  9 11  1  0
  9 10  1  1
 11 13  1  0
 12  5  1  0
 11 12  1  6
 13 14  2  0
 16 17  1  1
 16 15  1  0
 18 16  1  0
 19 18  1  1
 19 21  1  0
 20 13  1  0
 20 19  1  0
 21 22  2  0
 21 23  1  0
M  END
$$$$
