SIL.pdb
     RDKit          3D

 23 22  0  0  1  0  0  0  0  0999 V2000
   18.2239  -14.2805  -19.3946 O   0  0  0  0  0  0  0  0  0  0  0  0
   18.7053  -13.4910  -18.3594 C   0  0  0  0  0  0  0  0  0  0  0  0
   19.3737  -14.3574  -17.2916 C   0  0  2  0  0  0  0  0  0  0  0  0
   18.3646  -15.0773  -16.5718 N   0  0  0  0  0  0  0  0  0  0  0  0
   20.1359  -13.5122  -16.3712 C   0  0  0  0  0  0  0  0  0  0  0  0
   19.5411  -12.8895  -15.4523 O   0  0  0  0  0  0  0  0  0  0  0  0
   25.4877  -14.5746  -15.3835 C   0  0  0  0  0  0  0  0  0  0  0  0
   24.0347  -14.2727  -15.1840 C   0  0  0  0  0  0  0  0  0  0  0  0
   23.7506  -12.8536  -15.5797 C   0  0  2  0  0  0  0  0  0  0  0  0
   24.4233  -11.8611  -14.6663 C   0  0  0  0  0  0  0  0  0  0  0  0
   22.2675  -12.5613  -15.6061 C   0  0  2  0  0  0  0  0  0  0  0  0
   21.5428  -13.3892  -16.5071 N   0  0  0  0  0  0  0  0  0  0  0  0
   22.0607  -11.1322  -16.0335 C   0  0  0  0  0  0  0  0  0  0  0  0
   22.3065  -10.7507  -17.2100 O   0  0  0  0  0  0  0  0  0  0  0  0
   17.9032   -7.6437  -16.9430 C   0  0  0  0  0  0  0  0  0  0  0  0
   19.3143   -7.5858  -16.5045 C   0  0  2  0  0  0  0  0  0  0  0  0
   20.1968   -6.9951  -17.6318 C   0  0  0  0  0  0  0  0  0  0  0  0
   19.9803   -8.8111  -16.0588 C   0  0  0  0  0  0  0  0  0  0  0  0
   21.3182   -8.7796  -15.4214 C   0  0  2  0  0  0  0  0  0  0  0  0
   21.5786  -10.2098  -15.0792 N   0  0  0  0  0  0  0  0  0  0  0  0
   21.4079   -8.0650  -14.1493 C   0  0  0  0  0  0  0  0  0  0  0  0
   21.0098   -8.6277  -13.0652 O   0  0  0  0  0  0  0  0  0  0  0  0
   21.9058   -6.7803  -13.9619 O   0  0  0  0  0  0  0  0  0  0  0  0
  1  2  1  0
  2  3  1  0
  3  4  1  1
  3  5  1  0
  5  6  2  0
  7  8  1  0
  8  9  1  0
  9 11  1  0
  9 10  1  1
 11 13  1  0
 12  5  1  0
 11 12  1  6
 13 14  2  0
 16 17  1  6
 16 15  1  0
 18 16  1  0
 19 18  1  1
 19 21  1  0
 20 13  1  0
 20 19  1  0
 21 22  2  0
 21 23  1  0
M  END
$$$$
