SIL.pdb
     RDKit          3D

 23 22  0  0  1  0  0  0  0  0999 V2000
   37.5385  -27.4811    5.2680 O   0  0  0  0  0  0  0  0  0  0  0  0
   37.3201  -26.3117    5.9832 C   0  0  0  0  0  0  0  0  0  0  0  0
   37.2188  -25.1158    5.0360 C   0  0  2  0  0  0  0  0  0  0  0  0
   38.5376  -24.7163    4.6414 N   0  0  0  0  0  0  0  0  0  0  0  0
   36.5412  -24.0058    5.7076 C   0  0  0  0  0  0  0  0  0  0  0  0
   37.2124  -23.1626    6.3590 O   0  0  0  0  0  0  0  0  0  0  0  0
   31.8494  -21.6593    3.8944 C   0  0  0  0  0  0  0  0  0  0  0  0
   33.2141  -22.0093    4.4019 C   0  0  0  0  0  0  0  0  0  0  0  0
   33.1239  -22.4743    5.8256 C   0  0  2  0  0  0  0  0  0  0  0  0
   32.5072  -21.4355    6.7270 C   0  0  0  0  0  0  0  0  0  0  0  0
   34.4769  -22.8572    6.3808 C   0  0  2  0  0  0  0  0  0  0  0  0
   35.1308  -23.8727    5.6300 N   0  0  0  0  0  0  0  0  0  0  0  0
   34.2990  -23.3715    7.7849 C   0  0  0  0  0  0  0  0  0  0  0  0
   33.8748  -24.5367    8.0145 O   0  0  0  0  0  0  0  0  0  0  0  0
   37.3653  -23.9049   11.0982 C   0  0  0  0  0  0  0  0  0  0  0  0
   36.9017  -22.5285   10.8200 C   0  0  2  0  0  0  0  0  0  0  0  0
   37.7067  -21.5149   11.6705 C   0  0  0  0  0  0  0  0  0  0  0  0
   35.4888  -22.1933   11.0073 C   0  0  0  0  0  0  0  0  0  0  0  0
   34.4167  -22.9166   10.2829 C   0  0  2  0  0  0  0  0  0  0  0  0
   34.6204  -22.5135    8.8594 N   0  0  0  0  0  0  0  0  0  0  0  0
   33.0460  -22.5165   10.5958 C   0  0  0  0  0  0  0  0  0  0  0  0
   32.4954  -21.5491    9.9547 O   0  0  0  0  0  0  0  0  0  0  0  0
   32.2198  -23.0942   11.5535 O   0  0  0  0  0  0  0  0  0  0  0  0
  1  2  1  0
  2  3  1  0
  3  4  1  1
  3  5  1  0
  5  6  2  0
  7  8  1  0
  8  9  1  0
  9 11  1  0
  9 10  1  1
 11 13  1  0
 12  5  1  0
 11 12  1  6
 13 14  2  0
 16 17  1  1
 16 15  1  0
 18 16  1  0
 19 18  1  1
 19 21  1  0
 20 13  1  0
 20 19  1  0
 21 22  2  0
 21 23  1  0
M  END
$$$$
