SIL.pdb
     RDKit          3D

 23 22  0  0  1  0  0  0  0  0999 V2000
   20.9644  -19.7917  -10.5646 O   0  0  0  0  0  0  0  0  0  0  0  0
   21.7866  -19.3438  -11.5894 C   0  0  0  0  0  0  0  0  0  0  0  0
   22.5235  -20.5169  -12.2362 C   0  0  2  0  0  0  0  0  0  0  0  0
   21.6004  -21.5932  -12.4458 N   0  0  0  0  0  0  0  0  0  0  0  0
   23.6153  -20.9581  -11.3670 C   0  0  0  0  0  0  0  0  0  0  0  0
   23.4329  -21.9118  -10.5651 O   0  0  0  0  0  0  0  0  0  0  0  0
   28.5676  -21.5145  -13.3937 C   0  0  0  0  0  0  0  0  0  0  0  0
   27.2491  -21.6083  -12.6901 C   0  0  0  0  0  0  0  0  0  0  0  0
   27.2867  -20.7976  -11.4282 C   0  0  2  0  0  0  0  0  0  0  0  0
   28.3881  -21.2396  -10.4989 C   0  0  0  0  0  0  0  0  0  0  0  0
   25.9722  -20.8520  -10.6833 C   0  0  2  0  0  0  0  0  0  0  0  0
   24.8802  -20.3178  -11.4213 N   0  0  0  0  0  0  0  0  0  0  0  0
   26.0988  -20.0523   -9.4136 C   0  0  0  0  0  0  0  0  0  0  0  0
   25.8363  -18.8193   -9.3786 O   0  0  0  0  0  0  0  0  0  0  0  0
   27.9075  -19.3997   -4.2473 C   0  0  0  0  0  0  0  0  0  0  0  0
   27.4909  -20.7683   -4.6215 C   0  0  2  0  0  0  0  0  0  0  0  0
   28.5874  -21.7857   -4.2198 C   0  0  0  0  0  0  0  0  0  0  0  0
   27.1478  -21.0607   -6.0145 C   0  0  0  0  0  0  0  0  0  0  0  0
   26.7708  -19.9859   -6.9632 C   0  0  2  0  0  0  0  0  0  0  0  0
   26.5238  -20.7164   -8.2421 N   0  0  0  0  0  0  0  0  0  0  0  0
   27.8145  -19.0127   -7.2802 C   0  0  0  0  0  0  0  0  0  0  0  0
   28.7827  -19.3376   -8.0595 O   0  0  0  0  0  0  0  0  0  0  0  0
   27.8847  -17.7032   -6.8178 O   0  0  0  0  0  0  0  0  0  0  0  0
  1  2  1  0
  2  3  1  0
  3  4  1  1
  3  5  1  0
  5  6  2  0
  7  8  1  0
  8  9  1  0
  9 11  1  0
  9 10  1  1
 11 13  1  0
 12  5  1  0
 11 12  1  6
 13 14  2  0
 16 17  1  6
 16 15  1  0
 18 16  1  0
 19 18  1  1
 19 21  1  0
 20 13  1  0
 20 19  1  0
 21 22  2  0
 21 23  1  0
M  END
$$$$
