SIL.pdb
     RDKit          3D

 23 22  0  0  1  0  0  0  0  0999 V2000
   16.1743  -12.3642  -17.2657 O   0  0  0  0  0  0  0  0  0  0  0  0
   17.2116  -12.6427  -18.1451 C   0  0  0  0  0  0  0  0  0  0  0  0
   18.3114  -13.4379  -17.4411 C   0  0  2  0  0  0  0  0  0  0  0  0
   17.7353  -14.6037  -16.8381 N   0  0  0  0  0  0  0  0  0  0  0  0
   18.9463  -12.6081  -16.4162 C   0  0  0  0  0  0  0  0  0  0  0  0
   18.4439  -12.5403  -15.2635 O   0  0  0  0  0  0  0  0  0  0  0  0
   24.2143  -10.7353  -14.2518 C   0  0  0  0  0  0  0  0  0  0  0  0
   22.7507  -10.4579  -14.4047 C   0  0  0  0  0  0  0  0  0  0  0  0
   22.1744  -11.3398  -15.4731 C   0  0  2  0  0  0  0  0  0  0  0  0
   22.9159  -11.2124  -16.7793 C   0  0  0  0  0  0  0  0  0  0  0  0
   20.7107  -11.0494  -15.7155 C   0  0  2  0  0  0  0  0  0  0  0  0
   20.1262  -11.8779  -16.7126 N   0  0  0  0  0  0  0  0  0  0  0  0
   20.5665   -9.6204  -16.1684 C   0  0  0  0  0  0  0  0  0  0  0  0
   20.8523   -9.2665  -17.3446 O   0  0  0  0  0  0  0  0  0  0  0  0
   17.9098   -6.7950  -18.0086 C   0  0  0  0  0  0  0  0  0  0  0  0
   17.6271   -7.3475  -16.6664 C   0  0  2  0  0  0  0  0  0  0  0  0
   16.1848   -6.9835  -16.2353 C   0  0  0  0  0  0  0  0  0  0  0  0
   18.4957   -6.9898  -15.5434 C   0  0  0  0  0  0  0  0  0  0  0  0
   19.9591   -7.2211  -15.5895 C   0  0  2  0  0  0  0  0  0  0  0  0
   20.0981   -8.6661  -15.2389 N   0  0  0  0  0  0  0  0  0  0  0  0
   20.7542   -6.5121  -14.5885 C   0  0  0  0  0  0  0  0  0  0  0  0
   20.9760   -7.0501  -13.4432 O   0  0  0  0  0  0  0  0  0  0  0  0
   21.3360   -5.2581  -14.7390 O   0  0  0  0  0  0  0  0  0  0  0  0
  1  2  1  0
  2  3  1  0
  3  4  1  1
  3  5  1  0
  5  6  2  0
  7  8  1  0
  8  9  1  0
  9 11  1  0
  9 10  1  6
 11 13  1  0
 12  5  1  0
 11 12  1  6
 13 14  2  0
 16 17  1  1
 16 15  1  0
 18 16  1  0
 19 18  1  1
 19 21  1  0
 20 13  1  0
 20 19  1  0
 21 22  2  0
 21 23  1  0
M  END
$$$$
