SIL.pdb
     RDKit          3D

 23 22  0  0  1  0  0  0  0  0999 V2000
   25.0556  -11.5799  -18.2613 O   0  0  0  0  0  0  0  0  0  0  0  0
   23.9933  -10.7099  -18.0580 C   0  0  0  0  0  0  0  0  0  0  0  0
   22.7305  -11.2383  -18.7389 C   0  0  2  0  0  0  0  0  0  0  0  0
   22.8358  -11.0268  -20.1526 N   0  0  0  0  0  0  0  0  0  0  0  0
   21.5549  -10.5406  -18.2162 C   0  0  0  0  0  0  0  0  0  0  0  0
   21.1679   -9.4710  -18.7566 O   0  0  0  0  0  0  0  0  0  0  0  0
   17.8123  -13.5521  -16.9548 C   0  0  0  0  0  0  0  0  0  0  0  0
   18.0675  -12.1417  -17.3887 C   0  0  0  0  0  0  0  0  0  0  0  0
   18.5703  -11.3350  -16.2279 C   0  0  2  0  0  0  0  0  0  0  0  0
   17.4742  -10.5350  -15.5718 C   0  0  0  0  0  0  0  0  0  0  0  0
   19.6817  -10.3940  -16.6340 C   0  0  2  0  0  0  0  0  0  0  0  0
   20.8466  -11.0616  -17.1027 N   0  0  0  0  0  0  0  0  0  0  0  0
   20.0796   -9.5668  -15.4402 C   0  0  0  0  0  0  0  0  0  0  0  0
   20.4917  -10.0988  -14.3738 O   0  0  0  0  0  0  0  0  0  0  0  0
   21.6155   -3.6188  -15.0736 C   0  0  0  0  0  0  0  0  0  0  0  0
   21.3007   -4.8646  -14.3419 C   0  0  2  0  0  0  0  0  0  0  0  0
   22.5037   -5.2806  -13.4595 C   0  0  0  0  0  0  0  0  0  0  0  0
   20.9064   -6.0592  -15.0909 C   0  0  0  0  0  0  0  0  0  0  0  0
   20.3729   -7.2623  -14.4087 C   0  0  2  0  0  0  0  0  0  0  0  0
   19.9822   -8.1613  -15.5354 N   0  0  0  0  0  0  0  0  0  0  0  0
   19.1473   -7.0726  -13.6350 C   0  0  0  0  0  0  0  0  0  0  0  0
   18.0212   -6.9316  -14.2370 O   0  0  0  0  0  0  0  0  0  0  0  0
   19.0490   -7.0303  -12.2487 O   0  0  0  0  0  0  0  0  0  0  0  0
  1  2  1  0
  2  3  1  0
  3  4  1  6
  3  5  1  0
  5  6  2  0
  7  8  1  0
  8  9  1  0
  9 11  1  0
  9 10  1  6
 11 13  1  0
 12  5  1  0
 11 12  1  1
 13 14  2  0
 16 17  1  6
 16 15  1  0
 18 16  1  0
 19 18  1  6
 19 21  1  0
 20 13  1  0
 20 19  1  0
 21 22  2  0
 21 23  1  0
M  END
$$$$
