SIL.pdb
     RDKit          3D

 23 22  0  0  1  0  0  0  0  0999 V2000
   21.0144  -20.4395  -12.1161 O   0  0  0  0  0  0  0  0  0  0  0  0
   22.1017  -20.9257  -11.4033 C   0  0  0  0  0  0  0  0  0  0  0  0
   23.3478  -20.9648  -12.2882 C   0  0  2  0  0  0  0  0  0  0  0  0
   23.1317  -21.8881  -13.3630 N   0  0  0  0  0  0  0  0  0  0  0  0
   24.5063  -21.3823  -11.4971 C   0  0  0  0  0  0  0  0  0  0  0  0
   24.6431  -22.5918  -11.1745 O   0  0  0  0  0  0  0  0  0  0  0  0
   30.0248  -21.8644  -11.1747 C   0  0  0  0  0  0  0  0  0  0  0  0
   29.1083  -21.0766  -10.2906 C   0  0  0  0  0  0  0  0  0  0  0  0
   27.9267  -20.5967  -11.0810 C   0  0  2  0  0  0  0  0  0  0  0  0
   28.0128  -19.1260  -11.3998 C   0  0  0  0  0  0  0  0  0  0  0  0
   26.6226  -20.8624  -10.3637 C   0  0  2  0  0  0  0  0  0  0  0  0
   25.4784  -20.4322  -11.0903 N   0  0  0  0  0  0  0  0  0  0  0  0
   26.6313  -20.1268   -9.0497 C   0  0  0  0  0  0  0  0  0  0  0  0
   26.0152  -19.0372   -8.8968 O   0  0  0  0  0  0  0  0  0  0  0  0
   29.8328  -21.3490   -3.8578 C   0  0  0  0  0  0  0  0  0  0  0  0
   28.7798  -20.5427   -4.5118 C   0  0  2  0  0  0  0  0  0  0  0  0
   27.5099  -20.5086   -3.6259 C   0  0  0  0  0  0  0  0  0  0  0  0
   28.3328  -20.8997   -5.8595 C   0  0  0  0  0  0  0  0  0  0  0  0
   27.4466  -20.0082   -6.6451 C   0  0  2  0  0  0  0  0  0  0  0  0
   27.3529  -20.6862   -7.9725 N   0  0  0  0  0  0  0  0  0  0  0  0
   27.9713  -18.6757   -6.9384 C   0  0  0  0  0  0  0  0  0  0  0  0
   28.7709  -18.5022   -7.9287 O   0  0  0  0  0  0  0  0  0  0  0  0
   27.6875  -17.5085   -6.2381 O   0  0  0  0  0  0  0  0  0  0  0  0
  1  2  1  0
  2  3  1  0
  3  4  1  6
  3  5  1  0
  5  6  2  0
  7  8  1  0
  8  9  1  0
  9 11  1  0
  9 10  1  1
 11 13  1  0
 12  5  1  0
 11 12  1  6
 13 14  2  0
 16 17  1  1
 16 15  1  0
 18 16  1  0
 19 18  1  1
 19 21  1  0
 20 13  1  0
 20 19  1  0
 21 22  2  0
 21 23  1  0
M  END
$$$$
