SIL.pdb
     RDKit          3D

 23 22  0  0  1  0  0  0  0  0999 V2000
   26.1069  -36.6633  -13.0057 O   0  0  0  0  0  0  0  0  0  0  0  0
   26.5509  -35.9279  -11.9153 C   0  0  0  0  0  0  0  0  0  0  0  0
   25.9003  -34.5444  -11.9018 C   0  0  2  0  0  0  0  0  0  0  0  0
   26.3746  -33.7915  -13.0255 N   0  0  0  0  0  0  0  0  0  0  0  0
   26.2358  -33.8495  -10.6581 C   0  0  0  0  0  0  0  0  0  0  0  0
   27.2406  -33.0917  -10.6140 O   0  0  0  0  0  0  0  0  0  0  0  0
   22.3224  -32.0875   -7.2587 C   0  0  0  0  0  0  0  0  0  0  0  0
   23.5004  -32.3015   -8.1581 C   0  0  0  0  0  0  0  0  0  0  0  0
   24.5756  -33.0442   -7.4206 C   0  0  2  0  0  0  0  0  0  0  0  0
   25.0461  -32.3003   -6.1970 C   0  0  0  0  0  0  0  0  0  0  0  0
   25.7691  -33.3320   -8.3027 C   0  0  2  0  0  0  0  0  0  0  0  0
   25.4356  -34.0238   -9.4995 N   0  0  0  0  0  0  0  0  0  0  0  0
   26.7442  -34.1878   -7.5382 C   0  0  0  0  0  0  0  0  0  0  0  0
   26.5897  -35.4349   -7.4328 O   0  0  0  0  0  0  0  0  0  0  0  0
   32.6392  -33.3279   -6.1115 C   0  0  0  0  0  0  0  0  0  0  0  0
   31.4375  -34.1864   -6.0361 C   0  0  2  0  0  0  0  0  0  0  0  0
   31.6804  -35.5085   -6.8053 C   0  0  0  0  0  0  0  0  0  0  0  0
   30.1513  -33.6671   -6.5047 C   0  0  0  0  0  0  0  0  0  0  0  0
   28.8726  -34.3310   -6.1561 C   0  0  2  0  0  0  0  0  0  0  0  0
   27.8540  -33.5608   -6.9304 N   0  0  0  0  0  0  0  0  0  0  0  0
   28.4495  -34.2197   -4.7613 C   0  0  0  0  0  0  0  0  0  0  0  0
   27.8693  -33.1508   -4.3477 O   0  0  0  0  0  0  0  0  0  0  0  0
   28.6034  -35.1889   -3.7762 O   0  0  0  0  0  0  0  0  0  0  0  0
  1  2  1  0
  2  3  1  0
  3  4  1  6
  3  5  1  0
  5  6  2  0
  7  8  1  0
  8  9  1  0
  9 11  1  0
  9 10  1  1
 11 13  1  0
 12  5  1  0
 11 12  1  6
 13 14  2  0
 16 17  1  6
 16 15  1  0
 18 16  1  0
 19 18  1  1
 19 21  1  0
 20 13  1  0
 20 19  1  0
 21 22  2  0
 21 23  1  0
M  END
$$$$
