SIL.pdb
     RDKit          3D

 23 22  0  0  1  0  0  0  0  0999 V2000
   26.6905  -24.9837  -16.7280 O   0  0  0  0  0  0  0  0  0  0  0  0
   27.6841  -24.3319  -16.0104 C   0  0  0  0  0  0  0  0  0  0  0  0
   27.9394  -22.9411  -16.5917 C   0  0  2  0  0  0  0  0  0  0  0  0
   29.2054  -22.9383  -17.2639 N   0  0  0  0  0  0  0  0  0  0  0  0
   27.9425  -21.9466  -15.5178 C   0  0  0  0  0  0  0  0  0  0  0  0
   29.0354  -21.5356  -15.0460 O   0  0  0  0  0  0  0  0  0  0  0  0
   25.5805  -17.4753  -16.2484 C   0  0  0  0  0  0  0  0  0  0  0  0
   26.4720  -18.5869  -15.7881 C   0  0  0  0  0  0  0  0  0  0  0  0
   25.9439  -19.1666  -14.5089 C   0  0  2  0  0  0  0  0  0  0  0  0
   25.9287  -18.1578  -13.3890 C   0  0  0  0  0  0  0  0  0  0  0  0
   26.7400  -20.3727  -14.0651 C   0  0  2  0  0  0  0  0  0  0  0  0
   26.7207  -21.4410  -15.0035 N   0  0  0  0  0  0  0  0  0  0  0  0
   26.1616  -20.8894  -12.7743 C   0  0  0  0  0  0  0  0  0  0  0  0
   25.1876  -21.6902  -12.7588 O   0  0  0  0  0  0  0  0  0  0  0  0
   26.9027  -19.0686   -6.9676 C   0  0  0  0  0  0  0  0  0  0  0  0
   26.8253  -20.2757   -7.8182 C   0  0  2  0  0  0  0  0  0  0  0  0
   27.8250  -21.3457   -7.3139 C   0  0  0  0  0  0  0  0  0  0  0  0
   27.0437  -20.1549   -9.2609 C   0  0  0  0  0  0  0  0  0  0  0  0
   26.2524  -20.9441  -10.2347 C   0  0  2  0  0  0  0  0  0  0  0  0
   26.7372  -20.4555  -11.5600 N   0  0  0  0  0  0  0  0  0  0  0  0
   24.8120  -20.6952  -10.2449 C   0  0  0  0  0  0  0  0  0  0  0  0
   24.3448  -19.6404  -10.8102 O   0  0  0  0  0  0  0  0  0  0  0  0
   23.8331  -21.5122   -9.6902 O   0  0  0  0  0  0  0  0  0  0  0  0
  1  2  1  0
  2  3  1  0
  3  4  1  1
  3  5  1  0
  5  6  2  0
  7  8  1  0
  8  9  1  0
  9 11  1  0
  9 10  1  1
 11 13  1  0
 12  5  1  0
 11 12  1  6
 13 14  2  0
 16 17  1  1
 16 15  1  0
 18 16  1  0
 19 18  1  1
 19 21  1  0
 20 13  1  0
 20 19  1  0
 21 22  2  0
 21 23  1  0
M  END
$$$$
