SIL.pdb
     RDKit          3D

 23 22  0  0  1  0  0  0  0  0999 V2000
   15.4009  -14.2061  -14.8822 O   0  0  0  0  0  0  0  0  0  0  0  0
   16.3034  -13.2052  -15.2146 C   0  0  0  0  0  0  0  0  0  0  0  0
   16.3069  -12.9675  -16.7249 C   0  0  2  0  0  0  0  0  0  0  0  0
   16.7573  -14.1566  -17.3863 N   0  0  0  0  0  0  0  0  0  0  0  0
   17.1938  -11.8494  -17.0499 C   0  0  0  0  0  0  0  0  0  0  0  0
   18.4142  -12.0616  -17.2765 O   0  0  0  0  0  0  0  0  0  0  0  0
   14.7117   -7.6762  -18.9431 C   0  0  0  0  0  0  0  0  0  0  0  0
   16.0322   -8.3684  -19.0831 C   0  0  0  0  0  0  0  0  0  0  0  0
   16.8387   -8.1844  -17.8314 C   0  0  2  0  0  0  0  0  0  0  0  0
   17.8473   -7.0718  -17.9611 C   0  0  0  0  0  0  0  0  0  0  0  0
   17.5618   -9.4514  -17.4347 C   0  0  2  0  0  0  0  0  0  0  0  0
   16.6874  -10.5254  -17.1117 N   0  0  0  0  0  0  0  0  0  0  0  0
   18.4061   -9.1700  -16.2200 C   0  0  0  0  0  0  0  0  0  0  0  0
   17.8889   -8.9314  -15.0949 O   0  0  0  0  0  0  0  0  0  0  0  0
   24.1808  -10.7521  -14.9379 C   0  0  0  0  0  0  0  0  0  0  0  0
   23.0208   -9.9108  -14.5728 C   0  0  2  0  0  0  0  0  0  0  0  0
   22.4757  -10.3312  -13.1854 C   0  0  0  0  0  0  0  0  0  0  0  0
   21.8647   -9.8509  -15.4690 C   0  0  0  0  0  0  0  0  0  0  0  0
   20.7260   -8.9386  -15.2073 C   0  0  2  0  0  0  0  0  0  0  0  0
   19.8110   -9.1776  -16.3631 N   0  0  0  0  0  0  0  0  0  0  0  0
   21.0244   -7.5083  -15.2520 C   0  0  0  0  0  0  0  0  0  0  0  0
   21.1710   -6.9161  -16.3825 O   0  0  0  0  0  0  0  0  0  0  0  0
   21.1706   -6.6649  -14.1562 O   0  0  0  0  0  0  0  0  0  0  0  0
  1  2  1  0
  2  3  1  0
  3  4  1  6
  3  5  1  0
  5  6  2  0
  7  8  1  0
  8  9  1  0
  9 11  1  0
  9 10  1  6
 11 13  1  0
 12  5  1  0
 11 12  1  1
 13 14  2  0
 16 17  1  1
 16 15  1  0
 18 16  1  0
 19 18  1  6
 19 21  1  0
 20 13  1  0
 20 19  1  0
 21 22  2  0
 21 23  1  0
M  END
$$$$
