SIL.pdb
     RDKit          3D

 23 22  0  0  1  0  0  0  0  0999 V2000
   15.3821  -13.9793  -15.5700 O   0  0  0  0  0  0  0  0  0  0  0  0
   16.4613  -13.1638  -15.8814 C   0  0  0  0  0  0  0  0  0  0  0  0
   16.5253  -12.9127  -17.3882 C   0  0  2  0  0  0  0  0  0  0  0  0
   16.8831  -14.1313  -18.0526 N   0  0  0  0  0  0  0  0  0  0  0  0
   17.5178  -11.8766  -17.6777 C   0  0  0  0  0  0  0  0  0  0  0  0
   18.7450  -12.1572  -17.6480 O   0  0  0  0  0  0  0  0  0  0  0  0
   16.2966   -7.4997  -20.8972 C   0  0  0  0  0  0  0  0  0  0  0  0
   16.9697   -8.6957  -20.2981 C   0  0  0  0  0  0  0  0  0  0  0  0
   17.5382   -8.3406  -18.9557 C   0  0  2  0  0  0  0  0  0  0  0  0
   18.6279   -7.3039  -19.0538 C   0  0  0  0  0  0  0  0  0  0  0  0
   18.0845   -9.5526  -18.2360 C   0  0  2  0  0  0  0  0  0  0  0  0
   17.1064  -10.5556  -17.9921 N   0  0  0  0  0  0  0  0  0  0  0  0
   18.6355   -9.1197  -16.9030 C   0  0  0  0  0  0  0  0  0  0  0  0
   17.8803   -8.7565  -15.9607 O   0  0  0  0  0  0  0  0  0  0  0  0
   23.9358  -10.2842  -14.0748 C   0  0  0  0  0  0  0  0  0  0  0  0
   22.7620   -9.3894  -14.1664 C   0  0  2  0  0  0  0  0  0  0  0  0
   21.9582   -9.4307  -12.8431 C   0  0  0  0  0  0  0  0  0  0  0  0
   21.7910   -9.5840  -15.2447 C   0  0  0  0  0  0  0  0  0  0  0  0
   20.6741   -8.6345  -15.4645 C   0  0  2  0  0  0  0  0  0  0  0  0
   20.0359   -9.1270  -16.7216 N   0  0  0  0  0  0  0  0  0  0  0  0
   21.0524   -7.2517  -15.7502 C   0  0  0  0  0  0  0  0  0  0  0  0
   21.4571   -6.9244  -16.9247 O   0  0  0  0  0  0  0  0  0  0  0  0
   21.0187   -6.1888  -14.8543 O   0  0  0  0  0  0  0  0  0  0  0  0
  1  2  1  0
  2  3  1  0
  3  4  1  6
  3  5  1  0
  5  6  2  0
  7  8  1  0
  8  9  1  0
  9 11  1  0
  9 10  1  6
 11 13  1  0
 12  5  1  0
 11 12  1  1
 13 14  2  0
 16 17  1  1
 16 15  1  0
 18 16  1  0
 19 18  1  6
 19 21  1  0
 20 13  1  0
 20 19  1  0
 21 22  2  0
 21 23  1  0
M  END
$$$$
