SIL.pdb
     RDKit          3D

 23 22  0  0  1  0  0  0  0  0999 V2000
   29.8920  -22.3647  -15.4217 O   0  0  0  0  0  0  0  0  0  0  0  0
   29.3158  -21.5060  -14.4957 C   0  0  0  0  0  0  0  0  0  0  0  0
   27.9297  -21.0639  -14.9656 C   0  0  2  0  0  0  0  0  0  0  0  0
   28.0745  -20.1460  -16.0569 N   0  0  0  0  0  0  0  0  0  0  0  0
   27.2133  -20.4199  -13.8636 C   0  0  0  0  0  0  0  0  0  0  0  0
   27.3642  -19.1878  -13.6519 O   0  0  0  0  0  0  0  0  0  0  0  0
   23.6208  -20.4827  -14.9371 C   0  0  0  0  0  0  0  0  0  0  0  0
   23.7332  -19.6662  -13.6869 C   0  0  0  0  0  0  0  0  0  0  0  0
   24.0282  -20.5611  -12.5192 C   0  0  2  0  0  0  0  0  0  0  0  0
   23.1837  -20.2264  -11.3164 C   0  0  0  0  0  0  0  0  0  0  0  0
   25.4853  -20.5056  -12.1200 C   0  0  2  0  0  0  0  0  0  0  0  0
   26.3483  -21.1753  -13.0305 N   0  0  0  0  0  0  0  0  0  0  0  0
   25.6463  -21.1608  -10.7737 C   0  0  0  0  0  0  0  0  0  0  0  0
   25.5863  -22.4128  -10.6352 O   0  0  0  0  0  0  0  0  0  0  0  0
   28.9743  -20.8157   -7.4620 C   0  0  0  0  0  0  0  0  0  0  0  0
   28.0603  -19.6709   -7.6637 C   0  0  2  0  0  0  0  0  0  0  0  0
   28.4644  -18.4988   -6.7355 C   0  0  0  0  0  0  0  0  0  0  0  0
   26.6195  -19.8601   -7.4854 C   0  0  0  0  0  0  0  0  0  0  0  0
   25.8689  -20.8790   -8.2574 C   0  0  2  0  0  0  0  0  0  0  0  0
   25.8693  -20.3368   -9.6489 N   0  0  0  0  0  0  0  0  0  0  0  0
   24.4566  -21.0347   -7.9137 C   0  0  0  0  0  0  0  0  0  0  0  0
   23.5617  -20.3682   -8.5503 O   0  0  0  0  0  0  0  0  0  0  0  0
   23.9376  -21.8688   -6.9296 O   0  0  0  0  0  0  0  0  0  0  0  0
  1  2  1  0
  2  3  1  0
  3  4  1  6
  3  5  1  0
  5  6  2  0
  7  8  1  0
  8  9  1  0
  9 11  1  0
  9 10  1  1
 11 13  1  0
 12  5  1  0
 11 12  1  6
 13 14  2  0
 16 17  1  1
 16 15  1  0
 18 16  1  0
 19 18  1  1
 19 21  1  0
 20 13  1  0
 20 19  1  0
 21 22  2  0
 21 23  1  0
M  END
$$$$
