THN.pdb
     RDKit          3D

 26 26  0  0  1  0  0  0  0  0999 V2000
   15.6456  -15.8146   18.3064 C   0  0  0  0  0  0  0  0  0  0  0  0
   14.5645  -15.9997   17.2665 C   0  0  1  0  0  0  0  0  0  0  0  0
   13.9184  -17.1934   17.5452 O   0  0  0  0  0  0  0  0  0  0  0  0
   13.6437  -14.8166   17.3623 C   0  0  2  0  0  0  0  0  0  0  0  0
   14.3721  -13.6262   16.9551 N   0  0  0  0  0  0  0  0  0  0  0  0
   13.0569  -14.6437   18.7180 C   0  0  0  0  0  0  0  0  0  0  0  0
   13.7224  -14.0114   19.5679 O   0  0  0  0  0  0  0  0  0  0  0  0
   11.8038  -15.1509   19.0873 N   0  0  0  0  0  0  0  0  0  0  0  0
   11.2104  -15.0599   20.3782 C   0  0  1  0  0  0  0  0  0  0  0  0
    9.7176  -15.2549   20.3941 C   0  0  0  0  0  0  0  0  0  0  0  0
    9.0704  -14.3888   19.3732 C   0  0  0  0  0  0  0  0  0  0  0  0
    8.5675  -13.1135   19.5296 C   0  0  0  0  0  0  0  0  0  0  0  0
    8.0597  -12.6809   18.3398 N   0  0  0  0  0  0  0  0  0  0  0  0
    8.2461  -13.6761   17.4582 C   0  0  0  0  0  0  0  0  0  0  0  0
    8.8513  -14.6955   18.0821 N   0  0  0  0  0  0  0  0  0  0  0  0
   11.8374  -16.0624   21.2698 C   0  0  0  0  0  0  0  0  0  0  0  0
   12.6582  -16.8731   20.7891 O   0  0  0  0  0  0  0  0  0  0  0  0
   15.0153  -17.4332   22.5840 N   0  0  0  0  0  0  0  0  0  0  0  0
   14.9219  -16.3146   23.4479 C   0  0  0  0  0  0  0  0  0  0  0  0
   15.9410  -16.0010   24.1151 O   0  0  0  0  0  0  0  0  0  0  0  0
   13.6783  -15.5375   23.5687 C   0  0  0  0  0  0  0  0  0  0  0  0
   12.4794  -16.4812   23.6082 C   0  0  2  0  0  0  0  0  0  0  0  0
   11.4858  -16.0702   22.6428 N   0  0  0  0  0  0  0  0  0  0  0  0
   11.8555  -16.4949   24.9430 C   0  0  0  0  0  0  0  0  0  0  0  0
   10.5882  -15.9787   25.1949 O   0  0  0  0  0  0  0  0  0  0  0  0
   12.4741  -16.9899   25.9181 O   0  0  0  0  0  0  0  0  0  0  0  0
  2  1  1  1
  2  4  1  0
  3  2  1  0
  4  6  1  0
  4  5  1  1
  6  7  2  0
  8  6  1  0
  8  9  1  0
  9 10  1  6
 10 11  1  0
 11 15  1  0
 12 13  1  0
 12 11  2  0
 13 14  1  0
 14 15  2  0
 16 17  2  0
 16  9  1  0
 19 18  1  0
 19 20  2  0
 22 21  1  1
 21 19  1  0
 22 23  1  0
 23 16  1  0
 24 25  1  0
 24 22  1  0
 26 24  2  0
M  END
$$$$
