THN.pdb
     RDKit          3D

 26 26  0  0  1  0  0  0  0  0999 V2000
    9.6013  -20.1055   20.3162 C   0  0  0  0  0  0  0  0  0  0  0  0
   10.0824  -19.6646   18.9529 C   0  0  1  0  0  0  0  0  0  0  0  0
    9.8174  -20.6944   18.0644 O   0  0  0  0  0  0  0  0  0  0  0  0
    9.3430  -18.4046   18.6029 C   0  0  2  0  0  0  0  0  0  0  0  0
    9.5560  -18.1165   17.1939 N   0  0  0  0  0  0  0  0  0  0  0  0
    9.7351  -17.2454   19.4482 C   0  0  0  0  0  0  0  0  0  0  0  0
   10.8880  -16.7807   19.3067 O   0  0  0  0  0  0  0  0  0  0  0  0
    8.8824  -16.6522   20.3889 N   0  0  0  0  0  0  0  0  0  0  0  0
    9.2233  -15.5956   21.2800 C   0  0  1  0  0  0  0  0  0  0  0  0
    8.1062  -14.6235   21.5520 C   0  0  0  0  0  0  0  0  0  0  0  0
    7.7482  -13.8846   20.3121 C   0  0  0  0  0  0  0  0  0  0  0  0
    8.0710  -12.5883   19.9668 C   0  0  0  0  0  0  0  0  0  0  0  0
    7.5439  -12.3044   18.7412 N   0  0  0  0  0  0  0  0  0  0  0  0
    6.9030  -13.4113   18.3332 C   0  0  0  0  0  0  0  0  0  0  0  0
    7.0286  -14.3536   19.2772 N   0  0  0  0  0  0  0  0  0  0  0  0
    9.6816  -16.1750   22.5634 C   0  0  0  0  0  0  0  0  0  0  0  0
    8.8682  -16.8122   23.2665 O   0  0  0  0  0  0  0  0  0  0  0  0
   11.5485  -20.1020   24.9840 N   0  0  0  0  0  0  0  0  0  0  0  0
   12.2873  -19.3159   24.0662 C   0  0  0  0  0  0  0  0  0  0  0  0
   13.5344  -19.4749   24.0274 O   0  0  0  0  0  0  0  0  0  0  0  0
   11.6278  -18.3420   23.1820 C   0  0  0  0  0  0  0  0  0  0  0  0
   11.6371  -16.9617   23.8334 C   0  0  2  0  0  0  0  0  0  0  0  0
   11.0312  -15.9882   22.9540 N   0  0  0  0  0  0  0  0  0  0  0  0
   13.0113  -16.5249   24.1370 C   0  0  0  0  0  0  0  0  0  0  0  0
   13.7827  -15.7748   23.2547 O   0  0  0  0  0  0  0  0  0  0  0  0
   13.5365  -16.8296   25.2369 O   0  0  0  0  0  0  0  0  0  0  0  0
  2  1  1  1
  2  4  1  0
  3  2  1  0
  4  6  1  0
  4  5  1  6
  6  7  2  0
  8  6  1  0
  8  9  1  0
  9 10  1  1
 10 11  1  0
 11 15  1  0
 12 13  1  0
 12 11  2  0
 13 14  1  0
 14 15  2  0
 16 17  2  0
 16  9  1  0
 19 18  1  0
 19 20  2  0
 22 21  1  6
 21 19  1  0
 22 23  1  0
 23 16  1  0
 24 25  1  0
 24 22  1  0
 26 24  2  0
M  END
$$$$
