THN.pdb
     RDKit          3D

 26 26  0  0  1  0  0  0  0  0999 V2000
    7.6452  -21.2393   18.0961 C   0  0  0  0  0  0  0  0  0  0  0  0
    8.9500  -20.8020   17.4710 C   0  0  1  0  0  0  0  0  0  0  0  0
    9.3663  -21.8159   16.6232 O   0  0  0  0  0  0  0  0  0  0  0  0
    8.6869  -19.5173   16.7380 C   0  0  2  0  0  0  0  0  0  0  0  0
    9.4069  -19.5467   15.4753 N   0  0  0  0  0  0  0  0  0  0  0  0
    9.0489  -18.3110   17.5289 C   0  0  0  0  0  0  0  0  0  0  0  0
   10.2439  -17.9410   17.5193 O   0  0  0  0  0  0  0  0  0  0  0  0
    8.1233  -17.5733   18.2793 N   0  0  0  0  0  0  0  0  0  0  0  0
    8.4204  -16.4627   19.1190 C   0  0  1  0  0  0  0  0  0  0  0  0
    7.2143  -15.6872   19.5783 C   0  0  0  0  0  0  0  0  0  0  0  0
    7.6330  -14.4715   20.3253 C   0  0  0  0  0  0  0  0  0  0  0  0
    8.9114  -13.9994   20.5410 C   0  0  0  0  0  0  0  0  0  0  0  0
    8.8496  -12.8523   21.2765 N   0  0  0  0  0  0  0  0  0  0  0  0
    7.5490  -12.6176   21.5130 C   0  0  0  0  0  0  0  0  0  0  0  0
    6.8257  -13.5898   20.9414 N   0  0  0  0  0  0  0  0  0  0  0  0
    9.1671  -16.9403   20.3053 C   0  0  0  0  0  0  0  0  0  0  0  0
    8.8495  -18.0325   20.8232 O   0  0  0  0  0  0  0  0  0  0  0  0
   13.4992  -17.9122   23.1487 N   0  0  0  0  0  0  0  0  0  0  0  0
   13.1824  -16.5357   23.0443 C   0  0  0  0  0  0  0  0  0  0  0  0
   13.5992  -15.7667   23.9481 O   0  0  0  0  0  0  0  0  0  0  0  0
   12.3920  -16.0112   21.9193 C   0  0  0  0  0  0  0  0  0  0  0  0
   11.0089  -16.6567   21.9125 C   0  0  2  0  0  0  0  0  0  0  0  0
   10.2207  -16.1417   20.8163 N   0  0  0  0  0  0  0  0  0  0  0  0
   10.2897  -16.3894   23.1704 C   0  0  0  0  0  0  0  0  0  0  0  0
   10.4941  -17.1250   24.3338 O   0  0  0  0  0  0  0  0  0  0  0  0
    9.4465  -15.4595   23.2241 O   0  0  0  0  0  0  0  0  0  0  0  0
  2  1  1  6
  2  4  1  0
  3  2  1  0
  4  6  1  0
  4  5  1  6
  6  7  2  0
  8  6  1  0
  8  9  1  0
  9 10  1  1
 10 11  1  0
 11 15  1  0
 12 13  1  0
 12 11  2  0
 13 14  1  0
 14 15  2  0
 16 17  2  0
 16  9  1  0
 19 18  1  0
 19 20  2  0
 22 21  1  1
 21 19  1  0
 22 23  1  0
 23 16  1  0
 24 25  1  0
 24 22  1  0
 26 24  2  0
M  END
$$$$
