THN.pdb
     RDKit          3D

 26 26  0  0  1  0  0  0  0  0999 V2000
    8.2414  -11.5330   25.9629 C   0  0  0  0  0  0  0  0  0  0  0  0
    7.1197  -12.1930   26.7315 C   0  0  1  0  0  0  0  0  0  0  0  0
    6.3150  -11.1864   27.2407 O   0  0  0  0  0  0  0  0  0  0  0  0
    6.3820  -13.0825   25.7716 C   0  0  2  0  0  0  0  0  0  0  0  0
    5.1723  -13.5632   26.4190 N   0  0  0  0  0  0  0  0  0  0  0  0
    7.2073  -14.2167   25.2770 C   0  0  0  0  0  0  0  0  0  0  0  0
    6.9689  -15.3571   25.7328 O   0  0  0  0  0  0  0  0  0  0  0  0
    8.2319  -14.0715   24.3320 N   0  0  0  0  0  0  0  0  0  0  0  0
    8.9616  -15.1286   23.7181 C   0  0  1  0  0  0  0  0  0  0  0  0
    9.5375  -14.7883   22.3692 C   0  0  0  0  0  0  0  0  0  0  0  0
    8.4581  -14.3746   21.4337 C   0  0  0  0  0  0  0  0  0  0  0  0
    7.0931  -14.4858   21.6015 C   0  0  0  0  0  0  0  0  0  0  0  0
    6.4620  -13.9843   20.5012 N   0  0  0  0  0  0  0  0  0  0  0  0
    7.4245  -13.5680   19.6630 C   0  0  0  0  0  0  0  0  0  0  0  0
    8.6170  -13.8041   20.2262 N   0  0  0  0  0  0  0  0  0  0  0  0
   10.0596  -15.5451   24.6202 C   0  0  0  0  0  0  0  0  0  0  0  0
   11.2143  -15.1161   24.4091 O   0  0  0  0  0  0  0  0  0  0  0  0
   11.2583  -14.4656   27.8308 N   0  0  0  0  0  0  0  0  0  0  0  0
   10.6706  -15.5048   28.5929 C   0  0  0  0  0  0  0  0  0  0  0  0
   10.3754  -15.2600   29.7908 O   0  0  0  0  0  0  0  0  0  0  0  0
   10.4092  -16.8314   28.0124 C   0  0  0  0  0  0  0  0  0  0  0  0
   10.8471  -16.8526   26.5505 C   0  0  2  0  0  0  0  0  0  0  0  0
    9.7649  -16.4187   25.6967 N   0  0  0  0  0  0  0  0  0  0  0  0
   11.2546  -18.2065   26.1357 C   0  0  0  0  0  0  0  0  0  0  0  0
   12.3978  -18.8370   26.6173 O   0  0  0  0  0  0  0  0  0  0  0  0
   10.5560  -18.8451   25.3095 O   0  0  0  0  0  0  0  0  0  0  0  0
  2  1  1  6
  2  4  1  0
  3  2  1  0
  4  6  1  0
  4  5  1  1
  6  7  2  0
  8  6  1  0
  8  9  1  0
  9 10  1  6
 10 11  1  0
 11 15  1  0
 12 13  1  0
 12 11  2  0
 13 14  1  0
 14 15  2  0
 16 17  2  0
 16  9  1  0
 19 18  1  0
 19 20  2  0
 22 21  1  1
 21 19  1  0
 22 23  1  0
 23 16  1  0
 24 25  1  0
 24 22  1  0
 26 24  2  0
M  END
$$$$
