THN.pdb
     RDKit          3D

 26 26  0  0  1  0  0  0  0  0999 V2000
    7.2803  -20.5423   17.2435 C   0  0  0  0  0  0  0  0  0  0  0  0
    8.2313  -19.8049   18.1580 C   0  0  1  0  0  0  0  0  0  0  0  0
    9.5198  -20.1657   17.7976 O   0  0  0  0  0  0  0  0  0  0  0  0
    7.9785  -18.3352   17.9760 C   0  0  2  0  0  0  0  0  0  0  0  0
    8.2475  -17.9851   16.5908 N   0  0  0  0  0  0  0  0  0  0  0  0
    8.7750  -17.4881   18.9033 C   0  0  0  0  0  0  0  0  0  0  0  0
    9.8952  -17.0885   18.5153 O   0  0  0  0  0  0  0  0  0  0  0  0
    8.3353  -17.1182   20.1814 N   0  0  0  0  0  0  0  0  0  0  0  0
    9.0547  -16.3222   21.1172 C   0  0  1  0  0  0  0  0  0  0  0  0
    8.2955  -15.1302   21.6365 C   0  0  0  0  0  0  0  0  0  0  0  0
    8.0097  -14.1761   20.5323 C   0  0  0  0  0  0  0  0  0  0  0  0
    6.7878  -13.8470   19.9823 C   0  0  0  0  0  0  0  0  0  0  0  0
    6.9732  -12.9298   18.9898 N   0  0  0  0  0  0  0  0  0  0  0  0
    8.2934  -12.6942   18.9265 C   0  0  0  0  0  0  0  0  0  0  0  0
    8.9086  -13.4427   19.8518 N   0  0  0  0  0  0  0  0  0  0  0  0
    9.4615  -17.1704   22.2609 C   0  0  0  0  0  0  0  0  0  0  0  0
    8.6915  -18.0749   22.6498 O   0  0  0  0  0  0  0  0  0  0  0  0
   11.3238  -20.5539   24.2407 N   0  0  0  0  0  0  0  0  0  0  0  0
   12.4901  -19.8978   23.7765 C   0  0  0  0  0  0  0  0  0  0  0  0
   13.5187  -20.5952   23.5829 O   0  0  0  0  0  0  0  0  0  0  0  0
   12.5091  -18.4480   23.5255 C   0  0  0  0  0  0  0  0  0  0  0  0
   11.1632  -17.8384   23.9082 C   0  0  2  0  0  0  0  0  0  0  0  0
   10.7139  -16.9290   22.8789 N   0  0  0  0  0  0  0  0  0  0  0  0
   11.2558  -17.0968   25.1781 C   0  0  0  0  0  0  0  0  0  0  0  0
   10.9811  -17.6712   26.4153 O   0  0  0  0  0  0  0  0  0  0  0  0
   11.5965  -15.8875   25.1735 O   0  0  0  0  0  0  0  0  0  0  0  0
  2  1  1  6
  2  4  1  0
  3  2  1  0
  4  6  1  0
  4  5  1  6
  6  7  2  0
  8  6  1  0
  8  9  1  0
  9 10  1  1
 10 11  1  0
 11 15  1  0
 12 13  1  0
 12 11  2  0
 13 14  1  0
 14 15  2  0
 16 17  2  0
 16  9  1  0
 19 18  1  0
 19 20  2  0
 22 21  1  6
 21 19  1  0
 22 23  1  0
 23 16  1  0
 24 25  1  0
 24 22  1  0
 26 24  2  0
M  END
$$$$
