THN.pdb
     RDKit          3D

 26 26  0  0  1  0  0  0  0  0999 V2000
    2.7836  -18.8085   21.1654 C   0  0  0  0  0  0  0  0  0  0  0  0
    3.9906  -18.3547   21.9541 C   0  0  1  0  0  0  0  0  0  0  0  0
    4.3412  -19.3867   22.8097 O   0  0  0  0  0  0  0  0  0  0  0  0
    5.0776  -18.0381   20.9666 C   0  0  2  0  0  0  0  0  0  0  0  0
    5.4207  -19.2538   20.2471 N   0  0  0  0  0  0  0  0  0  0  0  0
    6.2816  -17.4363   21.5992 C   0  0  0  0  0  0  0  0  0  0  0  0
    7.2254  -18.1985   21.9048 O   0  0  0  0  0  0  0  0  0  0  0  0
    6.4099  -16.0669   21.8677 N   0  0  0  0  0  0  0  0  0  0  0  0
    7.4907  -15.4454   22.5549 C   0  0  1  0  0  0  0  0  0  0  0  0
    7.6246  -13.9675   22.3008 C   0  0  0  0  0  0  0  0  0  0  0  0
    8.0414  -13.7185   20.8953 C   0  0  0  0  0  0  0  0  0  0  0  0
    9.1703  -14.1736   20.2456 C   0  0  0  0  0  0  0  0  0  0  0  0
    9.1676  -13.7126   18.9618 N   0  0  0  0  0  0  0  0  0  0  0  0
    8.0509  -12.9812   18.8190 C   0  0  0  0  0  0  0  0  0  0  0  0
    7.3808  -12.9883   19.9791 N   0  0  0  0  0  0  0  0  0  0  0  0
    7.3323  -15.6723   24.0097 C   0  0  0  0  0  0  0  0  0  0  0  0
    6.2992  -15.2594   24.5794 O   0  0  0  0  0  0  0  0  0  0  0  0
    8.2416  -19.2766   25.2309 N   0  0  0  0  0  0  0  0  0  0  0  0
    7.0085  -18.6595   25.5551 C   0  0  0  0  0  0  0  0  0  0  0  0
    5.9544  -19.1870   25.1162 O   0  0  0  0  0  0  0  0  0  0  0  0
    6.9508  -17.4409   26.3777 C   0  0  0  0  0  0  0  0  0  0  0  0
    8.1908  -16.5871   26.1267 C   0  0  2  0  0  0  0  0  0  0  0  0
    8.3594  -16.3520   24.7109 N   0  0  0  0  0  0  0  0  0  0  0  0
    9.4049  -17.2473   26.6380 C   0  0  0  0  0  0  0  0  0  0  0  0
   10.5219  -17.5012   25.8480 O   0  0  0  0  0  0  0  0  0  0  0  0
    9.4621  -17.6087   27.8399 O   0  0  0  0  0  0  0  0  0  0  0  0
  2  1  1  6
  2  4  1  0
  3  2  1  0
  4  6  1  0
  4  5  1  1
  6  7  2  0
  8  6  1  0
  8  9  1  0
  9 10  1  1
 10 11  1  0
 11 15  1  0
 12 13  1  0
 12 11  2  0
 13 14  1  0
 14 15  2  0
 16 17  2  0
 16  9  1  0
 19 18  1  0
 19 20  2  0
 22 21  1  6
 21 19  1  0
 22 23  1  0
 23 16  1  0
 24 25  1  0
 24 22  1  0
 26 24  2  0
M  END
$$$$
