THN.pdb
     RDKit          3D

 26 26  0  0  1  0  0  0  0  0999 V2000
   10.8844  -20.0519   18.6365 C   0  0  0  0  0  0  0  0  0  0  0  0
   11.6212  -19.0729   17.7514 C   0  0  1  0  0  0  0  0  0  0  0  0
   11.9134  -19.7237   16.5635 O   0  0  0  0  0  0  0  0  0  0  0  0
   10.7199  -17.8886   17.5464 C   0  0  2  0  0  0  0  0  0  0  0  0
   11.0547  -17.2637   16.2771 N   0  0  0  0  0  0  0  0  0  0  0  0
   10.7901  -16.9041   18.6590 C   0  0  0  0  0  0  0  0  0  0  0  0
   11.8559  -16.2668   18.8109 O   0  0  0  0  0  0  0  0  0  0  0  0
    9.7281  -16.6569   19.5394 N   0  0  0  0  0  0  0  0  0  0  0  0
    9.7599  -15.7901   20.6683 C   0  0  1  0  0  0  0  0  0  0  0  0
    8.4315  -15.1756   21.0211 C   0  0  0  0  0  0  0  0  0  0  0  0
    7.9493  -14.3104   19.9119 C   0  0  0  0  0  0  0  0  0  0  0  0
    8.2492  -12.9856   19.6696 C   0  0  0  0  0  0  0  0  0  0  0  0
    7.5946  -12.5741   18.5460 N   0  0  0  0  0  0  0  0  0  0  0  0
    6.8982  -13.6311   18.0986 C   0  0  0  0  0  0  0  0  0  0  0  0
    7.1142  -14.6673   18.9199 N   0  0  0  0  0  0  0  0  0  0  0  0
   10.2706  -16.5399   21.8387 C   0  0  0  0  0  0  0  0  0  0  0  0
    9.8672  -17.7065   22.0353 O   0  0  0  0  0  0  0  0  0  0  0  0
   13.6744  -17.3470   22.0620 N   0  0  0  0  0  0  0  0  0  0  0  0
   14.0713  -16.5854   23.1883 C   0  0  0  0  0  0  0  0  0  0  0  0
   15.2870  -16.2798   23.2920 O   0  0  0  0  0  0  0  0  0  0  0  0
   13.1016  -16.1601   24.2101 C   0  0  0  0  0  0  0  0  0  0  0  0
   11.7055  -16.6496   23.8349 C   0  0  2  0  0  0  0  0  0  0  0  0
   11.2026  -15.9092   22.7004 N   0  0  0  0  0  0  0  0  0  0  0  0
   10.7633  -16.4832   24.9555 C   0  0  0  0  0  0  0  0  0  0  0  0
    9.6447  -15.6581   24.8918 O   0  0  0  0  0  0  0  0  0  0  0  0
   10.9542  -17.1035   26.0314 O   0  0  0  0  0  0  0  0  0  0  0  0
  2  1  1  1
  2  4  1  0
  3  2  1  0
  4  6  1  0
  4  5  1  6
  6  7  2  0
  8  6  1  0
  8  9  1  0
  9 10  1  1
 10 11  1  0
 11 15  1  0
 12 13  1  0
 12 11  2  0
 13 14  1  0
 14 15  2  0
 16 17  2  0
 16  9  1  0
 19 18  1  0
 19 20  2  0
 22 21  1  1
 21 19  1  0
 22 23  1  0
 23 16  1  0
 24 25  1  0
 24 22  1  0
 26 24  2  0
M  END
$$$$
