THN.pdb
     RDKit          3D

 26 26  0  0  1  0  0  0  0  0999 V2000
   15.1319  -16.1685   15.3811 C   0  0  0  0  0  0  0  0  0  0  0  0
   14.6781  -16.0721   16.8196 C   0  0  1  0  0  0  0  0  0  0  0  0
   15.7948  -16.2465   17.6213 O   0  0  0  0  0  0  0  0  0  0  0  0
   14.0508  -14.7192   17.0016 C   0  0  2  0  0  0  0  0  0  0  0  0
   15.0747  -13.7035   16.8188 N   0  0  0  0  0  0  0  0  0  0  0  0
   13.3751  -14.5630   18.3173 C   0  0  0  0  0  0  0  0  0  0  0  0
   14.0288  -14.0539   19.2546 O   0  0  0  0  0  0  0  0  0  0  0  0
   12.0513  -14.9553   18.5569 N   0  0  0  0  0  0  0  0  0  0  0  0
   11.4033  -14.9882   19.8241 C   0  0  1  0  0  0  0  0  0  0  0  0
    9.9417  -15.3453   19.7687 C   0  0  0  0  0  0  0  0  0  0  0  0
    9.1445  -14.1922   19.2726 C   0  0  0  0  0  0  0  0  0  0  0  0
    9.5933  -12.9451   18.8894 C   0  0  0  0  0  0  0  0  0  0  0  0
    8.5304  -12.1843   18.4995 N   0  0  0  0  0  0  0  0  0  0  0  0
    7.4375  -12.9512   18.6398 C   0  0  0  0  0  0  0  0  0  0  0  0
    7.8110  -14.1517   19.1027 N   0  0  0  0  0  0  0  0  0  0  0  0
   12.1034  -15.9559   20.6996 C   0  0  0  0  0  0  0  0  0  0  0  0
   12.4599  -17.0559   20.2253 O   0  0  0  0  0  0  0  0  0  0  0  0
   15.4811  -18.0810   23.6833 N   0  0  0  0  0  0  0  0  0  0  0  0
   15.2990  -16.7205   24.0326 C   0  0  0  0  0  0  0  0  0  0  0  0
   15.8575  -16.3030   25.0794 O   0  0  0  0  0  0  0  0  0  0  0  0
   14.4849  -15.8160   23.2054 C   0  0  0  0  0  0  0  0  0  0  0  0
   13.1570  -16.4845   22.8597 C   0  0  2  0  0  0  0  0  0  0  0  0
   12.3475  -15.6026   22.0503 N   0  0  0  0  0  0  0  0  0  0  0  0
   12.4001  -16.8271   24.0766 C   0  0  0  0  0  0  0  0  0  0  0  0
   12.7123  -17.9161   24.8845 O   0  0  0  0  0  0  0  0  0  0  0  0
   11.4218  -16.1200   24.4252 O   0  0  0  0  0  0  0  0  0  0  0  0
  2  1  1  6
  2  4  1  0
  3  2  1  0
  4  6  1  0
  4  5  1  1
  6  7  2  0
  8  6  1  0
  8  9  1  0
  9 10  1  6
 10 11  1  0
 11 15  1  0
 12 13  1  0
 12 11  2  0
 13 14  1  0
 14 15  2  0
 16 17  2  0
 16  9  1  0
 19 18  1  0
 19 20  2  0
 22 21  1  1
 21 19  1  0
 22 23  1  0
 23 16  1  0
 24 25  1  0
 24 22  1  0
 26 24  2  0
M  END
$$$$
