THN.pdb
     RDKit          3D

 26 26  0  0  1  0  0  0  0  0999 V2000
   12.8440  -18.5294   17.2931 C   0  0  0  0  0  0  0  0  0  0  0  0
   13.3106  -17.4174   16.3820 C   0  0  1  0  0  0  0  0  0  0  0  0
   13.4117  -17.9414   15.1031 O   0  0  0  0  0  0  0  0  0  0  0  0
   12.2958  -16.3130   16.4674 C   0  0  2  0  0  0  0  0  0  0  0  0
   12.6229  -15.3030   15.4741 N   0  0  0  0  0  0  0  0  0  0  0  0
   12.2012  -15.7130   17.8250 C   0  0  0  0  0  0  0  0  0  0  0  0
   13.1669  -15.0299   18.2322 O   0  0  0  0  0  0  0  0  0  0  0  0
   11.0908  -15.8742   18.6647 N   0  0  0  0  0  0  0  0  0  0  0  0
   10.9174  -15.2820   19.9477 C   0  0  1  0  0  0  0  0  0  0  0  0
    9.4878  -15.2116   20.4146 C   0  0  0  0  0  0  0  0  0  0  0  0
    8.6811  -14.3712   19.4904 C   0  0  0  0  0  0  0  0  0  0  0  0
    8.4887  -13.0054   19.5257 C   0  0  0  0  0  0  0  0  0  0  0  0
    7.6778  -12.6381   18.4922 N   0  0  0  0  0  0  0  0  0  0  0  0
    7.3722  -13.7627   17.8257 C   0  0  0  0  0  0  0  0  0  0  0  0
    7.9753  -14.7967   18.4275 N   0  0  0  0  0  0  0  0  0  0  0  0
   11.7125  -16.0399   20.9409 C   0  0  0  0  0  0  0  0  0  0  0  0
   11.7214  -17.2885   20.8859 O   0  0  0  0  0  0  0  0  0  0  0  0
   16.5737  -16.8556   22.6172 N   0  0  0  0  0  0  0  0  0  0  0  0
   15.9488  -15.6895   23.1230 C   0  0  0  0  0  0  0  0  0  0  0  0
   16.3971  -15.1989   24.1909 O   0  0  0  0  0  0  0  0  0  0  0  0
   14.8113  -15.0639   22.4302 C   0  0  0  0  0  0  0  0  0  0  0  0
   13.5810  -15.9604   22.5403 C   0  0  2  0  0  0  0  0  0  0  0  0
   12.4397  -15.3233   21.9240 N   0  0  0  0  0  0  0  0  0  0  0  0
   13.2529  -16.2446   23.9484 C   0  0  0  0  0  0  0  0  0  0  0  0
   12.0443  -15.8824   24.5351 O   0  0  0  0  0  0  0  0  0  0  0  0
   14.0848  -16.8410   24.6770 O   0  0  0  0  0  0  0  0  0  0  0  0
  2  1  1  1
  2  4  1  0
  3  2  1  0
  4  6  1  0
  4  5  1  6
  6  7  2  0
  8  6  1  0
  8  9  1  0
  9 10  1  1
 10 11  1  0
 11 15  1  0
 12 13  1  0
 12 11  2  0
 13 14  1  0
 14 15  2  0
 16 17  2  0
 16  9  1  0
 19 18  1  0
 19 20  2  0
 22 21  1  1
 21 19  1  0
 22 23  1  0
 23 16  1  0
 24 25  1  0
 24 22  1  0
 26 24  2  0
M  END
$$$$
