THN.pdb
     RDKit          3D

 26 26  0  0  1  0  0  0  0  0999 V2000
   11.6504  -18.6444   15.2624 C   0  0  0  0  0  0  0  0  0  0  0  0
   11.3308  -17.7326   14.1000 C   0  0  1  0  0  0  0  0  0  0  0  0
   10.7163  -18.5011   13.1244 O   0  0  0  0  0  0  0  0  0  0  0  0
   10.4340  -16.6444   14.6180 C   0  0  2  0  0  0  0  0  0  0  0  0
   10.0469  -15.7921   13.5056 N   0  0  0  0  0  0  0  0  0  0  0  0
   11.0562  -15.8466   15.7081 C   0  0  0  0  0  0  0  0  0  0  0  0
   12.0109  -15.0944   15.4118 O   0  0  0  0  0  0  0  0  0  0  0  0
   10.6285  -15.8959   17.0417 N   0  0  0  0  0  0  0  0  0  0  0  0
   11.0688  -15.0452   18.0949 C   0  0  1  0  0  0  0  0  0  0  0  0
   10.2084  -15.0842   19.3299 C   0  0  0  0  0  0  0  0  0  0  0  0
    8.9531  -14.3174   19.1119 C   0  0  0  0  0  0  0  0  0  0  0  0
    8.5606  -13.6232   17.9860 C   0  0  0  0  0  0  0  0  0  0  0  0
    7.3372  -13.0619   18.2068 N   0  0  0  0  0  0  0  0  0  0  0  0
    6.9772  -13.4045   19.4540 C   0  0  0  0  0  0  0  0  0  0  0  0
    7.9479  -14.1558   19.9907 N   0  0  0  0  0  0  0  0  0  0  0  0
   12.4563  -15.4096   18.4620 C   0  0  0  0  0  0  0  0  0  0  0  0
   12.7988  -16.6109   18.4234 O   0  0  0  0  0  0  0  0  0  0  0  0
   17.4509  -15.1850   19.0981 N   0  0  0  0  0  0  0  0  0  0  0  0
   17.0443  -13.9173   18.6147 C   0  0  0  0  0  0  0  0  0  0  0  0
   17.9409  -13.0889   18.3117 O   0  0  0  0  0  0  0  0  0  0  0  0
   15.6220  -13.5698   18.4677 C   0  0  0  0  0  0  0  0  0  0  0  0
   14.7533  -14.7075   18.9974 C   0  0  2  0  0  0  0  0  0  0  0  0
   13.3536  -14.3818   18.8461 N   0  0  0  0  0  0  0  0  0  0  0  0
   15.0215  -14.9633   20.4235 C   0  0  0  0  0  0  0  0  0  0  0  0
   15.9430  -15.9073   20.8661 O   0  0  0  0  0  0  0  0  0  0  0  0
   14.4035  -14.3131   21.3032 O   0  0  0  0  0  0  0  0  0  0  0  0
  2  1  1  1
  2  4  1  0
  3  2  1  0
  4  6  1  0
  4  5  1  6
  6  7  2  0
  8  6  1  0
  8  9  1  0
  9 10  1  1
 10 11  1  0
 11 15  1  0
 12 13  1  0
 12 11  2  0
 13 14  1  0
 14 15  2  0
 16 17  2  0
 16  9  1  0
 19 18  1  0
 19 20  2  0
 22 21  1  1
 21 19  1  0
 22 23  1  0
 23 16  1  0
 24 25  1  0
 24 22  1  0
 26 24  2  0
M  END
$$$$
