THN.pdb
     RDKit          3D

 26 26  0  0  1  0  0  0  0  0999 V2000
    7.5130  -16.1009   19.3687 C   0  0  0  0  0  0  0  0  0  0  0  0
    8.2354  -14.9042   18.7935 C   0  0  1  0  0  0  0  0  0  0  0  0
    7.7546  -14.7051   17.5092 O   0  0  0  0  0  0  0  0  0  0  0  0
    7.9549  -13.7359   19.6952 C   0  0  2  0  0  0  0  0  0  0  0  0
    8.4339  -12.5246   19.0494 N   0  0  0  0  0  0  0  0  0  0  0  0
    8.5516  -13.8887   21.0489 C   0  0  0  0  0  0  0  0  0  0  0  0
    9.7984  -13.9433   21.1367 O   0  0  0  0  0  0  0  0  0  0  0  0
    7.7910  -13.9740   22.2228 N   0  0  0  0  0  0  0  0  0  0  0  0
    8.2948  -14.2177   23.5319 C   0  0  1  0  0  0  0  0  0  0  0  0
    7.3340  -13.8851   24.6424 C   0  0  0  0  0  0  0  0  0  0  0  0
    8.0030  -14.0172   25.9639 C   0  0  0  0  0  0  0  0  0  0  0  0
    9.3088  -14.3758   26.2283 C   0  0  0  0  0  0  0  0  0  0  0  0
    9.5116  -14.3747   27.5772 N   0  0  0  0  0  0  0  0  0  0  0  0
    8.3457  -14.0198   28.1404 C   0  0  0  0  0  0  0  0  0  0  0  0
    7.4466  -13.8071   27.1702 N   0  0  0  0  0  0  0  0  0  0  0  0
    8.6848  -15.6420   23.6419 C   0  0  0  0  0  0  0  0  0  0  0  0
    8.3132  -16.4431   22.7575 O   0  0  0  0  0  0  0  0  0  0  0  0
   13.0195  -18.7402   24.3157 N   0  0  0  0  0  0  0  0  0  0  0  0
   11.9086  -18.5539   23.4571 C   0  0  0  0  0  0  0  0  0  0  0  0
   11.6083  -19.4906   22.6732 O   0  0  0  0  0  0  0  0  0  0  0  0
   11.1240  -17.3091   23.4730 C   0  0  0  0  0  0  0  0  0  0  0  0
   10.1745  -17.3104   24.6680 C   0  0  2  0  0  0  0  0  0  0  0  0
    9.4689  -16.0520   24.7491 N   0  0  0  0  0  0  0  0  0  0  0  0
   10.9064  -17.5173   25.9300 C   0  0  0  0  0  0  0  0  0  0  0  0
   11.3044  -18.7721   26.3809 O   0  0  0  0  0  0  0  0  0  0  0  0
   11.1982  -16.5322   26.6533 O   0  0  0  0  0  0  0  0  0  0  0  0
  2  1  1  1
  2  4  1  0
  3  2  1  0
  4  6  1  0
  4  5  1  6
  6  7  2  0
  8  6  1  0
  8  9  1  0
  9 10  1  1
 10 11  1  0
 11 15  1  0
 12 13  1  0
 12 11  2  0
 13 14  1  0
 14 15  2  0
 16 17  2  0
 16  9  1  0
 19 18  1  0
 19 20  2  0
 22 21  1  6
 21 19  1  0
 22 23  1  0
 23 16  1  0
 24 25  1  0
 24 22  1  0
 26 24  2  0
M  END
$$$$
