MCN.pdb
     RDKit          3D

 23 22  0  0  1  0  0  0  0  0999 V2000
    8.9086  -12.1219   19.2907 C   0  0  0  0  0  0  0  0  0  0  0  0
    7.1512  -12.2405   19.7199 S   0  0  0  0  0  0  0  0  0  0  0  0
    6.8339  -13.8376   20.4730 C   0  0  0  0  0  0  0  0  0  0  0  0
    8.0094  -14.8057   20.2844 C   0  0  0  0  0  0  0  0  0  0  0  0
    8.0191  -15.7067   21.4749 C   0  0  2  0  0  0  0  0  0  0  0  0
    6.6769  -16.2215   21.6664 N   0  0  0  0  0  0  0  0  0  0  0  0
    8.5420  -15.0981   22.7012 C   0  0  0  0  0  0  0  0  0  0  0  0
    9.7438  -14.7046   22.7096 O   0  0  0  0  0  0  0  0  0  0  0  0
    7.7779  -14.9301   23.8649 N   0  0  0  0  0  0  0  0  0  0  0  0
    8.2950  -14.4206   25.1360 C   0  0  1  0  0  0  0  0  0  0  0  0
    7.1282  -14.1211   26.0631 C   0  0  0  0  0  0  0  0  0  0  0  0
    6.0267  -12.8525   25.4306 S   0  0  0  0  0  0  0  0  0  0  0  0
    9.1479  -15.4360   25.7923 C   0  0  0  0  0  0  0  0  0  0  0  0
    9.6197  -15.1259   26.9409 O   0  0  0  0  0  0  0  0  0  0  0  0
   10.0107  -17.9910   28.6966 N   0  0  0  0  0  0  0  0  0  0  0  0
    9.5345  -19.0119   27.8296 C   0  0  0  0  0  0  0  0  0  0  0  0
    8.9389  -20.0162   28.3371 O   0  0  0  0  0  0  0  0  0  0  0  0
    9.7374  -18.8838   26.3715 C   0  0  0  0  0  0  0  0  0  0  0  0
   10.3977  -17.6133   25.9776 C   0  0  2  0  0  0  0  0  0  0  0  0
    9.4905  -16.7003   25.2899 N   0  0  0  0  0  0  0  0  0  0  0  0
   11.5711  -17.8585   25.1249 C   0  0  0  0  0  0  0  0  0  0  0  0
   11.5989  -17.3922   23.9602 O   0  0  0  0  0  0  0  0  0  0  0  0
   12.6464  -18.5859   25.5621 O   0  0  0  0  0  0  0  0  0  0  0  0
  1  2  1  0
  2  3  1  0
  4  5  1  0
  4  3  1  0
  5  7  1  0
  5  6  1  1
  7  9  1  0
  7  8  2  0
  9 10  1  0
 10 13  1  0
 10 11  1  1
 12 11  1  0
 13 20  1  0
 14 13  2  0
 16 17  2  0
 16 15  1  0
 18 16  1  0
 19 21  1  0
 19 18  1  6
 20 19  1  0
 21 22  2  0
 21 23  1  0
M  END
$$$$
