MCN.pdb
     RDKit          3D

 23 22  0  0  1  0  0  0  0  0999 V2000
    8.4042  -11.4318   19.3313 C   0  0  0  0  0  0  0  0  0  0  0  0
    6.9329  -12.4905   19.2971 S   0  0  0  0  0  0  0  0  0  0  0  0
    7.1735  -13.8720   20.4161 C   0  0  0  0  0  0  0  0  0  0  0  0
    8.4497  -14.6596   20.0909 C   0  0  0  0  0  0  0  0  0  0  0  0
    8.5849  -15.7114   21.1419 C   0  0  2  0  0  0  0  0  0  0  0  0
    7.3253  -16.4238   21.2368 N   0  0  0  0  0  0  0  0  0  0  0  0
    9.0244  -15.2190   22.4503 C   0  0  0  0  0  0  0  0  0  0  0  0
   10.1910  -14.7412   22.5500 O   0  0  0  0  0  0  0  0  0  0  0  0
    8.2175  -15.2506   23.5967 N   0  0  0  0  0  0  0  0  0  0  0  0
    8.6126  -14.7371   24.9093 C   0  0  1  0  0  0  0  0  0  0  0  0
    7.4462  -13.9745   25.5164 C   0  0  0  0  0  0  0  0  0  0  0  0
    7.8136  -13.2842   27.1323 S   0  0  0  0  0  0  0  0  0  0  0  0
    8.9504  -15.8522   25.8214 C   0  0  0  0  0  0  0  0  0  0  0  0
    8.0739  -16.7777   25.9369 O   0  0  0  0  0  0  0  0  0  0  0  0
   11.5632  -19.6920   28.0587 N   0  0  0  0  0  0  0  0  0  0  0  0
   12.2097  -19.1286   26.9250 C   0  0  0  0  0  0  0  0  0  0  0  0
   13.1667  -19.7715   26.3849 O   0  0  0  0  0  0  0  0  0  0  0  0
   11.7581  -17.8224   26.4021 C   0  0  0  0  0  0  0  0  0  0  0  0
   10.5713  -17.2815   27.1123 C   0  0  2  0  0  0  0  0  0  0  0  0
   10.1283  -16.0018   26.5686 N   0  0  0  0  0  0  0  0  0  0  0  0
   10.8294  -17.1289   28.5526 C   0  0  0  0  0  0  0  0  0  0  0  0
   10.7974  -15.9861   29.0700 O   0  0  0  0  0  0  0  0  0  0  0  0
   11.1064  -18.2019   29.3578 O   0  0  0  0  0  0  0  0  0  0  0  0
  1  2  1  0
  2  3  1  0
  4  5  1  0
  4  3  1  0
  5  7  1  0
  5  6  1  1
  7  9  1  0
  7  8  2  0
  9 10  1  0
 10 13  1  0
 10 11  1  1
 12 11  1  0
 13 20  1  0
 14 13  2  0
 16 17  2  0
 16 15  1  0
 18 16  1  0
 19 21  1  0
 19 18  1  6
 20 19  1  0
 21 22  2  0
 21 23  1  0
M  END
$$$$
