MCN.pdb
     RDKit          3D

 23 22  0  0  1  0  0  0  0  0999 V2000
    6.0763  -11.1482   26.4108 C   0  0  0  0  0  0  0  0  0  0  0  0
    6.0374  -12.5359   27.5769 S   0  0  0  0  0  0  0  0  0  0  0  0
    5.7977  -14.0640   26.6681 C   0  0  0  0  0  0  0  0  0  0  0  0
    7.0774  -14.5124   25.9498 C   0  0  0  0  0  0  0  0  0  0  0  0
    6.7185  -15.7177   25.1451 C   0  0  2  0  0  0  0  0  0  0  0  0
    6.3786  -16.7905   26.0598 N   0  0  0  0  0  0  0  0  0  0  0  0
    7.7379  -16.1369   24.1793 C   0  0  0  0  0  0  0  0  0  0  0  0
    8.4046  -17.1824   24.4273 O   0  0  0  0  0  0  0  0  0  0  0  0
    8.0114  -15.4379   22.9948 N   0  0  0  0  0  0  0  0  0  0  0  0
    8.9717  -15.8661   21.9764 C   0  0  1  0  0  0  0  0  0  0  0  0
    8.9132  -14.9029   20.8018 C   0  0  0  0  0  0  0  0  0  0  0  0
    7.2677  -14.7330   20.1047 S   0  0  0  0  0  0  0  0  0  0  0  0
   10.3482  -15.8386   22.5184 C   0  0  0  0  0  0  0  0  0  0  0  0
   10.6725  -14.8014   23.1945 O   0  0  0  0  0  0  0  0  0  0  0  0
   11.2199  -19.1942   24.8139 N   0  0  0  0  0  0  0  0  0  0  0  0
   12.2337  -18.1999   24.8788 C   0  0  0  0  0  0  0  0  0  0  0  0
   12.3946  -17.5611   25.9683 O   0  0  0  0  0  0  0  0  0  0  0  0
   13.0725  -17.9350   23.6914 C   0  0  0  0  0  0  0  0  0  0  0  0
   12.6686  -16.7168   22.9444 C   0  0  2  0  0  0  0  0  0  0  0  0
   11.3312  -16.8287   22.3713 N   0  0  0  0  0  0  0  0  0  0  0  0
   13.6260  -16.4002   21.8732 C   0  0  0  0  0  0  0  0  0  0  0  0
   14.8229  -16.1592   22.1632 O   0  0  0  0  0  0  0  0  0  0  0  0
   13.2531  -16.3587   20.5557 O   0  0  0  0  0  0  0  0  0  0  0  0
  1  2  1  0
  2  3  1  0
  4  5  1  0
  4  3  1  0
  5  7  1  0
  5  6  1  1
  7  9  1  0
  7  8  2  0
  9 10  1  0
 10 13  1  0
 10 11  1  6
 12 11  1  0
 13 20  1  0
 14 13  2  0
 16 17  2  0
 16 15  1  0
 18 16  1  0
 19 21  1  0
 19 18  1  6
 20 19  1  0
 21 22  2  0
 21 23  1  0
M  END
$$$$
