MCN.pdb
     RDKit          3D

 23 22  0  0  1  0  0  0  0  0999 V2000
   10.0322  -13.4327   29.5072 C   0  0  0  0  0  0  0  0  0  0  0  0
    9.1316  -13.7519   27.9665 S   0  0  0  0  0  0  0  0  0  0  0  0
    7.7711  -14.8730   28.2994 C   0  0  0  0  0  0  0  0  0  0  0  0
    6.9652  -15.1910   27.0329 C   0  0  0  0  0  0  0  0  0  0  0  0
    7.8721  -15.9577   26.1279 C   0  0  2  0  0  0  0  0  0  0  0  0
    9.2299  -15.4994   26.3501 N   0  0  0  0  0  0  0  0  0  0  0  0
    7.5116  -15.9041   24.7084 C   0  0  0  0  0  0  0  0  0  0  0  0
    6.3847  -16.3591   24.3586 O   0  0  0  0  0  0  0  0  0  0  0  0
    8.3523  -15.3743   23.7191 N   0  0  0  0  0  0  0  0  0  0  0  0
    8.0841  -15.4266   22.2810 C   0  0  1  0  0  0  0  0  0  0  0  0
    8.2750  -14.0396   21.6890 C   0  0  0  0  0  0  0  0  0  0  0  0
    7.5771  -12.7330   22.7032 S   0  0  0  0  0  0  0  0  0  0  0  0
    9.0339  -16.3416   21.6100 C   0  0  0  0  0  0  0  0  0  0  0  0
    8.9783  -16.3816   20.3320 O   0  0  0  0  0  0  0  0  0  0  0  0
   14.4286  -15.7467   22.4526 N   0  0  0  0  0  0  0  0  0  0  0  0
   13.4386  -15.8590   21.4388 C   0  0  0  0  0  0  0  0  0  0  0  0
   13.8141  -15.9715   20.2275 O   0  0  0  0  0  0  0  0  0  0  0  0
   12.0086  -15.8457   21.8111 C   0  0  0  0  0  0  0  0  0  0  0  0
   11.3915  -17.1962   21.8291 C   0  0  2  0  0  0  0  0  0  0  0  0
    9.9876  -17.1655   22.2263 N   0  0  0  0  0  0  0  0  0  0  0  0
   12.1234  -18.1105   22.7195 C   0  0  0  0  0  0  0  0  0  0  0  0
   13.3314  -18.3625   22.4915 O   0  0  0  0  0  0  0  0  0  0  0  0
   11.5262  -18.7032   23.8005 O   0  0  0  0  0  0  0  0  0  0  0  0
  1  2  1  0
  2  3  1  0
  4  5  1  0
  4  3  1  0
  5  7  1  0
  5  6  1  6
  7  9  1  0
  7  8  2  0
  9 10  1  0
 10 13  1  0
 10 11  1  6
 12 11  1  0
 13 20  1  0
 14 13  2  0
 16 17  2  0
 16 15  1  0
 18 16  1  0
 19 21  1  0
 19 18  1  1
 20 19  1  0
 21 22  2  0
 21 23  1  0
M  END
$$$$
