MCN.pdb
     RDKit          3D

 23 22  0  0  1  0  0  0  0  0999 V2000
    5.6333  -12.1866   26.9404 C   0  0  0  0  0  0  0  0  0  0  0  0
    7.2378  -12.9201   27.3583 S   0  0  0  0  0  0  0  0  0  0  0  0
    7.4041  -14.4953   26.5159 C   0  0  0  0  0  0  0  0  0  0  0  0
    6.0441  -15.0697   26.0974 C   0  0  0  0  0  0  0  0  0  0  0  0
    6.3122  -16.4028   25.4808 C   0  0  2  0  0  0  0  0  0  0  0  0
    6.7906  -17.2957   26.5185 N   0  0  0  0  0  0  0  0  0  0  0  0
    7.2222  -16.3761   24.3323 C   0  0  0  0  0  0  0  0  0  0  0  0
    8.1177  -17.2658   24.2564 O   0  0  0  0  0  0  0  0  0  0  0  0
    7.1503  -15.4148   23.3140 N   0  0  0  0  0  0  0  0  0  0  0  0
    8.0137  -15.3854   22.1322 C   0  0  1  0  0  0  0  0  0  0  0  0
    7.7399  -14.1121   21.3482 C   0  0  0  0  0  0  0  0  0  0  0  0
    8.6979  -13.9907   19.8349 S   0  0  0  0  0  0  0  0  0  0  0  0
    9.4383  -15.3755   22.5318 C   0  0  0  0  0  0  0  0  0  0  0  0
    9.6935  -14.9671   23.7175 O   0  0  0  0  0  0  0  0  0  0  0  0
   11.5260  -15.8005   25.0370 N   0  0  0  0  0  0  0  0  0  0  0  0
   11.8399  -17.0762   24.4941 C   0  0  0  0  0  0  0  0  0  0  0  0
   11.9481  -18.0675   25.2857 O   0  0  0  0  0  0  0  0  0  0  0  0
   12.0289  -17.2218   23.0358 C   0  0  0  0  0  0  0  0  0  0  0  0
   11.8784  -15.9456   22.2916 C   0  0  2  0  0  0  0  0  0  0  0  0
   10.5350  -15.7681   21.7499 N   0  0  0  0  0  0  0  0  0  0  0  0
   12.8559  -15.8425   21.1969 C   0  0  0  0  0  0  0  0  0  0  0  0
   14.0814  -15.7959   21.4630 O   0  0  0  0  0  0  0  0  0  0  0  0
   12.4714  -15.7948   19.8830 O   0  0  0  0  0  0  0  0  0  0  0  0
  1  2  1  0
  2  3  1  0
  4  5  1  0
  4  3  1  0
  5  7  1  0
  5  6  1  1
  7  9  1  0
  7  8  2  0
  9 10  1  0
 10 13  1  0
 10 11  1  1
 12 11  1  0
 13 20  1  0
 14 13  2  0
 16 17  2  0
 16 15  1  0
 18 16  1  0
 19 21  1  0
 19 18  1  6
 20 19  1  0
 21 22  2  0
 21 23  1  0
M  END
$$$$
