MCN.pdb
     RDKit          3D

 23 22  0  0  1  0  0  0  0  0999 V2000
    6.3037  -12.1895   26.8814 C   0  0  0  0  0  0  0  0  0  0  0  0
    7.5819  -13.2754   27.5698 S   0  0  0  0  0  0  0  0  0  0  0  0
    7.6473  -14.7910   26.6121 C   0  0  0  0  0  0  0  0  0  0  0  0
    6.2493  -15.2725   26.2017 C   0  0  0  0  0  0  0  0  0  0  0  0
    6.4390  -16.5408   25.4371 C   0  0  2  0  0  0  0  0  0  0  0  0
    7.0359  -17.5211   26.3235 N   0  0  0  0  0  0  0  0  0  0  0  0
    7.2055  -16.4005   24.1959 C   0  0  0  0  0  0  0  0  0  0  0  0
    8.1837  -17.1787   24.0044 O   0  0  0  0  0  0  0  0  0  0  0  0
    6.9095  -15.4477   23.2106 N   0  0  0  0  0  0  0  0  0  0  0  0
    7.6348  -15.3009   21.9476 C   0  0  1  0  0  0  0  0  0  0  0  0
    7.1072  -14.0807   21.2103 C   0  0  0  0  0  0  0  0  0  0  0  0
    7.7007  -13.9610   19.5204 S   0  0  0  0  0  0  0  0  0  0  0  0
    9.0774  -15.0905   22.2003 C   0  0  0  0  0  0  0  0  0  0  0  0
    9.3770  -14.2721   23.1376 O   0  0  0  0  0  0  0  0  0  0  0  0
   13.3966  -17.8740   24.1434 N   0  0  0  0  0  0  0  0  0  0  0  0
   12.8763  -16.5613   23.9795 C   0  0  0  0  0  0  0  0  0  0  0  0
   13.6058  -15.5698   24.3045 O   0  0  0  0  0  0  0  0  0  0  0  0
   11.5137  -16.3793   23.4377 C   0  0  0  0  0  0  0  0  0  0  0  0
   11.4948  -15.7820   22.0783 C   0  0  2  0  0  0  0  0  0  0  0  0
   10.1478  -15.6942   21.5237 N   0  0  0  0  0  0  0  0  0  0  0  0
   12.3500  -16.5349   21.1477 C   0  0  0  0  0  0  0  0  0  0  0  0
   13.5630  -16.7052   21.4207 O   0  0  0  0  0  0  0  0  0  0  0  0
   11.8638  -17.0625   19.9807 O   0  0  0  0  0  0  0  0  0  0  0  0
  1  2  1  0
  2  3  1  0
  4  5  1  0
  4  3  1  0
  5  7  1  0
  5  6  1  1
  7  9  1  0
  7  8  2  0
  9 10  1  0
 10 13  1  0
 10 11  1  1
 12 11  1  0
 13 20  1  0
 14 13  2  0
 16 17  2  0
 16 15  1  0
 18 16  1  0
 19 21  1  0
 19 18  1  1
 20 19  1  0
 21 22  2  0
 21 23  1  0
M  END
$$$$
