MCN.pdb
     RDKit          3D

 23 22  0  0  1  0  0  0  0  0999 V2000
    6.6161  -12.9889   19.1084 C   0  0  0  0  0  0  0  0  0  0  0  0
    6.2562  -13.1189   20.8805 S   0  0  0  0  0  0  0  0  0  0  0  0
    7.7314  -13.6636   21.7441 C   0  0  0  0  0  0  0  0  0  0  0  0
    8.3386  -14.9210   21.1077 C   0  0  0  0  0  0  0  0  0  0  0  0
    9.5372  -15.2790   21.9229 C   0  0  2  0  0  0  0  0  0  0  0  0
   10.2194  -16.3793   21.2694 N   0  0  0  0  0  0  0  0  0  0  0  0
    9.2555  -15.5798   23.3293 C   0  0  0  0  0  0  0  0  0  0  0  0
    9.3161  -16.7847   23.7082 O   0  0  0  0  0  0  0  0  0  0  0  0
    8.9224  -14.5999   24.2754 N   0  0  0  0  0  0  0  0  0  0  0  0
    8.7099  -14.8551   25.7011 C   0  0  1  0  0  0  0  0  0  0  0  0
    7.9685  -13.6769   26.3118 C   0  0  0  0  0  0  0  0  0  0  0  0
    8.2305  -13.5131   28.0802 S   0  0  0  0  0  0  0  0  0  0  0  0
    7.8782  -16.0639   25.8925 C   0  0  0  0  0  0  0  0  0  0  0  0
    6.6104  -15.8887   25.8860 O   0  0  0  0  0  0  0  0  0  0  0  0
    5.8329  -18.0349   23.8545 N   0  0  0  0  0  0  0  0  0  0  0  0
    6.9499  -18.8016   24.2848 C   0  0  0  0  0  0  0  0  0  0  0  0
    7.9160  -18.9815   23.4754 O   0  0  0  0  0  0  0  0  0  0  0  0
    6.9652  -19.3648   25.6509 C   0  0  0  0  0  0  0  0  0  0  0  0
    7.5121  -18.4307   26.6675 C   0  0  2  0  0  0  0  0  0  0  0  0
    8.3327  -17.3782   26.0773 N   0  0  0  0  0  0  0  0  0  0  0  0
    8.3017  -19.1435   27.6838 C   0  0  0  0  0  0  0  0  0  0  0  0
    7.7586  -20.0397   28.3742 O   0  0  0  0  0  0  0  0  0  0  0  0
    9.6235  -18.8603   27.9055 O   0  0  0  0  0  0  0  0  0  0  0  0
  1  2  1  0
  2  3  1  0
  4  5  1  0
  4  3  1  0
  5  7  1  0
  5  6  1  6
  7  9  1  0
  7  8  2  0
  9 10  1  0
 10 13  1  0
 10 11  1  6
 12 11  1  0
 13 20  1  0
 14 13  2  0
 16 17  2  0
 16 15  1  0
 18 16  1  0
 19 21  1  0
 19 18  1  6
 20 19  1  0
 21 22  2  0
 21 23  1  0
M  END
$$$$
