MCN.pdb
     RDKit          3D

 23 22  0  0  1  0  0  0  0  0999 V2000
    7.8512  -12.4689   27.4769 C   0  0  0  0  0  0  0  0  0  0  0  0
    6.4712  -13.2295   26.5802 S   0  0  0  0  0  0  0  0  0  0  0  0
    6.9326  -14.8912   26.0861 C   0  0  0  0  0  0  0  0  0  0  0  0
    5.8248  -15.5789   25.2771 C   0  0  0  0  0  0  0  0  0  0  0  0
    6.3390  -16.9309   24.9073 C   0  0  2  0  0  0  0  0  0  0  0  0
    6.7394  -17.6131   26.1229 N   0  0  0  0  0  0  0  0  0  0  0  0
    7.4155  -16.9275   23.9128 C   0  0  0  0  0  0  0  0  0  0  0  0
    8.1920  -17.9246   23.8667 O   0  0  0  0  0  0  0  0  0  0  0  0
    7.6279  -15.8754   23.0105 N   0  0  0  0  0  0  0  0  0  0  0  0
    8.7120  -15.8253   22.0280 C   0  0  1  0  0  0  0  0  0  0  0  0
    8.6491  -14.5002   21.2857 C   0  0  0  0  0  0  0  0  0  0  0  0
    7.0215  -13.7437   21.3206 S   0  0  0  0  0  0  0  0  0  0  0  0
   10.0264  -15.9063   22.7026 C   0  0  0  0  0  0  0  0  0  0  0  0
   11.0575  -15.7647   21.9578 O   0  0  0  0  0  0  0  0  0  0  0  0
   13.9724  -15.7662   26.0608 N   0  0  0  0  0  0  0  0  0  0  0  0
   12.8404  -15.1275   26.6363 C   0  0  0  0  0  0  0  0  0  0  0  0
   12.9880  -14.4891   27.7279 O   0  0  0  0  0  0  0  0  0  0  0  0
   11.5302  -15.2158   25.9587 C   0  0  0  0  0  0  0  0  0  0  0  0
   11.5752  -15.9792   24.6857 C   0  0  2  0  0  0  0  0  0  0  0  0
   10.2598  -16.1190   24.0695 N   0  0  0  0  0  0  0  0  0  0  0  0
   12.1600  -17.3152   24.8797 C   0  0  0  0  0  0  0  0  0  0  0  0
   11.4712  -18.3347   24.6331 O   0  0  0  0  0  0  0  0  0  0  0  0
   13.4439  -17.4875   25.3251 O   0  0  0  0  0  0  0  0  0  0  0  0
  1  2  1  0
  2  3  1  0
  4  5  1  0
  4  3  1  0
  5  7  1  0
  5  6  1  1
  7  9  1  0
  7  8  2  0
  9 10  1  0
 10 13  1  0
 10 11  1  1
 12 11  1  0
 13 20  1  0
 14 13  2  0
 16 17  2  0
 16 15  1  0
 18 16  1  0
 19 21  1  0
 19 18  1  1
 20 19  1  0
 21 22  2  0
 21 23  1  0
M  END
$$$$
