MCN.pdb
     RDKit          3D

 23 22  0  0  1  0  0  0  0  0999 V2000
   10.6872  -14.0961   29.1682 C   0  0  0  0  0  0  0  0  0  0  0  0
   10.8627  -15.7974   29.7695 S   0  0  0  0  0  0  0  0  0  0  0  0
    9.7072  -16.8548   28.8948 C   0  0  0  0  0  0  0  0  0  0  0  0
    9.0095  -16.1163   27.7447 C   0  0  0  0  0  0  0  0  0  0  0  0
    8.0036  -17.0612   27.1751 C   0  0  2  0  0  0  0  0  0  0  0  0
    8.6670  -18.3217   26.9028 N   0  0  0  0  0  0  0  0  0  0  0  0
    7.2917  -16.5620   25.9954 C   0  0  0  0  0  0  0  0  0  0  0  0
    7.0627  -17.3678   25.0480 O   0  0  0  0  0  0  0  0  0  0  0  0
    6.8517  -15.2371   25.8638 N   0  0  0  0  0  0  0  0  0  0  0  0
    6.7155  -14.5258   24.5917 C   0  0  1  0  0  0  0  0  0  0  0  0
    6.1961  -13.1226   24.8599 C   0  0  0  0  0  0  0  0  0  0  0  0
    5.4201  -12.9487   26.4694 S   0  0  0  0  0  0  0  0  0  0  0  0
    8.0298  -14.4039   23.9232 C   0  0  0  0  0  0  0  0  0  0  0  0
    8.8603  -13.5830   24.4472 O   0  0  0  0  0  0  0  0  0  0  0  0
   12.4124  -16.3906   22.0480 N   0  0  0  0  0  0  0  0  0  0  0  0
   11.8086  -16.7493   23.2839 C   0  0  0  0  0  0  0  0  0  0  0  0
   12.4593  -17.4894   24.0900 O   0  0  0  0  0  0  0  0  0  0  0  0
   10.4525  -16.2568   23.6032 C   0  0  0  0  0  0  0  0  0  0  0  0
    9.8594  -15.4234   22.5267 C   0  0  2  0  0  0  0  0  0  0  0  0
    8.4606  -15.0936   22.7800 N   0  0  0  0  0  0  0  0  0  0  0  0
    9.9687  -16.0808   21.2151 C   0  0  0  0  0  0  0  0  0  0  0  0
    9.0978  -16.9137   20.8651 O   0  0  0  0  0  0  0  0  0  0  0  0
   10.9989  -15.8129   20.3529 O   0  0  0  0  0  0  0  0  0  0  0  0
  1  2  1  0
  2  3  1  0
  4  5  1  0
  4  3  1  0
  5  7  1  0
  5  6  1  6
  7  9  1  0
  7  8  2  0
  9 10  1  0
 10 13  1  0
 10 11  1  1
 12 11  1  0
 13 20  1  0
 14 13  2  0
 16 17  2  0
 16 15  1  0
 18 16  1  0
 19 21  1  0
 19 18  1  1
 20 19  1  0
 21 22  2  0
 21 23  1  0
M  END
$$$$
