MCN.pdb
     RDKit          3D

 23 22  0  0  1  0  0  0  0  0999 V2000
    8.0324  -12.8212   21.1144 C   0  0  0  0  0  0  0  0  0  0  0  0
    7.8893  -11.8420   19.5953 S   0  0  0  0  0  0  0  0  0  0  0  0
    8.4161  -12.8380   18.1992 C   0  0  0  0  0  0  0  0  0  0  0  0
    8.3892  -14.3382   18.5207 C   0  0  0  0  0  0  0  0  0  0  0  0
    8.8859  -15.0471   17.3042 C   0  0  2  0  0  0  0  0  0  0  0  0
    8.1621  -14.5393   16.1547 N   0  0  0  0  0  0  0  0  0  0  0  0
    8.8223  -16.5094   17.3769 C   0  0  0  0  0  0  0  0  0  0  0  0
    8.0634  -17.1173   16.5683 O   0  0  0  0  0  0  0  0  0  0  0  0
    9.5597  -17.2683   18.2971 N   0  0  0  0  0  0  0  0  0  0  0  0
   10.7811  -18.0094   17.9782 C   0  0  1  0  0  0  0  0  0  0  0  0
   11.7910  -17.0588   17.3559 C   0  0  0  0  0  0  0  0  0  0  0  0
   13.1867  -17.8999   16.6026 S   0  0  0  0  0  0  0  0  0  0  0  0
   11.3828  -18.5699   19.2083 C   0  0  0  0  0  0  0  0  0  0  0  0
   12.1032  -19.6177   19.0624 O   0  0  0  0  0  0  0  0  0  0  0  0
   14.3439  -16.9358   23.1563 N   0  0  0  0  0  0  0  0  0  0  0  0
   13.6148  -15.9081   22.4983 C   0  0  0  0  0  0  0  0  0  0  0  0
   13.9241  -14.6950   22.7299 O   0  0  0  0  0  0  0  0  0  0  0  0
   12.5262  -16.2683   21.5663 C   0  0  0  0  0  0  0  0  0  0  0  0
   12.3881  -17.7323   21.3587 C   0  0  2  0  0  0  0  0  0  0  0  0
   11.2485  -18.0732   20.5134 N   0  0  0  0  0  0  0  0  0  0  0  0
   12.2691  -18.4484   22.6383 C   0  0  0  0  0  0  0  0  0  0  0  0
   11.1752  -18.4408   23.2532 O   0  0  0  0  0  0  0  0  0  0  0  0
   13.3219  -19.1306   23.1885 O   0  0  0  0  0  0  0  0  0  0  0  0
  1  2  1  0
  2  3  1  0
  4  5  1  0
  4  3  1  0
  5  7  1  0
  5  6  1  6
  7  9  1  0
  7  8  2  0
  9 10  1  0
 10 13  1  0
 10 11  1  1
 12 11  1  0
 13 20  1  0
 14 13  2  0
 16 17  2  0
 16 15  1  0
 18 16  1  0
 19 21  1  0
 19 18  1  1
 20 19  1  0
 21 22  2  0
 21 23  1  0
M  END
$$$$
