MCN.pdb
     RDKit          3D

 23 22  0  0  1  0  0  0  0  0999 V2000
    8.0775  -11.4541   19.1056 C   0  0  0  0  0  0  0  0  0  0  0  0
    7.3140  -12.8184   18.1877 S   0  0  0  0  0  0  0  0  0  0  0  0
    7.3210  -14.2936   19.2086 C   0  0  0  0  0  0  0  0  0  0  0  0
    8.1300  -14.0967   20.4976 C   0  0  0  0  0  0  0  0  0  0  0  0
    8.1963  -15.4278   21.1707 C   0  0  2  0  0  0  0  0  0  0  0  0
    6.8581  -15.9854   21.2083 N   0  0  0  0  0  0  0  0  0  0  0  0
    8.8106  -15.4131   22.5011 C   0  0  0  0  0  0  0  0  0  0  0  0
   10.0727  -15.3938   22.5783 O   0  0  0  0  0  0  0  0  0  0  0  0
    8.0704  -15.4193   23.6921 N   0  0  0  0  0  0  0  0  0  0  0  0
    8.6509  -15.3757   25.0352 C   0  0  1  0  0  0  0  0  0  0  0  0
    7.5398  -15.1618   26.0502 C   0  0  0  0  0  0  0  0  0  0  0  0
    6.6140  -13.6476   25.7803 S   0  0  0  0  0  0  0  0  0  0  0  0
    9.3164  -16.6584   25.3535 C   0  0  0  0  0  0  0  0  0  0  0  0
    8.5501  -17.6683   25.5291 O   0  0  0  0  0  0  0  0  0  0  0  0
   13.7346  -20.4828   25.0501 N   0  0  0  0  0  0  0  0  0  0  0  0
   13.3433  -19.5146   26.0145 C   0  0  0  0  0  0  0  0  0  0  0  0
   13.5383  -19.7662   27.2472 O   0  0  0  0  0  0  0  0  0  0  0  0
   12.7271  -18.2479   25.5678 C   0  0  0  0  0  0  0  0  0  0  0  0
   11.2644  -18.1842   25.8162 C   0  0  2  0  0  0  0  0  0  0  0  0
   10.6954  -16.8830   25.4803 N   0  0  0  0  0  0  0  0  0  0  0  0
   10.9417  -18.5036   27.2155 C   0  0  0  0  0  0  0  0  0  0  0  0
   10.4828  -19.6358   27.5025 O   0  0  0  0  0  0  0  0  0  0  0  0
   11.1263  -17.5989   28.2274 O   0  0  0  0  0  0  0  0  0  0  0  0
  1  2  1  0
  2  3  1  0
  4  5  1  0
  4  3  1  0
  5  7  1  0
  5  6  1  1
  7  9  1  0
  7  8  2  0
  9 10  1  0
 10 13  1  0
 10 11  1  1
 12 11  1  0
 13 20  1  0
 14 13  2  0
 16 17  2  0
 16 15  1  0
 18 16  1  0
 19 21  1  0
 19 18  1  1
 20 19  1  0
 21 22  2  0
 21 23  1  0
M  END
$$$$
