VVF.pdb
     RDKit          3D

 26 26  0  0  1  0  0  0  0  0999 V2000
   24.8053  -13.7083  -15.4077 C   0  0  0  0  0  0  0  0  0  0  0  0
   23.9083  -12.6119  -15.9314 C   0  0  1  0  0  0  0  0  0  0  0  0
   24.6634  -11.7785  -16.9080 C   0  0  0  0  0  0  0  0  0  0  0  0
   22.6776  -13.1854  -16.5527 C   0  0  2  0  0  0  0  0  0  0  0  0
   23.1222  -13.9214  -17.7569 N   0  0  0  0  0  0  0  0  0  0  0  0
   21.7877  -12.1113  -17.0189 C   0  0  0  0  0  0  0  0  0  0  0  0
   21.9699  -11.6334  -18.1855 O   0  0  0  0  0  0  0  0  0  0  0  0
   17.5381   -9.7130  -17.2508 C   0  0  0  0  0  0  0  0  0  0  0  0
   18.5050  -10.8227  -16.9764 C   0  0  1  0  0  0  0  0  0  0  0  0
   18.3383  -11.8474  -18.0828 C   0  0  0  0  0  0  0  0  0  0  0  0
   19.9495  -10.3947  -16.8567 C   0  0  2  0  0  0  0  0  0  0  0  0
   20.7176  -11.5327  -16.2972 N   0  0  0  0  0  0  0  0  0  0  0  0
   20.1532   -9.2065  -15.9988 C   0  0  0  0  0  0  0  0  0  0  0  0
   19.9010   -9.2501  -14.7440 O   0  0  0  0  0  0  0  0  0  0  0  0
   20.6295   -7.9533  -16.4502 N   0  0  0  0  0  0  0  0  0  0  0  0
   20.6973   -6.7742  -15.5886 C   0  0  1  0  0  0  0  0  0  0  0  0
   21.8605   -5.9545  -16.1340 C   0  0  0  0  0  0  0  0  0  0  0  0
   21.9105   -4.5865  -15.6120 C   0  0  0  0  0  0  0  0  0  0  0  0
   21.5570   -3.4694  -16.3434 C   0  0  0  0  0  0  0  0  0  0  0  0
   21.6144   -2.1875  -15.8209 C   0  0  0  0  0  0  0  0  0  0  0  0
   22.0353   -1.9850  -14.5276 C   0  0  0  0  0  0  0  0  0  0  0  0
   22.3945   -3.0765  -13.7726 C   0  0  0  0  0  0  0  0  0  0  0  0
   22.3344   -4.3487  -14.3002 C   0  0  0  0  0  0  0  0  0  0  0  0
   19.4330   -6.0419  -15.5518 C   0  0  0  0  0  0  0  0  0  0  0  0
   18.7173   -5.8828  -16.5665 O   0  0  0  0  0  0  0  0  0  0  0  0
   18.9963   -5.4978  -14.3579 O   0  0  0  0  0  0  0  0  0  0  0  0
  2  1  1  6
  2  3  1  0
  4  6  1  0
  4  2  1  0
  4  5  1  6
  6  7  2  0
  9  8  1  6
 10  9  1  0
 11  9  1  0
 11 12  1  1
 12  6  1  0
 13 14  2  0
 13 11  1  0
 15 13  1  0
 16 15  1  0
 16 17  1  6
 18 19  2  0
 18 17  1  0
 20 19  1  0
 21 20  2  0
 22 21  1  0
 22 23  2  0
 23 18  1  0
 24 16  1  0
 24 26  1  0
 25 24  2  0
M  END
$$$$
