VVF.pdb
     RDKit          3D

 26 26  0  0  1  0  0  0  0  0999 V2000
   21.2395  -19.5346  -11.7728 C   0  0  0  0  0  0  0  0  0  0  0  0
   21.0053  -20.5390  -12.8761 C   0  0  1  0  0  0  0  0  0  0  0  0
   19.8465  -20.1036  -13.7043 C   0  0  0  0  0  0  0  0  0  0  0  0
   22.2315  -20.7040  -13.7119 C   0  0  2  0  0  0  0  0  0  0  0  0
   21.9094  -21.7310  -14.7274 N   0  0  0  0  0  0  0  0  0  0  0  0
   23.3368  -21.2412  -12.9041 C   0  0  0  0  0  0  0  0  0  0  0  0
   23.2324  -22.4223  -12.4386 O   0  0  0  0  0  0  0  0  0  0  0  0
   26.8583  -21.9839  -13.7899 C   0  0  0  0  0  0  0  0  0  0  0  0
   26.8738  -21.2191  -12.5029 C   0  0  1  0  0  0  0  0  0  0  0  0
   27.2896  -19.7971  -12.8304 C   0  0  0  0  0  0  0  0  0  0  0  0
   25.5707  -21.2325  -11.7373 C   0  0  2  0  0  0  0  0  0  0  0  0
   24.5413  -20.5752  -12.5776 N   0  0  0  0  0  0  0  0  0  0  0  0
   25.6375  -20.5445  -10.4290 C   0  0  0  0  0  0  0  0  0  0  0  0
   25.2690  -19.3240  -10.3081 O   0  0  0  0  0  0  0  0  0  0  0  0
   26.0911  -21.1340   -9.2258 N   0  0  0  0  0  0  0  0  0  0  0  0
   26.3949  -20.3547   -8.0269 C   0  0  1  0  0  0  0  0  0  0  0  0
   27.0470  -21.3443   -7.0688 C   0  0  0  0  0  0  0  0  0  0  0  0
   27.6544  -20.7120   -5.8950 C   0  0  0  0  0  0  0  0  0  0  0  0
   29.0171  -20.6147   -5.6911 C   0  0  0  0  0  0  0  0  0  0  0  0
   29.5615  -20.0095   -4.5699 C   0  0  0  0  0  0  0  0  0  0  0  0
   28.7414  -19.4753   -3.6041 C   0  0  0  0  0  0  0  0  0  0  0  0
   27.3798  -19.5559   -3.7771 C   0  0  0  0  0  0  0  0  0  0  0  0
   26.8462  -20.1598   -4.8957 C   0  0  0  0  0  0  0  0  0  0  0  0
   27.2277  -19.1898   -8.3198 C   0  0  0  0  0  0  0  0  0  0  0  0
   27.0056  -18.0617   -7.8246 O   0  0  0  0  0  0  0  0  0  0  0  0
   28.3065  -19.3223   -9.1747 O   0  0  0  0  0  0  0  0  0  0  0  0
  2  1  1  1
  2  3  1  0
  4  6  1  0
  4  2  1  0
  4  5  1  6
  6  7  2  0
  9  8  1  6
 10  9  1  0
 11  9  1  0
 11 12  1  6
 12  6  1  0
 13 14  2  0
 13 11  1  0
 15 13  1  0
 16 15  1  0
 16 17  1  1
 18 19  2  0
 18 17  1  0
 20 19  1  0
 21 20  2  0
 22 21  1  0
 22 23  2  0
 23 18  1  0
 24 16  1  0
 24 26  1  0
 25 24  2  0
M  END
$$$$
