VVF.pdb
     RDKit          3D

 26 26  0  0  1  0  0  0  0  0999 V2000
   29.4044  -19.1411  -13.5393 C   0  0  0  0  0  0  0  0  0  0  0  0
   28.5776  -18.4134  -14.5727 C   0  0  1  0  0  0  0  0  0  0  0  0
   29.3574  -18.2935  -15.8359 C   0  0  0  0  0  0  0  0  0  0  0  0
   27.2815  -19.1171  -14.8059 C   0  0  2  0  0  0  0  0  0  0  0  0
   26.5302  -18.2958  -15.7808 N   0  0  0  0  0  0  0  0  0  0  0  0
   26.4814  -19.1450  -13.5722 C   0  0  0  0  0  0  0  0  0  0  0  0
   26.1017  -18.0388  -13.0679 O   0  0  0  0  0  0  0  0  0  0  0  0
   23.1403  -20.8742  -10.5190 C   0  0  0  0  0  0  0  0  0  0  0  0
   23.9835  -20.8259  -11.7552 C   0  0  1  0  0  0  0  0  0  0  0  0
   23.1786  -20.1042  -12.8199 C   0  0  0  0  0  0  0  0  0  0  0  0
   25.3379  -20.1790  -11.5784 C   0  0  2  0  0  0  0  0  0  0  0  0
   26.0710  -20.2972  -12.8616 N   0  0  0  0  0  0  0  0  0  0  0  0
   26.1528  -20.7806  -10.4997 C   0  0  0  0  0  0  0  0  0  0  0  0
   26.6817  -21.9381  -10.6424 O   0  0  0  0  0  0  0  0  0  0  0  0
   26.4259  -20.1691   -9.2537 N   0  0  0  0  0  0  0  0  0  0  0  0
   26.9625  -20.9054   -8.1104 C   0  0  1  0  0  0  0  0  0  0  0  0
   28.2431  -20.1697   -7.7344 C   0  0  0  0  0  0  0  0  0  0  0  0
   28.3717  -19.9113   -6.2980 C   0  0  0  0  0  0  0  0  0  0  0  0
   27.8434  -18.8036   -5.6642 C   0  0  0  0  0  0  0  0  0  0  0  0
   27.9813  -18.5874   -4.3026 C   0  0  0  0  0  0  0  0  0  0  0  0
   28.6648  -19.4912   -3.5237 C   0  0  0  0  0  0  0  0  0  0  0  0
   29.2032  -20.6048   -4.1242 C   0  0  0  0  0  0  0  0  0  0  0  0
   29.0613  -20.8122   -5.4797 C   0  0  0  0  0  0  0  0  0  0  0  0
   26.0012  -21.0028   -7.0138 C   0  0  0  0  0  0  0  0  0  0  0  0
   25.0142  -20.2391   -6.9140 O   0  0  0  0  0  0  0  0  0  0  0  0
   26.1741  -21.9704   -6.0412 O   0  0  0  0  0  0  0  0  0  0  0  0
  2  1  1  1
  2  3  1  0
  4  6  1  0
  4  2  1  0
  4  5  1  6
  6  7  2  0
  9  8  1  1
 10  9  1  0
 11  9  1  0
 11 12  1  6
 12  6  1  0
 13 14  2  0
 13 11  1  0
 15 13  1  0
 16 15  1  0
 16 17  1  1
 18 19  2  0
 18 17  1  0
 20 19  1  0
 21 20  2  0
 22 21  1  0
 22 23  2  0
 23 18  1  0
 24 16  1  0
 24 26  1  0
 25 24  2  0
M  END
$$$$
