VVF.pdb
     RDKit          3D

 26 26  0  0  1  0  0  0  0  0999 V2000
   20.4232  -16.6569  -14.7748 C   0  0  0  0  0  0  0  0  0  0  0  0
   21.0670  -17.6834  -13.8732 C   0  0  1  0  0  0  0  0  0  0  0  0
   20.0208  -18.3313  -13.0342 C   0  0  0  0  0  0  0  0  0  0  0  0
   21.8173  -18.6960  -14.6738 C   0  0  2  0  0  0  0  0  0  0  0  0
   20.8039  -19.4626  -15.4321 N   0  0  0  0  0  0  0  0  0  0  0  0
   22.4951  -19.6540  -13.7874 C   0  0  0  0  0  0  0  0  0  0  0  0
   21.7852  -20.4833  -13.1310 O   0  0  0  0  0  0  0  0  0  0  0  0
   26.2542  -21.2972  -14.4768 C   0  0  0  0  0  0  0  0  0  0  0  0
   25.1161  -21.8487  -13.6755 C   0  0  1  0  0  0  0  0  0  0  0  0
   25.6489  -23.0378  -12.8980 C   0  0  0  0  0  0  0  0  0  0  0  0
   24.4501  -20.8583  -12.7483 C   0  0  2  0  0  0  0  0  0  0  0  0
   23.8895  -19.7639  -13.5765 N   0  0  0  0  0  0  0  0  0  0  0  0
   25.3608  -20.2796  -11.7359 C   0  0  0  0  0  0  0  0  0  0  0  0
   26.0620  -19.2408  -11.9990 O   0  0  0  0  0  0  0  0  0  0  0  0
   25.5444  -20.7857  -10.4277 N   0  0  0  0  0  0  0  0  0  0  0  0
   26.6318  -20.3481   -9.5541 C   0  0  1  0  0  0  0  0  0  0  0  0
   26.0837  -20.4949   -8.1397 C   0  0  0  0  0  0  0  0  0  0  0  0
   27.0490  -20.1402   -7.0961 C   0  0  0  0  0  0  0  0  0  0  0  0
   27.2613  -18.8506   -6.6493 C   0  0  0  0  0  0  0  0  0  0  0  0
   28.1818  -18.5468   -5.6592 C   0  0  0  0  0  0  0  0  0  0  0  0
   28.9289  -19.5445   -5.0786 C   0  0  0  0  0  0  0  0  0  0  0  0
   28.7415  -20.8395   -5.5011 C   0  0  0  0  0  0  0  0  0  0  0  0
   27.8235  -21.1330   -6.4868 C   0  0  0  0  0  0  0  0  0  0  0  0
   27.8638  -21.1001   -9.7842 C   0  0  0  0  0  0  0  0  0  0  0  0
   27.8687  -22.3315  -10.0095 O   0  0  0  0  0  0  0  0  0  0  0  0
   29.0788  -20.4406   -9.7558 O   0  0  0  0  0  0  0  0  0  0  0  0
  2  1  1  6
  2  3  1  0
  4  6  1  0
  4  2  1  0
  4  5  1  6
  6  7  2  0
  9  8  1  1
 10  9  1  0
 11  9  1  0
 11 12  1  6
 12  6  1  0
 13 14  2  0
 13 11  1  0
 15 13  1  0
 16 15  1  0
 16 17  1  1
 18 19  2  0
 18 17  1  0
 20 19  1  0
 21 20  2  0
 22 21  1  0
 22 23  2  0
 23 18  1  0
 24 16  1  0
 24 26  1  0
 25 24  2  0
M  END
$$$$
