VVF.pdb
     RDKit          3D

 26 26  0  0  1  0  0  0  0  0999 V2000
   23.0206   -8.4394  -21.1836 C   0  0  0  0  0  0  0  0  0  0  0  0
   22.8469   -9.9208  -21.4210 C   0  0  1  0  0  0  0  0  0  0  0  0
   23.4530  -10.2867  -22.7314 C   0  0  0  0  0  0  0  0  0  0  0  0
   23.4541  -10.7106  -20.3087 C   0  0  2  0  0  0  0  0  0  0  0  0
   23.0593  -12.1189  -20.5330 N   0  0  0  0  0  0  0  0  0  0  0  0
   22.8752  -10.3104  -19.0173 C   0  0  0  0  0  0  0  0  0  0  0  0
   21.6460  -10.5619  -18.7972 O   0  0  0  0  0  0  0  0  0  0  0  0
   23.2435   -9.3594  -14.1894 C   0  0  0  0  0  0  0  0  0  0  0  0
   23.7264   -9.7694  -15.5460 C   0  0  1  0  0  0  0  0  0  0  0  0
   23.8791  -11.2789  -15.5310 C   0  0  0  0  0  0  0  0  0  0  0  0
   22.8472   -9.3320  -16.6949 C   0  0  2  0  0  0  0  0  0  0  0  0
   23.5504   -9.6601  -17.9581 N   0  0  0  0  0  0  0  0  0  0  0  0
   22.5217   -7.8886  -16.6844 C   0  0  0  0  0  0  0  0  0  0  0  0
   23.4084   -7.0122  -16.9773 O   0  0  0  0  0  0  0  0  0  0  0  0
   21.2542   -7.3461  -16.3677 N   0  0  0  0  0  0  0  0  0  0  0  0
   20.9964   -5.9078  -16.3237 C   0  0  1  0  0  0  0  0  0  0  0  0
   20.5519   -5.5443  -17.7354 C   0  0  0  0  0  0  0  0  0  0  0  0
   20.1612   -4.1401  -17.8847 C   0  0  0  0  0  0  0  0  0  0  0  0
   21.0602   -3.0943  -17.9607 C   0  0  0  0  0  0  0  0  0  0  0  0
   20.6593   -1.7756  -18.1028 C   0  0  0  0  0  0  0  0  0  0  0  0
   19.3224   -1.4621  -18.1739 C   0  0  0  0  0  0  0  0  0  0  0  0
   18.4016   -2.4805  -18.1012 C   0  0  0  0  0  0  0  0  0  0  0  0
   18.8090   -3.7899  -17.9599 C   0  0  0  0  0  0  0  0  0  0  0  0
   20.0220   -5.5511  -15.2944 C   0  0  0  0  0  0  0  0  0  0  0  0
   19.0825   -6.3100  -14.9648 O   0  0  0  0  0  0  0  0  0  0  0  0
   20.1283   -4.3323  -14.6500 O   0  0  0  0  0  0  0  0  0  0  0  0
  2  1  1  1
  2  3  1  0
  4  6  1  0
  4  2  1  0
  4  5  1  6
  6  7  2  0
  9  8  1  1
 10  9  1  0
 11  9  1  0
 11 12  1  6
 12  6  1  0
 13 14  2  0
 13 11  1  0
 15 13  1  0
 16 15  1  0
 16 17  1  6
 18 19  2  0
 18 17  1  0
 20 19  1  0
 21 20  2  0
 22 21  1  0
 22 23  2  0
 23 18  1  0
 24 16  1  0
 24 26  1  0
 25 24  2  0
M  END
$$$$
