VVF.pdb
     RDKit          3D

 26 26  0  0  1  0  0  0  0  0999 V2000
   29.0078  -19.5438  -13.4399 C   0  0  0  0  0  0  0  0  0  0  0  0
   28.3388  -18.7118  -14.5082 C   0  0  1  0  0  0  0  0  0  0  0  0
   29.2138  -18.6551  -15.7121 C   0  0  0  0  0  0  0  0  0  0  0  0
   26.9940  -19.2655  -14.8466 C   0  0  2  0  0  0  0  0  0  0  0  0
   26.3928  -18.3324  -15.8251 N   0  0  0  0  0  0  0  0  0  0  0  0
   26.1208  -19.2566  -13.6633 C   0  0  0  0  0  0  0  0  0  0  0  0
   25.6867  -18.1381  -13.2355 O   0  0  0  0  0  0  0  0  0  0  0  0
   22.6632  -21.0129  -10.7256 C   0  0  0  0  0  0  0  0  0  0  0  0
   23.5872  -21.0038  -11.9036 C   0  0  1  0  0  0  0  0  0  0  0  0
   22.8056  -20.4561  -13.0831 C   0  0  0  0  0  0  0  0  0  0  0  0
   24.8680  -20.2268  -11.7034 C   0  0  2  0  0  0  0  0  0  0  0  0
   25.6930  -20.3848  -12.9250 N   0  0  0  0  0  0  0  0  0  0  0  0
   25.6557  -20.6626  -10.5291 C   0  0  0  0  0  0  0  0  0  0  0  0
   26.1301  -21.8500  -10.4592 O   0  0  0  0  0  0  0  0  0  0  0  0
   25.9585  -19.8515   -9.4104 N   0  0  0  0  0  0  0  0  0  0  0  0
   26.6177  -20.3682   -8.2122 C   0  0  1  0  0  0  0  0  0  0  0  0
   27.4232  -19.1941   -7.6688 C   0  0  0  0  0  0  0  0  0  0  0  0
   28.0671  -19.4693   -6.3818 C   0  0  0  0  0  0  0  0  0  0  0  0
   29.2949  -20.0885   -6.2516 C   0  0  0  0  0  0  0  0  0  0  0  0
   29.8787  -20.3345   -5.0194 C   0  0  0  0  0  0  0  0  0  0  0  0
   29.2373  -19.9603   -3.8621 C   0  0  0  0  0  0  0  0  0  0  0  0
   28.0131  -19.3415   -3.9573 C   0  0  0  0  0  0  0  0  0  0  0  0
   27.4392  -19.1006   -5.1874 C   0  0  0  0  0  0  0  0  0  0  0  0
   25.6653  -20.9186   -7.2499 C   0  0  0  0  0  0  0  0  0  0  0  0
   26.0081  -21.7043   -6.3375 O   0  0  0  0  0  0  0  0  0  0  0  0
   24.3306  -20.5678   -7.3368 O   0  0  0  0  0  0  0  0  0  0  0  0
  2  1  1  1
  2  3  1  0
  4  6  1  0
  4  2  1  0
  4  5  1  6
  6  7  2  0
  9  8  1  1
 10  9  1  0
 11  9  1  0
 11 12  1  6
 12  6  1  0
 13 14  2  0
 13 11  1  0
 15 13  1  0
 16 15  1  0
 16 17  1  1
 18 19  2  0
 18 17  1  0
 20 19  1  0
 21 20  2  0
 22 21  1  0
 22 23  2  0
 23 18  1  0
 24 16  1  0
 24 26  1  0
 25 24  2  0
M  END
$$$$
