VVF.pdb
     RDKit          3D

 26 26  0  0  1  0  0  0  0  0999 V2000
   28.0628  -22.4912  -14.8505 C   0  0  0  0  0  0  0  0  0  0  0  0
   27.7644  -21.8044  -16.1622 C   0  0  1  0  0  0  0  0  0  0  0  0
   28.3449  -22.5987  -17.2803 C   0  0  0  0  0  0  0  0  0  0  0  0
   26.2936  -21.6195  -16.3411 C   0  0  2  0  0  0  0  0  0  0  0  0
   26.1230  -20.7601  -17.5335 N   0  0  0  0  0  0  0  0  0  0  0  0
   25.7253  -20.8808  -15.2035 C   0  0  0  0  0  0  0  0  0  0  0  0
   25.9337  -19.6265  -15.1271 O   0  0  0  0  0  0  0  0  0  0  0  0
   22.3365  -19.9636  -11.8233 C   0  0  0  0  0  0  0  0  0  0  0  0
   22.9714  -20.6019  -13.0195 C   0  0  1  0  0  0  0  0  0  0  0  0
   22.4078  -19.9130  -14.2483 C   0  0  0  0  0  0  0  0  0  0  0  0
   24.4823  -20.5688  -13.0334 C   0  0  2  0  0  0  0  0  0  0  0  0
   24.9471  -21.4217  -14.1534 N   0  0  0  0  0  0  0  0  0  0  0  0
   25.1034  -21.0419  -11.7764 C   0  0  0  0  0  0  0  0  0  0  0  0
   24.8764  -22.2221  -11.3341 O   0  0  0  0  0  0  0  0  0  0  0  0
   25.9770  -20.2785  -10.9670 N   0  0  0  0  0  0  0  0  0  0  0  0
   26.3156  -20.6524   -9.5949 C   0  0  1  0  0  0  0  0  0  0  0  0
   27.4620  -19.7267   -9.2061 C   0  0  0  0  0  0  0  0  0  0  0  0
   27.9001  -19.8858   -7.8171 C   0  0  0  0  0  0  0  0  0  0  0  0
   28.7983  -20.8478   -7.3980 C   0  0  0  0  0  0  0  0  0  0  0  0
   29.1939  -20.9727   -6.0760 C   0  0  0  0  0  0  0  0  0  0  0  0
   28.6918  -20.1219   -5.1195 C   0  0  0  0  0  0  0  0  0  0  0  0
   27.7953  -19.1530   -5.5042 C   0  0  0  0  0  0  0  0  0  0  0  0
   27.4069  -19.0356   -6.8217 C   0  0  0  0  0  0  0  0  0  0  0  0
   25.1651  -20.5663   -8.6975 C   0  0  0  0  0  0  0  0  0  0  0  0
   24.3097  -19.6564   -8.7849 O   0  0  0  0  0  0  0  0  0  0  0  0
   25.0006  -21.5189   -7.7088 O   0  0  0  0  0  0  0  0  0  0  0  0
  2  1  1  1
  2  3  1  0
  4  6  1  0
  4  2  1  0
  4  5  1  6
  6  7  2  0
  9  8  1  1
 10  9  1  0
 11  9  1  0
 11 12  1  6
 12  6  1  0
 13 14  2  0
 13 11  1  0
 15 13  1  0
 16 15  1  0
 16 17  1  1
 18 19  2  0
 18 17  1  0
 20 19  1  0
 21 20  2  0
 22 21  1  0
 22 23  2  0
 23 18  1  0
 24 16  1  0
 24 26  1  0
 25 24  2  0
M  END
$$$$
