VVF.pdb
     RDKit          3D

 26 26  0  0  1  0  0  0  0  0999 V2000
   21.3697  -19.3184  -11.8395 C   0  0  0  0  0  0  0  0  0  0  0  0
   20.9788  -20.4446  -12.7669 C   0  0  1  0  0  0  0  0  0  0  0  0
   19.7529  -20.0619  -13.5212 C   0  0  0  0  0  0  0  0  0  0  0  0
   22.0988  -20.7794  -13.6957 C   0  0  2  0  0  0  0  0  0  0  0  0
   21.6630  -21.9664  -14.4644 N   0  0  0  0  0  0  0  0  0  0  0  0
   23.2931  -21.1825  -12.9380 C   0  0  0  0  0  0  0  0  0  0  0  0
   23.2694  -22.2891  -12.3078 O   0  0  0  0  0  0  0  0  0  0  0  0
   28.1563  -21.3164  -12.2492 C   0  0  0  0  0  0  0  0  0  0  0  0
   26.8862  -20.8810  -12.9117 C   0  0  1  0  0  0  0  0  0  0  0  0
   26.7410  -21.6956  -14.1835 C   0  0  0  0  0  0  0  0  0  0  0  0
   25.6467  -21.0007  -12.0552 C   0  0  2  0  0  0  0  0  0  0  0  0
   24.5038  -20.4590  -12.8286 N   0  0  0  0  0  0  0  0  0  0  0  0
   25.7392  -20.2837  -10.7642 C   0  0  0  0  0  0  0  0  0  0  0  0
   25.5742  -19.0152  -10.7029 O   0  0  0  0  0  0  0  0  0  0  0  0
   26.0040  -20.8939   -9.5157 N   0  0  0  0  0  0  0  0  0  0  0  0
   26.4758  -20.1452   -8.3520 C   0  0  1  0  0  0  0  0  0  0  0  0
   26.8511  -21.2078   -7.3261 C   0  0  0  0  0  0  0  0  0  0  0  0
   27.4373  -20.6595   -6.1004 C   0  0  0  0  0  0  0  0  0  0  0  0
   28.7210  -20.1564   -6.0185 C   0  0  0  0  0  0  0  0  0  0  0  0
   29.2471  -19.6434   -4.8439 C   0  0  0  0  0  0  0  0  0  0  0  0
   28.4881  -19.6198   -3.6975 C   0  0  0  0  0  0  0  0  0  0  0  0
   27.2057  -20.1134   -3.7455 C   0  0  0  0  0  0  0  0  0  0  0  0
   26.6900  -20.6220   -4.9184 C   0  0  0  0  0  0  0  0  0  0  0  0
   27.5741  -19.2399   -8.6841 C   0  0  0  0  0  0  0  0  0  0  0  0
   28.5545  -19.5963   -9.3763 O   0  0  0  0  0  0  0  0  0  0  0  0
   27.5442  -17.9363   -8.2239 O   0  0  0  0  0  0  0  0  0  0  0  0
  2  1  1  1
  2  3  1  0
  4  6  1  0
  4  2  1  0
  4  5  1  6
  6  7  2  0
  9  8  1  1
 10  9  1  0
 11  9  1  0
 11 12  1  6
 12  6  1  0
 13 14  2  0
 13 11  1  0
 15 13  1  0
 16 15  1  0
 16 17  1  1
 18 19  2  0
 18 17  1  0
 20 19  1  0
 21 20  2  0
 22 21  1  0
 22 23  2  0
 23 18  1  0
 24 16  1  0
 24 26  1  0
 25 24  2  0
M  END
$$$$
