VVF.pdb
     RDKit          3D

 26 26  0  0  1  0  0  0  0  0999 V2000
   22.2391  -18.0486  -16.6158 C   0  0  0  0  0  0  0  0  0  0  0  0
   22.5266  -18.9219  -17.8141 C   0  0  1  0  0  0  0  0  0  0  0  0
   21.7425  -18.4334  -18.9824 C   0  0  0  0  0  0  0  0  0  0  0  0
   23.9884  -18.9407  -18.1178 C   0  0  2  0  0  0  0  0  0  0  0  0
   24.1633  -19.8506  -19.2715 N   0  0  0  0  0  0  0  0  0  0  0  0
   24.7394  -19.5291  -16.9985 C   0  0  0  0  0  0  0  0  0  0  0  0
   24.5647  -20.7618  -16.7295 O   0  0  0  0  0  0  0  0  0  0  0  0
   28.6732  -19.5801  -13.9709 C   0  0  0  0  0  0  0  0  0  0  0  0
   27.8322  -19.0938  -15.1102 C   0  0  1  0  0  0  0  0  0  0  0  0
   28.5400  -19.4909  -16.3922 C   0  0  0  0  0  0  0  0  0  0  0  0
   26.4062  -19.5945  -15.1092 C   0  0  2  0  0  0  0  0  0  0  0  0
   25.6644  -18.8609  -16.1625 N   0  0  0  0  0  0  0  0  0  0  0  0
   25.7099  -19.4171  -13.8157 C   0  0  0  0  0  0  0  0  0  0  0  0
   25.4102  -18.2490  -13.3848 O   0  0  0  0  0  0  0  0  0  0  0  0
   25.3152  -20.4696  -12.9570 N   0  0  0  0  0  0  0  0  0  0  0  0
   24.8041  -20.2412  -11.6065 C   0  0  1  0  0  0  0  0  0  0  0  0
   23.3613  -20.7304  -11.6437 C   0  0  0  0  0  0  0  0  0  0  0  0
   22.6602  -20.5892  -10.3649 C   0  0  0  0  0  0  0  0  0  0  0  0
   21.9005  -19.4883  -10.0203 C   0  0  0  0  0  0  0  0  0  0  0  0
   21.2483  -19.3845   -8.8023 C   0  0  0  0  0  0  0  0  0  0  0  0
   21.3405  -20.3990   -7.8787 C   0  0  0  0  0  0  0  0  0  0  0  0
   22.0894  -21.5090   -8.1911 C   0  0  0  0  0  0  0  0  0  0  0  0
   22.7353  -21.6042   -9.4053 C   0  0  0  0  0  0  0  0  0  0  0  0
   25.6185  -20.9003  -10.5874 C   0  0  0  0  0  0  0  0  0  0  0  0
   25.7335  -20.4523   -9.4240 O   0  0  0  0  0  0  0  0  0  0  0  0
   26.2940  -22.0645  -10.9043 O   0  0  0  0  0  0  0  0  0  0  0  0
  2  1  1  1
  2  3  1  0
  4  6  1  0
  4  2  1  0
  4  5  1  6
  6  7  2  0
  9  8  1  1
 10  9  1  0
 11  9  1  0
 11 12  1  6
 12  6  1  0
 13 14  2  0
 13 11  1  0
 15 13  1  0
 16 15  1  0
 16 17  1  6
 18 19  2  0
 18 17  1  0
 20 19  1  0
 21 20  2  0
 22 21  1  0
 22 23  2  0
 23 18  1  0
 24 16  1  0
 24 26  1  0
 25 24  2  0
M  END
$$$$
