VVF.pdb
     RDKit          3D

 26 26  0  0  1  0  0  0  0  0999 V2000
   22.1755  -20.2050  -12.4717 C   0  0  0  0  0  0  0  0  0  0  0  0
   21.2232  -20.1408  -13.6422 C   0  0  1  0  0  0  0  0  0  0  0  0
   19.8226  -20.2497  -13.1476 C   0  0  0  0  0  0  0  0  0  0  0  0
   21.4224  -18.8813  -14.4192 C   0  0  2  0  0  0  0  0  0  0  0  0
   20.5136  -18.9615  -15.5842 N   0  0  0  0  0  0  0  0  0  0  0  0
   22.7906  -18.8176  -14.9547 C   0  0  0  0  0  0  0  0  0  0  0  0
   23.1289  -19.6467  -15.8606 O   0  0  0  0  0  0  0  0  0  0  0  0
   27.0687  -16.5886  -15.9832 C   0  0  0  0  0  0  0  0  0  0  0  0
   25.6501  -16.6589  -15.5099 C   0  0  1  0  0  0  0  0  0  0  0  0
   24.7780  -16.1046  -16.6209 C   0  0  0  0  0  0  0  0  0  0  0  0
   25.1823  -18.0361  -15.0992 C   0  0  2  0  0  0  0  0  0  0  0  0
   23.8042  -17.9101  -14.5674 N   0  0  0  0  0  0  0  0  0  0  0  0
   26.0373  -18.6790  -14.0769 C   0  0  0  0  0  0  0  0  0  0  0  0
   26.5399  -17.9973  -13.1164 O   0  0  0  0  0  0  0  0  0  0  0  0
   26.3735  -20.0528  -14.0495 N   0  0  0  0  0  0  0  0  0  0  0  0
   27.3423  -20.6129  -13.1088 C   0  0  1  0  0  0  0  0  0  0  0  0
   26.5238  -21.5101  -12.1883 C   0  0  0  0  0  0  0  0  0  0  0  0
   26.3176  -20.9477  -10.8512 C   0  0  0  0  0  0  0  0  0  0  0  0
   25.3678  -21.4076   -9.9600 C   0  0  0  0  0  0  0  0  0  0  0  0
   25.1974  -20.8548   -8.7010 C   0  0  0  0  0  0  0  0  0  0  0  0
   25.9880  -19.8068   -8.2921 C   0  0  0  0  0  0  0  0  0  0  0  0
   26.9433  -19.3254   -9.1559 C   0  0  0  0  0  0  0  0  0  0  0  0
   27.1063  -19.8812  -10.4069 C   0  0  0  0  0  0  0  0  0  0  0  0
   28.4328  -21.3110  -13.7869 C   0  0  0  0  0  0  0  0  0  0  0  0
   28.2936  -21.8477  -14.9093 O   0  0  0  0  0  0  0  0  0  0  0  0
   29.6721  -21.3904  -13.1788 O   0  0  0  0  0  0  0  0  0  0  0  0
  2  1  1  1
  2  3  1  0
  4  6  1  0
  4  2  1  0
  4  5  1  6
  6  7  2  0
  9  8  1  6
 10  9  1  0
 11  9  1  0
 11 12  1  1
 12  6  1  0
 13 14  2  0
 13 11  1  0
 15 13  1  0
 16 15  1  0
 16 17  1  1
 18 19  2  0
 18 17  1  0
 20 19  1  0
 21 20  2  0
 22 21  1  0
 22 23  2  0
 23 18  1  0
 24 16  1  0
 24 26  1  0
 25 24  2  0
M  END
$$$$
