VVF.pdb
     RDKit          3D

 26 26  0  0  1  0  0  0  0  0999 V2000
   25.5037  -26.4364  -16.4636 C   0  0  0  0  0  0  0  0  0  0  0  0
   25.9101  -25.0868  -15.9209 C   0  0  1  0  0  0  0  0  0  0  0  0
   25.9436  -24.0959  -17.0322 C   0  0  0  0  0  0  0  0  0  0  0  0
   24.9799  -24.6490  -14.8381 C   0  0  2  0  0  0  0  0  0  0  0  0
   23.6958  -24.3235  -15.4974 N   0  0  0  0  0  0  0  0  0  0  0  0
   25.4621  -23.4064  -14.2163 C   0  0  0  0  0  0  0  0  0  0  0  0
   26.6100  -22.9653  -14.5482 O   0  0  0  0  0  0  0  0  0  0  0  0
   24.8194  -18.8809  -12.6227 C   0  0  0  0  0  0  0  0  0  0  0  0
   24.4573  -20.2210  -13.1836 C   0  0  1  0  0  0  0  0  0  0  0  0
   24.4459  -20.0871  -14.6949 C   0  0  0  0  0  0  0  0  0  0  0  0
   25.3574  -21.3565  -12.7539 C   0  0  2  0  0  0  0  0  0  0  0  0
   24.7729  -22.6199  -13.2637 N   0  0  0  0  0  0  0  0  0  0  0  0
   25.5307  -21.4617  -11.2882 C   0  0  0  0  0  0  0  0  0  0  0  0
   24.6621  -22.0632  -10.5645 O   0  0  0  0  0  0  0  0  0  0  0  0
   26.6254  -20.9367  -10.5621 N   0  0  0  0  0  0  0  0  0  0  0  0
   26.6746  -20.9247   -9.1011 C   0  0  1  0  0  0  0  0  0  0  0  0
   28.0061  -20.2679   -8.7574 C   0  0  0  0  0  0  0  0  0  0  0  0
   28.2061  -20.0626   -7.3206 C   0  0  0  0  0  0  0  0  0  0  0  0
   28.9175  -20.9261   -6.5106 C   0  0  0  0  0  0  0  0  0  0  0  0
   29.0899  -20.7038   -5.1540 C   0  0  0  0  0  0  0  0  0  0  0  0
   28.5445  -19.5901   -4.5599 C   0  0  0  0  0  0  0  0  0  0  0  0
   27.8302  -18.7104   -5.3386 C   0  0  0  0  0  0  0  0  0  0  0  0
   27.6634  -18.9391   -6.6879 C   0  0  0  0  0  0  0  0  0  0  0  0
   25.5202  -20.2476   -8.5136 C   0  0  0  0  0  0  0  0  0  0  0  0
   25.0897  -19.1541   -8.9451 O   0  0  0  0  0  0  0  0  0  0  0  0
   24.8672  -20.8239   -7.4396 O   0  0  0  0  0  0  0  0  0  0  0  0
  2  1  1  6
  2  3  1  0
  4  6  1  0
  4  2  1  0
  4  5  1  6
  6  7  2  0
  9  8  1  1
 10  9  1  0
 11  9  1  0
 11 12  1  1
 12  6  1  0
 13 14  2  0
 13 11  1  0
 15 13  1  0
 16 15  1  0
 16 17  1  6
 18 19  2  0
 18 17  1  0
 20 19  1  0
 21 20  2  0
 22 21  1  0
 22 23  2  0
 23 18  1  0
 24 16  1  0
 24 26  1  0
 25 24  2  0
M  END
$$$$
