VVF.pdb
     RDKit          3D

 26 26  0  0  1  0  0  0  0  0999 V2000
   18.2466  -14.7507  -16.7208 C   0  0  0  0  0  0  0  0  0  0  0  0
   16.7823  -14.6415  -17.0744 C   0  0  1  0  0  0  0  0  0  0  0  0
   16.1119  -15.9462  -16.8161 C   0  0  0  0  0  0  0  0  0  0  0  0
   16.1314  -13.5409  -16.3033 C   0  0  2  0  0  0  0  0  0  0  0  0
   14.7247  -13.4871  -16.7593 N   0  0  0  0  0  0  0  0  0  0  0  0
   16.7361  -12.2448  -16.6459 C   0  0  0  0  0  0  0  0  0  0  0  0
   16.7833  -11.9001  -17.8713 O   0  0  0  0  0  0  0  0  0  0  0  0
   15.7696   -8.9021  -16.7177 C   0  0  0  0  0  0  0  0  0  0  0  0
   17.0545   -8.9065  -15.9492 C   0  0  1  0  0  0  0  0  0  0  0  0
   16.6969   -8.8443  -14.4760 C   0  0  0  0  0  0  0  0  0  0  0  0
   17.9617  -10.0821  -16.2304 C   0  0  2  0  0  0  0  0  0  0  0  0
   17.2858  -11.3073  -15.7405 N   0  0  0  0  0  0  0  0  0  0  0  0
   19.2929   -9.9774  -15.5929 C   0  0  0  0  0  0  0  0  0  0  0  0
   19.4695  -10.3351  -14.3760 O   0  0  0  0  0  0  0  0  0  0  0  0
   20.4608   -9.4966  -16.2302 N   0  0  0  0  0  0  0  0  0  0  0  0
   21.7522   -9.4028  -15.5516 C   0  0  1  0  0  0  0  0  0  0  0  0
   22.7271  -10.1471  -16.4561 C   0  0  0  0  0  0  0  0  0  0  0  0
   24.1130  -10.1099  -15.9823 C   0  0  0  0  0  0  0  0  0  0  0  0
   25.0167   -9.1218  -16.3211 C   0  0  0  0  0  0  0  0  0  0  0  0
   26.3218   -9.1139  -15.8558 C   0  0  0  0  0  0  0  0  0  0  0  0
   26.7661  -10.1138  -15.0230 C   0  0  0  0  0  0  0  0  0  0  0  0
   25.8910  -11.1126  -14.6667 C   0  0  0  0  0  0  0  0  0  0  0  0
   24.5941  -11.1130  -15.1342 C   0  0  0  0  0  0  0  0  0  0  0  0
   22.1401   -8.0184  -15.2882 C   0  0  0  0  0  0  0  0  0  0  0  0
   21.9248   -7.0924  -16.1027 O   0  0  0  0  0  0  0  0  0  0  0  0
   22.7699   -7.7029  -14.0983 O   0  0  0  0  0  0  0  0  0  0  0  0
  2  1  1  1
  2  3  1  0
  4  6  1  0
  4  2  1  0
  4  5  1  6
  6  7  2  0
  9  8  1  6
 10  9  1  0
 11  9  1  0
 11 12  1  1
 12  6  1  0
 13 14  2  0
 13 11  1  0
 15 13  1  0
 16 15  1  0
 16 17  1  6
 18 19  2  0
 18 17  1  0
 20 19  1  0
 21 20  2  0
 22 21  1  0
 22 23  2  0
 23 18  1  0
 24 16  1  0
 24 26  1  0
 25 24  2  0
M  END
$$$$
