VVF.pdb
     RDKit          3D

 26 26  0  0  1  0  0  0  0  0999 V2000
   28.8854  -19.0494  -16.1540 C   0  0  0  0  0  0  0  0  0  0  0  0
   28.1063  -18.9612  -14.8632 C   0  0  1  0  0  0  0  0  0  0  0  0
   28.0717  -17.5456  -14.4015 C   0  0  0  0  0  0  0  0  0  0  0  0
   26.7261  -19.5031  -15.0390 C   0  0  2  0  0  0  0  0  0  0  0  0
   26.0515  -18.6184  -16.0146 N   0  0  0  0  0  0  0  0  0  0  0  0
   25.9688  -19.4009  -13.7824 C   0  0  0  0  0  0  0  0  0  0  0  0
   25.4596  -18.2763  -13.4684 O   0  0  0  0  0  0  0  0  0  0  0  0
   22.6989  -20.8885  -10.6190 C   0  0  0  0  0  0  0  0  0  0  0  0
   23.6003  -20.9228  -11.8139 C   0  0  1  0  0  0  0  0  0  0  0  0
   22.8242  -20.3374  -12.9788 C   0  0  0  0  0  0  0  0  0  0  0  0
   24.9204  -20.2084  -11.6375 C   0  0  2  0  0  0  0  0  0  0  0  0
   25.7323  -20.4429  -12.8555 N   0  0  0  0  0  0  0  0  0  0  0  0
   25.6880  -20.6519  -10.4528 C   0  0  0  0  0  0  0  0  0  0  0  0
   25.9964  -21.8844  -10.2924 O   0  0  0  0  0  0  0  0  0  0  0  0
   26.1457  -19.8015   -9.4191 N   0  0  0  0  0  0  0  0  0  0  0  0
   26.7308  -20.3065   -8.1783 C   0  0  1  0  0  0  0  0  0  0  0  0
   27.4504  -19.1103   -7.5670 C   0  0  0  0  0  0  0  0  0  0  0  0
   28.0405  -19.3877   -6.2549 C   0  0  0  0  0  0  0  0  0  0  0  0
   27.6013  -18.8167   -5.0764 C   0  0  0  0  0  0  0  0  0  0  0  0
   28.1801  -19.1000   -3.8499 C   0  0  0  0  0  0  0  0  0  0  0  0
   29.2343  -19.9791   -3.7681 C   0  0  0  0  0  0  0  0  0  0  0  0
   29.6956  -20.5647   -4.9234 C   0  0  0  0  0  0  0  0  0  0  0  0
   29.1139  -20.2773   -6.1398 C   0  0  0  0  0  0  0  0  0  0  0  0
   25.7289  -20.8997   -7.2948 C   0  0  0  0  0  0  0  0  0  0  0  0
   25.9874  -21.8568   -6.5304 O   0  0  0  0  0  0  0  0  0  0  0  0
   24.4413  -20.3955   -7.2909 O   0  0  0  0  0  0  0  0  0  0  0  0
  2  1  1  6
  2  3  1  0
  4  6  1  0
  4  2  1  0
  4  5  1  6
  6  7  2  0
  9  8  1  1
 10  9  1  0
 11  9  1  0
 11 12  1  6
 12  6  1  0
 13 14  2  0
 13 11  1  0
 15 13  1  0
 16 15  1  0
 16 17  1  1
 18 19  2  0
 18 17  1  0
 20 19  1  0
 21 20  2  0
 22 21  1  0
 22 23  2  0
 23 18  1  0
 24 16  1  0
 24 26  1  0
 25 24  2  0
M  END
$$$$
