VVF.pdb
     RDKit          3D

 26 26  0  0  1  0  0  0  0  0999 V2000
   22.7497  -18.3114  -15.2952 C   0  0  0  0  0  0  0  0  0  0  0  0
   22.7674  -19.3275  -16.4125 C   0  0  1  0  0  0  0  0  0  0  0  0
   21.8933  -18.8576  -17.5231 C   0  0  0  0  0  0  0  0  0  0  0  0
   24.1619  -19.5660  -16.8900 C   0  0  2  0  0  0  0  0  0  0  0  0
   24.0640  -20.5538  -17.9874 N   0  0  0  0  0  0  0  0  0  0  0  0
   24.9692  -20.1902  -15.8310 C   0  0  0  0  0  0  0  0  0  0  0  0
   24.6998  -21.3862  -15.4852 O   0  0  0  0  0  0  0  0  0  0  0  0
   29.0618  -20.5938  -13.0598 C   0  0  0  0  0  0  0  0  0  0  0  0
   28.2217  -20.0668  -14.1815 C   0  0  1  0  0  0  0  0  0  0  0  0
   28.7516  -20.6782  -15.4650 C   0  0  0  0  0  0  0  0  0  0  0  0
   26.7384  -20.3203  -14.0408 C   0  0  2  0  0  0  0  0  0  0  0  0
   26.0461  -19.5952  -15.1329 N   0  0  0  0  0  0  0  0  0  0  0  0
   26.1772  -19.8870  -12.7420 C   0  0  0  0  0  0  0  0  0  0  0  0
   26.0548  -18.6437  -12.4602 O   0  0  0  0  0  0  0  0  0  0  0  0
   25.7327  -20.7585  -11.7203 N   0  0  0  0  0  0  0  0  0  0  0  0
   25.2343  -20.2801  -10.4319 C   0  0  1  0  0  0  0  0  0  0  0  0
   23.9238  -21.0270  -10.2149 C   0  0  0  0  0  0  0  0  0  0  0  0
   22.8590  -20.6250  -11.1376 C   0  0  0  0  0  0  0  0  0  0  0  0
   21.8108  -21.4445  -11.5082 C   0  0  0  0  0  0  0  0  0  0  0  0
   20.8177  -21.0348  -12.3832 C   0  0  0  0  0  0  0  0  0  0  0  0
   20.8474  -19.7697  -12.9211 C   0  0  0  0  0  0  0  0  0  0  0  0
   21.8779  -18.9289  -12.5722 C   0  0  0  0  0  0  0  0  0  0  0  0
   22.8620  -19.3446  -11.7009 C   0  0  0  0  0  0  0  0  0  0  0  0
   26.2037  -20.4762   -9.3558 C   0  0  0  0  0  0  0  0  0  0  0  0
   27.1689  -21.2672   -9.4551 O   0  0  0  0  0  0  0  0  0  0  0  0
   26.0636  -19.7680   -8.1764 O   0  0  0  0  0  0  0  0  0  0  0  0
  2  1  1  1
  2  3  1  0
  4  6  1  0
  4  2  1  0
  4  5  1  6
  6  7  2  0
  9  8  1  1
 10  9  1  0
 11  9  1  0
 11 12  1  6
 12  6  1  0
 13 14  2  0
 13 11  1  0
 15 13  1  0
 16 15  1  0
 16 17  1  1
 18 19  2  0
 18 17  1  0
 20 19  1  0
 21 20  2  0
 22 21  1  0
 22 23  2  0
 23 18  1  0
 24 16  1  0
 24 26  1  0
 25 24  2  0
M  END
$$$$
