PDW.pdb
     RDKit          3D

 30 32  0  0  1  0  0  0  0  0999 V2000
   25.5553  -18.2800  -16.8127 N   0  0  0  0  0  0  0  0  0  0  0  0
   25.7058  -17.2286  -17.8300 C   0  0  0  0  0  0  0  0  0  0  0  0
   24.4130  -16.4725  -17.8488 C   0  0  0  0  0  0  0  0  0  0  0  0
   23.5217  -17.2397  -16.8639 C   0  0  0  0  0  0  0  0  0  0  0  0
   24.5335  -17.8015  -15.9162 C   0  0  1  0  0  0  0  0  0  0  0  0
   24.0537  -18.8816  -15.0535 C   0  0  0  0  0  0  0  0  0  0  0  0
   23.2531  -18.5945  -14.1064 O   0  0  0  0  0  0  0  0  0  0  0  0
   24.4153  -20.2462  -15.1916 N   0  0  0  0  0  0  0  0  0  0  0  0
   23.8582  -21.2505  -14.2537 C   0  0  1  0  0  0  0  0  0  0  0  0
   23.5321  -22.4877  -15.0544 C   0  0  0  0  0  0  0  0  0  0  0  0
   22.4942  -22.1774  -16.0519 C   0  0  0  0  0  0  0  0  0  0  0  0
   22.7826  -22.1949  -17.3060 O   0  0  0  0  0  0  0  0  0  0  0  0
   24.8598  -21.4969  -13.1775 C   0  0  0  0  0  0  0  0  0  0  0  0
   25.9852  -21.9625  -13.4404 O   0  0  0  0  0  0  0  0  0  0  0  0
   21.1790  -21.8493  -15.7845 O   0  0  0  0  0  0  0  0  0  0  0  0
   24.5762  -21.2124  -11.8092 N   0  0  0  0  0  0  0  0  0  0  0  0
   25.5490  -21.2690  -10.7420 C   0  0  1  0  0  0  0  0  0  0  0  0
   26.7152  -20.3441  -10.9844 C   0  0  0  0  0  0  0  0  0  0  0  0
   27.7944  -20.5461   -9.9932 C   0  0  0  0  0  0  0  0  0  0  0  0
   28.9151  -21.3243  -10.1842 C   0  0  0  0  0  0  0  0  0  0  0  0
   29.6538  -21.2548   -9.0658 N   0  0  0  0  0  0  0  0  0  0  0  0
   29.0280  -20.4539   -8.1763 C   0  0  0  0  0  0  0  0  0  0  0  0
   29.3539  -20.0522   -6.8878 C   0  0  0  0  0  0  0  0  0  0  0  0
   28.5190  -19.2131   -6.1895 C   0  0  0  0  0  0  0  0  0  0  0  0
   27.3572  -18.7688   -6.7668 C   0  0  0  0  0  0  0  0  0  0  0  0
   26.9906  -19.1369   -8.0362 C   0  0  0  0  0  0  0  0  0  0  0  0
   27.8484  -19.9897   -8.7334 C   0  0  0  0  0  0  0  0  0  0  0  0
   24.9213  -21.0446   -9.4244 C   0  0  0  0  0  0  0  0  0  0  0  0
   23.9359  -20.2853   -9.3376 O   0  0  0  0  0  0  0  0  0  0  0  0
   25.4102  -21.6594   -8.3010 O   0  0  0  0  0  0  0  0  0  0  0  0
  1  5  1  0
  2  1  1  0
  2  3  1  0
  3  4  1  0
  4  5  1  0
  5  6  1  6
  6  7  2  0
  8  9  1  0
  8  6  1  0
  9 13  1  0
  9 10  1  6
 11 15  1  0
 11 10  1  0
 12 11  2  0
 13 16  1  0
 13 14  2  0
 16 17  1  0
 17 28  1  0
 17 18  1  6
 19 18  1  0
 19 27  1  0
 20 19  2  0
 21 20  1  0
 21 22  1  0
 22 23  1  0
 22 27  2  0
 23 24  2  0
 24 25  1  0
 26 25  2  0
 27 26  1  0
 28 29  2  0
 28 30  1  0
M  END
$$$$
