PDW.pdb
     RDKit          3D

 30 32  0  0  1  0  0  0  0  0999 V2000
   27.5890  -20.0320  -15.7899 N   0  0  0  0  0  0  0  0  0  0  0  0
   28.3822  -19.5988  -16.9501 C   0  0  0  0  0  0  0  0  0  0  0  0
   28.9412  -18.2542  -16.5999 C   0  0  0  0  0  0  0  0  0  0  0  0
   28.3195  -17.9401  -15.2331 C   0  0  0  0  0  0  0  0  0  0  0  0
   28.1302  -19.3110  -14.6656 C   0  0  1  0  0  0  0  0  0  0  0  0
   27.2309  -19.3952  -13.5145 C   0  0  0  0  0  0  0  0  0  0  0  0
   27.5102  -18.7189  -12.4728 O   0  0  0  0  0  0  0  0  0  0  0  0
   26.0524  -20.1831  -13.4665 N   0  0  0  0  0  0  0  0  0  0  0  0
   25.1516  -20.0836  -12.2931 C   0  0  1  0  0  0  0  0  0  0  0  0
   23.7541  -20.4040  -12.7650 C   0  0  0  0  0  0  0  0  0  0  0  0
   23.3089  -19.3872  -13.7328 C   0  0  0  0  0  0  0  0  0  0  0  0
   23.1870  -19.6940  -14.9767 O   0  0  0  0  0  0  0  0  0  0  0  0
   25.6429  -21.0185  -11.2411 C   0  0  0  0  0  0  0  0  0  0  0  0
   25.9281  -22.2005  -11.5132 O   0  0  0  0  0  0  0  0  0  0  0  0
   22.9933  -18.0729  -13.4468 O   0  0  0  0  0  0  0  0  0  0  0  0
   25.8071  -20.6043   -9.8865 N   0  0  0  0  0  0  0  0  0  0  0  0
   26.0323  -21.5022   -8.7768 C   0  0  1  0  0  0  0  0  0  0  0  0
   27.4233  -21.3692   -8.2095 C   0  0  0  0  0  0  0  0  0  0  0  0
   27.5350  -20.2175   -7.2878 C   0  0  0  0  0  0  0  0  0  0  0  0
   26.8925  -19.0088   -7.4429 C   0  0  0  0  0  0  0  0  0  0  0  0
   27.2416  -18.2271   -6.4093 N   0  0  0  0  0  0  0  0  0  0  0  0
   28.0866  -18.9115   -5.6081 C   0  0  0  0  0  0  0  0  0  0  0  0
   28.7347  -18.5755   -4.4270 C   0  0  0  0  0  0  0  0  0  0  0  0
   29.5589  -19.4822   -3.8046 C   0  0  0  0  0  0  0  0  0  0  0  0
   29.7435  -20.7261   -4.3513 C   0  0  0  0  0  0  0  0  0  0  0  0
   29.1264  -21.1059   -5.5158 C   0  0  0  0  0  0  0  0  0  0  0  0
   28.2922  -20.1746   -6.1370 C   0  0  0  0  0  0  0  0  0  0  0  0
   24.9896  -21.3564   -7.7416 C   0  0  0  0  0  0  0  0  0  0  0  0
   24.0892  -20.5073   -7.8956 O   0  0  0  0  0  0  0  0  0  0  0  0
   25.0025  -22.1411   -6.6177 O   0  0  0  0  0  0  0  0  0  0  0  0
  1  5  1  0
  2  1  1  0
  2  3  1  0
  3  4  1  0
  4  5  1  0
  5  6  1  1
  6  7  2  0
  8  9  1  0
  8  6  1  0
  9 13  1  0
  9 10  1  6
 11 15  1  0
 11 10  1  0
 12 11  2  0
 13 16  1  0
 13 14  2  0
 16 17  1  0
 17 28  1  0
 17 18  1  1
 19 18  1  0
 19 27  1  0
 20 19  2  0
 21 20  1  0
 21 22  1  0
 22 23  1  0
 22 27  2  0
 23 24  2  0
 24 25  1  0
 26 25  2  0
 27 26  1  0
 28 29  2  0
 28 30  1  0
M  END
$$$$
