PDW.pdb
     RDKit          3D

 30 32  0  0  1  0  0  0  0  0999 V2000
   27.3657  -17.2845  -15.1010 N   0  0  0  0  0  0  0  0  0  0  0  0
   27.6312  -15.8743  -15.4231 C   0  0  0  0  0  0  0  0  0  0  0  0
   27.1255  -15.6580  -16.8162 C   0  0  0  0  0  0  0  0  0  0  0  0
   26.6713  -17.0527  -17.2653 C   0  0  0  0  0  0  0  0  0  0  0  0
   26.2794  -17.6760  -15.9633 C   0  0  1  0  0  0  0  0  0  0  0  0
   26.1324  -19.1317  -15.9832 C   0  0  0  0  0  0  0  0  0  0  0  0
   25.1365  -19.6348  -16.5962 O   0  0  0  0  0  0  0  0  0  0  0  0
   27.0268  -20.0420  -15.3642 N   0  0  0  0  0  0  0  0  0  0  0  0
   26.8253  -21.5006  -15.5387 C   0  0  1  0  0  0  0  0  0  0  0  0
   28.1693  -22.1099  -15.8557 C   0  0  0  0  0  0  0  0  0  0  0  0
   28.6877  -21.5478  -17.1142 C   0  0  0  0  0  0  0  0  0  0  0  0
   27.8802  -21.2844  -18.0811 O   0  0  0  0  0  0  0  0  0  0  0  0
   26.2152  -22.0446  -14.2921 C   0  0  0  0  0  0  0  0  0  0  0  0
   25.8273  -23.2270  -14.2287 O   0  0  0  0  0  0  0  0  0  0  0  0
   30.0093  -21.2578  -17.3939 O   0  0  0  0  0  0  0  0  0  0  0  0
   26.0500  -21.2417  -13.1253 N   0  0  0  0  0  0  0  0  0  0  0  0
   25.4395  -21.6970  -11.8972 C   0  0  1  0  0  0  0  0  0  0  0  0
   26.4583  -21.9523  -10.8149 C   0  0  0  0  0  0  0  0  0  0  0  0
   26.4105  -20.9187   -9.7578 C   0  0  0  0  0  0  0  0  0  0  0  0
   25.5233  -19.8656   -9.7138 C   0  0  0  0  0  0  0  0  0  0  0  0
   25.7924  -19.1531   -8.6088 N   0  0  0  0  0  0  0  0  0  0  0  0
   26.8251  -19.7295   -7.9563 C   0  0  0  0  0  0  0  0  0  0  0  0
   27.4894  -19.4025   -6.7818 C   0  0  0  0  0  0  0  0  0  0  0  0
   28.5320  -20.1782   -6.3343 C   0  0  0  0  0  0  0  0  0  0  0  0
   28.9197  -21.2816   -7.0501 C   0  0  0  0  0  0  0  0  0  0  0  0
   28.2959  -21.6464   -8.2159 C   0  0  0  0  0  0  0  0  0  0  0  0
   27.2387  -20.8491   -8.6583 C   0  0  0  0  0  0  0  0  0  0  0  0
   24.3686  -20.7825  -11.4531 C   0  0  0  0  0  0  0  0  0  0  0  0
   24.3797  -19.5957  -11.8360 O   0  0  0  0  0  0  0  0  0  0  0  0
   23.3677  -21.2235  -10.6268 O   0  0  0  0  0  0  0  0  0  0  0  0
  1  5  1  0
  2  1  1  0
  2  3  1  0
  3  4  1  0
  4  5  1  0
  5  6  1  6
  6  7  2  0
  8  9  1  0
  8  6  1  0
  9 13  1  0
  9 10  1  1
 11 15  1  0
 11 10  1  0
 12 11  2  0
 13 16  1  0
 13 14  2  0
 16 17  1  0
 17 28  1  0
 17 18  1  1
 19 18  1  0
 19 27  1  0
 20 19  2  0
 21 20  1  0
 21 22  1  0
 22 23  1  0
 22 27  2  0
 23 24  2  0
 24 25  1  0
 26 25  2  0
 27 26  1  0
 28 29  2  0
 28 30  1  0
M  END
$$$$
