PDW.pdb
     RDKit          3D

 30 32  0  0  1  0  0  0  0  0999 V2000
   28.2576  -19.2852  -15.7386 N   0  0  0  0  0  0  0  0  0  0  0  0
   29.6844  -18.9727  -15.9104 C   0  0  0  0  0  0  0  0  0  0  0  0
   29.7486  -17.5703  -16.4324 C   0  0  0  0  0  0  0  0  0  0  0  0
   28.2779  -17.1831  -16.6334 C   0  0  0  0  0  0  0  0  0  0  0  0
   27.6023  -18.0107  -15.5866 C   0  0  1  0  0  0  0  0  0  0  0  0
   26.1536  -18.1517  -15.7362 C   0  0  0  0  0  0  0  0  0  0  0  0
   25.4243  -17.1165  -15.6060 O   0  0  0  0  0  0  0  0  0  0  0  0
   25.4861  -19.3706  -16.0204 N   0  0  0  0  0  0  0  0  0  0  0  0
   24.0077  -19.3878  -16.1321 C   0  0  1  0  0  0  0  0  0  0  0  0
   23.6623  -19.9073  -17.5066 C   0  0  0  0  0  0  0  0  0  0  0  0
   24.3341  -21.1975  -17.7358 C   0  0  0  0  0  0  0  0  0  0  0  0
   24.9877  -21.7602  -16.7805 O   0  0  0  0  0  0  0  0  0  0  0  0
   23.4617  -20.2333  -15.0325 C   0  0  0  0  0  0  0  0  0  0  0  0
   22.2476  -20.5070  -14.9738 O   0  0  0  0  0  0  0  0  0  0  0  0
   24.3482  -21.9102  -18.9193 O   0  0  0  0  0  0  0  0  0  0  0  0
   24.2989  -20.7628  -14.0067 N   0  0  0  0  0  0  0  0  0  0  0  0
   23.8268  -21.5406  -12.8840 C   0  0  1  0  0  0  0  0  0  0  0  0
   24.9445  -22.2819  -12.1943 C   0  0  0  0  0  0  0  0  0  0  0  0
   25.6686  -21.4194  -11.2351 C   0  0  0  0  0  0  0  0  0  0  0  0
   25.0798  -20.6435  -10.2608 C   0  0  0  0  0  0  0  0  0  0  0  0
   26.0600  -20.0125   -9.5960 N   0  0  0  0  0  0  0  0  0  0  0  0
   27.2498  -20.3704  -10.1257 C   0  0  0  0  0  0  0  0  0  0  0  0
   28.5562  -20.0147   -9.8181 C   0  0  0  0  0  0  0  0  0  0  0  0
   29.6059  -20.5386  -10.5340 C   0  0  0  0  0  0  0  0  0  0  0  0
   29.3639  -21.4178  -11.5580 C   0  0  0  0  0  0  0  0  0  0  0  0
   28.0921  -21.8003  -11.9009 C   0  0  0  0  0  0  0  0  0  0  0  0
   27.0358  -21.2600  -11.1651 C   0  0  0  0  0  0  0  0  0  0  0  0
   23.0402  -20.7153  -11.9457 C   0  0  0  0  0  0  0  0  0  0  0  0
   23.2579  -19.4892  -11.8789 O   0  0  0  0  0  0  0  0  0  0  0  0
   22.0783  -21.2818  -11.1502 O   0  0  0  0  0  0  0  0  0  0  0  0
  1  5  1  0
  2  1  1  0
  2  3  1  0
  3  4  1  0
  4  5  1  0
  5  6  1  6
  6  7  2  0
  8  9  1  0
  8  6  1  0
  9 13  1  0
  9 10  1  6
 11 15  1  0
 11 10  1  0
 12 11  2  0
 13 16  1  0
 13 14  2  0
 16 17  1  0
 17 28  1  0
 17 18  1  1
 19 18  1  0
 19 27  1  0
 20 19  2  0
 21 20  1  0
 21 22  1  0
 22 23  1  0
 22 27  2  0
 23 24  2  0
 24 25  1  0
 26 25  2  0
 27 26  1  0
 28 29  2  0
 28 30  1  0
M  END
$$$$
