PDW.pdb
     RDKit          3D

 30 32  0  0  1  0  0  0  0  0999 V2000
   28.2732  -19.6057  -16.4809 N   0  0  0  0  0  0  0  0  0  0  0  0
   28.9652  -19.1232  -17.6856 C   0  0  0  0  0  0  0  0  0  0  0  0
   29.1401  -17.6463  -17.5079 C   0  0  0  0  0  0  0  0  0  0  0  0
   28.4107  -17.3434  -16.1928 C   0  0  0  0  0  0  0  0  0  0  0  0
   28.5674  -18.6358  -15.4563 C   0  0  1  0  0  0  0  0  0  0  0  0
   27.6820  -18.8135  -14.3050 C   0  0  0  0  0  0  0  0  0  0  0  0
   27.7235  -17.9544  -13.3666 O   0  0  0  0  0  0  0  0  0  0  0  0
   26.7653  -19.8847  -14.1492 N   0  0  0  0  0  0  0  0  0  0  0  0
   25.7329  -19.8171  -13.0871 C   0  0  1  0  0  0  0  0  0  0  0  0
   24.3984  -20.1016  -13.7324 C   0  0  0  0  0  0  0  0  0  0  0  0
   23.3430  -20.1270  -12.7057 C   0  0  0  0  0  0  0  0  0  0  0  0
   23.2254  -19.1461  -11.8809 O   0  0  0  0  0  0  0  0  0  0  0  0
   26.0885  -20.7967  -12.0212 C   0  0  0  0  0  0  0  0  0  0  0  0
   26.2932  -21.9956  -12.2917 O   0  0  0  0  0  0  0  0  0  0  0  0
   22.4181  -21.1349  -12.5123 O   0  0  0  0  0  0  0  0  0  0  0  0
   26.2093  -20.4077  -10.6546 N   0  0  0  0  0  0  0  0  0  0  0  0
   26.3145  -21.3294   -9.5466 C   0  0  1  0  0  0  0  0  0  0  0  0
   27.6373  -21.2125   -8.8319 C   0  0  0  0  0  0  0  0  0  0  0  0
   27.5960  -20.1957   -7.7583 C   0  0  0  0  0  0  0  0  0  0  0  0
   26.7687  -19.0943   -7.7367 C   0  0  0  0  0  0  0  0  0  0  0  0
   27.0228  -18.4170   -6.6063 N   0  0  0  0  0  0  0  0  0  0  0  0
   27.9878  -19.0626   -5.9161 C   0  0  0  0  0  0  0  0  0  0  0  0
   28.6108  -18.7941   -4.7046 C   0  0  0  0  0  0  0  0  0  0  0  0
   29.5844  -19.6358   -4.2225 C   0  0  0  0  0  0  0  0  0  0  0  0
   29.9439  -20.7475   -4.9401 C   0  0  0  0  0  0  0  0  0  0  0  0
   29.3588  -21.0563   -6.1416 C   0  0  0  0  0  0  0  0  0  0  0  0
   28.3715  -20.1923   -6.6189 C   0  0  0  0  0  0  0  0  0  0  0  0
   25.1676  -21.2022   -8.6254 C   0  0  0  0  0  0  0  0  0  0  0  0
   24.3787  -20.2457   -8.7590 O   0  0  0  0  0  0  0  0  0  0  0  0
   24.9635  -22.1209   -7.6286 O   0  0  0  0  0  0  0  0  0  0  0  0
  1  5  1  0
  2  1  1  0
  2  3  1  0
  3  4  1  0
  4  5  1  0
  5  6  1  1
  6  7  2  0
  8  9  1  0
  8  6  1  0
  9 13  1  0
  9 10  1  6
 11 15  1  0
 11 10  1  0
 12 11  2  0
 13 16  1  0
 13 14  2  0
 16 17  1  0
 17 28  1  0
 17 18  1  1
 19 18  1  0
 19 27  1  0
 20 19  2  0
 21 20  1  0
 21 22  1  0
 22 23  1  0
 22 27  2  0
 23 24  2  0
 24 25  1  0
 26 25  2  0
 27 26  1  0
 28 29  2  0
 28 30  1  0
M  END
$$$$
