PDW.pdb
     RDKit          3D

 30 32  0  0  1  0  0  0  0  0999 V2000
   28.5917  -17.9077  -16.3032 N   0  0  0  0  0  0  0  0  0  0  0  0
   28.9567  -16.6799  -17.0259 C   0  0  0  0  0  0  0  0  0  0  0  0
   27.8734  -16.4464  -18.0336 C   0  0  0  0  0  0  0  0  0  0  0  0
   26.9620  -17.6715  -17.8869 C   0  0  0  0  0  0  0  0  0  0  0  0
   27.1628  -18.0264  -16.4478 C   0  0  1  0  0  0  0  0  0  0  0  0
   26.7122  -19.3641  -16.0624 C   0  0  0  0  0  0  0  0  0  0  0  0
   25.4626  -19.5743  -15.9408 O   0  0  0  0  0  0  0  0  0  0  0  0
   27.5717  -20.4639  -15.8100 N   0  0  0  0  0  0  0  0  0  0  0  0
   26.9903  -21.7921  -15.4998 C   0  0  1  0  0  0  0  0  0  0  0  0
   27.9366  -22.8385  -16.0363 C   0  0  0  0  0  0  0  0  0  0  0  0
   28.4087  -22.4452  -17.3746 C   0  0  0  0  0  0  0  0  0  0  0  0
   27.6232  -21.8100  -18.1720 O   0  0  0  0  0  0  0  0  0  0  0  0
   26.7888  -21.8858  -14.0258 C   0  0  0  0  0  0  0  0  0  0  0  0
   27.5717  -22.5391  -13.3097 O   0  0  0  0  0  0  0  0  0  0  0  0
   29.6608  -22.6942  -17.9029 O   0  0  0  0  0  0  0  0  0  0  0  0
   25.6989  -21.2364  -13.3747 N   0  0  0  0  0  0  0  0  0  0  0  0
   25.4470  -21.2859  -11.9526 C   0  0  1  0  0  0  0  0  0  0  0  0
   26.6435  -20.8466  -11.1464 C   0  0  0  0  0  0  0  0  0  0  0  0
   26.3081  -20.6629   -9.7174 C   0  0  0  0  0  0  0  0  0  0  0  0
   25.0327  -20.6168   -9.1987 C   0  0  0  0  0  0  0  0  0  0  0  0
   25.1392  -20.4411   -7.8725 N   0  0  0  0  0  0  0  0  0  0  0  0
   26.4473  -20.3752   -7.5427 C   0  0  0  0  0  0  0  0  0  0  0  0
   27.0990  -20.2040   -6.3287 C   0  0  0  0  0  0  0  0  0  0  0  0
   28.4719  -20.1726   -6.2754 C   0  0  0  0  0  0  0  0  0  0  0  0
   29.2042  -20.3112   -7.4264 C   0  0  0  0  0  0  0  0  0  0  0  0
   28.6080  -20.4825   -8.6497 C   0  0  0  0  0  0  0  0  0  0  0  0
   27.2128  -20.5122   -8.6885 C   0  0  0  0  0  0  0  0  0  0  0  0
   24.2250  -20.5393  -11.5925 C   0  0  0  0  0  0  0  0  0  0  0  0
   23.8876  -19.5521  -12.2758 O   0  0  0  0  0  0  0  0  0  0  0  0
   23.4622  -20.9187  -10.5186 O   0  0  0  0  0  0  0  0  0  0  0  0
  1  5  1  0
  2  1  1  0
  2  3  1  0
  3  4  1  0
  4  5  1  0
  5  6  1  6
  6  7  2  0
  8  9  1  0
  8  6  1  0
  9 13  1  0
  9 10  1  1
 11 15  1  0
 11 10  1  0
 12 11  2  0
 13 16  1  0
 13 14  2  0
 16 17  1  0
 17 28  1  0
 17 18  1  1
 19 18  1  0
 19 27  1  0
 20 19  2  0
 21 20  1  0
 21 22  1  0
 22 23  1  0
 22 27  2  0
 23 24  2  0
 24 25  1  0
 26 25  2  0
 27 26  1  0
 28 29  2  0
 28 30  1  0
M  END
$$$$
