PDW.pdb
     RDKit          3D

 30 32  0  0  1  0  0  0  0  0999 V2000
   28.8323  -23.1348  -16.1735 N   0  0  0  0  0  0  0  0  0  0  0  0
   29.8119  -23.7328  -17.0932 C   0  0  0  0  0  0  0  0  0  0  0  0
   30.2737  -22.6283  -17.9932 C   0  0  0  0  0  0  0  0  0  0  0  0
   29.4118  -21.4289  -17.5786 C   0  0  0  0  0  0  0  0  0  0  0  0
   29.1501  -21.7296  -16.1369 C   0  0  1  0  0  0  0  0  0  0  0  0
   28.0611  -20.9678  -15.5245 C   0  0  0  0  0  0  0  0  0  0  0  0
   28.1967  -19.7088  -15.3945 O   0  0  0  0  0  0  0  0  0  0  0  0
   26.8458  -21.5302  -15.0569 N   0  0  0  0  0  0  0  0  0  0  0  0
   25.7800  -20.6414  -14.5351 C   0  0  1  0  0  0  0  0  0  0  0  0
   24.6658  -20.6223  -15.5531 C   0  0  0  0  0  0  0  0  0  0  0  0
   23.5591  -19.7817  -15.0660 C   0  0  0  0  0  0  0  0  0  0  0  0
   23.7901  -18.8466  -14.2125 O   0  0  0  0  0  0  0  0  0  0  0  0
   25.3479  -21.1547  -13.2039 C   0  0  0  0  0  0  0  0  0  0  0  0
   25.0179  -22.3464  -13.0503 O   0  0  0  0  0  0  0  0  0  0  0  0
   22.2319  -19.8874  -15.4350 O   0  0  0  0  0  0  0  0  0  0  0  0
   25.2938  -20.3108  -12.0557 N   0  0  0  0  0  0  0  0  0  0  0  0
   24.7668  -20.7090  -10.7704 C   0  0  1  0  0  0  0  0  0  0  0  0
   25.3986  -19.9447   -9.6341 C   0  0  0  0  0  0  0  0  0  0  0  0
   26.7237  -20.4927   -9.2706 C   0  0  0  0  0  0  0  0  0  0  0  0
   27.4482  -21.3895  -10.0247 C   0  0  0  0  0  0  0  0  0  0  0  0
   28.5905  -21.6436   -9.3677 N   0  0  0  0  0  0  0  0  0  0  0  0
   28.6043  -20.9308   -8.2206 C   0  0  0  0  0  0  0  0  0  0  0  0
   29.5329  -20.8285   -7.1934 C   0  0  0  0  0  0  0  0  0  0  0  0
   29.2900  -20.0106   -6.1160 C   0  0  0  0  0  0  0  0  0  0  0  0
   28.1247  -19.2905   -6.0532 C   0  0  0  0  0  0  0  0  0  0  0  0
   27.1762  -19.3572   -7.0417 C   0  0  0  0  0  0  0  0  0  0  0  0
   27.4366  -20.1921   -8.1299 C   0  0  0  0  0  0  0  0  0  0  0  0
   23.2924  -20.6350  -10.7430 C   0  0  0  0  0  0  0  0  0  0  0  0
   22.6921  -20.0462  -11.6639 O   0  0  0  0  0  0  0  0  0  0  0  0
   22.5806  -21.2040   -9.7188 O   0  0  0  0  0  0  0  0  0  0  0  0
  1  5  1  0
  2  1  1  0
  2  3  1  0
  3  4  1  0
  4  5  1  0
  5  6  1  6
  6  7  2  0
  8  9  1  0
  8  6  1  0
  9 13  1  0
  9 10  1  6
 11 15  1  0
 11 10  1  0
 12 11  2  0
 13 16  1  0
 13 14  2  0
 16 17  1  0
 17 28  1  0
 17 18  1  1
 19 18  1  0
 19 27  1  0
 20 19  2  0
 21 20  1  0
 21 22  1  0
 22 23  1  0
 22 27  2  0
 23 24  2  0
 24 25  1  0
 26 25  2  0
 27 26  1  0
 28 29  2  0
 28 30  1  0
M  END
$$$$
