PDW.pdb
     RDKit          3D

 30 32  0  0  1  0  0  0  0  0999 V2000
   45.1704  -10.2340   -7.4727 N   0  0  0  0  0  0  0  0  0  0  0  0
   45.6097  -10.6798   -6.1418 C   0  0  0  0  0  0  0  0  0  0  0  0
   44.4352  -11.3709   -5.5202 C   0  0  0  0  0  0  0  0  0  0  0  0
   43.3092  -11.1793   -6.5442 C   0  0  0  0  0  0  0  0  0  0  0  0
   44.0767  -11.1033   -7.8258 C   0  0  1  0  0  0  0  0  0  0  0  0
   43.3374  -10.5678   -8.9694 C   0  0  0  0  0  0  0  0  0  0  0  0
   43.3974   -9.3177   -9.2019 O   0  0  0  0  0  0  0  0  0  0  0  0
   42.5465  -11.3441   -9.8547 N   0  0  0  0  0  0  0  0  0  0  0  0
   41.7931  -10.6751  -10.9424 C   0  0  1  0  0  0  0  0  0  0  0  0
   41.5477  -11.7007  -12.0223 C   0  0  0  0  0  0  0  0  0  0  0  0
   40.8926  -11.0629  -13.1767 C   0  0  0  0  0  0  0  0  0  0  0  0
   40.9289   -9.7834  -13.3099 O   0  0  0  0  0  0  0  0  0  0  0  0
   40.5356  -10.1157  -10.3698 C   0  0  0  0  0  0  0  0  0  0  0  0
   39.6605  -10.8610   -9.8887 O   0  0  0  0  0  0  0  0  0  0  0  0
   40.2050  -11.7114  -14.1844 O   0  0  0  0  0  0  0  0  0  0  0  0
   40.2804   -8.7129  -10.3472 N   0  0  0  0  0  0  0  0  0  0  0  0
   39.0107   -8.1166   -9.9995 C   0  0  1  0  0  0  0  0  0  0  0  0
   38.8871   -7.8630   -8.5180 C   0  0  0  0  0  0  0  0  0  0  0  0
   38.8293   -9.1234   -7.7458 C   0  0  0  0  0  0  0  0  0  0  0  0
   39.6839   -9.4696   -6.7221 C   0  0  0  0  0  0  0  0  0  0  0  0
   39.3119  -10.6784   -6.2732 N   0  0  0  0  0  0  0  0  0  0  0  0
   38.2464  -11.1022   -6.9869 C   0  0  0  0  0  0  0  0  0  0  0  0
   37.4857  -12.2625   -6.9333 C   0  0  0  0  0  0  0  0  0  0  0  0
   36.4320  -12.4430   -7.7970 C   0  0  0  0  0  0  0  0  0  0  0  0
   36.1285  -11.4731   -8.7175 C   0  0  0  0  0  0  0  0  0  0  0  0
   36.8493  -10.3099   -8.8105 C   0  0  0  0  0  0  0  0  0  0  0  0
   37.9167  -10.1403   -7.9269 C   0  0  0  0  0  0  0  0  0  0  0  0
   38.7446   -6.9040  -10.7988 C   0  0  0  0  0  0  0  0  0  0  0  0
   39.5929   -6.5197  -11.6283 O   0  0  0  0  0  0  0  0  0  0  0  0
   37.5798   -6.1995  -10.6377 O   0  0  0  0  0  0  0  0  0  0  0  0
  1  5  1  0
  2  1  1  0
  2  3  1  0
  3  4  1  0
  4  5  1  0
  5  6  1  6
  6  7  2  0
  8  9  1  0
  8  6  1  0
  9 13  1  0
  9 10  1  6
 11 15  1  0
 11 10  1  0
 12 11  2  0
 13 16  1  0
 13 14  2  0
 16 17  1  0
 17 28  1  0
 17 18  1  1
 19 18  1  0
 19 27  1  0
 20 19  2  0
 21 20  1  0
 21 22  1  0
 22 23  1  0
 22 27  2  0
 23 24  2  0
 24 25  1  0
 26 25  2  0
 27 26  1  0
 28 29  2  0
 28 30  1  0
M  END
$$$$
