PDW.pdb
     RDKit          3D

 30 32  0  0  1  0  0  0  0  0999 V2000
   28.3240  -19.9409  -16.0382 N   0  0  0  0  0  0  0  0  0  0  0  0
   29.1253  -19.5668  -17.2133 C   0  0  0  0  0  0  0  0  0  0  0  0
   29.3030  -18.0811  -17.1464 C   0  0  0  0  0  0  0  0  0  0  0  0
   28.4648  -17.6630  -15.9316 C   0  0  0  0  0  0  0  0  0  0  0  0
   28.5394  -18.8886  -15.0774 C   0  0  1  0  0  0  0  0  0  0  0  0
   27.5541  -18.9626  -13.9982 C   0  0  0  0  0  0  0  0  0  0  0  0
   27.5701  -18.0643  -13.0964 O   0  0  0  0  0  0  0  0  0  0  0  0
   26.5654  -19.9722  -13.8755 N   0  0  0  0  0  0  0  0  0  0  0  0
   25.5396  -19.8678  -12.8100 C   0  0  1  0  0  0  0  0  0  0  0  0
   24.1956  -20.1251  -13.4468 C   0  0  0  0  0  0  0  0  0  0  0  0
   23.1280  -19.9471  -12.4483 C   0  0  0  0  0  0  0  0  0  0  0  0
   23.4182  -19.5358  -11.2638 O   0  0  0  0  0  0  0  0  0  0  0  0
   25.8749  -20.8451  -11.7355 C   0  0  0  0  0  0  0  0  0  0  0  0
   26.0733  -22.0468  -11.9980 O   0  0  0  0  0  0  0  0  0  0  0  0
   21.7812  -20.1855  -12.6438 O   0  0  0  0  0  0  0  0  0  0  0  0
   25.9829  -20.4506  -10.3694 N   0  0  0  0  0  0  0  0  0  0  0  0
   26.1772  -21.3632   -9.2659 C   0  0  1  0  0  0  0  0  0  0  0  0
   27.5402  -21.2155   -8.6376 C   0  0  0  0  0  0  0  0  0  0  0  0
   27.5630  -20.1468   -7.6151 C   0  0  0  0  0  0  0  0  0  0  0  0
   26.8260  -18.9838   -7.6627 C   0  0  0  0  0  0  0  0  0  0  0  0
   27.1153  -18.2737   -6.5612 N   0  0  0  0  0  0  0  0  0  0  0  0
   28.0146  -18.9586   -5.8219 C   0  0  0  0  0  0  0  0  0  0  0  0
   28.6377  -18.6805   -4.6126 C   0  0  0  0  0  0  0  0  0  0  0  0
   29.5333  -19.5716   -4.0715 C   0  0  0  0  0  0  0  0  0  0  0  0
   29.8143  -20.7423   -4.7277 C   0  0  0  0  0  0  0  0  0  0  0  0
   29.2256  -21.0629   -5.9244 C   0  0  0  0  0  0  0  0  0  0  0  0
   28.3181  -20.1483   -6.4620 C   0  0  0  0  0  0  0  0  0  0  0  0
   25.0889  -21.2535   -8.2740 C   0  0  0  0  0  0  0  0  0  0  0  0
   24.2206  -20.3694   -8.4138 O   0  0  0  0  0  0  0  0  0  0  0  0
   25.0252  -22.1096   -7.2053 O   0  0  0  0  0  0  0  0  0  0  0  0
  1  5  1  0
  2  1  1  0
  2  3  1  0
  3  4  1  0
  4  5  1  0
  5  6  1  1
  6  7  2  0
  8  9  1  0
  8  6  1  0
  9 13  1  0
  9 10  1  6
 11 15  1  0
 11 10  1  0
 12 11  2  0
 13 16  1  0
 13 14  2  0
 16 17  1  0
 17 28  1  0
 17 18  1  1
 19 18  1  0
 19 27  1  0
 20 19  2  0
 21 20  1  0
 21 22  1  0
 22 23  1  0
 22 27  2  0
 23 24  2  0
 24 25  1  0
 26 25  2  0
 27 26  1  0
 28 29  2  0
 28 30  1  0
M  END
$$$$
