PDW.pdb
     RDKit          3D

 30 32  0  0  1  0  0  0  0  0999 V2000
   27.0323  -18.3795  -15.7906 N   0  0  0  0  0  0  0  0  0  0  0  0
   28.0022  -17.7438  -16.6952 C   0  0  0  0  0  0  0  0  0  0  0  0
   29.2313  -18.5991  -16.6633 C   0  0  0  0  0  0  0  0  0  0  0  0
   28.9099  -19.6691  -15.6121 C   0  0  0  0  0  0  0  0  0  0  0  0
   27.4215  -19.7655  -15.7252 C   0  0  1  0  0  0  0  0  0  0  0  0
   26.7500  -20.4405  -14.6141 C   0  0  0  0  0  0  0  0  0  0  0  0
   26.6399  -21.7083  -14.6489 O   0  0  0  0  0  0  0  0  0  0  0  0
   26.2035  -19.7835  -13.4821 N   0  0  0  0  0  0  0  0  0  0  0  0
   25.5025  -20.5752  -12.4428 C   0  0  1  0  0  0  0  0  0  0  0  0
   26.0646  -20.1650  -11.1034 C   0  0  0  0  0  0  0  0  0  0  0  0
   25.4361  -20.9589  -10.0342 C   0  0  0  0  0  0  0  0  0  0  0  0
   24.6330  -21.9188  -10.3341 O   0  0  0  0  0  0  0  0  0  0  0  0
   24.0385  -20.3226  -12.5654 C   0  0  0  0  0  0  0  0  0  0  0  0
   23.5155  -19.3115  -12.0587 O   0  0  0  0  0  0  0  0  0  0  0  0
   25.6149  -20.7824   -8.6756 O   0  0  0  0  0  0  0  0  0  0  0  0
   23.1779  -21.2205  -13.2631 N   0  0  0  0  0  0  0  0  0  0  0  0
   21.7469  -21.0577  -13.3820 C   0  0  1  0  0  0  0  0  0  0  0  0
   21.3754  -19.7660  -14.0660 C   0  0  0  0  0  0  0  0  0  0  0  0
   22.1313  -19.5701  -15.3223 C   0  0  0  0  0  0  0  0  0  0  0  0
   22.6415  -20.5789  -16.1098 C   0  0  0  0  0  0  0  0  0  0  0  0
   23.2557  -20.0063  -17.1567 N   0  0  0  0  0  0  0  0  0  0  0  0
   23.1458  -18.6644  -17.0491 C   0  0  0  0  0  0  0  0  0  0  0  0
   23.5953  -17.6216  -17.8481 C   0  0  0  0  0  0  0  0  0  0  0  0
   23.3401  -16.3176  -17.4971 C   0  0  0  0  0  0  0  0  0  0  0  0
   22.6378  -16.0426  -16.3519 C   0  0  0  0  0  0  0  0  0  0  0  0
   22.1727  -17.0369  -15.5294 C   0  0  0  0  0  0  0  0  0  0  0  0
   22.4395  -18.3566  -15.8986 C   0  0  0  0  0  0  0  0  0  0  0  0
   21.1197  -22.2308  -14.0229 C   0  0  0  0  0  0  0  0  0  0  0  0
   21.8434  -23.1336  -14.4880 O   0  0  0  0  0  0  0  0  0  0  0  0
   19.7558  -22.3356  -14.1120 O   0  0  0  0  0  0  0  0  0  0  0  0
  1  5  1  0
  2  1  1  0
  2  3  1  0
  3  4  1  0
  4  5  1  0
  5  6  1  1
  6  7  2  0
  8  9  1  0
  8  6  1  0
  9 13  1  0
  9 10  1  1
 11 15  1  0
 11 10  1  0
 12 11  2  0
 13 16  1  0
 13 14  2  0
 16 17  1  0
 17 28  1  0
 17 18  1  6
 19 18  1  0
 19 27  1  0
 20 19  2  0
 21 20  1  0
 21 22  1  0
 22 23  1  0
 22 27  2  0
 23 24  2  0
 24 25  1  0
 26 25  2  0
 27 26  1  0
 28 29  2  0
 28 30  1  0
M  END
$$$$
