PDW.pdb
     RDKit          3D

 30 32  0  0  1  0  0  0  0  0999 V2000
   28.0482  -19.4889  -13.5772 N   0  0  0  0  0  0  0  0  0  0  0  0
   29.4571  -19.3914  -13.9876 C   0  0  0  0  0  0  0  0  0  0  0  0
   29.9040  -20.7875  -14.2947 C   0  0  0  0  0  0  0  0  0  0  0  0
   28.6926  -21.6530  -13.9251 C   0  0  0  0  0  0  0  0  0  0  0  0
   27.5600  -20.7076  -14.1715 C   0  0  1  0  0  0  0  0  0  0  0  0
   26.2788  -21.0954  -13.5805 C   0  0  0  0  0  0  0  0  0  0  0  0
   25.6742  -22.1123  -14.0505 O   0  0  0  0  0  0  0  0  0  0  0  0
   25.6468  -20.4173  -12.5069 N   0  0  0  0  0  0  0  0  0  0  0  0
   24.3391  -20.9013  -12.0028 C   0  0  1  0  0  0  0  0  0  0  0  0
   24.2272  -20.4838  -10.5566 C   0  0  0  0  0  0  0  0  0  0  0  0
   25.3848  -20.9899   -9.8001 C   0  0  0  0  0  0  0  0  0  0  0  0
   25.7551  -22.2149   -9.9357 O   0  0  0  0  0  0  0  0  0  0  0  0
   23.2625  -20.3311  -12.8617 C   0  0  0  0  0  0  0  0  0  0  0  0
   22.8304  -19.1781  -12.6710 O   0  0  0  0  0  0  0  0  0  0  0  0
   26.1582  -20.2662   -8.9130 O   0  0  0  0  0  0  0  0  0  0  0  0
   22.6838  -21.0745  -13.9322 N   0  0  0  0  0  0  0  0  0  0  0  0
   21.6410  -20.5811  -14.8025 C   0  0  1  0  0  0  0  0  0  0  0  0
   21.7583  -21.1322  -16.2015 C   0  0  0  0  0  0  0  0  0  0  0  0
   20.7332  -20.5656  -17.1050 C   0  0  0  0  0  0  0  0  0  0  0  0
   20.8879  -19.4324  -17.8730 C   0  0  0  0  0  0  0  0  0  0  0  0
   19.7468  -19.2437  -18.5537 N   0  0  0  0  0  0  0  0  0  0  0  0
   18.8782  -20.2276  -18.2346 C   0  0  0  0  0  0  0  0  0  0  0  0
   17.5804  -20.5000  -18.6461 C   0  0  0  0  0  0  0  0  0  0  0  0
   16.9097  -21.5928  -18.1515 C   0  0  0  0  0  0  0  0  0  0  0  0
   17.5238  -22.4202  -17.2467 C   0  0  0  0  0  0  0  0  0  0  0  0
   18.8038  -22.1941  -16.8090 C   0  0  0  0  0  0  0  0  0  0  0  0
   19.4728  -21.0803  -17.3199 C   0  0  0  0  0  0  0  0  0  0  0  0
   20.3012  -20.8048  -14.2236 C   0  0  0  0  0  0  0  0  0  0  0  0
   20.0621  -21.8751  -13.6299 O   0  0  0  0  0  0  0  0  0  0  0  0
   19.3219  -19.8517  -14.3330 O   0  0  0  0  0  0  0  0  0  0  0  0
  1  5  1  0
  2  1  1  0
  2  3  1  0
  3  4  1  0
  4  5  1  0
  5  6  1  1
  6  7  2  0
  8  9  1  0
  8  6  1  0
  9 13  1  0
  9 10  1  1
 11 15  1  0
 11 10  1  0
 12 11  2  0
 13 16  1  0
 13 14  2  0
 16 17  1  0
 17 28  1  0
 17 18  1  6
 19 18  1  0
 19 27  1  0
 20 19  2  0
 21 20  1  0
 21 22  1  0
 22 23  1  0
 22 27  2  0
 23 24  2  0
 24 25  1  0
 26 25  2  0
 27 26  1  0
 28 29  2  0
 28 30  1  0
M  END
$$$$
