PDW.pdb
     RDKit          3D

 30 32  0  0  1  0  0  0  0  0999 V2000
   28.4923  -21.2303  -14.5695 N   0  0  0  0  0  0  0  0  0  0  0  0
   29.4782  -21.6655  -15.5703 C   0  0  0  0  0  0  0  0  0  0  0  0
   29.1295  -20.9549  -16.8419 C   0  0  0  0  0  0  0  0  0  0  0  0
   27.8403  -20.1971  -16.5002 C   0  0  0  0  0  0  0  0  0  0  0  0
   28.0132  -19.9532  -15.0346 C   0  0  1  0  0  0  0  0  0  0  0  0
   26.8002  -19.5618  -14.3160 C   0  0  0  0  0  0  0  0  0  0  0  0
   26.1239  -18.5763  -14.7542 O   0  0  0  0  0  0  0  0  0  0  0  0
   26.3093  -20.2045  -13.1507 N   0  0  0  0  0  0  0  0  0  0  0  0
   24.9148  -19.9591  -12.7107 C   0  0  1  0  0  0  0  0  0  0  0  0
   23.9987  -20.5186  -13.7719 C   0  0  0  0  0  0  0  0  0  0  0  0
   23.6727  -19.4701  -14.7531 C   0  0  0  0  0  0  0  0  0  0  0  0
   23.3855  -18.2815  -14.3518 O   0  0  0  0  0  0  0  0  0  0  0  0
   24.7225  -20.5955  -11.3765 C   0  0  0  0  0  0  0  0  0  0  0  0
   23.5880  -20.9186  -10.9754 O   0  0  0  0  0  0  0  0  0  0  0  0
   23.6339  -19.6221  -16.1258 O   0  0  0  0  0  0  0  0  0  0  0  0
   25.8208  -20.8609  -10.5065 N   0  0  0  0  0  0  0  0  0  0  0  0
   25.7129  -21.5357   -9.2332 C   0  0  1  0  0  0  0  0  0  0  0  0
   27.0500  -21.6832   -8.5514 C   0  0  0  0  0  0  0  0  0  0  0  0
   27.4131  -20.4730   -7.7822 C   0  0  0  0  0  0  0  0  0  0  0  0
   26.9419  -19.2021   -8.0287 C   0  0  0  0  0  0  0  0  0  0  0  0
   27.4953  -18.3805   -7.1233 N   0  0  0  0  0  0  0  0  0  0  0  0
   28.3021  -19.1002   -6.3138 C   0  0  0  0  0  0  0  0  0  0  0  0
   29.0987  -18.7474   -5.2326 C   0  0  0  0  0  0  0  0  0  0  0  0
   29.8361  -19.7010   -4.5725 C   0  0  0  0  0  0  0  0  0  0  0  0
   29.7861  -21.0087   -4.9820 C   0  0  0  0  0  0  0  0  0  0  0  0
   29.0152  -21.4076   -6.0440 C   0  0  0  0  0  0  0  0  0  0  0  0
   28.2717  -20.4282   -6.7050 C   0  0  0  0  0  0  0  0  0  0  0  0
   24.7088  -20.8924   -8.3626 C   0  0  0  0  0  0  0  0  0  0  0  0
   24.2034  -19.8066   -8.7101 O   0  0  0  0  0  0  0  0  0  0  0  0
   24.3295  -21.4743   -7.1808 O   0  0  0  0  0  0  0  0  0  0  0  0
  1  5  1  0
  2  1  1  0
  2  3  1  0
  3  4  1  0
  4  5  1  0
  5  6  1  1
  6  7  2  0
  8  9  1  0
  8  6  1  0
  9 13  1  0
  9 10  1  6
 11 15  1  0
 11 10  1  0
 12 11  2  0
 13 16  1  0
 13 14  2  0
 16 17  1  0
 17 28  1  0
 17 18  1  1
 19 18  1  0
 19 27  1  0
 20 19  2  0
 21 20  1  0
 21 22  1  0
 22 23  1  0
 22 27  2  0
 23 24  2  0
 24 25  1  0
 26 25  2  0
 27 26  1  0
 28 29  2  0
 28 30  1  0
M  END
$$$$
