PDW.pdb
     RDKit          3D

 30 32  0  0  1  0  0  0  0  0999 V2000
   28.7015  -19.3155  -17.2536 N   0  0  0  0  0  0  0  0  0  0  0  0
   30.0025  -18.9226  -17.8158 C   0  0  0  0  0  0  0  0  0  0  0  0
   30.3908  -17.6493  -17.1295 C   0  0  0  0  0  0  0  0  0  0  0  0
   29.1803  -17.3216  -16.2460 C   0  0  0  0  0  0  0  0  0  0  0  0
   28.6384  -18.6859  -15.9589 C   0  0  1  0  0  0  0  0  0  0  0  0
   27.2739  -18.7211  -15.4315 C   0  0  0  0  0  0  0  0  0  0  0  0
   27.0287  -18.1206  -14.3361 O   0  0  0  0  0  0  0  0  0  0  0  0
   26.1843  -19.3815  -16.0547 N   0  0  0  0  0  0  0  0  0  0  0  0
   24.8347  -19.3037  -15.4456 C   0  0  1  0  0  0  0  0  0  0  0  0
   23.8340  -19.1994  -16.5708 C   0  0  0  0  0  0  0  0  0  0  0  0
   24.5389  -19.0040  -17.8489 C   0  0  0  0  0  0  0  0  0  0  0  0
   24.9365  -17.8286  -18.1902 O   0  0  0  0  0  0  0  0  0  0  0  0
   24.6326  -20.5091  -14.5922 C   0  0  0  0  0  0  0  0  0  0  0  0
   24.2920  -21.5996  -15.0895 O   0  0  0  0  0  0  0  0  0  0  0  0
   24.8358  -19.9860  -18.7743 O   0  0  0  0  0  0  0  0  0  0  0  0
   24.8188  -20.4677  -13.1790 N   0  0  0  0  0  0  0  0  0  0  0  0
   24.5097  -21.5559  -12.2797 C   0  0  1  0  0  0  0  0  0  0  0  0
   25.7208  -22.0208  -11.5106 C   0  0  0  0  0  0  0  0  0  0  0  0
   25.9932  -21.1606  -10.3384 C   0  0  0  0  0  0  0  0  0  0  0  0
   25.0630  -20.3738   -9.6952 C   0  0  0  0  0  0  0  0  0  0  0  0
   25.6878  -19.7491   -8.6850 N   0  0  0  0  0  0  0  0  0  0  0  0
   26.9860  -20.1215   -8.6753 C   0  0  0  0  0  0  0  0  0  0  0  0
   28.0523  -19.7771   -7.8554 C   0  0  0  0  0  0  0  0  0  0  0  0
   29.2981  -20.3151   -8.0730 C   0  0  0  0  0  0  0  0  0  0  0  0
   29.4913  -21.1972   -9.1049 C   0  0  0  0  0  0  0  0  0  0  0  0
   28.4708  -21.5688   -9.9426 C   0  0  0  0  0  0  0  0  0  0  0  0
   27.2109  -21.0143   -9.7096 C   0  0  0  0  0  0  0  0  0  0  0  0
   23.3781  -21.2206  -11.3924 C   0  0  0  0  0  0  0  0  0  0  0  0
   23.0475  -20.0270  -11.2470 O   0  0  0  0  0  0  0  0  0  0  0  0
   22.6916  -22.2045  -10.7292 O   0  0  0  0  0  0  0  0  0  0  0  0
  1  5  1  0
  2  1  1  0
  2  3  1  0
  3  4  1  0
  4  5  1  0
  5  6  1  6
  6  7  2  0
  8  9  1  0
  8  6  1  0
  9 13  1  0
  9 10  1  6
 11 15  1  0
 11 10  1  0
 12 11  2  0
 13 16  1  0
 13 14  2  0
 16 17  1  0
 17 28  1  0
 17 18  1  1
 19 18  1  0
 19 27  1  0
 20 19  2  0
 21 20  1  0
 21 22  1  0
 22 23  1  0
 22 27  2  0
 23 24  2  0
 24 25  1  0
 26 25  2  0
 27 26  1  0
 28 29  2  0
 28 30  1  0
M  END
$$$$
