PDW.pdb
     RDKit          3D

 30 32  0  0  1  0  0  0  0  0999 V2000
   28.5723  -19.5706  -16.4357 N   0  0  0  0  0  0  0  0  0  0  0  0
   29.4584  -19.1220  -17.5203 C   0  0  0  0  0  0  0  0  0  0  0  0
   29.7543  -17.6783  -17.2527 C   0  0  0  0  0  0  0  0  0  0  0  0
   28.8947  -17.3461  -16.0264 C   0  0  0  0  0  0  0  0  0  0  0  0
   28.8261  -18.6722  -15.3379 C   0  0  1  0  0  0  0  0  0  0  0  0
   27.7862  -18.7959  -14.3159 C   0  0  0  0  0  0  0  0  0  0  0  0
   27.8103  -17.9995  -13.3231 O   0  0  0  0  0  0  0  0  0  0  0  0
   26.7353  -19.7481  -14.3446 N   0  0  0  0  0  0  0  0  0  0  0  0
   25.6559  -19.6789  -13.3304 C   0  0  1  0  0  0  0  0  0  0  0  0
   24.3464  -19.9105  -14.0445 C   0  0  0  0  0  0  0  0  0  0  0  0
   24.0836  -18.8015  -14.9770 C   0  0  0  0  0  0  0  0  0  0  0  0
   24.1262  -19.0060  -16.2469 O   0  0  0  0  0  0  0  0  0  0  0  0
   25.9348  -20.6943  -12.2752 C   0  0  0  0  0  0  0  0  0  0  0  0
   26.7551  -21.6124  -12.4667 O   0  0  0  0  0  0  0  0  0  0  0  0
   23.7842  -17.4982  -14.6297 O   0  0  0  0  0  0  0  0  0  0  0  0
   25.2798  -20.6599  -11.0090 N   0  0  0  0  0  0  0  0  0  0  0  0
   25.5226  -21.5962   -9.9353 C   0  0  1  0  0  0  0  0  0  0  0  0
   26.9409  -21.5254   -9.4275 C   0  0  0  0  0  0  0  0  0  0  0  0
   27.1281  -20.4156   -8.4675 C   0  0  0  0  0  0  0  0  0  0  0  0
   26.3613  -19.2723   -8.4133 C   0  0  0  0  0  0  0  0  0  0  0  0
   26.8357  -18.5116   -7.4147 N   0  0  0  0  0  0  0  0  0  0  0  0
   27.8804  -19.1453   -6.8391 C   0  0  0  0  0  0  0  0  0  0  0  0
   28.7158  -18.8043   -5.7839 C   0  0  0  0  0  0  0  0  0  0  0  0
   29.7250  -19.6522   -5.3947 C   0  0  0  0  0  0  0  0  0  0  0  0
   29.9094  -20.8422   -6.0506 C   0  0  0  0  0  0  0  0  0  0  0  0
   29.1114  -21.2245   -7.0986 C   0  0  0  0  0  0  0  0  0  0  0  0
   28.0905  -20.3532   -7.4829 C   0  0  0  0  0  0  0  0  0  0  0  0
   24.5318  -21.4457   -8.8509 C   0  0  0  0  0  0  0  0  0  0  0  0
   24.5819  -22.2092   -7.8662 O   0  0  0  0  0  0  0  0  0  0  0  0
   23.5614  -20.4798   -8.9167 O   0  0  0  0  0  0  0  0  0  0  0  0
  1  5  1  0
  2  1  1  0
  2  3  1  0
  3  4  1  0
  4  5  1  0
  5  6  1  1
  6  7  2  0
  8  9  1  0
  8  6  1  0
  9 13  1  0
  9 10  1  6
 11 15  1  0
 11 10  1  0
 12 11  2  0
 13 16  1  0
 13 14  2  0
 16 17  1  0
 17 28  1  0
 17 18  1  1
 19 18  1  0
 19 27  1  0
 20 19  2  0
 21 20  1  0
 21 22  1  0
 22 23  1  0
 22 27  2  0
 23 24  2  0
 24 25  1  0
 26 25  2  0
 27 26  1  0
 28 29  2  0
 28 30  1  0
M  END
$$$$
