HNR.pdb
     RDKit          3D

 30 30  0  0  1  0  0  0  0  0999 V2000
   28.7212  -19.1189  -19.2569 N   0  0  0  0  0  0  0  0  0  0  0  0
   28.9674  -18.2997  -18.1022 C   0  0  1  0  0  0  0  0  0  0  0  0
   29.5619  -16.9830  -18.5435 C   0  0  0  0  0  0  0  0  0  0  0  0
   30.8515  -17.1690  -19.2552 C   0  0  0  0  0  0  0  0  0  0  0  0
   31.1584  -16.6509  -20.4796 C   0  0  0  0  0  0  0  0  0  0  0  0
   32.4028  -17.0353  -20.7804 N   0  0  0  0  0  0  0  0  0  0  0  0
   32.8477  -17.7785  -19.7510 C   0  0  0  0  0  0  0  0  0  0  0  0
   31.9124  -17.8805  -18.7915 N   0  0  0  0  0  0  0  0  0  0  0  0
   27.6988  -17.9938  -17.3748 C   0  0  0  0  0  0  0  0  0  0  0  0
   27.7271  -17.2009  -16.4214 O   0  0  0  0  0  0  0  0  0  0  0  0
   22.9357  -17.7013  -15.9884 N   0  0  0  0  0  0  0  0  0  0  0  0
   22.8761  -17.9626  -17.3820 C   0  0  0  0  0  0  0  0  0  0  0  0
   21.8006  -17.9082  -17.9971 O   0  0  0  0  0  0  0  0  0  0  0  0
   24.1352  -18.3060  -18.1021 C   0  0  0  0  0  0  0  0  0  0  0  0
   25.2261  -18.3777  -17.0558 C   0  0  2  0  0  0  0  0  0  0  0  0
   26.4729  -18.5921  -17.7555 N   0  0  0  0  0  0  0  0  0  0  0  0
   24.9640  -19.4524  -16.0610 C   0  0  0  0  0  0  0  0  0  0  0  0
   25.0891  -20.6421  -16.4359 O   0  0  0  0  0  0  0  0  0  0  0  0
   22.2178  -20.5217   -8.8568 N   0  0  0  0  0  0  0  0  0  0  0  0
   23.3607  -21.1181   -8.2327 C   0  0  0  0  0  0  0  0  0  0  0  0
   23.2590  -21.8711   -7.1769 N   0  0  0  0  0  0  0  0  0  0  0  0
   24.6741  -20.9119   -8.7430 N   0  0  0  0  0  0  0  0  0  0  0  0
   24.8847  -20.0156   -9.8374 C   0  0  0  0  0  0  0  0  0  0  0  0
   24.5102  -20.5059  -11.1701 C   0  0  0  0  0  0  0  0  0  0  0  0
   24.7665  -19.7742  -12.3965 C   0  0  0  0  0  0  0  0  0  0  0  0
   24.3048  -20.2267  -13.7277 C   0  0  2  0  0  0  0  0  0  0  0  0
   24.5874  -19.1801  -14.7375 N   0  0  0  0  0  0  0  0  0  0  0  0
   22.9677  -20.7262  -13.9168 C   0  0  0  0  0  0  0  0  0  0  0  0
   21.9391  -20.1015  -14.2071 O   0  0  0  0  0  0  0  0  0  0  0  0
   22.7674  -22.1183  -13.7563 O   0  0  0  0  0  0  0  0  0  0  0  0
  2  1  1  6
  2  3  1  0
  2  9  1  0
  4  5  2  0
  4  3  1  0
  6  5  1  0
  7  8  2  0
  7  6  1  0
  8  4  1  0
  9 10  2  0
 11 12  1  0
 12 13  2  0
 14 12  1  0
 15 14  1  6
 16  9  1  0
 16 15  1  0
 17 15  1  0
 17 18  2  0
 20 19  1  0
 20 22  1  0
 21 20  2  0
 22 23  1  0
 23 24  1  0
 24 25  1  0
 26 25  1  1
 26 28  1  0
 26 27  1  0
 27 17  1  0
 28 30  1  0
 29 28  2  0
M  END
$$$$
