HNR.pdb
     RDKit          3D

 30 30  0  0  1  0  0  0  0  0999 V2000
   13.5842  -10.5499  -11.1863 N   0  0  0  0  0  0  0  0  0  0  0  0
   14.9658  -10.3626  -10.8381 C   0  0  1  0  0  0  0  0  0  0  0  0
   15.8324  -11.1278  -11.8105 C   0  0  0  0  0  0  0  0  0  0  0  0
   15.6173  -12.5932  -11.7087 C   0  0  0  0  0  0  0  0  0  0  0  0
   16.1706  -13.4078  -10.7642 C   0  0  0  0  0  0  0  0  0  0  0  0
   15.7417  -14.6512  -11.0019 N   0  0  0  0  0  0  0  0  0  0  0  0
   14.9368  -14.5938  -12.0783 C   0  0  0  0  0  0  0  0  0  0  0  0
   14.8389  -13.3354  -12.5394 N   0  0  0  0  0  0  0  0  0  0  0  0
   15.3572   -8.9237  -10.9300 C   0  0  0  0  0  0  0  0  0  0  0  0
   15.1373   -8.3054  -11.9825 O   0  0  0  0  0  0  0  0  0  0  0  0
   17.3457   -4.4402   -9.8136 N   0  0  0  0  0  0  0  0  0  0  0  0
   16.7206   -4.8790   -8.6176 C   0  0  0  0  0  0  0  0  0  0  0  0
   16.5757   -4.1124   -7.6536 O   0  0  0  0  0  0  0  0  0  0  0  0
   16.2364   -6.2865   -8.5358 C   0  0  0  0  0  0  0  0  0  0  0  0
   16.4567   -6.8996   -9.9016 C   0  0  2  0  0  0  0  0  0  0  0  0
   15.9716   -8.2602   -9.8400 N   0  0  0  0  0  0  0  0  0  0  0  0
   17.8879   -6.8457  -10.3041 C   0  0  0  0  0  0  0  0  0  0  0  0
   18.7275   -7.4084   -9.5625 O   0  0  0  0  0  0  0  0  0  0  0  0
   21.4822  -11.0920  -16.4993 N   0  0  0  0  0  0  0  0  0  0  0  0
   22.4231  -10.0191  -16.3758 C   0  0  0  0  0  0  0  0  0  0  0  0
   23.4322   -9.8863  -17.1858 N   0  0  0  0  0  0  0  0  0  0  0  0
   22.2973   -9.0392  -15.3502 N   0  0  0  0  0  0  0  0  0  0  0  0
   21.0439   -8.8535  -14.6870 C   0  0  0  0  0  0  0  0  0  0  0  0
   20.9781   -7.7708  -13.6968 C   0  0  0  0  0  0  0  0  0  0  0  0
   19.7802   -7.4381  -12.9488 C   0  0  0  0  0  0  0  0  0  0  0  0
   19.6958   -6.2974  -12.0099 C   0  0  2  0  0  0  0  0  0  0  0  0
   18.3202   -6.1953  -11.4694 N   0  0  0  0  0  0  0  0  0  0  0  0
   20.1586   -4.9887  -12.3918 C   0  0  0  0  0  0  0  0  0  0  0  0
   19.4957   -3.9910  -12.7043 O   0  0  0  0  0  0  0  0  0  0  0  0
   21.5585   -4.7806  -12.4245 O   0  0  0  0  0  0  0  0  0  0  0  0
  2  1  1  6
  2  3  1  0
  2  9  1  0
  4  5  2  0
  4  3  1  0
  6  5  1  0
  7  8  2  0
  7  6  1  0
  8  4  1  0
  9 10  2  0
 11 12  1  0
 12 13  2  0
 14 12  1  0
 15 14  1  1
 16  9  1  0
 16 15  1  0
 17 15  1  0
 17 18  2  0
 20 19  1  0
 20 22  1  0
 21 20  2  0
 22 23  1  0
 23 24  1  0
 24 25  1  0
 26 25  1  6
 26 28  1  0
 26 27  1  0
 27 17  1  0
 28 30  1  0
 29 28  2  0
M  END
$$$$
