HNR.pdb
     RDKit          3D

 30 30  0  0  1  0  0  0  0  0999 V2000
   15.1721  -23.8457   -2.5562 N   0  0  0  0  0  0  0  0  0  0  0  0
   14.6385  -22.7119   -1.8528 C   0  0  1  0  0  0  0  0  0  0  0  0
   13.1488  -22.8906   -1.6779 C   0  0  0  0  0  0  0  0  0  0  0  0
   12.4380  -22.9181   -2.9810 C   0  0  0  0  0  0  0  0  0  0  0  0
   12.2489  -21.8426   -3.7992 C   0  0  0  0  0  0  0  0  0  0  0  0
   11.5710  -22.2648   -4.8710 N   0  0  0  0  0  0  0  0  0  0  0  0
   11.3504  -23.5817   -4.7071 C   0  0  0  0  0  0  0  0  0  0  0  0
   11.8738  -24.0166   -3.5483 N   0  0  0  0  0  0  0  0  0  0  0  0
   15.2356  -22.5909   -0.4886 C   0  0  0  0  0  0  0  0  0  0  0  0
   15.8138  -23.5709    0.0051 O   0  0  0  0  0  0  0  0  0  0  0  0
   17.5063  -20.5991    3.4549 N   0  0  0  0  0  0  0  0  0  0  0  0
   17.8964  -19.9788    2.2396 C   0  0  0  0  0  0  0  0  0  0  0  0
   18.8841  -19.2304    2.1923 O   0  0  0  0  0  0  0  0  0  0  0  0
   17.0957  -20.2423    1.0103 C   0  0  0  0  0  0  0  0  0  0  0  0
   15.9291  -21.1093    1.4316 C   0  0  2  0  0  0  0  0  0  0  0  0
   15.1511  -21.3817    0.2438 N   0  0  0  0  0  0  0  0  0  0  0  0
   15.1091  -20.4535    2.4854 C   0  0  0  0  0  0  0  0  0  0  0  0
   14.5342  -19.3775    2.1967 O   0  0  0  0  0  0  0  0  0  0  0  0
   13.5724  -24.1454   10.4024 N   0  0  0  0  0  0  0  0  0  0  0  0
   12.6654  -24.5088    9.3551 C   0  0  0  0  0  0  0  0  0  0  0  0
   11.8046  -25.4748    9.4887 N   0  0  0  0  0  0  0  0  0  0  0  0
   12.6642  -23.8238    8.1067 N   0  0  0  0  0  0  0  0  0  0  0  0
   13.6689  -22.8454    7.8256 C   0  0  0  0  0  0  0  0  0  0  0  0
   13.5208  -22.0920    6.5736 C   0  0  0  0  0  0  0  0  0  0  0  0
   14.4512  -21.0674    6.1381 C   0  0  0  0  0  0  0  0  0  0  0  0
   14.2845  -20.2929    4.8881 C   0  0  2  0  0  0  0  0  0  0  0  0
   14.9613  -20.9932    3.7717 N   0  0  0  0  0  0  0  0  0  0  0  0
   14.6053  -18.8902    4.8383 C   0  0  0  0  0  0  0  0  0  0  0  0
   13.8527  -17.9161    4.9703 O   0  0  0  0  0  0  0  0  0  0  0  0
   15.9582  -18.5428    4.6086 O   0  0  0  0  0  0  0  0  0  0  0  0
  2  1  1  1
  2  3  1  0
  2  9  1  0
  4  5  2  0
  4  3  1  0
  6  5  1  0
  7  8  2  0
  7  6  1  0
  8  4  1  0
  9 10  2  0
 11 12  1  0
 12 13  2  0
 14 12  1  0
 15 14  1  6
 16  9  1  0
 16 15  1  0
 17 15  1  0
 17 18  2  0
 20 19  1  0
 20 22  1  0
 21 20  2  0
 22 23  1  0
 23 24  1  0
 24 25  1  0
 26 25  1  1
 26 28  1  0
 26 27  1  0
 27 17  1  0
 28 30  1  0
 29 28  2  0
M  END
$$$$
