HNR.pdb
     RDKit          3D

 30 30  0  0  1  0  0  0  0  0999 V2000
   20.5037  -28.8900  -14.5604 N   0  0  0  0  0  0  0  0  0  0  0  0
   19.8028  -27.6407  -14.4459 C   0  0  1  0  0  0  0  0  0  0  0  0
   20.3472  -26.8708  -13.2657 C   0  0  0  0  0  0  0  0  0  0  0  0
   20.0528  -27.5498  -11.9787 C   0  0  0  0  0  0  0  0  0  0  0  0
   20.9743  -28.1662  -11.1833 C   0  0  0  0  0  0  0  0  0  0  0  0
   20.3279  -28.6546  -10.1201 N   0  0  0  0  0  0  0  0  0  0  0  0
   19.0284  -28.3389  -10.2668 C   0  0  0  0  0  0  0  0  0  0  0  0
   18.8249  -27.6556  -11.4060 N   0  0  0  0  0  0  0  0  0  0  0  0
   20.0032  -26.7940  -15.6604 C   0  0  0  0  0  0  0  0  0  0  0  0
   21.0150  -26.9686  -16.3563 O   0  0  0  0  0  0  0  0  0  0  0  0
   16.5938  -25.0936  -19.4142 N   0  0  0  0  0  0  0  0  0  0  0  0
   16.9856  -25.2954  -18.0653 C   0  0  0  0  0  0  0  0  0  0  0  0
   16.6086  -26.2931  -17.4326 O   0  0  0  0  0  0  0  0  0  0  0  0
   17.8646  -24.2827  -17.4143 C   0  0  0  0  0  0  0  0  0  0  0  0
   19.2023  -24.9530  -17.1876 C   0  0  2  0  0  0  0  0  0  0  0  0
   19.0610  -25.8019  -16.0259 N   0  0  0  0  0  0  0  0  0  0  0  0
   20.2930  -23.9571  -17.0094 C   0  0  0  0  0  0  0  0  0  0  0  0
   20.6646  -23.6968  -15.8407 O   0  0  0  0  0  0  0  0  0  0  0  0
   27.2590  -25.5283  -16.6335 N   0  0  0  0  0  0  0  0  0  0  0  0
   27.5319  -24.4451  -17.5301 C   0  0  0  0  0  0  0  0  0  0  0  0
   28.5391  -24.4645  -18.3531 N   0  0  0  0  0  0  0  0  0  0  0  0
   26.7065  -23.2852  -17.5619 N   0  0  0  0  0  0  0  0  0  0  0  0
   25.4632  -23.2713  -16.8550 C   0  0  0  0  0  0  0  0  0  0  0  0
   24.4841  -24.3009  -17.2268 C   0  0  0  0  0  0  0  0  0  0  0  0
   23.0516  -24.0728  -17.2584 C   0  0  0  0  0  0  0  0  0  0  0  0
   22.3725  -23.2981  -18.3208 C   0  0  2  0  0  0  0  0  0  0  0  0
   20.9089  -23.3107  -18.0912 N   0  0  0  0  0  0  0  0  0  0  0  0
   22.6414  -23.5559  -19.7115 C   0  0  0  0  0  0  0  0  0  0  0  0
   22.0595  -24.3277  -20.4850 O   0  0  0  0  0  0  0  0  0  0  0  0
   23.7115  -22.8459  -20.3070 O   0  0  0  0  0  0  0  0  0  0  0  0
  2  1  1  6
  2  3  1  0
  2  9  1  0
  4  5  2  0
  4  3  1  0
  6  5  1  0
  7  8  2  0
  7  6  1  0
  8  4  1  0
  9 10  2  0
 11 12  1  0
 12 13  2  0
 14 12  1  0
 15 14  1  1
 16  9  1  0
 16 15  1  0
 17 15  1  0
 17 18  2  0
 20 19  1  0
 20 22  1  0
 21 20  2  0
 22 23  1  0
 23 24  1  0
 24 25  1  0
 26 25  1  1
 26 28  1  0
 26 27  1  0
 27 17  1  0
 28 30  1  0
 29 28  2  0
M  END
$$$$
