HNR.pdb
     RDKit          3D

 30 30  0  0  1  0  0  0  0  0999 V2000
   28.3467  -19.1598  -16.2465 N   0  0  0  0  0  0  0  0  0  0  0  0
   27.4422  -18.8985  -15.1609 C   0  0  1  0  0  0  0  0  0  0  0  0
   26.4588  -17.8305  -15.5783 C   0  0  0  0  0  0  0  0  0  0  0  0
   27.1276  -16.5280  -15.8238 C   0  0  0  0  0  0  0  0  0  0  0  0
   27.6607  -15.7213  -14.8611 C   0  0  0  0  0  0  0  0  0  0  0  0
   28.1698  -14.6465  -15.4712 N   0  0  0  0  0  0  0  0  0  0  0  0
   27.9491  -14.7975  -16.7896 C   0  0  0  0  0  0  0  0  0  0  0  0
   27.3065  -15.9507  -17.0409 N   0  0  0  0  0  0  0  0  0  0  0  0
   26.6530  -20.1171  -14.8083 C   0  0  0  0  0  0  0  0  0  0  0  0
   26.4165  -20.9575  -15.6893 O   0  0  0  0  0  0  0  0  0  0  0  0
   24.5409  -20.9618   -9.6022 N   0  0  0  0  0  0  0  0  0  0  0  0
   25.1271  -20.6515  -10.8568 C   0  0  0  0  0  0  0  0  0  0  0  0
   25.0345  -19.5139  -11.3418 O   0  0  0  0  0  0  0  0  0  0  0  0
   25.8622  -21.7215  -11.5894 C   0  0  0  0  0  0  0  0  0  0  0  0
   25.5336  -21.5454  -13.0561 C   0  0  2  0  0  0  0  0  0  0  0  0
   26.1742  -20.3247  -13.4917 N   0  0  0  0  0  0  0  0  0  0  0  0
   24.0649  -21.5073  -13.2897 C   0  0  0  0  0  0  0  0  0  0  0  0
   23.5197  -20.3855  -13.4153 O   0  0  0  0  0  0  0  0  0  0  0  0
   19.7673  -28.2663  -13.0518 N   0  0  0  0  0  0  0  0  0  0  0  0
   20.5567  -27.9564  -14.2062 C   0  0  0  0  0  0  0  0  0  0  0  0
   21.4200  -28.7947  -14.7001 N   0  0  0  0  0  0  0  0  0  0  0  0
   20.4328  -26.7040  -14.8726 N   0  0  0  0  0  0  0  0  0  0  0  0
   19.4902  -25.7348  -14.4062 C   0  0  0  0  0  0  0  0  0  0  0  0
   19.9869  -24.3630  -14.2372 C   0  0  0  0  0  0  0  0  0  0  0  0
   21.3444  -24.0441  -13.8366 C   0  0  0  0  0  0  0  0  0  0  0  0
   21.8171  -22.6647  -13.5834 C   0  0  2  0  0  0  0  0  0  0  0  0
   23.2836  -22.6693  -13.3728 N   0  0  0  0  0  0  0  0  0  0  0  0
   21.1920  -21.8403  -12.5822 C   0  0  0  0  0  0  0  0  0  0  0  0
   21.6083  -21.5347  -11.4571 O   0  0  0  0  0  0  0  0  0  0  0  0
   19.9270  -21.2875  -12.8955 O   0  0  0  0  0  0  0  0  0  0  0  0
  2  1  1  6
  2  3  1  0
  2  9  1  0
  4  5  2  0
  4  3  1  0
  6  5  1  0
  7  8  2  0
  7  6  1  0
  8  4  1  0
  9 10  2  0
 11 12  1  0
 12 13  2  0
 14 12  1  0
 15 14  1  1
 16  9  1  0
 16 15  1  0
 17 15  1  0
 17 18  2  0
 20 19  1  0
 20 22  1  0
 21 20  2  0
 22 23  1  0
 23 24  1  0
 24 25  1  0
 26 25  1  1
 26 28  1  0
 26 27  1  0
 27 17  1  0
 28 30  1  0
 29 28  2  0
M  END
$$$$
