HNR.pdb
     RDKit          3D

 30 30  0  0  1  0  0  0  0  0999 V2000
   26.2854  -20.6954  -18.8059 N   0  0  0  0  0  0  0  0  0  0  0  0
   25.3276  -21.4485  -18.0441 C   0  0  1  0  0  0  0  0  0  0  0  0
   25.8278  -21.6010  -16.6269 C   0  0  0  0  0  0  0  0  0  0  0  0
   26.9670  -22.5491  -16.5413 C   0  0  0  0  0  0  0  0  0  0  0  0
   27.5071  -23.2302  -17.5931 C   0  0  0  0  0  0  0  0  0  0  0  0
   28.5083  -23.9780  -17.1187 N   0  0  0  0  0  0  0  0  0  0  0  0
   28.5766  -23.7545  -15.7939 C   0  0  0  0  0  0  0  0  0  0  0  0
   27.6371  -22.8758  -15.4051 N   0  0  0  0  0  0  0  0  0  0  0  0
   24.0124  -20.7426  -17.9785 C   0  0  0  0  0  0  0  0  0  0  0  0
   23.9924  -19.5026  -17.9987 O   0  0  0  0  0  0  0  0  0  0  0  0
   21.6740  -23.3581  -20.0053 N   0  0  0  0  0  0  0  0  0  0  0  0
   20.6843  -22.5853  -19.3441 C   0  0  0  0  0  0  0  0  0  0  0  0
   19.6793  -23.1196  -18.8518 O   0  0  0  0  0  0  0  0  0  0  0  0
   20.8717  -21.1095  -19.2487 C   0  0  0  0  0  0  0  0  0  0  0  0
   21.4931  -20.8391  -17.8956 C   0  0  2  0  0  0  0  0  0  0  0  0
   22.7967  -21.4642  -17.8939 N   0  0  0  0  0  0  0  0  0  0  0  0
   20.6402  -21.3470  -16.7876 C   0  0  0  0  0  0  0  0  0  0  0  0
   21.0107  -22.3852  -16.1905 O   0  0  0  0  0  0  0  0  0  0  0  0
   17.9320  -22.6573  -10.8165 N   0  0  0  0  0  0  0  0  0  0  0  0
   18.4683  -23.9620  -11.0650 C   0  0  0  0  0  0  0  0  0  0  0  0
   18.0598  -25.0135  -10.4173 N   0  0  0  0  0  0  0  0  0  0  0  0
   19.4840  -24.1707  -12.0410 N   0  0  0  0  0  0  0  0  0  0  0  0
   19.6256  -23.2589  -13.1336 C   0  0  0  0  0  0  0  0  0  0  0  0
   18.9664  -21.9542  -12.9907 C   0  0  0  0  0  0  0  0  0  0  0  0
   18.8976  -20.9685  -14.0530 C   0  0  0  0  0  0  0  0  0  0  0  0
   18.4834  -21.2890  -15.4372 C   0  0  2  0  0  0  0  0  0  0  0  0
   19.4531  -20.7103  -16.3961 N   0  0  0  0  0  0  0  0  0  0  0  0
   17.1434  -21.0196  -15.8897 C   0  0  0  0  0  0  0  0  0  0  0  0
   16.0714  -21.4442  -15.4391 O   0  0  0  0  0  0  0  0  0  0  0  0
   16.9964  -20.1544  -17.0005 O   0  0  0  0  0  0  0  0  0  0  0  0
  2  1  1  6
  2  3  1  0
  2  9  1  0
  4  5  2  0
  4  3  1  0
  6  5  1  0
  7  8  2  0
  7  6  1  0
  8  4  1  0
  9 10  2  0
 11 12  1  0
 12 13  2  0
 14 12  1  0
 15 14  1  6
 16  9  1  0
 16 15  1  0
 17 15  1  0
 17 18  2  0
 20 19  1  0
 20 22  1  0
 21 20  2  0
 22 23  1  0
 23 24  1  0
 24 25  1  0
 26 25  1  1
 26 28  1  0
 26 27  1  0
 27 17  1  0
 28 30  1  0
 29 28  2  0
M  END
$$$$
