HNR.pdb
     RDKit          3D

 30 30  0  0  1  0  0  0  0  0999 V2000
   28.4366  -17.9278  -18.1658 N   0  0  0  0  0  0  0  0  0  0  0  0
   27.0959  -17.7662  -18.6570 C   0  0  1  0  0  0  0  0  0  0  0  0
   27.0845  -17.9788  -20.1525 C   0  0  0  0  0  0  0  0  0  0  0  0
   28.0567  -17.0954  -20.8443 C   0  0  0  0  0  0  0  0  0  0  0  0
   29.0228  -17.5131  -21.7126 C   0  0  0  0  0  0  0  0  0  0  0  0
   29.6918  -16.4312  -22.1233 N   0  0  0  0  0  0  0  0  0  0  0  0
   29.1392  -15.3678  -21.5121 C   0  0  0  0  0  0  0  0  0  0  0  0
   28.1256  -15.7444  -20.7143 N   0  0  0  0  0  0  0  0  0  0  0  0
   26.1737  -18.7769  -18.0567 C   0  0  0  0  0  0  0  0  0  0  0  0
   25.0938  -19.0157  -18.6181 O   0  0  0  0  0  0  0  0  0  0  0  0
   26.9123  -23.2723  -16.4998 N   0  0  0  0  0  0  0  0  0  0  0  0
   27.3656  -22.0070  -16.0445 C   0  0  0  0  0  0  0  0  0  0  0  0
   28.4997  -21.5938  -16.3295 O   0  0  0  0  0  0  0  0  0  0  0  0
   26.4514  -21.1743  -15.2121 C   0  0  0  0  0  0  0  0  0  0  0  0
   25.6140  -20.3588  -16.1732 C   0  0  2  0  0  0  0  0  0  0  0  0
   26.5126  -19.4614  -16.8641 N   0  0  0  0  0  0  0  0  0  0  0  0
   24.5337  -19.6175  -15.4685 C   0  0  0  0  0  0  0  0  0  0  0  0
   24.8577  -18.8837  -14.5051 O   0  0  0  0  0  0  0  0  0  0  0  0
   18.8204  -13.8679  -18.1995 N   0  0  0  0  0  0  0  0  0  0  0  0
   18.1844  -14.3029  -16.9921 C   0  0  0  0  0  0  0  0  0  0  0  0
   17.1405  -13.7000  -16.5033 N   0  0  0  0  0  0  0  0  0  0  0  0
   18.6702  -15.4255  -16.2630 N   0  0  0  0  0  0  0  0  0  0  0  0
   19.8580  -16.0977  -16.6906 C   0  0  0  0  0  0  0  0  0  0  0  0
   20.4093  -17.1048  -15.7747 C   0  0  0  0  0  0  0  0  0  0  0  0
   21.5312  -17.9631  -16.1060 C   0  0  0  0  0  0  0  0  0  0  0  0
   22.0894  -18.9705  -15.1767 C   0  0  2  0  0  0  0  0  0  0  0  0
   23.1852  -19.7125  -15.8427 N   0  0  0  0  0  0  0  0  0  0  0  0
   21.2305  -19.8995  -14.4895 C   0  0  0  0  0  0  0  0  0  0  0  0
   20.9593  -21.0708  -14.7845 O   0  0  0  0  0  0  0  0  0  0  0  0
   20.5932  -19.4425  -13.3110 O   0  0  0  0  0  0  0  0  0  0  0  0
  2  1  1  1
  2  3  1  0
  2  9  1  0
  4  5  2  0
  4  3  1  0
  6  5  1  0
  7  8  2  0
  7  6  1  0
  8  4  1  0
  9 10  2  0
 11 12  1  0
 12 13  2  0
 14 12  1  0
 15 14  1  1
 16  9  1  0
 16 15  1  0
 17 15  1  0
 17 18  2  0
 20 19  1  0
 20 22  1  0
 21 20  2  0
 22 23  1  0
 23 24  1  0
 24 25  1  0
 26 25  1  6
 26 28  1  0
 26 27  1  0
 27 17  1  0
 28 30  1  0
 29 28  2  0
M  END
$$$$
