HNR.pdb
     RDKit          3D

 30 30  0  0  1  0  0  0  0  0999 V2000
   27.2429  -19.9163  -15.2239 N   0  0  0  0  0  0  0  0  0  0  0  0
   26.5836  -21.1270  -15.6293 C   0  0  1  0  0  0  0  0  0  0  0  0
   27.6133  -22.2166  -15.8147 C   0  0  0  0  0  0  0  0  0  0  0  0
   28.5906  -21.8788  -16.8800 C   0  0  0  0  0  0  0  0  0  0  0  0
   29.9324  -21.7133  -16.6957 C   0  0  0  0  0  0  0  0  0  0  0  0
   30.4700  -21.4192  -17.8837 N   0  0  0  0  0  0  0  0  0  0  0  0
   29.4670  -21.4060  -18.7802 C   0  0  0  0  0  0  0  0  0  0  0  0
   28.2919  -21.6863  -18.1917 N   0  0  0  0  0  0  0  0  0  0  0  0
   25.6224  -21.5957  -14.5860 C   0  0  0  0  0  0  0  0  0  0  0  0
   25.1379  -22.7336  -14.6808 O   0  0  0  0  0  0  0  0  0  0  0  0
   26.1682  -22.2065  -11.1932 N   0  0  0  0  0  0  0  0  0  0  0  0
   25.6333  -21.0366  -10.5939 C   0  0  0  0  0  0  0  0  0  0  0  0
   26.0808  -20.6066   -9.5202 O   0  0  0  0  0  0  0  0  0  0  0  0
   24.5166  -20.3258  -11.2792 C   0  0  0  0  0  0  0  0  0  0  0  0
   24.2238  -21.1003  -12.5459 C   0  0  2  0  0  0  0  0  0  0  0  0
   25.2589  -20.7652  -13.4980 N   0  0  0  0  0  0  0  0  0  0  0  0
   22.8691  -20.7921  -13.0780 C   0  0  0  0  0  0  0  0  0  0  0  0
   22.6315  -19.6127  -13.4304 O   0  0  0  0  0  0  0  0  0  0  0  0
   16.6332  -25.1186  -12.8746 N   0  0  0  0  0  0  0  0  0  0  0  0
   17.6174  -25.8396  -13.6251 C   0  0  0  0  0  0  0  0  0  0  0  0
   17.9268  -27.0739  -13.3552 N   0  0  0  0  0  0  0  0  0  0  0  0
   18.3102  -25.2329  -14.7113 N   0  0  0  0  0  0  0  0  0  0  0  0
   17.8771  -23.9685  -15.2203 C   0  0  0  0  0  0  0  0  0  0  0  0
   18.4765  -22.7743  -14.6110 C   0  0  0  0  0  0  0  0  0  0  0  0
   19.8574  -22.7040  -14.1713 C   0  0  0  0  0  0  0  0  0  0  0  0
   20.4809  -21.4735  -13.6356 C   0  0  2  0  0  0  0  0  0  0  0  0
   21.8654  -21.7649  -13.1960 N   0  0  0  0  0  0  0  0  0  0  0  0
   19.8161  -20.6835  -12.6322 C   0  0  0  0  0  0  0  0  0  0  0  0
   19.9618  -20.7066  -11.4030 O   0  0  0  0  0  0  0  0  0  0  0  0
   18.8586  -19.7413  -13.0787 O   0  0  0  0  0  0  0  0  0  0  0  0
  2  1  1  1
  2  3  1  0
  2  9  1  0
  4  5  2  0
  4  3  1  0
  6  5  1  0
  7  8  2  0
  7  6  1  0
  8  4  1  0
  9 10  2  0
 11 12  1  0
 12 13  2  0
 14 12  1  0
 15 14  1  1
 16  9  1  0
 16 15  1  0
 17 15  1  0
 17 18  2  0
 20 19  1  0
 20 22  1  0
 21 20  2  0
 22 23  1  0
 23 24  1  0
 24 25  1  0
 26 25  1  1
 26 28  1  0
 26 27  1  0
 27 17  1  0
 28 30  1  0
 29 28  2  0
M  END
$$$$
