HNR.pdb
     RDKit          3D

 30 30  0  0  1  0  0  0  0  0999 V2000
   21.4446  -19.5056  -18.3230 N   0  0  0  0  0  0  0  0  0  0  0  0
   22.4388  -18.7482  -17.6138 C   0  0  1  0  0  0  0  0  0  0  0  0
   21.7540  -17.7318  -16.7306 C   0  0  0  0  0  0  0  0  0  0  0  0
   21.6076  -16.4191  -17.4084 C   0  0  0  0  0  0  0  0  0  0  0  0
   21.7254  -15.2017  -16.8035 C   0  0  0  0  0  0  0  0  0  0  0  0
   21.5291  -14.2659  -17.7375 N   0  0  0  0  0  0  0  0  0  0  0  0
   21.2947  -14.9064  -18.8971 C   0  0  0  0  0  0  0  0  0  0  0  0
   21.3362  -16.2389  -18.7277 N   0  0  0  0  0  0  0  0  0  0  0  0
   23.2591  -19.6275  -16.7273 C   0  0  0  0  0  0  0  0  0  0  0  0
   22.7206  -20.6014  -16.1796 O   0  0  0  0  0  0  0  0  0  0  0  0
   27.8489  -22.1269  -15.1431 N   0  0  0  0  0  0  0  0  0  0  0  0
   27.7539  -20.7111  -15.1208 C   0  0  0  0  0  0  0  0  0  0  0  0
   28.3775  -20.0417  -14.2836 O   0  0  0  0  0  0  0  0  0  0  0  0
   26.8867  -20.0343  -16.1267 C   0  0  0  0  0  0  0  0  0  0  0  0
   25.4649  -20.1542  -15.6226 C   0  0  2  0  0  0  0  0  0  0  0  0
   24.6332  -19.3666  -16.5047 N   0  0  0  0  0  0  0  0  0  0  0  0
   25.3431  -19.7061  -14.2093 C   0  0  0  0  0  0  0  0  0  0  0  0
   25.0323  -18.5101  -13.9977 O   0  0  0  0  0  0  0  0  0  0  0  0
   18.9054  -21.3905  -10.1531 N   0  0  0  0  0  0  0  0  0  0  0  0
   19.2640  -22.2252  -11.2605 C   0  0  0  0  0  0  0  0  0  0  0  0
   18.3822  -22.9190  -11.9187 N   0  0  0  0  0  0  0  0  0  0  0  0
   20.6152  -22.3365  -11.6959 N   0  0  0  0  0  0  0  0  0  0  0  0
   21.6035  -21.4274  -11.2038 C   0  0  0  0  0  0  0  0  0  0  0  0
   22.5209  -20.8531  -12.1965 C   0  0  0  0  0  0  0  0  0  0  0  0
   23.5927  -19.9340  -11.8624 C   0  0  0  0  0  0  0  0  0  0  0  0
   25.0131  -20.3384  -11.7659 C   0  0  2  0  0  0  0  0  0  0  0  0
   25.5615  -20.5665  -13.1232 N   0  0  0  0  0  0  0  0  0  0  0  0
   25.4193  -21.4132  -10.8984 C   0  0  0  0  0  0  0  0  0  0  0  0
   25.5510  -21.4102   -9.6674 O   0  0  0  0  0  0  0  0  0  0  0  0
   25.7161  -22.6577  -11.5040 O   0  0  0  0  0  0  0  0  0  0  0  0
  2  1  1  1
  2  3  1  0
  2  9  1  0
  4  5  2  0
  4  3  1  0
  6  5  1  0
  7  8  2  0
  7  6  1  0
  8  4  1  0
  9 10  2  0
 11 12  1  0
 12 13  2  0
 14 12  1  0
 15 14  1  6
 16  9  1  0
 16 15  1  0
 17 15  1  0
 17 18  2  0
 20 19  1  0
 20 22  1  0
 21 20  2  0
 22 23  1  0
 23 24  1  0
 24 25  1  0
 26 25  1  6
 26 28  1  0
 26 27  1  0
 27 17  1  0
 28 30  1  0
 29 28  2  0
M  END
$$$$
