FEY.pdb
     RDKit          3D

 33 34  0  0  1  0  0  0  0  0999 V2000
   25.6970  -16.6403  -19.6340 N   0  0  0  0  0  0  0  0  0  0  0  0
   25.4794  -17.8509  -18.9049 C   0  0  1  0  0  0  0  0  0  0  0  0
   26.7162  -18.2518  -18.0974 C   0  0  0  0  0  0  0  0  0  0  0  0
   27.7186  -18.7642  -19.0440 C   0  0  0  0  0  0  0  0  0  0  0  0
   27.5382  -19.9965  -19.6276 C   0  0  0  0  0  0  0  0  0  0  0  0
   28.4630  -20.5198  -20.5309 C   0  0  0  0  0  0  0  0  0  0  0  0
   29.5886  -19.7774  -20.8449 C   0  0  0  0  0  0  0  0  0  0  0  0
   29.7655  -18.5498  -20.2615 C   0  0  0  0  0  0  0  0  0  0  0  0
   28.8420  -18.0369  -19.3651 C   0  0  0  0  0  0  0  0  0  0  0  0
   24.3579  -17.7422  -17.9477 C   0  0  0  0  0  0  0  0  0  0  0  0
   24.2516  -16.7260  -17.1919 O   0  0  0  0  0  0  0  0  0  0  0  0
   23.3442  -18.7260  -17.7979 N   0  0  0  0  0  0  0  0  0  0  0  0
   22.2144  -18.5667  -16.8840 C   0  0  1  0  0  0  0  0  0  0  0  0
   21.0018  -19.0827  -17.6089 C   0  0  0  0  0  0  0  0  0  0  0  0
   19.7336  -19.0452  -16.8018 C   0  0  0  0  0  0  0  0  0  0  0  0
   18.6084  -19.5530  -17.6221 C   0  0  0  0  0  0  0  0  0  0  0  0
   18.4084  -19.0800  -18.7538 O   0  0  0  0  0  0  0  0  0  0  0  0
   22.4268  -19.3727  -15.6572 C   0  0  0  0  0  0  0  0  0  0  0  0
   22.9232  -20.5264  -15.6804 O   0  0  0  0  0  0  0  0  0  0  0  0
   17.7877  -20.5429  -17.1358 O   0  0  0  0  0  0  0  0  0  0  0  0
   23.3262  -22.2187   -7.3921 O   0  0  0  0  0  0  0  0  0  0  0  0
   23.2163  -21.4144   -8.5242 C   0  0  0  0  0  0  0  0  0  0  0  0
   22.0114  -20.8237   -8.8418 C   0  0  0  0  0  0  0  0  0  0  0  0
   21.8794  -20.0235   -9.9578 C   0  0  0  0  0  0  0  0  0  0  0  0
   22.9266  -19.7637  -10.8193 C   0  0  0  0  0  0  0  0  0  0  0  0
   22.8089  -18.9201  -12.0269 C   0  0  0  0  0  0  0  0  0  0  0  0
   22.3268  -19.7351  -13.1726 C   0  0  2  0  0  0  0  0  0  0  0  0
   22.0856  -18.9038  -14.3587 N   0  0  0  0  0  0  0  0  0  0  0  0
   21.0539  -20.3928  -12.8369 C   0  0  0  0  0  0  0  0  0  0  0  0
   19.9152  -19.8578  -12.9228 O   0  0  0  0  0  0  0  0  0  0  0  0
   24.1400  -20.3746  -10.4754 C   0  0  0  0  0  0  0  0  0  0  0  0
   24.2829  -21.1748   -9.3640 C   0  0  0  0  0  0  0  0  0  0  0  0
   21.0975  -21.7231  -12.3835 O   0  0  0  0  0  0  0  0  0  0  0  0
  2  1  1  1
  2  3  1  0
  3  4  1  0
  4  5  2  0
  5  6  1  0
  7  6  2  0
  8  7  1  0
  9  4  1  0
  9  8  2  0
 10 11  2  0
 10  2  1  0
 12 10  1  0
 13 18  1  0
 13 12  1  0
 13 14  1  6
 15 14  1  0
 16 15  1  0
 17 16  2  0
 18 28  1  0
 19 18  2  0
 20 16  1  0
 22 21  1  0
 23 22  2  0
 24 23  1  0
 25 24  2  0
 25 31  1  0
 26 25  1  0
 27 26  1  1
 28 27  1  0
 29 27  1  0
 30 29  2  0
 31 32  2  0
 32 22  1  0
 33 29  1  0
M  END
$$$$
