FEY.pdb
     RDKit          3D

 33 34  0  0  1  0  0  0  0  0999 V2000
   17.4659   -9.2336  -16.7627 N   0  0  0  0  0  0  0  0  0  0  0  0
   17.6108   -7.9348  -17.3430 C   0  0  1  0  0  0  0  0  0  0  0  0
   16.2978   -7.4430  -17.9570 C   0  0  0  0  0  0  0  0  0  0  0  0
   16.0854   -8.1872  -19.2076 C   0  0  0  0  0  0  0  0  0  0  0  0
   14.8084   -8.3667  -19.6860 C   0  0  0  0  0  0  0  0  0  0  0  0
   14.5620   -9.0651  -20.8677 C   0  0  0  0  0  0  0  0  0  0  0  0
   15.6318   -9.5887  -21.5734 C   0  0  0  0  0  0  0  0  0  0  0  0
   16.9032   -9.4081  -21.0941 C   0  0  0  0  0  0  0  0  0  0  0  0
   17.1395   -8.7131  -19.9192 C   0  0  0  0  0  0  0  0  0  0  0  0
   18.0317   -6.9171  -16.3565 C   0  0  0  0  0  0  0  0  0  0  0  0
   17.4287   -6.8106  -15.2429 O   0  0  0  0  0  0  0  0  0  0  0  0
   19.1036   -6.0081  -16.5624 N   0  0  0  0  0  0  0  0  0  0  0  0
   19.5252   -5.0387  -15.5528 C   0  0  1  0  0  0  0  0  0  0  0  0
   20.1364   -5.8298  -14.4290 C   0  0  0  0  0  0  0  0  0  0  0  0
   21.2449   -6.7537  -14.8517 C   0  0  0  0  0  0  0  0  0  0  0  0
   21.7757   -7.4667  -13.6656 C   0  0  0  0  0  0  0  0  0  0  0  0
   21.3745   -7.1580  -12.5306 O   0  0  0  0  0  0  0  0  0  0  0  0
   20.5475   -4.1222  -16.1139 C   0  0  0  0  0  0  0  0  0  0  0  0
   21.5177   -4.5269  -16.8016 O   0  0  0  0  0  0  0  0  0  0  0  0
   22.7079   -8.4657  -13.8172 O   0  0  0  0  0  0  0  0  0  0  0  0
   25.1141    1.6040  -20.5507 O   0  0  0  0  0  0  0  0  0  0  0  0
   24.2057    0.7399  -19.9433 C   0  0  0  0  0  0  0  0  0  0  0  0
   24.6414   -0.4399  -19.3778 C   0  0  0  0  0  0  0  0  0  0  0  0
   23.7599   -1.3104  -18.7711 C   0  0  0  0  0  0  0  0  0  0  0  0
   22.4037   -1.0650  -18.6900 C   0  0  0  0  0  0  0  0  0  0  0  0
   21.4371   -1.9858  -18.0562 C   0  0  0  0  0  0  0  0  0  0  0  0
   21.4869   -1.8382  -16.5780 C   0  0  2  0  0  0  0  0  0  0  0  0
   20.5105   -2.7141  -15.9181 N   0  0  0  0  0  0  0  0  0  0  0  0
   21.1646   -0.4565  -16.1875 C   0  0  0  0  0  0  0  0  0  0  0  0
   20.0512   -0.0693  -15.7396 O   0  0  0  0  0  0  0  0  0  0  0  0
   21.9855    0.1396  -19.2713 C   0  0  0  0  0  0  0  0  0  0  0  0
   22.8567    1.0158  -19.8791 C   0  0  0  0  0  0  0  0  0  0  0  0
   22.1694    0.5183  -16.3193 O   0  0  0  0  0  0  0  0  0  0  0  0
  2  1  1  1
  2  3  1  0
  3  4  1  0
  4  5  2  0
  5  6  1  0
  7  6  2  0
  8  7  1  0
  9  4  1  0
  9  8  2  0
 10 11  2  0
 10  2  1  0
 12 10  1  0
 13 18  1  0
 13 12  1  0
 13 14  1  1
 15 14  1  0
 16 15  1  0
 17 16  2  0
 18 28  1  0
 19 18  2  0
 20 16  1  0
 22 21  1  0
 23 22  2  0
 24 23  1  0
 25 24  2  0
 25 31  1  0
 26 25  1  0
 27 26  1  6
 28 27  1  0
 29 27  1  0
 30 29  2  0
 31 32  2  0
 32 22  1  0
 33 29  1  0
M  END
$$$$
