FEY.pdb
     RDKit          3D

 33 34  0  0  1  0  0  0  0  0999 V2000
   27.8071  -20.3641  -11.5389 N   0  0  0  0  0  0  0  0  0  0  0  0
   26.7381  -21.2776  -11.2795 C   0  0  1  0  0  0  0  0  0  0  0  0
   26.0429  -20.9681   -9.9515 C   0  0  0  0  0  0  0  0  0  0  0  0
   27.0823  -20.8853   -8.9141 C   0  0  0  0  0  0  0  0  0  0  0  0
   27.0053  -19.9095   -7.9479 C   0  0  0  0  0  0  0  0  0  0  0  0
   27.9685  -19.7957   -6.9457 C   0  0  0  0  0  0  0  0  0  0  0  0
   29.0262  -20.6887   -6.9269 C   0  0  0  0  0  0  0  0  0  0  0  0
   29.1001  -21.6599   -7.8912 C   0  0  0  0  0  0  0  0  0  0  0  0
   28.1391  -21.7664   -8.8834 C   0  0  0  0  0  0  0  0  0  0  0  0
   25.6963  -21.2432  -12.3280 C   0  0  0  0  0  0  0  0  0  0  0  0
   25.0983  -20.1571  -12.6074 O   0  0  0  0  0  0  0  0  0  0  0  0
   25.2917  -22.3769  -13.0822 N   0  0  0  0  0  0  0  0  0  0  0  0
   24.2304  -22.3231  -14.0859 C   0  0  1  0  0  0  0  0  0  0  0  0
   24.3244  -23.5990  -14.8768 C   0  0  0  0  0  0  0  0  0  0  0  0
   23.2270  -23.7848  -15.8879 C   0  0  0  0  0  0  0  0  0  0  0  0
   23.3861  -22.7957  -16.9801 C   0  0  0  0  0  0  0  0  0  0  0  0
   24.3265  -22.9118  -17.7843 O   0  0  0  0  0  0  0  0  0  0  0  0
   22.9026  -22.2557  -13.4284 C   0  0  0  0  0  0  0  0  0  0  0  0
   22.6896  -22.7176  -12.2798 O   0  0  0  0  0  0  0  0  0  0  0  0
   22.4989  -21.7530  -17.1057 O   0  0  0  0  0  0  0  0  0  0  0  0
   20.5100  -16.4494  -17.0855 O   0  0  0  0  0  0  0  0  0  0  0  0
   20.4388  -17.3803  -16.0515 C   0  0  0  0  0  0  0  0  0  0  0  0
   19.2786  -18.0947  -15.8393 C   0  0  0  0  0  0  0  0  0  0  0  0
   19.1855  -19.0215  -14.8216 C   0  0  0  0  0  0  0  0  0  0  0  0
   20.2295  -19.2926  -13.9599 C   0  0  0  0  0  0  0  0  0  0  0  0
   20.1520  -20.2714  -12.8554 C   0  0  0  0  0  0  0  0  0  0  0  0
   20.4690  -21.6336  -13.3587 C   0  0  2  0  0  0  0  0  0  0  0  0
   21.7664  -21.6634  -14.0455 N   0  0  0  0  0  0  0  0  0  0  0  0
   19.4536  -22.0730  -14.3289 C   0  0  0  0  0  0  0  0  0  0  0  0
   19.6673  -22.3013  -15.5506 O   0  0  0  0  0  0  0  0  0  0  0  0
   21.3972  -18.5545  -14.1958 C   0  0  0  0  0  0  0  0  0  0  0  0
   21.5010  -17.6274  -15.2085 C   0  0  0  0  0  0  0  0  0  0  0  0
   18.1374  -22.2566  -13.8697 O   0  0  0  0  0  0  0  0  0  0  0  0
  2  1  1  6
  2  3  1  0
  3  4  1  0
  4  5  2  0
  5  6  1  0
  7  6  2  0
  8  7  1  0
  9  4  1  0
  9  8  2  0
 10 11  2  0
 10  2  1  0
 12 10  1  0
 13 18  1  0
 13 12  1  0
 13 14  1  6
 15 14  1  0
 16 15  1  0
 17 16  2  0
 18 28  1  0
 19 18  2  0
 20 16  1  0
 22 21  1  0
 23 22  2  0
 24 23  1  0
 25 24  2  0
 25 31  1  0
 26 25  1  0
 27 26  1  6
 28 27  1  0
 29 27  1  0
 30 29  2  0
 31 32  2  0
 32 22  1  0
 33 29  1  0
M  END
$$$$
