FEY.pdb
     RDKit          3D

 33 34  0  0  1  0  0  0  0  0999 V2000
   28.9996  -26.1617  -16.8197 N   0  0  0  0  0  0  0  0  0  0  0  0
   27.6072  -26.0671  -17.1304 C   0  0  1  0  0  0  0  0  0  0  0  0
   26.8159  -27.2312  -16.5292 C   0  0  0  0  0  0  0  0  0  0  0  0
   27.0439  -28.4098  -17.3789 C   0  0  0  0  0  0  0  0  0  0  0  0
   27.9713  -29.3531  -17.0021 C   0  0  0  0  0  0  0  0  0  0  0  0
   28.2182  -30.4857  -17.7774 C   0  0  0  0  0  0  0  0  0  0  0  0
   27.5105  -30.6608  -18.9543 C   0  0  0  0  0  0  0  0  0  0  0  0
   26.5870  -29.7190  -19.3271 C   0  0  0  0  0  0  0  0  0  0  0  0
   26.3475  -28.5965  -18.5512 C   0  0  0  0  0  0  0  0  0  0  0  0
   26.9956  -24.8221  -16.6186 C   0  0  0  0  0  0  0  0  0  0  0  0
   27.5863  -24.1317  -15.7300 O   0  0  0  0  0  0  0  0  0  0  0  0
   25.7453  -24.3125  -17.0597 N   0  0  0  0  0  0  0  0  0  0  0  0
   25.1737  -23.0667  -16.5517 C   0  0  1  0  0  0  0  0  0  0  0  0
   24.7071  -22.2894  -17.7518 C   0  0  0  0  0  0  0  0  0  0  0  0
   25.1598  -22.8526  -19.0705 C   0  0  0  0  0  0  0  0  0  0  0  0
   24.7195  -21.9599  -20.1686 C   0  0  0  0  0  0  0  0  0  0  0  0
   25.1975  -20.8166  -20.2623 O   0  0  0  0  0  0  0  0  0  0  0  0
   24.0113  -23.3527  -15.6760 C   0  0  0  0  0  0  0  0  0  0  0  0
   23.6188  -24.5200  -15.4286 O   0  0  0  0  0  0  0  0  0  0  0  0
   23.7864  -22.3919  -21.0811 O   0  0  0  0  0  0  0  0  0  0  0  0
   25.8237  -20.4574   -7.9089 O   0  0  0  0  0  0  0  0  0  0  0  0
   25.5783  -20.6926   -9.2598 C   0  0  0  0  0  0  0  0  0  0  0  0
   26.4140  -21.5164   -9.9841 C   0  0  0  0  0  0  0  0  0  0  0  0
   26.1903  -21.7634  -11.3228 C   0  0  0  0  0  0  0  0  0  0  0  0
   25.1326  -21.2120  -12.0180 C   0  0  0  0  0  0  0  0  0  0  0  0
   24.8773  -21.4512  -13.4538 C   0  0  0  0  0  0  0  0  0  0  0  0
   23.4952  -21.9628  -13.6472 C   0  0  2  0  0  0  0  0  0  0  0  0
   23.2497  -22.3292  -15.0477 N   0  0  0  0  0  0  0  0  0  0  0  0
   22.5094  -20.9306  -13.2889 C   0  0  0  0  0  0  0  0  0  0  0  0
   21.9350  -20.8320  -12.1707 O   0  0  0  0  0  0  0  0  0  0  0  0
   24.2978  -20.3792  -11.2607 C   0  0  0  0  0  0  0  0  0  0  0  0
   24.5117  -20.1259   -9.9243 C   0  0  0  0  0  0  0  0  0  0  0  0
   22.1732  -19.9727  -14.2619 O   0  0  0  0  0  0  0  0  0  0  0  0
  2  1  1  1
  2  3  1  0
  3  4  1  0
  4  5  2  0
  5  6  1  0
  7  6  2  0
  8  7  1  0
  9  4  1  0
  9  8  2  0
 10 11  2  0
 10  2  1  0
 12 10  1  0
 13 18  1  0
 13 12  1  0
 13 14  1  6
 15 14  1  0
 16 15  1  0
 17 16  2  0
 18 28  1  0
 19 18  2  0
 20 16  1  0
 22 21  1  0
 23 22  2  0
 24 23  1  0
 25 24  2  0
 25 31  1  0
 26 25  1  0
 27 26  1  6
 28 27  1  0
 29 27  1  0
 30 29  2  0
 31 32  2  0
 32 22  1  0
 33 29  1  0
M  END
$$$$
