FEY.pdb
     RDKit          3D

 33 34  0  0  1  0  0  0  0  0999 V2000
   19.7922   -3.6628  -21.6854 N   0  0  0  0  0  0  0  0  0  0  0  0
   19.1257   -3.3277  -20.4656 C   0  0  1  0  0  0  0  0  0  0  0  0
   17.6054   -3.4347  -20.6071 C   0  0  0  0  0  0  0  0  0  0  0  0
   17.1575   -2.3168  -21.4514 C   0  0  0  0  0  0  0  0  0  0  0  0
   16.7608   -2.5565  -22.7464 C   0  0  0  0  0  0  0  0  0  0  0  0
   16.3283   -1.5262  -23.5808 C   0  0  0  0  0  0  0  0  0  0  0  0
   16.2992   -0.2321  -23.0897 C   0  0  0  0  0  0  0  0  0  0  0  0
   16.6951    0.0034  -21.7988 C   0  0  0  0  0  0  0  0  0  0  0  0
   17.1235   -1.0256  -20.9762 C   0  0  0  0  0  0  0  0  0  0  0  0
   19.5162   -4.2101  -19.3455 C   0  0  0  0  0  0  0  0  0  0  0  0
   19.7757   -5.4370  -19.5516 O   0  0  0  0  0  0  0  0  0  0  0  0
   19.6299   -3.7779  -17.9972 N   0  0  0  0  0  0  0  0  0  0  0  0
   19.8896   -4.6964  -16.8900 C   0  0  1  0  0  0  0  0  0  0  0  0
   20.9663   -4.0631  -16.0523 C   0  0  0  0  0  0  0  0  0  0  0  0
   21.4823   -4.9356  -14.9416 C   0  0  0  0  0  0  0  0  0  0  0  0
   22.5217   -4.2045  -14.1787 C   0  0  0  0  0  0  0  0  0  0  0  0
   23.4468   -3.6380  -14.7850 O   0  0  0  0  0  0  0  0  0  0  0  0
   18.6689   -4.8664  -16.0648 C   0  0  0  0  0  0  0  0  0  0  0  0
   18.2032   -3.9488  -15.3443 O   0  0  0  0  0  0  0  0  0  0  0  0
   22.4653   -4.1517  -12.8061 O   0  0  0  0  0  0  0  0  0  0  0  0
   22.0577  -11.5042  -15.6235 O   0  0  0  0  0  0  0  0  0  0  0  0
   21.3247  -10.3808  -15.2476 C   0  0  0  0  0  0  0  0  0  0  0  0
   21.8802   -9.4385  -14.4081 C   0  0  0  0  0  0  0  0  0  0  0  0
   21.1729   -8.3184  -14.0227 C   0  0  0  0  0  0  0  0  0  0  0  0
   19.8820   -8.0683  -14.4435 C   0  0  0  0  0  0  0  0  0  0  0  0
   19.0988   -6.8829  -14.0366 C   0  0  0  0  0  0  0  0  0  0  0  0
   17.8101   -6.8455  -14.7763 C   0  0  2  0  0  0  0  0  0  0  0  0
   17.9295   -6.0806  -16.0239 N   0  0  0  0  0  0  0  0  0  0  0  0
   16.7697   -6.1936  -13.9650 C   0  0  0  0  0  0  0  0  0  0  0  0
   16.0319   -6.7771  -13.1252 O   0  0  0  0  0  0  0  0  0  0  0  0
   19.3397   -9.0396  -15.2957 C   0  0  0  0  0  0  0  0  0  0  0  0
   20.0367  -10.1609  -15.6867 C   0  0  0  0  0  0  0  0  0  0  0  0
   16.5734   -4.8111  -14.1300 O   0  0  0  0  0  0  0  0  0  0  0  0
  2  1  1  6
  2  3  1  0
  3  4  1  0
  4  5  2  0
  5  6  1  0
  7  6  2  0
  8  7  1  0
  9  4  1  0
  9  8  2  0
 10 11  2  0
 10  2  1  0
 12 10  1  0
 13 18  1  0
 13 12  1  0
 13 14  1  1
 15 14  1  0
 16 15  1  0
 17 16  2  0
 18 28  1  0
 19 18  2  0
 20 16  1  0
 22 21  1  0
 23 22  2  0
 24 23  1  0
 25 24  2  0
 25 31  1  0
 26 25  1  0
 27 26  1  1
 28 27  1  0
 29 27  1  0
 30 29  2  0
 31 32  2  0
 32 22  1  0
 33 29  1  0
M  END
$$$$
