FEY.pdb
     RDKit          3D

 33 34  0  0  1  0  0  0  0  0999 V2000
   16.8041  -13.5279  -15.5322 N   0  0  0  0  0  0  0  0  0  0  0  0
   15.8039  -12.5342  -15.2943 C   0  0  1  0  0  0  0  0  0  0  0  0
   14.6454  -12.6525  -16.2876 C   0  0  0  0  0  0  0  0  0  0  0  0
   15.1328  -12.1912  -17.5964 C   0  0  0  0  0  0  0  0  0  0  0  0
   15.3843  -13.1065  -18.5918 C   0  0  0  0  0  0  0  0  0  0  0  0
   15.8464  -12.7125  -19.8472 C   0  0  0  0  0  0  0  0  0  0  0  0
   16.0557  -11.3662  -20.0933 C   0  0  0  0  0  0  0  0  0  0  0  0
   15.8041  -10.4566  -19.0992 C   0  0  0  0  0  0  0  0  0  0  0  0
   15.3452  -10.8562  -17.8547 C   0  0  0  0  0  0  0  0  0  0  0  0
   15.2199  -12.6309  -13.9395 C   0  0  0  0  0  0  0  0  0  0  0  0
   15.2822  -13.7195  -13.2868 O   0  0  0  0  0  0  0  0  0  0  0  0
   14.5655  -11.5570  -13.2790 N   0  0  0  0  0  0  0  0  0  0  0  0
   14.1162  -11.6371  -11.8902 C   0  0  1  0  0  0  0  0  0  0  0  0
   14.5373  -10.3532  -11.2296 C   0  0  0  0  0  0  0  0  0  0  0  0
   15.9737  -10.3258  -10.7852 C   0  0  0  0  0  0  0  0  0  0  0  0
   16.2547   -9.0453  -10.0939 C   0  0  0  0  0  0  0  0  0  0  0  0
   15.3885   -8.1545  -10.0709 O   0  0  0  0  0  0  0  0  0  0  0  0
   12.6385  -11.7511  -11.8328 C   0  0  0  0  0  0  0  0  0  0  0  0
   11.8792  -11.1409  -12.6259 O   0  0  0  0  0  0  0  0  0  0  0  0
   17.4676   -8.8409   -9.4798 O   0  0  0  0  0  0  0  0  0  0  0  0
    8.3323   -8.5891  -15.2816 O   0  0  0  0  0  0  0  0  0  0  0  0
    8.7403   -9.6918  -14.5344 C   0  0  0  0  0  0  0  0  0  0  0  0
    8.0546  -10.0488  -13.3925 C   0  0  0  0  0  0  0  0  0  0  0  0
    8.4408  -11.1367  -12.6372 C   0  0  0  0  0  0  0  0  0  0  0  0
    9.5222  -11.9293  -12.9665 C   0  0  0  0  0  0  0  0  0  0  0  0
    9.9634  -13.0925  -12.1688 C   0  0  0  0  0  0  0  0  0  0  0  0
   10.4987  -12.6382  -10.8587 C   0  0  2  0  0  0  0  0  0  0  0  0
   11.9648  -12.5596  -10.8762 N   0  0  0  0  0  0  0  0  0  0  0  0
   10.1270  -13.5843   -9.7947 C   0  0  0  0  0  0  0  0  0  0  0  0
   10.9395  -14.1804   -9.0366 O   0  0  0  0  0  0  0  0  0  0  0  0
   10.2023  -11.5467  -14.1305 C   0  0  0  0  0  0  0  0  0  0  0  0
    9.8255  -10.4630  -14.8918 C   0  0  0  0  0  0  0  0  0  0  0  0
    8.7610  -13.8532   -9.5979 O   0  0  0  0  0  0  0  0  0  0  0  0
  2  1  1  6
  2  3  1  0
  3  4  1  0
  4  5  2  0
  5  6  1  0
  7  6  2  0
  8  7  1  0
  9  4  1  0
  9  8  2  0
 10 11  2  0
 10  2  1  0
 12 10  1  0
 13 18  1  0
 13 12  1  0
 13 14  1  1
 15 14  1  0
 16 15  1  0
 17 16  2  0
 18 28  1  0
 19 18  2  0
 20 16  1  0
 22 21  1  0
 23 22  2  0
 24 23  1  0
 25 24  2  0
 25 31  1  0
 26 25  1  0
 27 26  1  6
 28 27  1  0
 29 27  1  0
 30 29  2  0
 31 32  2  0
 32 22  1  0
 33 29  1  0
M  END
$$$$
