FEY.pdb
     RDKit          3D

 33 34  0  0  1  0  0  0  0  0999 V2000
   27.8052   -9.5239  -17.1337 N   0  0  0  0  0  0  0  0  0  0  0  0
   26.4078   -9.7834  -16.9775 C   0  0  1  0  0  0  0  0  0  0  0  0
   26.1115  -10.4936  -15.6544 C   0  0  0  0  0  0  0  0  0  0  0  0
   26.7152  -11.8329  -15.7236 C   0  0  0  0  0  0  0  0  0  0  0  0
   26.2506  -12.7437  -16.6436 C   0  0  0  0  0  0  0  0  0  0  0  0
   26.7947  -14.0239  -16.7438 C   0  0  0  0  0  0  0  0  0  0  0  0
   27.8275  -14.3825  -15.8945 C   0  0  0  0  0  0  0  0  0  0  0  0
   28.2883  -13.4726  -14.9788 C   0  0  0  0  0  0  0  0  0  0  0  0
   27.7424  -12.2028  -14.8856 C   0  0  0  0  0  0  0  0  0  0  0  0
   25.5967   -8.5473  -16.9928 C   0  0  0  0  0  0  0  0  0  0  0  0
   25.9416   -7.5413  -16.2972 O   0  0  0  0  0  0  0  0  0  0  0  0
   24.4099   -8.3864  -17.7566 N   0  0  0  0  0  0  0  0  0  0  0  0
   23.6344   -7.1472  -17.7639 C   0  0  1  0  0  0  0  0  0  0  0  0
   22.9176   -7.0989  -19.0853 C   0  0  0  0  0  0  0  0  0  0  0  0
   21.8677   -8.1610  -19.2610 C   0  0  0  0  0  0  0  0  0  0  0  0
   21.2742   -8.0526  -20.6148 C   0  0  0  0  0  0  0  0  0  0  0  0
   20.4461   -8.8981  -20.9940 O   0  0  0  0  0  0  0  0  0  0  0  0
   22.6343   -7.1590  -16.6687 C   0  0  0  0  0  0  0  0  0  0  0  0
   22.1478   -8.2203  -16.2051 O   0  0  0  0  0  0  0  0  0  0  0  0
   21.6362   -7.0221  -21.4497 O   0  0  0  0  0  0  0  0  0  0  0  0
   18.1542   -5.9352   -9.3323 O   0  0  0  0  0  0  0  0  0  0  0  0
   19.0662   -5.9650  -10.3850 C   0  0  0  0  0  0  0  0  0  0  0  0
   19.6639   -7.1522  -10.7523 C   0  0  0  0  0  0  0  0  0  0  0  0
   20.5698   -7.2052  -11.7914 C   0  0  0  0  0  0  0  0  0  0  0  0
   20.9345   -6.0923  -12.5225 C   0  0  0  0  0  0  0  0  0  0  0  0
   21.9104   -6.1199  -13.6319 C   0  0  0  0  0  0  0  0  0  0  0  0
   21.2017   -6.0368  -14.9359 C   0  0  2  0  0  0  0  0  0  0  0  0
   22.1473   -5.9710  -16.0572 N   0  0  0  0  0  0  0  0  0  0  0  0
   20.3727   -4.8225  -14.9948 C   0  0  0  0  0  0  0  0  0  0  0  0
   19.1671   -4.7479  -14.6326 O   0  0  0  0  0  0  0  0  0  0  0  0
   20.3138   -4.8985  -12.1307 C   0  0  0  0  0  0  0  0  0  0  0  0
   19.4083   -4.8343  -11.0953 C   0  0  0  0  0  0  0  0  0  0  0  0
   20.9599   -3.6457  -15.4922 O   0  0  0  0  0  0  0  0  0  0  0  0
  2  1  1  1
  2  3  1  0
  3  4  1  0
  4  5  2  0
  5  6  1  0
  7  6  2  0
  8  7  1  0
  9  4  1  0
  9  8  2  0
 10 11  2  0
 10  2  1  0
 12 10  1  0
 13 18  1  0
 13 12  1  0
 13 14  1  6
 15 14  1  0
 16 15  1  0
 17 16  2  0
 18 28  1  0
 19 18  2  0
 20 16  1  0
 22 21  1  0
 23 22  2  0
 24 23  1  0
 25 24  2  0
 25 31  1  0
 26 25  1  0
 27 26  1  1
 28 27  1  0
 29 27  1  0
 30 29  2  0
 31 32  2  0
 32 22  1  0
 33 29  1  0
M  END
$$$$
