FEY.pdb
     RDKit          3D

 33 34  0  0  1  0  0  0  0  0999 V2000
   33.4120  -37.9351  -10.7464 N   0  0  0  0  0  0  0  0  0  0  0  0
   33.5974  -37.0014   -9.6795 C   0  0  1  0  0  0  0  0  0  0  0  0
   33.6419  -35.5605  -10.1938 C   0  0  0  0  0  0  0  0  0  0  0  0
   34.8607  -35.4150  -11.0041 C   0  0  0  0  0  0  0  0  0  0  0  0
   36.0900  -35.6565  -10.4363 C   0  0  0  0  0  0  0  0  0  0  0  0
   37.2704  -35.5312  -11.1683 C   0  0  0  0  0  0  0  0  0  0  0  0
   37.1986  -35.1543  -12.4985 C   0  0  0  0  0  0  0  0  0  0  0  0
   35.9721  -34.9144  -13.0614 C   0  0  0  0  0  0  0  0  0  0  0  0
   34.8040  -35.0411  -12.3274 C   0  0  0  0  0  0  0  0  0  0  0  0
   32.5141  -37.0659   -8.6753 C   0  0  0  0  0  0  0  0  0  0  0  0
   31.3095  -37.2477   -9.0372 O   0  0  0  0  0  0  0  0  0  0  0  0
   32.7205  -36.9352   -7.2760 N   0  0  0  0  0  0  0  0  0  0  0  0
   31.6357  -37.0421   -6.3019 C   0  0  1  0  0  0  0  0  0  0  0  0
   32.1742  -37.8429   -5.1482 C   0  0  0  0  0  0  0  0  0  0  0  0
   31.2008  -38.0355   -4.0183 C   0  0  0  0  0  0  0  0  0  0  0  0
   31.8600  -38.7758   -2.9164 C   0  0  0  0  0  0  0  0  0  0  0  0
   33.0588  -39.0881   -3.0147 O   0  0  0  0  0  0  0  0  0  0  0  0
   31.2436  -35.6961   -5.8179 C   0  0  0  0  0  0  0  0  0  0  0  0
   32.0810  -34.7930   -5.5706 O   0  0  0  0  0  0  0  0  0  0  0  0
   31.1508  -39.1169   -1.7891 O   0  0  0  0  0  0  0  0  0  0  0  0
   25.0703  -32.9235   -9.5074 O   0  0  0  0  0  0  0  0  0  0  0  0
   26.2019  -32.9461   -8.6952 C   0  0  0  0  0  0  0  0  0  0  0  0
   26.4233  -31.9342   -7.7849 C   0  0  0  0  0  0  0  0  0  0  0  0
   27.5369  -31.9361   -6.9706 C   0  0  0  0  0  0  0  0  0  0  0  0
   28.4904  -32.9337   -7.0105 C   0  0  0  0  0  0  0  0  0  0  0  0
   29.6973  -32.9534   -6.1578 C   0  0  0  0  0  0  0  0  0  0  0  0
   29.5535  -33.9827   -5.0952 C   0  0  2  0  0  0  0  0  0  0  0  0
   29.8897  -35.3214   -5.5958 N   0  0  0  0  0  0  0  0  0  0  0  0
   28.1638  -34.0352   -4.6140 C   0  0  0  0  0  0  0  0  0  0  0  0
   27.5260  -33.0616   -4.1287 O   0  0  0  0  0  0  0  0  0  0  0  0
   28.2432  -33.9503   -7.9429 C   0  0  0  0  0  0  0  0  0  0  0  0
   27.1351  -33.9585   -8.7603 C   0  0  0  0  0  0  0  0  0  0  0  0
   27.4824  -35.2624   -4.6968 O   0  0  0  0  0  0  0  0  0  0  0  0
  2  1  1  6
  2  3  1  0
  3  4  1  0
  4  5  2  0
  5  6  1  0
  7  6  2  0
  8  7  1  0
  9  4  1  0
  9  8  2  0
 10 11  2  0
 10  2  1  0
 12 10  1  0
 13 18  1  0
 13 12  1  0
 13 14  1  1
 15 14  1  0
 16 15  1  0
 17 16  2  0
 18 28  1  0
 19 18  2  0
 20 16  1  0
 22 21  1  0
 23 22  2  0
 24 23  1  0
 25 24  2  0
 25 31  1  0
 26 25  1  0
 27 26  1  6
 28 27  1  0
 29 27  1  0
 30 29  2  0
 31 32  2  0
 32 22  1  0
 33 29  1  0
M  END
$$$$
