FEY.pdb
     RDKit          3D

 33 34  0  0  1  0  0  0  0  0999 V2000
   36.5460  -31.1609  -17.3897 N   0  0  0  0  0  0  0  0  0  0  0  0
   35.5664  -31.5396  -16.4193 C   0  0  1  0  0  0  0  0  0  0  0  0
   34.2989  -32.0845  -17.0820 C   0  0  0  0  0  0  0  0  0  0  0  0
   33.6734  -30.9783  -17.8225 C   0  0  0  0  0  0  0  0  0  0  0  0
   33.7876  -30.9239  -19.1921 C   0  0  0  0  0  0  0  0  0  0  0  0
   33.2096  -29.8935  -19.9332 C   0  0  0  0  0  0  0  0  0  0  0  0
   32.5047  -28.9035  -19.2703 C   0  0  0  0  0  0  0  0  0  0  0  0
   32.3928  -28.9606  -17.9053 C   0  0  0  0  0  0  0  0  0  0  0  0
   32.9699  -29.9876  -17.1763 C   0  0  0  0  0  0  0  0  0  0  0  0
   36.0557  -32.5889  -15.4998 C   0  0  0  0  0  0  0  0  0  0  0  0
   37.0316  -33.3325  -15.8311 O   0  0  0  0  0  0  0  0  0  0  0  0
   35.4980  -32.8442  -14.2186 N   0  0  0  0  0  0  0  0  0  0  0  0
   36.0069  -33.8841  -13.3260 C   0  0  1  0  0  0  0  0  0  0  0  0
   35.4725  -33.5707  -11.9555 C   0  0  0  0  0  0  0  0  0  0  0  0
   35.8938  -34.5422  -10.8879 C   0  0  0  0  0  0  0  0  0  0  0  0
   35.2678  -34.1646   -9.5986 C   0  0  0  0  0  0  0  0  0  0  0  0
   35.5631  -34.7875   -8.5645 O   0  0  0  0  0  0  0  0  0  0  0  0
   35.5083  -35.2154  -13.7492 C   0  0  0  0  0  0  0  0  0  0  0  0
   34.3326  -35.4042  -14.1492 O   0  0  0  0  0  0  0  0  0  0  0  0
   34.3638  -33.1303   -9.5437 O   0  0  0  0  0  0  0  0  0  0  0  0
   34.9051  -35.6363  -20.1392 O   0  0  0  0  0  0  0  0  0  0  0  0
   35.3191  -36.2608  -18.9647 C   0  0  0  0  0  0  0  0  0  0  0  0
   34.5654  -37.2767  -18.4158 C   0  0  0  0  0  0  0  0  0  0  0  0
   34.9559  -37.9091  -17.2536 C   0  0  0  0  0  0  0  0  0  0  0  0
   36.1084  -37.5739  -16.5713 C   0  0  0  0  0  0  0  0  0  0  0  0
   36.5431  -38.2274  -15.3191 C   0  0  0  0  0  0  0  0  0  0  0  0
   35.7815  -37.6782  -14.1669 C   0  0  2  0  0  0  0  0  0  0  0  0
   36.3210  -36.3824  -13.7358 N   0  0  0  0  0  0  0  0  0  0  0  0
   35.8647  -38.5887  -13.0139 C   0  0  0  0  0  0  0  0  0  0  0  0
   36.2646  -38.2672  -11.8620 O   0  0  0  0  0  0  0  0  0  0  0  0
   36.8571  -36.5395  -17.1486 C   0  0  0  0  0  0  0  0  0  0  0  0
   36.4767  -35.9016  -18.3081 C   0  0  0  0  0  0  0  0  0  0  0  0
   35.4696  -39.9254  -13.1984 O   0  0  0  0  0  0  0  0  0  0  0  0
  2  1  1  6
  2  3  1  0
  3  4  1  0
  4  5  2  0
  5  6  1  0
  7  6  2  0
  8  7  1  0
  9  4  1  0
  9  8  2  0
 10 11  2  0
 10  2  1  0
 12 10  1  0
 13 18  1  0
 13 12  1  0
 13 14  1  1
 15 14  1  0
 16 15  1  0
 17 16  2  0
 18 28  1  0
 19 18  2  0
 20 16  1  0
 22 21  1  0
 23 22  2  0
 24 23  1  0
 25 24  2  0
 25 31  1  0
 26 25  1  0
 27 26  1  6
 28 27  1  0
 29 27  1  0
 30 29  2  0
 31 32  2  0
 32 22  1  0
 33 29  1  0
M  END
$$$$
