FEY.pdb
     RDKit          3D

 33 34  0  0  1  0  0  0  0  0999 V2000
   28.5020  -20.7735  -15.0607 N   0  0  0  0  0  0  0  0  0  0  0  0
   27.6154  -20.9345  -13.9505 C   0  0  1  0  0  0  0  0  0  0  0  0
   27.5826  -19.6827  -13.0702 C   0  0  0  0  0  0  0  0  0  0  0  0
   27.2872  -20.1136  -11.6953 C   0  0  0  0  0  0  0  0  0  0  0  0
   28.2965  -20.6130  -10.9054 C   0  0  0  0  0  0  0  0  0  0  0  0
   28.0606  -21.0320   -9.5963 C   0  0  0  0  0  0  0  0  0  0  0  0
   26.7780  -20.9414   -9.0833 C   0  0  0  0  0  0  0  0  0  0  0  0
   25.7744  -20.4433   -9.8730 C   0  0  0  0  0  0  0  0  0  0  0  0
   26.0169  -20.0291  -11.1726 C   0  0  0  0  0  0  0  0  0  0  0  0
   26.2232  -21.2006  -14.3710 C   0  0  0  0  0  0  0  0  0  0  0  0
   25.7128  -20.5683  -15.3481 O   0  0  0  0  0  0  0  0  0  0  0  0
   25.3720  -22.1486  -13.7429 N   0  0  0  0  0  0  0  0  0  0  0  0
   24.0676  -22.5241  -14.2857 C   0  0  1  0  0  0  0  0  0  0  0  0
   24.0045  -24.0263  -14.2468 C   0  0  0  0  0  0  0  0  0  0  0  0
   22.6830  -24.6033  -14.6736 C   0  0  0  0  0  0  0  0  0  0  0  0
   22.6276  -24.6751  -16.1529 C   0  0  0  0  0  0  0  0  0  0  0  0
   21.6448  -24.2115  -16.7559 O   0  0  0  0  0  0  0  0  0  0  0  0
   22.9802  -21.9701  -13.4428 C   0  0  0  0  0  0  0  0  0  0  0  0
   23.0710  -21.8749  -12.1936 O   0  0  0  0  0  0  0  0  0  0  0  0
   23.6576  -25.2515  -16.8578 O   0  0  0  0  0  0  0  0  0  0  0  0
   20.3290  -17.5409  -18.4942 O   0  0  0  0  0  0  0  0  0  0  0  0
   20.4417  -18.0115  -17.1879 C   0  0  0  0  0  0  0  0  0  0  0  0
   19.3116  -18.2244  -16.4269 C   0  0  0  0  0  0  0  0  0  0  0  0
   19.3993  -18.6899  -15.1312 C   0  0  0  0  0  0  0  0  0  0  0  0
   20.6040  -18.9695  -14.5174 C   0  0  0  0  0  0  0  0  0  0  0  0
   20.7260  -19.4578  -13.1279 C   0  0  0  0  0  0  0  0  0  0  0  0
   20.7111  -20.9439  -13.1071 C   0  0  2  0  0  0  0  0  0  0  0  0
   21.7496  -21.5032  -13.9815 N   0  0  0  0  0  0  0  0  0  0  0  0
   19.4171  -21.4526  -13.5890 C   0  0  0  0  0  0  0  0  0  0  0  0
   19.2434  -22.0991  -14.6577 O   0  0  0  0  0  0  0  0  0  0  0  0
   21.7373  -18.7454  -15.3107 C   0  0  0  0  0  0  0  0  0  0  0  0
   21.6612  -18.2813  -16.6048 C   0  0  0  0  0  0  0  0  0  0  0  0
   18.2767  -21.2047  -12.8047 O   0  0  0  0  0  0  0  0  0  0  0  0
  2  1  1  6
  2  3  1  0
  3  4  1  0
  4  5  2  0
  5  6  1  0
  7  6  2  0
  8  7  1  0
  9  4  1  0
  9  8  2  0
 10 11  2  0
 10  2  1  0
 12 10  1  0
 13 18  1  0
 13 12  1  0
 13 14  1  1
 15 14  1  0
 16 15  1  0
 17 16  2  0
 18 28  1  0
 19 18  2  0
 20 16  1  0
 22 21  1  0
 23 22  2  0
 24 23  1  0
 25 24  2  0
 25 31  1  0
 26 25  1  0
 27 26  1  6
 28 27  1  0
 29 27  1  0
 30 29  2  0
 31 32  2  0
 32 22  1  0
 33 29  1  0
M  END
$$$$
