FEY.pdb
     RDKit          3D

 33 34  0  0  1  0  0  0  0  0999 V2000
   28.5695  -20.3616  -14.3884 N   0  0  0  0  0  0  0  0  0  0  0  0
   27.6375  -21.1302  -13.6234 C   0  0  1  0  0  0  0  0  0  0  0  0
   27.2203  -20.3992  -12.3450 C   0  0  0  0  0  0  0  0  0  0  0  0
   28.4005  -20.3238  -11.4706 C   0  0  0  0  0  0  0  0  0  0  0  0
   28.7275  -21.3951  -10.6724 C   0  0  0  0  0  0  0  0  0  0  0  0
   29.8381  -21.3663   -9.8293 C   0  0  0  0  0  0  0  0  0  0  0  0
   30.6278  -20.2296   -9.7981 C   0  0  0  0  0  0  0  0  0  0  0  0
   30.2993  -19.1637  -10.5947 C   0  0  0  0  0  0  0  0  0  0  0  0
   29.1943  -19.2002  -11.4296 C   0  0  0  0  0  0  0  0  0  0  0  0
   26.3979  -21.4270  -14.3726 C   0  0  0  0  0  0  0  0  0  0  0  0
   25.7491  -20.4938  -14.9412 O   0  0  0  0  0  0  0  0  0  0  0  0
   25.8492  -22.7295  -14.5146 N   0  0  0  0  0  0  0  0  0  0  0  0
   24.6433  -23.0004  -15.2953 C   0  0  1  0  0  0  0  0  0  0  0  0
   24.6098  -24.4857  -15.5292 C   0  0  0  0  0  0  0  0  0  0  0  0
   23.3985  -24.9690  -16.2780 C   0  0  0  0  0  0  0  0  0  0  0  0
   23.4994  -26.4319  -16.4931 C   0  0  0  0  0  0  0  0  0  0  0  0
   24.4428  -26.8934  -17.1576 O   0  0  0  0  0  0  0  0  0  0  0  0
   23.4355  -22.6012  -14.5327 C   0  0  0  0  0  0  0  0  0  0  0  0
   23.3909  -22.6120  -13.2774 O   0  0  0  0  0  0  0  0  0  0  0  0
   22.5548  -27.2774  -15.9611 O   0  0  0  0  0  0  0  0  0  0  0  0
   17.9590  -16.1900  -12.5145 O   0  0  0  0  0  0  0  0  0  0  0  0
   18.9312  -17.0956  -12.9331 C   0  0  0  0  0  0  0  0  0  0  0  0
   18.7107  -18.4522  -12.8205 C   0  0  0  0  0  0  0  0  0  0  0  0
   19.6592  -19.3671  -13.2285 C   0  0  0  0  0  0  0  0  0  0  0  0
   20.8740  -18.9941  -13.7682 C   0  0  0  0  0  0  0  0  0  0  0  0
   21.9111  -19.9532  -14.2022 C   0  0  0  0  0  0  0  0  0  0  0  0
   21.2982  -21.2813  -14.4665 C   0  0  2  0  0  0  0  0  0  0  0  0
   22.2332  -22.1750  -15.1615 N   0  0  0  0  0  0  0  0  0  0  0  0
   20.1126  -21.1391  -15.3265 C   0  0  0  0  0  0  0  0  0  0  0  0
   20.1376  -20.9773  -16.5769 O   0  0  0  0  0  0  0  0  0  0  0  0
   21.0744  -17.6110  -13.8725 C   0  0  0  0  0  0  0  0  0  0  0  0
   20.1346  -16.6892  -13.4686 C   0  0  0  0  0  0  0  0  0  0  0  0
   18.8460  -21.1858  -14.7178 O   0  0  0  0  0  0  0  0  0  0  0  0
  2  1  1  6
  2  3  1  0
  3  4  1  0
  4  5  2  0
  5  6  1  0
  7  6  2  0
  8  7  1  0
  9  4  1  0
  9  8  2  0
 10 11  2  0
 10  2  1  0
 12 10  1  0
 13 18  1  0
 13 12  1  0
 13 14  1  1
 15 14  1  0
 16 15  1  0
 17 16  2  0
 18 28  1  0
 19 18  2  0
 20 16  1  0
 22 21  1  0
 23 22  2  0
 24 23  1  0
 25 24  2  0
 25 31  1  0
 26 25  1  0
 27 26  1  6
 28 27  1  0
 29 27  1  0
 30 29  2  0
 31 32  2  0
 32 22  1  0
 33 29  1  0
M  END
$$$$
