FEY.pdb
     RDKit          3D

 33 34  0  0  1  0  0  0  0  0999 V2000
   26.0624  -13.2906  -20.6720 N   0  0  0  0  0  0  0  0  0  0  0  0
   25.5200  -14.6074  -20.8004 C   0  0  1  0  0  0  0  0  0  0  0  0
   26.6214  -15.6700  -20.8241 C   0  0  0  0  0  0  0  0  0  0  0  0
   27.3308  -15.5469  -22.1065 C   0  0  0  0  0  0  0  0  0  0  0  0
   28.6227  -15.0754  -22.1287 C   0  0  0  0  0  0  0  0  0  0  0  0
   29.3322  -14.9435  -23.3221 C   0  0  0  0  0  0  0  0  0  0  0  0
   28.7173  -15.2970  -24.5111 C   0  0  0  0  0  0  0  0  0  0  0  0
   27.4298  -15.7665  -24.4856 C   0  0  0  0  0  0  0  0  0  0  0  0
   26.7318  -15.8946  -23.2958 C   0  0  0  0  0  0  0  0  0  0  0  0
   24.6100  -14.9563  -19.6887 C   0  0  0  0  0  0  0  0  0  0  0  0
   24.9026  -14.6410  -18.4929 O   0  0  0  0  0  0  0  0  0  0  0  0
   23.3799  -15.6465  -19.8569 N   0  0  0  0  0  0  0  0  0  0  0  0
   22.4450  -15.8787  -18.7574 C   0  0  1  0  0  0  0  0  0  0  0  0
   21.0805  -15.5087  -19.2708 C   0  0  0  0  0  0  0  0  0  0  0  0
   20.7257  -14.0574  -19.1005 C   0  0  0  0  0  0  0  0  0  0  0  0
   19.3792  -13.8062  -19.6666 C   0  0  0  0  0  0  0  0  0  0  0  0
   19.2392  -12.9707  -20.5759 O   0  0  0  0  0  0  0  0  0  0  0  0
   22.4475  -17.3112  -18.3730 C   0  0  0  0  0  0  0  0  0  0  0  0
   22.6478  -18.2355  -19.1996 O   0  0  0  0  0  0  0  0  0  0  0  0
   18.2878  -14.4929  -19.1899 O   0  0  0  0  0  0  0  0  0  0  0  0
   18.0304  -17.0996  -12.4341 O   0  0  0  0  0  0  0  0  0  0  0  0
   19.1172  -17.6393  -13.1183 C   0  0  0  0  0  0  0  0  0  0  0  0
   19.1158  -18.9684  -13.4855 C   0  0  0  0  0  0  0  0  0  0  0  0
   20.1810  -19.5241  -14.1636 C   0  0  0  0  0  0  0  0  0  0  0  0
   21.3029  -18.8003  -14.5149 C   0  0  0  0  0  0  0  0  0  0  0  0
   22.4617  -19.3738  -15.2306 C   0  0  0  0  0  0  0  0  0  0  0  0
   22.3043  -19.1765  -16.6954 C   0  0  2  0  0  0  0  0  0  0  0  0
   22.2238  -17.7513  -17.0393 N   0  0  0  0  0  0  0  0  0  0  0  0
   21.0628  -19.8086  -17.1695 C   0  0  0  0  0  0  0  0  0  0  0  0
   20.0376  -19.1896  -17.5643 O   0  0  0  0  0  0  0  0  0  0  0  0
   21.2807  -17.4526  -14.1312 C   0  0  0  0  0  0  0  0  0  0  0  0
   20.2228  -16.8878  -13.4545 C   0  0  0  0  0  0  0  0  0  0  0  0
   21.0027  -21.2133  -17.1885 O   0  0  0  0  0  0  0  0  0  0  0  0
  2  1  1  1
  2  3  1  0
  3  4  1  0
  4  5  2  0
  5  6  1  0
  7  6  2  0
  8  7  1  0
  9  4  1  0
  9  8  2  0
 10 11  2  0
 10  2  1  0
 12 10  1  0
 13 18  1  0
 13 12  1  0
 13 14  1  6
 15 14  1  0
 16 15  1  0
 17 16  2  0
 18 28  1  0
 19 18  2  0
 20 16  1  0
 22 21  1  0
 23 22  2  0
 24 23  1  0
 25 24  2  0
 25 31  1  0
 26 25  1  0
 27 26  1  1
 28 27  1  0
 29 27  1  0
 30 29  2  0
 31 32  2  0
 32 22  1  0
 33 29  1  0
M  END
$$$$
