FEY.pdb
     RDKit          3D

 33 34  0  0  1  0  0  0  0  0999 V2000
   29.3764  -19.2524  -13.2321 N   0  0  0  0  0  0  0  0  0  0  0  0
   28.4728  -20.3522  -13.0962 C   0  0  1  0  0  0  0  0  0  0  0  0
   28.4771  -20.9116  -11.6715 C   0  0  0  0  0  0  0  0  0  0  0  0
   29.8327  -21.4100  -11.3935 C   0  0  0  0  0  0  0  0  0  0  0  0
   30.3201  -22.4881  -12.0948 C   0  0  0  0  0  0  0  0  0  0  0  0
   31.5996  -22.9923  -11.8637 C   0  0  0  0  0  0  0  0  0  0  0  0
   32.3953  -22.3900  -10.9041 C   0  0  0  0  0  0  0  0  0  0  0  0
   31.9067  -21.3158  -10.2069 C   0  0  0  0  0  0  0  0  0  0  0  0
   30.6343  -20.8209  -10.4425 C   0  0  0  0  0  0  0  0  0  0  0  0
   27.0762  -19.9799  -13.4074 C   0  0  0  0  0  0  0  0  0  0  0  0
   26.5746  -18.9101  -12.9396 O   0  0  0  0  0  0  0  0  0  0  0  0
   26.2111  -20.7565  -14.2237 N   0  0  0  0  0  0  0  0  0  0  0  0
   24.8305  -20.3689  -14.5079 C   0  0  1  0  0  0  0  0  0  0  0  0
   24.5115  -20.8971  -15.8795 C   0  0  0  0  0  0  0  0  0  0  0  0
   23.0927  -20.6640  -16.3199 C   0  0  0  0  0  0  0  0  0  0  0  0
   22.9031  -21.2025  -17.6877 C   0  0  0  0  0  0  0  0  0  0  0  0
   23.1377  -20.4810  -18.6719 O   0  0  0  0  0  0  0  0  0  0  0  0
   23.9092  -20.9863  -13.5231 C   0  0  0  0  0  0  0  0  0  0  0  0
   24.0389  -22.1692  -13.1209 O   0  0  0  0  0  0  0  0  0  0  0  0
   22.4696  -22.4944  -17.8699 O   0  0  0  0  0  0  0  0  0  0  0  0
   17.8964  -22.7158   -7.3814 O   0  0  0  0  0  0  0  0  0  0  0  0
   18.7672  -22.0556   -8.2453 C   0  0  0  0  0  0  0  0  0  0  0  0
   18.2854  -21.4461   -9.3846 C   0  0  0  0  0  0  0  0  0  0  0  0
   19.1293  -20.7868  -10.2543 C   0  0  0  0  0  0  0  0  0  0  0  0
   20.4912  -20.6936  -10.0478 C   0  0  0  0  0  0  0  0  0  0  0  0
   21.4181  -20.0035  -10.9690 C   0  0  0  0  0  0  0  0  0  0  0  0
   21.9082  -20.9518  -12.0034 C   0  0  2  0  0  0  0  0  0  0  0  0
   22.8069  -20.2887  -12.9565 N   0  0  0  0  0  0  0  0  0  0  0  0
   20.7814  -21.4978  -12.7765 C   0  0  0  0  0  0  0  0  0  0  0  0
   20.1994  -22.5908  -12.5386 O   0  0  0  0  0  0  0  0  0  0  0  0
   20.9565  -21.3202   -8.8839 C   0  0  0  0  0  0  0  0  0  0  0  0
   20.1232  -21.9808   -8.0090 C   0  0  0  0  0  0  0  0  0  0  0  0
   20.3069  -20.7508  -13.8691 O   0  0  0  0  0  0  0  0  0  0  0  0
  2  1  1  1
  2  3  1  0
  3  4  1  0
  4  5  2  0
  5  6  1  0
  7  6  2  0
  8  7  1  0
  9  4  1  0
  9  8  2  0
 10 11  2  0
 10  2  1  0
 12 10  1  0
 13 18  1  0
 13 12  1  0
 13 14  1  6
 15 14  1  0
 16 15  1  0
 17 16  2  0
 18 28  1  0
 19 18  2  0
 20 16  1  0
 22 21  1  0
 23 22  2  0
 24 23  1  0
 25 24  2  0
 25 31  1  0
 26 25  1  0
 27 26  1  1
 28 27  1  0
 29 27  1  0
 30 29  2  0
 31 32  2  0
 32 22  1  0
 33 29  1  0
M  END
$$$$
