SDQ.pdb
     RDKit          3D

 24 23  0  0  1  0  0  0  0  0999 V2000
    5.3946  -19.1300   20.3349 O   0  0  0  0  0  0  0  0  0  0  0  0
    5.7664  -18.2425   19.3562 C   0  0  0  0  0  0  0  0  0  0  0  0
    6.9144  -18.6877   18.5107 C   0  0  2  0  0  0  0  0  0  0  0  0
    6.4755  -19.8678   17.7688 N   0  0  0  0  0  0  0  0  0  0  0  0
    8.1465  -18.9934   19.2388 C   0  0  0  0  0  0  0  0  0  0  0  0
    8.4851  -20.2036   19.3784 O   0  0  0  0  0  0  0  0  0  0  0  0
    9.0057  -18.0431   19.8073 N   0  0  0  0  0  0  0  0  0  0  0  0
   10.2042  -18.4393   20.5539 C   0  0  1  0  0  0  0  0  0  0  0  0
   11.3750  -17.6306   20.1111 C   0  0  0  0  0  0  0  0  0  0  0  0
   12.6617  -18.1761   20.5125 C   0  0  0  0  0  0  0  0  0  0  0  0
   12.8780  -18.5889   21.6608 O   0  0  0  0  0  0  0  0  0  0  0  0
    9.8290  -18.3107   21.9674 C   0  0  0  0  0  0  0  0  0  0  0  0
    9.7990  -17.1918   22.5106 O   0  0  0  0  0  0  0  0  0  0  0  0
   13.6907  -18.2407   19.5820 O   0  0  0  0  0  0  0  0  0  0  0  0
    4.9395  -21.7146   23.2460 N   0  0  0  0  0  0  0  0  0  0  0  0
    6.0240  -21.4235   24.1046 C   0  0  0  0  0  0  0  0  0  0  0  0
    6.1111  -22.0037   25.2043 O   0  0  0  0  0  0  0  0  0  0  0  0
    7.0304  -20.4384   23.6837 C   0  0  0  0  0  0  0  0  0  0  0  0
    8.1004  -20.1501   24.6975 C   0  0  0  0  0  0  0  0  0  0  0  0
    9.1536  -19.1836   24.2485 C   0  0  2  0  0  0  0  0  0  0  0  0
    9.4765  -19.4051   22.8241 N   0  0  0  0  0  0  0  0  0  0  0  0
   10.3889  -19.2371   25.0609 C   0  0  0  0  0  0  0  0  0  0  0  0
   10.3077  -18.9023   26.4096 O   0  0  0  0  0  0  0  0  0  0  0  0
   11.5202  -19.5636   24.6310 O   0  0  0  0  0  0  0  0  0  0  0  0
  2  3  1  0
  2  1  1  0
  3  4  1  1
  5  3  1  0
  6  5  2  0
  7  5  1  0
  8 12  1  0
  8  7  1  0
  8  9  1  6
 10  9  1  0
 10 11  2  0
 12 21  1  0
 13 12  2  0
 14 10  1  0
 16 18  1  0
 16 15  1  0
 17 16  2  0
 20 19  1  1
 19 18  1  0
 20 22  1  0
 21 20  1  0
 22 24  2  0
 22 23  1  0
M  END
$$$$
