SDQ.pdb
     RDKit          3D

 24 23  0  0  1  0  0  0  0  0999 V2000
    8.9634  -12.3172   20.4114 O   0  0  0  0  0  0  0  0  0  0  0  0
    7.9010  -12.8091   19.6950 C   0  0  0  0  0  0  0  0  0  0  0  0
    8.0438  -14.2308   19.2602 C   0  0  2  0  0  0  0  0  0  0  0  0
    6.8073  -14.6020   18.5754 N   0  0  0  0  0  0  0  0  0  0  0  0
    8.3201  -15.1883   20.3319 C   0  0  0  0  0  0  0  0  0  0  0  0
    7.3468  -15.6898   20.9642 O   0  0  0  0  0  0  0  0  0  0  0  0
    9.5964  -15.6104   20.7287 N   0  0  0  0  0  0  0  0  0  0  0  0
    9.7877  -16.5158   21.8664 C   0  0  1  0  0  0  0  0  0  0  0  0
   11.0148  -17.3376   21.6673 C   0  0  0  0  0  0  0  0  0  0  0  0
   11.1982  -18.3843   22.6599 C   0  0  0  0  0  0  0  0  0  0  0  0
   11.2284  -18.1472   23.8759 O   0  0  0  0  0  0  0  0  0  0  0  0
    9.7794  -15.6450   23.0484 C   0  0  0  0  0  0  0  0  0  0  0  0
   10.5757  -14.6929   23.1334 O   0  0  0  0  0  0  0  0  0  0  0  0
   11.3457  -19.6994   22.2390 O   0  0  0  0  0  0  0  0  0  0  0  0
    5.2159  -12.7514   25.8162 N   0  0  0  0  0  0  0  0  0  0  0  0
    6.3354  -12.2947   26.5485 C   0  0  0  0  0  0  0  0  0  0  0  0
    6.2297  -11.2805   27.2652 O   0  0  0  0  0  0  0  0  0  0  0  0
    7.6068  -13.0257   26.4494 C   0  0  0  0  0  0  0  0  0  0  0  0
    7.6509  -14.0822   25.3828 C   0  0  0  0  0  0  0  0  0  0  0  0
    8.9378  -14.8452   25.3008 C   0  0  2  0  0  0  0  0  0  0  0  0
    8.8980  -15.7942   24.1694 N   0  0  0  0  0  0  0  0  0  0  0  0
    9.2800  -15.5614   26.5494 C   0  0  0  0  0  0  0  0  0  0  0  0
    9.3452  -16.9514   26.5170 O   0  0  0  0  0  0  0  0  0  0  0  0
    9.5200  -15.0138   27.6512 O   0  0  0  0  0  0  0  0  0  0  0  0
  2  3  1  0
  2  1  1  0
  3  4  1  1
  5  3  1  0
  6  5  2  0
  7  5  1  0
  8 12  1  0
  8  7  1  0
  8  9  1  6
 10  9  1  0
 10 11  2  0
 12 21  1  0
 13 12  2  0
 14 10  1  0
 16 18  1  0
 16 15  1  0
 17 16  2  0
 20 19  1  1
 19 18  1  0
 20 22  1  0
 21 20  1  0
 22 24  2  0
 22 23  1  0
M  END
$$$$
