SDQ.pdb
     RDKit          3D

 24 23  0  0  1  0  0  0  0  0999 V2000
   10.8490  -13.0408   20.0222 O   0  0  0  0  0  0  0  0  0  0  0  0
   10.5087  -13.5874   18.8101 C   0  0  0  0  0  0  0  0  0  0  0  0
    9.1697  -14.2481   18.7750 C   0  0  2  0  0  0  0  0  0  0  0  0
    8.1651  -13.1899   18.6924 N   0  0  0  0  0  0  0  0  0  0  0  0
    8.8729  -15.1217   19.9110 C   0  0  0  0  0  0  0  0  0  0  0  0
    7.7783  -14.9686   20.5252 O   0  0  0  0  0  0  0  0  0  0  0  0
    9.7118  -16.1375   20.3896 N   0  0  0  0  0  0  0  0  0  0  0  0
    9.3173  -16.9955   21.5116 C   0  0  1  0  0  0  0  0  0  0  0  0
   10.0638  -18.2842   21.4590 C   0  0  0  0  0  0  0  0  0  0  0  0
    9.8401  -19.1494   22.6060 C   0  0  0  0  0  0  0  0  0  0  0  0
   10.7187  -19.3698   23.4519 O   0  0  0  0  0  0  0  0  0  0  0  0
    9.5319  -16.1743   22.7095 C   0  0  0  0  0  0  0  0  0  0  0  0
   10.6357  -15.6382   22.9147 O   0  0  0  0  0  0  0  0  0  0  0  0
    8.6006  -19.7544   22.7674 O   0  0  0  0  0  0  0  0  0  0  0  0
    5.3215  -12.7091   25.8928 N   0  0  0  0  0  0  0  0  0  0  0  0
    6.5406  -12.3714   26.5236 C   0  0  0  0  0  0  0  0  0  0  0  0
    6.5667  -11.4429   27.3547 O   0  0  0  0  0  0  0  0  0  0  0  0
    7.7578  -13.1228   26.1856 C   0  0  0  0  0  0  0  0  0  0  0  0
    7.5879  -14.1570   25.1098 C   0  0  0  0  0  0  0  0  0  0  0  0
    8.8082  -14.9777   24.8227 C   0  0  2  0  0  0  0  0  0  0  0  0
    8.5425  -15.9184   23.7151 N   0  0  0  0  0  0  0  0  0  0  0  0
    9.3145  -15.7149   26.0014 C   0  0  0  0  0  0  0  0  0  0  0  0
    9.0955  -17.0880   26.0659 O   0  0  0  0  0  0  0  0  0  0  0  0
    9.9337  -15.1997   26.9618 O   0  0  0  0  0  0  0  0  0  0  0  0
  2  3  1  0
  2  1  1  0
  3  4  1  1
  5  3  1  0
  6  5  2  0
  7  5  1  0
  8 12  1  0
  8  7  1  0
  8  9  1  1
 10  9  1  0
 10 11  2  0
 12 21  1  0
 13 12  2  0
 14 10  1  0
 16 18  1  0
 16 15  1  0
 17 16  2  0
 20 19  1  1
 19 18  1  0
 20 22  1  0
 21 20  1  0
 22 24  2  0
 22 23  1  0
M  END
$$$$
