SDQ.pdb
     RDKit          3D

 24 23  0  0  1  0  0  0  0  0999 V2000
    7.5967  -13.7774   19.9310 O   0  0  0  0  0  0  0  0  0  0  0  0
    8.0961  -12.8708   19.0297 C   0  0  0  0  0  0  0  0  0  0  0  0
    8.8084  -13.4745   17.8639 C   0  0  2  0  0  0  0  0  0  0  0  0
    7.8240  -14.2407   17.1026 N   0  0  0  0  0  0  0  0  0  0  0  0
    9.9461  -14.3311   18.2007 C   0  0  0  0  0  0  0  0  0  0  0  0
    9.8772  -15.5652   17.9342 O   0  0  0  0  0  0  0  0  0  0  0  0
   11.1337  -13.8962   18.8049 N   0  0  0  0  0  0  0  0  0  0  0  0
   12.1736  -14.8411   19.2249 C   0  0  1  0  0  0  0  0  0  0  0  0
   13.5198  -14.3205   18.8542 C   0  0  0  0  0  0  0  0  0  0  0  0
   14.6142  -15.2279   19.1597 C   0  0  0  0  0  0  0  0  0  0  0  0
   15.6642  -14.8442   19.6946 O   0  0  0  0  0  0  0  0  0  0  0  0
   11.9361  -15.0525   20.6582 C   0  0  0  0  0  0  0  0  0  0  0  0
   12.2753  -14.1878   21.4859 O   0  0  0  0  0  0  0  0  0  0  0  0
   14.4867  -16.5743   18.8441 O   0  0  0  0  0  0  0  0  0  0  0  0
    8.8027  -14.7270   21.4472 N   0  0  0  0  0  0  0  0  0  0  0  0
    8.3109  -14.8351   22.7681 C   0  0  0  0  0  0  0  0  0  0  0  0
    7.4423  -14.0359   23.1685 O   0  0  0  0  0  0  0  0  0  0  0  0
    8.8355  -15.8899   23.6470 C   0  0  0  0  0  0  0  0  0  0  0  0
    9.7584  -16.8705   22.9819 C   0  0  0  0  0  0  0  0  0  0  0  0
   11.1297  -16.3460   22.6825 C   0  0  2  0  0  0  0  0  0  0  0  0
   11.3203  -16.2175   21.2233 N   0  0  0  0  0  0  0  0  0  0  0  0
   12.2153  -17.1661   23.2637 C   0  0  0  0  0  0  0  0  0  0  0  0
   13.0821  -17.8250   22.3965 O   0  0  0  0  0  0  0  0  0  0  0  0
   12.4239  -17.3202   24.4901 O   0  0  0  0  0  0  0  0  0  0  0  0
  2  3  1  0
  2  1  1  0
  3  4  1  1
  5  3  1  0
  6  5  2  0
  7  5  1  0
  8 12  1  0
  8  7  1  0
  8  9  1  1
 10  9  1  0
 10 11  2  0
 12 21  1  0
 13 12  2  0
 14 10  1  0
 16 18  1  0
 16 15  1  0
 17 16  2  0
 20 19  1  6
 19 18  1  0
 20 22  1  0
 21 20  1  0
 22 24  2  0
 22 23  1  0
M  END
$$$$
