SDQ.pdb
     RDKit          3D

 24 23  0  0  1  0  0  0  0  0999 V2000
   10.0104  -14.2741   16.8226 O   0  0  0  0  0  0  0  0  0  0  0  0
    8.6629  -14.3377   16.5696 C   0  0  0  0  0  0  0  0  0  0  0  0
    7.7908  -14.0975   17.7582 C   0  0  2  0  0  0  0  0  0  0  0  0
    7.8573  -12.6701   18.0644 N   0  0  0  0  0  0  0  0  0  0  0  0
    8.1310  -14.8738   18.9512 C   0  0  0  0  0  0  0  0  0  0  0  0
    8.5616  -14.2629   19.9710 O   0  0  0  0  0  0  0  0  0  0  0  0
    8.0183  -16.2660   19.0682 N   0  0  0  0  0  0  0  0  0  0  0  0
    8.3546  -16.9626   20.3141 C   0  0  1  0  0  0  0  0  0  0  0  0
    7.8390  -18.3602   20.2757 C   0  0  0  0  0  0  0  0  0  0  0  0
    8.1207  -19.1323   21.4752 C   0  0  0  0  0  0  0  0  0  0  0  0
    9.2139  -19.6834   21.6677 O   0  0  0  0  0  0  0  0  0  0  0  0
    9.8091  -16.8152   20.4491 C   0  0  0  0  0  0  0  0  0  0  0  0
   10.5666  -17.1935   19.5376 O   0  0  0  0  0  0  0  0  0  0  0  0
    7.1353  -19.2618   22.4451 O   0  0  0  0  0  0  0  0  0  0  0  0
   14.9161  -14.6023   19.9992 N   0  0  0  0  0  0  0  0  0  0  0  0
   13.7441  -14.3629   19.2460 C   0  0  0  0  0  0  0  0  0  0  0  0
   13.8397  -14.0237   18.0504 O   0  0  0  0  0  0  0  0  0  0  0  0
   12.4315  -14.5176   19.8892 C   0  0  0  0  0  0  0  0  0  0  0  0
   12.4765  -14.8759   21.3470 C   0  0  0  0  0  0  0  0  0  0  0  0
   11.9471  -16.2373   21.6805 C   0  0  2  0  0  0  0  0  0  0  0  0
   10.4729  -16.2493   21.5871 N   0  0  0  0  0  0  0  0  0  0  0  0
   12.3732  -16.7270   23.0100 C   0  0  0  0  0  0  0  0  0  0  0  0
   13.7013  -17.1080   23.1792 O   0  0  0  0  0  0  0  0  0  0  0  0
   11.6279  -16.8295   24.0127 O   0  0  0  0  0  0  0  0  0  0  0  0
  2  3  1  0
  2  1  1  0
  3  4  1  1
  5  3  1  0
  6  5  2  0
  7  5  1  0
  8 12  1  0
  8  7  1  0
  8  9  1  6
 10  9  1  0
 10 11  2  0
 12 21  1  0
 13 12  2  0
 14 10  1  0
 16 18  1  0
 16 15  1  0
 17 16  2  0
 20 19  1  1
 19 18  1  0
 20 22  1  0
 21 20  1  0
 22 24  2  0
 22 23  1  0
M  END
$$$$
