SDQ.pdb
     RDKit          3D

 24 23  0  0  1  0  0  0  0  0999 V2000
   -1.1912  -24.6089   25.8273 O   0  0  0  0  0  0  0  0  0  0  0  0
   -1.6698  -25.8605   25.5303 C   0  0  0  0  0  0  0  0  0  0  0  0
   -2.6857  -25.8988   24.4361 C   0  0  2  0  0  0  0  0  0  0  0  0
   -2.0714  -25.3026   23.2517 N   0  0  0  0  0  0  0  0  0  0  0  0
   -3.9486  -25.2205   24.7306 C   0  0  0  0  0  0  0  0  0  0  0  0
   -4.1390  -24.0615   24.2624 O   0  0  0  0  0  0  0  0  0  0  0  0
   -4.9909  -25.7530   25.5017 N   0  0  0  0  0  0  0  0  0  0  0  0
   -6.2616  -25.0413   25.6732 C   0  0  1  0  0  0  0  0  0  0  0  0
   -7.3924  -25.8896   25.2017 C   0  0  0  0  0  0  0  0  0  0  0  0
   -8.6969  -25.2562   25.3081 C   0  0  0  0  0  0  0  0  0  0  0  0
   -8.8325  -24.0668   25.6285 O   0  0  0  0  0  0  0  0  0  0  0  0
   -6.2912  -24.6562   27.0897 C   0  0  0  0  0  0  0  0  0  0  0  0
   -5.8584  -25.4314   27.9611 O   0  0  0  0  0  0  0  0  0  0  0  0
   -9.8371  -26.0034   25.0429 O   0  0  0  0  0  0  0  0  0  0  0  0
   -3.6717  -20.1089   29.8274 N   0  0  0  0  0  0  0  0  0  0  0  0
   -3.8853  -21.1118   30.8005 C   0  0  0  0  0  0  0  0  0  0  0  0
   -3.2570  -21.0693   31.8761 O   0  0  0  0  0  0  0  0  0  0  0  0
   -4.8460  -22.1894   30.5240 C   0  0  0  0  0  0  0  0  0  0  0  0
   -5.5905  -22.0595   29.2261 C   0  0  0  0  0  0  0  0  0  0  0  0
   -6.6840  -23.0631   29.0208 C   0  0  2  0  0  0  0  0  0  0  0  0
   -6.7962  -23.4108   27.5894 N   0  0  0  0  0  0  0  0  0  0  0  0
   -7.9973  -22.6192   29.5375 C   0  0  0  0  0  0  0  0  0  0  0  0
   -9.0303  -22.4138   28.6273 O   0  0  0  0  0  0  0  0  0  0  0  0
   -8.2629  -22.4090   30.7444 O   0  0  0  0  0  0  0  0  0  0  0  0
  2  3  1  0
  2  1  1  0
  3  4  1  6
  5  3  1  0
  6  5  2  0
  7  5  1  0
  8 12  1  0
  8  7  1  0
  8  9  1  1
 10  9  1  0
 10 11  2  0
 12 21  1  0
 13 12  2  0
 14 10  1  0
 16 18  1  0
 16 15  1  0
 17 16  2  0
 20 19  1  6
 19 18  1  0
 20 22  1  0
 21 20  1  0
 22 24  2  0
 22 23  1  0
M  END
$$$$
