SDQ.pdb
     RDKit          3D

 24 23  0  0  1  0  0  0  0  0999 V2000
    8.3598  -19.1238   15.4476 O   0  0  0  0  0  0  0  0  0  0  0  0
    7.7057  -18.2478   16.2773 C   0  0  0  0  0  0  0  0  0  0  0  0
    8.5866  -17.2474   16.9511 C   0  0  2  0  0  0  0  0  0  0  0  0
    9.2705  -16.4942   15.9020 N   0  0  0  0  0  0  0  0  0  0  0  0
    9.5713  -17.8051   17.8790 C   0  0  0  0  0  0  0  0  0  0  0  0
    9.1620  -18.4923   18.8583 O   0  0  0  0  0  0  0  0  0  0  0  0
   10.9599  -17.6435   17.7766 N   0  0  0  0  0  0  0  0  0  0  0  0
   11.8849  -18.3658   18.6559 C   0  0  1  0  0  0  0  0  0  0  0  0
   12.9298  -19.0543   17.8467 C   0  0  0  0  0  0  0  0  0  0  0  0
   13.9467  -19.7293   18.6371 C   0  0  0  0  0  0  0  0  0  0  0  0
   13.6623  -20.5278   19.5412 O   0  0  0  0  0  0  0  0  0  0  0  0
   12.3668  -17.3574   19.6080 C   0  0  0  0  0  0  0  0  0  0  0  0
   12.9505  -16.3368   19.2010 O   0  0  0  0  0  0  0  0  0  0  0  0
   15.2870  -19.4760   18.3763 O   0  0  0  0  0  0  0  0  0  0  0  0
    9.6018  -15.3558   24.7092 N   0  0  0  0  0  0  0  0  0  0  0  0
   10.3176  -16.5554   24.9258 C   0  0  0  0  0  0  0  0  0  0  0  0
   10.0357  -17.2715   25.9062 O   0  0  0  0  0  0  0  0  0  0  0  0
   11.3845  -16.9357   23.9891 C   0  0  0  0  0  0  0  0  0  0  0  0
   11.6342  -15.9559   22.8785 C   0  0  0  0  0  0  0  0  0  0  0  0
   12.7060  -16.3559   21.9109 C   0  0  2  0  0  0  0  0  0  0  0  0
   12.2222  -17.4403   21.0320 N   0  0  0  0  0  0  0  0  0  0  0  0
   13.9700  -16.7609   22.5643 C   0  0  0  0  0  0  0  0  0  0  0  0
   15.0125  -15.8399   22.6145 O   0  0  0  0  0  0  0  0  0  0  0  0
   14.1852  -17.8808   23.0848 O   0  0  0  0  0  0  0  0  0  0  0  0
  2  3  1  0
  2  1  1  0
  3  4  1  6
  5  3  1  0
  6  5  2  0
  7  5  1  0
  8 12  1  0
  8  7  1  0
  8  9  1  6
 10  9  1  0
 10 11  2  0
 12 21  1  0
 13 12  2  0
 14 10  1  0
 16 18  1  0
 16 15  1  0
 17 16  2  0
 20 19  1  1
 19 18  1  0
 20 22  1  0
 21 20  1  0
 22 24  2  0
 22 23  1  0
M  END
$$$$
