SDQ.pdb
     RDKit          3D

 24 23  0  0  1  0  0  0  0  0999 V2000
    6.8250  -14.9096   21.8101 O   0  0  0  0  0  0  0  0  0  0  0  0
    7.5786  -14.7485   20.6744 C   0  0  0  0  0  0  0  0  0  0  0  0
    8.2680  -15.9856   20.2000 C   0  0  2  0  0  0  0  0  0  0  0  0
    7.2320  -16.9671   19.8855 N   0  0  0  0  0  0  0  0  0  0  0  0
    9.2281  -16.5664   21.1395 C   0  0  0  0  0  0  0  0  0  0  0  0
    8.8569  -17.5300   21.8693 O   0  0  0  0  0  0  0  0  0  0  0  0
   10.5535  -16.1418   21.3059 N   0  0  0  0  0  0  0  0  0  0  0  0
   11.4542  -16.7905   22.2643 C   0  0  1  0  0  0  0  0  0  0  0  0
   12.8712  -16.4638   21.9387 C   0  0  0  0  0  0  0  0  0  0  0  0
   13.3532  -17.0661   20.7061 C   0  0  0  0  0  0  0  0  0  0  0  0
   13.8432  -16.3944   19.7871 O   0  0  0  0  0  0  0  0  0  0  0  0
   10.9789  -16.3560   23.5837 C   0  0  0  0  0  0  0  0  0  0  0  0
   11.2251  -15.2075   23.9937 O   0  0  0  0  0  0  0  0  0  0  0  0
   13.2653  -18.4426   20.5446 O   0  0  0  0  0  0  0  0  0  0  0  0
    6.0704  -14.9725   26.1406 N   0  0  0  0  0  0  0  0  0  0  0  0
    6.2248  -16.1071   25.3117 C   0  0  0  0  0  0  0  0  0  0  0  0
    5.2337  -16.5746   24.7177 O   0  0  0  0  0  0  0  0  0  0  0  0
    7.5545  -16.7165   25.1666 C   0  0  0  0  0  0  0  0  0  0  0  0
    8.6355  -16.0885   25.9989 C   0  0  0  0  0  0  0  0  0  0  0  0
    9.9813  -16.7367   25.8818 C   0  0  2  0  0  0  0  0  0  0  0  0
   10.2209  -17.1688   24.4897 N   0  0  0  0  0  0  0  0  0  0  0  0
   10.1692  -17.8778   26.8046 C   0  0  0  0  0  0  0  0  0  0  0  0
   10.1303  -17.6332   28.1743 O   0  0  0  0  0  0  0  0  0  0  0  0
   10.3635  -19.0649   26.4519 O   0  0  0  0  0  0  0  0  0  0  0  0
  2  3  1  0
  2  1  1  0
  3  4  1  1
  5  3  1  0
  6  5  2  0
  7  5  1  0
  8 12  1  0
  8  7  1  0
  8  9  1  6
 10  9  1  0
 10 11  2  0
 12 21  1  0
 13 12  2  0
 14 10  1  0
 16 18  1  0
 16 15  1  0
 17 16  2  0
 20 19  1  6
 19 18  1  0
 20 22  1  0
 21 20  1  0
 22 24  2  0
 22 23  1  0
M  END
$$$$
