SDQ.pdb
     RDKit          3D

 24 23  0  0  1  0  0  0  0  0999 V2000
   10.2160  -12.7141   19.9510 O   0  0  0  0  0  0  0  0  0  0  0  0
    9.5882  -13.5008   19.0180 C   0  0  0  0  0  0  0  0  0  0  0  0
    8.1900  -13.8923   19.3680 C   0  0  2  0  0  0  0  0  0  0  0  0
    7.4013  -12.6645   19.4451 N   0  0  0  0  0  0  0  0  0  0  0  0
    8.0449  -14.6500   20.6117 C   0  0  0  0  0  0  0  0  0  0  0  0
    7.3132  -14.1782   21.5285 O   0  0  0  0  0  0  0  0  0  0  0  0
    8.6573  -15.8811   20.8836 N   0  0  0  0  0  0  0  0  0  0  0  0
    8.3410  -16.6466   22.0938 C   0  0  1  0  0  0  0  0  0  0  0  0
    8.7372  -18.0723   21.9172 C   0  0  0  0  0  0  0  0  0  0  0  0
    8.5903  -18.8840   23.1147 C   0  0  0  0  0  0  0  0  0  0  0  0
    7.5930  -18.8117   23.8467 O   0  0  0  0  0  0  0  0  0  0  0  0
    9.0064  -15.9225   23.1840 C   0  0  0  0  0  0  0  0  0  0  0  0
   10.1865  -15.5482   23.0617 O   0  0  0  0  0  0  0  0  0  0  0  0
    9.5989  -19.7748   23.4578 O   0  0  0  0  0  0  0  0  0  0  0  0
    6.8364  -11.3159   26.4850 N   0  0  0  0  0  0  0  0  0  0  0  0
    6.1513  -12.5495   26.4012 C   0  0  0  0  0  0  0  0  0  0  0  0
    4.9197  -12.5834   26.5896 O   0  0  0  0  0  0  0  0  0  0  0  0
    6.9067  -13.7725   26.0939 C   0  0  0  0  0  0  0  0  0  0  0  0
    8.3637  -13.5616   25.7968 C   0  0  0  0  0  0  0  0  0  0  0  0
    9.1263  -14.8054   25.4553 C   0  0  2  0  0  0  0  0  0  0  0  0
    8.3963  -15.5892   24.4380 N   0  0  0  0  0  0  0  0  0  0  0  0
    9.4257  -15.6551   26.6289 C   0  0  0  0  0  0  0  0  0  0  0  0
    8.9894  -16.9768   26.6161 O   0  0  0  0  0  0  0  0  0  0  0  0
   10.0489  -15.2796   27.6497 O   0  0  0  0  0  0  0  0  0  0  0  0
  2  3  1  0
  2  1  1  0
  3  4  1  1
  5  3  1  0
  6  5  2  0
  7  5  1  0
  8 12  1  0
  8  7  1  0
  8  9  1  6
 10  9  1  0
 10 11  2  0
 12 21  1  0
 13 12  2  0
 14 10  1  0
 16 18  1  0
 16 15  1  0
 17 16  2  0
 20 19  1  1
 19 18  1  0
 20 22  1  0
 21 20  1  0
 22 24  2  0
 22 23  1  0
M  END
$$$$
