SDQ.pdb
     RDKit          3D

 24 23  0  0  1  0  0  0  0  0999 V2000
    9.9279  -12.4812   20.3426 O   0  0  0  0  0  0  0  0  0  0  0  0
    9.5458  -13.2127   19.2460 C   0  0  0  0  0  0  0  0  0  0  0  0
    8.2771  -13.9819   19.4177 C   0  0  2  0  0  0  0  0  0  0  0  0
    7.1916  -13.0100   19.5305 N   0  0  0  0  0  0  0  0  0  0  0  0
    8.2463  -14.8903   20.5647 C   0  0  0  0  0  0  0  0  0  0  0  0
    7.2912  -14.7970   21.3880 O   0  0  0  0  0  0  0  0  0  0  0  0
    9.2019  -15.8786   20.8382 N   0  0  0  0  0  0  0  0  0  0  0  0
    9.0992  -16.7415   22.0196 C   0  0  1  0  0  0  0  0  0  0  0  0
    9.8431  -18.0126   21.7926 C   0  0  0  0  0  0  0  0  0  0  0  0
   10.0099  -18.8263   22.9861 C   0  0  0  0  0  0  0  0  0  0  0  0
    9.0641  -19.4248   23.5183 O   0  0  0  0  0  0  0  0  0  0  0  0
    9.5668  -15.9110   23.1363 C   0  0  0  0  0  0  0  0  0  0  0  0
   10.6879  -15.3732   23.0934 O   0  0  0  0  0  0  0  0  0  0  0  0
   11.2706  -18.9426   23.5566 O   0  0  0  0  0  0  0  0  0  0  0  0
    5.1396  -12.5224   26.1437 N   0  0  0  0  0  0  0  0  0  0  0  0
    6.5403  -12.5826   26.3246 C   0  0  0  0  0  0  0  0  0  0  0  0
    7.1533  -11.5726   26.7216 O   0  0  0  0  0  0  0  0  0  0  0  0
    7.2492  -13.8381   26.0391 C   0  0  0  0  0  0  0  0  0  0  0  0
    8.7231  -13.6931   25.7899 C   0  0  0  0  0  0  0  0  0  0  0  0
    9.4424  -14.9721   25.4867 C   0  0  2  0  0  0  0  0  0  0  0  0
    8.8184  -15.6475   24.3306 N   0  0  0  0  0  0  0  0  0  0  0  0
    9.5092  -15.8990   26.6379 C   0  0  0  0  0  0  0  0  0  0  0  0
   10.1649  -15.4751   27.7903 O   0  0  0  0  0  0  0  0  0  0  0  0
    9.0177  -17.0519   26.6639 O   0  0  0  0  0  0  0  0  0  0  0  0
  2  3  1  0
  2  1  1  0
  3  4  1  1
  5  3  1  0
  6  5  2  0
  7  5  1  0
  8 12  1  0
  8  7  1  0
  8  9  1  6
 10  9  1  0
 10 11  2  0
 12 21  1  0
 13 12  2  0
 14 10  1  0
 16 18  1  0
 16 15  1  0
 17 16  2  0
 20 19  1  1
 19 18  1  0
 20 22  1  0
 21 20  1  0
 22 24  2  0
 22 23  1  0
M  END
$$$$
