SDQ.pdb
     RDKit          3D

 24 23  0  0  1  0  0  0  0  0999 V2000
    8.8503  -12.2241   20.5910 O   0  0  0  0  0  0  0  0  0  0  0  0
    9.1594  -12.8640   19.4168 C   0  0  0  0  0  0  0  0  0  0  0  0
    8.4416  -14.1557   19.2001 C   0  0  2  0  0  0  0  0  0  0  0  0
    7.0500  -13.8331   18.8919 N   0  0  0  0  0  0  0  0  0  0  0  0
    8.4930  -15.0960   20.3203 C   0  0  0  0  0  0  0  0  0  0  0  0
    7.4462  -15.2837   21.0043 O   0  0  0  0  0  0  0  0  0  0  0  0
    9.6243  -15.8252   20.7115 N   0  0  0  0  0  0  0  0  0  0  0  0
    9.6026  -16.7089   21.8817 C   0  0  1  0  0  0  0  0  0  0  0  0
   10.6985  -17.7142   21.7857 C   0  0  0  0  0  0  0  0  0  0  0  0
   10.8440  -18.5512   22.9657 C   0  0  0  0  0  0  0  0  0  0  0  0
    9.8778  -19.1056   23.5089 O   0  0  0  0  0  0  0  0  0  0  0  0
    9.6549  -15.8062   23.0384 C   0  0  0  0  0  0  0  0  0  0  0  0
   10.5202  -14.9145   23.1012 O   0  0  0  0  0  0  0  0  0  0  0  0
   12.1072  -18.7417   23.5103 O   0  0  0  0  0  0  0  0  0  0  0  0
    5.3835  -12.4482   25.7038 N   0  0  0  0  0  0  0  0  0  0  0  0
    6.4792  -12.1793   26.5555 C   0  0  0  0  0  0  0  0  0  0  0  0
    6.4024  -11.2492   27.3817 O   0  0  0  0  0  0  0  0  0  0  0  0
    7.6920  -13.0029   26.4494 C   0  0  0  0  0  0  0  0  0  0  0  0
    7.6681  -14.0312   25.3549 C   0  0  0  0  0  0  0  0  0  0  0  0
    8.8861  -14.9002   25.2766 C   0  0  2  0  0  0  0  0  0  0  0  0
    8.7603  -15.8566   24.1577 N   0  0  0  0  0  0  0  0  0  0  0  0
    9.1746  -15.6269   26.5326 C   0  0  0  0  0  0  0  0  0  0  0  0
    9.6637  -14.9039   27.6168 O   0  0  0  0  0  0  0  0  0  0  0  0
    9.0134  -16.8579   26.7058 O   0  0  0  0  0  0  0  0  0  0  0  0
  2  3  1  0
  2  1  1  0
  3  4  1  1
  5  3  1  0
  6  5  2  0
  7  5  1  0
  8 12  1  0
  8  7  1  0
  8  9  1  6
 10  9  1  0
 10 11  2  0
 12 21  1  0
 13 12  2  0
 14 10  1  0
 16 18  1  0
 16 15  1  0
 17 16  2  0
 20 19  1  1
 19 18  1  0
 20 22  1  0
 21 20  1  0
 22 24  2  0
 22 23  1  0
M  END
$$$$
