SDQ.pdb
     RDKit          3D

 24 23  0  0  1  0  0  0  0  0999 V2000
    4.8768  -16.7669   20.4784 O   0  0  0  0  0  0  0  0  0  0  0  0
    6.0834  -16.8326   21.1293 C   0  0  0  0  0  0  0  0  0  0  0  0
    6.9758  -17.9440   20.6829 C   0  0  2  0  0  0  0  0  0  0  0  0
    6.2050  -19.1824   20.7716 N   0  0  0  0  0  0  0  0  0  0  0  0
    8.2235  -18.0852   21.4346 C   0  0  0  0  0  0  0  0  0  0  0  0
    8.3200  -19.0191   22.2814 O   0  0  0  0  0  0  0  0  0  0  0  0
    9.3479  -17.2599   21.2959 N   0  0  0  0  0  0  0  0  0  0  0  0
   10.5740  -17.4952   22.0653 C   0  0  1  0  0  0  0  0  0  0  0  0
   11.7683  -17.1368   21.2493 C   0  0  0  0  0  0  0  0  0  0  0  0
   13.0360  -17.3143   21.9390 C   0  0  0  0  0  0  0  0  0  0  0  0
   13.2408  -18.2559   22.7184 O   0  0  0  0  0  0  0  0  0  0  0  0
   10.3914  -16.7368   23.3090 C   0  0  0  0  0  0  0  0  0  0  0  0
   10.7621  -15.5515   23.3827 O   0  0  0  0  0  0  0  0  0  0  0  0
   14.0594  -16.4008   21.7225 O   0  0  0  0  0  0  0  0  0  0  0  0
    6.7006  -12.7780   25.0778 N   0  0  0  0  0  0  0  0  0  0  0  0
    6.7705  -14.1812   25.2342 C   0  0  0  0  0  0  0  0  0  0  0  0
    5.7620  -14.8092   25.6111 O   0  0  0  0  0  0  0  0  0  0  0  0
    8.0349  -14.8747   24.9499 C   0  0  0  0  0  0  0  0  0  0  0  0
    8.4726  -15.8542   26.0009 C   0  0  0  0  0  0  0  0  0  0  0  0
    9.8126  -16.4810   25.7628 C   0  0  2  0  0  0  0  0  0  0  0  0
    9.7976  -17.2570   24.5059 N   0  0  0  0  0  0  0  0  0  0  0  0
   10.2710  -17.3364   26.8795 C   0  0  0  0  0  0  0  0  0  0  0  0
   10.4800  -16.7449   28.1221 O   0  0  0  0  0  0  0  0  0  0  0  0
   10.4906  -18.5680   26.8002 O   0  0  0  0  0  0  0  0  0  0  0  0
  2  3  1  0
  2  1  1  0
  3  4  1  1
  5  3  1  0
  6  5  2  0
  7  5  1  0
  8 12  1  0
  8  7  1  0
  8  9  1  6
 10  9  1  0
 10 11  2  0
 12 21  1  0
 13 12  2  0
 14 10  1  0
 16 18  1  0
 16 15  1  0
 17 16  2  0
 20 19  1  1
 19 18  1  0
 20 22  1  0
 21 20  1  0
 22 24  2  0
 22 23  1  0
M  END
$$$$
