CHK.pdb
     RDKit          3D

 26 26  0  0  1  0  0  0  0  0999 V2000
   26.4960  -15.3552  -18.7665 N   0  0  0  0  0  0  0  0  0  0  0  0
   26.3879  -15.9741  -17.4630 C   0  0  1  0  0  0  0  0  0  0  0  0
   27.2201  -15.2088  -16.4497 C   0  0  0  0  0  0  0  0  0  0  0  0
   28.9731  -15.6560  -16.5767 S   0  0  0  0  0  0  0  0  0  0  0  0
   24.9948  -15.9787  -16.9619 C   0  0  0  0  0  0  0  0  0  0  0  0
   24.2763  -14.9289  -16.9538 O   0  0  0  0  0  0  0  0  0  0  0  0
   24.4645  -17.1993  -16.4813 N   0  0  0  0  0  0  0  0  0  0  0  0
   23.0085  -17.2395  -16.0661 C   0  0  1  0  0  0  0  0  0  0  0  0
   22.2839  -17.2819  -17.3855 C   0  0  0  0  0  0  0  0  0  0  0  0
   20.8423  -17.4476  -17.3635 C   0  0  0  0  0  0  0  0  0  0  0  0
   19.9081  -17.5916  -16.3841 C   0  0  0  0  0  0  0  0  0  0  0  0
   18.6526  -17.6380  -16.9124 N   0  0  0  0  0  0  0  0  0  0  0  0
   18.8313  -17.5189  -18.2328 C   0  0  0  0  0  0  0  0  0  0  0  0
   20.1131  -17.4051  -18.5231 N   0  0  0  0  0  0  0  0  0  0  0  0
   22.9241  -18.5929  -15.4470 C   0  0  0  0  0  0  0  0  0  0  0  0
   23.3637  -19.5717  -16.1564 O   0  0  0  0  0  0  0  0  0  0  0  0
   22.4342  -18.9396  -14.1963 N   0  0  0  0  0  0  0  0  0  0  0  0
   22.5388  -20.3442  -13.7419 C   0  0  1  0  0  0  0  0  0  0  0  0
   23.0518  -20.3774  -12.3346 C   0  0  0  0  0  0  0  0  0  0  0  0
   24.4814  -20.7571  -12.2554 C   0  0  0  0  0  0  0  0  0  0  0  0
   25.0386  -20.7227  -10.8522 C   0  0  0  0  0  0  0  0  0  0  0  0
   26.5243  -21.0657  -10.9447 C   0  0  0  0  0  0  0  0  0  0  0  0
   27.1120  -20.9629   -9.6049 N   0  0  0  0  0  0  0  0  0  0  0  0
   21.1936  -20.9285  -13.8381 C   0  0  0  0  0  0  0  0  0  0  0  0
   20.1830  -20.2647  -13.5426 O   0  0  0  0  0  0  0  0  0  0  0  0
   20.9839  -22.2397  -14.2601 O   0  0  0  0  0  0  0  0  0  0  0  0
  2  5  1  0
  2  1  1  6
  3  2  1  0
  4  3  1  0
  5  6  2  0
  7  5  1  0
  7  8  1  0
  8 15  1  0
  8  9  1  6
  9 10  1  0
 10 11  2  0
 11 12  1  0
 13 12  1  0
 14 10  1  0
 14 13  2  0
 15 16  2  0
 17 18  1  0
 17 15  1  0
 18 24  1  0
 18 19  1  1
 20 19  1  0
 21 22  1  0
 21 20  1  0
 23 22  1  0
 24 25  2  0
 24 26  1  0
M  END
$$$$
