CHK.pdb
     RDKit          3D

 26 26  0  0  1  0  0  0  0  0999 V2000
   25.4400  -12.9779  -17.0403 N   0  0  0  0  0  0  0  0  0  0  0  0
   25.3999  -11.6611  -16.4419 C   0  0  1  0  0  0  0  0  0  0  0  0
   26.4952  -10.7871  -17.0262 C   0  0  0  0  0  0  0  0  0  0  0  0
   28.1368  -11.4403  -16.6169 S   0  0  0  0  0  0  0  0  0  0  0  0
   24.1150  -10.9715  -16.6977 C   0  0  0  0  0  0  0  0  0  0  0  0
   23.4379  -11.1751  -17.7553 O   0  0  0  0  0  0  0  0  0  0  0  0
   23.6426  -10.0612  -15.7230 N   0  0  0  0  0  0  0  0  0  0  0  0
   22.3001   -9.3969  -15.9467 C   0  0  1  0  0  0  0  0  0  0  0  0
   21.4671   -9.9320  -14.8119 C   0  0  0  0  0  0  0  0  0  0  0  0
   20.3379  -10.7824  -15.1404 C   0  0  0  0  0  0  0  0  0  0  0  0
   19.7587  -11.2030  -16.2981 C   0  0  0  0  0  0  0  0  0  0  0  0
   18.7415  -12.0739  -16.0447 N   0  0  0  0  0  0  0  0  0  0  0  0
   18.7064  -12.1820  -14.7118 C   0  0  0  0  0  0  0  0  0  0  0  0
   19.6377  -11.4305  -14.1567 N   0  0  0  0  0  0  0  0  0  0  0  0
   22.6307   -7.9743  -15.6486 C   0  0  0  0  0  0  0  0  0  0  0  0
   23.5275   -7.7751  -14.7484 O   0  0  0  0  0  0  0  0  0  0  0  0
   22.0984   -6.8277  -16.2200 N   0  0  0  0  0  0  0  0  0  0  0  0
   22.5390   -5.5029  -15.7290 C   0  0  1  0  0  0  0  0  0  0  0  0
   22.1441   -4.4473  -16.7162 C   0  0  0  0  0  0  0  0  0  0  0  0
   22.4015   -3.0754  -16.2207 C   0  0  0  0  0  0  0  0  0  0  0  0
   21.9561   -1.9945  -17.1766 C   0  0  0  0  0  0  0  0  0  0  0  0
   22.2942   -0.6509  -16.5330 C   0  0  0  0  0  0  0  0  0  0  0  0
   21.7843    0.4213  -17.3940 N   0  0  0  0  0  0  0  0  0  0  0  0
   21.8922   -5.2903  -14.4264 C   0  0  0  0  0  0  0  0  0  0  0  0
   20.7454   -5.7188  -14.2019 O   0  0  0  0  0  0  0  0  0  0  0  0
   22.5226   -4.6063  -13.3891 O   0  0  0  0  0  0  0  0  0  0  0  0
  2  5  1  0
  2  1  1  6
  3  2  1  0
  4  3  1  0
  5  6  2  0
  7  5  1  0
  7  8  1  0
  8 15  1  0
  8  9  1  1
  9 10  1  0
 10 11  2  0
 11 12  1  0
 13 12  1  0
 14 10  1  0
 14 13  2  0
 15 16  2  0
 17 18  1  0
 17 15  1  0
 18 24  1  0
 18 19  1  6
 20 19  1  0
 21 22  1  0
 21 20  1  0
 23 22  1  0
 24 25  2  0
 24 26  1  0
M  END
$$$$
