CHK.pdb
     RDKit          3D

 26 26  0  0  1  0  0  0  0  0999 V2000
   14.8602  -11.0300   -9.8605 N   0  0  0  0  0  0  0  0  0  0  0  0
   14.5321   -9.6212   -9.8965 C   0  0  1  0  0  0  0  0  0  0  0  0
   14.0396   -9.1635   -8.5353 C   0  0  0  0  0  0  0  0  0  0  0  0
   12.4009   -9.8503   -8.1715 S   0  0  0  0  0  0  0  0  0  0  0  0
   15.7054   -8.7840  -10.2347 C   0  0  0  0  0  0  0  0  0  0  0  0
   16.8290   -8.9304   -9.6564 O   0  0  0  0  0  0  0  0  0  0  0  0
   15.5515   -7.7957  -11.2355 N   0  0  0  0  0  0  0  0  0  0  0  0
   16.7747   -7.0197  -11.6773 C   0  0  1  0  0  0  0  0  0  0  0  0
   16.8321   -7.2963  -13.1564 C   0  0  0  0  0  0  0  0  0  0  0  0
   17.4913   -8.5126  -13.5948 C   0  0  0  0  0  0  0  0  0  0  0  0
   18.1450   -9.5287  -12.9681 C   0  0  0  0  0  0  0  0  0  0  0  0
   18.5200  -10.4890  -13.8595 N   0  0  0  0  0  0  0  0  0  0  0  0
   18.0845  -10.0461  -15.0443 C   0  0  0  0  0  0  0  0  0  0  0  0
   17.4749   -8.8835  -14.9141 N   0  0  0  0  0  0  0  0  0  0  0  0
   16.3091   -5.6166  -11.4856 C   0  0  0  0  0  0  0  0  0  0  0  0
   15.0418   -5.4526  -11.3389 O   0  0  0  0  0  0  0  0  0  0  0  0
   17.0669   -4.4555  -11.4404 N   0  0  0  0  0  0  0  0  0  0  0  0
   16.4019   -3.1687  -11.1368 C   0  0  1  0  0  0  0  0  0  0  0  0
   16.1119   -3.0900   -9.6690 C   0  0  0  0  0  0  0  0  0  0  0  0
   14.6731   -2.8888   -9.3798 C   0  0  0  0  0  0  0  0  0  0  0  0
   14.3602   -2.7980   -7.9053 C   0  0  0  0  0  0  0  0  0  0  0  0
   12.8515   -2.5990   -7.7721 C   0  0  0  0  0  0  0  0  0  0  0  0
   12.5010   -2.6212   -6.3482 N   0  0  0  0  0  0  0  0  0  0  0  0
   17.3176   -2.1007  -11.5622 C   0  0  0  0  0  0  0  0  0  0  0  0
   17.0062   -0.9018  -11.4398 O   0  0  0  0  0  0  0  0  0  0  0  0
   18.5661   -2.3728  -12.1177 O   0  0  0  0  0  0  0  0  0  0  0  0
  2  5  1  0
  2  1  1  1
  3  2  1  0
  4  3  1  0
  5  6  2  0
  7  5  1  0
  7  8  1  0
  8 15  1  0
  8  9  1  6
  9 10  1  0
 10 11  2  0
 11 12  1  0
 13 12  1  0
 14 10  1  0
 14 13  2  0
 15 16  2  0
 17 18  1  0
 17 15  1  0
 18 24  1  0
 18 19  1  1
 20 19  1  0
 21 22  1  0
 21 20  1  0
 23 22  1  0
 24 25  2  0
 24 26  1  0
M  END
$$$$
