CHK.pdb
     RDKit          3D

 26 26  0  0  1  0  0  0  0  0999 V2000
   21.7098  -15.1505  -19.2053 N   0  0  0  0  0  0  0  0  0  0  0  0
   21.7299  -13.7230  -19.4405 C   0  0  1  0  0  0  0  0  0  0  0  0
   20.3121  -13.1873  -19.5299 C   0  0  0  0  0  0  0  0  0  0  0  0
   19.4398  -13.3886  -17.9527 S   0  0  0  0  0  0  0  0  0  0  0  0
   22.4010  -12.9869  -18.3452 C   0  0  0  0  0  0  0  0  0  0  0  0
   23.3018  -13.5226  -17.6240 O   0  0  0  0  0  0  0  0  0  0  0  0
   22.0140  -11.6465  -18.1093 N   0  0  0  0  0  0  0  0  0  0  0  0
   22.8185  -10.8264  -17.1225 C   0  0  1  0  0  0  0  0  0  0  0  0
   24.1291  -10.6307  -17.8377 C   0  0  0  0  0  0  0  0  0  0  0  0
   25.3499  -10.7385  -17.0603 C   0  0  0  0  0  0  0  0  0  0  0  0
   25.6376  -11.0270  -15.7616 C   0  0  0  0  0  0  0  0  0  0  0  0
   26.9848  -11.0701  -15.5599 N   0  0  0  0  0  0  0  0  0  0  0  0
   27.5197  -10.8043  -16.7569 C   0  0  0  0  0  0  0  0  0  0  0  0
   26.5763  -10.6056  -17.6573 N   0  0  0  0  0  0  0  0  0  0  0  0
   22.0767   -9.5338  -17.1518 C   0  0  0  0  0  0  0  0  0  0  0  0
   21.2982   -9.3470  -18.1586 O   0  0  0  0  0  0  0  0  0  0  0  0
   22.1116   -8.4988  -16.2287 N   0  0  0  0  0  0  0  0  0  0  0  0
   21.1151   -7.4089  -16.3255 C   0  0  1  0  0  0  0  0  0  0  0  0
   19.7368   -7.9768  -16.1752 C   0  0  0  0  0  0  0  0  0  0  0  0
   19.1061   -8.3001  -17.4758 C   0  0  0  0  0  0  0  0  0  0  0  0
   17.7332   -8.9153  -17.3450 C   0  0  0  0  0  0  0  0  0  0  0  0
   17.2310   -9.2106  -18.7572 C   0  0  0  0  0  0  0  0  0  0  0  0
   15.8837   -9.7824  -18.6641 N   0  0  0  0  0  0  0  0  0  0  0  0
   21.4215   -6.4499  -15.2546 C   0  0  0  0  0  0  0  0  0  0  0  0
   22.2918   -6.6986  -14.4002 O   0  0  0  0  0  0  0  0  0  0  0  0
   20.7611   -5.2282  -15.1428 O   0  0  0  0  0  0  0  0  0  0  0  0
  2  5  1  0
  2  1  1  1
  3  2  1  0
  4  3  1  0
  5  6  2  0
  7  5  1  0
  7  8  1  0
  8 15  1  0
  8  9  1  6
  9 10  1  0
 10 11  2  0
 11 12  1  0
 13 12  1  0
 14 10  1  0
 14 13  2  0
 15 16  2  0
 17 18  1  0
 17 15  1  0
 18 24  1  0
 18 19  1  1
 20 19  1  0
 21 22  1  0
 21 20  1  0
 23 22  1  0
 24 25  2  0
 24 26  1  0
M  END
$$$$
