CHK.pdb
     RDKit          3D

 26 26  0  0  1  0  0  0  0  0999 V2000
   25.3329  -10.7595  -18.4265 N   0  0  0  0  0  0  0  0  0  0  0  0
   25.1550   -9.6299  -17.5399 C   0  0  1  0  0  0  0  0  0  0  0  0
   26.0003   -8.4589  -18.0081 C   0  0  0  0  0  0  0  0  0  0  0  0
   27.7686   -8.8418  -17.8830 S   0  0  0  0  0  0  0  0  0  0  0  0
   23.7505   -9.1626  -17.5076 C   0  0  0  0  0  0  0  0  0  0  0  0
   22.9883   -9.2426  -18.5230 O   0  0  0  0  0  0  0  0  0  0  0  0
   23.2598   -8.6127  -16.2997 N   0  0  0  0  0  0  0  0  0  0  0  0
   21.8147   -8.1626  -16.2467 C   0  0  1  0  0  0  0  0  0  0  0  0
   21.3049   -8.8167  -14.9897 C   0  0  0  0  0  0  0  0  0  0  0  0
   20.2281   -9.7816  -15.1148 C   0  0  0  0  0  0  0  0  0  0  0  0
   19.5674  -10.3514  -16.1596 C   0  0  0  0  0  0  0  0  0  0  0  0
   18.6661  -11.2744  -15.7199 N   0  0  0  0  0  0  0  0  0  0  0  0
   18.7852  -11.2627  -14.3875 C   0  0  0  0  0  0  0  0  0  0  0  0
   19.6995  -10.3912  -14.0071 N   0  0  0  0  0  0  0  0  0  0  0  0
   21.9778   -6.7055  -15.9778 C   0  0  0  0  0  0  0  0  0  0  0  0
   23.1430   -6.3258  -15.5870 O   0  0  0  0  0  0  0  0  0  0  0  0
   21.0339   -5.6959  -16.0975 N   0  0  0  0  0  0  0  0  0  0  0  0
   21.4660   -4.2846  -15.9891 C   0  0  1  0  0  0  0  0  0  0  0  0
   22.5396   -4.0117  -16.9978 C   0  0  0  0  0  0  0  0  0  0  0  0
   22.9251   -2.5824  -17.0509 C   0  0  0  0  0  0  0  0  0  0  0  0
   24.0436   -2.2942  -18.0236 C   0  0  0  0  0  0  0  0  0  0  0  0
   24.3451   -0.7990  -17.9396 C   0  0  0  0  0  0  0  0  0  0  0  0
   25.5169   -0.5108  -18.7732 N   0  0  0  0  0  0  0  0  0  0  0  0
   20.2787   -3.4519  -16.2283 C   0  0  0  0  0  0  0  0  0  0  0  0
   19.3115   -3.8858  -16.8807 O   0  0  0  0  0  0  0  0  0  0  0  0
   20.1768   -2.1500  -15.7427 O   0  0  0  0  0  0  0  0  0  0  0  0
  2  5  1  0
  2  1  1  6
  3  2  1  0
  4  3  1  0
  5  6  2  0
  7  5  1  0
  7  8  1  0
  8 15  1  0
  8  9  1  1
  9 10  1  0
 10 11  2  0
 11 12  1  0
 13 12  1  0
 14 10  1  0
 14 13  2  0
 15 16  2  0
 17 18  1  0
 17 15  1  0
 18 24  1  0
 18 19  1  6
 20 19  1  0
 21 22  1  0
 21 20  1  0
 23 22  1  0
 24 25  2  0
 24 26  1  0
M  END
$$$$
