CHK.pdb
     RDKit          3D

 26 26  0  0  1  0  0  0  0  0999 V2000
   19.2524  -16.4331  -18.1155 N   0  0  0  0  0  0  0  0  0  0  0  0
   18.6823  -15.1143  -18.2870 C   0  0  1  0  0  0  0  0  0  0  0  0
   18.1415  -14.6019  -16.9642 C   0  0  0  0  0  0  0  0  0  0  0  0
   16.6699  -15.5334  -16.4582 S   0  0  0  0  0  0  0  0  0  0  0  0
   19.6849  -14.1300  -18.7536 C   0  0  0  0  0  0  0  0  0  0  0  0
   20.8631  -14.0873  -18.2755 O   0  0  0  0  0  0  0  0  0  0  0  0
   19.3009  -13.2166  -19.7637 N   0  0  0  0  0  0  0  0  0  0  0  0
   20.3456  -12.2682  -20.3140 C   0  0  1  0  0  0  0  0  0  0  0  0
   19.7611  -11.8566  -21.6394 C   0  0  0  0  0  0  0  0  0  0  0  0
   20.4629  -10.8438  -22.4060 C   0  0  0  0  0  0  0  0  0  0  0  0
   21.7463  -10.6782  -22.8281 C   0  0  0  0  0  0  0  0  0  0  0  0
   21.8646   -9.5601  -23.5984 N   0  0  0  0  0  0  0  0  0  0  0  0
   20.6319   -9.0424  -23.6434 C   0  0  0  0  0  0  0  0  0  0  0  0
   19.7885   -9.7812  -22.9485 N   0  0  0  0  0  0  0  0  0  0  0  0
   20.2146  -11.1197  -19.3727 C   0  0  0  0  0  0  0  0  0  0  0  0
   19.0613  -10.9610  -18.8256 O   0  0  0  0  0  0  0  0  0  0  0  0
   21.1794  -10.1943  -19.0026 N   0  0  0  0  0  0  0  0  0  0  0  0
   20.8024   -9.0712  -18.1155 C   0  0  1  0  0  0  0  0  0  0  0  0
   21.2164   -9.3837  -16.7099 C   0  0  0  0  0  0  0  0  0  0  0  0
   20.9256   -8.2778  -15.7683 C   0  0  0  0  0  0  0  0  0  0  0  0
   21.2948   -8.5898  -14.3376 C   0  0  0  0  0  0  0  0  0  0  0  0
   20.7793   -7.4399  -13.4741 C   0  0  0  0  0  0  0  0  0  0  0  0
   20.9444   -7.8045  -12.0632 N   0  0  0  0  0  0  0  0  0  0  0  0
   21.4859   -7.8735  -18.6240 C   0  0  0  0  0  0  0  0  0  0  0  0
   21.0810   -6.7324  -18.3353 O   0  0  0  0  0  0  0  0  0  0  0  0
   22.6085   -7.9537  -19.4454 O   0  0  0  0  0  0  0  0  0  0  0  0
  2  5  1  0
  2  1  1  1
  3  2  1  0
  4  3  1  0
  5  6  2  0
  7  5  1  0
  7  8  1  0
  8 15  1  0
  8  9  1  6
  9 10  1  0
 10 11  2  0
 11 12  1  0
 13 12  1  0
 14 10  1  0
 14 13  2  0
 15 16  2  0
 17 18  1  0
 17 15  1  0
 18 24  1  0
 18 19  1  1
 20 19  1  0
 21 22  1  0
 21 20  1  0
 23 22  1  0
 24 25  2  0
 24 26  1  0
M  END
$$$$
