CHK.pdb
     RDKit          3D

 26 26  0  0  1  0  0  0  0  0999 V2000
   26.0594   -9.0023  -20.9213 N   0  0  0  0  0  0  0  0  0  0  0  0
   24.9812   -9.9663  -20.9617 C   0  0  1  0  0  0  0  0  0  0  0  0
   25.4901  -11.2994  -21.4801 C   0  0  0  0  0  0  0  0  0  0  0  0
   26.1829  -11.1277  -23.1474 S   0  0  0  0  0  0  0  0  0  0  0  0
   24.4061  -10.2160  -19.6205 C   0  0  0  0  0  0  0  0  0  0  0  0
   23.4657  -11.0522  -19.4337 O   0  0  0  0  0  0  0  0  0  0  0  0
   24.9328   -9.4916  -18.5252 N   0  0  0  0  0  0  0  0  0  0  0  0
   24.4618   -9.8484  -17.1307 C   0  0  1  0  0  0  0  0  0  0  0  0
   25.7520  -10.0097  -16.3711 C   0  0  0  0  0  0  0  0  0  0  0  0
   26.4299  -11.2906  -16.4481 C   0  0  0  0  0  0  0  0  0  0  0  0
   26.1920  -12.4644  -17.0948 C   0  0  0  0  0  0  0  0  0  0  0  0
   27.2046  -13.3513  -16.8813 N   0  0  0  0  0  0  0  0  0  0  0  0
   28.0690  -12.7020  -16.0935 C   0  0  0  0  0  0  0  0  0  0  0  0
   27.6347  -11.4858  -15.8247 N   0  0  0  0  0  0  0  0  0  0  0  0
   23.8299   -8.5673  -16.7047 C   0  0  0  0  0  0  0  0  0  0  0  0
   24.2809   -7.4981  -17.2597 O   0  0  0  0  0  0  0  0  0  0  0  0
   22.8096   -8.3734  -15.7850 N   0  0  0  0  0  0  0  0  0  0  0  0
   22.1840   -7.0372  -15.6690 C   0  0  1  0  0  0  0  0  0  0  0  0
   21.6121   -6.6363  -16.9946 C   0  0  0  0  0  0  0  0  0  0  0  0
   20.9233   -5.3258  -16.9479 C   0  0  0  0  0  0  0  0  0  0  0  0
   20.3391   -4.9029  -18.2747 C   0  0  0  0  0  0  0  0  0  0  0  0
   19.7669   -3.4983  -18.0924 C   0  0  0  0  0  0  0  0  0  0  0  0
   19.0419   -3.1270  -19.3120 N   0  0  0  0  0  0  0  0  0  0  0  0
   21.1387   -7.1396  -14.6409 C   0  0  0  0  0  0  0  0  0  0  0  0
   20.7323   -8.2483  -14.2473 O   0  0  0  0  0  0  0  0  0  0  0  0
   20.5566   -6.0142  -14.0615 O   0  0  0  0  0  0  0  0  0  0  0  0
  2  5  1  0
  2  1  1  1
  3  2  1  0
  4  3  1  0
  5  6  2  0
  7  5  1  0
  7  8  1  0
  8 15  1  0
  8  9  1  1
  9 10  1  0
 10 11  2  0
 11 12  1  0
 13 12  1  0
 14 10  1  0
 14 13  2  0
 15 16  2  0
 17 18  1  0
 17 15  1  0
 18 24  1  0
 18 19  1  6
 20 19  1  0
 21 22  1  0
 21 20  1  0
 23 22  1  0
 24 25  2  0
 24 26  1  0
M  END
$$$$
