CHK.pdb
     RDKit          3D

 26 26  0  0  1  0  0  0  0  0999 V2000
   20.0887  -11.8782  -16.6865 N   0  0  0  0  0  0  0  0  0  0  0  0
   20.3159  -10.4562  -16.5460 C   0  0  1  0  0  0  0  0  0  0  0  0
   20.9229   -9.8948  -17.8194 C   0  0  0  0  0  0  0  0  0  0  0  0
   22.6161  -10.5007  -18.0551 S   0  0  0  0  0  0  0  0  0  0  0  0
   19.0593   -9.7122  -16.3027 C   0  0  0  0  0  0  0  0  0  0  0  0
   17.9611  -10.0426  -16.8536 O   0  0  0  0  0  0  0  0  0  0  0  0
   19.1021   -8.6020  -15.4266 N   0  0  0  0  0  0  0  0  0  0  0  0
   17.8032   -7.9022  -15.0847 C   0  0  1  0  0  0  0  0  0  0  0  0
   17.6308   -8.2099  -13.6207 C   0  0  0  0  0  0  0  0  0  0  0  0
   16.7122   -9.2718  -13.2535 C   0  0  0  0  0  0  0  0  0  0  0  0
   15.9774  -10.1860  -13.9441 C   0  0  0  0  0  0  0  0  0  0  0  0
   15.3209  -11.0248  -13.0940 N   0  0  0  0  0  0  0  0  0  0  0  0
   15.6658  -10.6112  -11.8694 C   0  0  0  0  0  0  0  0  0  0  0  0
   16.4852   -9.5796  -11.9375 N   0  0  0  0  0  0  0  0  0  0  0  0
   18.2049   -6.4725  -15.2139 C   0  0  0  0  0  0  0  0  0  0  0  0
   19.4126   -6.1879  -14.8750 O   0  0  0  0  0  0  0  0  0  0  0  0
   17.4448   -5.4003  -15.6579 N   0  0  0  0  0  0  0  0  0  0  0  0
   18.0398   -4.0453  -15.6653 C   0  0  1  0  0  0  0  0  0  0  0  0
   17.4797   -3.2596  -16.8116 C   0  0  0  0  0  0  0  0  0  0  0  0
   17.9730   -1.8633  -16.8437 C   0  0  0  0  0  0  0  0  0  0  0  0
   17.3556   -1.0297  -17.9411 C   0  0  0  0  0  0  0  0  0  0  0  0
   17.9558    0.3714  -17.8399 C   0  0  0  0  0  0  0  0  0  0  0  0
   17.5073    1.1566  -18.9945 N   0  0  0  0  0  0  0  0  0  0  0  0
   17.7099   -3.4238  -14.3749 C   0  0  0  0  0  0  0  0  0  0  0  0
   18.1795   -2.3156  -14.0577 O   0  0  0  0  0  0  0  0  0  0  0  0
   16.8646   -4.0364  -13.4522 O   0  0  0  0  0  0  0  0  0  0  0  0
  2  5  1  0
  2  1  1  6
  3  2  1  0
  4  3  1  0
  5  6  2  0
  7  5  1  0
  7  8  1  0
  8 15  1  0
  8  9  1  1
  9 10  1  0
 10 11  2  0
 11 12  1  0
 13 12  1  0
 14 10  1  0
 14 13  2  0
 15 16  2  0
 17 18  1  0
 17 15  1  0
 18 24  1  0
 18 19  1  6
 20 19  1  0
 21 22  1  0
 21 20  1  0
 23 22  1  0
 24 25  2  0
 24 26  1  0
M  END
$$$$
