CHK.pdb
     RDKit          3D

 26 26  0  0  1  0  0  0  0  0999 V2000
   21.8544  -13.4115  -17.8594 N   0  0  0  0  0  0  0  0  0  0  0  0
   22.1080  -12.0101  -18.1148 C   0  0  1  0  0  0  0  0  0  0  0  0
   20.8214  -11.3095  -18.5132 C   0  0  0  0  0  0  0  0  0  0  0  0
   19.6104  -11.3561  -17.1640 S   0  0  0  0  0  0  0  0  0  0  0  0
   22.6275  -11.3104  -16.9179 C   0  0  0  0  0  0  0  0  0  0  0  0
   22.3684  -11.7079  -15.7375 O   0  0  0  0  0  0  0  0  0  0  0  0
   23.4357  -10.1658  -17.1145 N   0  0  0  0  0  0  0  0  0  0  0  0
   24.0006   -9.4637  -15.8973 C   0  0  1  0  0  0  0  0  0  0  0  0
   25.4574   -9.3078  -16.2451 C   0  0  0  0  0  0  0  0  0  0  0  0
   26.3262  -10.4556  -16.0611 C   0  0  0  0  0  0  0  0  0  0  0  0
   26.1391  -11.7491  -15.6806 C   0  0  0  0  0  0  0  0  0  0  0  0
   27.3071  -12.4484  -15.7436 N   0  0  0  0  0  0  0  0  0  0  0  0
   28.2147  -11.5631  -16.1703 C   0  0  0  0  0  0  0  0  0  0  0  0
   27.6606  -10.3818  -16.3646 N   0  0  0  0  0  0  0  0  0  0  0  0
   23.3512   -8.1267  -16.0102 C   0  0  0  0  0  0  0  0  0  0  0  0
   22.9800   -7.7721  -17.1896 O   0  0  0  0  0  0  0  0  0  0  0  0
   23.0885   -7.2083  -15.0042 N   0  0  0  0  0  0  0  0  0  0  0  0
   22.3076   -5.9916  -15.3209 C   0  0  1  0  0  0  0  0  0  0  0  0
   20.8642   -6.3548  -15.4927 C   0  0  0  0  0  0  0  0  0  0  0  0
   20.0233   -5.1952  -15.8699 C   0  0  0  0  0  0  0  0  0  0  0  0
   18.5733   -5.5495  -16.0987 C   0  0  0  0  0  0  0  0  0  0  0  0
   17.8668   -4.2841  -16.5814 C   0  0  0  0  0  0  0  0  0  0  0  0
   16.4363   -4.5733  -16.7253 N   0  0  0  0  0  0  0  0  0  0  0  0
   22.4976   -5.0559  -14.2035 C   0  0  0  0  0  0  0  0  0  0  0  0
   22.7426   -5.4690  -13.0552 O   0  0  0  0  0  0  0  0  0  0  0  0
   22.4142   -3.6752  -14.3710 O   0  0  0  0  0  0  0  0  0  0  0  0
  2  5  1  0
  2  1  1  1
  3  2  1  0
  4  3  1  0
  5  6  2  0
  7  5  1  0
  7  8  1  0
  8 15  1  0
  8  9  1  6
  9 10  1  0
 10 11  2  0
 11 12  1  0
 13 12  1  0
 14 10  1  0
 14 13  2  0
 15 16  2  0
 17 18  1  0
 17 15  1  0
 18 24  1  0
 18 19  1  1
 20 19  1  0
 21 22  1  0
 21 20  1  0
 23 22  1  0
 24 25  2  0
 24 26  1  0
M  END
$$$$
