CHK.pdb
     RDKit          3D

 26 26  0  0  1  0  0  0  0  0999 V2000
   22.1513  -15.2191  -17.9731 N   0  0  0  0  0  0  0  0  0  0  0  0
   22.0236  -13.7946  -18.1923 C   0  0  1  0  0  0  0  0  0  0  0  0
   20.5920  -13.4480  -18.5602 C   0  0  0  0  0  0  0  0  0  0  0  0
   20.2064  -13.9837  -20.2495 S   0  0  0  0  0  0  0  0  0  0  0  0
   22.3595  -13.0120  -16.9813 C   0  0  0  0  0  0  0  0  0  0  0  0
   22.1970  -13.4784  -15.8089 O   0  0  0  0  0  0  0  0  0  0  0  0
   22.8762  -11.7062  -17.1548 N   0  0  0  0  0  0  0  0  0  0  0  0
   23.2871  -10.9236  -15.9251 C   0  0  1  0  0  0  0  0  0  0  0  0
   24.7102  -10.5384  -16.2318 C   0  0  0  0  0  0  0  0  0  0  0  0
   25.7491  -11.5195  -15.9784 C   0  0  0  0  0  0  0  0  0  0  0  0
   25.7685  -12.7955  -15.5050 C   0  0  0  0  0  0  0  0  0  0  0  0
   27.0319  -13.3058  -15.5335 N   0  0  0  0  0  0  0  0  0  0  0  0
   27.7881  -12.3220  -16.0335 C   0  0  0  0  0  0  0  0  0  0  0  0
   27.0547  -11.2593  -16.3037 N   0  0  0  0  0  0  0  0  0  0  0  0
   22.4374   -9.7066  -16.0624 C   0  0  0  0  0  0  0  0  0  0  0  0
   22.3131   -9.2303  -17.2508 O   0  0  0  0  0  0  0  0  0  0  0  0
   21.7543   -9.0160  -15.0719 N   0  0  0  0  0  0  0  0  0  0  0  0
   20.9302   -7.8443  -15.4436 C   0  0  1  0  0  0  0  0  0  0  0  0
   19.4877   -8.1396  -15.1664 C   0  0  0  0  0  0  0  0  0  0  0  0
   18.9226   -9.1502  -16.0902 C   0  0  0  0  0  0  0  0  0  0  0  0
   17.4656   -9.4542  -15.8349 C   0  0  0  0  0  0  0  0  0  0  0  0
   17.0324  -10.4986  -16.8621 C   0  0  0  0  0  0  0  0  0  0  0  0
   15.6234  -10.8301  -16.6260 N   0  0  0  0  0  0  0  0  0  0  0  0
   21.4105   -6.7093  -14.6428 C   0  0  0  0  0  0  0  0  0  0  0  0
   22.1569   -6.8860  -13.6624 O   0  0  0  0  0  0  0  0  0  0  0  0
   21.0589   -5.3936  -14.9368 O   0  0  0  0  0  0  0  0  0  0  0  0
  2  5  1  0
  2  1  1  1
  3  2  1  0
  4  3  1  0
  5  6  2  0
  7  5  1  0
  7  8  1  0
  8 15  1  0
  8  9  1  6
  9 10  1  0
 10 11  2  0
 11 12  1  0
 13 12  1  0
 14 10  1  0
 14 13  2  0
 15 16  2  0
 17 18  1  0
 17 15  1  0
 18 24  1  0
 18 19  1  1
 20 19  1  0
 21 22  1  0
 21 20  1  0
 23 22  1  0
 24 25  2  0
 24 26  1  0
M  END
$$$$
