LDG.pdb
     RDKit          3D

 21 20  0  0  1  0  0  0  0  0999 V2000
   18.7451  -11.5833  -18.2477 C   0  0  0  0  0  0  0  0  0  0  0  0
   17.5034  -11.0064  -17.6156 C   0  0  2  0  0  0  0  0  0  0  0  0
   16.5456  -10.6517  -18.7200 C   0  0  0  0  0  0  0  0  0  0  0  0
   17.7943   -9.7828  -16.7940 C   0  0  0  0  0  0  0  0  0  0  0  0
   18.7292  -10.0693  -15.6670 C   0  0  2  0  0  0  0  0  0  0  0  0
   18.1902  -11.0415  -14.7795 N   0  0  0  0  0  0  0  0  0  0  0  0
   19.0448   -8.7952  -14.9258 C   0  0  0  0  0  0  0  0  0  0  0  0
   18.2970   -8.5371  -13.9721 O   0  0  0  0  0  0  0  0  0  0  0  0
   20.1205   -7.9995  -15.3322 N   0  0  0  0  0  0  0  0  0  0  0  0
   20.5181   -6.7646  -14.7578 C   0  0  1  0  0  0  0  0  0  0  0  0
   21.9486   -6.7605  -14.2918 C   0  0  0  0  0  0  0  0  0  0  0  0
   22.3027   -5.5078  -13.6196 C   0  0  0  0  0  0  0  0  0  0  0  0
   21.9458   -5.3513  -12.4146 O   0  0  0  0  0  0  0  0  0  0  0  0
   20.1568   -5.6457  -15.6229 C   0  0  0  0  0  0  0  0  0  0  0  0
   20.6690   -5.5961  -16.7926 O   0  0  0  0  0  0  0  0  0  0  0  0
   23.0139   -4.4685  -14.2190 O   0  0  0  0  0  0  0  0  0  0  0  0
   19.2696   -4.6005  -15.2525 N   0  0  0  0  0  0  0  0  0  0  0  0
   19.0168   -3.5420  -16.1865 C   0  0  0  0  0  0  0  0  0  0  0  0
   19.3486   -2.2282  -15.5834 C   0  0  0  0  0  0  0  0  0  0  0  0
   19.0152   -1.1448  -16.1012 O   0  0  0  0  0  0  0  0  0  0  0  0
   20.0586   -2.1915  -14.3959 O   0  0  0  0  0  0  0  0  0  0  0  0
  2  3  1  6
  2  1  1  0
  4  2  1  0
  5  4  1  0
  5  6  1  1
  7  5  1  0
  7  9  1  0
  8  7  2  0
 10 14  1  0
 10  9  1  0
 10 11  1  6
 12 11  1  0
 12 16  1  0
 13 12  2  0
 14 17  1  0
 15 14  2  0
 17 18  1  0
 19 18  1  0
 20 19  2  0
 21 19  1  0
M  END
$$$$
