LDG.pdb
     RDKit          3D

 21 20  0  0  1  0  0  0  0  0999 V2000
   13.7514   -6.4744   -9.8728 C   0  0  0  0  0  0  0  0  0  0  0  0
   14.6747   -7.1021   -8.8590 C   0  0  2  0  0  0  0  0  0  0  0  0
   14.6446   -6.2516   -7.6186 C   0  0  0  0  0  0  0  0  0  0  0  0
   16.0875   -7.2074   -9.3587 C   0  0  0  0  0  0  0  0  0  0  0  0
   16.2037   -8.1200  -10.5335 C   0  0  2  0  0  0  0  0  0  0  0  0
   15.8970   -9.4633  -10.1799 N   0  0  0  0  0  0  0  0  0  0  0  0
   17.5909   -8.0311  -11.1167 C   0  0  0  0  0  0  0  0  0  0  0  0
   18.4210   -8.8136  -10.6330 O   0  0  0  0  0  0  0  0  0  0  0  0
   17.8631   -7.1096  -12.1327 N   0  0  0  0  0  0  0  0  0  0  0  0
   19.0835   -6.9771  -12.8439 C   0  0  1  0  0  0  0  0  0  0  0  0
   19.6298   -8.2904  -13.3344 C   0  0  0  0  0  0  0  0  0  0  0  0
   20.9489   -8.1387  -13.9535 C   0  0  0  0  0  0  0  0  0  0  0  0
   21.1488   -8.6796  -15.0810 O   0  0  0  0  0  0  0  0  0  0  0  0
   18.9824   -5.9403  -13.8664 C   0  0  0  0  0  0  0  0  0  0  0  0
   18.1941   -6.1386  -14.8524 O   0  0  0  0  0  0  0  0  0  0  0  0
   22.0074   -7.4315  -13.3835 O   0  0  0  0  0  0  0  0  0  0  0  0
   19.7045   -4.7177  -13.8419 N   0  0  0  0  0  0  0  0  0  0  0  0
   19.4690   -3.7525  -14.8762 C   0  0  0  0  0  0  0  0  0  0  0  0
   20.3054   -2.5467  -14.6603 C   0  0  0  0  0  0  0  0  0  0  0  0
   21.0321   -2.4005  -13.6586 O   0  0  0  0  0  0  0  0  0  0  0  0
   20.2855   -1.5347  -15.6042 O   0  0  0  0  0  0  0  0  0  0  0  0
  2  3  1  1
  2  1  1  0
  4  2  1  0
  5  4  1  0
  5  6  1  1
  7  5  1  0
  7  9  1  0
  8  7  2  0
 10 14  1  0
 10  9  1  0
 10 11  1  6
 12 11  1  0
 12 16  1  0
 13 12  2  0
 14 17  1  0
 15 14  2  0
 17 18  1  0
 19 18  1  0
 20 19  2  0
 21 19  1  0
M  END
$$$$
