LDG.pdb
     RDKit          3D

 21 20  0  0  1  0  0  0  0  0999 V2000
   27.6943  -20.0725   -4.4687 C   0  0  0  0  0  0  0  0  0  0  0  0
   28.5069  -19.6367   -5.6620 C   0  0  2  0  0  0  0  0  0  0  0  0
   29.3321  -18.4486   -5.2492 C   0  0  0  0  0  0  0  0  0  0  0  0
   27.6466  -19.2641   -6.8358 C   0  0  0  0  0  0  0  0  0  0  0  0
   26.9620  -20.4485   -7.4318 C   0  0  2  0  0  0  0  0  0  0  0  0
   27.8629  -21.5353   -7.6068 N   0  0  0  0  0  0  0  0  0  0  0  0
   26.3315  -20.0683   -8.7471 C   0  0  0  0  0  0  0  0  0  0  0  0
   25.8372  -18.9329   -8.7901 O   0  0  0  0  0  0  0  0  0  0  0  0
   26.3345  -20.9761   -9.8108 N   0  0  0  0  0  0  0  0  0  0  0  0
   25.9224  -20.7133  -11.1427 C   0  0  1  0  0  0  0  0  0  0  0  0
   26.7828  -21.3906  -12.1745 C   0  0  0  0  0  0  0  0  0  0  0  0
   26.5066  -20.8995  -13.5268 C   0  0  0  0  0  0  0  0  0  0  0  0
   26.1664  -19.6878  -13.6678 O   0  0  0  0  0  0  0  0  0  0  0  0
   24.4893  -20.9415  -11.3008 C   0  0  0  0  0  0  0  0  0  0  0  0
   24.0208  -22.0867  -10.9817 O   0  0  0  0  0  0  0  0  0  0  0  0
   26.5960  -21.6799  -14.6794 O   0  0  0  0  0  0  0  0  0  0  0  0
   23.5727  -19.9725  -11.7883 N   0  0  0  0  0  0  0  0  0  0  0  0
   22.5743  -20.3772  -12.7351 C   0  0  0  0  0  0  0  0  0  0  0  0
   21.2982  -20.6835  -12.0438 C   0  0  0  0  0  0  0  0  0  0  0  0
   21.2521  -21.1860  -10.9044 O   0  0  0  0  0  0  0  0  0  0  0  0
   20.1021  -20.4044  -12.6818 O   0  0  0  0  0  0  0  0  0  0  0  0
  2  3  1  1
  2  1  1  0
  4  2  1  0
  5  4  1  0
  5  6  1  6
  7  5  1  0
  7  9  1  0
  8  7  2  0
 10 14  1  0
 10  9  1  0
 10 11  1  6
 12 11  1  0
 12 16  1  0
 13 12  2  0
 14 17  1  0
 15 14  2  0
 17 18  1  0
 19 18  1  0
 20 19  2  0
 21 19  1  0
M  END
$$$$
