LDG.pdb
     RDKit          3D

 21 20  0  0  1  0  0  0  0  0999 V2000
   26.0572  -15.1608  -16.3306 C   0  0  0  0  0  0  0  0  0  0  0  0
   26.9032  -13.9173  -16.4413 C   0  0  2  0  0  0  0  0  0  0  0  0
   28.1932  -14.1703  -15.7097 C   0  0  0  0  0  0  0  0  0  0  0  0
   26.2262  -12.7099  -15.8578 C   0  0  0  0  0  0  0  0  0  0  0  0
   24.9415  -12.3949  -16.5482 C   0  0  2  0  0  0  0  0  0  0  0  0
   25.0702  -12.5060  -17.9605 N   0  0  0  0  0  0  0  0  0  0  0  0
   24.4804  -11.0112  -16.1674 C   0  0  0  0  0  0  0  0  0  0  0  0
   24.4807  -10.7675  -14.9525 O   0  0  0  0  0  0  0  0  0  0  0  0
   24.0912  -10.1071  -17.1607 N   0  0  0  0  0  0  0  0  0  0  0  0
   23.6588   -8.7708  -16.9599 C   0  0  1  0  0  0  0  0  0  0  0  0
   24.0637   -7.8428  -18.0727 C   0  0  0  0  0  0  0  0  0  0  0  0
   23.7059   -6.4517  -17.7842 C   0  0  0  0  0  0  0  0  0  0  0  0
   22.7250   -5.9433  -18.4031 O   0  0  0  0  0  0  0  0  0  0  0  0
   22.2408   -8.7267  -16.6164 C   0  0  0  0  0  0  0  0  0  0  0  0
   21.4395   -9.4879  -17.2579 O   0  0  0  0  0  0  0  0  0  0  0  0
   24.3746   -5.6431  -16.8653 O   0  0  0  0  0  0  0  0  0  0  0  0
   21.6854   -7.8904  -15.6120 N   0  0  0  0  0  0  0  0  0  0  0  0
   20.2752   -7.9539  -15.3586 C   0  0  0  0  0  0  0  0  0  0  0  0
   19.6155   -6.6941  -15.7799 C   0  0  0  0  0  0  0  0  0  0  0  0
   19.3918   -5.7539  -14.9931 O   0  0  0  0  0  0  0  0  0  0  0  0
   19.2270   -6.5453  -17.1000 O   0  0  0  0  0  0  0  0  0  0  0  0
  2  3  1  1
  2  1  1  0
  4  2  1  0
  5  4  1  0
  5  6  1  6
  7  5  1  0
  7  9  1  0
  8  7  2  0
 10 14  1  0
 10  9  1  0
 10 11  1  6
 12 11  1  0
 12 16  1  0
 13 12  2  0
 14 17  1  0
 15 14  2  0
 17 18  1  0
 19 18  1  0
 20 19  2  0
 21 19  1  0
M  END
$$$$
