LDG.pdb
     RDKit          3D

 21 20  0  0  1  0  0  0  0  0999 V2000
   25.4508  -13.3389  -18.3047 C   0  0  0  0  0  0  0  0  0  0  0  0
   23.9716  -13.3578  -18.5975 C   0  0  2  0  0  0  0  0  0  0  0  0
   23.7354  -14.3342  -19.7173 C   0  0  0  0  0  0  0  0  0  0  0  0
   23.4488  -12.0064  -18.9941 C   0  0  0  0  0  0  0  0  0  0  0  0
   23.6822  -10.9791  -17.9374 C   0  0  2  0  0  0  0  0  0  0  0  0
   23.5464  -11.5339  -16.6346 N   0  0  0  0  0  0  0  0  0  0  0  0
   22.7281   -9.8269  -18.1226 C   0  0  0  0  0  0  0  0  0  0  0  0
   22.8235   -9.2274  -19.2028 O   0  0  0  0  0  0  0  0  0  0  0  0
   21.8195   -9.5034  -17.1101 N   0  0  0  0  0  0  0  0  0  0  0  0
   20.8333   -8.4846  -17.1582 C   0  0  1  0  0  0  0  0  0  0  0  0
   19.4756   -8.9516  -16.7086 C   0  0  0  0  0  0  0  0  0  0  0  0
   18.9918  -10.0805  -17.5072 C   0  0  0  0  0  0  0  0  0  0  0  0
   19.0164   -9.9775  -18.7692 O   0  0  0  0  0  0  0  0  0  0  0  0
   21.3061   -7.2686  -16.5035 C   0  0  0  0  0  0  0  0  0  0  0  0
   20.5983   -6.2102  -16.6105 O   0  0  0  0  0  0  0  0  0  0  0  0
   18.5048  -11.2716  -16.9693 O   0  0  0  0  0  0  0  0  0  0  0  0
   22.5069   -7.1792  -15.7506 N   0  0  0  0  0  0  0  0  0  0  0  0
   22.9137   -5.9008  -15.2434 C   0  0  0  0  0  0  0  0  0  0  0  0
   22.2651   -5.6311  -13.9371 C   0  0  0  0  0  0  0  0  0  0  0  0
   21.4192   -6.3952  -13.4334 O   0  0  0  0  0  0  0  0  0  0  0  0
   22.6053   -4.4852  -13.2393 O   0  0  0  0  0  0  0  0  0  0  0  0
  2  3  1  6
  2  1  1  0
  4  2  1  0
  5  4  1  0
  5  6  1  1
  7  5  1  0
  7  9  1  0
  8  7  2  0
 10 14  1  0
 10  9  1  0
 10 11  1  1
 12 11  1  0
 12 16  1  0
 13 12  2  0
 14 17  1  0
 15 14  2  0
 17 18  1  0
 19 18  1  0
 20 19  2  0
 21 19  1  0
M  END
$$$$
