LDG.pdb
     RDKit          3D

 21 20  0  0  1  0  0  0  0  0999 V2000
   17.8472  -11.2849  -16.4253 C   0  0  0  0  0  0  0  0  0  0  0  0
   19.0027  -11.1719  -15.4629 C   0  0  2  0  0  0  0  0  0  0  0  0
   18.7397  -12.1070  -14.3143 C   0  0  0  0  0  0  0  0  0  0  0  0
   19.1782   -9.7746  -14.9399 C   0  0  0  0  0  0  0  0  0  0  0  0
   19.3525   -8.7792  -16.0377 C   0  0  2  0  0  0  0  0  0  0  0  0
   20.5341   -9.0344  -16.7874 N   0  0  0  0  0  0  0  0  0  0  0  0
   19.3809   -7.3847  -15.4659 C   0  0  0  0  0  0  0  0  0  0  0  0
   18.4617   -7.1147  -14.6800 O   0  0  0  0  0  0  0  0  0  0  0  0
   20.3998   -6.5003  -15.8335 N   0  0  0  0  0  0  0  0  0  0  0  0
   20.5904   -5.1839  -15.3397 C   0  0  1  0  0  0  0  0  0  0  0  0
   21.9448   -4.9735  -14.7191 C   0  0  0  0  0  0  0  0  0  0  0  0
   22.0796   -5.6821  -13.4439 C   0  0  0  0  0  0  0  0  0  0  0  0
   22.8081   -6.7173  -13.4064 O   0  0  0  0  0  0  0  0  0  0  0  0
   20.2202   -4.1909  -16.3434 C   0  0  0  0  0  0  0  0  0  0  0  0
   20.5879   -4.3863  -17.5515 O   0  0  0  0  0  0  0  0  0  0  0  0
   21.4584   -5.2903  -12.2582 O   0  0  0  0  0  0  0  0  0  0  0  0
   19.4746   -3.0138  -16.0689 N   0  0  0  0  0  0  0  0  0  0  0  0
   19.0928   -2.1646  -17.1598 C   0  0  0  0  0  0  0  0  0  0  0  0
   18.4073   -0.9497  -16.6558 C   0  0  0  0  0  0  0  0  0  0  0  0
   18.1496   -0.7720  -15.4496 O   0  0  0  0  0  0  0  0  0  0  0  0
   18.0326    0.0345  -17.5540 O   0  0  0  0  0  0  0  0  0  0  0  0
  2  3  1  1
  2  1  1  0
  4  2  1  0
  5  4  1  0
  5  6  1  1
  7  5  1  0
  7  9  1  0
  8  7  2  0
 10 14  1  0
 10  9  1  0
 10 11  1  6
 12 11  1  0
 12 16  1  0
 13 12  2  0
 14 17  1  0
 15 14  2  0
 17 18  1  0
 19 18  1  0
 20 19  2  0
 21 19  1  0
M  END
$$$$
