LDG.pdb
     RDKit          3D

 21 20  0  0  1  0  0  0  0  0999 V2000
   17.9271  -13.6222  -15.4032 C   0  0  0  0  0  0  0  0  0  0  0  0
   18.5548  -13.2118  -16.7115 C   0  0  2  0  0  0  0  0  0  0  0  0
   18.9969  -14.4612  -17.4231 C   0  0  0  0  0  0  0  0  0  0  0  0
   19.7343  -12.3013  -16.5205 C   0  0  0  0  0  0  0  0  0  0  0  0
   19.3730  -11.0582  -15.7786 C   0  0  2  0  0  0  0  0  0  0  0  0
   18.2700  -10.3944  -16.3837 N   0  0  0  0  0  0  0  0  0  0  0  0
   20.5660  -10.1398  -15.7048 C   0  0  0  0  0  0  0  0  0  0  0  0
   21.5934  -10.6420  -15.2276 O   0  0  0  0  0  0  0  0  0  0  0  0
   20.4612   -8.8216  -16.1594 N   0  0  0  0  0  0  0  0  0  0  0  0
   21.5198   -7.8838  -16.2728 C   0  0  1  0  0  0  0  0  0  0  0  0
   21.6673   -7.3208  -17.6603 C   0  0  0  0  0  0  0  0  0  0  0  0
   21.9426   -8.3657  -18.6496 C   0  0  0  0  0  0  0  0  0  0  0  0
   22.9385   -9.1247  -18.4600 O   0  0  0  0  0  0  0  0  0  0  0  0
   21.4455   -6.8815  -15.2143 C   0  0  0  0  0  0  0  0  0  0  0  0
   20.2931   -6.4490  -14.8712 O   0  0  0  0  0  0  0  0  0  0  0  0
   21.1757   -8.5859  -19.7936 O   0  0  0  0  0  0  0  0  0  0  0  0
   22.5729   -6.3492  -14.5343 N   0  0  0  0  0  0  0  0  0  0  0  0
   22.3603   -5.4493  -13.4381 C   0  0  0  0  0  0  0  0  0  0  0  0
   21.9478   -4.1143  -13.9356 C   0  0  0  0  0  0  0  0  0  0  0  0
   21.7494   -3.8761  -15.1426 O   0  0  0  0  0  0  0  0  0  0  0  0
   21.7733   -3.0819  -13.0305 O   0  0  0  0  0  0  0  0  0  0  0  0
  2  3  1  1
  2  1  1  0
  4  2  1  0
  5  4  1  0
  5  6  1  6
  7  5  1  0
  7  9  1  0
  8  7  2  0
 10 14  1  0
 10  9  1  0
 10 11  1  6
 12 11  1  0
 12 16  1  0
 13 12  2  0
 14 17  1  0
 15 14  2  0
 17 18  1  0
 19 18  1  0
 20 19  2  0
 21 19  1  0
M  END
$$$$
