LDG.pdb
     RDKit          3D

 21 20  0  0  1  0  0  0  0  0999 V2000
   18.2994  -15.2096  -16.0076 C   0  0  0  0  0  0  0  0  0  0  0  0
   17.8958  -14.0594  -16.8955 C   0  0  2  0  0  0  0  0  0  0  0  0
   17.7835  -14.5801  -18.3024 C   0  0  0  0  0  0  0  0  0  0  0  0
   18.8870  -12.9312  -16.8577 C   0  0  0  0  0  0  0  0  0  0  0  0
   18.7139  -12.0686  -15.6525 C   0  0  2  0  0  0  0  0  0  0  0  0
   17.3471  -11.9811  -15.2684 N   0  0  0  0  0  0  0  0  0  0  0  0
   19.2762  -10.6957  -15.9194 C   0  0  0  0  0  0  0  0  0  0  0  0
   20.4470  -10.6714  -16.3246 O   0  0  0  0  0  0  0  0  0  0  0  0
   18.4837   -9.5634  -15.7066 N   0  0  0  0  0  0  0  0  0  0  0  0
   18.8412   -8.2202  -15.9914 C   0  0  1  0  0  0  0  0  0  0  0  0
   17.7133   -7.4187  -16.5822 C   0  0  0  0  0  0  0  0  0  0  0  0
   18.1350   -6.0634  -16.9449 C   0  0  0  0  0  0  0  0  0  0  0  0
   18.7186   -5.8933  -18.0559 O   0  0  0  0  0  0  0  0  0  0  0  0
   19.4929   -7.5985  -14.8427 C   0  0  0  0  0  0  0  0  0  0  0  0
   19.0894   -7.9174  -13.6730 O   0  0  0  0  0  0  0  0  0  0  0  0
   17.9340   -4.9380  -16.1459 O   0  0  0  0  0  0  0  0  0  0  0  0
   20.5517   -6.6566  -14.9352 N   0  0  0  0  0  0  0  0  0  0  0  0
   21.0986   -6.1074  -13.7285 C   0  0  0  0  0  0  0  0  0  0  0  0
   22.2753   -5.2572  -14.0325 C   0  0  0  0  0  0  0  0  0  0  0  0
   22.6729   -5.0464  -15.1946 O   0  0  0  0  0  0  0  0  0  0  0  0
   22.9690   -4.6684  -12.9896 O   0  0  0  0  0  0  0  0  0  0  0  0
  2  3  1  6
  2  1  1  0
  4  2  1  0
  5  4  1  0
  5  6  1  6
  7  5  1  0
  7  9  1  0
  8  7  2  0
 10 14  1  0
 10  9  1  0
 10 11  1  1
 12 11  1  0
 12 16  1  0
 13 12  2  0
 14 17  1  0
 15 14  2  0
 17 18  1  0
 19 18  1  0
 20 19  2  0
 21 19  1  0
M  END
$$$$
