LDG.pdb
     RDKit          3D

 21 20  0  0  1  0  0  0  0  0999 V2000
   29.0769  -18.3487   -4.9647 C   0  0  0  0  0  0  0  0  0  0  0  0
   28.1227  -19.5161   -4.9900 C   0  0  2  0  0  0  0  0  0  0  0  0
   28.5329  -20.4710   -3.9023 C   0  0  0  0  0  0  0  0  0  0  0  0
   28.1272  -20.2314   -6.3110 C   0  0  0  0  0  0  0  0  0  0  0  0
   27.7927  -19.3221   -7.4458 C   0  0  2  0  0  0  0  0  0  0  0  0
   26.6825  -18.4892   -7.1340 N   0  0  0  0  0  0  0  0  0  0  0  0
   27.5134  -20.1315   -8.6864 C   0  0  0  0  0  0  0  0  0  0  0  0
   28.3889  -20.9535   -8.9918 O   0  0  0  0  0  0  0  0  0  0  0  0
   26.3302  -19.9253   -9.4026 N   0  0  0  0  0  0  0  0  0  0  0  0
   26.0006  -20.4873  -10.6630 C   0  0  1  0  0  0  0  0  0  0  0  0
   25.4552  -21.8860  -10.5644 C   0  0  0  0  0  0  0  0  0  0  0  0
   25.0835  -22.4234  -11.8757 C   0  0  0  0  0  0  0  0  0  0  0  0
   25.9802  -22.5080  -12.7660 O   0  0  0  0  0  0  0  0  0  0  0  0
   25.1804  -19.5683  -11.4462 C   0  0  0  0  0  0  0  0  0  0  0  0
   24.1361  -19.0746  -10.8999 O   0  0  0  0  0  0  0  0  0  0  0  0
   23.8006  -22.8542  -12.2131 O   0  0  0  0  0  0  0  0  0  0  0  0
   25.4640  -19.1820  -12.7831 N   0  0  0  0  0  0  0  0  0  0  0  0
   24.5603  -18.2937  -13.4547 C   0  0  0  0  0  0  0  0  0  0  0  0
   23.3711  -19.0345  -13.9414 C   0  0  0  0  0  0  0  0  0  0  0  0
   23.4508  -19.9898  -14.7377 O   0  0  0  0  0  0  0  0  0  0  0  0
   22.1147  -18.6574  -13.5000 O   0  0  0  0  0  0  0  0  0  0  0  0
  2  3  1  1
  2  1  1  0
  4  2  1  0
  5  4  1  0
  5  6  1  1
  7  5  1  0
  7  9  1  0
  8  7  2  0
 10 14  1  0
 10  9  1  0
 10 11  1  1
 12 11  1  0
 12 16  1  0
 13 12  2  0
 14 17  1  0
 15 14  2  0
 17 18  1  0
 19 18  1  0
 20 19  2  0
 21 19  1  0
M  END
$$$$
