RAE.pdb
     RDKit          3D

 26 25  0  0  1  0  0  0  0  0999 V2000
    9.1457  -13.2517   18.3902 N   0  0  0  0  0  0  0  0  0  0  0  0
    8.7570  -14.1054   17.3295 C   0  0  0  0  0  0  0  0  0  0  0  0
    8.5956  -13.6513   16.1410 N   0  0  0  0  0  0  0  0  0  0  0  0
    8.5437  -15.4999   17.6079 N   0  0  0  0  0  0  0  0  0  0  0  0
    8.4968  -15.9662   18.9753 C   0  0  0  0  0  0  0  0  0  0  0  0
    7.7876  -15.0736   19.9168 C   0  0  0  0  0  0  0  0  0  0  0  0
    7.6674  -15.4993   21.3420 C   0  0  0  0  0  0  0  0  0  0  0  0
    6.9211  -14.6121   22.2618 C   0  0  2  0  0  0  0  0  0  0  0  0
    6.4387  -13.4514   21.4853 N   0  0  0  0  0  0  0  0  0  0  0  0
    7.6326  -14.0707   23.4233 C   0  0  0  0  0  0  0  0  0  0  0  0
    8.8884  -13.9161   23.3902 O   0  0  0  0  0  0  0  0  0  0  0  0
    8.3178  -14.1832   15.3108 C   0  0  0  0  0  0  0  0  0  0  0  0
    6.9481  -12.4115   26.7546 C   0  0  2  0  0  0  0  0  0  0  0  0
    7.8173  -13.2301   25.7900 N   0  0  0  0  0  0  0  0  0  0  0  0
    7.0141  -13.6811   24.6589 C   0  0  0  0  0  0  0  0  0  0  0  0
    8.2261  -14.4344   26.5546 O   0  0  0  0  0  0  0  0  0  0  0  0
    7.5398  -15.4815   26.4819 N   0  0  0  0  0  0  0  0  0  0  0  0
    9.3637  -14.4703   27.3738 C   0  0  1  0  0  0  0  0  0  0  0  0
   10.0106  -15.7176   27.8303 C   0  0  0  0  0  0  0  0  0  0  0  0
   10.9606  -16.1172   26.7728 C   0  0  0  0  0  0  0  0  0  0  0  0
   11.7526  -17.3267   27.0684 C   0  0  0  0  0  0  0  0  0  0  0  0
   12.5525  -17.7418   25.9009 O   0  0  0  0  0  0  0  0  0  0  0  0
   12.0591  -17.5672   24.7548 C   0  0  0  0  0  0  0  0  0  0  0  0
   10.4356  -15.5059   29.1925 O   0  0  0  0  0  0  0  0  0  0  0  0
   10.5282  -14.3322   29.7015 O   0  0  0  0  0  0  0  0  0  0  0  0
   13.8342  -18.3133   26.0232 O   0  0  0  0  0  0  0  0  0  0  0  0
  2  1  1  0
  3  2  2  0
  4  2  1  0
  5  4  1  0
  6  5  1  0
  7  6  1  0
  8 10  1  0
  8  7  1  0
  8  9  1  6
 10 14  1  0
 11 10  2  0
 13 12  1  6
 14 13  1  0
 15 17  1  0
 15 13  1  0
 16 15  2  0
 18 17  1  0
 18 19  1  1
 19 20  1  0
 20 21  1  0
 21 25  1  0
 22 21  2  0
 23 18  1  0
 24 23  2  0
 26 23  1  0
M  END
$$$$
