RAE.pdb
     RDKit          3D

 26 25  0  0  1  0  0  0  0  0999 V2000
    8.5828  -15.6202   15.9576 N   0  0  0  0  0  0  0  0  0  0  0  0
    7.8744  -14.3996   16.0719 C   0  0  0  0  0  0  0  0  0  0  0  0
    8.3519  -13.3108   15.5909 N   0  0  0  0  0  0  0  0  0  0  0  0
    6.6018  -14.3996   16.7414 N   0  0  0  0  0  0  0  0  0  0  0  0
    6.5435  -14.4397   18.1851 C   0  0  0  0  0  0  0  0  0  0  0  0
    7.3952  -15.4697   18.8175 C   0  0  0  0  0  0  0  0  0  0  0  0
    7.9077  -15.2161   20.1958 C   0  0  0  0  0  0  0  0  0  0  0  0
    7.4619  -13.9798   20.8763 C   0  0  2  0  0  0  0  0  0  0  0  0
    7.9361  -12.8264   20.0842 N   0  0  0  0  0  0  0  0  0  0  0  0
    7.9097  -13.7531   22.2534 C   0  0  0  0  0  0  0  0  0  0  0  0
    9.1444  -13.6711   22.5200 O   0  0  0  0  0  0  0  0  0  0  0  0
    7.9138  -12.3850   15.6091 C   0  0  0  0  0  0  0  0  0  0  0  0
    6.4410  -13.3504   25.7501 C   0  0  2  0  0  0  0  0  0  0  0  0
    7.5813  -13.5474   24.7417 N   0  0  0  0  0  0  0  0  0  0  0  0
    7.0417  -13.6102   23.3879 C   0  0  0  0  0  0  0  0  0  0  0  0
    8.1570  -14.8789   25.0543 O   0  0  0  0  0  0  0  0  0  0  0  0
    7.5692  -15.9178   24.6699 N   0  0  0  0  0  0  0  0  0  0  0  0
    9.3500  -15.0467   25.7719 C   0  0  1  0  0  0  0  0  0  0  0  0
    9.9919  -16.3564   26.0075 C   0  0  0  0  0  0  0  0  0  0  0  0
   11.3107  -16.3104   25.3448 C   0  0  0  0  0  0  0  0  0  0  0  0
   12.1836  -17.4705   25.6084 C   0  0  0  0  0  0  0  0  0  0  0  0
   13.4956  -17.3137   24.9532 O   0  0  0  0  0  0  0  0  0  0  0  0
   13.6969  -17.9382   23.8777 C   0  0  0  0  0  0  0  0  0  0  0  0
    9.8582  -16.6522   27.4130 O   0  0  0  0  0  0  0  0  0  0  0  0
    9.5020  -15.7618   28.2646 O   0  0  0  0  0  0  0  0  0  0  0  0
   14.5142  -16.4954   25.4798 O   0  0  0  0  0  0  0  0  0  0  0  0
  2  1  1  0
  3  2  2  0
  4  2  1  0
  5  4  1  0
  6  5  1  0
  7  6  1  0
  8 10  1  0
  8  7  1  0
  8  9  1  6
 10 14  1  0
 11 10  2  0
 13 12  1  6
 14 13  1  0
 15 17  1  0
 15 13  1  0
 16 15  2  0
 18 17  1  0
 18 19  1  1
 19 20  1  0
 20 21  1  0
 21 25  1  0
 22 21  2  0
 23 18  1  0
 24 23  2  0
 26 23  1  0
M  END
$$$$
