RAE.pdb
     RDKit          3D

 26 25  0  0  1  0  0  0  0  0999 V2000
    9.5092  -13.7108   16.1202 N   0  0  0  0  0  0  0  0  0  0  0  0
    8.1258  -13.7719   15.8243 C   0  0  0  0  0  0  0  0  0  0  0  0
    7.6419  -13.1707   14.8000 N   0  0  0  0  0  0  0  0  0  0  0  0
    7.2653  -14.5237   16.6973 N   0  0  0  0  0  0  0  0  0  0  0  0
    7.3787  -14.3738   18.1304 C   0  0  0  0  0  0  0  0  0  0  0  0
    8.5189  -13.5495   18.5852 C   0  0  0  0  0  0  0  0  0  0  0  0
    8.7118  -13.3555   20.0521 C   0  0  0  0  0  0  0  0  0  0  0  0
    8.8384  -14.5667   20.8929 C   0  0  2  0  0  0  0  0  0  0  0  0
    7.7262  -15.4775   20.5519 N   0  0  0  0  0  0  0  0  0  0  0  0
    8.8096  -14.3993   22.3488 C   0  0  0  0  0  0  0  0  0  0  0  0
    9.6246  -13.6169   22.9197 O   0  0  0  0  0  0  0  0  0  0  0  0
    6.6653  -13.1693   14.4910 C   0  0  0  0  0  0  0  0  0  0  0  0
    6.5463  -14.7292   25.2488 C   0  0  2  0  0  0  0  0  0  0  0  0
    7.9656  -14.8534   24.6776 N   0  0  0  0  0  0  0  0  0  0  0  0
    7.9035  -15.0714   23.2366 C   0  0  0  0  0  0  0  0  0  0  0  0
    8.5299  -16.0815   25.2902 O   0  0  0  0  0  0  0  0  0  0  0  0
    7.8943  -17.1605   25.2225 N   0  0  0  0  0  0  0  0  0  0  0  0
    9.7635  -16.1061   25.9566 C   0  0  1  0  0  0  0  0  0  0  0  0
   10.3499  -17.3210   26.5591 C   0  0  0  0  0  0  0  0  0  0  0  0
   11.7521  -17.3899   26.1013 C   0  0  0  0  0  0  0  0  0  0  0  0
   11.9325  -17.3846   24.6368 C   0  0  0  0  0  0  0  0  0  0  0  0
   13.3605  -17.4434   24.2727 O   0  0  0  0  0  0  0  0  0  0  0  0
   14.2103  -17.3395   25.1970 C   0  0  0  0  0  0  0  0  0  0  0  0
   10.0082  -17.3117   27.9605 O   0  0  0  0  0  0  0  0  0  0  0  0
    9.4587  -16.2968   28.5200 O   0  0  0  0  0  0  0  0  0  0  0  0
   13.7991  -17.6159   22.9451 O   0  0  0  0  0  0  0  0  0  0  0  0
  2  1  1  0
  3  2  2  0
  4  2  1  0
  5  4  1  0
  6  5  1  0
  7  6  1  0
  8 10  1  0
  8  7  1  0
  8  9  1  6
 10 14  1  0
 11 10  2  0
 13 12  1  6
 14 13  1  0
 15 17  1  0
 15 13  1  0
 16 15  2  0
 18 17  1  0
 18 19  1  1
 19 20  1  0
 20 21  1  0
 21 25  1  0
 22 21  2  0
 23 18  1  0
 24 23  2  0
 26 23  1  0
M  END
$$$$
