RAE.pdb
     RDKit          3D

 26 25  0  0  1  0  0  0  0  0999 V2000
   11.3410  -17.8821   12.7468 N   0  0  0  0  0  0  0  0  0  0  0  0
   10.1752  -17.6234   11.9858 C   0  0  0  0  0  0  0  0  0  0  0  0
    9.9678  -18.2217   10.8706 N   0  0  0  0  0  0  0  0  0  0  0  0
    9.2207  -16.6717   12.4865 N   0  0  0  0  0  0  0  0  0  0  0  0
    9.4790  -15.9696   13.7233 C   0  0  0  0  0  0  0  0  0  0  0  0
    9.0129  -16.6609   14.9444 C   0  0  0  0  0  0  0  0  0  0  0  0
    9.3992  -16.0947   16.2698 C   0  0  0  0  0  0  0  0  0  0  0  0
    8.4989  -15.0869   16.8733 C   0  0  2  0  0  0  0  0  0  0  0  0
    8.4470  -13.9206   15.9678 N   0  0  0  0  0  0  0  0  0  0  0  0
    8.8387  -14.5691   18.2018 C   0  0  0  0  0  0  0  0  0  0  0  0
   10.0000  -14.1246   18.4382 O   0  0  0  0  0  0  0  0  0  0  0  0
    9.1726  -18.0885   10.2387 C   0  0  0  0  0  0  0  0  0  0  0  0
    7.1802  -13.6359   21.4773 C   0  0  2  0  0  0  0  0  0  0  0  0
    8.3891  -14.0413   20.6228 N   0  0  0  0  0  0  0  0  0  0  0  0
    7.9389  -14.5163   19.3192 C   0  0  0  0  0  0  0  0  0  0  0  0
    9.0016  -15.1933   21.3297 O   0  0  0  0  0  0  0  0  0  0  0  0
    8.6143  -16.3585   21.0748 N   0  0  0  0  0  0  0  0  0  0  0  0
   10.0139  -15.0509   22.2896 C   0  0  1  0  0  0  0  0  0  0  0  0
   10.5886  -16.1774   23.0535 C   0  0  0  0  0  0  0  0  0  0  0  0
   12.0526  -15.9842   23.0619 C   0  0  0  0  0  0  0  0  0  0  0  0
   12.7309  -16.2913   21.7879 C   0  0  0  0  0  0  0  0  0  0  0  0
   14.1707  -15.9794   21.8588 O   0  0  0  0  0  0  0  0  0  0  0  0
   14.6255  -15.5337   22.9460 C   0  0  0  0  0  0  0  0  0  0  0  0
    9.8314  -16.2967   24.2756 O   0  0  0  0  0  0  0  0  0  0  0  0
    9.0281  -15.3781   24.6704 O   0  0  0  0  0  0  0  0  0  0  0  0
   15.0427  -16.1665   20.7684 O   0  0  0  0  0  0  0  0  0  0  0  0
  2  1  1  0
  3  2  2  0
  4  2  1  0
  5  4  1  0
  6  5  1  0
  7  6  1  0
  8 10  1  0
  8  7  1  0
  8  9  1  6
 10 14  1  0
 11 10  2  0
 13 12  1  6
 14 13  1  0
 15 17  1  0
 15 13  1  0
 16 15  2  0
 18 17  1  0
 18 19  1  1
 19 20  1  0
 20 21  1  0
 21 25  1  0
 22 21  2  0
 23 18  1  0
 24 23  2  0
 26 23  1  0
M  END
$$$$
