RAE.pdb
     RDKit          3D

 26 25  0  0  1  0  0  0  0  0999 V2000
    8.1511  -12.6067   17.0798 N   0  0  0  0  0  0  0  0  0  0  0  0
    7.7147  -13.8768   16.6310 C   0  0  0  0  0  0  0  0  0  0  0  0
    7.7769  -14.1966   15.3906 N   0  0  0  0  0  0  0  0  0  0  0  0
    7.1961  -14.8092   17.5950 N   0  0  0  0  0  0  0  0  0  0  0  0
    7.2266  -14.4863   19.0035 C   0  0  0  0  0  0  0  0  0  0  0  0
    8.5018  -13.9152   19.4872 C   0  0  0  0  0  0  0  0  0  0  0  0
    9.6275  -14.8482   19.7855 C   0  0  0  0  0  0  0  0  0  0  0  0
    9.3947  -15.9014   20.7988 C   0  0  2  0  0  0  0  0  0  0  0  0
    8.0009  -16.3705   20.6578 N   0  0  0  0  0  0  0  0  0  0  0  0
    9.5761  -15.5498   22.2102 C   0  0  0  0  0  0  0  0  0  0  0  0
   10.7142  -15.2037   22.6427 O   0  0  0  0  0  0  0  0  0  0  0  0
    7.4619  -15.0730   14.9639 C   0  0  0  0  0  0  0  0  0  0  0  0
    7.5898  -14.8052   25.3312 C   0  0  2  0  0  0  0  0  0  0  0  0
    8.8407  -15.3231   24.6080 N   0  0  0  0  0  0  0  0  0  0  0  0
    8.5377  -15.5625   23.2014 C   0  0  0  0  0  0  0  0  0  0  0  0
    9.1386  -16.6372   25.2296 O   0  0  0  0  0  0  0  0  0  0  0  0
    8.9901  -17.6896   24.5639 N   0  0  0  0  0  0  0  0  0  0  0  0
    9.5881  -16.7737   26.5509 C   0  0  1  0  0  0  0  0  0  0  0  0
   10.5425  -17.8112   26.9929 C   0  0  0  0  0  0  0  0  0  0  0  0
   11.6504  -17.8153   26.0167 C   0  0  0  0  0  0  0  0  0  0  0  0
   12.0468  -19.1495   25.5265 C   0  0  0  0  0  0  0  0  0  0  0  0
   13.4155  -19.1337   24.9774 O   0  0  0  0  0  0  0  0  0  0  0  0
   14.3697  -18.9338   25.7756 C   0  0  0  0  0  0  0  0  0  0  0  0
   10.7732  -17.6084   28.4024 O   0  0  0  0  0  0  0  0  0  0  0  0
   10.6127  -16.4647   28.9602 O   0  0  0  0  0  0  0  0  0  0  0  0
   13.6876  -19.3379   23.6104 O   0  0  0  0  0  0  0  0  0  0  0  0
  2  1  1  0
  3  2  2  0
  4  2  1  0
  5  4  1  0
  6  5  1  0
  7  6  1  0
  8 10  1  0
  8  7  1  0
  8  9  1  1
 10 14  1  0
 11 10  2  0
 13 12  1  6
 14 13  1  0
 15 17  1  0
 15 13  1  0
 16 15  2  0
 18 17  1  0
 18 19  1  1
 19 20  1  0
 20 21  1  0
 21 25  1  0
 22 21  2  0
 23 18  1  0
 24 23  2  0
 26 23  1  0
M  END
$$$$
