RAE.pdb
     RDKit          3D

 26 25  0  0  1  0  0  0  0  0999 V2000
   12.4284  -14.4245   19.2923 N   0  0  0  0  0  0  0  0  0  0  0  0
   12.8573  -15.1880   18.1796 C   0  0  0  0  0  0  0  0  0  0  0  0
   14.0822  -15.5479   18.0577 N   0  0  0  0  0  0  0  0  0  0  0  0
   11.8908  -15.5556   17.1804 N   0  0  0  0  0  0  0  0  0  0  0  0
   10.5193  -15.8106   17.5591 C   0  0  0  0  0  0  0  0  0  0  0  0
    9.9237  -14.8067   18.4665 C   0  0  0  0  0  0  0  0  0  0  0  0
    8.4546  -14.8657   18.7214 C   0  0  0  0  0  0  0  0  0  0  0  0
    7.8711  -13.8356   19.6095 C   0  0  2  0  0  0  0  0  0  0  0  0
    8.1806  -12.5098   19.0358 N   0  0  0  0  0  0  0  0  0  0  0  0
    8.3149  -13.8003   21.0060 C   0  0  0  0  0  0  0  0  0  0  0  0
    9.5103  -13.4969   21.2906 O   0  0  0  0  0  0  0  0  0  0  0  0
   14.5012  -16.0498   17.2691 C   0  0  0  0  0  0  0  0  0  0  0  0
    6.8586  -14.0007   24.5085 C   0  0  1  0  0  0  0  0  0  0  0  0
    8.0137  -14.0075   23.4976 N   0  0  0  0  0  0  0  0  0  0  0  0
    7.4856  -14.0933   22.1406 C   0  0  0  0  0  0  0  0  0  0  0  0
    8.7625  -15.2605   23.7645 O   0  0  0  0  0  0  0  0  0  0  0  0
    8.4199  -16.3245   23.1959 N   0  0  0  0  0  0  0  0  0  0  0  0
    9.8583  -15.3253   24.6371 C   0  0  1  0  0  0  0  0  0  0  0  0
   10.6175  -16.5619   24.9150 C   0  0  0  0  0  0  0  0  0  0  0  0
   12.0480  -16.1956   24.9042 C   0  0  0  0  0  0  0  0  0  0  0  0
   12.8011  -16.6516   23.7200 C   0  0  0  0  0  0  0  0  0  0  0  0
   13.9645  -15.7838   23.4581 O   0  0  0  0  0  0  0  0  0  0  0  0
   14.8974  -15.7753   24.3048 C   0  0  0  0  0  0  0  0  0  0  0  0
   10.0040  -17.1934   26.0577 O   0  0  0  0  0  0  0  0  0  0  0  0
    9.0888  -16.6145   26.7449 O   0  0  0  0  0  0  0  0  0  0  0  0
   14.0681  -14.9802   22.3057 O   0  0  0  0  0  0  0  0  0  0  0  0
  2  1  1  0
  3  2  2  0
  4  2  1  0
  5  4  1  0
  6  5  1  0
  7  6  1  0
  8 10  1  0
  8  7  1  0
  8  9  1  6
 10 14  1  0
 11 10  2  0
 13 12  1  6
 14 13  1  0
 15 17  1  0
 15 13  1  0
 16 15  2  0
 18 17  1  0
 18 19  1  1
 19 20  1  0
 20 21  1  0
 21 25  1  0
 22 21  2  0
 23 18  1  0
 24 23  2  0
 26 23  1  0
M  END
$$$$
