RAE.pdb
     RDKit          3D

 26 25  0  0  1  0  0  0  0  0999 V2000
    9.2651  -18.5197   15.7661 N   0  0  0  0  0  0  0  0  0  0  0  0
    8.3396  -17.8078   14.9650 C   0  0  0  0  0  0  0  0  0  0  0  0
    8.4868  -17.7332   13.6932 N   0  0  0  0  0  0  0  0  0  0  0  0
    7.2241  -17.1644   15.6047 N   0  0  0  0  0  0  0  0  0  0  0  0
    7.4391  -16.0048   16.4404 C   0  0  0  0  0  0  0  0  0  0  0  0
    8.8544  -15.7127   16.7533 C   0  0  0  0  0  0  0  0  0  0  0  0
    9.1678  -14.4757   17.5268 C   0  0  0  0  0  0  0  0  0  0  0  0
    8.1853  -14.0346   18.5418 C   0  0  2  0  0  0  0  0  0  0  0  0
    7.7237  -12.6807   18.1722 N   0  0  0  0  0  0  0  0  0  0  0  0
    8.6256  -13.9589   19.9378 C   0  0  0  0  0  0  0  0  0  0  0  0
    9.7599  -13.4769   20.2263 O   0  0  0  0  0  0  0  0  0  0  0  0
    7.9159  -17.1912   13.0378 C   0  0  0  0  0  0  0  0  0  0  0  0
    7.2610  -14.2649   23.4407 C   0  0  1  0  0  0  0  0  0  0  0  0
    8.4043  -14.3308   22.4187 N   0  0  0  0  0  0  0  0  0  0  0  0
    7.8591  -14.4027   21.0676 C   0  0  0  0  0  0  0  0  0  0  0  0
    9.0989  -15.6142   22.6878 O   0  0  0  0  0  0  0  0  0  0  0  0
    8.5749  -16.6944   22.3257 N   0  0  0  0  0  0  0  0  0  0  0  0
   10.3383  -15.6908   23.3394 C   0  0  1  0  0  0  0  0  0  0  0  0
   11.0269  -16.9599   23.6525 C   0  0  0  0  0  0  0  0  0  0  0  0
   12.3315  -16.9188   22.9620 C   0  0  0  0  0  0  0  0  0  0  0  0
   13.3847  -16.1570   23.6604 C   0  0  0  0  0  0  0  0  0  0  0  0
   14.6441  -16.1565   22.8927 O   0  0  0  0  0  0  0  0  0  0  0  0
   14.6747  -16.7968   21.8081 C   0  0  0  0  0  0  0  0  0  0  0  0
   10.9280  -17.1606   25.0775 O   0  0  0  0  0  0  0  0  0  0  0  0
   11.2341  -18.2769   25.6301 O   0  0  0  0  0  0  0  0  0  0  0  0
   15.7954  -15.4683   23.3232 O   0  0  0  0  0  0  0  0  0  0  0  0
  2  1  1  0
  3  2  2  0
  4  2  1  0
  5  4  1  0
  6  5  1  0
  7  6  1  0
  8 10  1  0
  8  7  1  0
  8  9  1  6
 10 14  1  0
 11 10  2  0
 13 12  1  6
 14 13  1  0
 15 17  1  0
 15 13  1  0
 16 15  2  0
 18 17  1  0
 18 19  1  1
 19 20  1  0
 20 21  1  0
 21 25  1  0
 22 21  2  0
 23 18  1  0
 24 23  2  0
 26 23  1  0
M  END
$$$$
