RAE.pdb
     RDKit          3D

 26 25  0  0  1  0  0  0  0  0999 V2000
    8.3286  -12.8917   17.0709 N   0  0  0  0  0  0  0  0  0  0  0  0
    8.5866  -12.7169   18.4522 C   0  0  0  0  0  0  0  0  0  0  0  0
    9.4625  -11.8731   18.8592 N   0  0  0  0  0  0  0  0  0  0  0  0
    7.8462  -13.5067   19.3986 N   0  0  0  0  0  0  0  0  0  0  0  0
    6.8312  -14.4264   18.9368 C   0  0  0  0  0  0  0  0  0  0  0  0
    7.3071  -15.8003   18.6684 C   0  0  0  0  0  0  0  0  0  0  0  0
    8.7751  -16.0634   18.7169 C   0  0  0  0  0  0  0  0  0  0  0  0
    9.2642  -17.0379   19.7176 C   0  0  2  0  0  0  0  0  0  0  0  0
    8.1769  -18.0017   19.9855 N   0  0  0  0  0  0  0  0  0  0  0  0
    9.6989  -16.5260   21.0205 C   0  0  0  0  0  0  0  0  0  0  0  0
   10.7724  -15.8632   21.1224 O   0  0  0  0  0  0  0  0  0  0  0  0
    9.7388  -11.6913   19.8287 C   0  0  0  0  0  0  0  0  0  0  0  0
    8.3041  -15.7800   24.4150 C   0  0  2  0  0  0  0  0  0  0  0  0
    9.4846  -16.1290   23.4980 N   0  0  0  0  0  0  0  0  0  0  0  0
    8.9923  -16.7143   22.2559 C   0  0  0  0  0  0  0  0  0  0  0  0
   10.2431  -17.1823   24.2171 O   0  0  0  0  0  0  0  0  0  0  0  0
    9.7850  -18.3480   24.2789 N   0  0  0  0  0  0  0  0  0  0  0  0
   11.4732  -16.9437   24.8467 C   0  0  1  0  0  0  0  0  0  0  0  0
   12.3463  -18.0102   25.3788 C   0  0  0  0  0  0  0  0  0  0  0  0
   13.6377  -17.8966   24.6717 C   0  0  0  0  0  0  0  0  0  0  0  0
   14.4115  -16.6774   24.9753 C   0  0  0  0  0  0  0  0  0  0  0  0
   15.3058  -16.3186   23.8588 O   0  0  0  0  0  0  0  0  0  0  0  0
   16.3264  -17.0320   23.6669 C   0  0  0  0  0  0  0  0  0  0  0  0
   12.2611  -17.9552   26.8178 O   0  0  0  0  0  0  0  0  0  0  0  0
   11.6373  -17.0145   27.4268 O   0  0  0  0  0  0  0  0  0  0  0  0
   15.0566  -15.2237   23.0082 O   0  0  0  0  0  0  0  0  0  0  0  0
  2  1  1  0
  3  2  2  0
  4  2  1  0
  5  4  1  0
  6  5  1  0
  7  6  1  0
  8 10  1  0
  8  7  1  0
  8  9  1  1
 10 14  1  0
 11 10  2  0
 13 12  1  6
 14 13  1  0
 15 17  1  0
 15 13  1  0
 16 15  2  0
 18 17  1  0
 18 19  1  1
 19 20  1  0
 20 21  1  0
 21 25  1  0
 22 21  2  0
 23 18  1  0
 24 23  2  0
 26 23  1  0
M  END
$$$$
