RAE.pdb
     RDKit          3D

 26 25  0  0  1  0  0  0  0  0999 V2000
    8.3209  -12.6307   17.1824 N   0  0  0  0  0  0  0  0  0  0  0  0
    8.5467  -12.9401   18.5456 C   0  0  0  0  0  0  0  0  0  0  0  0
    9.1020  -12.0931   19.3323 N   0  0  0  0  0  0  0  0  0  0  0  0
    8.1413  -14.2289   19.0377 N   0  0  0  0  0  0  0  0  0  0  0  0
    8.4332  -14.6076   20.4017 C   0  0  0  0  0  0  0  0  0  0  0  0
    7.9475  -15.9470   20.7970 C   0  0  0  0  0  0  0  0  0  0  0  0
    8.1692  -16.3941   22.2033 C   0  0  0  0  0  0  0  0  0  0  0  0
    7.8374  -17.7974   22.5367 C   0  0  2  0  0  0  0  0  0  0  0  0
    6.3702  -17.9511   22.4556 N   0  0  0  0  0  0  0  0  0  0  0  0
    8.2383  -18.3048   23.8521 C   0  0  0  0  0  0  0  0  0  0  0  0
    7.6196  -17.9409   24.8947 O   0  0  0  0  0  0  0  0  0  0  0  0
    9.3539  -12.2378   20.3146 C   0  0  0  0  0  0  0  0  0  0  0  0
   10.4873  -20.9152   25.4163 C   0  0  1  0  0  0  0  0  0  0  0  0
    9.7022  -19.5965   25.4428 N   0  0  0  0  0  0  0  0  0  0  0  0
    9.3205  -19.2185   24.0866 C   0  0  0  0  0  0  0  0  0  0  0  0
   10.6616  -18.5776   25.9361 O   0  0  0  0  0  0  0  0  0  0  0  0
   11.5383  -18.1215   25.1640 N   0  0  0  0  0  0  0  0  0  0  0  0
   10.6440  -18.0826   27.2481 C   0  0  1  0  0  0  0  0  0  0  0  0
   11.6991  -17.2186   27.8164 C   0  0  0  0  0  0  0  0  0  0  0  0
   11.0838  -15.8987   28.0607 C   0  0  0  0  0  0  0  0  0  0  0  0
   10.6082  -15.1973   26.8527 C   0  0  0  0  0  0  0  0  0  0  0  0
   10.0300  -13.8829   27.1889 O   0  0  0  0  0  0  0  0  0  0  0  0
   10.0286  -13.5304   28.3985 C   0  0  0  0  0  0  0  0  0  0  0  0
   12.3411  -17.9641   28.8713 O   0  0  0  0  0  0  0  0  0  0  0  0
   11.8067  -19.0093   29.3880 O   0  0  0  0  0  0  0  0  0  0  0  0
    9.4926  -13.0183   26.2152 O   0  0  0  0  0  0  0  0  0  0  0  0
  2  1  1  0
  3  2  2  0
  4  2  1  0
  5  4  1  0
  6  5  1  0
  7  6  1  0
  8 10  1  0
  8  7  1  0
  8  9  1  1
 10 14  1  0
 11 10  2  0
 13 12  1  1
 14 13  1  0
 15 17  1  0
 15 13  1  0
 16 15  2  0
 18 17  1  0
 18 19  1  1
 19 20  1  0
 20 21  1  0
 21 25  1  0
 22 21  2  0
 23 18  1  0
 24 23  2  0
 26 23  1  0
M  END
$$$$
