RAE.pdb
     RDKit          3D

 26 25  0  0  1  0  0  0  0  0999 V2000
    9.5272  -13.9638   17.7709 N   0  0  0  0  0  0  0  0  0  0  0  0
    8.3606  -13.7055   17.0110 C   0  0  0  0  0  0  0  0  0  0  0  0
    8.4189  -13.5665   15.7374 N   0  0  0  0  0  0  0  0  0  0  0  0
    7.1001  -13.6001   17.6949 N   0  0  0  0  0  0  0  0  0  0  0  0
    6.7483  -14.5602   18.7165 C   0  0  0  0  0  0  0  0  0  0  0  0
    7.8735  -15.0172   19.5599 C   0  0  0  0  0  0  0  0  0  0  0  0
    8.0796  -14.3588   20.8831 C   0  0  0  0  0  0  0  0  0  0  0  0
    7.8015  -15.1582   22.0971 C   0  0  2  0  0  0  0  0  0  0  0  0
    6.3364  -15.2992   22.2252 N   0  0  0  0  0  0  0  0  0  0  0  0
    8.2858  -14.6473   23.3827 C   0  0  0  0  0  0  0  0  0  0  0  0
    9.5177  -14.4139   23.5561 O   0  0  0  0  0  0  0  0  0  0  0  0
    7.6367  -13.3862   15.1010 C   0  0  0  0  0  0  0  0  0  0  0  0
    6.8741  -13.1343   26.5561 C   0  0  2  0  0  0  0  0  0  0  0  0
    8.0088  -13.7314   25.7122 N   0  0  0  0  0  0  0  0  0  0  0  0
    7.4586  -14.3739   24.5238 C   0  0  0  0  0  0  0  0  0  0  0  0
    8.6091  -14.7942   26.5559 O   0  0  0  0  0  0  0  0  0  0  0  0
    7.9354  -15.8097   26.8522 N   0  0  0  0  0  0  0  0  0  0  0  0
    9.9186  -14.7274   27.0532 C   0  0  1  0  0  0  0  0  0  0  0  0
   10.5217  -15.7562   27.9253 C   0  0  0  0  0  0  0  0  0  0  0  0
   11.8383  -16.0885   27.3453 C   0  0  0  0  0  0  0  0  0  0  0  0
   11.7943  -16.6908   25.9989 C   0  0  0  0  0  0  0  0  0  0  0  0
   13.1518  -16.9313   25.4748 O   0  0  0  0  0  0  0  0  0  0  0  0
   14.1303  -16.6023   26.1969 C   0  0  0  0  0  0  0  0  0  0  0  0
   10.3853  -15.2975   29.2862 O   0  0  0  0  0  0  0  0  0  0  0  0
   10.0565  -14.0900   29.5672 O   0  0  0  0  0  0  0  0  0  0  0  0
   13.3867  -17.5141   24.2141 O   0  0  0  0  0  0  0  0  0  0  0  0
  2  1  1  0
  3  2  2  0
  4  2  1  0
  5  4  1  0
  6  5  1  0
  7  6  1  0
  8 10  1  0
  8  7  1  0
  8  9  1  1
 10 14  1  0
 11 10  2  0
 13 12  1  6
 14 13  1  0
 15 17  1  0
 15 13  1  0
 16 15  2  0
 18 17  1  0
 18 19  1  1
 19 20  1  0
 20 21  1  0
 21 25  1  0
 22 21  2  0
 23 18  1  0
 24 23  2  0
 26 23  1  0
M  END
$$$$
