RAE.pdb
     RDKit          3D

 26 25  0  0  1  0  0  0  0  0999 V2000
    7.8606  -15.3259   16.0308 N   0  0  0  0  0  0  0  0  0  0  0  0
    8.1633  -13.9568   15.8330 C   0  0  0  0  0  0  0  0  0  0  0  0
    8.6477  -13.5412   14.7206 N   0  0  0  0  0  0  0  0  0  0  0  0
    7.9178  -13.0329   16.9071 N   0  0  0  0  0  0  0  0  0  0  0  0
    7.1925  -13.4636   18.0809 C   0  0  0  0  0  0  0  0  0  0  0  0
    7.8347  -14.5516   18.8491 C   0  0  0  0  0  0  0  0  0  0  0  0
    8.3009  -14.2593   20.2362 C   0  0  0  0  0  0  0  0  0  0  0  0
    8.8457  -15.3850   21.0276 C   0  0  2  0  0  0  0  0  0  0  0  0
    8.0021  -16.5712   20.7746 N   0  0  0  0  0  0  0  0  0  0  0  0
    8.9212  -15.2291   22.4831 C   0  0  0  0  0  0  0  0  0  0  0  0
    9.5856  -14.2794   22.9918 O   0  0  0  0  0  0  0  0  0  0  0  0
    8.9707  -12.5933   14.5053 C   0  0  0  0  0  0  0  0  0  0  0  0
    7.0807  -16.4319   25.5448 C   0  0  2  0  0  0  0  0  0  0  0  0
    8.2818  -15.7663   24.8589 N   0  0  0  0  0  0  0  0  0  0  0  0
    8.2857  -16.0932   23.4373 C   0  0  0  0  0  0  0  0  0  0  0  0
    9.4802  -16.3978   25.4647 O   0  0  0  0  0  0  0  0  0  0  0  0
    9.7211  -16.2348   26.6846 N   0  0  0  0  0  0  0  0  0  0  0  0
   10.3809  -17.1861   24.7341 C   0  0  1  0  0  0  0  0  0  0  0  0
   11.6304  -17.7417   25.2936 C   0  0  0  0  0  0  0  0  0  0  0  0
   11.3187  -19.1079   25.7591 C   0  0  0  0  0  0  0  0  0  0  0  0
   11.9854  -19.5083   27.0132 C   0  0  0  0  0  0  0  0  0  0  0  0
   11.0260  -19.5788   28.1312 O   0  0  0  0  0  0  0  0  0  0  0  0
    9.8103  -19.3633   27.8804 C   0  0  0  0  0  0  0  0  0  0  0  0
   12.6789  -17.4863   24.3364 O   0  0  0  0  0  0  0  0  0  0  0  0
   13.9201  -17.5766   24.6468 O   0  0  0  0  0  0  0  0  0  0  0  0
   11.4180  -19.8807   29.4501 O   0  0  0  0  0  0  0  0  0  0  0  0
  2  1  1  0
  3  2  2  0
  4  2  1  0
  5  4  1  0
  6  5  1  0
  7  6  1  0
  8 10  1  0
  8  7  1  0
  8  9  1  1
 10 14  1  0
 11 10  2  0
 13 12  1  6
 14 13  1  0
 15 17  1  0
 15 13  1  0
 16 15  2  0
 18 17  1  0
 18 19  1  1
 19 20  1  0
 20 21  1  0
 21 25  1  0
 22 21  2  0
 23 18  1  0
 24 23  2  0
 26 23  1  0
M  END
$$$$
