DDV.pdb
     RDKit          3D

 24 23  0  0  1  0  0  0  0  0999 V2000
    9.1574  -15.2224   19.3513 N   0  0  0  0  0  0  0  0  0  0  0  0
    8.5199  -14.0822   19.9514 C   0  0  1  0  0  0  0  0  0  0  0  0
    7.4763  -13.5202   19.0176 C   0  0  0  0  0  0  0  0  0  0  0  0
    7.8173  -13.7013   17.6051 C   0  0  0  0  0  0  0  0  0  0  0  0
    7.2787  -12.9372   16.7640 O   0  0  0  0  0  0  0  0  0  0  0  0
    7.9442  -14.4032   21.2886 C   0  0  0  0  0  0  0  0  0  0  0  0
    7.2644  -13.5624   21.9315 O   0  0  0  0  0  0  0  0  0  0  0  0
    8.6954  -14.6583   17.1195 O   0  0  0  0  0  0  0  0  0  0  0  0
    8.1286  -15.6695   21.9107 N   0  0  0  0  0  0  0  0  0  0  0  0
    7.6210  -15.9955   23.2091 C   0  0  1  0  0  0  0  0  0  0  0  0
    7.7166  -17.4632   23.5557 C   0  0  0  0  0  0  0  0  0  0  0  0
    7.0525  -17.8320   24.8037 C   0  0  0  0  0  0  0  0  0  0  0  0
    7.4815  -17.3770   25.8894 O   0  0  0  0  0  0  0  0  0  0  0  0
    8.2745  -15.2387   24.3025 C   0  0  0  0  0  0  0  0  0  0  0  0
    9.5236  -15.2244   24.3592 O   0  0  0  0  0  0  0  0  0  0  0  0
    5.9548  -18.6734   24.8406 O   0  0  0  0  0  0  0  0  0  0  0  0
    6.0490  -13.2182   27.1622 C   0  0  0  0  0  0  0  0  0  0  0  0
    7.3686  -12.6085   26.7657 C   0  0  2  0  0  0  0  0  0  0  0  0
    7.1890  -11.7323   25.5228 C   0  0  0  0  0  0  0  0  0  0  0  0
    8.2763  -13.7498   26.3388 C   0  0  2  0  0  0  0  0  0  0  0  0
    7.5813  -14.5203   25.3021 N   0  0  0  0  0  0  0  0  0  0  0  0
    8.5161  -14.6786   27.4877 C   0  0  0  0  0  0  0  0  0  0  0  0
    8.0679  -15.9918   27.4710 O   0  0  0  0  0  0  0  0  0  0  0  0
    9.1353  -14.3111   28.5217 O   0  0  0  0  0  0  0  0  0  0  0  0
  2  1  1  6
  3  4  1  0
  3  2  1  0
  4  8  1  0
  5  4  2  0
  6  2  1  0
  7  6  2  0
  9  6  1  0
 10 14  1  0
 10  9  1  0
 10 11  1  1
 12 11  1  0
 13 12  2  0
 14 21  1  0
 15 14  2  0
 16 12  1  0
 18 20  1  0
 18 17  1  6
 19 18  1  0
 20 22  1  0
 20 21  1  6
 22 24  2  0
 22 23  1  0
M  END
$$$$
