DDV.pdb
     RDKit          3D

 24 23  0  0  1  0  0  0  0  0999 V2000
    9.8180  -15.1503   19.1558 N   0  0  0  0  0  0  0  0  0  0  0  0
    8.7792  -14.3342   19.7229 C   0  0  1  0  0  0  0  0  0  0  0  0
    7.6344  -14.2008   18.7491 C   0  0  0  0  0  0  0  0  0  0  0  0
    8.0795  -14.0477   17.3624 C   0  0  0  0  0  0  0  0  0  0  0  0
    9.3165  -14.0299   17.1369 O   0  0  0  0  0  0  0  0  0  0  0  0
    8.3194  -14.8524   21.0430 C   0  0  0  0  0  0  0  0  0  0  0  0
    7.2646  -14.4317   21.5840 O   0  0  0  0  0  0  0  0  0  0  0  0
    7.2352  -13.9198   16.2700 O   0  0  0  0  0  0  0  0  0  0  0  0
    9.0414  -15.8453   21.7624 N   0  0  0  0  0  0  0  0  0  0  0  0
    8.6764  -16.2977   23.0708 C   0  0  1  0  0  0  0  0  0  0  0  0
    9.3777  -17.5653   23.5008 C   0  0  0  0  0  0  0  0  0  0  0  0
    9.4841  -18.5794   22.4545 C   0  0  0  0  0  0  0  0  0  0  0  0
    8.4524  -18.9537   21.8502 O   0  0  0  0  0  0  0  0  0  0  0  0
    8.9050  -15.2847   24.1278 C   0  0  0  0  0  0  0  0  0  0  0  0
   10.0569  -14.8207   24.2752 O   0  0  0  0  0  0  0  0  0  0  0  0
   10.6908  -19.1534   22.0962 O   0  0  0  0  0  0  0  0  0  0  0  0
    6.3341  -12.4553   24.9639 C   0  0  0  0  0  0  0  0  0  0  0  0
    6.8361  -13.0344   26.2611 C   0  0  2  0  0  0  0  0  0  0  0  0
    7.1660  -11.9084   27.2451 C   0  0  0  0  0  0  0  0  0  0  0  0
    8.1581  -13.7207   25.9605 C   0  0  2  0  0  0  0  0  0  0  0  0
    7.9034  -14.7957   24.9956 N   0  0  0  0  0  0  0  0  0  0  0  0
    8.7016  -14.3631   27.1982 C   0  0  0  0  0  0  0  0  0  0  0  0
    9.4757  -13.6568   28.1080 O   0  0  0  0  0  0  0  0  0  0  0  0
    8.4814  -15.5735   27.4706 O   0  0  0  0  0  0  0  0  0  0  0  0
  2  1  1  6
  3  4  1  0
  3  2  1  0
  4  8  1  0
  5  4  2  0
  6  2  1  0
  7  6  2  0
  9  6  1  0
 10 14  1  0
 10  9  1  0
 10 11  1  1
 12 11  1  0
 13 12  2  0
 14 21  1  0
 15 14  2  0
 16 12  1  0
 18 20  1  0
 18 17  1  6
 19 18  1  0
 20 22  1  0
 20 21  1  6
 22 24  2  0
 22 23  1  0
M  END
$$$$
