DDV.pdb
     RDKit          3D

 24 23  0  0  1  0  0  0  0  0999 V2000
    8.8133  -15.6618   19.5180 N   0  0  0  0  0  0  0  0  0  0  0  0
    7.5310  -15.5126   20.1505 C   0  0  1  0  0  0  0  0  0  0  0  0
    6.5027  -16.3627   19.4456 C   0  0  0  0  0  0  0  0  0  0  0  0
    7.0678  -17.1478   18.3463 C   0  0  0  0  0  0  0  0  0  0  0  0
    8.0075  -17.9414   18.6083 O   0  0  0  0  0  0  0  0  0  0  0  0
    7.5884  -15.8169   21.6088 C   0  0  0  0  0  0  0  0  0  0  0  0
    6.5932  -15.6403   22.3577 O   0  0  0  0  0  0  0  0  0  0  0  0
    6.6432  -17.0832   17.0279 O   0  0  0  0  0  0  0  0  0  0  0  0
    8.7631  -16.3210   22.2338 N   0  0  0  0  0  0  0  0  0  0  0  0
    8.8573  -16.6001   23.6348 C   0  0  1  0  0  0  0  0  0  0  0  0
    9.8576  -17.6786   23.9808 C   0  0  0  0  0  0  0  0  0  0  0  0
    9.8935  -18.0350   25.3972 C   0  0  0  0  0  0  0  0  0  0  0  0
   10.9797  -18.3751   25.9210 O   0  0  0  0  0  0  0  0  0  0  0  0
    9.1907  -15.4087   24.4502 C   0  0  0  0  0  0  0  0  0  0  0  0
   10.3235  -14.8940   24.3254 O   0  0  0  0  0  0  0  0  0  0  0  0
    8.7652  -18.0133   26.1975 O   0  0  0  0  0  0  0  0  0  0  0  0
    6.3163  -13.4024   26.5776 C   0  0  0  0  0  0  0  0  0  0  0  0
    7.5619  -12.6507   26.1853 C   0  0  2  0  0  0  0  0  0  0  0  0
    7.4455  -12.1620   24.7388 C   0  0  0  0  0  0  0  0  0  0  0  0
    8.7063  -13.6503   26.1927 C   0  0  2  0  0  0  0  0  0  0  0  0
    8.3108  -14.8006   25.3731 N   0  0  0  0  0  0  0  0  0  0  0  0
    8.9392  -14.1609   27.5803 C   0  0  0  0  0  0  0  0  0  0  0  0
    9.4519  -13.3478   28.5812 O   0  0  0  0  0  0  0  0  0  0  0  0
    8.6807  -15.3512   27.9028 O   0  0  0  0  0  0  0  0  0  0  0  0
  2  1  1  6
  3  4  1  0
  3  2  1  0
  4  8  1  0
  5  4  2  0
  6  2  1  0
  7  6  2  0
  9  6  1  0
 10 14  1  0
 10  9  1  0
 10 11  1  6
 12 11  1  0
 13 12  2  0
 14 21  1  0
 15 14  2  0
 16 12  1  0
 18 20  1  0
 18 17  1  6
 19 18  1  0
 20 22  1  0
 20 21  1  6
 22 24  2  0
 22 23  1  0
M  END
$$$$
