DDV.pdb
     RDKit          3D

 24 23  0  0  1  0  0  0  0  0999 V2000
    7.0214  -16.7306   19.3973 N   0  0  0  0  0  0  0  0  0  0  0  0
    7.7792  -15.7510   20.1271 C   0  0  1  0  0  0  0  0  0  0  0  0
    7.4855  -14.3686   19.5984 C   0  0  0  0  0  0  0  0  0  0  0  0
    8.0360  -14.1401   18.2609 C   0  0  0  0  0  0  0  0  0  0  0  0
    8.7709  -15.0313   17.7636 O   0  0  0  0  0  0  0  0  0  0  0  0
    7.5392  -15.8394   21.5958 C   0  0  0  0  0  0  0  0  0  0  0  0
    6.4195  -15.5625   22.0976 O   0  0  0  0  0  0  0  0  0  0  0  0
    7.8077  -13.0076   17.4941 O   0  0  0  0  0  0  0  0  0  0  0  0
    8.5549  -16.2392   22.5086 N   0  0  0  0  0  0  0  0  0  0  0  0
    8.3315  -16.4252   23.9105 C   0  0  1  0  0  0  0  0  0  0  0  0
    8.9530  -17.6836   24.4704 C   0  0  0  0  0  0  0  0  0  0  0  0
    8.6669  -18.8912   23.6996 C   0  0  0  0  0  0  0  0  0  0  0  0
    7.4975  -19.3397   23.6659 O   0  0  0  0  0  0  0  0  0  0  0  0
    8.8069  -15.2909   24.7368 C   0  0  0  0  0  0  0  0  0  0  0  0
    9.9752  -14.8766   24.5720 O   0  0  0  0  0  0  0  0  0  0  0  0
    9.6440  -19.5716   22.9948 O   0  0  0  0  0  0  0  0  0  0  0  0
    6.2792  -13.2947   27.3682 C   0  0  0  0  0  0  0  0  0  0  0  0
    7.4029  -12.5259   26.7228 C   0  0  2  0  0  0  0  0  0  0  0  0
    6.9817  -12.0530   25.3287 C   0  0  0  0  0  0  0  0  0  0  0  0
    8.5425  -13.5060   26.4996 C   0  0  2  0  0  0  0  0  0  0  0  0
    8.0269  -14.6314   25.7128 N   0  0  0  0  0  0  0  0  0  0  0  0
    9.0097  -14.0639   27.8075 C   0  0  0  0  0  0  0  0  0  0  0  0
    9.7306  -13.2978   28.7125 O   0  0  0  0  0  0  0  0  0  0  0  0
    8.7701  -15.2536   28.1465 O   0  0  0  0  0  0  0  0  0  0  0  0
  2  1  1  6
  3  4  1  0
  3  2  1  0
  4  8  1  0
  5  4  2  0
  6  2  1  0
  7  6  2  0
  9  6  1  0
 10 14  1  0
 10  9  1  0
 10 11  1  1
 12 11  1  0
 13 12  2  0
 14 21  1  0
 15 14  2  0
 16 12  1  0
 18 20  1  0
 18 17  1  6
 19 18  1  0
 20 22  1  0
 20 21  1  6
 22 24  2  0
 22 23  1  0
M  END
$$$$
