DDV.pdb
     RDKit          3D

 24 23  0  0  1  0  0  0  0  0999 V2000
    9.8128  -16.7858   19.9581 N   0  0  0  0  0  0  0  0  0  0  0  0
    8.6920  -15.8967   20.0990 C   0  0  1  0  0  0  0  0  0  0  0  0
    7.6144  -16.2590   19.1070 C   0  0  0  0  0  0  0  0  0  0  0  0
    8.1267  -16.4347   17.7465 C   0  0  0  0  0  0  0  0  0  0  0  0
    8.0663  -17.5821   17.2353 O   0  0  0  0  0  0  0  0  0  0  0  0
    8.1683  -15.8746   21.4947 C   0  0  0  0  0  0  0  0  0  0  0  0
    7.1443  -15.2121   21.8030 O   0  0  0  0  0  0  0  0  0  0  0  0
    8.6779  -15.4253   16.9721 O   0  0  0  0  0  0  0  0  0  0  0  0
    8.7912  -16.5959   22.5512 N   0  0  0  0  0  0  0  0  0  0  0  0
    8.2997  -16.6134   23.8957 C   0  0  1  0  0  0  0  0  0  0  0  0
    8.6139  -17.8855   24.6485 C   0  0  0  0  0  0  0  0  0  0  0  0
    8.0514  -19.0940   24.0505 C   0  0  0  0  0  0  0  0  0  0  0  0
    8.7965  -19.8688   23.4069 O   0  0  0  0  0  0  0  0  0  0  0  0
    8.7905  -15.4809   24.7155 C   0  0  0  0  0  0  0  0  0  0  0  0
   10.0171  -15.2383   24.7306 O   0  0  0  0  0  0  0  0  0  0  0  0
    6.7132  -19.4257   24.1649 O   0  0  0  0  0  0  0  0  0  0  0  0
    6.1952  -13.1203   26.9559 C   0  0  0  0  0  0  0  0  0  0  0  0
    7.4530  -12.4741   26.4357 C   0  0  2  0  0  0  0  0  0  0  0  0
    7.2320  -11.9724   25.0060 C   0  0  0  0  0  0  0  0  0  0  0  0
    8.5048  -13.5659   26.3324 C   0  0  2  0  0  0  0  0  0  0  0  0
    7.9634  -14.6410   25.4941 N   0  0  0  0  0  0  0  0  0  0  0  0
    8.7735  -14.1558   27.6814 C   0  0  0  0  0  0  0  0  0  0  0  0
    9.4576  -13.4526   28.6628 O   0  0  0  0  0  0  0  0  0  0  0  0
    8.3914  -15.3168   27.9875 O   0  0  0  0  0  0  0  0  0  0  0  0
  2  1  1  1
  3  4  1  0
  3  2  1  0
  4  8  1  0
  5  4  2  0
  6  2  1  0
  7  6  2  0
  9  6  1  0
 10 14  1  0
 10  9  1  0
 10 11  1  1
 12 11  1  0
 13 12  2  0
 14 21  1  0
 15 14  2  0
 16 12  1  0
 18 20  1  0
 18 17  1  6
 19 18  1  0
 20 22  1  0
 20 21  1  6
 22 24  2  0
 22 23  1  0
M  END
$$$$
