DDV.pdb
     RDKit          3D

 24 23  0  0  1  0  0  0  0  0999 V2000
    9.9609  -14.7974   19.1486 N   0  0  0  0  0  0  0  0  0  0  0  0
    8.8978  -13.9566   19.6277 C   0  0  1  0  0  0  0  0  0  0  0  0
    7.7970  -13.8752   18.5991 C   0  0  0  0  0  0  0  0  0  0  0  0
    8.3026  -13.7853   17.2277 C   0  0  0  0  0  0  0  0  0  0  0  0
    7.8355  -12.8860   16.4830 O   0  0  0  0  0  0  0  0  0  0  0  0
    8.3806  -14.4090   20.9507 C   0  0  0  0  0  0  0  0  0  0  0  0
    7.3539  -13.8965   21.4663 O   0  0  0  0  0  0  0  0  0  0  0  0
    9.2646  -14.6219   16.6827 O   0  0  0  0  0  0  0  0  0  0  0  0
    9.0130  -15.4390   21.7016 N   0  0  0  0  0  0  0  0  0  0  0  0
    8.5114  -15.9321   22.9485 C   0  0  1  0  0  0  0  0  0  0  0  0
    8.9756  -17.3294   23.2884 C   0  0  0  0  0  0  0  0  0  0  0  0
    8.7859  -18.3045   22.2171 C   0  0  0  0  0  0  0  0  0  0  0  0
    9.7458  -18.5887   21.4637 O   0  0  0  0  0  0  0  0  0  0  0  0
    8.8440  -15.0623   24.1010 C   0  0  0  0  0  0  0  0  0  0  0  0
   10.0331  -14.7111   24.2642 O   0  0  0  0  0  0  0  0  0  0  0  0
    7.5760  -18.9374   21.9943 O   0  0  0  0  0  0  0  0  0  0  0  0
    5.8977  -13.5657   26.6202 C   0  0  0  0  0  0  0  0  0  0  0  0
    7.1435  -12.7455   26.4064 C   0  0  2  0  0  0  0  0  0  0  0  0
    7.0161  -11.9242   25.1203 C   0  0  0  0  0  0  0  0  0  0  0  0
    8.2826  -13.7211   26.1623 C   0  0  2  0  0  0  0  0  0  0  0  0
    7.9037  -14.5923   25.0447 N   0  0  0  0  0  0  0  0  0  0  0  0
    8.4760  -14.6013   27.3574 C   0  0  0  0  0  0  0  0  0  0  0  0
    9.0098  -14.1162   28.5429 O   0  0  0  0  0  0  0  0  0  0  0  0
    8.1632  -15.8218   27.3418 O   0  0  0  0  0  0  0  0  0  0  0  0
  2  1  1  6
  3  4  1  0
  3  2  1  0
  4  8  1  0
  5  4  2  0
  6  2  1  0
  7  6  2  0
  9  6  1  0
 10 14  1  0
 10  9  1  0
 10 11  1  1
 12 11  1  0
 13 12  2  0
 14 21  1  0
 15 14  2  0
 16 12  1  0
 18 20  1  0
 18 17  1  6
 19 18  1  0
 20 22  1  0
 20 21  1  6
 22 24  2  0
 22 23  1  0
M  END
$$$$
