DDV.pdb
     RDKit          3D

 24 23  0  0  1  0  0  0  0  0999 V2000
    9.2792  -17.9146   19.6709 N   0  0  0  0  0  0  0  0  0  0  0  0
    8.7689  -16.5791   19.8214 C   0  0  1  0  0  0  0  0  0  0  0  0
    7.8549  -16.2401   18.6697 C   0  0  0  0  0  0  0  0  0  0  0  0
    8.5447  -16.2274   17.3781 C   0  0  0  0  0  0  0  0  0  0  0  0
    8.4057  -17.2239   16.6236 O   0  0  0  0  0  0  0  0  0  0  0  0
    8.0919  -16.3843   21.1353 C   0  0  0  0  0  0  0  0  0  0  0  0
    6.8392  -16.3135   21.2261 O   0  0  0  0  0  0  0  0  0  0  0  0
    9.3459  -15.1930   16.9191 O   0  0  0  0  0  0  0  0  0  0  0  0
    8.8175  -16.2681   22.3537 N   0  0  0  0  0  0  0  0  0  0  0  0
    8.1999  -16.2557   23.6453 C   0  0  1  0  0  0  0  0  0  0  0  0
    8.3403  -17.5536   24.4063 C   0  0  0  0  0  0  0  0  0  0  0  0
    9.7123  -18.0447   24.5117 C   0  0  0  0  0  0  0  0  0  0  0  0
   10.6656  -17.2733   24.2554 O   0  0  0  0  0  0  0  0  0  0  0  0
    8.6969  -15.1711   24.5239 C   0  0  0  0  0  0  0  0  0  0  0  0
    9.9297  -14.9735   24.5945 O   0  0  0  0  0  0  0  0  0  0  0  0
   10.0099  -19.3425   24.8875 O   0  0  0  0  0  0  0  0  0  0  0  0
    6.1594  -13.1215   27.0763 C   0  0  0  0  0  0  0  0  0  0  0  0
    7.2919  -12.3120   26.4997 C   0  0  2  0  0  0  0  0  0  0  0  0
    6.8700  -11.6994   25.1612 C   0  0  0  0  0  0  0  0  0  0  0  0
    8.4134  -13.2841   26.1738 C   0  0  2  0  0  0  0  0  0  0  0  0
    7.8695  -14.3297   25.3005 N   0  0  0  0  0  0  0  0  0  0  0  0
    8.8917  -13.9601   27.4205 C   0  0  0  0  0  0  0  0  0  0  0  0
    9.6311  -13.2837   28.3803 O   0  0  0  0  0  0  0  0  0  0  0  0
    8.6451  -15.1733   27.6555 O   0  0  0  0  0  0  0  0  0  0  0  0
  2  1  1  6
  3  4  1  0
  3  2  1  0
  4  8  1  0
  5  4  2  0
  6  2  1  0
  7  6  2  0
  9  6  1  0
 10 14  1  0
 10  9  1  0
 10 11  1  1
 12 11  1  0
 13 12  2  0
 14 21  1  0
 15 14  2  0
 16 12  1  0
 18 20  1  0
 18 17  1  6
 19 18  1  0
 20 22  1  0
 20 21  1  6
 22 24  2  0
 22 23  1  0
M  END
$$$$
