DDV.pdb
     RDKit          3D

 24 23  0  0  1  0  0  0  0  0999 V2000
    8.9549  -18.2714   20.0485 N   0  0  0  0  0  0  0  0  0  0  0  0
    9.6880  -17.3765   20.9020 C   0  0  1  0  0  0  0  0  0  0  0  0
   10.3825  -16.3229   20.0748 C   0  0  0  0  0  0  0  0  0  0  0  0
   11.5572  -16.8357   19.3667 C   0  0  0  0  0  0  0  0  0  0  0  0
   11.9068  -16.2584   18.3056 O   0  0  0  0  0  0  0  0  0  0  0  0
    8.8202  -16.7676   21.9502 C   0  0  0  0  0  0  0  0  0  0  0  0
    7.9136  -15.9458   21.6584 O   0  0  0  0  0  0  0  0  0  0  0  0
   12.3199  -17.9176   19.7794 O   0  0  0  0  0  0  0  0  0  0  0  0
    8.9656  -17.0782   23.3312 N   0  0  0  0  0  0  0  0  0  0  0  0
    8.0398  -16.6581   24.3392 C   0  0  1  0  0  0  0  0  0  0  0  0
    7.6562  -17.7474   25.3138 C   0  0  0  0  0  0  0  0  0  0  0  0
    6.8867  -18.8401   24.7238 C   0  0  0  0  0  0  0  0  0  0  0  0
    7.1289  -20.0209   25.0658 O   0  0  0  0  0  0  0  0  0  0  0  0
    8.5195  -15.5025   25.1328 C   0  0  0  0  0  0  0  0  0  0  0  0
    9.7212  -15.4685   25.4772 O   0  0  0  0  0  0  0  0  0  0  0  0
    5.8880  -18.6261   23.7906 O   0  0  0  0  0  0  0  0  0  0  0  0
    5.8739  -12.7628   26.7565 C   0  0  0  0  0  0  0  0  0  0  0  0
    7.2100  -12.1975   26.3494 C   0  0  2  0  0  0  0  0  0  0  0  0
    7.1638  -11.7433   24.8878 C   0  0  0  0  0  0  0  0  0  0  0  0
    8.2100  -13.3407   26.3953 C   0  0  2  0  0  0  0  0  0  0  0  0
    7.7083  -14.4185   25.5362 N   0  0  0  0  0  0  0  0  0  0  0  0
    8.3014  -13.8937   27.7831 C   0  0  0  0  0  0  0  0  0  0  0  0
    7.8627  -15.1740   28.0895 O   0  0  0  0  0  0  0  0  0  0  0  0
    8.7805  -13.2226   28.7360 O   0  0  0  0  0  0  0  0  0  0  0  0
  2  1  1  6
  3  4  1  0
  3  2  1  0
  4  8  1  0
  5  4  2  0
  6  2  1  0
  7  6  2  0
  9  6  1  0
 10 14  1  0
 10  9  1  0
 10 11  1  1
 12 11  1  0
 13 12  2  0
 14 21  1  0
 15 14  2  0
 16 12  1  0
 18 20  1  0
 18 17  1  6
 19 18  1  0
 20 22  1  0
 20 21  1  6
 22 24  2  0
 22 23  1  0
M  END
$$$$
