DDV.pdb
     RDKit          3D

 24 23  0  0  1  0  0  0  0  0999 V2000
    9.5246  -16.1635   19.5013 N   0  0  0  0  0  0  0  0  0  0  0  0
    8.2121  -15.6185   19.7182 C   0  0  1  0  0  0  0  0  0  0  0  0
    7.2593  -16.1248   18.6635 C   0  0  0  0  0  0  0  0  0  0  0  0
    7.9439  -16.7237   17.5159 C   0  0  0  0  0  0  0  0  0  0  0  0
    7.5339  -17.8364   17.0973 O   0  0  0  0  0  0  0  0  0  0  0  0
    7.7098  -15.9012   21.0930 C   0  0  0  0  0  0  0  0  0  0  0  0
    6.4889  -15.8049   21.3805 O   0  0  0  0  0  0  0  0  0  0  0  0
    9.0182  -16.1538   16.8498 O   0  0  0  0  0  0  0  0  0  0  0  0
    8.5752  -16.2935   22.1522 N   0  0  0  0  0  0  0  0  0  0  0  0
    8.1400  -16.4783   23.5035 C   0  0  1  0  0  0  0  0  0  0  0  0
    8.4874  -17.8305   24.0817 C   0  0  0  0  0  0  0  0  0  0  0  0
    8.1193  -17.9979   25.4856 C   0  0  0  0  0  0  0  0  0  0  0  0
    6.9468  -17.7493   25.8504 O   0  0  0  0  0  0  0  0  0  0  0  0
    8.6623  -15.4509   24.4347 C   0  0  0  0  0  0  0  0  0  0  0  0
    9.8993  -15.2844   24.5119 O   0  0  0  0  0  0  0  0  0  0  0  0
    9.0209  -18.4251   26.4441 O   0  0  0  0  0  0  0  0  0  0  0  0
    6.1072  -12.9668   26.4830 C   0  0  0  0  0  0  0  0  0  0  0  0
    7.4977  -12.4470   26.2250 C   0  0  2  0  0  0  0  0  0  0  0  0
    7.5724  -11.8195   24.8302 C   0  0  0  0  0  0  0  0  0  0  0  0
    8.4234  -13.6513   26.1861 C   0  0  2  0  0  0  0  0  0  0  0  0
    7.8549  -14.6321   25.2553 N   0  0  0  0  0  0  0  0  0  0  0  0
    8.4791  -14.3055   27.5312 C   0  0  0  0  0  0  0  0  0  0  0  0
    9.0821  -13.6894   28.6185 O   0  0  0  0  0  0  0  0  0  0  0  0
    7.9816  -15.4446   27.7376 O   0  0  0  0  0  0  0  0  0  0  0  0
  2  1  1  6
  3  4  1  0
  3  2  1  0
  4  8  1  0
  5  4  2  0
  6  2  1  0
  7  6  2  0
  9  6  1  0
 10 14  1  0
 10  9  1  0
 10 11  1  1
 12 11  1  0
 13 12  2  0
 14 21  1  0
 15 14  2  0
 16 12  1  0
 18 20  1  0
 18 17  1  6
 19 18  1  0
 20 22  1  0
 20 21  1  6
 22 24  2  0
 22 23  1  0
M  END
$$$$
