DDV.pdb
     RDKit          3D

 24 23  0  0  1  0  0  0  0  0999 V2000
    9.4131  -17.5442   20.2802 N   0  0  0  0  0  0  0  0  0  0  0  0
    8.7032  -16.2949   20.3259 C   0  0  1  0  0  0  0  0  0  0  0  0
    7.6933  -16.2308   19.2067 C   0  0  0  0  0  0  0  0  0  0  0  0
    8.2737  -16.5313   17.8963 C   0  0  0  0  0  0  0  0  0  0  0  0
    9.4955  -16.8246   17.8438 O   0  0  0  0  0  0  0  0  0  0  0  0
    8.0666  -16.0622   21.6537 C   0  0  0  0  0  0  0  0  0  0  0  0
    7.2046  -15.1615   21.8215 O   0  0  0  0  0  0  0  0  0  0  0  0
    7.5743  -16.5172   16.6991 O   0  0  0  0  0  0  0  0  0  0  0  0
    8.3943  -16.8392   22.7998 N   0  0  0  0  0  0  0  0  0  0  0  0
    7.8196  -16.6241   24.0933 C   0  0  1  0  0  0  0  0  0  0  0  0
    7.8687  -17.8344   24.9967 C   0  0  0  0  0  0  0  0  0  0  0  0
    7.4425  -19.0787   24.3605 C   0  0  0  0  0  0  0  0  0  0  0  0
    6.3706  -19.1052   23.7123 O   0  0  0  0  0  0  0  0  0  0  0  0
    8.4363  -15.4962   24.8301 C   0  0  0  0  0  0  0  0  0  0  0  0
    9.6812  -15.3785   24.8147 O   0  0  0  0  0  0  0  0  0  0  0  0
    8.1805  -20.2460   24.4431 O   0  0  0  0  0  0  0  0  0  0  0  0
    6.2006  -12.7808   27.1595 C   0  0  0  0  0  0  0  0  0  0  0  0
    7.3785  -12.2742   26.3682 C   0  0  2  0  0  0  0  0  0  0  0  0
    6.9496  -11.9609   24.9320 C   0  0  0  0  0  0  0  0  0  0  0  0
    8.3702  -13.4207   26.2623 C   0  0  2  0  0  0  0  0  0  0  0  0
    7.7120  -14.5280   25.5607 N   0  0  0  0  0  0  0  0  0  0  0  0
    8.7323  -13.9201   27.6259 C   0  0  0  0  0  0  0  0  0  0  0  0
    9.5374  -13.1837   28.4834 O   0  0  0  0  0  0  0  0  0  0  0  0
    8.3231  -15.0310   28.0575 O   0  0  0  0  0  0  0  0  0  0  0  0
  2  1  1  1
  3  4  1  0
  3  2  1  0
  4  8  1  0
  5  4  2  0
  6  2  1  0
  7  6  2  0
  9  6  1  0
 10 14  1  0
 10  9  1  0
 10 11  1  1
 12 11  1  0
 13 12  2  0
 14 21  1  0
 15 14  2  0
 16 12  1  0
 18 20  1  0
 18 17  1  1
 19 18  1  0
 20 22  1  0
 20 21  1  6
 22 24  2  0
 22 23  1  0
M  END
$$$$
