DDV.pdb
     RDKit          3D

 24 23  0  0  1  0  0  0  0  0999 V2000
    9.6722  -13.7684   19.2359 N   0  0  0  0  0  0  0  0  0  0  0  0
    8.3878  -13.3524   19.7298 C   0  0  1  0  0  0  0  0  0  0  0  0
    7.3403  -13.5200   18.6568 C   0  0  0  0  0  0  0  0  0  0  0  0
    7.8876  -14.0355   17.4003 C   0  0  0  0  0  0  0  0  0  0  0  0
    8.3152  -15.2180   17.3825 O   0  0  0  0  0  0  0  0  0  0  0  0
    8.0113  -14.0696   20.9814 C   0  0  0  0  0  0  0  0  0  0  0  0
    6.9261  -13.8356   21.5730 O   0  0  0  0  0  0  0  0  0  0  0  0
    7.9715  -13.3145   16.2189 O   0  0  0  0  0  0  0  0  0  0  0  0
    8.8509  -15.0531   21.5751 N   0  0  0  0  0  0  0  0  0  0  0  0
    8.5289  -15.7415   22.7884 C   0  0  1  0  0  0  0  0  0  0  0  0
    9.1373  -17.1207   22.8926 C   0  0  0  0  0  0  0  0  0  0  0  0
    8.7575  -17.8573   24.0958 C   0  0  0  0  0  0  0  0  0  0  0  0
    7.6072  -17.7131   24.5709 O   0  0  0  0  0  0  0  0  0  0  0  0
    8.9145  -14.9939   24.0082 C   0  0  0  0  0  0  0  0  0  0  0  0
   10.1149  -14.6806   24.1656 O   0  0  0  0  0  0  0  0  0  0  0  0
    9.6242  -18.7196   24.7435 O   0  0  0  0  0  0  0  0  0  0  0  0
    6.0634  -13.5977   26.5917 C   0  0  0  0  0  0  0  0  0  0  0  0
    7.3838  -12.8720   26.5894 C   0  0  2  0  0  0  0  0  0  0  0  0
    7.4075  -11.8302   25.4674 C   0  0  0  0  0  0  0  0  0  0  0  0
    8.4517  -13.8913   26.2292 C   0  0  2  0  0  0  0  0  0  0  0  0
    8.0135  -14.6022   25.0233 N   0  0  0  0  0  0  0  0  0  0  0  0
    8.5813  -14.9119   27.3163 C   0  0  0  0  0  0  0  0  0  0  0  0
    9.1215  -14.5954   28.5546 O   0  0  0  0  0  0  0  0  0  0  0  0
    8.2061  -16.1043   27.1569 O   0  0  0  0  0  0  0  0  0  0  0  0
  2  1  1  6
  3  4  1  0
  3  2  1  0
  4  8  1  0
  5  4  2  0
  6  2  1  0
  7  6  2  0
  9  6  1  0
 10 14  1  0
 10  9  1  0
 10 11  1  6
 12 11  1  0
 13 12  2  0
 14 21  1  0
 15 14  2  0
 16 12  1  0
 18 20  1  0
 18 17  1  6
 19 18  1  0
 20 22  1  0
 20 21  1  6
 22 24  2  0
 22 23  1  0
M  END
$$$$
