DDV.pdb
     RDKit          3D

 24 23  0  0  1  0  0  0  0  0999 V2000
    9.0441  -17.4764   20.3812 N   0  0  0  0  0  0  0  0  0  0  0  0
    8.4429  -16.1706   20.3725 C   0  0  1  0  0  0  0  0  0  0  0  0
    7.4671  -16.0563   19.2273 C   0  0  0  0  0  0  0  0  0  0  0  0
    8.0883  -16.2916   17.9224 C   0  0  0  0  0  0  0  0  0  0  0  0
    9.3112  -16.5837   17.8936 O   0  0  0  0  0  0  0  0  0  0  0  0
    7.7994  -15.8429   21.6768 C   0  0  0  0  0  0  0  0  0  0  0  0
    7.2141  -14.7454   21.8646 O   0  0  0  0  0  0  0  0  0  0  0  0
    7.4269  -16.2167   16.7061 O   0  0  0  0  0  0  0  0  0  0  0  0
    7.8096  -16.7456   22.7767 N   0  0  0  0  0  0  0  0  0  0  0  0
    7.2185  -16.4526   24.0473 C   0  0  1  0  0  0  0  0  0  0  0  0
    7.0847  -17.6535   24.9546 C   0  0  0  0  0  0  0  0  0  0  0  0
    6.8871  -18.9196   24.2530 C   0  0  0  0  0  0  0  0  0  0  0  0
    5.8283  -19.1112   23.6111 O   0  0  0  0  0  0  0  0  0  0  0  0
    7.9418  -15.4040   24.8041 C   0  0  0  0  0  0  0  0  0  0  0  0
    9.1922  -15.4084   24.7898 O   0  0  0  0  0  0  0  0  0  0  0  0
    7.8308  -19.9313   24.2659 O   0  0  0  0  0  0  0  0  0  0  0  0
    5.9785  -12.6003   27.2338 C   0  0  0  0  0  0  0  0  0  0  0  0
    7.1672  -12.1365   26.4324 C   0  0  2  0  0  0  0  0  0  0  0  0
    6.7238  -11.7298   25.0243 C   0  0  0  0  0  0  0  0  0  0  0  0
    8.0766  -13.3398   26.2477 C   0  0  2  0  0  0  0  0  0  0  0  0
    7.3149  -14.3831   25.5528 N   0  0  0  0  0  0  0  0  0  0  0  0
    8.4722  -13.8994   27.5782 C   0  0  0  0  0  0  0  0  0  0  0  0
    8.0382  -15.1467   28.0041 O   0  0  0  0  0  0  0  0  0  0  0  0
    9.2168  -13.2642   28.3719 O   0  0  0  0  0  0  0  0  0  0  0  0
  2  1  1  1
  3  4  1  0
  3  2  1  0
  4  8  1  0
  5  4  2  0
  6  2  1  0
  7  6  2  0
  9  6  1  0
 10 14  1  0
 10  9  1  0
 10 11  1  1
 12 11  1  0
 13 12  2  0
 14 21  1  0
 15 14  2  0
 16 12  1  0
 18 20  1  0
 18 17  1  1
 19 18  1  0
 20 22  1  0
 20 21  1  6
 22 24  2  0
 22 23  1  0
M  END
$$$$
