QMG.pdb
     RDKit          3D

 22 21  0  0  1  0  0  0  0  0999 V2000
   25.9205  -15.8644  -21.9960 N   0  0  0  0  0  0  0  0  0  0  0  0
   24.5796  -15.9354  -22.5206 C   0  0  0  0  0  0  0  0  0  0  0  0
   24.3012  -16.7991  -23.3877 O   0  0  0  0  0  0  0  0  0  0  0  0
   23.5952  -14.9838  -22.0072 C   0  0  0  0  0  0  0  0  0  0  0  0
   24.2197  -14.0630  -21.0036 C   0  0  0  0  0  0  0  0  0  0  0  0
   23.5403  -12.7346  -20.9419 C   0  0  2  0  0  0  0  0  0  0  0  0
   24.0097  -11.9215  -22.0500 N   0  0  0  0  0  0  0  0  0  0  0  0
   23.9211  -12.1185  -19.6317 C   0  0  0  0  0  0  0  0  0  0  0  0
   24.1188  -12.8453  -18.6525 O   0  0  0  0  0  0  0  0  0  0  0  0
   27.2881  -10.6465  -14.3147 C   0  0  0  0  0  0  0  0  0  0  0  0
   27.0453  -11.3477  -15.9828 S   0  0  0  0  0  0  0  0  0  0  0  0
   26.8454  -10.0168  -17.1816 C   0  0  0  0  0  0  0  0  0  0  0  0
   25.9902  -10.4042  -18.3159 C   0  0  0  0  0  0  0  0  0  0  0  0
   24.5453  -10.1151  -18.2966 C   0  0  2  0  0  0  0  0  0  0  0  0
   24.0412  -10.7286  -19.5593 N   0  0  0  0  0  0  0  0  0  0  0  0
   24.0952   -8.7229  -18.3405 C   0  0  0  0  0  0  0  0  0  0  0  0
   24.1590   -8.0428  -19.3848 O   0  0  0  0  0  0  0  0  0  0  0  0
   23.5570   -8.0545  -17.1985 N   0  0  0  0  0  0  0  0  0  0  0  0
   23.1734   -6.6588  -17.2202 C   0  0  0  0  0  0  0  0  0  0  0  0
   24.3450   -5.7577  -17.1827 C   0  0  0  0  0  0  0  0  0  0  0  0
   24.1530   -4.3889  -17.2265 O   0  0  0  0  0  0  0  0  0  0  0  0
   25.5025   -6.2638  -17.1109 O   0  0  0  0  0  0  0  0  0  0  0  0
  1  2  1  0
  2  3  2  0
  4  5  1  0
  4  2  1  0
  6  8  1  0
  6  5  1  0
  6  7  1  6
  8 15  1  0
  9  8  2  0
 10 11  1  0
 11 12  1  0
 12 13  1  0
 14 13  1  6
 14 16  1  0
 15 14  1  0
 16 17  2  0
 16 18  1  0
 18 19  1  0
 20 21  1  0
 20 19  1  0
 22 20  2  0
M  END
$$$$
