QMG.pdb
     RDKit          3D

 22 21  0  0  1  0  0  0  0  0999 V2000
   23.2899  -22.5809  -13.4098 N   0  0  0  0  0  0  0  0  0  0  0  0
   21.8861  -22.8837  -13.5353 C   0  0  0  0  0  0  0  0  0  0  0  0
   21.5338  -24.0028  -13.9811 O   0  0  0  0  0  0  0  0  0  0  0  0
   20.9280  -21.8564  -13.1293 C   0  0  0  0  0  0  0  0  0  0  0  0
   21.6381  -20.6210  -12.6661 C   0  0  0  0  0  0  0  0  0  0  0  0
   22.1603  -20.7468  -11.2728 C   0  0  2  0  0  0  0  0  0  0  0  0
   21.3570  -19.9098  -10.3989 N   0  0  0  0  0  0  0  0  0  0  0  0
   23.5807  -20.2747  -11.3028 C   0  0  0  0  0  0  0  0  0  0  0  0
   23.8341  -19.1343  -11.7046 O   0  0  0  0  0  0  0  0  0  0  0  0
   27.2734  -19.3161   -5.8563 C   0  0  0  0  0  0  0  0  0  0  0  0
   27.4245  -20.5865   -7.1586 S   0  0  0  0  0  0  0  0  0  0  0  0
   26.4583  -20.1010   -8.6004 C   0  0  0  0  0  0  0  0  0  0  0  0
   26.6121  -21.0404   -9.7239 C   0  0  0  0  0  0  0  0  0  0  0  0
   26.0084  -20.7440  -11.0352 C   0  0  2  0  0  0  0  0  0  0  0  0
   24.5819  -21.1481  -10.8714 N   0  0  0  0  0  0  0  0  0  0  0  0
   26.4786  -21.4676  -12.2175 C   0  0  0  0  0  0  0  0  0  0  0  0
   26.3027  -22.6959  -12.3510 O   0  0  0  0  0  0  0  0  0  0  0  0
   27.1657  -20.8206  -13.2898 N   0  0  0  0  0  0  0  0  0  0  0  0
   27.3172  -21.4248  -14.5966 C   0  0  0  0  0  0  0  0  0  0  0  0
   27.8357  -20.4675  -15.5970 C   0  0  0  0  0  0  0  0  0  0  0  0
   28.8874  -20.8395  -16.4143 O   0  0  0  0  0  0  0  0  0  0  0  0
   27.3014  -19.3236  -15.6819 O   0  0  0  0  0  0  0  0  0  0  0  0
  1  2  1  0
  2  3  2  0
  4  5  1  0
  4  2  1  0
  6  8  1  0
  6  5  1  0
  6  7  1  1
  8 15  1  0
  9  8  2  0
 10 11  1  0
 11 12  1  0
 12 13  1  0
 14 13  1  1
 14 16  1  0
 15 14  1  0
 16 17  2  0
 16 18  1  0
 18 19  1  0
 20 21  1  0
 20 19  1  0
 22 20  2  0
M  END
$$$$
