QMG.pdb
     RDKit          3D

 22 21  0  0  1  0  0  0  0  0999 V2000
   28.2783  -22.1352  -19.2863 N   0  0  0  0  0  0  0  0  0  0  0  0
   29.4331  -21.4328  -18.7851 C   0  0  0  0  0  0  0  0  0  0  0  0
   30.2265  -20.8935  -19.5944 O   0  0  0  0  0  0  0  0  0  0  0  0
   29.6245  -21.3817  -17.3364 C   0  0  0  0  0  0  0  0  0  0  0  0
   28.5935  -22.2123  -16.6347 C   0  0  0  0  0  0  0  0  0  0  0  0
   27.2290  -21.6089  -16.6984 C   0  0  2  0  0  0  0  0  0  0  0  0
   27.3639  -20.1766  -16.8983 N   0  0  0  0  0  0  0  0  0  0  0  0
   26.5683  -21.9028  -15.3876 C   0  0  0  0  0  0  0  0  0  0  0  0
   26.4382  -23.0756  -15.0216 O   0  0  0  0  0  0  0  0  0  0  0  0
   24.6086  -21.3473   -8.4489 C   0  0  0  0  0  0  0  0  0  0  0  0
   25.5040  -21.5448  -10.0275 S   0  0  0  0  0  0  0  0  0  0  0  0
   25.2755  -20.0764  -11.0471 C   0  0  0  0  0  0  0  0  0  0  0  0
   25.8987  -20.2097  -12.3745 C   0  0  0  0  0  0  0  0  0  0  0  0
   25.3225  -21.1154  -13.3842 C   0  0  2  0  0  0  0  0  0  0  0  0
   26.1165  -20.8307  -14.6144 N   0  0  0  0  0  0  0  0  0  0  0  0
   23.9243  -20.9438  -13.7820 C   0  0  0  0  0  0  0  0  0  0  0  0
   23.5488  -19.9692  -14.4651 O   0  0  0  0  0  0  0  0  0  0  0  0
   22.9034  -21.8740  -13.4172 N   0  0  0  0  0  0  0  0  0  0  0  0
   21.5085  -21.6703  -13.7465 C   0  0  0  0  0  0  0  0  0  0  0  0
   20.7721  -20.9910  -12.6591 C   0  0  0  0  0  0  0  0  0  0  0  0
   19.8305  -21.6949  -11.9310 O   0  0  0  0  0  0  0  0  0  0  0  0
   21.0229  -19.7741  -12.4193 O   0  0  0  0  0  0  0  0  0  0  0  0
  1  2  1  0
  2  3  2  0
  4  5  1  0
  4  2  1  0
  6  8  1  0
  6  5  1  0
  6  7  1  1
  8 15  1  0
  9  8  2  0
 10 11  1  0
 11 12  1  0
 12 13  1  0
 14 13  1  1
 14 16  1  0
 15 14  1  0
 16 17  2  0
 16 18  1  0
 18 19  1  0
 20 21  1  0
 20 19  1  0
 22 20  2  0
M  END
$$$$
