QMG.pdb
     RDKit          3D

 22 21  0  0  1  0  0  0  0  0999 V2000
   21.5660  -21.3772  -15.1145 N   0  0  0  0  0  0  0  0  0  0  0  0
   20.6048  -22.0891  -14.3099 C   0  0  0  0  0  0  0  0  0  0  0  0
   19.5618  -22.5362  -14.8460 O   0  0  0  0  0  0  0  0  0  0  0  0
   20.8984  -22.2586  -12.8875 C   0  0  0  0  0  0  0  0  0  0  0  0
   22.2596  -21.7257  -12.5588 C   0  0  0  0  0  0  0  0  0  0  0  0
   22.2650  -20.8854  -11.3243 C   0  0  2  0  0  0  0  0  0  0  0  0
   21.3055  -19.8080  -11.4922 N   0  0  0  0  0  0  0  0  0  0  0  0
   23.6531  -20.3435  -11.1802 C   0  0  0  0  0  0  0  0  0  0  0  0
   24.0678  -19.5100  -11.9923 O   0  0  0  0  0  0  0  0  0  0  0  0
   27.6438  -20.1362   -5.1146 C   0  0  0  0  0  0  0  0  0  0  0  0
   27.0504  -19.1852   -6.5555 S   0  0  0  0  0  0  0  0  0  0  0  0
   27.4517  -20.0659   -8.0758 C   0  0  0  0  0  0  0  0  0  0  0  0
   26.2745  -20.7118   -8.6801 C   0  0  0  0  0  0  0  0  0  0  0  0
   25.8743  -20.3949  -10.0626 C   0  0  2  0  0  0  0  0  0  0  0  0
   24.4408  -20.8031  -10.1221 N   0  0  0  0  0  0  0  0  0  0  0  0
   26.5198  -21.0990  -11.1718 C   0  0  0  0  0  0  0  0  0  0  0  0
   26.2848  -22.3002  -11.4152 O   0  0  0  0  0  0  0  0  0  0  0  0
   27.4556  -20.4624  -12.0434 N   0  0  0  0  0  0  0  0  0  0  0  0
   28.2285  -21.1928  -13.0256 C   0  0  0  0  0  0  0  0  0  0  0  0
   27.6032  -21.1590  -14.3650 C   0  0  0  0  0  0  0  0  0  0  0  0
   28.3965  -20.9722  -15.4823 O   0  0  0  0  0  0  0  0  0  0  0  0
   26.3495  -21.3028  -14.4574 O   0  0  0  0  0  0  0  0  0  0  0  0
  1  2  1  0
  2  3  2  0
  4  5  1  0
  4  2  1  0
  6  8  1  0
  6  5  1  0
  6  7  1  6
  8 15  1  0
  9  8  2  0
 10 11  1  0
 11 12  1  0
 12 13  1  0
 14 13  1  1
 14 16  1  0
 15 14  1  0
 16 17  2  0
 16 18  1  0
 18 19  1  0
 20 21  1  0
 20 19  1  0
 22 20  2  0
M  END
$$$$
