QMG.pdb
     RDKit          3D

 22 21  0  0  1  0  0  0  0  0999 V2000
   18.1749  -13.7238  -15.2663 N   0  0  0  0  0  0  0  0  0  0  0  0
   18.1738  -14.8448  -16.1726 C   0  0  0  0  0  0  0  0  0  0  0  0
   17.2726  -15.7133  -16.0788 O   0  0  0  0  0  0  0  0  0  0  0  0
   19.2385  -14.9142  -17.1726 C   0  0  0  0  0  0  0  0  0  0  0  0
   20.0835  -13.6774  -17.1357 C   0  0  0  0  0  0  0  0  0  0  0  0
   21.4582  -13.9046  -17.6727 C   0  0  2  0  0  0  0  0  0  0  0  0
   21.7450  -15.3277  -17.6268 N   0  0  0  0  0  0  0  0  0  0  0  0
   22.3958  -13.1445  -16.7870 C   0  0  0  0  0  0  0  0  0  0  0  0
   22.9200  -13.7149  -15.8246 O   0  0  0  0  0  0  0  0  0  0  0  0
   27.7259  -13.2691  -14.5722 C   0  0  0  0  0  0  0  0  0  0  0  0
   26.2035  -13.1010  -15.5657 S   0  0  0  0  0  0  0  0  0  0  0  0
   26.1944  -11.5057  -16.4042 C   0  0  0  0  0  0  0  0  0  0  0  0
   24.9116  -11.2273  -17.0712 C   0  0  0  0  0  0  0  0  0  0  0  0
   23.6762  -11.0728  -16.2828 C   0  0  2  0  0  0  0  0  0  0  0  0
   22.6491  -11.8026  -17.0811 N   0  0  0  0  0  0  0  0  0  0  0  0
   23.1225   -9.7333  -16.0785 C   0  0  0  0  0  0  0  0  0  0  0  0
   22.7348   -9.0284  -17.0325 O   0  0  0  0  0  0  0  0  0  0  0  0
   22.9902   -9.1475  -14.7823 N   0  0  0  0  0  0  0  0  0  0  0  0
   22.5131   -7.7955  -14.5822 C   0  0  0  0  0  0  0  0  0  0  0  0
   21.0889   -7.6464  -14.9501 C   0  0  0  0  0  0  0  0  0  0  0  0
   20.1277   -8.3561  -14.2537 O   0  0  0  0  0  0  0  0  0  0  0  0
   20.7816   -6.8680  -15.8993 O   0  0  0  0  0  0  0  0  0  0  0  0
  1  2  1  0
  2  3  2  0
  4  5  1  0
  4  2  1  0
  6  8  1  0
  6  5  1  0
  6  7  1  1
  8 15  1  0
  9  8  2  0
 10 11  1  0
 11 12  1  0
 12 13  1  0
 14 13  1  6
 14 16  1  0
 15 14  1  0
 16 17  2  0
 16 18  1  0
 18 19  1  0
 20 21  1  0
 20 19  1  0
 22 20  2  0
M  END
$$$$
