QMG.pdb
     RDKit          3D

 22 21  0  0  1  0  0  0  0  0999 V2000
   20.3699  -19.9291  -15.3246 N   0  0  0  0  0  0  0  0  0  0  0  0
   19.6475  -21.0719  -14.8243 C   0  0  0  0  0  0  0  0  0  0  0  0
   18.5267  -21.3556  -15.3127 O   0  0  0  0  0  0  0  0  0  0  0  0
   20.2670  -21.8565  -13.7572 C   0  0  0  0  0  0  0  0  0  0  0  0
   21.5714  -21.2488  -13.3396 C   0  0  0  0  0  0  0  0  0  0  0  0
   21.6619  -21.0407  -11.8636 C   0  0  2  0  0  0  0  0  0  0  0  0
   20.6616  -20.0638  -11.4705 N   0  0  0  0  0  0  0  0  0  0  0  0
   23.0416  -20.5300  -11.5862 C   0  0  0  0  0  0  0  0  0  0  0  0
   23.3212  -19.3570  -11.8545 O   0  0  0  0  0  0  0  0  0  0  0  0
   27.7598  -19.0376   -6.4236 C   0  0  0  0  0  0  0  0  0  0  0  0
   26.3124  -19.9347   -7.0818 S   0  0  0  0  0  0  0  0  0  0  0  0
   26.7589  -20.7750   -8.6123 C   0  0  0  0  0  0  0  0  0  0  0  0
   25.5837  -21.2830   -9.3396 C   0  0  0  0  0  0  0  0  0  0  0  0
   25.3519  -20.9041  -10.7448 C   0  0  2  0  0  0  0  0  0  0  0  0
   23.9759  -21.4056  -11.0279 N   0  0  0  0  0  0  0  0  0  0  0  0
   26.1950  -21.4872  -11.7897 C   0  0  0  0  0  0  0  0  0  0  0  0
   26.6307  -22.6538  -11.7097 O   0  0  0  0  0  0  0  0  0  0  0  0
   26.5730  -20.7644  -12.9625 N   0  0  0  0  0  0  0  0  0  0  0  0
   27.4304  -21.3279  -13.9837 C   0  0  0  0  0  0  0  0  0  0  0  0
   27.5608  -20.4371  -15.1565 C   0  0  0  0  0  0  0  0  0  0  0  0
   28.4248  -20.7809  -16.1801 O   0  0  0  0  0  0  0  0  0  0  0  0
   26.8742  -19.3749  -15.1959 O   0  0  0  0  0  0  0  0  0  0  0  0
  1  2  1  0
  2  3  2  0
  4  5  1  0
  4  2  1  0
  6  8  1  0
  6  5  1  0
  6  7  1  6
  8 15  1  0
  9  8  2  0
 10 11  1  0
 11 12  1  0
 12 13  1  0
 14 13  1  1
 14 16  1  0
 15 14  1  0
 16 17  2  0
 16 18  1  0
 18 19  1  0
 20 21  1  0
 20 19  1  0
 22 20  2  0
M  END
$$$$
