QMG.pdb
     RDKit          3D

 22 21  0  0  1  0  0  0  0  0999 V2000
   18.0734  -22.5094  -13.6826 N   0  0  0  0  0  0  0  0  0  0  0  0
   19.4117  -22.9847  -13.4357 C   0  0  0  0  0  0  0  0  0  0  0  0
   19.6956  -23.4748  -12.3157 O   0  0  0  0  0  0  0  0  0  0  0  0
   20.3864  -22.8716  -14.5198 C   0  0  0  0  0  0  0  0  0  0  0  0
   21.0483  -21.5275  -14.5011 C   0  0  0  0  0  0  0  0  0  0  0  0
   21.1720  -20.9673  -13.1224 C   0  0  2  0  0  0  0  0  0  0  0  0
   20.2336  -19.8676  -12.9825 N   0  0  0  0  0  0  0  0  0  0  0  0
   22.5820  -20.4842  -12.9807 C   0  0  0  0  0  0  0  0  0  0  0  0
   22.9150  -19.4172  -13.5067 O   0  0  0  0  0  0  0  0  0  0  0  0
   25.7359  -19.1996   -8.4699 C   0  0  0  0  0  0  0  0  0  0  0  0
   26.8721  -20.6091   -8.7058 S   0  0  0  0  0  0  0  0  0  0  0  0
   26.7307  -21.2321  -10.3910 C   0  0  0  0  0  0  0  0  0  0  0  0
   25.3305  -21.3623  -10.8278 C   0  0  0  0  0  0  0  0  0  0  0  0
   24.8930  -20.7969  -12.1164 C   0  0  2  0  0  0  0  0  0  0  0  0
   23.4827  -21.2638  -12.2512 N   0  0  0  0  0  0  0  0  0  0  0  0
   25.5585  -21.2267  -13.3473 C   0  0  0  0  0  0  0  0  0  0  0  0
   25.6025  -22.4265  -13.6877 O   0  0  0  0  0  0  0  0  0  0  0  0
   26.1977  -20.3078  -14.2347 N   0  0  0  0  0  0  0  0  0  0  0  0
   26.8495  -20.7286  -15.4569 C   0  0  0  0  0  0  0  0  0  0  0  0
   28.1964  -20.1366  -15.6032 C   0  0  0  0  0  0  0  0  0  0  0  0
   29.2825  -20.9624  -15.8284 O   0  0  0  0  0  0  0  0  0  0  0  0
   28.3238  -18.8805  -15.5183 O   0  0  0  0  0  0  0  0  0  0  0  0
  1  2  1  0
  2  3  2  0
  4  5  1  0
  4  2  1  0
  6  8  1  0
  6  5  1  0
  6  7  1  6
  8 15  1  0
  9  8  2  0
 10 11  1  0
 11 12  1  0
 12 13  1  0
 14 13  1  1
 14 16  1  0
 15 14  1  0
 16 17  2  0
 16 18  1  0
 18 19  1  0
 20 21  1  0
 20 19  1  0
 22 20  2  0
M  END
$$$$
