QMG.pdb
     RDKit          3D

 22 21  0  0  1  0  0  0  0  0999 V2000
   23.0268  -23.8926  -18.2347 N   0  0  0  0  0  0  0  0  0  0  0  0
   24.1854  -24.3964  -18.9290 C   0  0  0  0  0  0  0  0  0  0  0  0
   24.0340  -25.0407  -19.9954 O   0  0  0  0  0  0  0  0  0  0  0  0
   25.4996  -24.1262  -18.3477 C   0  0  0  0  0  0  0  0  0  0  0  0
   25.3781  -23.2294  -17.1535 C   0  0  0  0  0  0  0  0  0  0  0  0
   26.0295  -23.8009  -15.9373 C   0  0  2  0  0  0  0  0  0  0  0  0
   25.8550  -25.2427  -15.9516 N   0  0  0  0  0  0  0  0  0  0  0  0
   25.3395  -23.1935  -14.7556 C   0  0  0  0  0  0  0  0  0  0  0  0
   24.2785  -23.6823  -14.3536 O   0  0  0  0  0  0  0  0  0  0  0  0
   25.0400  -20.5113   -8.1494 C   0  0  0  0  0  0  0  0  0  0  0  0
   25.3780  -21.3905   -9.7133 S   0  0  0  0  0  0  0  0  0  0  0  0
   26.2080  -20.2843  -10.8688 C   0  0  0  0  0  0  0  0  0  0  0  0
   26.4172  -20.9023  -12.1888 C   0  0  0  0  0  0  0  0  0  0  0  0
   25.2941  -21.5294  -12.9079 C   0  0  2  0  0  0  0  0  0  0  0  0
   25.9241  -22.0836  -14.1412 N   0  0  0  0  0  0  0  0  0  0  0  0
   24.1934  -20.6899  -13.3837 C   0  0  0  0  0  0  0  0  0  0  0  0
   24.2884  -20.0063  -14.4235 O   0  0  0  0  0  0  0  0  0  0  0  0
   22.9457  -20.5975  -12.6942 N   0  0  0  0  0  0  0  0  0  0  0  0
   21.8866  -19.7044  -13.1139 C   0  0  0  0  0  0  0  0  0  0  0  0
   20.9678  -20.3437  -14.0799 C   0  0  0  0  0  0  0  0  0  0  0  0
   21.4254  -20.6651  -15.3448 O   0  0  0  0  0  0  0  0  0  0  0  0
   19.7774  -20.5830  -13.7239 O   0  0  0  0  0  0  0  0  0  0  0  0
  1  2  1  0
  2  3  2  0
  4  5  1  0
  4  2  1  0
  6  8  1  0
  6  5  1  0
  6  7  1  1
  8 15  1  0
  9  8  2  0
 10 11  1  0
 11 12  1  0
 12 13  1  0
 14 13  1  6
 14 16  1  0
 15 14  1  0
 16 17  2  0
 16 18  1  0
 18 19  1  0
 20 21  1  0
 20 19  1  0
 22 20  2  0
M  END
$$$$
