QMG.pdb
     RDKit          3D

 22 21  0  0  1  0  0  0  0  0999 V2000
   21.4420  -19.9513  -16.0718 N   0  0  0  0  0  0  0  0  0  0  0  0
   20.6810  -20.2264  -14.8788 C   0  0  0  0  0  0  0  0  0  0  0  0
   19.5099  -20.6660  -14.9817 O   0  0  0  0  0  0  0  0  0  0  0  0
   21.3220  -19.9771  -13.5884 C   0  0  0  0  0  0  0  0  0  0  0  0
   22.7669  -19.6257  -13.7721 C   0  0  0  0  0  0  0  0  0  0  0  0
   23.6182  -20.8211  -14.0488 C   0  0  2  0  0  0  0  0  0  0  0  0
   23.5814  -21.6953  -12.8896 N   0  0  0  0  0  0  0  0  0  0  0  0
   25.0061  -20.3133  -14.2879 C   0  0  0  0  0  0  0  0  0  0  0  0
   25.1679  -19.2426  -14.8826 O   0  0  0  0  0  0  0  0  0  0  0  0
   30.7910  -21.3246  -10.9592 C   0  0  0  0  0  0  0  0  0  0  0  0
   29.0901  -21.2046  -10.3068 S   0  0  0  0  0  0  0  0  0  0  0  0
   28.0063  -20.4878  -11.5557 C   0  0  0  0  0  0  0  0  0  0  0  0
   28.2212  -21.0717  -12.8903 C   0  0  0  0  0  0  0  0  0  0  0  0
   27.4686  -20.5734  -14.0551 C   0  0  2  0  0  0  0  0  0  0  0  0
   26.0824  -21.0745  -13.8260 N   0  0  0  0  0  0  0  0  0  0  0  0
   27.8302  -21.0440  -15.3932 C   0  0  0  0  0  0  0  0  0  0  0  0
   27.5154  -22.1815  -15.7986 O   0  0  0  0  0  0  0  0  0  0  0  0
   28.5627  -20.2382  -16.3177 N   0  0  0  0  0  0  0  0  0  0  0  0
   28.9444  -20.7101  -17.6319 C   0  0  0  0  0  0  0  0  0  0  0  0
   28.1350  -20.0914  -18.7035 C   0  0  0  0  0  0  0  0  0  0  0  0
   26.8546  -20.5553  -18.9439 O   0  0  0  0  0  0  0  0  0  0  0  0
   28.6365  -19.1463  -19.3792 O   0  0  0  0  0  0  0  0  0  0  0  0
  1  2  1  0
  2  3  2  0
  4  5  1  0
  4  2  1  0
  6  8  1  0
  6  5  1  0
  6  7  1  1
  8 15  1  0
  9  8  2  0
 10 11  1  0
 11 12  1  0
 12 13  1  0
 14 13  1  1
 14 16  1  0
 15 14  1  0
 16 17  2  0
 16 18  1  0
 18 19  1  0
 20 21  1  0
 20 19  1  0
 22 20  2  0
M  END
$$$$
