QMG.pdb
     RDKit          3D

 22 21  0  0  1  0  0  0  0  0999 V2000
   19.3493  -14.1479  -16.9637 N   0  0  0  0  0  0  0  0  0  0  0  0
   19.8577  -14.9950  -18.0134 C   0  0  0  0  0  0  0  0  0  0  0  0
   19.1944  -15.9982  -18.3724 O   0  0  0  0  0  0  0  0  0  0  0  0
   21.1400  -14.6366  -18.6179 C   0  0  0  0  0  0  0  0  0  0  0  0
   21.6419  -13.3365  -18.0677 C   0  0  0  0  0  0  0  0  0  0  0  0
   23.0672  -13.4104  -17.6285 C   0  0  2  0  0  0  0  0  0  0  0  0
   23.2947  -14.7033  -17.0069 N   0  0  0  0  0  0  0  0  0  0  0  0
   23.2700  -12.3031  -16.6416 C   0  0  0  0  0  0  0  0  0  0  0  0
   22.7706  -12.3934  -15.5152 O   0  0  0  0  0  0  0  0  0  0  0  0
   28.1556  -13.6795  -15.2123 C   0  0  0  0  0  0  0  0  0  0  0  0
   27.2909  -12.4876  -16.2914 S   0  0  0  0  0  0  0  0  0  0  0  0
   26.7283  -11.0789  -15.3181 C   0  0  0  0  0  0  0  0  0  0  0  0
   25.8941  -10.1511  -16.1000 C   0  0  0  0  0  0  0  0  0  0  0  0
   24.4249  -10.1970  -15.9962 C   0  0  2  0  0  0  0  0  0  0  0  0
   24.0244  -11.1939  -17.0311 N   0  0  0  0  0  0  0  0  0  0  0  0
   23.6496   -8.9938  -16.3025 C   0  0  0  0  0  0  0  0  0  0  0  0
   23.6235   -8.5013  -17.4489 O   0  0  0  0  0  0  0  0  0  0  0  0
   22.8767   -8.3077  -15.3164 N   0  0  0  0  0  0  0  0  0  0  0  0
   22.1372   -7.0978  -15.6077 C   0  0  0  0  0  0  0  0  0  0  0  0
   21.4792   -6.5430  -14.4055 C   0  0  0  0  0  0  0  0  0  0  0  0
   20.8666   -5.3051  -14.4744 O   0  0  0  0  0  0  0  0  0  0  0  0
   21.4924   -7.2185  -13.3356 O   0  0  0  0  0  0  0  0  0  0  0  0
  1  2  1  0
  2  3  2  0
  4  5  1  0
  4  2  1  0
  6  8  1  0
  6  5  1  0
  6  7  1  1
  8 15  1  0
  9  8  2  0
 10 11  1  0
 11 12  1  0
 12 13  1  0
 14 13  1  6
 14 16  1  0
 15 14  1  0
 16 17  2  0
 16 18  1  0
 18 19  1  0
 20 21  1  0
 20 19  1  0
 22 20  2  0
M  END
$$$$
