QMG.pdb
     RDKit          3D

 22 21  0  0  1  0  0  0  0  0999 V2000
   19.4020  -19.8106  -13.5467 N   0  0  0  0  0  0  0  0  0  0  0  0
   19.2447  -21.2327  -13.7224 C   0  0  0  0  0  0  0  0  0  0  0  0
   18.0953  -21.7116  -13.8794 O   0  0  0  0  0  0  0  0  0  0  0  0
   20.4512  -22.0589  -13.7101 C   0  0  0  0  0  0  0  0  0  0  0  0
   21.6721  -21.2132  -13.5115 C   0  0  0  0  0  0  0  0  0  0  0  0
   21.9230  -20.8951  -12.0742 C   0  0  2  0  0  0  0  0  0  0  0  0
   20.9710  -19.8836  -11.6498 N   0  0  0  0  0  0  0  0  0  0  0  0
   23.3244  -20.3756  -11.9881 C   0  0  0  0  0  0  0  0  0  0  0  0
   23.5609  -19.2073  -12.3129 O   0  0  0  0  0  0  0  0  0  0  0  0
   26.9768  -19.3205   -6.2556 C   0  0  0  0  0  0  0  0  0  0  0  0
   26.5157  -20.6661   -7.4000 S   0  0  0  0  0  0  0  0  0  0  0  0
   26.5001  -20.0493   -9.0933 C   0  0  0  0  0  0  0  0  0  0  0  0
   26.1349  -21.0902  -10.0687 C   0  0  0  0  0  0  0  0  0  0  0  0
   25.7243  -20.7238  -11.4357 C   0  0  2  0  0  0  0  0  0  0  0  0
   24.3277  -21.2377  -11.5392 N   0  0  0  0  0  0  0  0  0  0  0  0
   26.4334  -21.3085  -12.5750 C   0  0  0  0  0  0  0  0  0  0  0  0
   26.2786  -22.5020  -12.9049 O   0  0  0  0  0  0  0  0  0  0  0  0
   27.3438  -20.5570  -13.3794 N   0  0  0  0  0  0  0  0  0  0  0  0
   28.1336  -21.1586  -14.4329 C   0  0  0  0  0  0  0  0  0  0  0  0
   27.5349  -20.9483  -15.7684 C   0  0  0  0  0  0  0  0  0  0  0  0
   28.2659  -21.2624  -16.8995 O   0  0  0  0  0  0  0  0  0  0  0  0
   26.3607  -20.4831  -15.8447 O   0  0  0  0  0  0  0  0  0  0  0  0
  1  2  1  0
  2  3  2  0
  4  5  1  0
  4  2  1  0
  6  8  1  0
  6  5  1  0
  6  7  1  6
  8 15  1  0
  9  8  2  0
 10 11  1  0
 11 12  1  0
 12 13  1  0
 14 13  1  1
 14 16  1  0
 15 14  1  0
 16 17  2  0
 16 18  1  0
 18 19  1  0
 20 21  1  0
 20 19  1  0
 22 20  2  0
M  END
$$$$
