QMG.pdb
     RDKit          3D

 22 21  0  0  1  0  0  0  0  0999 V2000
   18.9025  -14.6661  -15.6732 N   0  0  0  0  0  0  0  0  0  0  0  0
   17.7420  -14.1507  -16.3555 C   0  0  0  0  0  0  0  0  0  0  0  0
   16.8390  -14.9420  -16.7210 O   0  0  0  0  0  0  0  0  0  0  0  0
   17.6731  -12.7090  -16.5898 C   0  0  0  0  0  0  0  0  0  0  0  0
   18.8706  -12.0189  -16.0113 C   0  0  0  0  0  0  0  0  0  0  0  0
   18.8104  -10.5351  -16.1687 C   0  0  2  0  0  0  0  0  0  0  0  0
   18.7091  -10.2223  -17.5834 N   0  0  0  0  0  0  0  0  0  0  0  0
   20.0809   -9.9908  -15.5935 C   0  0  0  0  0  0  0  0  0  0  0  0
   20.4017  -10.2879  -14.4381 O   0  0  0  0  0  0  0  0  0  0  0  0
   26.6410  -10.0915  -14.5778 C   0  0  0  0  0  0  0  0  0  0  0  0
   24.8929  -10.2015  -15.0926 S   0  0  0  0  0  0  0  0  0  0  0  0
   24.5811   -9.0519  -16.4452 C   0  0  0  0  0  0  0  0  0  0  0  0
   23.1580   -8.9948  -16.8191 C   0  0  0  0  0  0  0  0  0  0  0  0
   22.1382   -8.6127  -15.8264 C   0  0  2  0  0  0  0  0  0  0  0  0
   20.8689   -9.1568  -16.3903 N   0  0  0  0  0  0  0  0  0  0  0  0
   21.8732   -7.1935  -15.5851 C   0  0  0  0  0  0  0  0  0  0  0  0
   21.2813   -6.4824  -16.4226 O   0  0  0  0  0  0  0  0  0  0  0  0
   22.2721   -6.5322  -14.3833 N   0  0  0  0  0  0  0  0  0  0  0  0
   22.0623   -5.1165  -14.1654 C   0  0  0  0  0  0  0  0  0  0  0  0
   23.0908   -4.2908  -14.8336 C   0  0  0  0  0  0  0  0  0  0  0  0
   23.0290   -2.9130  -14.7330 O   0  0  0  0  0  0  0  0  0  0  0  0
   24.0087   -4.8684  -15.4856 O   0  0  0  0  0  0  0  0  0  0  0  0
  1  2  1  0
  2  3  2  0
  4  5  1  0
  4  2  1  0
  6  8  1  0
  6  5  1  0
  6  7  1  6
  8 15  1  0
  9  8  2  0
 10 11  1  0
 11 12  1  0
 12 13  1  0
 14 13  1  6
 14 16  1  0
 15 14  1  0
 16 17  2  0
 16 18  1  0
 18 19  1  0
 20 21  1  0
 20 19  1  0
 22 20  2  0
M  END
$$$$
