QMG.pdb
     RDKit          3D

 22 21  0  0  1  0  0  0  0  0999 V2000
   27.9759  -17.1130  -14.8109 N   0  0  0  0  0  0  0  0  0  0  0  0
   27.7236  -17.6184  -16.1371 C   0  0  0  0  0  0  0  0  0  0  0  0
   28.2868  -17.0790  -17.1205 O   0  0  0  0  0  0  0  0  0  0  0  0
   26.8109  -18.7528  -16.2724 C   0  0  0  0  0  0  0  0  0  0  0  0
   26.3261  -19.2076  -14.9295 C   0  0  0  0  0  0  0  0  0  0  0  0
   27.2649  -20.1663  -14.2742 C   0  0  2  0  0  0  0  0  0  0  0  0
   27.7626  -21.0889  -15.2795 N   0  0  0  0  0  0  0  0  0  0  0  0
   26.4761  -20.8930  -13.2297 C   0  0  0  0  0  0  0  0  0  0  0  0
   25.8807  -21.9327  -13.5312 O   0  0  0  0  0  0  0  0  0  0  0  0
   26.9349  -18.9582   -6.8961 C   0  0  0  0  0  0  0  0  0  0  0  0
   26.5699  -20.7464   -6.9410 S   0  0  0  0  0  0  0  0  0  0  0  0
   25.5515  -21.1259   -8.3787 C   0  0  0  0  0  0  0  0  0  0  0  0
   26.1913  -20.7267   -9.6434 C   0  0  0  0  0  0  0  0  0  0  0  0
   25.5269  -20.9869  -10.9328 C   0  0  2  0  0  0  0  0  0  0  0  0
   26.4391  -20.3661  -11.9366 N   0  0  0  0  0  0  0  0  0  0  0  0
   24.2131  -20.3953  -11.1911 C   0  0  0  0  0  0  0  0  0  0  0  0
   24.0590  -19.1633  -11.3175 O   0  0  0  0  0  0  0  0  0  0  0  0
   23.0280  -21.1832  -11.3146 N   0  0  0  0  0  0  0  0  0  0  0  0
   21.7304  -20.6029  -11.5885 C   0  0  0  0  0  0  0  0  0  0  0  0
   20.6746  -21.6306  -11.7119 C   0  0  0  0  0  0  0  0  0  0  0  0
   19.7569  -21.7902  -10.6898 O   0  0  0  0  0  0  0  0  0  0  0  0
   20.6357  -22.3438  -12.7564 O   0  0  0  0  0  0  0  0  0  0  0  0
  1  2  1  0
  2  3  2  0
  4  5  1  0
  4  2  1  0
  6  8  1  0
  6  5  1  0
  6  7  1  6
  8 15  1  0
  9  8  2  0
 10 11  1  0
 11 12  1  0
 12 13  1  0
 14 13  1  1
 14 16  1  0
 15 14  1  0
 16 17  2  0
 16 18  1  0
 18 19  1  0
 20 21  1  0
 20 19  1  0
 22 20  2  0
M  END
$$$$
