QDY.pdb
     RDKit          3D

 30 30  0  0  1  0  0  0  0  0999 V2000
   20.3279  -12.8725  -16.5105 N   0  0  0  0  0  0  0  0  0  0  0  0
   19.4263  -13.9325  -16.8418 C   0  0  0  0  0  0  0  0  0  0  0  0
   19.8298  -15.0980  -16.7693 O   0  0  0  0  0  0  0  0  0  0  0  0
   18.0704  -13.5840  -17.2488 C   0  0  0  0  0  0  0  0  0  0  0  0
   17.8044  -12.1226  -17.2099 C   0  0  0  0  0  0  0  0  0  0  0  0
   17.5903  -11.5342  -15.8449 C   0  0  2  0  0  0  0  0  0  0  0  0
   16.5283  -12.1782  -15.1184 N   0  0  0  0  0  0  0  0  0  0  0  0
   17.3850  -10.0837  -16.0224 C   0  0  0  0  0  0  0  0  0  0  0  0
   17.3232   -9.6408  -17.1937 O   0  0  0  0  0  0  0  0  0  0  0  0
   17.2541   -9.1665  -14.9370 N   0  0  0  0  0  0  0  0  0  0  0  0
   16.8822   -7.7822  -15.1253 C   0  0  1  0  0  0  0  0  0  0  0  0
   16.0667   -7.3092  -13.9600 C   0  0  0  0  0  0  0  0  0  0  0  0
   14.7505   -7.9484  -13.8384 C   0  0  0  0  0  0  0  0  0  0  0  0
   14.0014   -8.0187  -14.8380 O   0  0  0  0  0  0  0  0  0  0  0  0
   18.0621   -6.9179  -15.3632 C   0  0  0  0  0  0  0  0  0  0  0  0
   19.1436   -7.1818  -14.7961 O   0  0  0  0  0  0  0  0  0  0  0  0
   14.3030   -8.4822  -12.6440 O   0  0  0  0  0  0  0  0  0  0  0  0
   15.0105   -1.9827  -20.4713 O   0  0  0  0  0  0  0  0  0  0  0  0
   16.0199   -2.7109  -19.8782 C   0  0  0  0  0  0  0  0  0  0  0  0
   17.1879   -2.0901  -19.5045 C   0  0  0  0  0  0  0  0  0  0  0  0
   18.2055   -2.8151  -18.9085 C   0  0  0  0  0  0  0  0  0  0  0  0
   18.0564   -4.1598  -18.6860 C   0  0  0  0  0  0  0  0  0  0  0  0
   19.1492   -4.9154  -18.0542 C   0  0  0  0  0  0  0  0  0  0  0  0
   19.0681   -4.9560  -16.5432 C   0  0  2  0  0  0  0  0  0  0  0  0
   17.9286   -5.8102  -16.2325 N   0  0  0  0  0  0  0  0  0  0  0  0
   18.8830   -3.6291  -15.9323 C   0  0  0  0  0  0  0  0  0  0  0  0
   17.7834   -3.3728  -15.1550 O   0  0  0  0  0  0  0  0  0  0  0  0
   16.8969   -4.7965  -19.0526 C   0  0  0  0  0  0  0  0  0  0  0  0
   15.8846   -4.0467  -19.6515 C   0  0  0  0  0  0  0  0  0  0  0  0
   19.7421   -2.7428  -16.1334 O   0  0  0  0  0  0  0  0  0  0  0  0
  2  3  2  0
  2  1  1  0
  4  2  1  0
  5  6  1  0
  5  4  1  0
  6  7  1  6
  6  8  1  0
  8  9  2  0
  8 10  1  0
 10 11  1  0
 11 12  1  1
 12 13  1  0
 13 17  1  0
 14 13  2  0
 15 11  1  0
 15 16  2  0
 18 19  1  0
 19 20  2  0
 20 21  1  0
 22 21  2  0
 22 23  1  0
 24 23  1  6
 24 25  1  0
 25 15  1  0
 26 24  1  0
 27 26  1  0
 28 22  1  0
 29 19  1  0
 29 28  2  0
 30 26  2  0
M  END
$$$$
