QDY.pdb
     RDKit          3D

 30 30  0  0  1  0  0  0  0  0999 V2000
   13.9111  -11.8741  -16.4413 N   0  0  0  0  0  0  0  0  0  0  0  0
   14.1881  -13.2775  -16.4435 C   0  0  0  0  0  0  0  0  0  0  0  0
   13.5949  -13.9973  -17.2536 O   0  0  0  0  0  0  0  0  0  0  0  0
   15.1615  -13.7908  -15.4871 C   0  0  0  0  0  0  0  0  0  0  0  0
   15.7412  -12.7347  -14.6173 C   0  0  0  0  0  0  0  0  0  0  0  0
   16.8878  -11.9623  -15.2040 C   0  0  2  0  0  0  0  0  0  0  0  0
   18.0455  -12.7805  -15.4503 N   0  0  0  0  0  0  0  0  0  0  0  0
   17.1536  -10.8244  -14.3030 C   0  0  0  0  0  0  0  0  0  0  0  0
   17.5573  -11.0784  -13.1434 O   0  0  0  0  0  0  0  0  0  0  0  0
   16.9760   -9.4599  -14.6815 N   0  0  0  0  0  0  0  0  0  0  0  0
   17.2801   -8.3583  -13.7959 C   0  0  1  0  0  0  0  0  0  0  0  0
   17.8064   -7.1982  -14.5857 C   0  0  0  0  0  0  0  0  0  0  0  0
   18.1587   -6.0226  -13.7798 C   0  0  0  0  0  0  0  0  0  0  0  0
   18.5874   -6.1763  -12.6145 O   0  0  0  0  0  0  0  0  0  0  0  0
   16.1153   -7.9784  -12.9624 C   0  0  0  0  0  0  0  0  0  0  0  0
   14.9920   -7.8516  -13.4944 O   0  0  0  0  0  0  0  0  0  0  0  0
   18.0324   -4.7352  -14.2682 O   0  0  0  0  0  0  0  0  0  0  0  0
   11.6853   -6.4087   -5.4945 O   0  0  0  0  0  0  0  0  0  0  0  0
   12.6244   -6.7631   -6.4397 C   0  0  0  0  0  0  0  0  0  0  0  0
   12.3480   -7.7609   -7.3438 C   0  0  0  0  0  0  0  0  0  0  0  0
   13.2862   -8.1219   -8.2954 C   0  0  0  0  0  0  0  0  0  0  0  0
   14.5002   -7.4864   -8.3439 C   0  0  0  0  0  0  0  0  0  0  0  0
   15.4867   -7.8849   -9.3599 C   0  0  0  0  0  0  0  0  0  0  0  0
   15.2258   -7.2924  -10.7283 C   0  0  2  0  0  0  0  0  0  0  0  0
   16.3106   -7.7686  -11.5774 N   0  0  0  0  0  0  0  0  0  0  0  0
   15.1946   -5.8202  -10.7310 C   0  0  0  0  0  0  0  0  0  0  0  0
   16.3626   -5.1036  -10.6984 O   0  0  0  0  0  0  0  0  0  0  0  0
   14.7937   -6.4877   -7.4491 C   0  0  0  0  0  0  0  0  0  0  0  0
   13.8337   -6.1400   -6.4987 C   0  0  0  0  0  0  0  0  0  0  0  0
   14.0891   -5.2363  -10.7633 O   0  0  0  0  0  0  0  0  0  0  0  0
  2  3  2  0
  2  1  1  0
  4  2  1  0
  5  6  1  0
  5  4  1  0
  6  7  1  1
  6  8  1  0
  8  9  2  0
  8 10  1  0
 10 11  1  0
 11 12  1  6
 12 13  1  0
 13 17  1  0
 14 13  2  0
 15 11  1  0
 15 16  2  0
 18 19  1  0
 19 20  2  0
 20 21  1  0
 22 21  2  0
 22 23  1  0
 24 23  1  1
 24 25  1  0
 25 15  1  0
 26 24  1  0
 27 26  1  0
 28 22  1  0
 29 19  1  0
 29 28  2  0
 30 26  2  0
M  END
$$$$
