QDY.pdb
     RDKit          3D

 30 30  0  0  1  0  0  0  0  0999 V2000
   18.5787  -21.8054  -17.6148 N   0  0  0  0  0  0  0  0  0  0  0  0
   18.4804  -23.2304  -17.5374 C   0  0  0  0  0  0  0  0  0  0  0  0
   17.8831  -23.8329  -18.4355 O   0  0  0  0  0  0  0  0  0  0  0  0
   19.0933  -23.9042  -16.3989 C   0  0  0  0  0  0  0  0  0  0  0  0
   19.6205  -22.9640  -15.3761 C   0  0  0  0  0  0  0  0  0  0  0  0
   20.2847  -23.5977  -14.1875 C   0  0  2  0  0  0  0  0  0  0  0  0
   20.3274  -25.0336  -14.2703 N   0  0  0  0  0  0  0  0  0  0  0  0
   19.5922  -23.0991  -12.9836 C   0  0  0  0  0  0  0  0  0  0  0  0
   19.5008  -21.8577  -12.8334 O   0  0  0  0  0  0  0  0  0  0  0  0
   19.0257  -23.9515  -11.9892 N   0  0  0  0  0  0  0  0  0  0  0  0
   18.2519  -23.4468  -10.8771 C   0  0  1  0  0  0  0  0  0  0  0  0
   16.9486  -22.8949  -11.3704 C   0  0  0  0  0  0  0  0  0  0  0  0
   16.6489  -21.5344  -10.9068 C   0  0  0  0  0  0  0  0  0  0  0  0
   15.9818  -21.3690   -9.8614 O   0  0  0  0  0  0  0  0  0  0  0  0
   18.0568  -24.4725   -9.8256 C   0  0  0  0  0  0  0  0  0  0  0  0
   17.9336  -25.6725  -10.1507 O   0  0  0  0  0  0  0  0  0  0  0  0
   17.0827  -20.4147  -11.5925 O   0  0  0  0  0  0  0  0  0  0  0  0
   17.1354  -27.2423   -1.4569 O   0  0  0  0  0  0  0  0  0  0  0  0
   17.3931  -26.5163   -2.6003 C   0  0  0  0  0  0  0  0  0  0  0  0
   16.4047  -25.7439   -3.1622 C   0  0  0  0  0  0  0  0  0  0  0  0
   16.6565  -25.0124   -4.3101 C   0  0  0  0  0  0  0  0  0  0  0  0
   17.8952  -25.0525   -4.8966 C   0  0  0  0  0  0  0  0  0  0  0  0
   18.1444  -24.2711   -6.1180 C   0  0  0  0  0  0  0  0  0  0  0  0
   17.8527  -25.0280   -7.3960 C   0  0  2  0  0  0  0  0  0  0  0  0
   18.0155  -24.0599   -8.4734 N   0  0  0  0  0  0  0  0  0  0  0  0
   16.4980  -25.6034   -7.4378 C   0  0  0  0  0  0  0  0  0  0  0  0
   16.2902  -26.9103   -7.0804 O   0  0  0  0  0  0  0  0  0  0  0  0
   18.8944  -25.8182   -4.3494 C   0  0  0  0  0  0  0  0  0  0  0  0
   18.6189  -26.5472   -3.1926 C   0  0  0  0  0  0  0  0  0  0  0  0
   15.5433  -24.8830   -7.8036 O   0  0  0  0  0  0  0  0  0  0  0  0
  2  3  2  0
  2  1  1  0
  4  2  1  0
  5  6  1  0
  5  4  1  0
  6  7  1  6
  6  8  1  0
  8  9  2  0
  8 10  1  0
 10 11  1  0
 11 12  1  6
 12 13  1  0
 13 17  1  0
 14 13  2  0
 15 11  1  0
 15 16  2  0
 18 19  1  0
 19 20  2  0
 20 21  1  0
 22 21  2  0
 22 23  1  0
 24 23  1  1
 24 25  1  0
 25 15  1  0
 26 24  1  0
 27 26  1  0
 28 22  1  0
 29 19  1  0
 29 28  2  0
 30 26  2  0
M  END
$$$$
