QDY.pdb
     RDKit          3D

 30 30  0  0  1  0  0  0  0  0999 V2000
   13.7032  -11.6667  -17.6428 N   0  0  0  0  0  0  0  0  0  0  0  0
   14.0371  -13.0577  -17.6426 C   0  0  0  0  0  0  0  0  0  0  0  0
   13.2986  -13.8444  -18.2444 O   0  0  0  0  0  0  0  0  0  0  0  0
   15.2375  -13.4797  -16.9309 C   0  0  0  0  0  0  0  0  0  0  0  0
   15.9536  -12.3565  -16.2725 C   0  0  0  0  0  0  0  0  0  0  0  0
   16.8672  -11.5572  -17.1567 C   0  0  2  0  0  0  0  0  0  0  0  0
   17.8753  -12.3627  -17.7933 N   0  0  0  0  0  0  0  0  0  0  0  0
   17.4214  -10.4632  -16.3359 C   0  0  0  0  0  0  0  0  0  0  0  0
   16.6236   -9.7942  -15.6374 O   0  0  0  0  0  0  0  0  0  0  0  0
   18.8086  -10.1307  -16.2971 N   0  0  0  0  0  0  0  0  0  0  0  0
   19.3196   -8.9993  -15.5560 C   0  0  1  0  0  0  0  0  0  0  0  0
   20.7510   -9.2385  -15.1812 C   0  0  0  0  0  0  0  0  0  0  0  0
   21.3501   -8.1803  -14.3586 C   0  0  0  0  0  0  0  0  0  0  0  0
   20.6723   -7.1737  -14.0543 O   0  0  0  0  0  0  0  0  0  0  0  0
   19.1457   -7.7271  -16.2956 C   0  0  0  0  0  0  0  0  0  0  0  0
   19.6112   -7.6166  -17.4498 O   0  0  0  0  0  0  0  0  0  0  0  0
   22.6531   -8.2566  -13.9020 O   0  0  0  0  0  0  0  0  0  0  0  0
   15.5700   -0.4962  -19.3882 O   0  0  0  0  0  0  0  0  0  0  0  0
   15.9213   -1.6990  -18.8131 C   0  0  0  0  0  0  0  0  0  0  0  0
   15.3415   -2.0913  -17.6301 C   0  0  0  0  0  0  0  0  0  0  0  0
   15.6894   -3.2976  -17.0471 C   0  0  0  0  0  0  0  0  0  0  0  0
   16.6163   -4.1118  -17.6455 C   0  0  0  0  0  0  0  0  0  0  0  0
   16.9764   -5.3890  -17.0104 C   0  0  0  0  0  0  0  0  0  0  0  0
   18.3209   -5.3664  -16.3152 C   0  0  2  0  0  0  0  0  0  0  0  0
   18.4520   -6.6660  -15.6683 N   0  0  0  0  0  0  0  0  0  0  0  0
   18.4434   -4.2926  -15.3152 C   0  0  0  0  0  0  0  0  0  0  0  0
   18.6981   -3.0051  -15.7104 O   0  0  0  0  0  0  0  0  0  0  0  0
   17.2055   -3.7365  -18.8270 C   0  0  0  0  0  0  0  0  0  0  0  0
   16.8401   -2.5169  -19.3970 C   0  0  0  0  0  0  0  0  0  0  0  0
   18.3118   -4.5733  -14.1036 O   0  0  0  0  0  0  0  0  0  0  0  0
  2  3  2  0
  2  1  1  0
  4  2  1  0
  5  6  1  0
  5  4  1  0
  6  7  1  1
  6  8  1  0
  8  9  2  0
  8 10  1  0
 10 11  1  0
 11 12  1  6
 12 13  1  0
 13 17  1  0
 14 13  2  0
 15 11  1  0
 15 16  2  0
 18 19  1  0
 19 20  2  0
 20 21  1  0
 22 21  2  0
 22 23  1  0
 24 23  1  1
 24 25  1  0
 25 15  1  0
 26 24  1  0
 27 26  1  0
 28 22  1  0
 29 19  1  0
 29 28  2  0
 30 26  2  0
M  END
$$$$
