QDY.pdb
     RDKit          3D

 30 30  0  0  1  0  0  0  0  0999 V2000
   17.3548  -16.0738  -14.7015 N   0  0  0  0  0  0  0  0  0  0  0  0
   17.4161  -16.1582  -16.1282 C   0  0  0  0  0  0  0  0  0  0  0  0
   17.3881  -17.2742  -16.6575 O   0  0  0  0  0  0  0  0  0  0  0  0
   17.5074  -14.9185  -16.8901 C   0  0  0  0  0  0  0  0  0  0  0  0
   17.6145  -13.7101  -16.0322 C   0  0  0  0  0  0  0  0  0  0  0  0
   16.9751  -12.4647  -16.5759 C   0  0  2  0  0  0  0  0  0  0  0  0
   16.3613  -12.6667  -17.8616 N   0  0  0  0  0  0  0  0  0  0  0  0
   18.0067  -11.4095  -16.5769 C   0  0  0  0  0  0  0  0  0  0  0  0
   18.8370  -11.4024  -15.6374 O   0  0  0  0  0  0  0  0  0  0  0  0
   18.1065  -10.4044  -17.5850 N   0  0  0  0  0  0  0  0  0  0  0  0
   19.1130   -9.3669  -17.5559 C   0  0  1  0  0  0  0  0  0  0  0  0
   19.1284   -8.6334  -18.8629 C   0  0  0  0  0  0  0  0  0  0  0  0
   20.1981   -7.6356  -18.9886 C   0  0  0  0  0  0  0  0  0  0  0  0
   21.0354   -7.5057  -18.0681 O   0  0  0  0  0  0  0  0  0  0  0  0
   18.9305   -8.4487  -16.4073 C   0  0  0  0  0  0  0  0  0  0  0  0
   17.7919   -8.0041  -16.1486 O   0  0  0  0  0  0  0  0  0  0  0  0
   20.3153   -6.8237  -20.1018 O   0  0  0  0  0  0  0  0  0  0  0  0
   20.5055   -5.1990   -8.4445 O   0  0  0  0  0  0  0  0  0  0  0  0
   20.5680   -5.8555   -9.6553 C   0  0  0  0  0  0  0  0  0  0  0  0
   19.6280   -6.8073   -9.9712 C   0  0  0  0  0  0  0  0  0  0  0  0
   19.6848   -7.4703  -11.1850 C   0  0  0  0  0  0  0  0  0  0  0  0
   20.6803   -7.1827  -12.0830 C   0  0  0  0  0  0  0  0  0  0  0  0
   20.7272   -7.8992  -13.3671 C   0  0  0  0  0  0  0  0  0  0  0  0
   19.9336   -7.2290  -14.4683 C   0  0  2  0  0  0  0  0  0  0  0  0
   20.0598   -8.0994  -15.6307 N   0  0  0  0  0  0  0  0  0  0  0  0
   20.4173   -5.8778  -14.7974 C   0  0  0  0  0  0  0  0  0  0  0  0
   19.9358   -4.7871  -14.1212 O   0  0  0  0  0  0  0  0  0  0  0  0
   21.6275   -6.2352  -11.7846 C   0  0  0  0  0  0  0  0  0  0  0  0
   21.5513   -5.5793  -10.5559 C   0  0  0  0  0  0  0  0  0  0  0  0
   21.2715   -5.7418  -15.7007 O   0  0  0  0  0  0  0  0  0  0  0  0
  2  3  2  0
  2  1  1  0
  4  2  1  0
  5  6  1  0
  5  4  1  0
  6  7  1  6
  6  8  1  0
  8  9  2  0
  8 10  1  0
 10 11  1  0
 11 12  1  6
 12 13  1  0
 13 17  1  0
 14 13  2  0
 15 11  1  0
 15 16  2  0
 18 19  1  0
 19 20  2  0
 20 21  1  0
 22 21  2  0
 22 23  1  0
 24 23  1  1
 24 25  1  0
 25 15  1  0
 26 24  1  0
 27 26  1  0
 28 22  1  0
 29 19  1  0
 29 28  2  0
 30 26  2  0
M  END
$$$$
