QDY.pdb
     RDKit          3D

 30 30  0  0  1  0  0  0  0  0999 V2000
   14.0678   -8.9204  -17.9434 N   0  0  0  0  0  0  0  0  0  0  0  0
   15.3760   -9.1968  -17.4349 C   0  0  0  0  0  0  0  0  0  0  0  0
   16.3231   -8.5096  -17.8312 O   0  0  0  0  0  0  0  0  0  0  0  0
   15.5273  -10.2788  -16.4695 C   0  0  0  0  0  0  0  0  0  0  0  0
   16.2320   -9.8630  -15.2292 C   0  0  0  0  0  0  0  0  0  0  0  0
   17.6696  -10.2842  -15.1227 C   0  0  2  0  0  0  0  0  0  0  0  0
   17.8280  -11.7103  -15.0148 N   0  0  0  0  0  0  0  0  0  0  0  0
   18.2594   -9.5407  -13.9927 C   0  0  0  0  0  0  0  0  0  0  0  0
   18.2150  -10.0704  -12.8572 O   0  0  0  0  0  0  0  0  0  0  0  0
   18.8731   -8.2592  -14.1258 N   0  0  0  0  0  0  0  0  0  0  0  0
   19.4599   -7.5549  -13.0078 C   0  0  1  0  0  0  0  0  0  0  0  0
   20.7977   -7.0026  -13.3972 C   0  0  0  0  0  0  0  0  0  0  0  0
   21.4633   -6.2218  -12.3470 C   0  0  0  0  0  0  0  0  0  0  0  0
   21.5952   -6.7091  -11.2023 O   0  0  0  0  0  0  0  0  0  0  0  0
   18.5589   -6.5036  -12.4795 C   0  0  0  0  0  0  0  0  0  0  0  0
   18.1723   -5.5867  -13.2349 O   0  0  0  0  0  0  0  0  0  0  0  0
   21.9561   -4.9510  -12.5801 O   0  0  0  0  0  0  0  0  0  0  0  0
   13.3653  -10.1561   -8.5857 O   0  0  0  0  0  0  0  0  0  0  0  0
   13.9885   -9.0826   -9.1859 C   0  0  0  0  0  0  0  0  0  0  0  0
   14.5890   -9.2337  -10.4131 C   0  0  0  0  0  0  0  0  0  0  0  0
   15.2165   -8.1603  -11.0215 C   0  0  0  0  0  0  0  0  0  0  0  0
   15.2442   -6.9362  -10.4042 C   0  0  0  0  0  0  0  0  0  0  0  0
   15.9180   -5.8071  -11.0638 C   0  0  0  0  0  0  0  0  0  0  0  0
   17.3121   -5.5381  -10.5387 C   0  0  2  0  0  0  0  0  0  0  0  0
   18.1596   -6.5694  -11.1242 N   0  0  0  0  0  0  0  0  0  0  0  0
   17.4026   -5.5874   -9.0699 C   0  0  0  0  0  0  0  0  0  0  0  0
   16.6782   -4.7126   -8.3026 O   0  0  0  0  0  0  0  0  0  0  0  0
   14.6497   -6.7667   -9.1786 C   0  0  0  0  0  0  0  0  0  0  0  0
   14.0231   -7.8618   -8.5838 C   0  0  0  0  0  0  0  0  0  0  0  0
   18.1485   -6.4372   -8.5356 O   0  0  0  0  0  0  0  0  0  0  0  0
  2  3  2  0
  2  1  1  0
  4  2  1  0
  5  6  1  0
  5  4  1  0
  6  7  1  1
  6  8  1  0
  8  9  2  0
  8 10  1  0
 10 11  1  0
 11 12  1  6
 12 13  1  0
 13 17  1  0
 14 13  2  0
 15 11  1  0
 15 16  2  0
 18 19  1  0
 19 20  2  0
 20 21  1  0
 22 21  2  0
 22 23  1  0
 24 23  1  1
 24 25  1  0
 25 15  1  0
 26 24  1  0
 27 26  1  0
 28 22  1  0
 29 19  1  0
 29 28  2  0
 30 26  2  0
M  END
$$$$
