QDY.pdb
     RDKit          3D

 30 30  0  0  1  0  0  0  0  0999 V2000
   17.7797  -18.4762  -11.7912 N   0  0  0  0  0  0  0  0  0  0  0  0
   17.7795  -18.8536  -13.1710 C   0  0  0  0  0  0  0  0  0  0  0  0
   16.7284  -18.7534  -13.8126 O   0  0  0  0  0  0  0  0  0  0  0  0
   19.0245  -19.3385  -13.7546 C   0  0  0  0  0  0  0  0  0  0  0  0
   20.1289  -19.4527  -12.7672 C   0  0  0  0  0  0  0  0  0  0  0  0
   21.3629  -18.6529  -13.0725 C   0  0  2  0  0  0  0  0  0  0  0  0
   21.3179  -18.0278  -14.3678 N   0  0  0  0  0  0  0  0  0  0  0  0
   22.5201  -19.5509  -12.8936 C   0  0  0  0  0  0  0  0  0  0  0  0
   22.4971  -20.3490  -11.9269 O   0  0  0  0  0  0  0  0  0  0  0  0
   23.6552  -19.5572  -13.7584 N   0  0  0  0  0  0  0  0  0  0  0  0
   24.8233  -20.3714  -13.5073 C   0  0  1  0  0  0  0  0  0  0  0  0
   25.7275  -20.3497  -14.7025 C   0  0  0  0  0  0  0  0  0  0  0  0
   26.9088  -21.2141  -14.5881 C   0  0  0  0  0  0  0  0  0  0  0  0
   26.9929  -22.0258  -13.6397 O   0  0  0  0  0  0  0  0  0  0  0  0
   25.5296  -19.9622  -12.2706 C   0  0  0  0  0  0  0  0  0  0  0  0
   25.4928  -18.7678  -11.9063 O   0  0  0  0  0  0  0  0  0  0  0  0
   27.9451  -21.1631  -15.5022 O   0  0  0  0  0  0  0  0  0  0  0  0
   28.1725  -18.9569   -4.2867 O   0  0  0  0  0  0  0  0  0  0  0  0
   27.6400  -19.2354   -5.5275 C   0  0  0  0  0  0  0  0  0  0  0  0
   27.3582  -18.2119   -6.4008 C   0  0  0  0  0  0  0  0  0  0  0  0
   26.8235  -18.4843   -7.6482 C   0  0  0  0  0  0  0  0  0  0  0  0
   26.5702  -19.7785   -8.0232 C   0  0  0  0  0  0  0  0  0  0  0  0
   25.9990  -20.0496   -9.3516 C   0  0  0  0  0  0  0  0  0  0  0  0
   27.0031  -20.5865  -10.3490 C   0  0  2  0  0  0  0  0  0  0  0  0
   26.2308  -20.9440  -11.5323 N   0  0  0  0  0  0  0  0  0  0  0  0
   27.7431  -21.7611   -9.8581 C   0  0  0  0  0  0  0  0  0  0  0  0
   27.2303  -23.0212  -10.0252 O   0  0  0  0  0  0  0  0  0  0  0  0
   26.8452  -20.8134   -7.1644 C   0  0  0  0  0  0  0  0  0  0  0  0
   27.3838  -20.5162   -5.9124 C   0  0  0  0  0  0  0  0  0  0  0  0
   28.8432  -21.5910   -9.2880 O   0  0  0  0  0  0  0  0  0  0  0  0
  2  3  2  0
  2  1  1  0
  4  2  1  0
  5  6  1  0
  5  4  1  0
  6  7  1  6
  6  8  1  0
  8  9  2  0
  8 10  1  0
 10 11  1  0
 11 12  1  6
 12 13  1  0
 13 17  1  0
 14 13  2  0
 15 11  1  0
 15 16  2  0
 18 19  1  0
 19 20  2  0
 20 21  1  0
 22 21  2  0
 22 23  1  0
 24 23  1  1
 24 25  1  0
 25 15  1  0
 26 24  1  0
 27 26  1  0
 28 22  1  0
 29 19  1  0
 29 28  2  0
 30 26  2  0
M  END
$$$$
