QDY.pdb
     RDKit          3D

 30 30  0  0  1  0  0  0  0  0999 V2000
   21.7757  -15.2043  -20.5763 N   0  0  0  0  0  0  0  0  0  0  0  0
   22.4734  -14.1269  -19.9449 C   0  0  0  0  0  0  0  0  0  0  0  0
   22.6015  -13.0628  -20.5594 O   0  0  0  0  0  0  0  0  0  0  0  0
   22.9997  -14.3380  -18.6017 C   0  0  0  0  0  0  0  0  0  0  0  0
   22.7322  -15.7015  -18.0752 C   0  0  0  0  0  0  0  0  0  0  0  0
   23.8949  -16.3866  -17.4162 C   0  0  2  0  0  0  0  0  0  0  0  0
   25.0582  -16.4506  -18.2607 N   0  0  0  0  0  0  0  0  0  0  0  0
   23.4229  -17.7100  -16.9653 C   0  0  0  0  0  0  0  0  0  0  0  0
   22.2454  -18.0375  -17.2450 O   0  0  0  0  0  0  0  0  0  0  0  0
   24.2324  -18.6289  -16.2327 N   0  0  0  0  0  0  0  0  0  0  0  0
   23.7609  -19.9348  -15.8293 C   0  0  1  0  0  0  0  0  0  0  0  0
   24.9027  -20.9056  -15.8067 C   0  0  0  0  0  0  0  0  0  0  0  0
   25.5178  -21.1529  -17.1167 C   0  0  0  0  0  0  0  0  0  0  0  0
   26.7609  -21.0834  -17.2403 O   0  0  0  0  0  0  0  0  0  0  0  0
   23.0455  -19.8905  -14.5324 C   0  0  0  0  0  0  0  0  0  0  0  0
   23.5934  -19.3573  -13.5443 O   0  0  0  0  0  0  0  0  0  0  0  0
   24.7636  -21.4637  -18.2331 O   0  0  0  0  0  0  0  0  0  0  0  0
   17.1735  -16.5177  -16.6658 O   0  0  0  0  0  0  0  0  0  0  0  0
   18.0596  -17.0882  -15.7769 C   0  0  0  0  0  0  0  0  0  0  0  0
   17.5915  -17.8405  -14.7260 C   0  0  0  0  0  0  0  0  0  0  0  0
   18.4755  -18.4162  -13.8297 C   0  0  0  0  0  0  0  0  0  0  0  0
   19.8266  -18.2406  -13.9831 C   0  0  0  0  0  0  0  0  0  0  0  0
   20.7516  -18.8573  -13.0195 C   0  0  0  0  0  0  0  0  0  0  0  0
   20.9559  -20.3417  -13.2349 C   0  0  2  0  0  0  0  0  0  0  0  0
   21.7524  -20.4576  -14.4502 N   0  0  0  0  0  0  0  0  0  0  0  0
   19.6961  -21.0887  -13.3866 C   0  0  0  0  0  0  0  0  0  0  0  0
   19.4059  -21.7232  -14.5664 O   0  0  0  0  0  0  0  0  0  0  0  0
   20.3122  -17.4927  -15.0267 C   0  0  0  0  0  0  0  0  0  0  0  0
   19.4037  -16.9217  -15.9179 C   0  0  0  0  0  0  0  0  0  0  0  0
   18.8979  -21.1348  -12.4249 O   0  0  0  0  0  0  0  0  0  0  0  0
  2  3  2  0
  2  1  1  0
  4  2  1  0
  5  6  1  0
  5  4  1  0
  6  7  1  6
  6  8  1  0
  8  9  2  0
  8 10  1  0
 10 11  1  0
 11 12  1  1
 12 13  1  0
 13 17  1  0
 14 13  2  0
 15 11  1  0
 15 16  2  0
 18 19  1  0
 19 20  2  0
 20 21  1  0
 22 21  2  0
 22 23  1  0
 24 23  1  6
 24 25  1  0
 25 15  1  0
 26 24  1  0
 27 26  1  0
 28 22  1  0
 29 19  1  0
 29 28  2  0
 30 26  2  0
M  END
$$$$
