QDY.pdb
     RDKit          3D

 30 30  0  0  1  0  0  0  0  0999 V2000
   22.9956  -18.9570  -16.7440 N   0  0  0  0  0  0  0  0  0  0  0  0
   21.7132  -18.6320  -16.1998 C   0  0  0  0  0  0  0  0  0  0  0  0
   21.2102  -17.5389  -16.4801 O   0  0  0  0  0  0  0  0  0  0  0  0
   21.0599  -19.6109  -15.3391 C   0  0  0  0  0  0  0  0  0  0  0  0
   21.9767  -20.6811  -14.8681 C   0  0  0  0  0  0  0  0  0  0  0  0
   22.5559  -20.4875  -13.4960 C   0  0  2  0  0  0  0  0  0  0  0  0
   22.5781  -19.1078  -13.0879 N   0  0  0  0  0  0  0  0  0  0  0  0
   23.8877  -21.1229  -13.4910 C   0  0  0  0  0  0  0  0  0  0  0  0
   23.9461  -22.3602  -13.6853 O   0  0  0  0  0  0  0  0  0  0  0  0
   25.1032  -20.4063  -13.2779 N   0  0  0  0  0  0  0  0  0  0  0  0
   26.3921  -21.0579  -13.2111 C   0  0  1  0  0  0  0  0  0  0  0  0
   27.4096  -20.2558  -13.9646 C   0  0  0  0  0  0  0  0  0  0  0  0
   27.0357  -19.9451  -15.3500 C   0  0  0  0  0  0  0  0  0  0  0  0
   26.1980  -20.6621  -15.9412 O   0  0  0  0  0  0  0  0  0  0  0  0
   26.8127  -21.3139  -11.8134 C   0  0  0  0  0  0  0  0  0  0  0  0
   27.9662  -21.7357  -11.5845 O   0  0  0  0  0  0  0  0  0  0  0  0
   27.5829  -18.8752  -16.0340 O   0  0  0  0  0  0  0  0  0  0  0  0
   29.3205  -19.4224   -4.0085 O   0  0  0  0  0  0  0  0  0  0  0  0
   28.8390  -19.5677   -5.2922 C   0  0  0  0  0  0  0  0  0  0  0  0
   29.2586  -20.6211   -6.0692 C   0  0  0  0  0  0  0  0  0  0  0  0
   28.7793  -20.7732   -7.3589 C   0  0  0  0  0  0  0  0  0  0  0  0
   27.8813  -19.8733   -7.8724 C   0  0  0  0  0  0  0  0  0  0  0  0
   27.3846  -20.0485   -9.2460 C   0  0  0  0  0  0  0  0  0  0  0  0
   26.3048  -21.1017   -9.3741 C   0  0  2  0  0  0  0  0  0  0  0  0
   25.8884  -21.0714  -10.7706 N   0  0  0  0  0  0  0  0  0  0  0  0
   25.1459  -20.8594   -8.4987 C   0  0  0  0  0  0  0  0  0  0  0  0
   23.9784  -20.3634   -9.0182 O   0  0  0  0  0  0  0  0  0  0  0  0
   27.4511  -18.8153   -7.1110 C   0  0  0  0  0  0  0  0  0  0  0  0
   27.9469  -18.6813   -5.8141 C   0  0  0  0  0  0  0  0  0  0  0  0
   25.2436  -21.1125   -7.2779 O   0  0  0  0  0  0  0  0  0  0  0  0
  2  3  2  0
  2  1  1  0
  4  2  1  0
  5  6  1  0
  5  4  1  0
  6  7  1  6
  6  8  1  0
  8  9  2  0
  8 10  1  0
 10 11  1  0
 11 12  1  1
 12 13  1  0
 13 17  1  0
 14 13  2  0
 15 11  1  0
 15 16  2  0
 18 19  1  0
 19 20  2  0
 20 21  1  0
 22 21  2  0
 22 23  1  0
 24 23  1  6
 24 25  1  0
 25 15  1  0
 26 24  1  0
 27 26  1  0
 28 22  1  0
 29 19  1  0
 29 28  2  0
 30 26  2  0
M  END
$$$$
