QDY.pdb
     RDKit          3D

 30 30  0  0  1  0  0  0  0  0999 V2000
   27.6229  -11.3368  -15.3326 N   0  0  0  0  0  0  0  0  0  0  0  0
   27.4327  -12.6496  -15.8680 C   0  0  0  0  0  0  0  0  0  0  0  0
   28.3846  -13.4371  -15.8584 O   0  0  0  0  0  0  0  0  0  0  0  0
   26.1197  -12.9953  -16.3994 C   0  0  0  0  0  0  0  0  0  0  0  0
   25.1175  -11.9106  -16.2360 C   0  0  0  0  0  0  0  0  0  0  0  0
   23.7149  -12.2497  -16.6519 C   0  0  2  0  0  0  0  0  0  0  0  0
   23.6607  -12.9937  -17.8823 N   0  0  0  0  0  0  0  0  0  0  0  0
   22.9552  -10.9853  -16.6962 C   0  0  0  0  0  0  0  0  0  0  0  0
   23.0110  -10.3061  -17.7486 O   0  0  0  0  0  0  0  0  0  0  0  0
   22.1664  -10.5002  -15.6104 N   0  0  0  0  0  0  0  0  0  0  0  0
   21.3883   -9.2845  -15.6930 C   0  0  1  0  0  0  0  0  0  0  0  0
   20.1688   -9.3988  -14.8291 C   0  0  0  0  0  0  0  0  0  0  0  0
   19.3193   -8.2014  -14.8133 C   0  0  0  0  0  0  0  0  0  0  0  0
   18.7712   -7.8167  -15.8701 O   0  0  0  0  0  0  0  0  0  0  0  0
   22.1937   -8.0863  -15.3588 C   0  0  0  0  0  0  0  0  0  0  0  0
   23.2565   -8.2180  -14.7153 O   0  0  0  0  0  0  0  0  0  0  0  0
   19.1002   -7.4739  -13.6580 O   0  0  0  0  0  0  0  0  0  0  0  0
   26.6709   -1.0941  -17.4853 O   0  0  0  0  0  0  0  0  0  0  0  0
   25.9198   -2.2366  -17.3081 C   0  0  0  0  0  0  0  0  0  0  0  0
   24.7877   -2.4394  -18.0608 C   0  0  0  0  0  0  0  0  0  0  0  0
   24.0289   -3.5841  -17.8881 C   0  0  0  0  0  0  0  0  0  0  0  0
   24.4008   -4.5261  -16.9637 C   0  0  0  0  0  0  0  0  0  0  0  0
   23.5809   -5.7354  -16.7912 C   0  0  0  0  0  0  0  0  0  0  0  0
   22.5741   -5.6339  -15.6654 C   0  0  2  0  0  0  0  0  0  0  0  0
   21.7321   -6.8180  -15.7816 N   0  0  0  0  0  0  0  0  0  0  0  0
   21.7447   -4.4190  -15.7313 C   0  0  0  0  0  0  0  0  0  0  0  0
   22.1197   -3.2879  -15.0540 O   0  0  0  0  0  0  0  0  0  0  0  0
   25.5283   -4.3405  -16.2031 C   0  0  0  0  0  0  0  0  0  0  0  0
   26.2781   -3.1798  -16.3936 C   0  0  0  0  0  0  0  0  0  0  0  0
   20.6963   -4.4358  -16.4130 O   0  0  0  0  0  0  0  0  0  0  0  0
  2  3  2  0
  2  1  1  0
  4  2  1  0
  5  6  1  0
  5  4  1  0
  6  7  1  6
  6  8  1  0
  8  9  2  0
  8 10  1  0
 10 11  1  0
 11 12  1  1
 12 13  1  0
 13 17  1  0
 14 13  2  0
 15 11  1  0
 15 16  2  0
 18 19  1  0
 19 20  2  0
 20 21  1  0
 22 21  2  0
 22 23  1  0
 24 23  1  6
 24 25  1  0
 25 15  1  0
 26 24  1  0
 27 26  1  0
 28 22  1  0
 29 19  1  0
 29 28  2  0
 30 26  2  0
M  END
$$$$
