QDY.pdb
     RDKit          3D

 30 30  0  0  1  0  0  0  0  0999 V2000
   23.4315  -15.9581  -18.8272 N   0  0  0  0  0  0  0  0  0  0  0  0
   22.1291  -15.5063  -18.4450 C   0  0  0  0  0  0  0  0  0  0  0  0
   21.4837  -16.1776  -17.6332 O   0  0  0  0  0  0  0  0  0  0  0  0
   21.6264  -14.2708  -19.0336 C   0  0  0  0  0  0  0  0  0  0  0  0
   21.2236  -13.2609  -18.0209 C   0  0  0  0  0  0  0  0  0  0  0  0
   22.3441  -12.4807  -17.3954 C   0  0  2  0  0  0  0  0  0  0  0  0
   23.3061  -13.3189  -16.7302 N   0  0  0  0  0  0  0  0  0  0  0  0
   21.7317  -11.4720  -16.5093 C   0  0  0  0  0  0  0  0  0  0  0  0
   21.2550  -11.8644  -15.4181 O   0  0  0  0  0  0  0  0  0  0  0  0
   21.6553  -10.0833  -16.8288 N   0  0  0  0  0  0  0  0  0  0  0  0
   20.9835   -9.1233  -15.9818 C   0  0  1  0  0  0  0  0  0  0  0  0
   21.6424   -7.7829  -16.1065 C   0  0  0  0  0  0  0  0  0  0  0  0
   21.0837   -6.7458  -15.2302 C   0  0  0  0  0  0  0  0  0  0  0  0
   20.1182   -7.0201  -14.4833 O   0  0  0  0  0  0  0  0  0  0  0  0
   19.5305   -9.0549  -16.2644 C   0  0  0  0  0  0  0  0  0  0  0  0
   19.1316   -9.0683  -17.4483 O   0  0  0  0  0  0  0  0  0  0  0  0
   21.5923   -5.4603  -15.1999 O   0  0  0  0  0  0  0  0  0  0  0  0
   11.0825  -10.6680  -15.8312 O   0  0  0  0  0  0  0  0  0  0  0  0
   12.4461  -10.5680  -15.6537 C   0  0  0  0  0  0  0  0  0  0  0  0
   13.2887  -10.6502  -16.7366 C   0  0  0  0  0  0  0  0  0  0  0  0
   14.6588  -10.5507  -16.5658 C   0  0  0  0  0  0  0  0  0  0  0  0
   15.1870  -10.3693  -15.3136 C   0  0  0  0  0  0  0  0  0  0  0  0
   16.6456  -10.2686  -15.1500 C   0  0  0  0  0  0  0  0  0  0  0  0
   17.1921   -8.8785  -15.3958 C   0  0  2  0  0  0  0  0  0  0  0  0
   18.6299   -8.9758  -15.1767 N   0  0  0  0  0  0  0  0  0  0  0  0
   16.6157   -7.8582  -14.5043 C   0  0  0  0  0  0  0  0  0  0  0  0
   15.4533   -7.2177  -14.8466 O   0  0  0  0  0  0  0  0  0  0  0  0
   14.3610  -10.2849  -14.2206 C   0  0  0  0  0  0  0  0  0  0  0  0
   12.9836  -10.3877  -14.4157 C   0  0  0  0  0  0  0  0  0  0  0  0
   17.2018   -7.5864  -13.4335 O   0  0  0  0  0  0  0  0  0  0  0  0
  2  3  2  0
  2  1  1  0
  4  2  1  0
  5  6  1  0
  5  4  1  0
  6  7  1  1
  6  8  1  0
  8  9  2  0
  8 10  1  0
 10 11  1  0
 11 12  1  6
 12 13  1  0
 13 17  1  0
 14 13  2  0
 15 11  1  0
 15 16  2  0
 18 19  1  0
 19 20  2  0
 20 21  1  0
 22 21  2  0
 22 23  1  0
 24 23  1  1
 24 25  1  0
 25 15  1  0
 26 24  1  0
 27 26  1  0
 28 22  1  0
 29 19  1  0
 29 28  2  0
 30 26  2  0
M  END
$$$$
