QDY.pdb
     RDKit          3D

 30 30  0  0  1  0  0  0  0  0999 V2000
   22.9337  -14.7960  -19.4445 N   0  0  0  0  0  0  0  0  0  0  0  0
   21.5143  -14.6749  -19.5743 C   0  0  0  0  0  0  0  0  0  0  0  0
   20.9129  -15.4866  -20.2855 O   0  0  0  0  0  0  0  0  0  0  0  0
   20.8447  -13.5964  -18.8572 C   0  0  0  0  0  0  0  0  0  0  0  0
   21.7838  -12.7103  -18.1220 C   0  0  0  0  0  0  0  0  0  0  0  0
   21.3402  -12.2816  -16.7527 C   0  0  2  0  0  0  0  0  0  0  0  0
   20.1934  -13.0122  -16.2821 N   0  0  0  0  0  0  0  0  0  0  0  0
   21.1278  -10.8221  -16.8000 C   0  0  0  0  0  0  0  0  0  0  0  0
   22.0705  -10.1070  -17.2148 O   0  0  0  0  0  0  0  0  0  0  0  0
   19.9133  -10.1879  -16.4008 N   0  0  0  0  0  0  0  0  0  0  0  0
   19.7622   -8.7509  -16.3528 C   0  0  1  0  0  0  0  0  0  0  0  0
   18.3169   -8.3948  -16.1777 C   0  0  0  0  0  0  0  0  0  0  0  0
   17.4879   -8.6099  -17.3703 C   0  0  0  0  0  0  0  0  0  0  0  0
   17.9398   -8.3174  -18.4997 O   0  0  0  0  0  0  0  0  0  0  0  0
   20.6146   -8.1378  -15.3071 C   0  0  0  0  0  0  0  0  0  0  0  0
   20.5220   -8.5343  -14.1259 O   0  0  0  0  0  0  0  0  0  0  0  0
   16.2096   -9.1307  -17.2895 O   0  0  0  0  0  0  0  0  0  0  0  0
   24.4375   -2.8840  -19.5535 O   0  0  0  0  0  0  0  0  0  0  0  0
   24.2641   -3.7622  -18.5049 C   0  0  0  0  0  0  0  0  0  0  0  0
   24.4423   -3.3329  -17.2113 C   0  0  0  0  0  0  0  0  0  0  0  0
   24.2699   -4.2092  -16.1537 C   0  0  0  0  0  0  0  0  0  0  0  0
   23.9196   -5.5140  -16.3882 C   0  0  0  0  0  0  0  0  0  0  0  0
   23.7435   -6.4323  -15.2524 C   0  0  0  0  0  0  0  0  0  0  0  0
   22.3400   -6.4380  -14.6851 C   0  0  2  0  0  0  0  0  0  0  0  0
   21.5156   -7.1132  -15.6796 N   0  0  0  0  0  0  0  0  0  0  0  0
   21.8099   -5.0892  -14.4247 C   0  0  0  0  0  0  0  0  0  0  0  0
   20.8071   -4.5773  -15.2065 O   0  0  0  0  0  0  0  0  0  0  0  0
   23.7374   -5.9603  -17.6734 C   0  0  0  0  0  0  0  0  0  0  0  0
   23.9163   -5.0603  -18.7240 C   0  0  0  0  0  0  0  0  0  0  0  0
   22.2876   -4.4205  -13.4820 O   0  0  0  0  0  0  0  0  0  0  0  0
  2  3  2  0
  2  1  1  0
  4  2  1  0
  5  6  1  0
  5  4  1  0
  6  7  1  6
  6  8  1  0
  8  9  2  0
  8 10  1  0
 10 11  1  0
 11 12  1  1
 12 13  1  0
 13 17  1  0
 14 13  2  0
 15 11  1  0
 15 16  2  0
 18 19  1  0
 19 20  2  0
 20 21  1  0
 22 21  2  0
 22 23  1  0
 24 23  1  6
 24 25  1  0
 25 15  1  0
 26 24  1  0
 27 26  1  0
 28 22  1  0
 29 19  1  0
 29 28  2  0
 30 26  2  0
M  END
$$$$
