ECA.pdb
     RDKit          3D

 21 20  0  0  1  0  0  0  0  0999 V2000
   18.0240  -12.2417  -16.2183 N   0  0  0  0  0  0  0  0  0  0  0  0
   17.6233  -10.9083  -15.7208 C   0  0  1  0  0  0  0  0  0  0  0  0
   17.0566  -11.0994  -14.3518 C   0  0  0  0  0  0  0  0  0  0  0  0
   15.6393  -11.5373  -14.3756 C   0  0  0  0  0  0  0  0  0  0  0  0
   14.7402  -10.4063  -14.6562 C   0  0  0  0  0  0  0  0  0  0  0  0
   14.5519   -9.4243  -13.9228 O   0  0  0  0  0  0  0  0  0  0  0  0
   18.7916  -10.0172  -15.6769 C   0  0  0  0  0  0  0  0  0  0  0  0
   19.9262  -10.4784  -15.4394 O   0  0  0  0  0  0  0  0  0  0  0  0
   14.0357  -10.4576  -15.8730 O   0  0  0  0  0  0  0  0  0  0  0  0
   18.6931   -8.6161  -15.8976 N   0  0  0  0  0  0  0  0  0  0  0  0
   19.8297   -7.7587  -16.1568 C   0  0  1  0  0  0  0  0  0  0  0  0
   19.6448   -7.1900  -17.5469 C   0  0  0  0  0  0  0  0  0  0  0  0
   19.8583   -8.4162  -18.8337 S   0  0  0  0  0  0  0  0  0  0  0  0
   19.9108   -6.6864  -15.1315 C   0  0  0  0  0  0  0  0  0  0  0  0
   18.8603   -6.0895  -14.7232 O   0  0  0  0  0  0  0  0  0  0  0  0
   22.6389   -5.2073  -12.9489 C   0  0  0  0  0  0  0  0  0  0  0  0
   21.3044   -5.2156  -13.6316 C   0  0  2  0  0  0  0  0  0  0  0  0
   21.1384   -6.2886  -14.5734 N   0  0  0  0  0  0  0  0  0  0  0  0
   21.1468   -3.9132  -14.3312 C   0  0  0  0  0  0  0  0  0  0  0  0
   20.8499   -2.7279  -13.7003 O   0  0  0  0  0  0  0  0  0  0  0  0
   21.2887   -3.8501  -15.6008 O   0  0  0  0  0  0  0  0  0  0  0  0
  2  1  1  1
  3  2  1  0
  3  4  1  0
  4  5  1  0
  5  9  1  0
  5  6  2  0
  7  2  1  0
  7 10  1  0
  8  7  2  0
 11 10  1  0
 11 12  1  6
 13 12  1  0
 14 18  1  0
 14 11  1  0
 15 14  2  0
 17 18  1  0
 17 16  1  6
 19 17  1  0
 20 19  1  0
 21 19  2  0
M  END
$$$$
