ECA.pdb
     RDKit          3D

 21 20  0  0  1  0  0  0  0  0999 V2000
   18.6987  -11.4575  -15.8331 N   0  0  0  0  0  0  0  0  0  0  0  0
   18.8185  -10.1690  -16.5483 C   0  0  1  0  0  0  0  0  0  0  0  0
   17.5188   -9.9276  -17.2443 C   0  0  0  0  0  0  0  0  0  0  0  0
   17.3651  -10.7493  -18.4700 C   0  0  0  0  0  0  0  0  0  0  0  0
   16.9865  -12.1319  -18.1364 C   0  0  0  0  0  0  0  0  0  0  0  0
   17.6133  -13.1556  -18.4479 O   0  0  0  0  0  0  0  0  0  0  0  0
   19.1015   -9.0888  -15.5924 C   0  0  0  0  0  0  0  0  0  0  0  0
   18.4217   -8.9746  -14.5526 O   0  0  0  0  0  0  0  0  0  0  0  0
   15.8013  -12.2917  -17.3953 O   0  0  0  0  0  0  0  0  0  0  0  0
   20.1401   -8.1396  -15.7971 N   0  0  0  0  0  0  0  0  0  0  0  0
   20.4836   -7.1028  -14.8476 C   0  0  1  0  0  0  0  0  0  0  0  0
   21.6548   -7.6165  -14.0387 C   0  0  0  0  0  0  0  0  0  0  0  0
   22.2789   -6.4083  -12.8744 S   0  0  0  0  0  0  0  0  0  0  0  0
   20.8189   -5.8425  -15.5595 C   0  0  0  0  0  0  0  0  0  0  0  0
   21.7992   -5.7909  -16.3737 O   0  0  0  0  0  0  0  0  0  0  0  0
   19.2585   -2.3857  -15.8122 C   0  0  0  0  0  0  0  0  0  0  0  0
   20.3206   -3.4186  -16.0405 C   0  0  2  0  0  0  0  0  0  0  0  0
   20.0759   -4.6646  -15.3671 N   0  0  0  0  0  0  0  0  0  0  0  0
   21.6124   -2.8488  -15.5748 C   0  0  0  0  0  0  0  0  0  0  0  0
   22.3717   -3.3827  -14.5601 O   0  0  0  0  0  0  0  0  0  0  0  0
   22.0809   -1.7950  -16.1280 O   0  0  0  0  0  0  0  0  0  0  0  0
  2  1  1  1
  3  2  1  0
  3  4  1  0
  4  5  1  0
  5  9  1  0
  5  6  2  0
  7  2  1  0
  7 10  1  0
  8  7  2  0
 11 10  1  0
 11 12  1  6
 13 12  1  0
 14 18  1  0
 14 11  1  0
 15 14  2  0
 17 18  1  0
 17 16  1  1
 19 17  1  0
 20 19  1  0
 21 19  2  0
M  END
$$$$
