ECA.pdb
     RDKit          3D

 21 20  0  0  1  0  0  0  0  0999 V2000
   14.5233   -9.3492   -8.7862 N   0  0  0  0  0  0  0  0  0  0  0  0
   15.0155   -8.2257   -9.6118 C   0  0  1  0  0  0  0  0  0  0  0  0
   15.1452   -7.0400   -8.7122 C   0  0  0  0  0  0  0  0  0  0  0  0
   13.8364   -6.4183   -8.3932 C   0  0  0  0  0  0  0  0  0  0  0  0
   14.0070   -5.2384   -7.5301 C   0  0  0  0  0  0  0  0  0  0  0  0
   13.0963   -4.5776   -7.0088 O   0  0  0  0  0  0  0  0  0  0  0  0
   16.3162   -8.5701  -10.2037 C   0  0  0  0  0  0  0  0  0  0  0  0
   17.1985   -9.1153   -9.5104 O   0  0  0  0  0  0  0  0  0  0  0  0
   15.3317   -4.8341   -7.2824 O   0  0  0  0  0  0  0  0  0  0  0  0
   16.6302   -8.3068  -11.5652 N   0  0  0  0  0  0  0  0  0  0  0  0
   17.8646   -8.7140  -12.2014 C   0  0  1  0  0  0  0  0  0  0  0  0
   17.4910   -9.6529  -13.3278 C   0  0  0  0  0  0  0  0  0  0  0  0
   18.9154  -10.2716  -14.2185 S   0  0  0  0  0  0  0  0  0  0  0  0
   18.6039   -7.5255  -12.7000 C   0  0  0  0  0  0  0  0  0  0  0  0
   17.9943   -6.5781  -13.2977 O   0  0  0  0  0  0  0  0  0  0  0  0
   22.2277   -6.3673  -12.6391 C   0  0  0  0  0  0  0  0  0  0  0  0
   20.7864   -6.3128  -13.0475 C   0  0  2  0  0  0  0  0  0  0  0  0
   19.9942   -7.3969  -12.5348 N   0  0  0  0  0  0  0  0  0  0  0  0
   20.7373   -6.3223  -14.5334 C   0  0  0  0  0  0  0  0  0  0  0  0
   20.9277   -5.2106  -15.3202 O   0  0  0  0  0  0  0  0  0  0  0  0
   20.5056   -7.4149  -15.1568 O   0  0  0  0  0  0  0  0  0  0  0  0
  2  1  1  1
  3  2  1  0
  3  4  1  0
  4  5  1  0
  5  9  1  0
  5  6  2  0
  7  2  1  0
  7 10  1  0
  8  7  2  0
 11 10  1  0
 11 12  1  6
 13 12  1  0
 14 18  1  0
 14 11  1  0
 15 14  2  0
 17 18  1  0
 17 16  1  6
 19 17  1  0
 20 19  1  0
 21 19  2  0
M  END
$$$$
