ECA.pdb
     RDKit          3D

 21 20  0  0  1  0  0  0  0  0999 V2000
   16.9991   -9.3754  -11.2081 N   0  0  0  0  0  0  0  0  0  0  0  0
   17.3351   -8.8477  -12.5478 C   0  0  1  0  0  0  0  0  0  0  0  0
   16.0799   -8.2813  -13.1271 C   0  0  0  0  0  0  0  0  0  0  0  0
   15.2508   -9.3063  -13.8076 C   0  0  0  0  0  0  0  0  0  0  0  0
   15.9019   -9.7817  -15.0391 C   0  0  0  0  0  0  0  0  0  0  0  0
   16.2509   -9.0779  -15.9986 O   0  0  0  0  0  0  0  0  0  0  0  0
   18.3669   -7.8071  -12.4329 C   0  0  0  0  0  0  0  0  0  0  0  0
   18.3618   -7.0200  -11.4650 O   0  0  0  0  0  0  0  0  0  0  0  0
   16.1445  -11.1651  -15.1213 O   0  0  0  0  0  0  0  0  0  0  0  0
   19.4008   -7.6461  -13.3956 N   0  0  0  0  0  0  0  0  0  0  0  0
   20.5034   -6.7207  -13.2476 C   0  0  1  0  0  0  0  0  0  0  0  0
   21.7674   -7.4852  -13.5759 C   0  0  0  0  0  0  0  0  0  0  0  0
   22.3090   -8.5414  -12.2357 S   0  0  0  0  0  0  0  0  0  0  0  0
   20.3197   -5.5521  -14.1467 C   0  0  0  0  0  0  0  0  0  0  0  0
   20.2064   -5.7070  -15.4075 O   0  0  0  0  0  0  0  0  0  0  0  0
   19.5006   -1.8979  -13.6562 C   0  0  0  0  0  0  0  0  0  0  0  0
   20.0073   -3.0683  -14.4438 C   0  0  2  0  0  0  0  0  0  0  0  0
   20.2634   -4.2383  -13.6492 N   0  0  0  0  0  0  0  0  0  0  0  0
   21.2606   -2.6468  -15.1237 C   0  0  0  0  0  0  0  0  0  0  0  0
   21.3024   -1.8401  -16.2366 O   0  0  0  0  0  0  0  0  0  0  0  0
   22.3923   -3.0390  -14.6751 O   0  0  0  0  0  0  0  0  0  0  0  0
  2  1  1  1
  3  2  1  0
  3  4  1  0
  4  5  1  0
  5  9  1  0
  5  6  2  0
  7  2  1  0
  7 10  1  0
  8  7  2  0
 11 10  1  0
 11 12  1  6
 13 12  1  0
 14 18  1  0
 14 11  1  0
 15 14  2  0
 17 18  1  0
 17 16  1  1
 19 17  1  0
 20 19  1  0
 21 19  2  0
M  END
$$$$
