ECA.pdb
     RDKit          3D

 21 20  0  0  1  0  0  0  0  0999 V2000
   18.5124  -12.0248  -15.1401 N   0  0  0  0  0  0  0  0  0  0  0  0
   17.7813  -10.7426  -15.0525 C   0  0  1  0  0  0  0  0  0  0  0  0
   16.3317  -11.0700  -14.9004 C   0  0  0  0  0  0  0  0  0  0  0  0
   15.6691  -11.3485  -16.1983 C   0  0  0  0  0  0  0  0  0  0  0  0
   15.5619  -10.1261  -17.0111 C   0  0  0  0  0  0  0  0  0  0  0  0
   16.2872   -9.8210  -17.9696 O   0  0  0  0  0  0  0  0  0  0  0  0
   18.2606   -9.9696  -13.8977 C   0  0  0  0  0  0  0  0  0  0  0  0
   18.4502  -10.5308  -12.7997 O   0  0  0  0  0  0  0  0  0  0  0  0
   14.5371   -9.2299  -16.6562 O   0  0  0  0  0  0  0  0  0  0  0  0
   18.5273   -8.5748  -13.9690 N   0  0  0  0  0  0  0  0  0  0  0  0
   19.0902   -7.8048  -12.8806 C   0  0  1  0  0  0  0  0  0  0  0  0
   20.3689   -7.1816  -13.3970 C   0  0  0  0  0  0  0  0  0  0  0  0
   21.7749   -8.2840  -13.2836 S   0  0  0  0  0  0  0  0  0  0  0  0
   18.1225   -6.7739  -12.4241 C   0  0  0  0  0  0  0  0  0  0  0  0
   17.4893   -6.0524  -13.2637 O   0  0  0  0  0  0  0  0  0  0  0  0
   16.8056   -5.6079   -9.0493 C   0  0  0  0  0  0  0  0  0  0  0  0
   16.9271   -5.5956  -10.5434 C   0  0  2  0  0  0  0  0  0  0  0  0
   17.8667   -6.5530  -11.0595 N   0  0  0  0  0  0  0  0  0  0  0  0
   17.3393   -4.2267  -10.9518 C   0  0  0  0  0  0  0  0  0  0  0  0
   16.5444   -3.1112  -10.8287 O   0  0  0  0  0  0  0  0  0  0  0  0
   18.4996   -4.0333  -11.4539 O   0  0  0  0  0  0  0  0  0  0  0  0
  2  1  1  1
  3  2  1  0
  3  4  1  0
  4  5  1  0
  5  9  1  0
  5  6  2  0
  7  2  1  0
  7 10  1  0
  8  7  2  0
 11 10  1  0
 11 12  1  6
 13 12  1  0
 14 18  1  0
 14 11  1  0
 15 14  2  0
 17 18  1  0
 17 16  1  1
 19 17  1  0
 20 19  1  0
 21 19  2  0
M  END
$$$$
