ECA.pdb
     RDKit          3D

 21 20  0  0  1  0  0  0  0  0999 V2000
   20.0857  -10.6449  -15.2221 N   0  0  0  0  0  0  0  0  0  0  0  0
   19.5431   -9.3853  -15.7746 C   0  0  1  0  0  0  0  0  0  0  0  0
   18.0810   -9.5949  -15.9989 C   0  0  0  0  0  0  0  0  0  0  0  0
   17.8010  -10.4743  -17.1605 C   0  0  0  0  0  0  0  0  0  0  0  0
   16.3528  -10.6049  -17.3886 C   0  0  0  0  0  0  0  0  0  0  0  0
   15.5959  -11.4131  -16.8302 O   0  0  0  0  0  0  0  0  0  0  0  0
   19.7682   -8.2839  -14.8274 C   0  0  0  0  0  0  0  0  0  0  0  0
   19.4263   -8.4011  -13.6334 O   0  0  0  0  0  0  0  0  0  0  0  0
   15.7886   -9.7249  -18.3303 O   0  0  0  0  0  0  0  0  0  0  0  0
   20.3730   -7.0561  -15.2126 N   0  0  0  0  0  0  0  0  0  0  0  0
   20.6143   -5.9561  -14.3037 C   0  0  1  0  0  0  0  0  0  0  0  0
   22.1043   -5.9197  -14.0418 C   0  0  0  0  0  0  0  0  0  0  0  0
   22.6093   -4.4848  -13.0978 S   0  0  0  0  0  0  0  0  0  0  0  0
   20.1299   -4.6825  -14.8959 C   0  0  0  0  0  0  0  0  0  0  0  0
   20.5679   -4.2754  -16.0224 O   0  0  0  0  0  0  0  0  0  0  0  0
   17.3663   -2.2208  -14.0729 C   0  0  0  0  0  0  0  0  0  0  0  0
   18.5979   -2.6832  -14.7914 C   0  0  2  0  0  0  0  0  0  0  0  0
   19.1765   -3.8800  -14.2449 N   0  0  0  0  0  0  0  0  0  0  0  0
   19.5941   -1.5808  -14.7357 C   0  0  0  0  0  0  0  0  0  0  0  0
   19.4532   -0.3781  -15.3874 O   0  0  0  0  0  0  0  0  0  0  0  0
   20.6635   -1.7220  -14.0484 O   0  0  0  0  0  0  0  0  0  0  0  0
  2  1  1  1
  3  2  1  0
  3  4  1  0
  4  5  1  0
  5  9  1  0
  5  6  2  0
  7  2  1  0
  7 10  1  0
  8  7  2  0
 11 10  1  0
 11 12  1  6
 13 12  1  0
 14 18  1  0
 14 11  1  0
 15 14  2  0
 17 18  1  0
 17 16  1  1
 19 17  1  0
 20 19  1  0
 21 19  2  0
M  END
$$$$
