ECA.pdb
     RDKit          3D

 21 20  0  0  1  0  0  0  0  0999 V2000
   19.8570  -19.3675  -15.5339 N   0  0  0  0  0  0  0  0  0  0  0  0
   20.7022  -20.3199  -14.7824 C   0  0  1  0  0  0  0  0  0  0  0  0
   22.0778  -19.7399  -14.7252 C   0  0  0  0  0  0  0  0  0  0  0  0
   23.0154  -20.3975  -15.6683 C   0  0  0  0  0  0  0  0  0  0  0  0
   24.3794  -19.8657  -15.5159 C   0  0  0  0  0  0  0  0  0  0  0  0
   24.7114  -18.8981  -14.8151 O   0  0  0  0  0  0  0  0  0  0  0  0
   20.1636  -20.5080  -13.4277 C   0  0  0  0  0  0  0  0  0  0  0  0
   20.5314  -19.7648  -12.4956 O   0  0  0  0  0  0  0  0  0  0  0  0
   25.3899  -20.5266  -16.2382 O   0  0  0  0  0  0  0  0  0  0  0  0
   19.2176  -21.5224  -13.1152 N   0  0  0  0  0  0  0  0  0  0  0  0
   18.7060  -21.7653  -11.7835 C   0  0  1  0  0  0  0  0  0  0  0  0
   17.2655  -21.3020  -11.7736 C   0  0  0  0  0  0  0  0  0  0  0  0
   16.2125  -22.2827  -12.8387 S   0  0  0  0  0  0  0  0  0  0  0  0
   18.8214  -23.2067  -11.4420 C   0  0  0  0  0  0  0  0  0  0  0  0
   18.9017  -24.0922  -12.3563 O   0  0  0  0  0  0  0  0  0  0  0  0
   19.0088  -25.2163   -8.2155 C   0  0  0  0  0  0  0  0  0  0  0  0
   18.9413  -25.0258   -9.7009 C   0  0  2  0  0  0  0  0  0  0  0  0
   18.8466  -23.6507  -10.1083 N   0  0  0  0  0  0  0  0  0  0  0  0
   17.7563  -25.7731  -10.1988 C   0  0  0  0  0  0  0  0  0  0  0  0
   17.7460  -27.1243  -10.4543 O   0  0  0  0  0  0  0  0  0  0  0  0
   16.6577  -25.1551  -10.4156 O   0  0  0  0  0  0  0  0  0  0  0  0
  2  1  1  6
  3  2  1  0
  3  4  1  0
  4  5  1  0
  5  9  1  0
  5  6  2  0
  7  2  1  0
  7 10  1  0
  8  7  2  0
 11 10  1  0
 11 12  1  6
 13 12  1  0
 14 18  1  0
 14 11  1  0
 15 14  2  0
 17 18  1  0
 17 16  1  1
 19 17  1  0
 20 19  1  0
 21 19  2  0
M  END
$$$$
