ECA.pdb
     RDKit          3D

 21 20  0  0  1  0  0  0  0  0999 V2000
   20.0366  -11.1448  -16.2241 N   0  0  0  0  0  0  0  0  0  0  0  0
   21.0069  -10.1011  -16.6183 C   0  0  1  0  0  0  0  0  0  0  0  0
   20.9264   -9.9612  -18.1035 C   0  0  0  0  0  0  0  0  0  0  0  0
   21.5226  -11.1156  -18.8198 C   0  0  0  0  0  0  0  0  0  0  0  0
   21.5789  -10.8674  -20.2695 C   0  0  0  0  0  0  0  0  0  0  0  0
   21.2463   -9.8201  -20.8441 O   0  0  0  0  0  0  0  0  0  0  0  0
   20.6716   -8.8300  -15.9604 C   0  0  0  0  0  0  0  0  0  0  0  0
   19.5144   -8.6239  -15.5424 O   0  0  0  0  0  0  0  0  0  0  0  0
   22.0563  -11.9255  -21.0645 O   0  0  0  0  0  0  0  0  0  0  0  0
   21.6255   -7.7930  -15.7700 N   0  0  0  0  0  0  0  0  0  0  0  0
   21.3221   -6.5230  -15.1460 C   0  0  1  0  0  0  0  0  0  0  0  0
   21.7081   -6.6450  -13.6879 C   0  0  0  0  0  0  0  0  0  0  0  0
   21.7314   -5.0681  -12.8406 S   0  0  0  0  0  0  0  0  0  0  0  0
   22.0647   -5.4270  -15.8205 C   0  0  0  0  0  0  0  0  0  0  0  0
   23.3398   -5.4164  -15.8425 O   0  0  0  0  0  0  0  0  0  0  0  0
   21.1003   -2.3639  -17.8591 C   0  0  0  0  0  0  0  0  0  0  0  0
   22.0462   -3.2840  -17.1480 C   0  0  2  0  0  0  0  0  0  0  0  0
   21.3985   -4.3651  -16.4571 N   0  0  0  0  0  0  0  0  0  0  0  0
   22.8237   -2.4700  -16.1766 C   0  0  0  0  0  0  0  0  0  0  0  0
   23.9641   -1.7697  -16.4932 O   0  0  0  0  0  0  0  0  0  0  0  0
   22.4395   -2.3911  -14.9592 O   0  0  0  0  0  0  0  0  0  0  0  0
  2  1  1  1
  3  2  1  0
  3  4  1  0
  4  5  1  0
  5  9  1  0
  5  6  2  0
  7  2  1  0
  7 10  1  0
  8  7  2  0
 11 10  1  0
 11 12  1  1
 13 12  1  0
 14 18  1  0
 14 11  1  0
 15 14  2  0
 17 18  1  0
 17 16  1  1
 19 17  1  0
 20 19  1  0
 21 19  2  0
M  END
$$$$
