ECA.pdb
     RDKit          3D

 21 20  0  0  1  0  0  0  0  0999 V2000
   21.7688  -10.1619  -17.2959 N   0  0  0  0  0  0  0  0  0  0  0  0
   20.3996   -9.6485  -17.5146 C   0  0  1  0  0  0  0  0  0  0  0  0
   19.4522  -10.7317  -17.1135 C   0  0  0  0  0  0  0  0  0  0  0  0
   20.1177  -12.0501  -16.9723 C   0  0  0  0  0  0  0  0  0  0  0  0
   19.1326  -13.1180  -16.7365 C   0  0  0  0  0  0  0  0  0  0  0  0
   17.9094  -12.9656  -16.6011 O   0  0  0  0  0  0  0  0  0  0  0  0
   20.1801   -8.4429  -16.7026 C   0  0  0  0  0  0  0  0  0  0  0  0
   19.0602   -7.8936  -16.6818 O   0  0  0  0  0  0  0  0  0  0  0  0
   19.6401  -14.4279  -16.6598 O   0  0  0  0  0  0  0  0  0  0  0  0
   21.2078   -7.8531  -15.9168 N   0  0  0  0  0  0  0  0  0  0  0  0
   21.0390   -6.6379  -15.1493 C   0  0  1  0  0  0  0  0  0  0  0  0
   21.7071   -6.8657  -13.8107 C   0  0  0  0  0  0  0  0  0  0  0  0
   21.9033   -5.3577  -12.8660 S   0  0  0  0  0  0  0  0  0  0  0  0
   21.6362   -5.4849  -15.8716 C   0  0  0  0  0  0  0  0  0  0  0  0
   22.8411   -5.5254  -16.2875 O   0  0  0  0  0  0  0  0  0  0  0  0
   20.3716   -2.3006  -17.4406 C   0  0  0  0  0  0  0  0  0  0  0  0
   21.4225   -3.1453  -16.7855 C   0  0  2  0  0  0  0  0  0  0  0  0
   20.9042   -4.3116  -16.1246 N   0  0  0  0  0  0  0  0  0  0  0  0
   22.1371   -2.2928  -15.7990 C   0  0  0  0  0  0  0  0  0  0  0  0
   23.2093   -1.4883  -16.1059 O   0  0  0  0  0  0  0  0  0  0  0  0
   21.7605   -2.2796  -14.5767 O   0  0  0  0  0  0  0  0  0  0  0  0
  2  1  1  1
  3  2  1  0
  3  4  1  0
  4  5  1  0
  5  9  1  0
  5  6  2  0
  7  2  1  0
  7 10  1  0
  8  7  2  0
 11 10  1  0
 11 12  1  1
 13 12  1  0
 14 18  1  0
 14 11  1  0
 15 14  2  0
 17 18  1  0
 17 16  1  1
 19 17  1  0
 20 19  1  0
 21 19  2  0
M  END
$$$$
