ECA.pdb
     RDKit          3D

 21 20  0  0  1  0  0  0  0  0999 V2000
   19.2557  -10.7981  -14.9739 N   0  0  0  0  0  0  0  0  0  0  0  0
   19.2444   -9.5272  -15.7296 C   0  0  1  0  0  0  0  0  0  0  0  0
   17.8864   -9.3858  -16.3359 C   0  0  0  0  0  0  0  0  0  0  0  0
   17.5469  -10.5070  -17.2464 C   0  0  0  0  0  0  0  0  0  0  0  0
   16.2709  -10.2604  -17.9372 C   0  0  0  0  0  0  0  0  0  0  0  0
   15.1614  -10.6992  -17.5994 O   0  0  0  0  0  0  0  0  0  0  0  0
   19.5264   -8.4032  -14.8253 C   0  0  0  0  0  0  0  0  0  0  0  0
   19.0187   -8.3693  -13.6862 O   0  0  0  0  0  0  0  0  0  0  0  0
   16.3308   -9.4501  -19.0858 O   0  0  0  0  0  0  0  0  0  0  0  0
   20.3725   -7.3209  -15.1920 N   0  0  0  0  0  0  0  0  0  0  0  0
   20.6556   -6.1917  -14.3323 C   0  0  1  0  0  0  0  0  0  0  0  0
   22.1090   -6.3012  -13.9253 C   0  0  0  0  0  0  0  0  0  0  0  0
   22.6756   -4.8879  -12.9837 S   0  0  0  0  0  0  0  0  0  0  0  0
   20.3802   -4.9183  -15.0467 C   0  0  0  0  0  0  0  0  0  0  0  0
   20.9351   -4.6618  -16.1660 O   0  0  0  0  0  0  0  0  0  0  0  0
   18.0036   -2.0002  -14.5547 C   0  0  0  0  0  0  0  0  0  0  0  0
   19.1815   -2.7035  -15.1589 C   0  0  2  0  0  0  0  0  0  0  0  0
   19.5038   -3.9516  -14.5232 N   0  0  0  0  0  0  0  0  0  0  0  0
   20.3487   -1.7866  -15.0713 C   0  0  0  0  0  0  0  0  0  0  0  0
   20.5025   -0.6557  -15.8384 O   0  0  0  0  0  0  0  0  0  0  0  0
   21.2909   -2.0313  -14.2416 O   0  0  0  0  0  0  0  0  0  0  0  0
  2  1  1  1
  3  2  1  0
  3  4  1  0
  4  5  1  0
  5  9  1  0
  5  6  2  0
  7  2  1  0
  7 10  1  0
  8  7  2  0
 11 10  1  0
 11 12  1  6
 13 12  1  0
 14 18  1  0
 14 11  1  0
 15 14  2  0
 17 18  1  0
 17 16  1  1
 19 17  1  0
 20 19  1  0
 21 19  2  0
M  END
$$$$
