ECA.pdb
     RDKit          3D

 21 20  0  0  1  0  0  0  0  0999 V2000
   17.7928  -15.0171  -18.3676 N   0  0  0  0  0  0  0  0  0  0  0  0
   17.3591  -13.8753  -17.5342 C   0  0  1  0  0  0  0  0  0  0  0  0
   17.2262  -14.3763  -16.1331 C   0  0  0  0  0  0  0  0  0  0  0  0
   16.1097  -15.3401  -15.9738 C   0  0  0  0  0  0  0  0  0  0  0  0
   16.0027  -15.8009  -14.5801 C   0  0  0  0  0  0  0  0  0  0  0  0
   16.7207  -15.4411  -13.6352 O   0  0  0  0  0  0  0  0  0  0  0  0
   18.3543  -12.7958  -17.6051 C   0  0  0  0  0  0  0  0  0  0  0  0
   19.5147  -13.0344  -17.9962 O   0  0  0  0  0  0  0  0  0  0  0  0
   14.9871  -16.7363  -14.3094 O   0  0  0  0  0  0  0  0  0  0  0  0
   18.0544  -11.4546  -17.2405 N   0  0  0  0  0  0  0  0  0  0  0  0
   18.9545  -10.3412  -17.4514 C   0  0  1  0  0  0  0  0  0  0  0  0
   18.1579   -9.2551  -18.1411 C   0  0  0  0  0  0  0  0  0  0  0  0
   19.0200   -7.6870  -18.1929 S   0  0  0  0  0  0  0  0  0  0  0  0
   19.5102   -9.8749  -16.1547 C   0  0  0  0  0  0  0  0  0  0  0  0
   18.7594   -9.7320  -15.1338 O   0  0  0  0  0  0  0  0  0  0  0  0
   22.9749   -9.0574  -14.8249 C   0  0  0  0  0  0  0  0  0  0  0  0
   21.4764   -9.0775  -14.7935 C   0  0  2  0  0  0  0  0  0  0  0  0
   20.8750   -9.5746  -16.0005 N   0  0  0  0  0  0  0  0  0  0  0  0
   21.0111   -7.6876  -14.5437 C   0  0  0  0  0  0  0  0  0  0  0  0
   21.0623   -7.0637  -13.3193 O   0  0  0  0  0  0  0  0  0  0  0  0
   20.5258   -6.9955  -15.5036 O   0  0  0  0  0  0  0  0  0  0  0  0
  2  1  1  6
  3  2  1  0
  3  4  1  0
  4  5  1  0
  5  9  1  0
  5  6  2  0
  7  2  1  0
  7 10  1  0
  8  7  2  0
 11 10  1  0
 11 12  1  1
 13 12  1  0
 14 18  1  0
 14 11  1  0
 15 14  2  0
 17 18  1  0
 17 16  1  6
 19 17  1  0
 20 19  1  0
 21 19  2  0
M  END
$$$$
