ECA.pdb
     RDKit          3D

 21 20  0  0  1  0  0  0  0  0999 V2000
   14.7979  -11.4309  -11.8881 N   0  0  0  0  0  0  0  0  0  0  0  0
   15.5698  -10.1703  -11.8534 C   0  0  1  0  0  0  0  0  0  0  0  0
   15.6350   -9.6535  -13.2536 C   0  0  0  0  0  0  0  0  0  0  0  0
   16.9624   -9.8672  -13.8808 C   0  0  0  0  0  0  0  0  0  0  0  0
   17.8017   -8.6634  -13.7671 C   0  0  0  0  0  0  0  0  0  0  0  0
   17.4647   -7.5842  -13.2577 O   0  0  0  0  0  0  0  0  0  0  0  0
   14.9043   -9.1984  -10.9741 C   0  0  0  0  0  0  0  0  0  0  0  0
   13.6742   -9.2668  -10.7776 O   0  0  0  0  0  0  0  0  0  0  0  0
   19.1046   -8.7609  -14.2889 O   0  0  0  0  0  0  0  0  0  0  0  0
   15.6101   -8.1539  -10.3165 N   0  0  0  0  0  0  0  0  0  0  0  0
   14.9758   -7.1424   -9.4987 C   0  0  1  0  0  0  0  0  0  0  0  0
   15.6084   -7.2247   -8.1265 C   0  0  0  0  0  0  0  0  0  0  0  0
   15.1728   -5.8419   -7.0761 S   0  0  0  0  0  0  0  0  0  0  0  0
   15.1575   -5.7991  -10.1072 C   0  0  0  0  0  0  0  0  0  0  0  0
   16.3181   -5.3732  -10.4202 O   0  0  0  0  0  0  0  0  0  0  0  0
   12.8422   -2.9609  -11.1405 C   0  0  0  0  0  0  0  0  0  0  0  0
   14.1662   -3.6282  -10.9194 C   0  0  2  0  0  0  0  0  0  0  0  0
   14.0668   -4.9491  -10.3612 N   0  0  0  0  0  0  0  0  0  0  0  0
   14.9613   -2.7635  -10.0080 C   0  0  0  0  0  0  0  0  0  0  0  0
   15.6901   -1.6720  -10.4187 O   0  0  0  0  0  0  0  0  0  0  0  0
   14.9951   -3.0185   -8.7551 O   0  0  0  0  0  0  0  0  0  0  0  0
  2  1  1  6
  3  2  1  0
  3  4  1  0
  4  5  1  0
  5  9  1  0
  5  6  2  0
  7  2  1  0
  7 10  1  0
  8  7  2  0
 11 10  1  0
 11 12  1  1
 13 12  1  0
 14 18  1  0
 14 11  1  0
 15 14  2  0
 17 18  1  0
 17 16  1  1
 19 17  1  0
 20 19  1  0
 21 19  2  0
M  END
$$$$
