ECA.pdb
     RDKit          3D

 21 20  0  0  1  0  0  0  0  0999 V2000
   19.6225  -12.7516  -17.3000 N   0  0  0  0  0  0  0  0  0  0  0  0
   19.9582  -11.3567  -17.6577 C   0  0  1  0  0  0  0  0  0  0  0  0
   18.6805  -10.6750  -18.0246 C   0  0  0  0  0  0  0  0  0  0  0  0
   18.0983  -11.1924  -19.2873 C   0  0  0  0  0  0  0  0  0  0  0  0
   16.8611  -10.4741  -19.6334 C   0  0  0  0  0  0  0  0  0  0  0  0
   16.3522   -9.5448  -18.9890 O   0  0  0  0  0  0  0  0  0  0  0  0
   20.5932  -10.6846  -16.5150 C   0  0  0  0  0  0  0  0  0  0  0  0
   20.1291  -10.8244  -15.3654 O   0  0  0  0  0  0  0  0  0  0  0  0
   16.2060  -10.8912  -20.8065 O   0  0  0  0  0  0  0  0  0  0  0  0
   21.7423   -9.8592  -16.6557 N   0  0  0  0  0  0  0  0  0  0  0  0
   22.3586   -9.1414  -15.5606 C   0  0  1  0  0  0  0  0  0  0  0  0
   23.8465   -9.4048  -15.6430 C   0  0  0  0  0  0  0  0  0  0  0  0
   24.3096  -10.9953  -14.9643 S   0  0  0  0  0  0  0  0  0  0  0  0
   22.0517   -7.6909  -15.6577 C   0  0  0  0  0  0  0  0  0  0  0  0
   22.1226   -7.0796  -16.7748 O   0  0  0  0  0  0  0  0  0  0  0  0
   20.8563   -5.0004  -13.2529 C   0  0  0  0  0  0  0  0  0  0  0  0
   21.4442   -5.5195  -14.5304 C   0  0  2  0  0  0  0  0  0  0  0  0
   21.6737   -6.9383  -14.5319 N   0  0  0  0  0  0  0  0  0  0  0  0
   22.7303   -4.8090  -14.7574 C   0  0  0  0  0  0  0  0  0  0  0  0
   22.8284   -3.5106  -15.1999 O   0  0  0  0  0  0  0  0  0  0  0  0
   23.8380   -5.4098  -14.5385 O   0  0  0  0  0  0  0  0  0  0  0  0
  2  1  1  1
  3  2  1  0
  3  4  1  0
  4  5  1  0
  5  9  1  0
  5  6  2  0
  7  2  1  0
  7 10  1  0
  8  7  2  0
 11 10  1  0
 11 12  1  6
 13 12  1  0
 14 18  1  0
 14 11  1  0
 15 14  2  0
 17 18  1  0
 17 16  1  1
 19 17  1  0
 20 19  1  0
 21 19  2  0
M  END
$$$$
