ERR.pdb
     RDKit          3D

 32 31  0  0  1  0  0  0  0  0999 V2000
   13.3874  -17.7710   17.5306 N   0  0  0  0  0  0  0  0  0  0  0  0
   12.4357  -18.5128   18.3641 C   0  0  1  0  0  0  0  0  0  0  0  0
   13.3085  -19.4265   19.2072 C   0  0  0  0  0  0  0  0  0  0  0  0
   13.5591  -18.9174   20.5908 C   0  0  0  0  0  0  0  0  0  0  0  0
   14.4586  -19.8787   21.2892 C   0  0  0  0  0  0  0  0  0  0  0  0
   14.0307  -20.8693   21.9211 O   0  0  0  0  0  0  0  0  0  0  0  0
   11.7010  -17.5113   19.1783 C   0  0  0  0  0  0  0  0  0  0  0  0
   12.3133  -16.4725   19.6057 O   0  0  0  0  0  0  0  0  0  0  0  0
   15.8288  -19.6549   21.2248 O   0  0  0  0  0  0  0  0  0  0  0  0
    7.2217  -12.0148   18.8144 N   0  0  0  0  0  0  0  0  0  0  0  0
    7.6287  -13.2610   18.2340 C   0  0  0  0  0  0  0  0  0  0  0  0
    8.0590  -13.2534   17.0020 N   0  0  0  0  0  0  0  0  0  0  0  0
    7.5781  -14.4752   18.9392 N   0  0  0  0  0  0  0  0  0  0  0  0
    7.3147  -14.4984   20.3740 C   0  0  0  0  0  0  0  0  0  0  0  0
    7.2907  -15.9268   20.8669 C   0  0  0  0  0  0  0  0  0  0  0  0
    8.1846  -16.8400   20.1078 C   0  0  0  0  0  0  0  0  0  0  0  0
    9.6797  -16.5910   20.3770 C   0  0  2  0  0  0  0  0  0  0  0  0
   10.3435  -17.5999   19.5346 N   0  0  0  0  0  0  0  0  0  0  0  0
    9.9041  -16.8380   21.8088 C   0  0  0  0  0  0  0  0  0  0  0  0
    9.5801  -17.9741   22.3019 O   0  0  0  0  0  0  0  0  0  0  0  0
    8.4182  -14.0986   16.5253 N   0  0  0  0  0  0  0  0  0  0  0  0
   10.9140  -16.5046   29.8665 C   0  0  0  0  0  0  0  0  0  0  0  0
   10.4237  -15.1636   29.6805 N   0  0  0  0  0  0  0  0  0  0  0  0
   10.6026  -14.3102   30.6036 N   0  0  0  0  0  0  0  0  0  0  0  0
    9.7476  -14.7852   28.4928 C   0  0  0  0  0  0  0  0  0  0  0  0
   10.2659  -15.0880   27.1968 C   0  0  0  0  0  0  0  0  0  0  0  0
    9.2370  -15.8435   26.3366 C   0  0  0  0  0  0  0  0  0  0  0  0
    9.4737  -15.4647   24.9441 C   0  0  1  0  0  0  0  0  0  0  0  0
   10.5414  -16.1915   24.1819 N   0  0  0  0  0  0  0  0  0  0  0  0
   10.4577  -15.9338   22.7449 C   0  0  0  0  0  0  0  0  0  0  0  0
   10.7105  -17.5986   24.5012 O   0  0  0  0  0  0  0  0  0  0  0  0
    9.7944  -18.4289   24.2476 O   0  0  0  0  0  0  0  0  0  0  0  0
  2  1  1  6
  3  2  1  0
  3  4  1  0
  5  9  1  0
  5  4  1  0
  6  5  2  0
  7  2  1  0
  7  8  2  0
 10 11  1  0
 11 13  1  0
 11 12  2  0
 13 14  1  0
 14 15  1  0
 15 16  1  0
 17 16  1  1
 17 18  1  0
 18  7  1  0
 19 29  1  0
 19 17  1  0
 20 19  2  0
 21 22  1  0
 22 23  2  0
 24 22  1  0
 24 25  1  0
 25 26  1  0
 26 27  1  0
 28 27  1  1
 28 29  1  0
 28 30  1  0
 30 32  1  0
 31 30  2  0
M  END
$$$$
