ERR.pdb
     RDKit          3D

 32 31  0  0  1  0  0  0  0  0999 V2000
    9.1731  -20.1842   17.9692 N   0  0  0  0  0  0  0  0  0  0  0  0
   10.1538  -20.0884   19.0554 C   0  0  1  0  0  0  0  0  0  0  0  0
   11.0753  -18.9583   18.6300 C   0  0  0  0  0  0  0  0  0  0  0  0
   12.1378  -18.6337   19.6310 C   0  0  0  0  0  0  0  0  0  0  0  0
   12.9970  -17.5529   19.0702 C   0  0  0  0  0  0  0  0  0  0  0  0
   13.3192  -17.5023   17.8629 O   0  0  0  0  0  0  0  0  0  0  0  0
    9.3978  -19.7751   20.2948 C   0  0  0  0  0  0  0  0  0  0  0  0
    8.5112  -18.8530   20.2781 O   0  0  0  0  0  0  0  0  0  0  0  0
   13.4498  -16.5640   19.9355 O   0  0  0  0  0  0  0  0  0  0  0  0
    9.3153  -20.4247   27.8467 N   0  0  0  0  0  0  0  0  0  0  0  0
    8.3053  -21.4092   28.1034 C   0  0  0  0  0  0  0  0  0  0  0  0
    8.1103  -21.7815   29.3389 N   0  0  0  0  0  0  0  0  0  0  0  0
    7.5297  -21.9804   27.0805 N   0  0  0  0  0  0  0  0  0  0  0  0
    8.1159  -22.2960   25.7824 C   0  0  0  0  0  0  0  0  0  0  0  0
    8.1882  -21.0461   24.9360 C   0  0  0  0  0  0  0  0  0  0  0  0
    8.8077  -21.2584   23.6017 C   0  0  0  0  0  0  0  0  0  0  0  0
    8.8974  -19.9721   22.7606 C   0  0  2  0  0  0  0  0  0  0  0  0
    9.5700  -20.4233   21.5308 N   0  0  0  0  0  0  0  0  0  0  0  0
    9.7220  -19.0206   23.5196 C   0  0  0  0  0  0  0  0  0  0  0  0
   10.1358  -19.3489   24.6857 O   0  0  0  0  0  0  0  0  0  0  0  0
    7.4169  -22.5007   29.6080 N   0  0  0  0  0  0  0  0  0  0  0  0
    6.6660  -13.0657   19.1514 C   0  0  0  0  0  0  0  0  0  0  0  0
    7.7866  -12.6307   19.9441 N   0  0  0  0  0  0  0  0  0  0  0  0
    8.3988  -11.5687   19.6124 N   0  0  0  0  0  0  0  0  0  0  0  0
    8.2149  -13.3652   21.0789 C   0  0  0  0  0  0  0  0  0  0  0  0
    7.2894  -13.9527   21.9945 C   0  0  0  0  0  0  0  0  0  0  0  0
    8.0073  -14.5764   23.2049 C   0  0  0  0  0  0  0  0  0  0  0  0
    8.6739  -15.7905   22.7359 C   0  0  1  0  0  0  0  0  0  0  0  0
    9.6209  -16.4862   23.6678 N   0  0  0  0  0  0  0  0  0  0  0  0
   10.1294  -17.7334   23.0985 C   0  0  0  0  0  0  0  0  0  0  0  0
    9.1777  -16.6252   25.0443 O   0  0  0  0  0  0  0  0  0  0  0  0
    8.2696  -17.4481   25.3462 O   0  0  0  0  0  0  0  0  0  0  0  0
  2  1  1  6
  3  2  1  0
  3  4  1  0
  5  9  1  0
  5  4  1  0
  6  5  2  0
  7  2  1  0
  7  8  2  0
 10 11  1  0
 11 13  1  0
 11 12  2  0
 13 14  1  0
 14 15  1  0
 15 16  1  0
 17 16  1  1
 17 18  1  0
 18  7  1  0
 19 29  1  0
 19 17  1  0
 20 19  2  0
 21 22  1  0
 22 23  2  0
 24 22  1  0
 24 25  1  0
 25 26  1  0
 26 27  1  0
 28 27  1  6
 28 29  1  0
 28 30  1  0
 30 32  1  0
 31 30  2  0
M  END
$$$$
