ERR.pdb
     RDKit          3D

 32 31  0  0  1  0  0  0  0  0999 V2000
    7.9044  -20.3961   18.9366 N   0  0  0  0  0  0  0  0  0  0  0  0
    7.3450  -19.3348   19.7803 C   0  0  1  0  0  0  0  0  0  0  0  0
    6.9639  -20.0423   21.0693 C   0  0  0  0  0  0  0  0  0  0  0  0
    8.1325  -20.5678   21.8402 C   0  0  0  0  0  0  0  0  0  0  0  0
    7.6206  -21.2493   23.0627 C   0  0  0  0  0  0  0  0  0  0  0  0
    6.4055  -21.2916   23.3554 O   0  0  0  0  0  0  0  0  0  0  0  0
    8.4179  -18.3267   19.9760 C   0  0  0  0  0  0  0  0  0  0  0  0
    9.6421  -18.6983   19.9750 O   0  0  0  0  0  0  0  0  0  0  0  0
    8.5427  -21.8624   23.9026 O   0  0  0  0  0  0  0  0  0  0  0  0
    8.5204  -14.3929   16.6092 N   0  0  0  0  0  0  0  0  0  0  0  0
    7.7203  -13.2177   16.4244 C   0  0  0  0  0  0  0  0  0  0  0  0
    7.4025  -12.8765   15.2055 N   0  0  0  0  0  0  0  0  0  0  0  0
    7.2744  -12.4305   17.4993 N   0  0  0  0  0  0  0  0  0  0  0  0
    7.5745  -12.8040   18.8773 C   0  0  0  0  0  0  0  0  0  0  0  0
    8.2870  -14.1364   18.9029 C   0  0  0  0  0  0  0  0  0  0  0  0
    8.5989  -14.6254   20.2714 C   0  0  0  0  0  0  0  0  0  0  0  0
    9.3154  -15.9879   20.2825 C   0  0  2  0  0  0  0  0  0  0  0  0
    8.2064  -16.9496   20.1668 N   0  0  0  0  0  0  0  0  0  0  0  0
   10.0051  -16.0987   21.5761 C   0  0  0  0  0  0  0  0  0  0  0  0
    9.3243  -15.9907   22.6549 O   0  0  0  0  0  0  0  0  0  0  0  0
    6.8475  -12.0319   14.9833 N   0  0  0  0  0  0  0  0  0  0  0  0
   11.9378  -22.7479   25.7198 C   0  0  0  0  0  0  0  0  0  0  0  0
   12.2890  -21.7163   26.6610 N   0  0  0  0  0  0  0  0  0  0  0  0
   12.3752  -22.0119   27.8930 N   0  0  0  0  0  0  0  0  0  0  0  0
   12.5359  -20.3859   26.2370 C   0  0  0  0  0  0  0  0  0  0  0  0
   11.9577  -19.8509   25.0455 C   0  0  0  0  0  0  0  0  0  0  0  0
   12.5286  -18.4607   24.7126 C   0  0  0  0  0  0  0  0  0  0  0  0
   11.9274  -18.0359   23.4491 C   0  0  1  0  0  0  0  0  0  0  0  0
   11.9910  -16.5823   23.0854 N   0  0  0  0  0  0  0  0  0  0  0  0
   11.3871  -16.3193   21.7798 C   0  0  0  0  0  0  0  0  0  0  0  0
   13.2797  -15.9348   23.2598 O   0  0  0  0  0  0  0  0  0  0  0  0
   13.9050  -16.0333   24.3517 O   0  0  0  0  0  0  0  0  0  0  0  0
  2  1  1  6
  3  2  1  0
  3  4  1  0
  5  9  1  0
  5  4  1  0
  6  5  2  0
  7  2  1  0
  7  8  2  0
 10 11  1  0
 11 13  1  0
 11 12  2  0
 13 14  1  0
 14 15  1  0
 15 16  1  0
 17 16  1  1
 17 18  1  0
 18  7  1  0
 19 29  1  0
 19 17  1  0
 20 19  2  0
 21 22  1  0
 22 23  2  0
 24 22  1  0
 24 25  1  0
 25 26  1  0
 26 27  1  0
 28 27  1  1
 28 29  1  0
 28 30  1  0
 30 32  1  0
 31 30  2  0
M  END
$$$$
