ERR.pdb
     RDKit          3D

 32 31  0  0  1  0  0  0  0  0999 V2000
    8.6931  -12.6113   18.5364 N   0  0  0  0  0  0  0  0  0  0  0  0
    9.6498  -13.7227   18.5576 C   0  0  1  0  0  0  0  0  0  0  0  0
   10.9859  -13.0617   18.8497 C   0  0  0  0  0  0  0  0  0  0  0  0
   12.1175  -14.0267   19.0067 C   0  0  0  0  0  0  0  0  0  0  0  0
   13.3506  -13.2555   19.3316 C   0  0  0  0  0  0  0  0  0  0  0  0
   13.8650  -13.2504   20.4715 O   0  0  0  0  0  0  0  0  0  0  0  0
    9.2184  -14.6448   19.6390 C   0  0  0  0  0  0  0  0  0  0  0  0
    8.8033  -14.1653   20.7500 O   0  0  0  0  0  0  0  0  0  0  0  0
   13.9458  -12.5178   18.3152 O   0  0  0  0  0  0  0  0  0  0  0  0
    8.5287  -18.8669   16.1067 N   0  0  0  0  0  0  0  0  0  0  0  0
    8.4025  -20.1493   16.7353 C   0  0  0  0  0  0  0  0  0  0  0  0
    8.5034  -21.2131   15.9862 N   0  0  0  0  0  0  0  0  0  0  0  0
    8.1748  -20.2958   18.1140 N   0  0  0  0  0  0  0  0  0  0  0  0
    7.0232  -19.6696   18.7544 C   0  0  0  0  0  0  0  0  0  0  0  0
    7.4033  -18.2984   19.2634 C   0  0  0  0  0  0  0  0  0  0  0  0
    8.6546  -18.2803   20.0655 C   0  0  0  0  0  0  0  0  0  0  0  0
    8.9442  -16.9130   20.7109 C   0  0  2  0  0  0  0  0  0  0  0  0
    9.2211  -16.0483   19.5517 N   0  0  0  0  0  0  0  0  0  0  0  0
   10.1296  -17.0842   21.5634 C   0  0  0  0  0  0  0  0  0  0  0  0
   11.0999  -16.2565   21.4525 O   0  0  0  0  0  0  0  0  0  0  0  0
    8.4745  -22.1749   16.3665 N   0  0  0  0  0  0  0  0  0  0  0  0
    7.8792  -13.9219   27.8457 C   0  0  0  0  0  0  0  0  0  0  0  0
    8.9473  -14.6306   28.5016 N   0  0  0  0  0  0  0  0  0  0  0  0
    9.5414  -14.0792   29.4792 N   0  0  0  0  0  0  0  0  0  0  0  0
    9.3442  -15.9233   28.0747 C   0  0  0  0  0  0  0  0  0  0  0  0
    8.9510  -16.4572   26.8096 C   0  0  0  0  0  0  0  0  0  0  0  0
    9.9592  -16.0970   25.7037 C   0  0  0  0  0  0  0  0  0  0  0  0
    9.5828  -16.8534   24.5101 C   0  0  2  0  0  0  0  0  0  0  0  0
   10.5691  -17.8349   23.9507 N   0  0  0  0  0  0  0  0  0  0  0  0
   10.3348  -18.0952   22.5309 C   0  0  0  0  0  0  0  0  0  0  0  0
   10.7781  -19.0451   24.7267 O   0  0  0  0  0  0  0  0  0  0  0  0
    9.8455  -19.8828   24.8729 O   0  0  0  0  0  0  0  0  0  0  0  0
  2  1  1  1
  3  2  1  0
  3  4  1  0
  5  9  1  0
  5  4  1  0
  6  5  2  0
  7  2  1  0
  7  8  2  0
 10 11  1  0
 11 13  1  0
 11 12  2  0
 13 14  1  0
 14 15  1  0
 15 16  1  0
 17 16  1  6
 17 18  1  0
 18  7  1  0
 19 29  1  0
 19 17  1  0
 20 19  2  0
 21 22  1  0
 22 23  2  0
 24 22  1  0
 24 25  1  0
 25 26  1  0
 26 27  1  0
 28 27  1  6
 28 29  1  0
 28 30  1  0
 30 32  1  0
 31 30  2  0
M  END
$$$$
