ERR.pdb
     RDKit          3D

 32 31  0  0  1  0  0  0  0  0999 V2000
   14.1459  -17.9152   18.7073 N   0  0  0  0  0  0  0  0  0  0  0  0
   14.5805  -18.6087   19.9243 C   0  0  1  0  0  0  0  0  0  0  0  0
   15.6205  -17.6833   20.5320 C   0  0  0  0  0  0  0  0  0  0  0  0
   16.9031  -18.3645   20.8883 C   0  0  0  0  0  0  0  0  0  0  0  0
   17.7905  -17.3734   21.5600 C   0  0  0  0  0  0  0  0  0  0  0  0
   17.3950  -16.2408   21.9130 O   0  0  0  0  0  0  0  0  0  0  0  0
   13.3804  -18.7654   20.7852 C   0  0  0  0  0  0  0  0  0  0  0  0
   12.3952  -17.9608   20.6484 O   0  0  0  0  0  0  0  0  0  0  0  0
   19.1101  -17.7371   21.8012 O   0  0  0  0  0  0  0  0  0  0  0  0
   10.3301  -24.8190   20.9833 N   0  0  0  0  0  0  0  0  0  0  0  0
    9.1394  -24.1140   21.3582 C   0  0  0  0  0  0  0  0  0  0  0  0
    8.1326  -24.1239   20.5280 N   0  0  0  0  0  0  0  0  0  0  0  0
    9.0236  -23.4199   22.5743 N   0  0  0  0  0  0  0  0  0  0  0  0
   10.1896  -23.1902   23.4205 C   0  0  0  0  0  0  0  0  0  0  0  0
   10.5254  -21.7169   23.4403 C   0  0  0  0  0  0  0  0  0  0  0  0
   11.6909  -21.3544   22.5921 C   0  0  0  0  0  0  0  0  0  0  0  0
   12.0088  -19.8482   22.6060 C   0  0  2  0  0  0  0  0  0  0  0  0
   13.2185  -19.7542   21.7718 N   0  0  0  0  0  0  0  0  0  0  0  0
   12.2762  -19.4797   24.0039 C   0  0  0  0  0  0  0  0  0  0  0  0
   13.2769  -20.0053   24.6048 O   0  0  0  0  0  0  0  0  0  0  0  0
    7.2355  -23.6471   20.7244 N   0  0  0  0  0  0  0  0  0  0  0  0
    9.1784  -12.9942   28.8788 C   0  0  0  0  0  0  0  0  0  0  0  0
    9.8632  -14.2275   29.1677 N   0  0  0  0  0  0  0  0  0  0  0  0
   10.3044  -14.4251   30.3420 N   0  0  0  0  0  0  0  0  0  0  0  0
   10.0528  -15.2158   28.1686 C   0  0  0  0  0  0  0  0  0  0  0  0
   10.4614  -14.8824   26.8412 C   0  0  0  0  0  0  0  0  0  0  0  0
   10.4992  -16.1230   25.9308 C   0  0  0  0  0  0  0  0  0  0  0  0
   10.8806  -17.2620   26.7649 C   0  0  2  0  0  0  0  0  0  0  0  0
   11.8302  -18.2733   26.1951 N   0  0  0  0  0  0  0  0  0  0  0  0
   11.5297  -18.5772   24.7966 C   0  0  0  0  0  0  0  0  0  0  0  0
   12.0606  -19.4599   27.0009 O   0  0  0  0  0  0  0  0  0  0  0  0
   12.9263  -19.4539   27.9194 O   0  0  0  0  0  0  0  0  0  0  0  0
  2  1  1  6
  3  2  1  0
  3  4  1  0
  5  9  1  0
  5  4  1  0
  6  5  2  0
  7  2  1  0
  7  8  2  0
 10 11  1  0
 11 13  1  0
 11 12  2  0
 13 14  1  0
 14 15  1  0
 15 16  1  0
 17 16  1  1
 17 18  1  0
 18  7  1  0
 19 29  1  0
 19 17  1  0
 20 19  2  0
 21 22  1  0
 22 23  2  0
 24 22  1  0
 24 25  1  0
 25 26  1  0
 26 27  1  0
 28 27  1  6
 28 29  1  0
 28 30  1  0
 30 32  1  0
 31 30  2  0
M  END
$$$$
