ERR.pdb
     RDKit          3D

 32 31  0  0  1  0  0  0  0  0999 V2000
    5.3411  -19.4470   21.1400 N   0  0  0  0  0  0  0  0  0  0  0  0
    5.8496  -19.5151   22.5139 C   0  0  1  0  0  0  0  0  0  0  0  0
    6.2545  -20.9682   22.6923 C   0  0  0  0  0  0  0  0  0  0  0  0
    5.2314  -21.7998   23.3980 C   0  0  0  0  0  0  0  0  0  0  0  0
    5.8799  -22.4425   24.5759 C   0  0  0  0  0  0  0  0  0  0  0  0
    7.0716  -22.2319   24.8910 O   0  0  0  0  0  0  0  0  0  0  0  0
    7.0045  -18.5848   22.5947 C   0  0  0  0  0  0  0  0  0  0  0  0
    8.0935  -18.9753   23.1408 O   0  0  0  0  0  0  0  0  0  0  0  0
    5.1158  -23.3076   25.3502 O   0  0  0  0  0  0  0  0  0  0  0  0
    9.6862  -12.7921   19.6367 N   0  0  0  0  0  0  0  0  0  0  0  0
    8.7128  -13.0806   18.6243 C   0  0  0  0  0  0  0  0  0  0  0  0
    9.0690  -12.9523   17.3755 N   0  0  0  0  0  0  0  0  0  0  0  0
    7.4039  -13.4900   18.9295 N   0  0  0  0  0  0  0  0  0  0  0  0
    7.1589  -14.5828   19.8645 C   0  0  0  0  0  0  0  0  0  0  0  0
    7.6078  -14.1811   21.2504 C   0  0  0  0  0  0  0  0  0  0  0  0
    6.9222  -14.9203   22.3425 C   0  0  0  0  0  0  0  0  0  0  0  0
    7.6941  -16.1668   22.8118 C   0  0  2  0  0  0  0  0  0  0  0  0
    7.0144  -17.2661   22.1064 N   0  0  0  0  0  0  0  0  0  0  0  0
    7.5170  -16.2571   24.2685 C   0  0  0  0  0  0  0  0  0  0  0  0
    6.3429  -16.4487   24.7413 O   0  0  0  0  0  0  0  0  0  0  0  0
    8.4150  -13.0914   16.5858 N   0  0  0  0  0  0  0  0  0  0  0  0
    6.7336  -20.9781   28.5714 C   0  0  0  0  0  0  0  0  0  0  0  0
    7.9184  -21.7828   28.4227 N   0  0  0  0  0  0  0  0  0  0  0  0
    8.3880  -22.3794   29.4407 N   0  0  0  0  0  0  0  0  0  0  0  0
    8.5649  -21.9164   27.1677 C   0  0  0  0  0  0  0  0  0  0  0  0
    9.1417  -20.7993   26.4899 C   0  0  0  0  0  0  0  0  0  0  0  0
    8.1422  -19.6357   26.3615 C   0  0  0  0  0  0  0  0  0  0  0  0
    8.8197  -18.5593   25.6399 C   0  0  2  0  0  0  0  0  0  0  0  0
    8.8161  -17.1867   26.2443 N   0  0  0  0  0  0  0  0  0  0  0  0
    8.5299  -16.1532   25.2502 C   0  0  0  0  0  0  0  0  0  0  0  0
    9.9448  -16.8607   27.0988 O   0  0  0  0  0  0  0  0  0  0  0  0
    9.7853  -16.7040   28.3409 O   0  0  0  0  0  0  0  0  0  0  0  0
  2  1  1  6
  3  2  1  0
  3  4  1  0
  5  9  1  0
  5  4  1  0
  6  5  2  0
  7  2  1  0
  7  8  2  0
 10 11  1  0
 11 13  1  0
 11 12  2  0
 13 14  1  0
 14 15  1  0
 15 16  1  0
 17 16  1  6
 17 18  1  0
 18  7  1  0
 19 29  1  0
 19 17  1  0
 20 19  2  0
 21 22  1  0
 22 23  2  0
 24 22  1  0
 24 25  1  0
 25 26  1  0
 26 27  1  0
 28 27  1  1
 28 29  1  0
 28 30  1  0
 30 32  1  0
 31 30  2  0
M  END
$$$$
