ERR.pdb
     RDKit          3D

 32 31  0  0  1  0  0  0  0  0999 V2000
    8.7540  -21.8649   19.3604 N   0  0  0  0  0  0  0  0  0  0  0  0
    8.0031  -21.3210   20.4967 C   0  0  1  0  0  0  0  0  0  0  0  0
    8.3947  -22.2097   21.6647 C   0  0  0  0  0  0  0  0  0  0  0  0
    9.8588  -22.2001   21.9689 C   0  0  0  0  0  0  0  0  0  0  0  0
   10.1172  -23.1764   23.0648 C   0  0  0  0  0  0  0  0  0  0  0  0
    9.2003  -23.7813   23.6624 O   0  0  0  0  0  0  0  0  0  0  0  0
    8.4450  -19.9142   20.6742 C   0  0  0  0  0  0  0  0  0  0  0  0
    9.6297  -19.5758   20.3296 O   0  0  0  0  0  0  0  0  0  0  0  0
   11.4374  -23.4179   23.4259 O   0  0  0  0  0  0  0  0  0  0  0  0
    7.9145  -13.4509   17.6174 N   0  0  0  0  0  0  0  0  0  0  0  0
    7.9079  -12.9116   18.9458 C   0  0  0  0  0  0  0  0  0  0  0  0
    7.8571  -11.6147   19.0819 N   0  0  0  0  0  0  0  0  0  0  0  0
    7.9555  -13.7238   20.0913 N   0  0  0  0  0  0  0  0  0  0  0  0
    6.7663  -14.4246   20.5635 C   0  0  0  0  0  0  0  0  0  0  0  0
    7.1058  -15.2398   21.7898 C   0  0  0  0  0  0  0  0  0  0  0  0
    6.8635  -16.6975   21.6289 C   0  0  0  0  0  0  0  0  0  0  0  0
    8.1465  -17.5003   21.3473 C   0  0  2  0  0  0  0  0  0  0  0  0
    7.6525  -18.8799   21.2029 N   0  0  0  0  0  0  0  0  0  0  0  0
    9.0139  -17.3485   22.5247 C   0  0  0  0  0  0  0  0  0  0  0  0
    8.9024  -18.1813   23.4905 O   0  0  0  0  0  0  0  0  0  0  0  0
    7.9437  -11.1403   19.9974 N   0  0  0  0  0  0  0  0  0  0  0  0
   16.6611  -13.8206   20.3044 C   0  0  0  0  0  0  0  0  0  0  0  0
   16.9912  -15.0443   20.9878 N   0  0  0  0  0  0  0  0  0  0  0  0
   18.1750  -15.4957   20.9026 N   0  0  0  0  0  0  0  0  0  0  0  0
   16.0218  -15.7484   21.7463 C   0  0  0  0  0  0  0  0  0  0  0  0
   14.6206  -15.5900   21.5190 C   0  0  0  0  0  0  0  0  0  0  0  0
   13.7898  -16.5001   22.4413 C   0  0  0  0  0  0  0  0  0  0  0  0
   12.3801  -16.2436   22.1489 C   0  0  2  0  0  0  0  0  0  0  0  0
   11.3599  -16.6254   23.1797 N   0  0  0  0  0  0  0  0  0  0  0  0
    9.9969  -16.3518   22.7261 C   0  0  0  0  0  0  0  0  0  0  0  0
   11.6149  -16.1648   24.5337 O   0  0  0  0  0  0  0  0  0  0  0  0
   10.9176  -15.2428   25.0400 O   0  0  0  0  0  0  0  0  0  0  0  0
  2  1  1  6
  3  2  1  0
  3  4  1  0
  5  9  1  0
  5  4  1  0
  6  5  2  0
  7  2  1  0
  7  8  2  0
 10 11  1  0
 11 13  1  0
 11 12  2  0
 13 14  1  0
 14 15  1  0
 15 16  1  0
 17 16  1  1
 17 18  1  0
 18  7  1  0
 19 29  1  0
 19 17  1  0
 20 19  2  0
 21 22  1  0
 22 23  2  0
 24 22  1  0
 24 25  1  0
 25 26  1  0
 26 27  1  0
 28 27  1  6
 28 29  1  0
 28 30  1  0
 30 32  1  0
 31 30  2  0
M  END
$$$$
