ERR.pdb
     RDKit          3D

 32 31  0  0  1  0  0  0  0  0999 V2000
    7.3694  -14.6451   18.3917 N   0  0  0  0  0  0  0  0  0  0  0  0
    8.4289  -15.5857   18.7707 C   0  0  1  0  0  0  0  0  0  0  0  0
    9.6777  -14.7259   18.8643 C   0  0  0  0  0  0  0  0  0  0  0  0
   10.8895  -15.4668   19.3321 C   0  0  0  0  0  0  0  0  0  0  0  0
   12.0469  -14.5280   19.3223 C   0  0  0  0  0  0  0  0  0  0  0  0
   11.9366  -13.3209   19.0148 O   0  0  0  0  0  0  0  0  0  0  0  0
    8.0390  -16.1733   20.0778 C   0  0  0  0  0  0  0  0  0  0  0  0
    7.5132  -15.4273   20.9743 O   0  0  0  0  0  0  0  0  0  0  0  0
   13.2951  -15.0272   19.6749 O   0  0  0  0  0  0  0  0  0  0  0  0
   10.3677  -22.6785   23.0887 N   0  0  0  0  0  0  0  0  0  0  0  0
    9.3240  -22.8901   24.0487 C   0  0  0  0  0  0  0  0  0  0  0  0
    9.6302  -23.4892   25.1669 N   0  0  0  0  0  0  0  0  0  0  0  0
    7.9986  -22.4801   23.8265 N   0  0  0  0  0  0  0  0  0  0  0  0
    7.6066  -21.8621   22.5644 C   0  0  0  0  0  0  0  0  0  0  0  0
    7.4920  -20.3656   22.7411 C   0  0  0  0  0  0  0  0  0  0  0  0
    7.8710  -19.5867   21.5333 C   0  0  0  0  0  0  0  0  0  0  0  0
    7.7090  -18.0665   21.7137 C   0  0  2  0  0  0  0  0  0  0  0  0
    8.1970  -17.5243   20.4346 N   0  0  0  0  0  0  0  0  0  0  0  0
    8.5692  -17.6746   22.8397 C   0  0  0  0  0  0  0  0  0  0  0  0
    9.8404  -17.7080   22.6919 O   0  0  0  0  0  0  0  0  0  0  0  0
    8.9293  -23.7227   25.8913 N   0  0  0  0  0  0  0  0  0  0  0  0
    5.5730  -11.6196   27.5959 C   0  0  0  0  0  0  0  0  0  0  0  0
    6.2302  -11.2873   26.3585 N   0  0  0  0  0  0  0  0  0  0  0  0
    6.0764  -10.1236   25.8742 N   0  0  0  0  0  0  0  0  0  0  0  0
    7.0380  -12.2327   25.6770 C   0  0  0  0  0  0  0  0  0  0  0  0
    7.4254  -13.4700   26.2763 C   0  0  0  0  0  0  0  0  0  0  0  0
    8.1700  -14.3751   25.2784 C   0  0  0  0  0  0  0  0  0  0  0  0
    8.4310  -15.6448   25.9554 C   0  0  2  0  0  0  0  0  0  0  0  0
    9.0444  -16.7599   25.1620 N   0  0  0  0  0  0  0  0  0  0  0  0
    8.1431  -17.2478   24.1189 C   0  0  0  0  0  0  0  0  0  0  0  0
    9.6609  -17.8278   25.9300 O   0  0  0  0  0  0  0  0  0  0  0  0
    9.1070  -18.9586   26.0163 O   0  0  0  0  0  0  0  0  0  0  0  0
  2  1  1  1
  3  2  1  0
  3  4  1  0
  5  9  1  0
  5  4  1  0
  6  5  2  0
  7  2  1  0
  7  8  2  0
 10 11  1  0
 11 13  1  0
 11 12  2  0
 13 14  1  0
 14 15  1  0
 15 16  1  0
 17 16  1  6
 17 18  1  0
 18  7  1  0
 19 29  1  0
 19 17  1  0
 20 19  2  0
 21 22  1  0
 22 23  2  0
 24 22  1  0
 24 25  1  0
 25 26  1  0
 26 27  1  0
 28 27  1  6
 28 29  1  0
 28 30  1  0
 30 32  1  0
 31 30  2  0
M  END
$$$$
