ERR.pdb
     RDKit          3D

 32 31  0  0  1  0  0  0  0  0999 V2000
   11.2707  -20.3216   19.7472 N   0  0  0  0  0  0  0  0  0  0  0  0
   12.4856  -19.6234   19.3142 C   0  0  1  0  0  0  0  0  0  0  0  0
   12.3664  -19.5668   17.8010 C   0  0  0  0  0  0  0  0  0  0  0  0
   11.0785  -18.9815   17.3162 C   0  0  0  0  0  0  0  0  0  0  0  0
   11.0972  -18.9746   15.8261 C   0  0  0  0  0  0  0  0  0  0  0  0
   12.1015  -19.3093   15.1603 O   0  0  0  0  0  0  0  0  0  0  0  0
   12.4582  -18.2774   19.9415 C   0  0  0  0  0  0  0  0  0  0  0  0
   13.4588  -17.4932   19.7987 O   0  0  0  0  0  0  0  0  0  0  0  0
    9.9423  -18.5806   15.1608 O   0  0  0  0  0  0  0  0  0  0  0  0
    7.7094  -12.0446   19.0739 N   0  0  0  0  0  0  0  0  0  0  0  0
    7.8900  -13.0111   18.0305 C   0  0  0  0  0  0  0  0  0  0  0  0
    7.9692  -12.5803   16.8012 N   0  0  0  0  0  0  0  0  0  0  0  0
    7.9815  -14.3898   18.2854 N   0  0  0  0  0  0  0  0  0  0  0  0
    8.2005  -14.8893   19.6385 C   0  0  0  0  0  0  0  0  0  0  0  0
    9.6398  -15.3214   19.7979 C   0  0  0  0  0  0  0  0  0  0  0  0
    9.9359  -15.9540   21.1100 C   0  0  0  0  0  0  0  0  0  0  0  0
   11.4028  -16.3981   21.2544 C   0  0  2  0  0  0  0  0  0  0  0  0
   11.3942  -17.7639   20.7042 N   0  0  0  0  0  0  0  0  0  0  0  0
   11.7142  -16.3873   22.6912 C   0  0  0  0  0  0  0  0  0  0  0  0
   12.3544  -15.3928   23.1811 O   0  0  0  0  0  0  0  0  0  0  0  0
    8.1342  -13.2066   15.9942 N   0  0  0  0  0  0  0  0  0  0  0  0
   10.3467  -15.1448   31.6025 C   0  0  0  0  0  0  0  0  0  0  0  0
   10.4061  -15.0362   30.1679 N   0  0  0  0  0  0  0  0  0  0  0  0
   10.0687  -13.9414   29.6199 N   0  0  0  0  0  0  0  0  0  0  0  0
   10.8300  -16.1248   29.3642 C   0  0  0  0  0  0  0  0  0  0  0  0
   10.4011  -16.2792   28.0105 C   0  0  0  0  0  0  0  0  0  0  0  0
   10.8989  -17.6041   27.4053 C   0  0  0  0  0  0  0  0  0  0  0  0
   10.6326  -17.5520   25.9684 C   0  0  1  0  0  0  0  0  0  0  0  0
   11.7924  -17.3592   25.0375 N   0  0  0  0  0  0  0  0  0  0  0  0
   11.3773  -17.3848   23.6355 C   0  0  0  0  0  0  0  0  0  0  0  0
   12.9665  -18.1732   25.3007 O   0  0  0  0  0  0  0  0  0  0  0  0
   13.1185  -19.2858   24.7246 O   0  0  0  0  0  0  0  0  0  0  0  0
  2  1  1  1
  3  2  1  0
  3  4  1  0
  5  9  1  0
  5  4  1  0
  6  5  2  0
  7  2  1  0
  7  8  2  0
 10 11  1  0
 11 13  1  0
 11 12  2  0
 13 14  1  0
 14 15  1  0
 15 16  1  0
 17 16  1  1
 17 18  1  0
 18  7  1  0
 19 29  1  0
 19 17  1  0
 20 19  2  0
 21 22  1  0
 22 23  2  0
 24 22  1  0
 24 25  1  0
 25 26  1  0
 26 27  1  0
 28 27  1  1
 28 29  1  0
 28 30  1  0
 30 32  1  0
 31 30  2  0
M  END
$$$$
