ERR.pdb
     RDKit          3D

 32 31  0  0  1  0  0  0  0  0999 V2000
   13.4409  -18.8130   18.8806 N   0  0  0  0  0  0  0  0  0  0  0  0
   12.2123  -19.2184   19.5713 C   0  0  1  0  0  0  0  0  0  0  0  0
   12.5637  -20.5509   20.2104 C   0  0  0  0  0  0  0  0  0  0  0  0
   11.4996  -21.0892   21.1128 C   0  0  0  0  0  0  0  0  0  0  0  0
   12.0238  -22.3156   21.7776 C   0  0  0  0  0  0  0  0  0  0  0  0
   12.7546  -22.2760   22.7916 O   0  0  0  0  0  0  0  0  0  0  0  0
   11.9110  -18.1644   20.5733 C   0  0  0  0  0  0  0  0  0  0  0  0
   12.8720  -17.5521   21.1548 O   0  0  0  0  0  0  0  0  0  0  0  0
   11.6755  -23.5490   21.2398 O   0  0  0  0  0  0  0  0  0  0  0  0
    9.2427  -13.1758   18.8083 N   0  0  0  0  0  0  0  0  0  0  0  0
    8.3395  -12.9528   19.8992 C   0  0  0  0  0  0  0  0  0  0  0  0
    8.2996  -11.7612   20.4298 N   0  0  0  0  0  0  0  0  0  0  0  0
    7.5080  -13.9635   20.4103 N   0  0  0  0  0  0  0  0  0  0  0  0
    7.4159  -14.2038   21.8463 C   0  0  0  0  0  0  0  0  0  0  0  0
    8.6685  -14.8966   22.3307 C   0  0  0  0  0  0  0  0  0  0  0  0
    9.1232  -16.0030   21.4485 C   0  0  0  0  0  0  0  0  0  0  0  0
   10.3853  -16.7158   21.9672 C   0  0  2  0  0  0  0  0  0  0  0  0
   10.6196  -17.7592   20.9551 N   0  0  0  0  0  0  0  0  0  0  0  0
   10.0455  -17.2889   23.2778 C   0  0  0  0  0  0  0  0  0  0  0  0
    9.0587  -18.0997   23.3647 O   0  0  0  0  0  0  0  0  0  0  0  0
    7.7712  -11.5461   21.2930 N   0  0  0  0  0  0  0  0  0  0  0  0
   12.8958  -22.2305   30.1286 C   0  0  0  0  0  0  0  0  0  0  0  0
   13.3289  -20.8575   30.1034 N   0  0  0  0  0  0  0  0  0  0  0  0
   14.5001  -20.5751   30.5051 N   0  0  0  0  0  0  0  0  0  0  0  0
   12.4740  -19.8242   29.6429 C   0  0  0  0  0  0  0  0  0  0  0  0
   12.4460  -19.4180   28.2738 C   0  0  0  0  0  0  0  0  0  0  0  0
   11.2906  -18.4398   27.9958 C   0  0  0  0  0  0  0  0  0  0  0  0
   11.5153  -17.8686   26.6685 C   0  0  1  0  0  0  0  0  0  0  0  0
   10.3290  -17.6578   25.7756 N   0  0  0  0  0  0  0  0  0  0  0  0
   10.7054  -17.0416   24.5040 C   0  0  0  0  0  0  0  0  0  0  0  0
    9.1679  -17.0372   26.3899 O   0  0  0  0  0  0  0  0  0  0  0  0
    8.8936  -15.8259   26.1654 O   0  0  0  0  0  0  0  0  0  0  0  0
  2  1  1  1
  3  2  1  0
  3  4  1  0
  5  9  1  0
  5  4  1  0
  6  5  2  0
  7  2  1  0
  7  8  2  0
 10 11  1  0
 11 13  1  0
 11 12  2  0
 13 14  1  0
 14 15  1  0
 15 16  1  0
 17 16  1  6
 17 18  1  0
 18  7  1  0
 19 29  1  0
 19 17  1  0
 20 19  2  0
 21 22  1  0
 22 23  2  0
 24 22  1  0
 24 25  1  0
 25 26  1  0
 26 27  1  0
 28 27  1  6
 28 29  1  0
 28 30  1  0
 30 32  1  0
 31 30  2  0
M  END
$$$$
