FFR.pdb
     RDKit          3D

 34 35  0  0  1  0  0  0  0  0999 V2000
    7.1680  -15.0997   21.6138 N   0  0  0  0  0  0  0  0  0  0  0  0
    8.6061  -15.2664   21.7960 C   0  0  1  0  0  0  0  0  0  0  0  0
    9.2424  -14.0340   21.1899 C   0  0  0  0  0  0  0  0  0  0  0  0
    8.5369  -13.6671   19.9110 C   0  0  0  0  0  0  0  0  0  0  0  0
    8.9146  -14.3190   18.7579 C   0  0  0  0  0  0  0  0  0  0  0  0
    8.2825  -13.9983   17.5765 C   0  0  0  0  0  0  0  0  0  0  0  0
    7.2910  -13.0423   17.5529 C   0  0  0  0  0  0  0  0  0  0  0  0
    6.9139  -12.3887   18.7150 C   0  0  0  0  0  0  0  0  0  0  0  0
    7.5550  -12.7205   19.8864 C   0  0  0  0  0  0  0  0  0  0  0  0
    8.8770  -15.4175   23.2292 C   0  0  0  0  0  0  0  0  0  0  0  0
    9.9076  -14.8892   23.7734 O   0  0  0  0  0  0  0  0  0  0  0  0
    8.0431  -16.1459   24.1299 N   0  0  0  0  0  0  0  0  0  0  0  0
    8.2922  -16.1960   25.5505 C   0  0  1  0  0  0  0  0  0  0  0  0
    6.9759  -15.8349   26.2570 C   0  0  0  0  0  0  0  0  0  0  0  0
    6.9320  -14.3881   26.4849 C   0  0  0  0  0  0  0  0  0  0  0  0
    5.8860  -13.6353   25.9643 C   0  0  0  0  0  0  0  0  0  0  0  0
    5.8334  -12.2647   26.1720 C   0  0  0  0  0  0  0  0  0  0  0  0
    6.8115  -11.6263   26.8944 C   0  0  0  0  0  0  0  0  0  0  0  0
    7.8431  -12.3869   27.4047 C   0  0  0  0  0  0  0  0  0  0  0  0
    7.9093  -13.7689   27.2036 C   0  0  0  0  0  0  0  0  0  0  0  0
    8.6202  -17.5650   26.0189 C   0  0  0  0  0  0  0  0  0  0  0  0
    7.6798  -18.4098   26.0987 O   0  0  0  0  0  0  0  0  0  0  0  0
   10.7919  -20.9698   22.0065 N   0  0  0  0  0  0  0  0  0  0  0  0
   11.7364  -19.9491   21.7074 C   0  0  0  0  0  0  0  0  0  0  0  0
   11.6735  -19.3676   20.5492 N   0  0  0  0  0  0  0  0  0  0  0  0
   12.7225  -19.5732   22.6486 N   0  0  0  0  0  0  0  0  0  0  0  0
   12.7108  -20.1494   24.0133 C   0  0  0  0  0  0  0  0  0  0  0  0
   11.5280  -19.6180   24.7513 C   0  0  0  0  0  0  0  0  0  0  0  0
   11.3197  -19.8971   26.1505 C   0  0  0  0  0  0  0  0  0  0  0  0
   10.1805  -19.3611   26.9266 C   0  0  2  0  0  0  0  0  0  0  0  0
    9.9018  -17.9893   26.3801 N   0  0  0  0  0  0  0  0  0  0  0  0
   10.4912  -19.0679   28.3480 C   0  0  0  0  0  0  0  0  0  0  0  0
   10.5474  -20.1402   29.2796 O   0  0  0  0  0  0  0  0  0  0  0  0
   10.7209  -17.9648   28.8708 O   0  0  0  0  0  0  0  0  0  0  0  0
  2  1  1  1
  3  2  1  0
  4  3  1  0
  4  5  2  0
  6  5  1  0
  7  6  2  0
  8  9  2  0
  8  7  1  0
  9  4  1  0
 10  2  1  0
 11 10  2  0
 12 10  1  0
 13 12  1  0
 13 14  1  1
 15 14  1  0
 16 15  2  0
 17 16  1  0
 18 17  2  0
 18 19  1  0
 19 20  2  0
 20 15  1  0
 21 22  2  0
 21 13  1  0
 23 24  1  0
 24 25  2  0
 26 27  1  0
 26 24  1  0
 27 28  1  0
 30 29  1  6
 29 28  1  0
 30 31  1  0
 31 21  1  0
 32 30  1  0
 33 32  1  0
 34 32  2  0
M  END
$$$$
