FFR.pdb
     RDKit          3D

 34 35  0  0  1  0  0  0  0  0999 V2000
    7.3226  -17.4394   20.7988 N   0  0  0  0  0  0  0  0  0  0  0  0
    8.6799  -16.9950   20.5000 C   0  0  1  0  0  0  0  0  0  0  0  0
    8.5485  -16.0167   19.3527 C   0  0  0  0  0  0  0  0  0  0  0  0
    8.1047  -14.6738   19.8702 C   0  0  0  0  0  0  0  0  0  0  0  0
    8.9779  -13.6158   19.7466 C   0  0  0  0  0  0  0  0  0  0  0  0
    8.5922  -12.3786   20.2139 C   0  0  0  0  0  0  0  0  0  0  0  0
    7.3545  -12.2065   20.7937 C   0  0  0  0  0  0  0  0  0  0  0  0
    6.4788  -13.2733   20.9163 C   0  0  0  0  0  0  0  0  0  0  0  0
    6.8793  -14.5023   20.4447 C   0  0  0  0  0  0  0  0  0  0  0  0
    9.2496  -16.3986   21.7126 C   0  0  0  0  0  0  0  0  0  0  0  0
   10.4418  -15.9344   21.7316 O   0  0  0  0  0  0  0  0  0  0  0  0
    8.5513  -16.2808   22.9517 N   0  0  0  0  0  0  0  0  0  0  0  0
    9.1816  -15.7932   24.1549 C   0  0  1  0  0  0  0  0  0  0  0  0
    8.0638  -15.3002   25.0874 C   0  0  0  0  0  0  0  0  0  0  0  0
    8.6627  -14.6754   26.2699 C   0  0  0  0  0  0  0  0  0  0  0  0
    9.1165  -15.4674   27.3181 C   0  0  0  0  0  0  0  0  0  0  0  0
    9.6844  -14.8883   28.4435 C   0  0  0  0  0  0  0  0  0  0  0  0
    9.8092  -13.5244   28.5437 C   0  0  0  0  0  0  0  0  0  0  0  0
    9.3543  -12.7517   27.4954 C   0  0  0  0  0  0  0  0  0  0  0  0
    8.7798  -13.3212   26.3550 C   0  0  0  0  0  0  0  0  0  0  0  0
    9.8684  -16.8703   24.9095 C   0  0  0  0  0  0  0  0  0  0  0  0
    9.2058  -17.9089   25.2036 O   0  0  0  0  0  0  0  0  0  0  0  0
   15.4236  -18.9967   19.6311 N   0  0  0  0  0  0  0  0  0  0  0  0
   14.2126  -19.6119   20.0539 C   0  0  0  0  0  0  0  0  0  0  0  0
   13.3939  -20.0532   19.1492 N   0  0  0  0  0  0  0  0  0  0  0  0
   13.9049  -19.7421   21.4278 N   0  0  0  0  0  0  0  0  0  0  0  0
   13.7604  -18.5379   22.2784 C   0  0  0  0  0  0  0  0  0  0  0  0
   13.4098  -18.9652   23.6642 C   0  0  0  0  0  0  0  0  0  0  0  0
   13.1841  -18.0076   24.7183 C   0  0  0  0  0  0  0  0  0  0  0  0
   12.0114  -18.0492   25.6185 C   0  0  2  0  0  0  0  0  0  0  0  0
   11.2031  -16.8179   25.3207 N   0  0  0  0  0  0  0  0  0  0  0  0
   12.3347  -17.8642   27.0551 C   0  0  0  0  0  0  0  0  0  0  0  0
   11.6450  -18.6411   28.0254 O   0  0  0  0  0  0  0  0  0  0  0  0
   13.1627  -17.0886   27.5609 O   0  0  0  0  0  0  0  0  0  0  0  0
  2  1  1  1
  3  2  1  0
  4  3  1  0
  4  5  2  0
  6  5  1  0
  7  6  2  0
  8  9  2  0
  8  7  1  0
  9  4  1  0
 10  2  1  0
 11 10  2  0
 12 10  1  0
 13 12  1  0
 13 14  1  1
 15 14  1  0
 16 15  2  0
 17 16  1  0
 18 17  2  0
 18 19  1  0
 19 20  2  0
 20 15  1  0
 21 22  2  0
 21 13  1  0
 23 24  1  0
 24 25  2  0
 26 27  1  0
 26 24  1  0
 27 28  1  0
 30 29  1  6
 29 28  1  0
 30 31  1  0
 31 21  1  0
 32 30  1  0
 33 32  1  0
 34 32  2  0
M  END
$$$$
