FFR.pdb
     RDKit          3D

 34 35  0  0  1  0  0  0  0  0999 V2000
    8.9103  -14.2177   18.6059 N   0  0  0  0  0  0  0  0  0  0  0  0
    8.3721  -15.1812   19.5604 C   0  0  1  0  0  0  0  0  0  0  0  0
    9.0778  -16.4877   19.2673 C   0  0  0  0  0  0  0  0  0  0  0  0
    8.4157  -17.1804   18.1055 C   0  0  0  0  0  0  0  0  0  0  0  0
    8.8619  -18.4389   17.7674 C   0  0  0  0  0  0  0  0  0  0  0  0
    8.2704  -19.0904   16.7074 C   0  0  0  0  0  0  0  0  0  0  0  0
    7.2512  -18.4909   16.0007 C   0  0  0  0  0  0  0  0  0  0  0  0
    6.8051  -17.2247   16.3439 C   0  0  0  0  0  0  0  0  0  0  0  0
    7.4064  -16.5875   17.4049 C   0  0  0  0  0  0  0  0  0  0  0  0
    8.6175  -14.6773   20.9156 C   0  0  0  0  0  0  0  0  0  0  0  0
    9.8037  -14.4547   21.3407 O   0  0  0  0  0  0  0  0  0  0  0  0
    7.5889  -14.3940   21.8635 N   0  0  0  0  0  0  0  0  0  0  0  0
    7.8722  -14.0140   23.2266 C   0  0  1  0  0  0  0  0  0  0  0  0
    6.5491  -13.5475   23.8543 C   0  0  0  0  0  0  0  0  0  0  0  0
    6.7938  -13.1223   25.2350 C   0  0  0  0  0  0  0  0  0  0  0  0
    8.0771  -13.1900   25.7645 C   0  0  0  0  0  0  0  0  0  0  0  0
    8.3218  -12.7915   27.0706 C   0  0  0  0  0  0  0  0  0  0  0  0
    7.3033  -12.3235   27.8641 C   0  0  0  0  0  0  0  0  0  0  0  0
    6.0352  -12.2623   27.3245 C   0  0  0  0  0  0  0  0  0  0  0  0
    5.7735  -12.6603   26.0100 C   0  0  0  0  0  0  0  0  0  0  0  0
    8.3093  -15.1647   24.0550 C   0  0  0  0  0  0  0  0  0  0  0  0
    7.4182  -15.9176   24.5482 O   0  0  0  0  0  0  0  0  0  0  0  0
   13.9148  -14.1143   20.5540 N   0  0  0  0  0  0  0  0  0  0  0  0
   13.5151  -15.4074   20.1160 C   0  0  0  0  0  0  0  0  0  0  0  0
   13.9841  -15.8522   18.9910 N   0  0  0  0  0  0  0  0  0  0  0  0
   12.6278  -16.1935   20.8868 N   0  0  0  0  0  0  0  0  0  0  0  0
   12.6516  -16.1140   22.3658 C   0  0  0  0  0  0  0  0  0  0  0  0
   11.6223  -17.0437   22.9157 C   0  0  0  0  0  0  0  0  0  0  0  0
   11.3622  -17.1347   24.3310 C   0  0  0  0  0  0  0  0  0  0  0  0
   10.0631  -16.7828   24.9441 C   0  0  2  0  0  0  0  0  0  0  0  0
    9.6433  -15.4769   24.3303 N   0  0  0  0  0  0  0  0  0  0  0  0
   10.1396  -16.4343   26.3847 C   0  0  0  0  0  0  0  0  0  0  0  0
   10.9588  -15.3459   26.7910 O   0  0  0  0  0  0  0  0  0  0  0  0
    9.5631  -16.9836   27.3380 O   0  0  0  0  0  0  0  0  0  0  0  0
  2  1  1  6
  3  2  1  0
  4  3  1  0
  4  5  2  0
  6  5  1  0
  7  6  2  0
  8  9  2  0
  8  7  1  0
  9  4  1  0
 10  2  1  0
 11 10  2  0
 12 10  1  0
 13 12  1  0
 13 14  1  1
 15 14  1  0
 16 15  2  0
 17 16  1  0
 18 17  2  0
 18 19  1  0
 19 20  2  0
 20 15  1  0
 21 22  2  0
 21 13  1  0
 23 24  1  0
 24 25  2  0
 26 27  1  0
 26 24  1  0
 27 28  1  0
 30 29  1  6
 29 28  1  0
 30 31  1  0
 31 21  1  0
 32 30  1  0
 33 32  1  0
 34 32  2  0
M  END
$$$$
