FFR.pdb
     RDKit          3D

 34 35  0  0  1  0  0  0  0  0999 V2000
    7.4483  -17.6319   16.9740 N   0  0  0  0  0  0  0  0  0  0  0  0
    7.7183  -16.3691   17.6532 C   0  0  1  0  0  0  0  0  0  0  0  0
    6.5616  -16.1600   18.6067 C   0  0  0  0  0  0  0  0  0  0  0  0
    6.8203  -14.9556   19.4729 C   0  0  0  0  0  0  0  0  0  0  0  0
    7.0314  -13.7466   18.8477 C   0  0  0  0  0  0  0  0  0  0  0  0
    7.2705  -12.6320   19.6212 C   0  0  0  0  0  0  0  0  0  0  0  0
    7.2971  -12.7287   20.9951 C   0  0  0  0  0  0  0  0  0  0  0  0
    7.0843  -13.9468   21.6204 C   0  0  0  0  0  0  0  0  0  0  0  0
    6.8471  -15.0504   20.8335 C   0  0  0  0  0  0  0  0  0  0  0  0
    9.0170  -16.4734   18.3262 C   0  0  0  0  0  0  0  0  0  0  0  0
    9.3670  -17.5399   18.9406 O   0  0  0  0  0  0  0  0  0  0  0  0
    9.9881  -15.4281   18.3602 N   0  0  0  0  0  0  0  0  0  0  0  0
   11.2960  -15.6019   18.9450 C   0  0  1  0  0  0  0  0  0  0  0  0
   11.9810  -14.2261   18.9469 C   0  0  0  0  0  0  0  0  0  0  0  0
   13.3965  -14.3925   19.2875 C   0  0  0  0  0  0  0  0  0  0  0  0
   14.3158  -14.7122   18.2953 C   0  0  0  0  0  0  0  0  0  0  0  0
   15.6583  -14.8736   18.6049 C   0  0  0  0  0  0  0  0  0  0  0  0
   16.1044  -14.7209   19.8948 C   0  0  0  0  0  0  0  0  0  0  0  0
   15.1801  -14.4037   20.8685 C   0  0  0  0  0  0  0  0  0  0  0  0
   13.8240  -14.2380   20.5714 C   0  0  0  0  0  0  0  0  0  0  0  0
   11.2285  -16.0028   20.3719 C   0  0  0  0  0  0  0  0  0  0  0  0
   10.5602  -15.2758   21.1650 O   0  0  0  0  0  0  0  0  0  0  0  0
   14.3537  -21.6612   23.4220 N   0  0  0  0  0  0  0  0  0  0  0  0
   14.2025  -22.2912   22.1555 C   0  0  0  0  0  0  0  0  0  0  0  0
   15.2227  -22.9107   21.6467 N   0  0  0  0  0  0  0  0  0  0  0  0
   12.9699  -22.2464   21.4642 N   0  0  0  0  0  0  0  0  0  0  0  0
   11.8596  -21.4064   21.9704 C   0  0  0  0  0  0  0  0  0  0  0  0
   12.2939  -19.9790   21.9664 C   0  0  0  0  0  0  0  0  0  0  0  0
   11.4281  -18.9222   22.4274 C   0  0  0  0  0  0  0  0  0  0  0  0
   11.7875  -17.4890   22.3627 C   0  0  2  0  0  0  0  0  0  0  0  0
   11.8546  -17.1331   20.9043 N   0  0  0  0  0  0  0  0  0  0  0  0
   13.1665  -17.1818   22.8174 C   0  0  0  0  0  0  0  0  0  0  0  0
   14.2633  -17.5192   21.9783 O   0  0  0  0  0  0  0  0  0  0  0  0
   13.5218  -16.6454   23.8799 O   0  0  0  0  0  0  0  0  0  0  0  0
  2  1  1  1
  3  2  1  0
  4  3  1  0
  4  5  2  0
  6  5  1  0
  7  6  2  0
  8  9  2  0
  8  7  1  0
  9  4  1  0
 10  2  1  0
 11 10  2  0
 12 10  1  0
 13 12  1  0
 13 14  1  1
 15 14  1  0
 16 15  2  0
 17 16  1  0
 18 17  2  0
 18 19  1  0
 19 20  2  0
 20 15  1  0
 21 22  2  0
 21 13  1  0
 23 24  1  0
 24 25  2  0
 26 27  1  0
 26 24  1  0
 27 28  1  0
 30 29  1  6
 29 28  1  0
 30 31  1  0
 31 21  1  0
 32 30  1  0
 33 32  1  0
 34 32  2  0
M  END
$$$$
