FFR.pdb
     RDKit          3D

 34 35  0  0  1  0  0  0  0  0999 V2000
    9.9950  -17.4229   20.0951 N   0  0  0  0  0  0  0  0  0  0  0  0
    9.3181  -16.3328   20.7897 C   0  0  1  0  0  0  0  0  0  0  0  0
    8.0251  -16.1060   20.0365 C   0  0  0  0  0  0  0  0  0  0  0  0
    7.5330  -14.7021   20.2708 C   0  0  0  0  0  0  0  0  0  0  0  0
    8.2332  -13.6690   19.6878 C   0  0  0  0  0  0  0  0  0  0  0  0
    7.8005  -12.3767   19.8896 C   0  0  0  0  0  0  0  0  0  0  0  0
    6.6872  -12.1261   20.6611 C   0  0  0  0  0  0  0  0  0  0  0  0
    5.9855  -13.1680   21.2459 C   0  0  0  0  0  0  0  0  0  0  0  0
    6.4307  -14.4527   21.0347 C   0  0  0  0  0  0  0  0  0  0  0  0
    9.1170  -16.7283   22.1875 C   0  0  0  0  0  0  0  0  0  0  0  0
    9.7725  -17.6958   22.7086 O   0  0  0  0  0  0  0  0  0  0  0  0
    8.1992  -16.0920   23.0761 N   0  0  0  0  0  0  0  0  0  0  0  0
    8.4498  -15.9657   24.4917 C   0  0  1  0  0  0  0  0  0  0  0  0
    7.1135  -15.6073   25.1610 C   0  0  0  0  0  0  0  0  0  0  0  0
    7.1676  -14.2217   25.6347 C   0  0  0  0  0  0  0  0  0  0  0  0
    6.0712  -13.3856   25.4600 C   0  0  0  0  0  0  0  0  0  0  0  0
    6.1101  -12.0715   25.9029 C   0  0  0  0  0  0  0  0  0  0  0  0
    7.2301  -11.5722   26.5211 C   0  0  0  0  0  0  0  0  0  0  0  0
    8.3103  -12.4140   26.6872 C   0  0  0  0  0  0  0  0  0  0  0  0
    8.2855  -13.7406   26.2461 C   0  0  0  0  0  0  0  0  0  0  0  0
    8.8603  -17.2504   25.1099 C   0  0  0  0  0  0  0  0  0  0  0  0
    7.9934  -18.1684   25.2100 O   0  0  0  0  0  0  0  0  0  0  0  0
   11.0613  -23.7725   25.4434 N   0  0  0  0  0  0  0  0  0  0  0  0
   12.4825  -23.7950   25.4987 C   0  0  0  0  0  0  0  0  0  0  0  0
   13.0674  -24.8586   25.9571 N   0  0  0  0  0  0  0  0  0  0  0  0
   13.2443  -22.6858   25.0640 N   0  0  0  0  0  0  0  0  0  0  0  0
   12.5690  -21.4590   24.5808 C   0  0  0  0  0  0  0  0  0  0  0  0
   12.4758  -20.4843   25.7065 C   0  0  0  0  0  0  0  0  0  0  0  0
   11.8397  -19.2002   25.5464 C   0  0  0  0  0  0  0  0  0  0  0  0
   10.5376  -18.8550   26.1570 C   0  0  2  0  0  0  0  0  0  0  0  0
   10.1441  -17.5192   25.5922 N   0  0  0  0  0  0  0  0  0  0  0  0
   10.6001  -18.5669   27.6116 C   0  0  0  0  0  0  0  0  0  0  0  0
   10.4818  -19.6407   28.5356 O   0  0  0  0  0  0  0  0  0  0  0  0
   10.7478  -17.4671   28.1696 O   0  0  0  0  0  0  0  0  0  0  0  0
  2  1  1  6
  3  2  1  0
  4  3  1  0
  4  5  2  0
  6  5  1  0
  7  6  2  0
  8  9  2  0
  8  7  1  0
  9  4  1  0
 10  2  1  0
 11 10  2  0
 12 10  1  0
 13 12  1  0
 13 14  1  1
 15 14  1  0
 16 15  2  0
 17 16  1  0
 18 17  2  0
 18 19  1  0
 19 20  2  0
 20 15  1  0
 21 22  2  0
 21 13  1  0
 23 24  1  0
 24 25  2  0
 26 27  1  0
 26 24  1  0
 27 28  1  0
 30 29  1  6
 29 28  1  0
 30 31  1  0
 31 21  1  0
 32 30  1  0
 33 32  1  0
 34 32  2  0
M  END
$$$$
