FFR.pdb
     RDKit          3D

 34 35  0  0  1  0  0  0  0  0999 V2000
    8.2518  -17.4588   20.3147 N   0  0  0  0  0  0  0  0  0  0  0  0
    8.4705  -16.4733   21.3682 C   0  0  1  0  0  0  0  0  0  0  0  0
    7.1920  -15.6671   21.4483 C   0  0  0  0  0  0  0  0  0  0  0  0
    7.3453  -14.3820   20.6782 C   0  0  0  0  0  0  0  0  0  0  0  0
    7.6568  -13.2415   21.3849 C   0  0  0  0  0  0  0  0  0  0  0  0
    7.8011  -12.0549   20.7002 C   0  0  0  0  0  0  0  0  0  0  0  0
    7.6361  -12.0135   19.3332 C   0  0  0  0  0  0  0  0  0  0  0  0
    7.3226  -13.1630   18.6258 C   0  0  0  0  0  0  0  0  0  0  0  0
    7.1819  -14.3400   19.3246 C   0  0  0  0  0  0  0  0  0  0  0  0
    8.7895  -17.1855   22.6098 C   0  0  0  0  0  0  0  0  0  0  0  0
    8.2762  -18.3270   22.8756 O   0  0  0  0  0  0  0  0  0  0  0  0
    9.6768  -16.6905   23.6121 N   0  0  0  0  0  0  0  0  0  0  0  0
    9.2370  -15.8248   24.6797 C   0  0  1  0  0  0  0  0  0  0  0  0
    7.9033  -15.2002   24.2400 C   0  0  0  0  0  0  0  0  0  0  0  0
    7.4772  -14.2186   25.2411 C   0  0  0  0  0  0  0  0  0  0  0  0
    8.3218  -13.8917   26.2954 C   0  0  0  0  0  0  0  0  0  0  0  0
    7.9299  -12.9649   27.2502 C   0  0  0  0  0  0  0  0  0  0  0  0
    6.7026  -12.3535   27.1726 C   0  0  0  0  0  0  0  0  0  0  0  0
    5.8754  -12.6883   26.1206 C   0  0  0  0  0  0  0  0  0  0  0  0
    6.2569  -13.6205   25.1509 C   0  0  0  0  0  0  0  0  0  0  0  0
    8.9232  -16.5735   25.9216 C   0  0  0  0  0  0  0  0  0  0  0  0
    7.8129  -16.3501   26.4886 O   0  0  0  0  0  0  0  0  0  0  0  0
    5.5774  -20.5781   24.1878 N   0  0  0  0  0  0  0  0  0  0  0  0
    6.5790  -21.5290   24.5285 C   0  0  0  0  0  0  0  0  0  0  0  0
    7.2938  -22.0434   23.5756 N   0  0  0  0  0  0  0  0  0  0  0  0
    6.7944  -21.9070   25.8739 N   0  0  0  0  0  0  0  0  0  0  0  0
    6.8332  -20.8805   26.9412 C   0  0  0  0  0  0  0  0  0  0  0  0
    7.8442  -19.8449   26.5783 C   0  0  0  0  0  0  0  0  0  0  0  0
    8.9951  -19.5860   27.4074 C   0  0  0  0  0  0  0  0  0  0  0  0
    9.4328  -18.2263   27.7906 C   0  0  2  0  0  0  0  0  0  0  0  0
    9.7725  -17.5131   26.5122 N   0  0  0  0  0  0  0  0  0  0  0  0
   10.7247  -18.1811   28.5198 C   0  0  0  0  0  0  0  0  0  0  0  0
   10.7571  -18.5449   29.8936 O   0  0  0  0  0  0  0  0  0  0  0  0
   11.8406  -17.8542   28.0830 O   0  0  0  0  0  0  0  0  0  0  0  0
  2  1  1  6
  3  2  1  0
  4  3  1  0
  4  5  2  0
  6  5  1  0
  7  6  2  0
  8  9  2  0
  8  7  1  0
  9  4  1  0
 10  2  1  0
 11 10  2  0
 12 10  1  0
 13 12  1  0
 13 14  1  6
 15 14  1  0
 16 15  2  0
 17 16  1  0
 18 17  2  0
 18 19  1  0
 19 20  2  0
 20 15  1  0
 21 22  2  0
 21 13  1  0
 23 24  1  0
 24 25  2  0
 26 27  1  0
 26 24  1  0
 27 28  1  0
 30 29  1  6
 29 28  1  0
 30 31  1  0
 31 21  1  0
 32 30  1  0
 33 32  1  0
 34 32  2  0
M  END
$$$$
