FFR.pdb
     RDKit          3D

 34 35  0  0  1  0  0  0  0  0999 V2000
    6.3475  -17.9868   20.1501 N   0  0  0  0  0  0  0  0  0  0  0  0
    5.7367  -17.8634   21.4694 C   0  0  1  0  0  0  0  0  0  0  0  0
    5.6022  -19.2769   21.9935 C   0  0  0  0  0  0  0  0  0  0  0  0
    4.2278  -19.8106   21.6867 C   0  0  0  0  0  0  0  0  0  0  0  0
    3.3793  -19.0164   20.9475 C   0  0  0  0  0  0  0  0  0  0  0  0
    2.1171  -19.4850   20.6558 C   0  0  0  0  0  0  0  0  0  0  0  0
    1.7143  -20.7262   21.0974 C   0  0  0  0  0  0  0  0  0  0  0  0
    2.5707  -21.5222   21.8409 C   0  0  0  0  0  0  0  0  0  0  0  0
    3.8279  -21.0395   22.1236 C   0  0  0  0  0  0  0  0  0  0  0  0
    6.5955  -17.0129   22.2998 C   0  0  0  0  0  0  0  0  0  0  0  0
    7.7291  -16.5949   21.8785 O   0  0  0  0  0  0  0  0  0  0  0  0
    6.2611  -16.5810   23.6183 N   0  0  0  0  0  0  0  0  0  0  0  0
    7.0304  -15.5879   24.3287 C   0  0  1  0  0  0  0  0  0  0  0  0
    6.1129  -14.9838   25.4037 C   0  0  0  0  0  0  0  0  0  0  0  0
    6.8140  -13.8856   26.0743 C   0  0  0  0  0  0  0  0  0  0  0  0
    6.7575  -12.6013   25.5458 C   0  0  0  0  0  0  0  0  0  0  0  0
    7.4176  -11.5532   26.1705 C   0  0  0  0  0  0  0  0  0  0  0  0
    8.1381  -11.7636   27.3206 C   0  0  0  0  0  0  0  0  0  0  0  0
    8.1849  -13.0435   27.8329 C   0  0  0  0  0  0  0  0  0  0  0  0
    7.5247  -14.1096   27.2144 C   0  0  0  0  0  0  0  0  0  0  0  0
    8.1655  -16.1814   25.0774 C   0  0  0  0  0  0  0  0  0  0  0  0
    8.5246  -15.6247   26.1569 O   0  0  0  0  0  0  0  0  0  0  0  0
   14.1571  -15.1657   18.6236 N   0  0  0  0  0  0  0  0  0  0  0  0
   13.2500  -14.5958   19.5596 C   0  0  0  0  0  0  0  0  0  0  0  0
   13.2266  -13.3053   19.6920 N   0  0  0  0  0  0  0  0  0  0  0  0
   12.3911  -15.4138   20.3294 N   0  0  0  0  0  0  0  0  0  0  0  0
   11.4343  -14.8040   21.2819 C   0  0  0  0  0  0  0  0  0  0  0  0
   11.4531  -15.5864   22.5522 C   0  0  0  0  0  0  0  0  0  0  0  0
   10.2528  -16.1636   23.1045 C   0  0  0  0  0  0  0  0  0  0  0  0
   10.2592  -17.2545   24.1032 C   0  0  2  0  0  0  0  0  0  0  0  0
    8.8697  -17.3183   24.6718 N   0  0  0  0  0  0  0  0  0  0  0  0
   11.0730  -16.9739   25.3121 C   0  0  0  0  0  0  0  0  0  0  0  0
   10.8253  -15.7861   26.0529 O   0  0  0  0  0  0  0  0  0  0  0  0
   11.9876  -17.6604   25.7970 O   0  0  0  0  0  0  0  0  0  0  0  0
  2  1  1  6
  3  2  1  0
  4  3  1  0
  4  5  2  0
  6  5  1  0
  7  6  2  0
  8  9  2  0
  8  7  1  0
  9  4  1  0
 10  2  1  0
 11 10  2  0
 12 10  1  0
 13 12  1  0
 13 14  1  1
 15 14  1  0
 16 15  2  0
 17 16  1  0
 18 17  2  0
 18 19  1  0
 19 20  2  0
 20 15  1  0
 21 22  2  0
 21 13  1  0
 23 24  1  0
 24 25  2  0
 26 27  1  0
 26 24  1  0
 27 28  1  0
 30 29  1  6
 29 28  1  0
 30 31  1  0
 31 21  1  0
 32 30  1  0
 33 32  1  0
 34 32  2  0
M  END
$$$$
