FFR.pdb
     RDKit          3D

 34 35  0  0  1  0  0  0  0  0999 V2000
   10.2057  -15.3644   20.0975 N   0  0  0  0  0  0  0  0  0  0  0  0
    9.0418  -14.8054   20.7771 C   0  0  1  0  0  0  0  0  0  0  0  0
    7.8418  -15.5128   20.1853 C   0  0  0  0  0  0  0  0  0  0  0  0
    7.2940  -14.7172   19.0298 C   0  0  0  0  0  0  0  0  0  0  0  0
    6.1798  -15.2049   18.3834 C   0  0  0  0  0  0  0  0  0  0  0  0
    5.6625  -14.4932   17.3234 C   0  0  0  0  0  0  0  0  0  0  0  0
    6.2517  -13.3151   16.9201 C   0  0  0  0  0  0  0  0  0  0  0  0
    7.3725  -12.8276   17.5729 C   0  0  0  0  0  0  0  0  0  0  0  0
    7.8767  -13.5505   18.6296 C   0  0  0  0  0  0  0  0  0  0  0  0
    9.1965  -15.0263   22.2185 C   0  0  0  0  0  0  0  0  0  0  0  0
    9.7841  -16.0672   22.6753 O   0  0  0  0  0  0  0  0  0  0  0  0
    8.7220  -14.1293   23.2221 N   0  0  0  0  0  0  0  0  0  0  0  0
    9.0002  -14.3170   24.6257 C   0  0  1  0  0  0  0  0  0  0  0  0
    8.0954  -13.3479   25.4032 C   0  0  0  0  0  0  0  0  0  0  0  0
    8.4023  -13.4436   26.8329 C   0  0  0  0  0  0  0  0  0  0  0  0
    7.5834  -14.1927   27.6695 C   0  0  0  0  0  0  0  0  0  0  0  0
    7.8624  -14.2904   29.0249 C   0  0  0  0  0  0  0  0  0  0  0  0
    8.9506  -13.6504   29.5653 C   0  0  0  0  0  0  0  0  0  0  0  0
    9.7539  -12.9107   28.7224 C   0  0  0  0  0  0  0  0  0  0  0  0
    9.4853  -12.8032   27.3545 C   0  0  0  0  0  0  0  0  0  0  0  0
    8.6186  -15.6694   25.1017 C   0  0  0  0  0  0  0  0  0  0  0  0
    7.5788  -16.2026   24.6131 O   0  0  0  0  0  0  0  0  0  0  0  0
   12.1679  -21.3341   21.3226 N   0  0  0  0  0  0  0  0  0  0  0  0
   12.7949  -20.9157   22.5290 C   0  0  0  0  0  0  0  0  0  0  0  0
   14.0900  -20.9525   22.5986 N   0  0  0  0  0  0  0  0  0  0  0  0
   12.0277  -20.4684   23.6294 N   0  0  0  0  0  0  0  0  0  0  0  0
   10.5481  -20.4679   23.5575 C   0  0  0  0  0  0  0  0  0  0  0  0
   10.0036  -19.9002   24.8254 C   0  0  0  0  0  0  0  0  0  0  0  0
    9.7635  -18.4871   24.9813 C   0  0  0  0  0  0  0  0  0  0  0  0
    9.1964  -17.8884   26.2091 C   0  0  2  0  0  0  0  0  0  0  0  0
    9.3307  -16.3995   26.0571 N   0  0  0  0  0  0  0  0  0  0  0  0
    9.9885  -18.1443   27.4379 C   0  0  0  0  0  0  0  0  0  0  0  0
   11.0638  -17.2729   27.7622 O   0  0  0  0  0  0  0  0  0  0  0  0
    9.8424  -19.0566   28.2681 O   0  0  0  0  0  0  0  0  0  0  0  0
  2  1  1  6
  3  2  1  0
  4  3  1  0
  4  5  2  0
  6  5  1  0
  7  6  2  0
  8  9  2  0
  8  7  1  0
  9  4  1  0
 10  2  1  0
 11 10  2  0
 12 10  1  0
 13 12  1  0
 13 14  1  1
 15 14  1  0
 16 15  2  0
 17 16  1  0
 18 17  2  0
 18 19  1  0
 19 20  2  0
 20 15  1  0
 21 22  2  0
 21 13  1  0
 23 24  1  0
 24 25  2  0
 26 27  1  0
 26 24  1  0
 27 28  1  0
 30 29  1  6
 29 28  1  0
 30 31  1  0
 31 21  1  0
 32 30  1  0
 33 32  1  0
 34 32  2  0
M  END
$$$$
