FFR.pdb
     RDKit          3D

 34 35  0  0  1  0  0  0  0  0999 V2000
    9.9792  -17.1439   26.2235 N   0  0  0  0  0  0  0  0  0  0  0  0
    8.5911  -17.4739   26.5287 C   0  0  1  0  0  0  0  0  0  0  0  0
    8.3263  -16.9031   27.9052 C   0  0  0  0  0  0  0  0  0  0  0  0
    9.4067  -15.9197   28.2707 C   0  0  0  0  0  0  0  0  0  0  0  0
    9.0948  -14.5785   28.2362 C   0  0  0  0  0  0  0  0  0  0  0  0
   10.0686  -13.6617   28.5664 C   0  0  0  0  0  0  0  0  0  0  0  0
   11.3305  -14.0825   28.9242 C   0  0  0  0  0  0  0  0  0  0  0  0
   11.6405  -15.4326   28.9577 C   0  0  0  0  0  0  0  0  0  0  0  0
   10.6568  -16.3354   28.6250 C   0  0  0  0  0  0  0  0  0  0  0  0
    7.7376  -16.8979   25.4845 C   0  0  0  0  0  0  0  0  0  0  0  0
    6.5023  -17.2151   25.3813 O   0  0  0  0  0  0  0  0  0  0  0  0
    8.1874  -15.9556   24.5114 N   0  0  0  0  0  0  0  0  0  0  0  0
    7.4364  -15.6553   23.3162 C   0  0  1  0  0  0  0  0  0  0  0  0
    7.2768  -14.1281   23.2498 C   0  0  0  0  0  0  0  0  0  0  0  0
    7.0831  -13.6042   24.6045 C   0  0  0  0  0  0  0  0  0  0  0  0
    7.9383  -12.6263   25.0988 C   0  0  0  0  0  0  0  0  0  0  0  0
    7.7663  -12.1228   26.3800 C   0  0  0  0  0  0  0  0  0  0  0  0
    6.7503  -12.5796   27.1831 C   0  0  0  0  0  0  0  0  0  0  0  0
    5.9099  -13.5502   26.6785 C   0  0  0  0  0  0  0  0  0  0  0  0
    6.0708  -14.0670   25.3894 C   0  0  0  0  0  0  0  0  0  0  0  0
    8.1708  -16.0220   22.0802 C   0  0  0  0  0  0  0  0  0  0  0  0
    7.5523  -15.9563   20.9769 O   0  0  0  0  0  0  0  0  0  0  0  0
    8.3308  -14.9189   16.7236 N   0  0  0  0  0  0  0  0  0  0  0  0
    8.4312  -13.5001   16.7435 C   0  0  0  0  0  0  0  0  0  0  0  0
    8.0065  -12.8350   15.7135 N   0  0  0  0  0  0  0  0  0  0  0  0
    8.9799  -12.8260   17.8588 N   0  0  0  0  0  0  0  0  0  0  0  0
   10.1390  -13.3989   18.5818 C   0  0  0  0  0  0  0  0  0  0  0  0
    9.6674  -14.5350   19.4262 C   0  0  0  0  0  0  0  0  0  0  0  0
   10.5764  -15.3008   20.2425 C   0  0  0  0  0  0  0  0  0  0  0  0
   10.2616  -16.6470   20.7678 C   0  0  2  0  0  0  0  0  0  0  0  0
    9.5048  -16.4371   22.0490 N   0  0  0  0  0  0  0  0  0  0  0  0
   11.4434  -17.4157   21.2318 C   0  0  0  0  0  0  0  0  0  0  0  0
   12.4035  -16.7750   22.0616 O   0  0  0  0  0  0  0  0  0  0  0  0
   11.7323  -18.5989   20.9880 O   0  0  0  0  0  0  0  0  0  0  0  0
  2  1  1  6
  3  2  1  0
  4  3  1  0
  4  5  2  0
  6  5  1  0
  7  6  2  0
  8  9  2  0
  8  7  1  0
  9  4  1  0
 10  2  1  0
 11 10  2  0
 12 10  1  0
 13 12  1  0
 13 14  1  6
 15 14  1  0
 16 15  2  0
 17 16  1  0
 18 17  2  0
 18 19  1  0
 19 20  2  0
 20 15  1  0
 21 22  2  0
 21 13  1  0
 23 24  1  0
 24 25  2  0
 26 27  1  0
 26 24  1  0
 27 28  1  0
 30 29  1  1
 29 28  1  0
 30 31  1  0
 31 21  1  0
 32 30  1  0
 33 32  1  0
 34 32  2  0
M  END
$$$$
