FFR.pdb
     RDKit          3D

 34 35  0  0  1  0  0  0  0  0999 V2000
   10.1641  -14.8643   21.1808 N   0  0  0  0  0  0  0  0  0  0  0  0
    8.8041  -14.9661   21.6996 C   0  0  1  0  0  0  0  0  0  0  0  0
    8.0448  -15.8097   20.6984 C   0  0  0  0  0  0  0  0  0  0  0  0
    7.8099  -15.0229   19.4360 C   0  0  0  0  0  0  0  0  0  0  0  0
    7.2529  -13.7686   19.5536 C   0  0  0  0  0  0  0  0  0  0  0  0
    7.0290  -13.0318   18.4114 C   0  0  0  0  0  0  0  0  0  0  0  0
    7.3577  -13.5435   17.1753 C   0  0  0  0  0  0  0  0  0  0  0  0
    7.9179  -14.8057   17.0610 C   0  0  0  0  0  0  0  0  0  0  0  0
    8.1349  -15.5287   18.2115 C   0  0  0  0  0  0  0  0  0  0  0  0
    8.8624  -15.5614   23.0385 C   0  0  0  0  0  0  0  0  0  0  0  0
    9.7826  -16.3897   23.3615 O   0  0  0  0  0  0  0  0  0  0  0  0
    7.9275  -15.2833   24.0804 N   0  0  0  0  0  0  0  0  0  0  0  0
    8.1209  -15.7335   25.4378 C   0  0  1  0  0  0  0  0  0  0  0  0
    6.8841  -15.3020   26.2418 C   0  0  0  0  0  0  0  0  0  0  0  0
    6.9278  -13.8526   26.4529 C   0  0  0  0  0  0  0  0  0  0  0  0
    5.7497  -13.1151   26.4480 C   0  0  0  0  0  0  0  0  0  0  0  0
    5.7775  -11.7423   26.6456 C   0  0  0  0  0  0  0  0  0  0  0  0
    6.9668  -11.0866   26.8496 C   0  0  0  0  0  0  0  0  0  0  0  0
    8.1275  -11.8320   26.8517 C   0  0  0  0  0  0  0  0  0  0  0  0
    8.1150  -13.2161   26.6539 C   0  0  0  0  0  0  0  0  0  0  0  0
    8.1545  -17.2130   25.5433 C   0  0  0  0  0  0  0  0  0  0  0  0
    7.2818  -17.8765   24.9089 O   0  0  0  0  0  0  0  0  0  0  0  0
   13.5667  -20.4384   21.0975 N   0  0  0  0  0  0  0  0  0  0  0  0
   13.8142  -19.8489   22.3682 C   0  0  0  0  0  0  0  0  0  0  0  0
   14.9184  -19.1897   22.5402 N   0  0  0  0  0  0  0  0  0  0  0  0
   12.8801  -19.9754   23.4222 N   0  0  0  0  0  0  0  0  0  0  0  0
   11.6745  -20.8197   23.2545 C   0  0  0  0  0  0  0  0  0  0  0  0
   10.8509  -20.7369   24.4959 C   0  0  0  0  0  0  0  0  0  0  0  0
   10.2406  -19.5011   24.9194 C   0  0  0  0  0  0  0  0  0  0  0  0
    9.3468  -19.3949   26.0929 C   0  0  2  0  0  0  0  0  0  0  0  0
    9.0873  -17.9291   26.2983 N   0  0  0  0  0  0  0  0  0  0  0  0
    9.9777  -19.7783   27.3804 C   0  0  0  0  0  0  0  0  0  0  0  0
   10.6131  -18.7775   28.1650 O   0  0  0  0  0  0  0  0  0  0  0  0
   10.0357  -20.9050   27.9002 O   0  0  0  0  0  0  0  0  0  0  0  0
  2  1  1  6
  3  2  1  0
  4  3  1  0
  4  5  2  0
  6  5  1  0
  7  6  2  0
  8  9  2  0
  8  7  1  0
  9  4  1  0
 10  2  1  0
 11 10  2  0
 12 10  1  0
 13 12  1  0
 13 14  1  1
 15 14  1  0
 16 15  2  0
 17 16  1  0
 18 17  2  0
 18 19  1  0
 19 20  2  0
 20 15  1  0
 21 22  2  0
 21 13  1  0
 23 24  1  0
 24 25  2  0
 26 27  1  0
 26 24  1  0
 27 28  1  0
 30 29  1  6
 29 28  1  0
 30 31  1  0
 31 21  1  0
 32 30  1  0
 33 32  1  0
 34 32  2  0
M  END
$$$$
