FFR.pdb
     RDKit          3D

 34 35  0  0  1  0  0  0  0  0999 V2000
    5.4108  -20.3893   24.7422 N   0  0  0  0  0  0  0  0  0  0  0  0
    6.3330  -20.1108   23.6464 C   0  0  1  0  0  0  0  0  0  0  0  0
    5.5962  -20.4961   22.3816 C   0  0  0  0  0  0  0  0  0  0  0  0
    5.2684  -21.9658   22.4049 C   0  0  0  0  0  0  0  0  0  0  0  0
    3.9518  -22.3342   22.2374 C   0  0  0  0  0  0  0  0  0  0  0  0
    3.6297  -23.6735   22.2558 C   0  0  0  0  0  0  0  0  0  0  0  0
    4.6095  -24.6243   22.4386 C   0  0  0  0  0  0  0  0  0  0  0  0
    5.9329  -24.2498   22.6068 C   0  0  0  0  0  0  0  0  0  0  0  0
    6.2379  -22.9082   22.5860 C   0  0  0  0  0  0  0  0  0  0  0  0
    6.6993  -18.6918   23.6985 C   0  0  0  0  0  0  0  0  0  0  0  0
    7.1928  -18.0918   22.6818 O   0  0  0  0  0  0  0  0  0  0  0  0
    6.5453  -17.8664   24.8525 N   0  0  0  0  0  0  0  0  0  0  0  0
    7.0631  -16.5210   24.9197 C   0  0  1  0  0  0  0  0  0  0  0  0
    6.4239  -15.8471   26.1443 C   0  0  0  0  0  0  0  0  0  0  0  0
    6.9043  -14.4661   26.2404 C   0  0  0  0  0  0  0  0  0  0  0  0
    8.0386  -14.1769   26.9898 C   0  0  0  0  0  0  0  0  0  0  0  0
    8.5030  -12.8735   27.0897 C   0  0  0  0  0  0  0  0  0  0  0  0
    7.8528  -11.8459   26.4516 C   0  0  0  0  0  0  0  0  0  0  0  0
    6.7286  -12.1487   25.7117 C   0  0  0  0  0  0  0  0  0  0  0  0
    6.2488  -13.4573   25.6019 C   0  0  0  0  0  0  0  0  0  0  0  0
    8.5236  -16.4897   25.1789 C   0  0  0  0  0  0  0  0  0  0  0  0
    8.9950  -17.2943   26.0360 O   0  0  0  0  0  0  0  0  0  0  0  0
   12.7381  -13.4269   18.0283 N   0  0  0  0  0  0  0  0  0  0  0  0
   13.3824  -14.6263   18.4403 C   0  0  0  0  0  0  0  0  0  0  0  0
   14.1713  -15.2246   17.6018 N   0  0  0  0  0  0  0  0  0  0  0  0
   13.1711  -15.1573   19.7337 N   0  0  0  0  0  0  0  0  0  0  0  0
   12.2683  -14.4691   20.6854 C   0  0  0  0  0  0  0  0  0  0  0  0
   12.0993  -15.3255   21.8954 C   0  0  0  0  0  0  0  0  0  0  0  0
   10.9190  -15.2478   22.7200 C   0  0  0  0  0  0  0  0  0  0  0  0
   10.6931  -16.1088   23.9011 C   0  0  2  0  0  0  0  0  0  0  0  0
    9.4201  -15.6291   24.5395 N   0  0  0  0  0  0  0  0  0  0  0  0
   11.6766  -15.9175   24.9961 C   0  0  0  0  0  0  0  0  0  0  0  0
   11.2903  -15.1886   26.1538 O   0  0  0  0  0  0  0  0  0  0  0  0
   12.8498  -16.3216   25.0520 O   0  0  0  0  0  0  0  0  0  0  0  0
  2  1  1  1
  3  2  1  0
  4  3  1  0
  4  5  2  0
  6  5  1  0
  7  6  2  0
  8  9  2  0
  8  7  1  0
  9  4  1  0
 10  2  1  0
 11 10  2  0
 12 10  1  0
 13 12  1  0
 13 14  1  1
 15 14  1  0
 16 15  2  0
 17 16  1  0
 18 17  2  0
 18 19  1  0
 19 20  2  0
 20 15  1  0
 21 22  2  0
 21 13  1  0
 23 24  1  0
 24 25  2  0
 26 27  1  0
 26 24  1  0
 27 28  1  0
 30 29  1  6
 29 28  1  0
 30 31  1  0
 31 21  1  0
 32 30  1  0
 33 32  1  0
 34 32  2  0
M  END
$$$$
