FFR.pdb
     RDKit          3D

 34 35  0  0  1  0  0  0  0  0999 V2000
   12.9080  -20.8899   31.7327 N   0  0  0  0  0  0  0  0  0  0  0  0
   14.1944  -21.5704   31.6289 C   0  0  1  0  0  0  0  0  0  0  0  0
   14.4620  -21.7190   30.1466 C   0  0  0  0  0  0  0  0  0  0  0  0
   13.6269  -22.8384   29.5829 C   0  0  0  0  0  0  0  0  0  0  0  0
   12.5991  -22.5069   28.7280 C   0  0  0  0  0  0  0  0  0  0  0  0
   11.8223  -23.5154   28.2012 C   0  0  0  0  0  0  0  0  0  0  0  0
   12.0720  -24.8306   28.5260 C   0  0  0  0  0  0  0  0  0  0  0  0
   13.1069  -25.1601   29.3866 C   0  0  0  0  0  0  0  0  0  0  0  0
   13.8732  -24.1411   29.9041 C   0  0  0  0  0  0  0  0  0  0  0  0
   15.2024  -20.7646   32.3254 C   0  0  0  0  0  0  0  0  0  0  0  0
   15.3011  -19.5039   32.1299 O   0  0  0  0  0  0  0  0  0  0  0  0
   16.1426  -21.2913   33.2611 N   0  0  0  0  0  0  0  0  0  0  0  0
   17.2101  -20.4970   33.8199 C   0  0  1  0  0  0  0  0  0  0  0  0
   17.8241  -21.3058   34.9736 C   0  0  0  0  0  0  0  0  0  0  0  0
   18.9218  -20.5393   35.5693 C   0  0  0  0  0  0  0  0  0  0  0  0
   20.2298  -20.9937   35.4500 C   0  0  0  0  0  0  0  0  0  0  0  0
   21.2778  -20.2779   36.0102 C   0  0  0  0  0  0  0  0  0  0  0  0
   21.0438  -19.1090   36.6921 C   0  0  0  0  0  0  0  0  0  0  0  0
   19.7404  -18.6709   36.8022 C   0  0  0  0  0  0  0  0  0  0  0  0
   18.6742  -19.3816   36.2428 C   0  0  0  0  0  0  0  0  0  0  0  0
   18.3214  -20.2878   32.8594 C   0  0  0  0  0  0  0  0  0  0  0  0
   19.2797  -19.5374   33.2098 O   0  0  0  0  0  0  0  0  0  0  0  0
   21.2570  -26.9856   28.7354 N   0  0  0  0  0  0  0  0  0  0  0  0
   20.8774  -25.8113   28.0279 C   0  0  0  0  0  0  0  0  0  0  0  0
   20.4701  -25.9317   26.8019 N   0  0  0  0  0  0  0  0  0  0  0  0
   20.9402  -24.5399   28.6436 N   0  0  0  0  0  0  0  0  0  0  0  0
   20.5335  -23.3272   27.8964 C   0  0  0  0  0  0  0  0  0  0  0  0
   20.6006  -22.1511   28.8121 C   0  0  0  0  0  0  0  0  0  0  0  0
   19.5908  -21.9115   29.8131 C   0  0  0  0  0  0  0  0  0  0  0  0
   19.5777  -20.7181   30.6867 C   0  0  2  0  0  0  0  0  0  0  0  0
   18.3842  -20.8643   31.5879 N   0  0  0  0  0  0  0  0  0  0  0  0
   19.2769  -19.4467   29.9827 C   0  0  0  0  0  0  0  0  0  0  0  0
   20.3095  -18.7999   29.2503 O   0  0  0  0  0  0  0  0  0  0  0  0
   18.1986  -18.8318   29.9377 O   0  0  0  0  0  0  0  0  0  0  0  0
  2  1  1  6
  3  2  1  0
  4  3  1  0
  4  5  2  0
  6  5  1  0
  7  6  2  0
  8  9  2  0
  8  7  1  0
  9  4  1  0
 10  2  1  0
 11 10  2  0
 12 10  1  0
 13 12  1  0
 13 14  1  1
 15 14  1  0
 16 15  2  0
 17 16  1  0
 18 17  2  0
 18 19  1  0
 19 20  2  0
 20 15  1  0
 21 22  2  0
 21 13  1  0
 23 24  1  0
 24 25  2  0
 26 27  1  0
 26 24  1  0
 27 28  1  0
 30 29  1  6
 29 28  1  0
 30 31  1  0
 31 21  1  0
 32 30  1  0
 33 32  1  0
 34 32  2  0
M  END
$$$$
