FFR.pdb
     RDKit          3D

 34 35  0  0  1  0  0  0  0  0999 V2000
    8.0963  -16.0290   21.4105 N   0  0  0  0  0  0  0  0  0  0  0  0
    9.4951  -15.8524   21.7860 C   0  0  1  0  0  0  0  0  0  0  0  0
    9.8876  -14.4827   21.2755 C   0  0  0  0  0  0  0  0  0  0  0  0
    8.6940  -13.8022   20.6587 C   0  0  0  0  0  0  0  0  0  0  0  0
    8.8943  -12.5890   20.0381 C   0  0  0  0  0  0  0  0  0  0  0  0
    7.8160  -11.9490   19.4677 C   0  0  0  0  0  0  0  0  0  0  0  0
    6.5613  -12.5154   19.5191 C   0  0  0  0  0  0  0  0  0  0  0  0
    6.3638  -13.7360   20.1443 C   0  0  0  0  0  0  0  0  0  0  0  0
    7.4511  -14.3622   20.7091 C   0  0  0  0  0  0  0  0  0  0  0  0
    9.6042  -15.9851   23.2423 C   0  0  0  0  0  0  0  0  0  0  0  0
   10.7354  -15.9159   23.8363 O   0  0  0  0  0  0  0  0  0  0  0  0
    8.4934  -16.1975   24.1129 N   0  0  0  0  0  0  0  0  0  0  0  0
    8.6239  -16.2064   25.5502 C   0  0  1  0  0  0  0  0  0  0  0  0
    7.2268  -15.9479   26.1363 C   0  0  0  0  0  0  0  0  0  0  0  0
    6.9430  -14.5111   26.0907 C   0  0  0  0  0  0  0  0  0  0  0  0
    5.8248  -14.0462   25.4085 C   0  0  0  0  0  0  0  0  0  0  0  0
    5.5456  -12.6883   25.3569 C   0  0  0  0  0  0  0  0  0  0  0  0
    6.3665  -11.7789   25.9774 C   0  0  0  0  0  0  0  0  0  0  0  0
    7.4724  -12.2555   26.6504 C   0  0  0  0  0  0  0  0  0  0  0  0
    7.7665  -13.6211   26.7110 C   0  0  0  0  0  0  0  0  0  0  0  0
    9.0233  -17.5362   26.0733 C   0  0  0  0  0  0  0  0  0  0  0  0
    8.1946  -18.4891   25.9761 O   0  0  0  0  0  0  0  0  0  0  0  0
   15.6877  -20.1328   22.8206 N   0  0  0  0  0  0  0  0  0  0  0  0
   14.4510  -20.8357   22.8356 C   0  0  0  0  0  0  0  0  0  0  0  0
   14.3305  -21.8922   22.0922 N   0  0  0  0  0  0  0  0  0  0  0  0
   13.3755  -20.3966   23.6417 N   0  0  0  0  0  0  0  0  0  0  0  0
   13.5077  -19.1686   24.4597 C   0  0  0  0  0  0  0  0  0  0  0  0
   12.1943  -18.8736   25.1031 C   0  0  0  0  0  0  0  0  0  0  0  0
   11.6967  -19.6593   26.2049 C   0  0  0  0  0  0  0  0  0  0  0  0
   10.6473  -19.1862   27.1335 C   0  0  2  0  0  0  0  0  0  0  0  0
   10.2571  -17.8114   26.6690 N   0  0  0  0  0  0  0  0  0  0  0  0
   11.1246  -18.9201   28.5134 C   0  0  0  0  0  0  0  0  0  0  0  0
   11.1506  -17.5813   28.9906 O   0  0  0  0  0  0  0  0  0  0  0  0
   11.5265  -19.7386   29.3569 O   0  0  0  0  0  0  0  0  0  0  0  0
  2  1  1  1
  3  2  1  0
  4  3  1  0
  4  5  2  0
  6  5  1  0
  7  6  2  0
  8  9  2  0
  8  7  1  0
  9  4  1  0
 10  2  1  0
 11 10  2  0
 12 10  1  0
 13 12  1  0
 13 14  1  1
 15 14  1  0
 16 15  2  0
 17 16  1  0
 18 17  2  0
 18 19  1  0
 19 20  2  0
 20 15  1  0
 21 22  2  0
 21 13  1  0
 23 24  1  0
 24 25  2  0
 26 27  1  0
 26 24  1  0
 27 28  1  0
 30 29  1  6
 29 28  1  0
 30 31  1  0
 31 21  1  0
 32 30  1  0
 33 32  1  0
 34 32  2  0
M  END
$$$$
