AAD.pdb
     RDKit          3D

 19 18  0  0  1  0  0  0  0  0999 V2000
   16.4734  -13.0442  -15.1668 C   0  0  0  0  0  0  0  0  0  0  0  0
   17.4802  -13.2917  -16.2439 C   0  0  2  0  0  0  0  0  0  0  0  0
   17.8695  -14.6651  -16.2803 N   0  0  0  0  0  0  0  0  0  0  0  0
   18.6242  -12.3448  -16.1921 C   0  0  0  0  0  0  0  0  0  0  0  0
   19.2058  -12.2126  -15.0816 O   0  0  0  0  0  0  0  0  0  0  0  0
   20.7656  -10.3452  -18.5884 C   0  0  0  0  0  0  0  0  0  0  0  0
   20.2695  -10.7498  -17.2026 C   0  0  2  0  0  0  0  0  0  0  0  0
   19.1028  -11.5903  -17.2820 N   0  0  0  0  0  0  0  0  0  0  0  0
   19.9925   -9.4778  -16.4782 C   0  0  0  0  0  0  0  0  0  0  0  0
   18.8039   -9.1001  -16.3927 O   0  0  0  0  0  0  0  0  0  0  0  0
   21.0129   -8.6937  -15.8919 N   0  0  0  0  0  0  0  0  0  0  0  0
   20.7763   -7.4188  -15.2156 C   0  0  1  0  0  0  0  0  0  0  0  0
   21.9554   -7.0068  -14.4032 C   0  0  0  0  0  0  0  0  0  0  0  0
   21.8518   -5.6932  -13.7618 C   0  0  0  0  0  0  0  0  0  0  0  0
   20.8379   -4.9684  -13.7543 O   0  0  0  0  0  0  0  0  0  0  0  0
   20.5812   -6.4327  -16.3203 C   0  0  0  0  0  0  0  0  0  0  0  0
   21.2478   -6.4962  -17.3670 O   0  0  0  0  0  0  0  0  0  0  0  0
   22.9723   -5.1765  -13.0891 O   0  0  0  0  0  0  0  0  0  0  0  0
   19.6514   -5.3952  -16.2442 O   0  0  0  0  0  0  0  0  0  0  0  0
  2  1  1  1
  2  4  1  0
  2  3  1  0
  4  5  2  0
  7  6  1  6
  7  9  1  0
  8  4  1  0
  8  7  1  0
  9 10  2  0
 11 12  1  0
 11  9  1  0
 12 16  1  0
 12 13  1  6
 14 15  2  0
 14 13  1  0
 16 17  2  0
 16 19  1  0
 18 14  1  0
M  END
$$$$
