AAD.pdb
     RDKit          3D

 19 18  0  0  1  0  0  0  0  0999 V2000
   20.2093  -13.8897  -17.4869 C   0  0  0  0  0  0  0  0  0  0  0  0
   19.8017  -12.7899  -16.5599 C   0  0  2  0  0  0  0  0  0  0  0  0
   18.3799  -12.6909  -16.4709 N   0  0  0  0  0  0  0  0  0  0  0  0
   20.4752  -11.5008  -16.8636 C   0  0  0  0  0  0  0  0  0  0  0  0
   21.6919  -11.4044  -16.5482 O   0  0  0  0  0  0  0  0  0  0  0  0
   19.8699   -8.2687  -18.7093 C   0  0  0  0  0  0  0  0  0  0  0  0
   20.5102   -9.1098  -17.6080 C   0  0  2  0  0  0  0  0  0  0  0  0
   19.8608  -10.3880  -17.4723 N   0  0  0  0  0  0  0  0  0  0  0  0
   20.4114   -8.2987  -16.3622 C   0  0  0  0  0  0  0  0  0  0  0  0
   19.4887   -8.5657  -15.5619 O   0  0  0  0  0  0  0  0  0  0  0  0
   21.3123   -7.2522  -16.0574 N   0  0  0  0  0  0  0  0  0  0  0  0
   21.2407   -6.4409  -14.8428 C   0  0  1  0  0  0  0  0  0  0  0  0
   22.5159   -5.7091  -14.6012 C   0  0  0  0  0  0  0  0  0  0  0  0
   22.5112   -4.7942  -13.4565 C   0  0  0  0  0  0  0  0  0  0  0  0
   22.3805   -3.5563  -13.5187 O   0  0  0  0  0  0  0  0  0  0  0  0
   20.1568   -5.4490  -15.1113 C   0  0  0  0  0  0  0  0  0  0  0  0
   19.9036   -5.0668  -16.2662 O   0  0  0  0  0  0  0  0  0  0  0  0
   22.6650   -5.3242  -12.1639 O   0  0  0  0  0  0  0  0  0  0  0  0
   19.3741   -4.8996  -14.0953 O   0  0  0  0  0  0  0  0  0  0  0  0
  2  1  1  6
  2  4  1  0
  2  3  1  0
  4  5  2  0
  7  6  1  6
  7  9  1  0
  8  4  1  0
  8  7  1  0
  9 10  2  0
 11 12  1  0
 11  9  1  0
 12 16  1  0
 12 13  1  6
 14 15  2  0
 14 13  1  0
 16 17  2  0
 16 19  1  0
 18 14  1  0
M  END
$$$$
