AAD.pdb
     RDKit          3D

 19 18  0  0  1  0  0  0  0  0999 V2000
   19.4213  -13.0666  -17.5048 C   0  0  0  0  0  0  0  0  0  0  0  0
   20.3372  -11.9377  -17.8539 C   0  0  2  0  0  0  0  0  0  0  0  0
   21.4534  -12.3965  -18.6173 N   0  0  0  0  0  0  0  0  0  0  0  0
   20.7136  -11.1152  -16.6751 C   0  0  0  0  0  0  0  0  0  0  0  0
   19.7711  -10.6196  -16.0006 O   0  0  0  0  0  0  0  0  0  0  0  0
   23.7836  -10.1072  -14.7071 C   0  0  0  0  0  0  0  0  0  0  0  0
   22.3532   -9.9204  -15.2067 C   0  0  2  0  0  0  0  0  0  0  0  0
   22.0338  -10.8503  -16.2588 N   0  0  0  0  0  0  0  0  0  0  0  0
   22.2599   -8.5058  -15.6648 C   0  0  0  0  0  0  0  0  0  0  0  0
   22.6289   -8.2427  -16.8299 O   0  0  0  0  0  0  0  0  0  0  0  0
   21.7750   -7.4650  -14.8394 N   0  0  0  0  0  0  0  0  0  0  0  0
   21.6555   -6.0718  -15.2675 C   0  0  1  0  0  0  0  0  0  0  0  0
   20.2330   -5.6935  -15.4982 C   0  0  0  0  0  0  0  0  0  0  0  0
   20.0047   -4.2951  -15.8724 C   0  0  0  0  0  0  0  0  0  0  0  0
   19.3166   -3.4767  -15.2321 O   0  0  0  0  0  0  0  0  0  0  0  0
   22.1887   -5.2749  -14.1224 C   0  0  0  0  0  0  0  0  0  0  0  0
   22.3455   -5.7839  -12.9997 O   0  0  0  0  0  0  0  0  0  0  0  0
   20.5971   -3.8020  -17.0476 O   0  0  0  0  0  0  0  0  0  0  0  0
   22.5381   -3.9295  -14.2428 O   0  0  0  0  0  0  0  0  0  0  0  0
  2  1  1  1
  2  4  1  0
  2  3  1  0
  4  5  2  0
  7  6  1  6
  7  9  1  0
  8  4  1  0
  8  7  1  0
  9 10  2  0
 11 12  1  0
 11  9  1  0
 12 16  1  0
 12 13  1  1
 14 15  2  0
 14 13  1  0
 16 17  2  0
 16 19  1  0
 18 14  1  0
M  END
$$$$
