AAD.pdb
     RDKit          3D

 19 18  0  0  1  0  0  0  0  0999 V2000
   17.6216  -12.1794  -16.1555 C   0  0  0  0  0  0  0  0  0  0  0  0
   18.7069  -11.3810  -16.8033 C   0  0  2  0  0  0  0  0  0  0  0  0
   19.4761  -12.1863  -17.6973 N   0  0  0  0  0  0  0  0  0  0  0  0
   19.5263  -10.6210  -15.8241 C   0  0  0  0  0  0  0  0  0  0  0  0
   18.9111   -9.8378  -15.0513 O   0  0  0  0  0  0  0  0  0  0  0  0
   23.1021  -10.4550  -14.5890 C   0  0  0  0  0  0  0  0  0  0  0  0
   21.6801   -9.9243  -14.7529 C   0  0  2  0  0  0  0  0  0  0  0  0
   20.9270  -10.7097  -15.6962 N   0  0  0  0  0  0  0  0  0  0  0  0
   21.8189   -8.5073  -15.1915 C   0  0  0  0  0  0  0  0  0  0  0  0
   21.9714   -8.2851  -16.4122 O   0  0  0  0  0  0  0  0  0  0  0  0
   21.7843   -7.4201  -14.2879 N   0  0  0  0  0  0  0  0  0  0  0  0
   21.8493   -6.0172  -14.6956 C   0  0  1  0  0  0  0  0  0  0  0  0
   20.5330   -5.5360  -15.2015 C   0  0  0  0  0  0  0  0  0  0  0  0
   20.4620   -4.1063  -15.5152 C   0  0  0  0  0  0  0  0  0  0  0  0
   21.4337   -3.3753  -15.7889 O   0  0  0  0  0  0  0  0  0  0  0  0
   22.1888   -5.2732  -13.4458 C   0  0  0  0  0  0  0  0  0  0  0  0
   22.3603   -4.0426  -13.4540 O   0  0  0  0  0  0  0  0  0  0  0  0
   19.2071   -3.4736  -15.5165 O   0  0  0  0  0  0  0  0  0  0  0  0
   22.3316   -5.9067  -12.2109 O   0  0  0  0  0  0  0  0  0  0  0  0
  2  1  1  1
  2  4  1  0
  2  3  1  0
  4  5  2  0
  7  6  1  6
  7  9  1  0
  8  4  1  0
  8  7  1  0
  9 10  2  0
 11 12  1  0
 11  9  1  0
 12 16  1  0
 12 13  1  1
 14 15  2  0
 14 13  1  0
 16 17  2  0
 16 19  1  0
 18 14  1  0
M  END
$$$$
