AAD.pdb
     RDKit          3D

 19 18  0  0  1  0  0  0  0  0999 V2000
   22.3525  -10.3042  -19.1177 C   0  0  0  0  0  0  0  0  0  0  0  0
   21.4969  -10.7392  -17.9716 C   0  0  2  0  0  0  0  0  0  0  0  0
   20.3810  -11.5072  -18.4234 N   0  0  0  0  0  0  0  0  0  0  0  0
   21.1279   -9.6175  -17.0696 C   0  0  0  0  0  0  0  0  0  0  0  0
   20.2876   -8.7861  -17.5073 O   0  0  0  0  0  0  0  0  0  0  0  0
   21.8300   -8.4465  -13.5266 C   0  0  0  0  0  0  0  0  0  0  0  0
   21.2275   -8.3291  -14.9244 C   0  0  2  0  0  0  0  0  0  0  0  0
   21.6427   -9.4157  -15.7733 N   0  0  0  0  0  0  0  0  0  0  0  0
   21.6700   -7.0081  -15.4524 C   0  0  0  0  0  0  0  0  0  0  0  0
   22.6078   -6.9928  -16.2789 O   0  0  0  0  0  0  0  0  0  0  0  0
   21.0745   -5.7880  -15.0569 N   0  0  0  0  0  0  0  0  0  0  0  0
   21.3625   -4.4981  -15.6830 C   0  0  1  0  0  0  0  0  0  0  0  0
   20.7295   -4.3925  -17.0277 C   0  0  0  0  0  0  0  0  0  0  0  0
   20.8790   -3.0965  -17.6954 C   0  0  0  0  0  0  0  0  0  0  0  0
   20.4142   -2.0139  -17.2886 O   0  0  0  0  0  0  0  0  0  0  0  0
   20.7418   -3.4875  -14.7751 C   0  0  0  0  0  0  0  0  0  0  0  0
   21.1608   -2.3186  -14.7284 O   0  0  0  0  0  0  0  0  0  0  0  0
   21.6019   -3.0329  -18.8989 O   0  0  0  0  0  0  0  0  0  0  0  0
   19.6689   -3.7911  -13.9366 O   0  0  0  0  0  0  0  0  0  0  0  0
  2  1  1  6
  2  4  1  0
  2  3  1  0
  4  5  2  0
  7  6  1  1
  7  9  1  0
  8  4  1  0
  8  7  1  0
  9 10  2  0
 11 12  1  0
 11  9  1  0
 12 16  1  0
 12 13  1  6
 14 15  2  0
 14 13  1  0
 16 17  2  0
 16 19  1  0
 18 14  1  0
M  END
$$$$
