AAD.pdb
     RDKit          3D

 19 18  0  0  1  0  0  0  0  0999 V2000
   23.5690  -12.2692  -14.8923 C   0  0  0  0  0  0  0  0  0  0  0  0
   22.6984  -12.3479  -16.1052 C   0  0  2  0  0  0  0  0  0  0  0  0
   23.4637  -12.6594  -17.2699 N   0  0  0  0  0  0  0  0  0  0  0  0
   21.8216  -11.1588  -16.2634 C   0  0  0  0  0  0  0  0  0  0  0  0
   22.3599  -10.1073  -16.7032 O   0  0  0  0  0  0  0  0  0  0  0  0
   18.1462  -10.2633  -16.0023 C   0  0  0  0  0  0  0  0  0  0  0  0
   19.6315   -9.9484  -16.1606 C   0  0  2  0  0  0  0  0  0  0  0  0
   20.4456  -11.1194  -15.9611 N   0  0  0  0  0  0  0  0  0  0  0  0
   19.9335   -8.8825  -15.1644 C   0  0  0  0  0  0  0  0  0  0  0  0
   20.2005   -9.2337  -13.9947 O   0  0  0  0  0  0  0  0  0  0  0  0
   19.9290   -7.5067  -15.4913 N   0  0  0  0  0  0  0  0  0  0  0  0
   20.2509   -6.4410  -14.5429 C   0  0  1  0  0  0  0  0  0  0  0  0
   21.6342   -5.9277  -14.7502 C   0  0  0  0  0  0  0  0  0  0  0  0
   22.0358   -4.8244  -13.8732 C   0  0  0  0  0  0  0  0  0  0  0  0
   21.3236   -4.3014  -12.9942 O   0  0  0  0  0  0  0  0  0  0  0  0
   19.2785   -5.3503  -14.8519 C   0  0  0  0  0  0  0  0  0  0  0  0
   18.8659   -5.1624  -16.0088 O   0  0  0  0  0  0  0  0  0  0  0  0
   23.3271   -4.2864  -14.0078 O   0  0  0  0  0  0  0  0  0  0  0  0
   18.7816   -4.4888  -13.8733 O   0  0  0  0  0  0  0  0  0  0  0  0
  2  1  1  1
  2  4  1  0
  2  3  1  0
  4  5  2  0
  7  6  1  1
  7  9  1  0
  8  4  1  0
  8  7  1  0
  9 10  2  0
 11 12  1  0
 11  9  1  0
 12 16  1  0
 12 13  1  6
 14 15  2  0
 14 13  1  0
 16 17  2  0
 16 19  1  0
 18 14  1  0
M  END
$$$$
