AAD.pdb
     RDKit          3D

 19 18  0  0  1  0  0  0  0  0999 V2000
   19.3225  -13.2004  -16.7532 C   0  0  0  0  0  0  0  0  0  0  0  0
   18.5424  -11.9707  -16.4152 C   0  0  2  0  0  0  0  0  0  0  0  0
   17.4333  -11.8044  -17.2993 N   0  0  0  0  0  0  0  0  0  0  0  0
   19.3974  -10.7618  -16.2909 C   0  0  0  0  0  0  0  0  0  0  0  0
   20.2101  -10.7342  -15.3277 O   0  0  0  0  0  0  0  0  0  0  0  0
   20.2938   -7.6690  -18.2679 C   0  0  0  0  0  0  0  0  0  0  0  0
   20.2072   -8.4968  -16.9882 C   0  0  2  0  0  0  0  0  0  0  0  0
   19.3675   -9.6539  -17.1614 N   0  0  0  0  0  0  0  0  0  0  0  0
   19.6817   -7.5779  -15.9398 C   0  0  0  0  0  0  0  0  0  0  0  0
   18.4444   -7.5345  -15.7667 O   0  0  0  0  0  0  0  0  0  0  0  0
   20.5219   -6.7647  -15.1445 N   0  0  0  0  0  0  0  0  0  0  0  0
   20.0423   -5.9131  -14.0567 C   0  0  1  0  0  0  0  0  0  0  0  0
   21.1338   -5.5937  -13.0940 C   0  0  0  0  0  0  0  0  0  0  0  0
   22.2744   -4.8629  -13.6532 C   0  0  0  0  0  0  0  0  0  0  0  0
   23.2522   -5.3772  -14.2301 O   0  0  0  0  0  0  0  0  0  0  0  0
   19.6028   -4.6523  -14.7260 C   0  0  0  0  0  0  0  0  0  0  0  0
   19.9540   -4.3819  -15.8868 O   0  0  0  0  0  0  0  0  0  0  0  0
   22.3000   -3.4617  -13.5474 O   0  0  0  0  0  0  0  0  0  0  0  0
   18.7828   -3.7154  -14.0966 O   0  0  0  0  0  0  0  0  0  0  0  0
  2  1  1  6
  2  4  1  0
  2  3  1  0
  4  5  2  0
  7  6  1  6
  7  9  1  0
  8  4  1  0
  8  7  1  0
  9 10  2  0
 11 12  1  0
 11  9  1  0
 12 16  1  0
 12 13  1  1
 14 15  2  0
 14 13  1  0
 16 17  2  0
 16 19  1  0
 18 14  1  0
M  END
$$$$
