AAD.pdb
     RDKit          3D

 19 18  0  0  1  0  0  0  0  0999 V2000
   16.4840  -11.4692  -16.7868 C   0  0  0  0  0  0  0  0  0  0  0  0
   17.7396  -12.2021  -17.1354 C   0  0  2  0  0  0  0  0  0  0  0  0
   17.6753  -13.5649  -16.7137 N   0  0  0  0  0  0  0  0  0  0  0  0
   18.9651  -11.4920  -16.6861 C   0  0  0  0  0  0  0  0  0  0  0  0
   19.1534  -11.4098  -15.4423 O   0  0  0  0  0  0  0  0  0  0  0  0
   22.1602  -10.1127  -18.1598 C   0  0  0  0  0  0  0  0  0  0  0  0
   21.1190  -10.2686  -17.0543 C   0  0  2  0  0  0  0  0  0  0  0  0
   19.9236  -10.9088  -17.5389 N   0  0  0  0  0  0  0  0  0  0  0  0
   20.8496   -8.8938  -16.5475 C   0  0  0  0  0  0  0  0  0  0  0  0
   19.8784   -8.2721  -17.0305 O   0  0  0  0  0  0  0  0  0  0  0  0
   21.6427   -8.2761  -15.5529 N   0  0  0  0  0  0  0  0  0  0  0  0
   21.4551   -6.8992  -15.0974 C   0  0  1  0  0  0  0  0  0  0  0  0
   22.1420   -6.6577  -13.7975 C   0  0  0  0  0  0  0  0  0  0  0  0
   22.0977   -5.2774  -13.3073 C   0  0  0  0  0  0  0  0  0  0  0  0
   21.1857   -4.4579  -13.5310 O   0  0  0  0  0  0  0  0  0  0  0  0
   22.1013   -6.0591  -16.1497 C   0  0  0  0  0  0  0  0  0  0  0  0
   21.9616   -4.8245  -16.1655 O   0  0  0  0  0  0  0  0  0  0  0  0
   23.1575   -4.8047  -12.5146 O   0  0  0  0  0  0  0  0  0  0  0  0
   22.8899   -6.6026  -17.1643 O   0  0  0  0  0  0  0  0  0  0  0  0
  2  1  1  1
  2  4  1  0
  2  3  1  0
  4  5  2  0
  7  6  1  6
  7  9  1  0
  8  4  1  0
  8  7  1  0
  9 10  2  0
 11 12  1  0
 11  9  1  0
 12 16  1  0
 12 13  1  1
 14 15  2  0
 14 13  1  0
 16 17  2  0
 16 19  1  0
 18 14  1  0
M  END
$$$$
