AAD.pdb
     RDKit          3D

 19 18  0  0  1  0  0  0  0  0999 V2000
   18.1678  -10.2757  -18.9232 C   0  0  0  0  0  0  0  0  0  0  0  0
   18.7729  -11.1301  -17.8560 C   0  0  2  0  0  0  0  0  0  0  0  0
   17.8304  -12.0821  -17.3614 N   0  0  0  0  0  0  0  0  0  0  0  0
   19.4395  -10.3365  -16.7913 C   0  0  0  0  0  0  0  0  0  0  0  0
   18.7090   -9.5662  -16.1117 O   0  0  0  0  0  0  0  0  0  0  0  0
   22.8242  -10.0578  -15.1160 C   0  0  0  0  0  0  0  0  0  0  0  0
   21.4175   -9.5735  -15.4581 C   0  0  2  0  0  0  0  0  0  0  0  0
   20.8150  -10.3805  -16.4875 N   0  0  0  0  0  0  0  0  0  0  0  0
   21.5637   -8.1515  -15.8778 C   0  0  0  0  0  0  0  0  0  0  0  0
   21.4211   -7.8817  -17.0901 O   0  0  0  0  0  0  0  0  0  0  0  0
   21.8539   -7.1107  -14.9655 N   0  0  0  0  0  0  0  0  0  0  0  0
   21.9784   -5.7038  -15.3444 C   0  0  1  0  0  0  0  0  0  0  0  0
   20.7155   -5.1878  -15.9436 C   0  0  0  0  0  0  0  0  0  0  0  0
   20.7095   -3.7591  -16.2696 C   0  0  0  0  0  0  0  0  0  0  0  0
   21.2344   -2.8579  -15.5872 O   0  0  0  0  0  0  0  0  0  0  0  0
   22.2339   -4.9851  -14.0603 C   0  0  0  0  0  0  0  0  0  0  0  0
   21.7068   -5.3556  -12.9977 O   0  0  0  0  0  0  0  0  0  0  0  0
   20.0660   -3.3341  -17.4445 O   0  0  0  0  0  0  0  0  0  0  0  0
   23.0683   -3.8700  -13.9778 O   0  0  0  0  0  0  0  0  0  0  0  0
  2  1  1  6
  2  4  1  0
  2  3  1  0
  4  5  2  0
  7  6  1  6
  7  9  1  0
  8  4  1  0
  8  7  1  0
  9 10  2  0
 11 12  1  0
 11  9  1  0
 12 16  1  0
 12 13  1  1
 14 15  2  0
 14 13  1  0
 16 17  2  0
 16 19  1  0
 18 14  1  0
M  END
$$$$
