AAD.pdb
     RDKit          3D

 19 18  0  0  1  0  0  0  0  0999 V2000
   17.7454  -11.9914  -17.8086 C   0  0  0  0  0  0  0  0  0  0  0  0
   18.9738  -11.4138  -18.4351 C   0  0  2  0  0  0  0  0  0  0  0  0
   19.7296  -12.4194  -19.1108 N   0  0  0  0  0  0  0  0  0  0  0  0
   19.7745  -10.5966  -17.4870 C   0  0  0  0  0  0  0  0  0  0  0  0
   19.2282  -10.2941  -16.3920 O   0  0  0  0  0  0  0  0  0  0  0  0
   23.3105   -9.2985  -17.1083 C   0  0  0  0  0  0  0  0  0  0  0  0
   21.8245   -9.3535  -16.7630 C   0  0  2  0  0  0  0  0  0  0  0  0
   21.0871  -10.1388  -17.7187 N   0  0  0  0  0  0  0  0  0  0  0  0
   21.3592   -7.9386  -16.7258 C   0  0  0  0  0  0  0  0  0  0  0  0
   20.9564   -7.4270  -17.7929 O   0  0  0  0  0  0  0  0  0  0  0  0
   21.3571   -7.1651  -15.5420 N   0  0  0  0  0  0  0  0  0  0  0  0
   20.9461   -5.7628  -15.4836 C   0  0  1  0  0  0  0  0  0  0  0  0
   19.6702   -5.6006  -14.7314 C   0  0  0  0  0  0  0  0  0  0  0  0
   19.1841   -4.2241  -14.6029 C   0  0  0  0  0  0  0  0  0  0  0  0
   19.7097   -3.2188  -15.1192 O   0  0  0  0  0  0  0  0  0  0  0  0
   22.0405   -5.0765  -14.7341 C   0  0  0  0  0  0  0  0  0  0  0  0
   22.9537   -5.7213  -14.1915 O   0  0  0  0  0  0  0  0  0  0  0  0
   18.0293   -3.9809  -13.8397 O   0  0  0  0  0  0  0  0  0  0  0  0
   22.1025   -3.6891  -14.6001 O   0  0  0  0  0  0  0  0  0  0  0  0
  2  1  1  1
  2  4  1  0
  2  3  1  0
  4  5  2  0
  7  6  1  6
  7  9  1  0
  8  4  1  0
  8  7  1  0
  9 10  2  0
 11 12  1  0
 11  9  1  0
 12 16  1  0
 12 13  1  1
 14 15  2  0
 14 13  1  0
 16 17  2  0
 16 19  1  0
 18 14  1  0
M  END
$$$$
