AAD.pdb
     RDKit          3D

 19 18  0  0  1  0  0  0  0  0999 V2000
   19.0947  -14.3313  -16.8496 C   0  0  0  0  0  0  0  0  0  0  0  0
   18.6417  -13.1382  -16.0709 C   0  0  2  0  0  0  0  0  0  0  0  0
   17.2168  -13.0827  -15.9948 N   0  0  0  0  0  0  0  0  0  0  0  0
   19.2676  -11.8739  -16.5374 C   0  0  0  0  0  0  0  0  0  0  0  0
   20.5247  -11.8032  -16.4769 O   0  0  0  0  0  0  0  0  0  0  0  0
   18.3574   -8.6958  -18.3511 C   0  0  0  0  0  0  0  0  0  0  0  0
   19.2124   -9.5205  -17.3923 C   0  0  2  0  0  0  0  0  0  0  0  0
   18.5669  -10.7581  -17.0377 N   0  0  0  0  0  0  0  0  0  0  0  0
   19.4485   -8.6538  -16.2038 C   0  0  0  0  0  0  0  0  0  0  0  0
   18.7142   -8.8174  -15.2054 O   0  0  0  0  0  0  0  0  0  0  0  0
   20.4602   -7.6665  -16.1661 N   0  0  0  0  0  0  0  0  0  0  0  0
   20.6714   -6.7563  -15.0411 C   0  0  1  0  0  0  0  0  0  0  0  0
   22.0493   -6.1897  -15.0509 C   0  0  0  0  0  0  0  0  0  0  0  0
   22.2970   -5.1161  -14.0845 C   0  0  0  0  0  0  0  0  0  0  0  0
   21.9572   -5.1279  -12.8855 O   0  0  0  0  0  0  0  0  0  0  0  0
   19.6915   -5.6501  -15.2576 C   0  0  0  0  0  0  0  0  0  0  0  0
   19.3911   -5.2691  -16.4015 O   0  0  0  0  0  0  0  0  0  0  0  0
   22.9726   -3.9606  -14.5128 O   0  0  0  0  0  0  0  0  0  0  0  0
   19.0632   -4.9873  -14.2028 O   0  0  0  0  0  0  0  0  0  0  0  0
  2  1  1  6
  2  4  1  0
  2  3  1  0
  4  5  2  0
  7  6  1  6
  7  9  1  0
  8  4  1  0
  8  7  1  0
  9 10  2  0
 11 12  1  0
 11  9  1  0
 12 16  1  0
 12 13  1  6
 14 15  2  0
 14 13  1  0
 16 17  2  0
 16 19  1  0
 18 14  1  0
M  END
$$$$
