AAD.pdb
     RDKit          3D

 19 18  0  0  1  0  0  0  0  0999 V2000
   15.9485  -11.9803  -14.8966 C   0  0  0  0  0  0  0  0  0  0  0  0
   16.9396  -12.4627  -15.9065 C   0  0  2  0  0  0  0  0  0  0  0  0
   17.4250  -13.7634  -15.5721 N   0  0  0  0  0  0  0  0  0  0  0  0
   18.0138  -11.4728  -16.1784 C   0  0  0  0  0  0  0  0  0  0  0  0
   19.1162  -11.6520  -15.5939 O   0  0  0  0  0  0  0  0  0  0  0  0
   18.6946   -8.5512  -18.4864 C   0  0  0  0  0  0  0  0  0  0  0  0
   18.9685   -9.4304  -17.2688 C   0  0  2  0  0  0  0  0  0  0  0  0
   17.8931  -10.3587  -17.0330 N   0  0  0  0  0  0  0  0  0  0  0  0
   19.1612   -8.4971  -16.1236 C   0  0  0  0  0  0  0  0  0  0  0  0
   18.2013   -8.3247  -15.3415 O   0  0  0  0  0  0  0  0  0  0  0  0
   20.3752   -7.8092  -15.8935 N   0  0  0  0  0  0  0  0  0  0  0  0
   20.5744   -6.8435  -14.8135 C   0  0  1  0  0  0  0  0  0  0  0  0
   22.0169   -6.5143  -14.6372 C   0  0  0  0  0  0  0  0  0  0  0  0
   22.3077   -5.4490  -13.6738 C   0  0  0  0  0  0  0  0  0  0  0  0
   21.9146   -5.4139  -12.4916 O   0  0  0  0  0  0  0  0  0  0  0  0
   19.8493   -5.6170  -15.2613 C   0  0  0  0  0  0  0  0  0  0  0  0
   19.3887   -4.8045  -14.4418 O   0  0  0  0  0  0  0  0  0  0  0  0
   23.0941   -4.3591  -14.0846 O   0  0  0  0  0  0  0  0  0  0  0  0
   19.6484   -5.3140  -16.6083 O   0  0  0  0  0  0  0  0  0  0  0  0
  2  1  1  1
  2  4  1  0
  2  3  1  0
  4  5  2  0
  7  6  1  6
  7  9  1  0
  8  4  1  0
  8  7  1  0
  9 10  2  0
 11 12  1  0
 11  9  1  0
 12 16  1  0
 12 13  1  6
 14 15  2  0
 14 13  1  0
 16 17  2  0
 16 19  1  0
 18 14  1  0
M  END
$$$$
