RSF.pdb
     RDKit          3D

 29 29  0  0  1  0  0  0  0  0999 V2000
   29.5566  -25.3640  -16.3881 N   0  0  0  0  0  0  0  0  0  0  0  0
   30.7880  -24.8716  -16.8712 C   0  0  0  0  0  0  0  0  0  0  0  0
   31.8986  -25.4994  -16.7490 N   0  0  0  0  0  0  0  0  0  0  0  0
   30.7740  -23.6108  -17.5315 N   0  0  0  0  0  0  0  0  0  0  0  0
   29.5562  -22.8911  -17.8115 C   0  0  0  0  0  0  0  0  0  0  0  0
   29.2295  -22.1144  -16.5214 C   0  0  0  0  0  0  0  0  0  0  0  0
   28.0208  -22.6816  -15.8535 C   0  0  0  0  0  0  0  0  0  0  0  0
   26.9145  -21.5983  -15.8896 C   0  0  2  0  0  0  0  0  0  0  0  0
   27.5452  -20.3262  -15.5168 N   0  0  0  0  0  0  0  0  0  0  0  0
   25.9758  -22.0282  -14.7718 C   0  0  0  0  0  0  0  0  0  0  0  0
   25.3958  -23.1009  -14.9920 O   0  0  0  0  0  0  0  0  0  0  0  0
   32.7983  -25.1662  -17.1147 O   0  0  0  0  0  0  0  0  0  0  0  0
   24.6367  -20.7937  -10.2142 C   0  0  0  0  0  0  0  0  0  0  0  0
   25.5495  -20.7676  -11.2408 C   0  0  1  0  0  0  0  0  0  0  0  0
   24.9893  -21.3483  -12.5646 N   0  0  0  0  0  0  0  0  0  0  0  0
   25.8666  -21.2040  -13.6581 C   0  0  0  0  0  0  0  0  0  0  0  0
   23.6904  -20.7532  -12.8508 O   0  0  0  0  0  0  0  0  0  0  0  0
   23.6328  -19.6054  -13.4222 N   0  0  0  0  0  0  0  0  0  0  0  0
   22.4167  -21.3055  -12.5663 C   0  0  1  0  0  0  0  0  0  0  0  0
   21.2147  -20.6596  -13.0119 C   0  0  0  0  0  0  0  0  0  0  0  0
   21.2859  -20.6634  -14.5543 C   0  0  0  0  0  0  0  0  0  0  0  0
   20.1007  -20.0711  -15.1797 C   0  0  0  0  0  0  0  0  0  0  0  0
   18.9917  -20.7985  -15.6015 C   0  0  0  0  0  0  0  0  0  0  0  0
   17.9169  -20.1643  -16.1723 C   0  0  0  0  0  0  0  0  0  0  0  0
   17.9062  -18.8037  -16.3447 C   0  0  0  0  0  0  0  0  0  0  0  0
   18.9728  -18.0433  -15.9484 C   0  0  0  0  0  0  0  0  0  0  0  0
   20.0510  -18.7105  -15.3700 C   0  0  0  0  0  0  0  0  0  0  0  0
   19.9957  -21.3674  -12.6125 O   0  0  0  0  0  0  0  0  0  0  0  0
   18.8979  -20.5567  -12.2732 O   0  0  0  0  0  0  0  0  0  0  0  0
  1  2  1  0
  2  4  1  0
  2  3  2  0
  4  5  1  0
  6  5  1  0
  7  6  1  0
  8  7  1  0
  8  9  1  1
 10  8  1  0
 11 10  2  0
 13 12  1  0
 14 13  1  1
 14 16  1  0
 14 15  1  0
 15 10  1  0
 16 18  1  0
 17 16  2  0
 18 19  1  0
 19 27  1  0
 20 21  1  0
 19 20  1  1
 21 26  2  0
 22 23  2  0
 22 21  1  0
 23 24  1  0
 24 25  2  0
 26 25  1  0
 27 29  2  0
 27 28  1  0
M  END
$$$$
