RSF.pdb
     RDKit          3D

 29 29  0  0  1  0  0  0  0  0999 V2000
   22.1796  -17.8357  -15.4174 N   0  0  0  0  0  0  0  0  0  0  0  0
   22.4597  -19.1179  -15.9368 C   0  0  0  0  0  0  0  0  0  0  0  0
   22.1086  -20.2074  -15.3606 N   0  0  0  0  0  0  0  0  0  0  0  0
   23.1662  -19.1833  -17.1708 N   0  0  0  0  0  0  0  0  0  0  0  0
   23.7514  -18.0232  -17.7962 C   0  0  0  0  0  0  0  0  0  0  0  0
   24.3782  -18.5332  -19.1082 C   0  0  0  0  0  0  0  0  0  0  0  0
   25.5486  -19.4164  -18.8277 C   0  0  0  0  0  0  0  0  0  0  0  0
   26.8217  -18.5356  -18.8759 C   0  0  2  0  0  0  0  0  0  0  0  0
   27.7141  -19.1235  -19.8823 N   0  0  0  0  0  0  0  0  0  0  0  0
   27.4329  -18.7392  -17.4974 C   0  0  0  0  0  0  0  0  0  0  0  0
   28.6653  -18.6118  -17.4742 O   0  0  0  0  0  0  0  0  0  0  0  0
   22.2703  -21.1462  -15.7438 O   0  0  0  0  0  0  0  0  0  0  0  0
   25.6442  -16.8742  -14.4876 C   0  0  0  0  0  0  0  0  0  0  0  0
   26.8877  -17.4535  -14.5640 C   0  0  1  0  0  0  0  0  0  0  0  0
   26.8430  -18.9206  -15.0630 N   0  0  0  0  0  0  0  0  0  0  0  0
   26.5788  -19.0379  -16.4424 C   0  0  0  0  0  0  0  0  0  0  0  0
   25.8772  -19.6772  -14.2768 O   0  0  0  0  0  0  0  0  0  0  0  0
   24.6436  -19.6884  -14.6308 N   0  0  0  0  0  0  0  0  0  0  0  0
   26.1363  -20.4424  -13.1124 C   0  0  2  0  0  0  0  0  0  0  0  0
   25.1072  -21.2402  -12.5081 C   0  0  0  0  0  0  0  0  0  0  0  0
   25.7889  -21.9869  -11.3413 C   0  0  0  0  0  0  0  0  0  0  0  0
   26.0821  -21.1140  -10.2017 C   0  0  0  0  0  0  0  0  0  0  0  0
   26.7909  -19.9197  -10.2921 C   0  0  0  0  0  0  0  0  0  0  0  0
   27.0161  -19.1554   -9.1747 C   0  0  0  0  0  0  0  0  0  0  0  0
   26.5541  -19.5459   -7.9439 C   0  0  0  0  0  0  0  0  0  0  0  0
   25.8533  -20.7127   -7.8013 C   0  0  0  0  0  0  0  0  0  0  0  0
   25.6362  -21.4700   -8.9509 C   0  0  0  0  0  0  0  0  0  0  0  0
   24.0076  -20.4445  -11.9566 O   0  0  0  0  0  0  0  0  0  0  0  0
   22.8274  -21.1495  -11.6607 O   0  0  0  0  0  0  0  0  0  0  0  0
  1  2  1  0
  2  4  1  0
  2  3  2  0
  4  5  1  0
  6  5  1  0
  7  6  1  0
  8  7  1  0
  8  9  1  6
 10  8  1  0
 11 10  2  0
 13 12  1  0
 14 13  1  6
 14 16  1  0
 14 15  1  0
 15 10  1  0
 16 18  1  0
 17 16  2  0
 18 19  1  0
 19 27  1  0
 20 21  1  0
 19 20  1  1
 21 26  2  0
 22 23  2  0
 22 21  1  0
 23 24  1  0
 24 25  2  0
 26 25  1  0
 27 29  2  0
 27 28  1  0
M  END
$$$$
