RSF.pdb
     RDKit          3D

 29 29  0  0  1  0  0  0  0  0999 V2000
   22.4248  -18.5345  -17.6651 N   0  0  0  0  0  0  0  0  0  0  0  0
   23.5628  -17.7515  -17.9550 C   0  0  0  0  0  0  0  0  0  0  0  0
   23.5840  -16.8390  -18.8546 N   0  0  0  0  0  0  0  0  0  0  0  0
   24.7389  -18.0001  -17.1927 N   0  0  0  0  0  0  0  0  0  0  0  0
   24.8076  -19.0210  -16.1765 C   0  0  0  0  0  0  0  0  0  0  0  0
   25.7782  -20.0848  -16.7246 C   0  0  0  0  0  0  0  0  0  0  0  0
   27.1668  -19.8368  -16.2356 C   0  0  0  0  0  0  0  0  0  0  0  0
   27.5998  -21.0733  -15.4095 C   0  0  2  0  0  0  0  0  0  0  0  0
   27.9896  -22.1156  -16.3669 N   0  0  0  0  0  0  0  0  0  0  0  0
   26.3102  -21.4954  -14.7209 C   0  0  0  0  0  0  0  0  0  0  0  0
   25.5010  -22.0532  -15.4755 O   0  0  0  0  0  0  0  0  0  0  0  0
   24.3979  -16.2498  -19.0663 O   0  0  0  0  0  0  0  0  0  0  0  0
   25.8333  -20.1650  -10.6773 C   0  0  0  0  0  0  0  0  0  0  0  0
   25.4568  -21.4450  -11.0052 C   0  0  1  0  0  0  0  0  0  0  0  0
   25.1242  -21.6120  -12.5102 N   0  0  0  0  0  0  0  0  0  0  0  0
   26.1745  -21.2215  -13.3651 C   0  0  0  0  0  0  0  0  0  0  0  0
   23.8961  -20.8934  -12.8242 O   0  0  0  0  0  0  0  0  0  0  0  0
   23.9604  -19.6743  -13.2202 N   0  0  0  0  0  0  0  0  0  0  0  0
   22.5716  -21.3913  -12.7458 C   0  0  1  0  0  0  0  0  0  0  0  0
   21.4464  -20.5463  -13.0294 C   0  0  0  0  0  0  0  0  0  0  0  0
   21.5561  -20.1943  -14.5287 C   0  0  0  0  0  0  0  0  0  0  0  0
   21.4127  -21.3640  -15.3993 C   0  0  0  0  0  0  0  0  0  0  0  0
   20.1936  -21.9456  -15.7350 C   0  0  0  0  0  0  0  0  0  0  0  0
   20.1463  -23.0375  -16.5648 C   0  0  0  0  0  0  0  0  0  0  0  0
   21.2924  -23.5852  -17.0819 C   0  0  0  0  0  0  0  0  0  0  0  0
   22.5162  -23.0516  -16.7810 C   0  0  0  0  0  0  0  0  0  0  0  0
   22.5376  -21.9422  -15.9379 C   0  0  0  0  0  0  0  0  0  0  0  0
   20.1573  -21.2077  -12.8120 O   0  0  0  0  0  0  0  0  0  0  0  0
   19.0160  -20.4402  -13.1051 O   0  0  0  0  0  0  0  0  0  0  0  0
  1  2  1  0
  2  4  1  0
  2  3  2  0
  4  5  1  0
  6  5  1  0
  7  6  1  0
  8  7  1  0
  8  9  1  6
 10  8  1  0
 11 10  2  0
 13 12  1  0
 14 13  1  1
 14 16  1  0
 14 15  1  0
 15 10  1  0
 16 18  1  0
 17 16  2  0
 18 19  1  0
 19 27  1  0
 20 21  1  0
 19 20  1  6
 21 26  2  0
 22 23  2  0
 22 21  1  0
 23 24  1  0
 24 25  2  0
 26 25  1  0
 27 29  2  0
 27 28  1  0
M  END
$$$$
