RSF.pdb
     RDKit          3D

 29 29  0  0  1  0  0  0  0  0999 V2000
   19.5850  -22.5459  -10.7530 N   0  0  0  0  0  0  0  0  0  0  0  0
   18.2992  -23.0842  -10.5323 C   0  0  0  0  0  0  0  0  0  0  0  0
   17.2217  -22.5474  -10.9720 N   0  0  0  0  0  0  0  0  0  0  0  0
   18.2158  -24.2919   -9.7835 N   0  0  0  0  0  0  0  0  0  0  0  0
   18.6941  -24.4027   -8.4276 C   0  0  0  0  0  0  0  0  0  0  0  0
   17.4334  -24.5663   -7.5569 C   0  0  0  0  0  0  0  0  0  0  0  0
   17.7990  -24.9637   -6.1650 C   0  0  0  0  0  0  0  0  0  0  0  0
   18.2404  -26.4478   -6.2028 C   0  0  2  0  0  0  0  0  0  0  0  0
   17.5082  -27.0869   -7.3029 N   0  0  0  0  0  0  0  0  0  0  0  0
   17.7196  -26.9950   -4.8819 C   0  0  0  0  0  0  0  0  0  0  0  0
   16.4831  -27.0306   -4.8093 O   0  0  0  0  0  0  0  0  0  0  0  0
   17.1861  -21.8373  -11.7129 O   0  0  0  0  0  0  0  0  0  0  0  0
   19.3612  -28.9790   -0.6833 C   0  0  0  0  0  0  0  0  0  0  0  0
   19.6063  -28.5684   -1.9714 C   0  0  1  0  0  0  0  0  0  0  0  0
   18.3949  -27.8494   -2.6189 N   0  0  0  0  0  0  0  0  0  0  0  0
   18.6491  -27.3842   -3.9248 C   0  0  0  0  0  0  0  0  0  0  0  0
   17.9467  -26.7665   -1.7531 O   0  0  0  0  0  0  0  0  0  0  0  0
   18.6067  -25.6662   -1.7235 N   0  0  0  0  0  0  0  0  0  0  0  0
   16.8183  -26.7701   -0.8958 C   0  0  1  0  0  0  0  0  0  0  0  0
   16.5497  -25.6625   -0.0230 C   0  0  0  0  0  0  0  0  0  0  0  0
   15.0562  -25.3260   -0.2232 C   0  0  0  0  0  0  0  0  0  0  0  0
   14.7699  -24.7786   -1.5518 C   0  0  0  0  0  0  0  0  0  0  0  0
   14.4649  -25.5517   -2.6681 C   0  0  0  0  0  0  0  0  0  0  0  0
   14.2014  -24.9583   -3.8772 C   0  0  0  0  0  0  0  0  0  0  0  0
   14.2334  -23.5946   -4.0195 C   0  0  0  0  0  0  0  0  0  0  0  0
   14.5297  -22.7900   -2.9528 C   0  0  0  0  0  0  0  0  0  0  0  0
   14.7918  -23.4164   -1.7358 C   0  0  0  0  0  0  0  0  0  0  0  0
   16.7577  -25.9781    1.3925 O   0  0  0  0  0  0  0  0  0  0  0  0
   16.5812  -24.9116    2.2919 O   0  0  0  0  0  0  0  0  0  0  0  0
  1  2  1  0
  2  4  1  0
  2  3  2  0
  4  5  1  0
  6  5  1  0
  7  6  1  0
  8  7  1  0
  8  9  1  6
 10  8  1  0
 11 10  2  0
 13 12  1  0
 14 13  1  6
 14 16  1  0
 14 15  1  0
 15 10  1  0
 16 18  1  0
 17 16  2  0
 18 19  1  0
 19 27  1  0
 20 21  1  0
 19 20  1  1
 21 26  2  0
 22 23  2  0
 22 21  1  0
 23 24  1  0
 24 25  2  0
 26 25  1  0
 27 29  2  0
 27 28  1  0
M  END
$$$$
