RSF.pdb
     RDKit          3D

 29 29  0  0  1  0  0  0  0  0999 V2000
   19.5371  -26.6502  -14.1701 N   0  0  0  0  0  0  0  0  0  0  0  0
   18.7216  -25.6603  -14.7593 C   0  0  0  0  0  0  0  0  0  0  0  0
   17.4830  -25.5001  -14.4720 N   0  0  0  0  0  0  0  0  0  0  0  0
   19.3272  -24.7999  -15.7180 N   0  0  0  0  0  0  0  0  0  0  0  0
   20.7338  -24.8503  -16.0317 C   0  0  0  0  0  0  0  0  0  0  0  0
   21.4308  -24.0164  -14.9394 C   0  0  0  0  0  0  0  0  0  0  0  0
   22.2318  -22.9124  -15.5463 C   0  0  0  0  0  0  0  0  0  0  0  0
   22.9906  -22.1997  -14.3995 C   0  0  2  0  0  0  0  0  0  0  0  0
   22.0334  -21.3011  -13.7431 N   0  0  0  0  0  0  0  0  0  0  0  0
   24.0237  -21.3624  -15.1392 C   0  0  0  0  0  0  0  0  0  0  0  0
   23.6848  -20.1818  -15.3026 O   0  0  0  0  0  0  0  0  0  0  0  0
   16.8681  -24.8074  -14.9151 O   0  0  0  0  0  0  0  0  0  0  0  0
   28.0632  -22.6341  -15.0926 C   0  0  0  0  0  0  0  0  0  0  0  0
   27.5251  -22.3325  -16.3203 C   0  0  2  0  0  0  0  0  0  0  0  0
   26.2867  -21.4044  -16.2275 N   0  0  0  0  0  0  0  0  0  0  0  0
   25.1994  -21.9839  -15.5432 C   0  0  0  0  0  0  0  0  0  0  0  0
   25.8966  -20.9714  -17.5630 O   0  0  0  0  0  0  0  0  0  0  0  0
   25.3028  -21.7961  -18.3469 N   0  0  0  0  0  0  0  0  0  0  0  0
   26.0973  -19.6920  -18.1385 C   0  0  1  0  0  0  0  0  0  0  0  0
   25.6653  -19.4078  -19.4776 C   0  0  0  0  0  0  0  0  0  0  0  0
   24.6963  -18.2116  -19.3585 C   0  0  0  0  0  0  0  0  0  0  0  0
   23.3959  -18.5870  -18.7975 C   0  0  0  0  0  0  0  0  0  0  0  0
   23.0245  -18.3771  -17.4728 C   0  0  0  0  0  0  0  0  0  0  0  0
   21.7815  -18.7523  -17.0286 C   0  0  0  0  0  0  0  0  0  0  0  0
   20.8760  -19.3437  -17.8720 C   0  0  0  0  0  0  0  0  0  0  0  0
   21.1930  -19.5736  -19.1833 C   0  0  0  0  0  0  0  0  0  0  0  0
   22.4604  -19.1820  -19.6104 C   0  0  0  0  0  0  0  0  0  0  0  0
   26.7610  -19.0169  -20.3680 O   0  0  0  0  0  0  0  0  0  0  0  0
   28.0365  -18.9499  -19.7796 O   0  0  0  0  0  0  0  0  0  0  0  0
  1  2  1  0
  2  4  1  0
  2  3  2  0
  4  5  1  0
  6  5  1  0
  7  6  1  0
  8  7  1  0
  8  9  1  6
 10  8  1  0
 11 10  2  0
 13 12  1  0
 14 13  1  1
 14 16  1  0
 14 15  1  0
 15 10  1  0
 16 18  1  0
 17 16  2  0
 18 19  1  0
 19 27  1  0
 20 21  1  0
 19 20  1  6
 21 26  2  0
 22 23  2  0
 22 21  1  0
 23 24  1  0
 24 25  2  0
 26 25  1  0
 27 29  2  0
 27 28  1  0
M  END
$$$$
