RSF.pdb
     RDKit          3D

 29 29  0  0  1  0  0  0  0  0999 V2000
   11.6179  -18.1545   -4.8461 N   0  0  0  0  0  0  0  0  0  0  0  0
   10.6482  -19.1429   -4.5725 C   0  0  0  0  0  0  0  0  0  0  0  0
    9.3883  -18.9099   -4.5434 N   0  0  0  0  0  0  0  0  0  0  0  0
   11.1141  -20.4646   -4.3235 N   0  0  0  0  0  0  0  0  0  0  0  0
   12.2832  -20.7415   -3.5260 C   0  0  0  0  0  0  0  0  0  0  0  0
   13.2746  -21.4416   -4.4755 C   0  0  0  0  0  0  0  0  0  0  0  0
   13.4625  -22.8703   -4.0853 C   0  0  0  0  0  0  0  0  0  0  0  0
   14.5919  -23.4526   -4.9709 C   0  0  2  0  0  0  0  0  0  0  0  0
   13.9681  -23.9104   -6.2183 N   0  0  0  0  0  0  0  0  0  0  0  0
   15.0580  -24.6659   -4.1798 C   0  0  0  0  0  0  0  0  0  0  0  0
   14.1365  -25.2922   -3.6376 O   0  0  0  0  0  0  0  0  0  0  0  0
    8.6709  -19.6154   -4.3386 O   0  0  0  0  0  0  0  0  0  0  0  0
   18.9411  -25.8307   -5.0596 C   0  0  0  0  0  0  0  0  0  0  0  0
   18.5966  -26.0523   -3.7481 C   0  0  2  0  0  0  0  0  0  0  0  0
   17.0650  -26.0189   -3.5099 N   0  0  0  0  0  0  0  0  0  0  0  0
   16.4204  -24.9385   -4.1453 C   0  0  0  0  0  0  0  0  0  0  0  0
   16.7905  -26.0268   -2.0789 O   0  0  0  0  0  0  0  0  0  0  0  0
   16.5391  -24.9214   -1.4772 N   0  0  0  0  0  0  0  0  0  0  0  0
   16.7630  -27.1544   -1.2210 C   0  0  1  0  0  0  0  0  0  0  0  0
   16.4108  -27.0207    0.1642 C   0  0  0  0  0  0  0  0  0  0  0  0
   14.9621  -26.4867    0.1770 C   0  0  0  0  0  0  0  0  0  0  0  0
   14.4148  -26.3602    1.5302 C   0  0  0  0  0  0  0  0  0  0  0  0
   13.7355  -27.3747    2.1981 C   0  0  0  0  0  0  0  0  0  0  0  0
   13.2601  -27.1764    3.4702 C   0  0  0  0  0  0  0  0  0  0  0  0
   13.4377  -25.9789    4.1145 C   0  0  0  0  0  0  0  0  0  0  0  0
   14.0973  -24.9489    3.5006 C   0  0  0  0  0  0  0  0  0  0  0  0
   14.5719  -25.1757    2.2101 C   0  0  0  0  0  0  0  0  0  0  0  0
   16.4318  -28.2924    0.8914 O   0  0  0  0  0  0  0  0  0  0  0  0
   16.7201  -28.2096    2.2653 O   0  0  0  0  0  0  0  0  0  0  0  0
  1  2  1  0
  2  4  1  0
  2  3  2  0
  4  5  1  0
  6  5  1  0
  7  6  1  0
  8  7  1  0
  8  9  1  6
 10  8  1  0
 11 10  2  0
 13 12  1  0
 14 13  1  6
 14 16  1  0
 14 15  1  0
 15 10  1  0
 16 18  1  0
 17 16  2  0
 18 19  1  0
 19 27  1  0
 20 21  1  0
 19 20  1  1
 21 26  2  0
 22 23  2  0
 22 21  1  0
 23 24  1  0
 24 25  2  0
 26 25  1  0
 27 29  2  0
 27 28  1  0
M  END
$$$$
