RSF.pdb
     RDKit          3D

 29 29  0  0  1  0  0  0  0  0999 V2000
   24.5388  -21.1896  -11.3206 N   0  0  0  0  0  0  0  0  0  0  0  0
   25.4836  -20.5067  -10.5250 C   0  0  0  0  0  0  0  0  0  0  0  0
   25.4595  -20.5029   -9.2436 N   0  0  0  0  0  0  0  0  0  0  0  0
   26.5141  -19.7942  -11.2006 N   0  0  0  0  0  0  0  0  0  0  0  0
   26.5887  -19.7083  -12.6381 C   0  0  0  0  0  0  0  0  0  0  0  0
   27.6694  -20.7236  -13.0571 C   0  0  0  0  0  0  0  0  0  0  0  0
   27.1588  -21.6283  -14.1293 C   0  0  0  0  0  0  0  0  0  0  0  0
   26.9994  -20.7837  -15.4177 C   0  0  2  0  0  0  0  0  0  0  0  0
   27.5552  -19.4552  -15.1330 N   0  0  0  0  0  0  0  0  0  0  0  0
   25.4897  -20.6639  -15.5655 C   0  0  0  0  0  0  0  0  0  0  0  0
   24.9211  -21.7455  -15.7714 O   0  0  0  0  0  0  0  0  0  0  0  0
   26.1495  -20.0272   -8.6504 O   0  0  0  0  0  0  0  0  0  0  0  0
   21.4786  -18.7689  -14.3198 C   0  0  0  0  0  0  0  0  0  0  0  0
   22.8221  -19.0300  -14.1995 C   0  0  2  0  0  0  0  0  0  0  0  0
   23.5583  -19.0587  -15.5636 N   0  0  0  0  0  0  0  0  0  0  0  0
   24.9218  -19.3998  -15.4600 C   0  0  0  0  0  0  0  0  0  0  0  0
   23.3864  -17.7801  -16.2410 O   0  0  0  0  0  0  0  0  0  0  0  0
   24.0294  -16.7512  -15.8225 N   0  0  0  0  0  0  0  0  0  0  0  0
   22.5596  -17.5110  -17.3601 C   0  0  1  0  0  0  0  0  0  0  0  0
   22.3880  -16.1717  -17.8473 C   0  0  0  0  0  0  0  0  0  0  0  0
   22.9237  -16.1824  -19.2953 C   0  0  0  0  0  0  0  0  0  0  0  0
   24.3628  -16.4479  -19.3672 C   0  0  0  0  0  0  0  0  0  0  0  0
   25.3389  -15.4585  -19.4402 C   0  0  0  0  0  0  0  0  0  0  0  0
   26.6687  -15.7928  -19.4969 C   0  0  0  0  0  0  0  0  0  0  0  0
   27.0711  -17.1039  -19.4859 C   0  0  0  0  0  0  0  0  0  0  0  0
   26.1505  -18.1142  -19.4169 C   0  0  0  0  0  0  0  0  0  0  0  0
   24.8069  -17.7489  -19.3585 C   0  0  0  0  0  0  0  0  0  0  0  0
   20.9869  -15.7452  -17.8852 O   0  0  0  0  0  0  0  0  0  0  0  0
   20.7594  -14.4187  -18.2926 O   0  0  0  0  0  0  0  0  0  0  0  0
  1  2  1  0
  2  4  1  0
  2  3  2  0
  4  5  1  0
  6  5  1  0
  7  6  1  0
  8  7  1  0
  8  9  1  1
 10  8  1  0
 11 10  2  0
 13 12  1  0
 14 13  1  6
 14 16  1  0
 14 15  1  0
 15 10  1  0
 16 18  1  0
 17 16  2  0
 18 19  1  0
 19 27  1  0
 20 21  1  0
 19 20  1  6
 21 26  2  0
 22 23  2  0
 22 21  1  0
 23 24  1  0
 24 25  2  0
 26 25  1  0
 27 29  2  0
 27 28  1  0
M  END
$$$$
