RSF.pdb
     RDKit          3D

 29 29  0  0  1  0  0  0  0  0999 V2000
   18.8353  -22.8813  -17.0138 N   0  0  0  0  0  0  0  0  0  0  0  0
   18.2547  -21.8223  -16.2834 C   0  0  0  0  0  0  0  0  0  0  0  0
   17.0012  -21.7411  -16.0293 N   0  0  0  0  0  0  0  0  0  0  0  0
   19.1255  -20.8021  -15.8072 N   0  0  0  0  0  0  0  0  0  0  0  0
   20.4045  -21.0874  -15.2053 C   0  0  0  0  0  0  0  0  0  0  0  0
   20.2742  -20.6527  -13.7327 C   0  0  0  0  0  0  0  0  0  0  0  0
   21.1752  -19.4990  -13.4395 C   0  0  0  0  0  0  0  0  0  0  0  0
   22.5890  -19.8667  -13.9541 C   0  0  2  0  0  0  0  0  0  0  0  0
   22.4114  -20.8174  -15.0584 N   0  0  0  0  0  0  0  0  0  0  0  0
   23.2063  -20.5972  -12.7706 C   0  0  0  0  0  0  0  0  0  0  0  0
   22.4083  -21.3231  -12.1608 O   0  0  0  0  0  0  0  0  0  0  0  0
   16.5645  -20.9828  -15.4922 O   0  0  0  0  0  0  0  0  0  0  0  0
   27.3688  -20.7136  -13.1901 C   0  0  0  0  0  0  0  0  0  0  0  0
   26.6242  -21.7337  -12.6490 C   0  0  1  0  0  0  0  0  0  0  0  0
   25.4332  -21.2275  -11.7954 N   0  0  0  0  0  0  0  0  0  0  0  0
   24.5531  -20.3835  -12.5021 C   0  0  0  0  0  0  0  0  0  0  0  0
   25.9337  -20.5757  -10.5921 O   0  0  0  0  0  0  0  0  0  0  0  0
   25.8536  -19.2993  -10.4845 N   0  0  0  0  0  0  0  0  0  0  0  0
   26.5274  -21.1999   -9.4669 C   0  0  1  0  0  0  0  0  0  0  0  0
   27.4463  -20.4870   -8.6254 C   0  0  0  0  0  0  0  0  0  0  0  0
   26.9004  -20.6384   -7.1890 C   0  0  0  0  0  0  0  0  0  0  0  0
   27.7833  -20.0474   -6.1801 C   0  0  0  0  0  0  0  0  0  0  0  0
   28.7575  -20.7542   -5.4814 C   0  0  0  0  0  0  0  0  0  0  0  0
   29.5496  -20.1221   -4.5560 C   0  0  0  0  0  0  0  0  0  0  0  0
   29.4027  -18.7840   -4.2931 C   0  0  0  0  0  0  0  0  0  0  0  0
   28.4582  -18.0446   -4.9519 C   0  0  0  0  0  0  0  0  0  0  0  0
   27.6678  -18.7090   -5.8878 C   0  0  0  0  0  0  0  0  0  0  0  0
   28.8037  -21.0373   -8.6550 O   0  0  0  0  0  0  0  0  0  0  0  0
   29.8303  -20.1618   -8.2586 O   0  0  0  0  0  0  0  0  0  0  0  0
  1  2  1  0
  2  4  1  0
  2  3  2  0
  4  5  1  0
  6  5  1  0
  7  6  1  0
  8  7  1  0
  8  9  1  6
 10  8  1  0
 11 10  2  0
 13 12  1  0
 14 13  1  6
 14 16  1  0
 14 15  1  0
 15 10  1  0
 16 18  1  0
 17 16  2  0
 18 19  1  0
 19 27  1  0
 20 21  1  0
 19 20  1  6
 21 26  2  0
 22 23  2  0
 22 21  1  0
 23 24  1  0
 24 25  2  0
 26 25  1  0
 27 29  2  0
 27 28  1  0
M  END
$$$$
