RSF.pdb
     RDKit          3D

 29 29  0  0  1  0  0  0  0  0999 V2000
   25.4462  -27.3721  -17.1145 N   0  0  0  0  0  0  0  0  0  0  0  0
   26.7261  -27.3573  -17.7093 C   0  0  0  0  0  0  0  0  0  0  0  0
   27.0599  -28.1117  -18.6901 N   0  0  0  0  0  0  0  0  0  0  0  0
   27.6820  -26.4446  -17.1809 N   0  0  0  0  0  0  0  0  0  0  0  0
   27.3680  -25.5093  -16.1292 C   0  0  0  0  0  0  0  0  0  0  0  0
   26.6585  -24.3305  -16.8229 C   0  0  0  0  0  0  0  0  0  0  0  0
   26.3999  -23.2241  -15.8546 C   0  0  0  0  0  0  0  0  0  0  0  0
   25.6277  -22.1132  -16.6087 C   0  0  2  0  0  0  0  0  0  0  0  0
   26.6250  -21.1599  -17.1099 N   0  0  0  0  0  0  0  0  0  0  0  0
   24.8205  -21.4458  -15.5049 C   0  0  0  0  0  0  0  0  0  0  0  0
   25.4455  -20.5708  -14.8890 O   0  0  0  0  0  0  0  0  0  0  0  0
   27.9683  -28.0772  -19.1674 O   0  0  0  0  0  0  0  0  0  0  0  0
   21.4181  -19.3741  -13.5900 C   0  0  0  0  0  0  0  0  0  0  0  0
   22.2993  -19.8556  -14.5278 C   0  0  2  0  0  0  0  0  0  0  0  0
   22.5798  -21.3725  -14.3730 N   0  0  0  0  0  0  0  0  0  0  0  0
   23.5122  -21.8702  -15.3053 C   0  0  0  0  0  0  0  0  0  0  0  0
   21.3262  -22.1125  -14.4370 O   0  0  0  0  0  0  0  0  0  0  0  0
   20.7756  -22.3262  -15.5765 N   0  0  0  0  0  0  0  0  0  0  0  0
   20.5987  -22.6557  -13.3489 C   0  0  1  0  0  0  0  0  0  0  0  0
   19.3523  -23.3360  -13.5592 C   0  0  0  0  0  0  0  0  0  0  0  0
   19.4893  -24.6920  -12.8337 C   0  0  0  0  0  0  0  0  0  0  0  0
   20.4354  -25.5963  -13.4925 C   0  0  0  0  0  0  0  0  0  0  0  0
   20.0666  -26.6121  -14.3694 C   0  0  0  0  0  0  0  0  0  0  0  0
   21.0183  -27.4117  -14.9511 C   0  0  0  0  0  0  0  0  0  0  0  0
   22.3519  -27.2351  -14.6843 C   0  0  0  0  0  0  0  0  0  0  0  0
   22.7664  -26.2515  -13.8278 C   0  0  0  0  0  0  0  0  0  0  0  0
   21.7811  -25.4519  -13.2514 C   0  0  0  0  0  0  0  0  0  0  0  0
   18.2039  -22.6292  -12.9865 O   0  0  0  0  0  0  0  0  0  0  0  0
   16.9493  -23.2319  -13.1870 O   0  0  0  0  0  0  0  0  0  0  0  0
  1  2  1  0
  2  4  1  0
  2  3  2  0
  4  5  1  0
  6  5  1  0
  7  6  1  0
  8  7  1  0
  8  9  1  1
 10  8  1  0
 11 10  2  0
 13 12  1  0
 14 13  1  1
 14 16  1  0
 14 15  1  0
 15 10  1  0
 16 18  1  0
 17 16  2  0
 18 19  1  0
 19 27  1  0
 20 21  1  0
 19 20  1  6
 21 26  2  0
 22 23  2  0
 22 21  1  0
 23 24  1  0
 24 25  2  0
 26 25  1  0
 27 29  2  0
 27 28  1  0
M  END
$$$$
