VLI.pdb
     RDKit          3D

 24 23  0  0  1  0  0  0  0  0999 V2000
   21.0063  -23.2561  -14.6692 C   0  0  0  0  0  0  0  0  0  0  0  0
   20.1165  -22.4452  -13.7889 C   0  0  2  0  0  0  0  0  0  0  0  0
   19.6266  -21.2106  -14.5303 C   0  0  0  0  0  0  0  0  0  0  0  0
   20.7506  -21.9991  -12.5090 C   0  0  2  0  0  0  0  0  0  0  0  0
   19.7553  -21.4059  -11.6554 N   0  0  0  0  0  0  0  0  0  0  0  0
   21.8631  -21.0607  -12.6843 C   0  0  0  0  0  0  0  0  0  0  0  0
   21.6583  -19.8066  -12.7878 O   0  0  0  0  0  0  0  0  0  0  0  0
   26.7204  -21.7228  -10.2850 C   0  0  0  0  0  0  0  0  0  0  0  0
   25.4020  -21.1864  -10.8305 C   0  0  1  0  0  0  0  0  0  0  0  0
   25.2171  -19.8128  -10.1859 C   0  0  0  0  0  0  0  0  0  0  0  0
   25.5549  -21.0269  -12.3127 C   0  0  0  0  0  0  0  0  0  0  0  0
   24.3101  -20.5413  -12.9933 C   0  0  2  0  0  0  0  0  0  0  0  0
   23.2277  -21.4646  -12.7513 N   0  0  0  0  0  0  0  0  0  0  0  0
   24.6140  -20.4286  -14.4567 C   0  0  0  0  0  0  0  0  0  0  0  0
   24.7542  -21.4497  -15.1772 O   0  0  0  0  0  0  0  0  0  0  0  0
   21.9005  -17.0240  -17.5886 C   0  0  0  0  0  0  0  0  0  0  0  0
   22.6900  -18.2185  -17.0631 C   0  0  0  0  0  0  0  0  0  0  0  0
   24.1510  -17.9898  -17.1615 C   0  0  2  0  0  0  0  0  0  0  0  0
   24.5529  -17.9254  -18.6394 C   0  0  0  0  0  0  0  0  0  0  0  0
   25.0283  -19.0027  -16.5134 C   0  0  2  0  0  0  0  0  0  0  0  0
   24.7583  -19.1709  -15.1001 N   0  0  0  0  0  0  0  0  0  0  0  0
   26.4717  -18.8718  -16.8006 C   0  0  0  0  0  0  0  0  0  0  0  0
   27.2557  -18.1497  -16.1494 O   0  0  0  0  0  0  0  0  0  0  0  0
   27.0634  -19.5811  -17.8646 O   0  0  0  0  0  0  0  0  0  0  0  0
  2  1  1  6
  2  3  1  0
  4  2  1  0
  4  5  1  1
  6  4  1  0
  6  7  2  0
  9 11  1  0
  9  8  1  1
 10  9  1  0
 12 11  1  1
 12 13  1  0
 13  6  1  0
 14 12  1  0
 15 14  2  0
 16 17  1  0
 17 18  1  0
 18 20  1  0
 18 19  1  6
 20 21  1  1
 20 22  1  0
 21 14  1  0
 22 24  1  0
 23 22  2  0
M  END
$$$$
