VLI.pdb
     RDKit          3D

 24 23  0  0  1  0  0  0  0  0999 V2000
   26.4652  -19.5907  -15.0158 C   0  0  0  0  0  0  0  0  0  0  0  0
   27.5554  -19.1689  -14.0897 C   0  0  2  0  0  0  0  0  0  0  0  0
   28.6826  -18.5096  -14.8698 C   0  0  0  0  0  0  0  0  0  0  0  0
   28.1402  -20.2793  -13.2746 C   0  0  2  0  0  0  0  0  0  0  0  0
   28.6588  -21.3000  -14.1465 N   0  0  0  0  0  0  0  0  0  0  0  0
   27.2041  -20.8830  -12.3216 C   0  0  0  0  0  0  0  0  0  0  0  0
   26.5449  -21.9329  -12.6193 O   0  0  0  0  0  0  0  0  0  0  0  0
   27.1706  -19.2601   -6.9877 C   0  0  0  0  0  0  0  0  0  0  0  0
   27.2091  -20.1137   -8.2499 C   0  0  1  0  0  0  0  0  0  0  0  0
   27.4454  -21.5463   -7.7721 C   0  0  0  0  0  0  0  0  0  0  0  0
   25.8636  -20.0197   -8.9031 C   0  0  0  0  0  0  0  0  0  0  0  0
   25.7981  -20.7003  -10.2376 C   0  0  2  0  0  0  0  0  0  0  0  0
   26.9619  -20.3582  -11.0194 N   0  0  0  0  0  0  0  0  0  0  0  0
   24.5371  -20.2481  -10.9101 C   0  0  0  0  0  0  0  0  0  0  0  0
   24.3062  -19.0296  -11.1180 O   0  0  0  0  0  0  0  0  0  0  0  0
   23.4561  -21.5560  -15.6963 C   0  0  0  0  0  0  0  0  0  0  0  0
   23.4923  -20.8696  -14.3347 C   0  0  0  0  0  0  0  0  0  0  0  0
   22.3540  -21.2904  -13.4839 C   0  0  2  0  0  0  0  0  0  0  0  0
   21.0436  -20.8217  -14.1267 C   0  0  0  0  0  0  0  0  0  0  0  0
   22.3540  -20.7958  -12.0800 C   0  0  2  0  0  0  0  0  0  0  0  0
   23.5452  -21.1670  -11.3440 N   0  0  0  0  0  0  0  0  0  0  0  0
   21.1157  -21.0507  -11.3152 C   0  0  0  0  0  0  0  0  0  0  0  0
   20.9015  -22.0846  -10.6480 O   0  0  0  0  0  0  0  0  0  0  0  0
   20.0708  -20.1056  -11.2971 O   0  0  0  0  0  0  0  0  0  0  0  0
  2  1  1  6
  2  3  1  0
  4  2  1  0
  4  5  1  6
  6  4  1  0
  6  7  2  0
  9 11  1  0
  9  8  1  1
 10  9  1  0
 12 11  1  1
 12 13  1  0
 13  6  1  0
 14 12  1  0
 15 14  2  0
 16 17  1  0
 17 18  1  0
 18 20  1  0
 18 19  1  6
 20 21  1  1
 20 22  1  0
 21 14  1  0
 22 24  1  0
 23 22  2  0
M  END
$$$$
