VLI.pdb
     RDKit          3D

 24 23  0  0  1  0  0  0  0  0999 V2000
   24.5430  -19.9378  -14.4012 C   0  0  0  0  0  0  0  0  0  0  0  0
   24.3772  -20.5128  -13.0351 C   0  0  2  0  0  0  0  0  0  0  0  0
   23.2174  -19.8389  -12.3178 C   0  0  0  0  0  0  0  0  0  0  0  0
   25.5900  -20.4032  -12.1653 C   0  0  2  0  0  0  0  0  0  0  0  0
   26.7124  -21.0246  -12.8174 N   0  0  0  0  0  0  0  0  0  0  0  0
   25.4244  -20.9793  -10.8275 C   0  0  0  0  0  0  0  0  0  0  0  0
   25.3055  -22.2377  -10.6611 O   0  0  0  0  0  0  0  0  0  0  0  0
   27.5263  -18.5979   -6.4150 C   0  0  0  0  0  0  0  0  0  0  0  0
   27.1064  -19.6226   -7.4625 C   0  0  1  0  0  0  0  0  0  0  0  0
   27.9195  -20.8806   -7.1583 C   0  0  0  0  0  0  0  0  0  0  0  0
   25.6491  -19.9078   -7.2603 C   0  0  0  0  0  0  0  0  0  0  0  0
   25.0488  -20.7506   -8.3456 C   0  0  2  0  0  0  0  0  0  0  0  0
   25.3841  -20.1989   -9.6362 N   0  0  0  0  0  0  0  0  0  0  0  0
   23.5657  -20.7704   -8.1295 C   0  0  0  0  0  0  0  0  0  0  0  0
   22.8623  -19.7455   -8.3195 O   0  0  0  0  0  0  0  0  0  0  0  0
   20.0719  -22.4386  -11.0138 C   0  0  0  0  0  0  0  0  0  0  0  0
   20.7747  -21.7313   -9.8596 C   0  0  0  0  0  0  0  0  0  0  0  0
   20.6761  -22.5117   -8.6035 C   0  0  2  0  0  0  0  0  0  0  0  0
   19.2091  -22.5750   -8.1630 C   0  0  0  0  0  0  0  0  0  0  0  0
   21.4598  -22.0068   -7.4432 C   0  0  2  0  0  0  0  0  0  0  0  0
   22.8836  -21.9401   -7.7017 N   0  0  0  0  0  0  0  0  0  0  0  0
   21.1512  -22.6382   -6.1434 C   0  0  0  0  0  0  0  0  0  0  0  0
   20.0719  -22.4960   -5.5310 O   0  0  0  0  0  0  0  0  0  0  0  0
   22.0936  -23.4655   -5.5007 O   0  0  0  0  0  0  0  0  0  0  0  0
  2  1  1  6
  2  3  1  0
  4  2  1  0
  4  5  1  6
  6  4  1  0
  6  7  2  0
  9 11  1  0
  9  8  1  1
 10  9  1  0
 12 11  1  1
 12 13  1  0
 13  6  1  0
 14 12  1  0
 15 14  2  0
 16 17  1  0
 17 18  1  0
 18 20  1  0
 18 19  1  1
 20 21  1  6
 20 22  1  0
 21 14  1  0
 22 24  1  0
 23 22  2  0
M  END
$$$$
