VLI.pdb
     RDKit          3D

 24 23  0  0  1  0  0  0  0  0999 V2000
   32.3998  -35.5021  -17.6739 C   0  0  0  0  0  0  0  0  0  0  0  0
   31.9029  -34.1037  -17.8216 C   0  0  2  0  0  0  0  0  0  0  0  0
   30.5184  -34.1013  -18.4518 C   0  0  0  0  0  0  0  0  0  0  0  0
   32.7878  -33.2146  -18.6374 C   0  0  2  0  0  0  0  0  0  0  0  0
   34.0088  -32.9559  -17.9210 N   0  0  0  0  0  0  0  0  0  0  0  0
   32.1706  -31.9418  -19.0225 C   0  0  0  0  0  0  0  0  0  0  0  0
   32.2163  -30.9268  -18.2524 O   0  0  0  0  0  0  0  0  0  0  0  0
   31.4296  -27.9196  -22.2051 C   0  0  0  0  0  0  0  0  0  0  0  0
   30.4057  -28.9861  -22.5761 C   0  0  1  0  0  0  0  0  0  0  0  0
   30.3320  -28.9740  -24.1028 C   0  0  0  0  0  0  0  0  0  0  0  0
   30.9378  -30.3079  -22.1115 C   0  0  0  0  0  0  0  0  0  0  0  0
   30.8777  -30.4870  -20.6240 C   0  0  2  0  0  0  0  0  0  0  0  0
   31.4876  -31.7422  -20.2568 N   0  0  0  0  0  0  0  0  0  0  0  0
   29.4334  -30.4451  -20.2254 C   0  0  0  0  0  0  0  0  0  0  0  0
   28.6533  -31.3957  -20.4884 O   0  0  0  0  0  0  0  0  0  0  0  0
   27.6044  -30.8558  -15.5547 C   0  0  0  0  0  0  0  0  0  0  0  0
   27.7312  -30.8008  -17.0737 C   0  0  0  0  0  0  0  0  0  0  0  0
   27.3737  -29.4625  -17.6005 C   0  0  2  0  0  0  0  0  0  0  0  0
   25.9190  -29.1480  -17.2331 C   0  0  0  0  0  0  0  0  0  0  0  0
   27.5051  -29.2691  -19.0705 C   0  0  2  0  0  0  0  0  0  0  0  0
   28.8757  -29.3367  -19.5347 N   0  0  0  0  0  0  0  0  0  0  0  0
   26.7770  -28.1105  -19.6279 C   0  0  0  0  0  0  0  0  0  0  0  0
   27.2674  -26.9695  -19.7611 O   0  0  0  0  0  0  0  0  0  0  0  0
   25.4400  -28.2353  -20.0548 O   0  0  0  0  0  0  0  0  0  0  0  0
  2  1  1  6
  2  3  1  0
  4  2  1  0
  4  5  1  1
  6  4  1  0
  6  7  2  0
  9 11  1  0
  9  8  1  6
 10  9  1  0
 12 11  1  6
 12 13  1  0
 13  6  1  0
 14 12  1  0
 15 14  2  0
 16 17  1  0
 17 18  1  0
 18 20  1  0
 18 19  1  6
 20 21  1  1
 20 22  1  0
 21 14  1  0
 22 24  1  0
 23 22  2  0
M  END
$$$$
