VLI.pdb
     RDKit          3D

 24 23  0  0  1  0  0  0  0  0999 V2000
   23.8837  -18.2838  -16.9497 C   0  0  0  0  0  0  0  0  0  0  0  0
   22.6459  -18.8887  -16.3785 C   0  0  2  0  0  0  0  0  0  0  0  0
   21.4821  -17.9166  -16.4978 C   0  0  0  0  0  0  0  0  0  0  0  0
   22.7628  -19.3020  -14.9451 C   0  0  2  0  0  0  0  0  0  0  0  0
   22.8202  -18.1339  -14.1065 N   0  0  0  0  0  0  0  0  0  0  0  0
   23.9145  -20.1629  -14.6596 C   0  0  0  0  0  0  0  0  0  0  0  0
   23.9845  -21.3473  -15.1262 O   0  0  0  0  0  0  0  0  0  0  0  0
   28.8919  -18.5206  -15.0489 C   0  0  0  0  0  0  0  0  0  0  0  0
   27.5671  -19.2745  -15.0424 C   0  0  1  0  0  0  0  0  0  0  0  0
   27.7030  -20.3568  -16.1132 C   0  0  0  0  0  0  0  0  0  0  0  0
   27.4171  -19.9178  -13.6972 C   0  0  0  0  0  0  0  0  0  0  0  0
   26.1124  -20.6353  -13.5199 C   0  0  2  0  0  0  0  0  0  0  0  0
   25.0197  -19.7555  -13.8582 N   0  0  0  0  0  0  0  0  0  0  0  0
   26.0343  -21.0769  -12.0896 C   0  0  0  0  0  0  0  0  0  0  0  0
   26.7549  -22.0099  -11.6518 O   0  0  0  0  0  0  0  0  0  0  0  0
   27.3384  -18.9424   -7.8024 C   0  0  0  0  0  0  0  0  0  0  0  0
   26.8959  -20.0076   -8.8002 C   0  0  0  0  0  0  0  0  0  0  0  0
   25.4329  -20.2367   -8.7373 C   0  0  2  0  0  0  0  0  0  0  0  0
   25.0944  -20.9817   -7.4410 C   0  0  0  0  0  0  0  0  0  0  0  0
   24.8319  -21.0117   -9.8570 C   0  0  2  0  0  0  0  0  0  0  0  0
   25.1483  -20.4680  -11.1619 N   0  0  0  0  0  0  0  0  0  0  0  0
   23.3967  -21.3314   -9.7116 C   0  0  0  0  0  0  0  0  0  0  0  0
   22.4961  -20.8723  -10.4453 O   0  0  0  0  0  0  0  0  0  0  0  0
   22.9502  -22.2038   -8.6993 O   0  0  0  0  0  0  0  0  0  0  0  0
  2  1  1  1
  2  3  1  0
  4  2  1  0
  4  5  1  1
  6  4  1  0
  6  7  2  0
  9 11  1  0
  9  8  1  1
 10  9  1  0
 12 11  1  1
 12 13  1  0
 13  6  1  0
 14 12  1  0
 15 14  2  0
 16 17  1  0
 17 18  1  0
 18 20  1  0
 18 19  1  1
 20 21  1  6
 20 22  1  0
 21 14  1  0
 22 24  1  0
 23 22  2  0
M  END
$$$$
