VLI.pdb
     RDKit          3D

 24 23  0  0  1  0  0  0  0  0999 V2000
   18.2264  -27.2614   -7.7948 C   0  0  0  0  0  0  0  0  0  0  0  0
   18.0375  -26.0165   -8.5939 C   0  0  2  0  0  0  0  0  0  0  0  0
   18.4876  -26.2397  -10.0297 C   0  0  0  0  0  0  0  0  0  0  0  0
   18.7613  -24.8210   -8.0591 C   0  0  2  0  0  0  0  0  0  0  0  0
   18.2670  -24.5020   -6.7457 N   0  0  0  0  0  0  0  0  0  0  0  0
   18.6738  -23.6331   -8.9137 C   0  0  0  0  0  0  0  0  0  0  0  0
   17.6137  -22.9259   -8.9538 O   0  0  0  0  0  0  0  0  0  0  0  0
   22.9482  -20.3504   -9.9029 C   0  0  0  0  0  0  0  0  0  0  0  0
   21.5509  -20.8629   -9.5739 C   0  0  1  0  0  0  0  0  0  0  0  0
   20.7531  -19.6346   -9.1368 C   0  0  0  0  0  0  0  0  0  0  0  0
   20.9623  -21.4189  -10.8350 C   0  0  0  0  0  0  0  0  0  0  0  0
   19.6193  -22.0561  -10.6377 C   0  0  2  0  0  0  0  0  0  0  0  0
   19.7391  -23.1851   -9.7468 N   0  0  0  0  0  0  0  0  0  0  0  0
   19.1199  -22.4766  -11.9869 C   0  0  0  0  0  0  0  0  0  0  0  0
   19.5699  -23.5003  -12.5622 O   0  0  0  0  0  0  0  0  0  0  0  0
   14.1837  -23.6129  -13.4229 C   0  0  0  0  0  0  0  0  0  0  0  0
   15.7054  -23.5206  -13.3779 C   0  0  0  0  0  0  0  0  0  0  0  0
   16.1981  -22.3188  -14.0916 C   0  0  2  0  0  0  0  0  0  0  0  0
   15.8335  -22.4292  -15.5765 C   0  0  0  0  0  0  0  0  0  0  0  0
   17.6612  -22.0548  -14.0189 C   0  0  2  0  0  0  0  0  0  0  0  0
   18.1195  -21.7451  -12.6800 N   0  0  0  0  0  0  0  0  0  0  0  0
   18.1892  -21.1134  -15.0280 C   0  0  0  0  0  0  0  0  0  0  0  0
   18.5333  -21.4409  -16.1832 O   0  0  0  0  0  0  0  0  0  0  0  0
   18.3387  -19.7444  -14.7299 O   0  0  0  0  0  0  0  0  0  0  0  0
  2  1  1  1
  2  3  1  0
  4  2  1  0
  4  5  1  1
  6  4  1  0
  6  7  2  0
  9 11  1  0
  9  8  1  6
 10  9  1  0
 12 11  1  6
 12 13  1  0
 13  6  1  0
 14 12  1  0
 15 14  2  0
 16 17  1  0
 17 18  1  0
 18 20  1  0
 18 19  1  6
 20 21  1  1
 20 22  1  0
 21 14  1  0
 22 24  1  0
 23 22  2  0
M  END
$$$$
