VLI.pdb
     RDKit          3D

 24 23  0  0  1  0  0  0  0  0999 V2000
   28.0616  -19.9217  -16.7929 C   0  0  0  0  0  0  0  0  0  0  0  0
   26.9291  -19.7038  -17.7385 C   0  0  2  0  0  0  0  0  0  0  0  0
   27.3103  -18.6693  -18.7864 C   0  0  0  0  0  0  0  0  0  0  0  0
   25.6557  -19.2615  -17.0887 C   0  0  2  0  0  0  0  0  0  0  0  0
   25.7850  -17.8983  -16.6460 N   0  0  0  0  0  0  0  0  0  0  0  0
   25.2319  -20.1004  -15.9636 C   0  0  0  0  0  0  0  0  0  0  0  0
   24.8724  -21.3105  -16.1417 O   0  0  0  0  0  0  0  0  0  0  0  0
   25.3320  -22.1740  -11.1050 C   0  0  0  0  0  0  0  0  0  0  0  0
   24.7553  -20.7641  -11.0507 C   0  0  1  0  0  0  0  0  0  0  0  0
   25.3079  -20.1413   -9.7688 C   0  0  0  0  0  0  0  0  0  0  0  0
   25.2785  -20.0132  -12.2374 C   0  0  0  0  0  0  0  0  0  0  0  0
   24.6507  -20.4311  -13.5334 C   0  0  2  0  0  0  0  0  0  0  0  0
   25.1890  -19.6422  -14.6153 N   0  0  0  0  0  0  0  0  0  0  0  0
   23.1708  -20.2343  -13.3988 C   0  0  0  0  0  0  0  0  0  0  0  0
   22.6865  -19.1292  -13.0446 O   0  0  0  0  0  0  0  0  0  0  0  0
   20.0787  -20.9594  -17.4197 C   0  0  0  0  0  0  0  0  0  0  0  0
   20.6451  -20.4949  -16.0819 C   0  0  0  0  0  0  0  0  0  0  0  0
   20.1700  -21.3465  -14.9658 C   0  0  2  0  0  0  0  0  0  0  0  0
   18.6618  -21.1425  -14.7824 C   0  0  0  0  0  0  0  0  0  0  0  0
   20.8064  -21.1210  -13.6392 C   0  0  2  0  0  0  0  0  0  0  0  0
   22.2462  -21.2792  -13.6626 N   0  0  0  0  0  0  0  0  0  0  0  0
   20.1792  -21.8286  -12.5038 C   0  0  0  0  0  0  0  0  0  0  0  0
   20.3157  -23.0486  -12.2735 O   0  0  0  0  0  0  0  0  0  0  0  0
   19.3627  -21.1391  -11.5855 O   0  0  0  0  0  0  0  0  0  0  0  0
  2  1  1  1
  2  3  1  0
  4  2  1  0
  4  5  1  1
  6  4  1  0
  6  7  2  0
  9 11  1  0
  9  8  1  6
 10  9  1  0
 12 11  1  1
 12 13  1  0
 13  6  1  0
 14 12  1  0
 15 14  2  0
 16 17  1  0
 17 18  1  0
 18 20  1  0
 18 19  1  1
 20 21  1  6
 20 22  1  0
 21 14  1  0
 22 24  1  0
 23 22  2  0
M  END
$$$$
