VLI.pdb
     RDKit          3D

 24 23  0  0  1  0  0  0  0  0999 V2000
   22.7865  -18.1528  -17.5054 C   0  0  0  0  0  0  0  0  0  0  0  0
   21.9517  -19.2732  -16.9839 C   0  0  2  0  0  0  0  0  0  0  0  0
   20.4838  -18.8746  -16.9729 C   0  0  0  0  0  0  0  0  0  0  0  0
   22.3203  -19.7322  -15.6081 C   0  0  2  0  0  0  0  0  0  0  0  0
   21.9439  -18.7308  -14.6455 N   0  0  0  0  0  0  0  0  0  0  0  0
   23.7403  -20.0567  -15.4428 C   0  0  0  0  0  0  0  0  0  0  0  0
   24.2479  -21.0926  -15.9856 O   0  0  0  0  0  0  0  0  0  0  0  0
   27.6081  -16.2107  -14.9735 C   0  0  0  0  0  0  0  0  0  0  0  0
   26.7598  -17.4189  -15.3531 C   0  0  1  0  0  0  0  0  0  0  0  0
   27.4129  -18.0049  -16.6047 C   0  0  0  0  0  0  0  0  0  0  0  0
   26.8510  -18.4085  -14.2313 C   0  0  0  0  0  0  0  0  0  0  0  0
   26.0177  -19.6361  -14.4479 C   0  0  2  0  0  0  0  0  0  0  0  0
   24.6440  -19.2606  -14.6816 N   0  0  0  0  0  0  0  0  0  0  0  0
   26.1490  -20.4891  -13.2224 C   0  0  0  0  0  0  0  0  0  0  0  0
   27.2425  -21.0279  -12.9133 O   0  0  0  0  0  0  0  0  0  0  0  0
   26.7567  -19.5687   -8.2536 C   0  0  0  0  0  0  0  0  0  0  0  0
   26.0420  -19.6646   -9.5975 C   0  0  0  0  0  0  0  0  0  0  0  0
   26.2314  -20.9963  -10.2198 C   0  0  2  0  0  0  0  0  0  0  0  0
   27.5213  -20.9870  -11.0481 C   0  0  0  0  0  0  0  0  0  0  0  0
   25.1412  -21.4744  -11.1133 C   0  0  2  0  0  0  0  0  0  0  0  0
   25.0523  -20.7309  -12.3534 N   0  0  0  0  0  0  0  0  0  0  0  0
   23.8241  -21.6571  -10.4691 C   0  0  0  0  0  0  0  0  0  0  0  0
   22.7698  -21.1109  -10.8567 O   0  0  0  0  0  0  0  0  0  0  0  0
   23.6815  -22.4884   -9.3404 O   0  0  0  0  0  0  0  0  0  0  0  0
  2  1  1  1
  2  3  1  0
  4  2  1  0
  4  5  1  1
  6  4  1  0
  6  7  2  0
  9 11  1  0
  9  8  1  1
 10  9  1  0
 12 11  1  1
 12 13  1  0
 13  6  1  0
 14 12  1  0
 15 14  2  0
 16 17  1  0
 17 18  1  0
 18 20  1  0
 18 19  1  6
 20 21  1  6
 20 22  1  0
 21 14  1  0
 22 24  1  0
 23 22  2  0
M  END
$$$$
