VLI.pdb
     RDKit          3D

 24 23  0  0  1  0  0  0  0  0999 V2000
   23.8217  -19.1875  -16.6369 C   0  0  0  0  0  0  0  0  0  0  0  0
   22.6309  -19.6561  -15.8709 C   0  0  2  0  0  0  0  0  0  0  0  0
   21.4489  -18.7313  -16.1184 C   0  0  0  0  0  0  0  0  0  0  0  0
   22.8442  -19.7545  -14.3930 C   0  0  2  0  0  0  0  0  0  0  0  0
   23.0390  -18.4392  -13.8424 N   0  0  0  0  0  0  0  0  0  0  0  0
   23.9645  -20.6160  -14.0033 C   0  0  0  0  0  0  0  0  0  0  0  0
   23.9500  -21.8674  -14.2464 O   0  0  0  0  0  0  0  0  0  0  0  0
   29.0384  -19.0257  -14.5076 C   0  0  0  0  0  0  0  0  0  0  0  0
   27.7079  -19.7690  -14.4828 C   0  0  1  0  0  0  0  0  0  0  0  0
   27.8618  -20.9236  -15.4726 C   0  0  0  0  0  0  0  0  0  0  0  0
   27.5192  -20.3168  -13.1007 C   0  0  0  0  0  0  0  0  0  0  0  0
   26.1997  -21.0012  -12.9039 C   0  0  2  0  0  0  0  0  0  0  0  0
   25.1296  -20.1360  -13.3384 N   0  0  0  0  0  0  0  0  0  0  0  0
   26.0778  -21.3296  -11.4465 C   0  0  0  0  0  0  0  0  0  0  0  0
   26.7796  -22.2286  -10.9166 O   0  0  0  0  0  0  0  0  0  0  0  0
   27.4934  -18.9081   -7.3876 C   0  0  0  0  0  0  0  0  0  0  0  0
   26.9875  -20.0224   -8.2979 C   0  0  0  0  0  0  0  0  0  0  0  0
   25.5145  -20.1643   -8.2158 C   0  0  2  0  0  0  0  0  0  0  0  0
   25.1376  -20.7219   -6.8384 C   0  0  0  0  0  0  0  0  0  0  0  0
   24.8727  -21.0410   -9.2331 C   0  0  2  0  0  0  0  0  0  0  0  0
   25.1694  -20.6467  -10.5951 N   0  0  0  0  0  0  0  0  0  0  0  0
   23.4352  -21.3117   -9.0244 C   0  0  0  0  0  0  0  0  0  0  0  0
   22.5265  -20.9080   -9.7804 O   0  0  0  0  0  0  0  0  0  0  0  0
   22.9959  -22.0679   -7.9197 O   0  0  0  0  0  0  0  0  0  0  0  0
  2  1  1  6
  2  3  1  0
  4  2  1  0
  4  5  1  6
  6  4  1  0
  6  7  2  0
  9 11  1  0
  9  8  1  1
 10  9  1  0
 12 11  1  1
 12 13  1  0
 13  6  1  0
 14 12  1  0
 15 14  2  0
 16 17  1  0
 17 18  1  0
 18 20  1  0
 18 19  1  1
 20 21  1  6
 20 22  1  0
 21 14  1  0
 22 24  1  0
 23 22  2  0
M  END
$$$$
