VLI.pdb
     RDKit          3D

 24 23  0  0  1  0  0  0  0  0999 V2000
   19.2690  -19.2050  -17.0950 C   0  0  0  0  0  0  0  0  0  0  0  0
   19.3465  -17.8871  -16.4012 C   0  0  2  0  0  0  0  0  0  0  0  0
   18.0636  -17.6237  -15.6275 C   0  0  0  0  0  0  0  0  0  0  0  0
   19.5908  -16.7226  -17.3087 C   0  0  2  0  0  0  0  0  0  0  0  0
   20.5442  -17.0892  -18.3224 N   0  0  0  0  0  0  0  0  0  0  0  0
   20.0517  -15.5119  -16.6224 C   0  0  0  0  0  0  0  0  0  0  0  0
   19.4030  -15.0233  -15.6395 O   0  0  0  0  0  0  0  0  0  0  0  0
   25.3835  -14.1551  -16.4893 C   0  0  0  0  0  0  0  0  0  0  0  0
   23.9533  -14.4210  -16.0341 C   0  0  1  0  0  0  0  0  0  0  0  0
   23.9822  -14.3303  -14.5085 C   0  0  0  0  0  0  0  0  0  0  0  0
   23.0904  -13.3261  -16.5840 C   0  0  0  0  0  0  0  0  0  0  0  0
   21.6240  -13.5577  -16.3734 C   0  0  2  0  0  0  0  0  0  0  0  0
   21.2313  -14.8023  -16.9893 N   0  0  0  0  0  0  0  0  0  0  0  0
   20.8951  -12.3960  -16.9783 C   0  0  0  0  0  0  0  0  0  0  0  0
   20.8529  -12.2256  -18.2235 O   0  0  0  0  0  0  0  0  0  0  0  0
   15.8206  -11.4930  -16.5280 C   0  0  0  0  0  0  0  0  0  0  0  0
   17.2561  -11.4505  -17.0416 C   0  0  0  0  0  0  0  0  0  0  0  0
   18.0283  -10.3567  -16.4059 C   0  0  2  0  0  0  0  0  0  0  0  0
   17.4316   -9.0084  -16.8253 C   0  0  0  0  0  0  0  0  0  0  0  0
   19.4841  -10.3049  -16.7118 C   0  0  2  0  0  0  0  0  0  0  0  0
   20.2193  -11.4346  -16.1810 N   0  0  0  0  0  0  0  0  0  0  0  0
   20.1486   -9.0159  -16.4289 C   0  0  0  0  0  0  0  0  0  0  0  0
   20.9139   -8.8163  -15.4622 O   0  0  0  0  0  0  0  0  0  0  0  0
   19.9468   -7.9006  -17.2660 O   0  0  0  0  0  0  0  0  0  0  0  0
  2  1  1  6
  2  3  1  0
  4  2  1  0
  4  5  1  6
  6  4  1  0
  6  7  2  0
  9 11  1  0
  9  8  1  6
 10  9  1  0
 12 11  1  6
 12 13  1  0
 13  6  1  0
 14 12  1  0
 15 14  2  0
 16 17  1  0
 17 18  1  0
 18 20  1  0
 18 19  1  6
 20 21  1  1
 20 22  1  0
 21 14  1  0
 22 24  1  0
 23 22  2  0
M  END
$$$$
