VLI.pdb
     RDKit          3D

 24 23  0  0  1  0  0  0  0  0999 V2000
   15.3556  -10.3379  -18.2066 C   0  0  0  0  0  0  0  0  0  0  0  0
   16.6378  -11.0862  -18.3483 C   0  0  2  0  0  0  0  0  0  0  0  0
   16.3997  -12.5773  -18.1643 C   0  0  0  0  0  0  0  0  0  0  0  0
   17.7103  -10.6643  -17.3938 C   0  0  2  0  0  0  0  0  0  0  0  0
   17.3773  -11.1041  -16.0646 N   0  0  0  0  0  0  0  0  0  0  0  0
   17.9679   -9.2212  -17.3786 C   0  0  0  0  0  0  0  0  0  0  0  0
   18.4315   -8.6229  -18.4045 O   0  0  0  0  0  0  0  0  0  0  0  0
   18.0125   -4.3629  -17.5170 C   0  0  0  0  0  0  0  0  0  0  0  0
   17.2213   -4.6650  -16.2497 C   0  0  1  0  0  0  0  0  0  0  0  0
   15.9264   -3.8618  -16.3703 C   0  0  0  0  0  0  0  0  0  0  0  0
   16.9035   -6.1296  -16.2508 C   0  0  0  0  0  0  0  0  0  0  0  0
   18.1192   -7.0051  -16.1874 C   0  0  2  0  0  0  0  0  0  0  0  0
   17.7270   -8.3926  -16.2449 N   0  0  0  0  0  0  0  0  0  0  0  0
   18.8307   -6.6921  -14.9058 C   0  0  0  0  0  0  0  0  0  0  0  0
   18.2719   -6.8510  -13.7905 O   0  0  0  0  0  0  0  0  0  0  0  0
   23.0111   -9.5195  -12.6015 C   0  0  0  0  0  0  0  0  0  0  0  0
   22.5070   -8.0808  -12.5550 C   0  0  0  0  0  0  0  0  0  0  0  0
   21.6640   -7.7623  -13.7316 C   0  0  2  0  0  0  0  0  0  0  0  0
   22.4888   -7.9536  -15.0096 C   0  0  0  0  0  0  0  0  0  0  0  0
   21.0864   -6.3915  -13.7849 C   0  0  2  0  0  0  0  0  0  0  0  0
   20.1638   -6.2032  -14.8858 N   0  0  0  0  0  0  0  0  0  0  0  0
   22.0595   -5.2857  -13.6687 C   0  0  0  0  0  0  0  0  0  0  0  0
   22.4190   -4.5622  -14.6213 O   0  0  0  0  0  0  0  0  0  0  0  0
   22.6568   -4.9766  -12.4306 O   0  0  0  0  0  0  0  0  0  0  0  0
  2  1  1  1
  2  3  1  0
  4  2  1  0
  4  5  1  1
  6  4  1  0
  6  7  2  0
  9 11  1  0
  9  8  1  6
 10  9  1  0
 12 11  1  1
 12 13  1  0
 13  6  1  0
 14 12  1  0
 15 14  2  0
 16 17  1  0
 17 18  1  0
 18 20  1  0
 18 19  1  6
 20 21  1  6
 20 22  1  0
 21 14  1  0
 22 24  1  0
 23 22  2  0
M  END
$$$$
