VLI.pdb
     RDKit          3D

 24 23  0  0  1  0  0  0  0  0999 V2000
   13.8752  -11.9657  -15.7791 C   0  0  0  0  0  0  0  0  0  0  0  0
   14.4696  -11.2074  -14.6407 C   0  0  2  0  0  0  0  0  0  0  0  0
   14.2465   -9.7146  -14.8294 C   0  0  0  0  0  0  0  0  0  0  0  0
   15.9345  -11.4380  -14.4402 C   0  0  2  0  0  0  0  0  0  0  0  0
   16.1640  -12.8109  -14.0747 N   0  0  0  0  0  0  0  0  0  0  0  0
   16.5503  -10.5591  -13.4414 C   0  0  0  0  0  0  0  0  0  0  0  0
   16.3972  -10.7697  -12.1934 O   0  0  0  0  0  0  0  0  0  0  0  0
   20.4695   -7.7061  -11.3149 C   0  0  0  0  0  0  0  0  0  0  0  0
   19.7896   -6.9075  -12.4209 C   0  0  1  0  0  0  0  0  0  0  0  0
   20.9131   -6.1652  -13.1443 C   0  0  0  0  0  0  0  0  0  0  0  0
   19.1503   -7.8850  -13.3599 C   0  0  0  0  0  0  0  0  0  0  0  0
   17.9418   -8.5624  -12.7860 C   0  0  2  0  0  0  0  0  0  0  0  0
   17.3488   -9.4279  -13.7768 N   0  0  0  0  0  0  0  0  0  0  0  0
   16.9872   -7.4890  -12.3579 C   0  0  0  0  0  0  0  0  0  0  0  0
   16.3448   -6.8100  -13.1991 O   0  0  0  0  0  0  0  0  0  0  0  0
   12.8999   -6.6578   -7.9712 C   0  0  0  0  0  0  0  0  0  0  0  0
   13.8336   -5.9139   -8.9204 C   0  0  0  0  0  0  0  0  0  0  0  0
   14.9059   -6.7996   -9.4327 C   0  0  2  0  0  0  0  0  0  0  0  0
   15.8326   -7.1906   -8.2758 C   0  0  0  0  0  0  0  0  0  0  0  0
   15.7660   -6.2464  -10.5142 C   0  0  2  0  0  0  0  0  0  0  0  0
   16.7609   -7.1860  -10.9891 N   0  0  0  0  0  0  0  0  0  0  0  0
   16.3333   -4.9071  -10.2542 C   0  0  0  0  0  0  0  0  0  0  0  0
   17.5394   -4.6887  -10.0139 O   0  0  0  0  0  0  0  0  0  0  0  0
   15.5132   -3.7613  -10.2635 O   0  0  0  0  0  0  0  0  0  0  0  0
  2  1  1  6
  2  3  1  0
  4  2  1  0
  4  5  1  1
  6  4  1  0
  6  7  2  0
  9 11  1  0
  9  8  1  1
 10  9  1  0
 12 11  1  6
 12 13  1  0
 13  6  1  0
 14 12  1  0
 15 14  2  0
 16 17  1  0
 17 18  1  0
 18 20  1  0
 18 19  1  1
 20 21  1  1
 20 22  1  0
 21 14  1  0
 22 24  1  0
 23 22  2  0
M  END
$$$$
