VLI.pdb
     RDKit          3D

 24 23  0  0  1  0  0  0  0  0999 V2000
   19.3017  -13.6367  -18.9435 C   0  0  0  0  0  0  0  0  0  0  0  0
   19.6947  -12.8055  -17.7692 C   0  0  2  0  0  0  0  0  0  0  0  0
   18.4794  -12.5103  -16.9034 C   0  0  0  0  0  0  0  0  0  0  0  0
   20.3437  -11.5038  -18.1208 C   0  0  2  0  0  0  0  0  0  0  0  0
   21.3537  -11.7204  -19.1228 N   0  0  0  0  0  0  0  0  0  0  0  0
   20.9341  -10.7988  -16.9792 C   0  0  0  0  0  0  0  0  0  0  0  0
   20.2639  -10.5886  -15.9152 O   0  0  0  0  0  0  0  0  0  0  0  0
   26.3201  -10.9925  -15.8310 C   0  0  0  0  0  0  0  0  0  0  0  0
   24.7991  -11.0285  -15.7373 C   0  0  1  0  0  0  0  0  0  0  0  0
   24.4843  -11.5501  -14.3354 C   0  0  0  0  0  0  0  0  0  0  0  0
   24.3023   -9.6209  -15.8705 C   0  0  0  0  0  0  0  0  0  0  0  0
   22.8068   -9.5138  -15.8860 C   0  0  2  0  0  0  0  0  0  0  0  0
   22.2703  -10.3044  -16.9675 N   0  0  0  0  0  0  0  0  0  0  0  0
   22.4627   -8.0638  -16.0475 C   0  0  0  0  0  0  0  0  0  0  0  0
   22.6448   -7.4649  -17.1381 O   0  0  0  0  0  0  0  0  0  0  0  0
   17.9927   -5.9471  -16.4441 C   0  0  0  0  0  0  0  0  0  0  0  0
   19.5028   -6.1611  -16.4606 C   0  0  0  0  0  0  0  0  0  0  0  0
   20.1407   -5.6257  -15.2346 C   0  0  2  0  0  0  0  0  0  0  0  0
   19.9484   -4.1055  -15.1889 C   0  0  0  0  0  0  0  0  0  0  0  0
   21.5970   -5.8874  -15.0736 C   0  0  2  0  0  0  0  0  0  0  0  0
   21.9170   -7.2974  -14.9839 N   0  0  0  0  0  0  0  0  0  0  0  0
   22.2765   -5.0873  -14.0337 C   0  0  0  0  0  0  0  0  0  0  0  0
   22.4165   -5.4499  -12.8467 O   0  0  0  0  0  0  0  0  0  0  0  0
   22.8234   -3.8246  -14.3368 O   0  0  0  0  0  0  0  0  0  0  0  0
  2  1  1  6
  2  3  1  0
  4  2  1  0
  4  5  1  6
  6  4  1  0
  6  7  2  0
  9 11  1  0
  9  8  1  1
 10  9  1  0
 12 11  1  6
 12 13  1  0
 13  6  1  0
 14 12  1  0
 15 14  2  0
 16 17  1  0
 17 18  1  0
 18 20  1  0
 18 19  1  6
 20 21  1  1
 20 22  1  0
 21 14  1  0
 22 24  1  0
 23 22  2  0
M  END
$$$$
