VLI.pdb
     RDKit          3D

 24 23  0  0  1  0  0  0  0  0999 V2000
   22.1375  -18.9469  -15.4149 C   0  0  0  0  0  0  0  0  0  0  0  0
   23.1926  -18.3850  -16.3067 C   0  0  2  0  0  0  0  0  0  0  0  0
   22.5571  -17.7064  -17.5106 C   0  0  0  0  0  0  0  0  0  0  0  0
   24.1814  -19.3907  -16.8067 C   0  0  2  0  0  0  0  0  0  0  0  0
   23.5193  -20.3366  -17.6658 N   0  0  0  0  0  0  0  0  0  0  0  0
   24.8940  -20.1113  -15.7475 C   0  0  0  0  0  0  0  0  0  0  0  0
   24.4375  -21.2012  -15.2688 O   0  0  0  0  0  0  0  0  0  0  0  0
   30.3633  -19.7669  -15.1447 C   0  0  0  0  0  0  0  0  0  0  0  0
   28.9421  -20.3023  -15.2752 C   0  0  1  0  0  0  0  0  0  0  0  0
   29.0814  -21.8206  -15.3833 C   0  0  0  0  0  0  0  0  0  0  0  0
   28.2086  -19.9557  -14.0151 C   0  0  0  0  0  0  0  0  0  0  0  0
   26.7517  -20.3081  -14.0553 C   0  0  2  0  0  0  0  0  0  0  0  0
   26.1226  -19.6629  -15.1824 N   0  0  0  0  0  0  0  0  0  0  0  0
   26.1454  -19.8575  -12.7607 C   0  0  0  0  0  0  0  0  0  0  0  0
   25.9968  -18.6370  -12.4966 O   0  0  0  0  0  0  0  0  0  0  0  0
   21.3850  -20.7690  -11.3734 C   0  0  0  0  0  0  0  0  0  0  0  0
   22.8081  -20.2360  -11.5025 C   0  0  0  0  0  0  0  0  0  0  0  0
   23.6748  -20.7302  -10.4065 C   0  0  2  0  0  0  0  0  0  0  0  0
   23.1729  -20.1651   -9.0728 C   0  0  0  0  0  0  0  0  0  0  0  0
   25.1232  -20.4012  -10.5036 C   0  0  2  0  0  0  0  0  0  0  0  0
   25.7107  -20.7799  -11.7724 N   0  0  0  0  0  0  0  0  0  0  0  0
   25.9495  -20.8187   -9.3520 C   0  0  0  0  0  0  0  0  0  0  0  0
   26.3916  -21.9751   -9.1861 O   0  0  0  0  0  0  0  0  0  0  0  0
   26.2959  -19.9002   -8.3412 O   0  0  0  0  0  0  0  0  0  0  0  0
  2  1  1  6
  2  3  1  0
  4  2  1  0
  4  5  1  1
  6  4  1  0
  6  7  2  0
  9 11  1  0
  9  8  1  1
 10  9  1  0
 12 11  1  1
 12 13  1  0
 13  6  1  0
 14 12  1  0
 15 14  2  0
 16 17  1  0
 17 18  1  0
 18 20  1  0
 18 19  1  1
 20 21  1  6
 20 22  1  0
 21 14  1  0
 22 24  1  0
 23 22  2  0
M  END
$$$$
