VLI.pdb
     RDKit          3D

 24 23  0  0  1  0  0  0  0  0999 V2000
   23.4480  -19.4539  -15.8940 C   0  0  0  0  0  0  0  0  0  0  0  0
   22.5027  -19.9749  -14.8648 C   0  0  2  0  0  0  0  0  0  0  0  0
   21.2289  -19.1434  -14.8516 C   0  0  0  0  0  0  0  0  0  0  0  0
   23.0548  -20.0037  -13.4743 C   0  0  2  0  0  0  0  0  0  0  0  0
   23.1695  -18.6608  -12.9698 N   0  0  0  0  0  0  0  0  0  0  0  0
   24.3499  -20.6803  -13.3555 C   0  0  0  0  0  0  0  0  0  0  0  0
   24.4880  -21.9036  -13.6870 O   0  0  0  0  0  0  0  0  0  0  0  0
   28.9616  -18.7268  -15.0180 C   0  0  0  0  0  0  0  0  0  0  0  0
   27.7695  -19.5944  -14.6312 C   0  0  1  0  0  0  0  0  0  0  0  0
   27.8896  -20.8617  -15.4774 C   0  0  0  0  0  0  0  0  0  0  0  0
   27.9145  -19.9454  -13.1814 C   0  0  0  0  0  0  0  0  0  0  0  0
   26.7665  -20.7455  -12.6424 C   0  0  2  0  0  0  0  0  0  0  0  0
   25.5281  -20.0414  -12.8724 N   0  0  0  0  0  0  0  0  0  0  0  0
   27.0125  -20.9524  -11.1784 C   0  0  0  0  0  0  0  0  0  0  0  0
   28.0142  -21.5912  -10.7662 O   0  0  0  0  0  0  0  0  0  0  0  0
   28.2499  -19.4025   -5.8584 C   0  0  0  0  0  0  0  0  0  0  0  0
   27.2813  -20.3439   -6.5668 C   0  0  0  0  0  0  0  0  0  0  0  0
   27.0627  -19.9389   -7.9757 C   0  0  2  0  0  0  0  0  0  0  0  0
   26.4615  -18.5291   -8.0076 C   0  0  0  0  0  0  0  0  0  0  0  0
   26.1730  -20.8123   -8.7887 C   0  0  2  0  0  0  0  0  0  0  0  0
   26.1324  -20.4408  -10.1883 N   0  0  0  0  0  0  0  0  0  0  0  0
   24.8263  -21.0475   -8.2280 C   0  0  0  0  0  0  0  0  0  0  0  0
   24.6073  -21.4118   -7.0535 O   0  0  0  0  0  0  0  0  0  0  0  0
   23.6736  -20.8668   -9.0179 O   0  0  0  0  0  0  0  0  0  0  0  0
  2  1  1  6
  2  3  1  0
  4  2  1  0
  4  5  1  6
  6  4  1  0
  6  7  2  0
  9 11  1  0
  9  8  1  6
 10  9  1  0
 12 11  1  1
 12 13  1  0
 13  6  1  0
 14 12  1  0
 15 14  2  0
 16 17  1  0
 17 18  1  0
 18 20  1  0
 18 19  1  1
 20 21  1  6
 20 22  1  0
 21 14  1  0
 22 24  1  0
 23 22  2  0
M  END
$$$$
