HMF.pdb
     RDKit          3D

 30 31  0  0  1  0  0  0  0  0999 V2000
    9.0415  -18.4793   19.7617 N   0  0  0  0  0  0  0  0  0  0  0  0
   10.2836  -17.7551   19.9804 C   0  0  1  0  0  0  0  0  0  0  0  0
   10.9517  -17.4034   18.6902 C   0  0  0  0  0  0  0  0  0  0  0  0
   10.9330  -18.4617   17.6608 C   0  0  0  0  0  0  0  0  0  0  0  0
   11.3465  -19.7452   17.8836 C   0  0  0  0  0  0  0  0  0  0  0  0
   11.1970  -20.4246   16.7346 N   0  0  0  0  0  0  0  0  0  0  0  0
   10.7072  -19.5801   15.8328 C   0  0  0  0  0  0  0  0  0  0  0  0
   10.5409  -18.3806   16.3900 N   0  0  0  0  0  0  0  0  0  0  0  0
   10.1120  -16.6427   20.9279 C   0  0  0  0  0  0  0  0  0  0  0  0
   11.1225  -15.9554   21.2207 O   0  0  0  0  0  0  0  0  0  0  0  0
    7.1925  -11.8964   18.4867 C   0  0  0  0  0  0  0  0  0  0  0  0
    7.4019  -12.0923   20.2877 S   0  0  0  0  0  0  0  0  0  0  0  0
    8.1102  -13.7495   20.6553 C   0  0  0  0  0  0  0  0  0  0  0  0
    8.1834  -13.9683   22.1392 C   0  0  0  0  0  0  0  0  0  0  0  0
    8.7620  -15.2682   22.5492 C   0  0  2  0  0  0  0  0  0  0  0  0
    8.8778  -16.2901   21.5329 N   0  0  0  0  0  0  0  0  0  0  0  0
    8.1629  -15.7598   23.7791 C   0  0  0  0  0  0  0  0  0  0  0  0
    7.0303  -15.3858   24.1283 O   0  0  0  0  0  0  0  0  0  0  0  0
    8.8130  -16.6795   24.6659 N   0  0  0  0  0  0  0  0  0  0  0  0
    9.3096  -16.2544   25.9277 C   0  0  1  0  0  0  0  0  0  0  0  0
    8.2938  -15.8152   26.9041 C   0  0  0  0  0  0  0  0  0  0  0  0
    7.8270  -14.4170   26.7658 C   0  0  0  0  0  0  0  0  0  0  0  0
    6.5250  -14.2077   26.2885 C   0  0  0  0  0  0  0  0  0  0  0  0
    5.9987  -12.9355   26.1250 C   0  0  0  0  0  0  0  0  0  0  0  0
    6.7632  -11.8315   26.4311 C   0  0  0  0  0  0  0  0  0  0  0  0
    8.0396  -12.0159   26.8985 C   0  0  0  0  0  0  0  0  0  0  0  0
    8.5550  -13.2886   27.0607 C   0  0  0  0  0  0  0  0  0  0  0  0
   10.0295  -17.4070   26.6287 C   0  0  0  0  0  0  0  0  0  0  0  0
   10.0661  -18.6474   26.0745 O   0  0  0  0  0  0  0  0  0  0  0  0
   10.5639  -17.1298   27.7059 O   0  0  0  0  0  0  0  0  0  0  0  0
  2  1  1  6
  2  9  1  0
  3  2  1  0
  3  4  1  0
  4  5  2  0
  4  8  1  0
  5  6  1  0
  6  7  1  0
  8  7  2  0
  9 10  2  0
 11 12  1  0
 13 12  1  0
 13 14  1  0
 15 14  1  6
 15 17  1  0
 16  9  1  0
 16 15  1  0
 17 18  2  0
 19 20  1  0
 19 17  1  0
 20 21  1  1
 21 22  1  0
 22 23  2  0
 23 24  1  0
 25 24  2  0
 26 25  1  0
 27 26  2  0
 27 22  1  0
 28 20  1  0
 28 29  1  0
 30 28  2  0
M  END
$$$$
