HMF.pdb
     RDKit          3D

 30 31  0  0  1  0  0  0  0  0999 V2000
    9.0115  -16.7269   18.9209 N   0  0  0  0  0  0  0  0  0  0  0  0
    8.3718  -17.2115   20.1337 C   0  0  1  0  0  0  0  0  0  0  0  0
    8.3796  -18.7047   20.2029 C   0  0  0  0  0  0  0  0  0  0  0  0
    7.6875  -19.3914   19.0942 C   0  0  0  0  0  0  0  0  0  0  0  0
    6.4205  -19.0847   18.6839 C   0  0  0  0  0  0  0  0  0  0  0  0
    6.1134  -19.9066   17.6667 N   0  0  0  0  0  0  0  0  0  0  0  0
    7.1628  -20.6958   17.4612 C   0  0  0  0  0  0  0  0  0  0  0  0
    8.1288  -20.3869   18.3262 N   0  0  0  0  0  0  0  0  0  0  0  0
    8.8710  -16.5199   21.3326 C   0  0  0  0  0  0  0  0  0  0  0  0
   10.0923  -16.2280   21.3803 O   0  0  0  0  0  0  0  0  0  0  0  0
    6.7321  -12.5218   26.5775 C   0  0  0  0  0  0  0  0  0  0  0  0
    5.9186  -12.7065   24.9558 S   0  0  0  0  0  0  0  0  0  0  0  0
    7.0342  -13.5998   23.7980 C   0  0  0  0  0  0  0  0  0  0  0  0
    7.6659  -14.7763   24.4853 C   0  0  0  0  0  0  0  0  0  0  0  0
    8.5989  -15.5612   23.6451 C   0  0  2  0  0  0  0  0  0  0  0  0
    8.0630  -16.1561   22.4411 N   0  0  0  0  0  0  0  0  0  0  0  0
    9.3801  -16.4962   24.4380 C   0  0  0  0  0  0  0  0  0  0  0  0
    9.1545  -17.7172   24.3861 O   0  0  0  0  0  0  0  0  0  0  0  0
   10.4346  -16.0976   25.3234 N   0  0  0  0  0  0  0  0  0  0  0  0
   11.2041  -17.0623   26.0282 C   0  0  1  0  0  0  0  0  0  0  0  0
   12.1074  -16.5306   27.0671 C   0  0  0  0  0  0  0  0  0  0  0  0
   11.4801  -15.6526   28.0808 C   0  0  0  0  0  0  0  0  0  0  0  0
   11.1131  -14.3580   27.6858 C   0  0  0  0  0  0  0  0  0  0  0  0
   10.5198  -13.4633   28.5632 C   0  0  0  0  0  0  0  0  0  0  0  0
   10.2792  -13.8370   29.8668 C   0  0  0  0  0  0  0  0  0  0  0  0
   10.6320  -15.0991   30.2722 C   0  0  0  0  0  0  0  0  0  0  0  0
   11.2210  -15.9854   29.3894 C   0  0  0  0  0  0  0  0  0  0  0  0
   10.2851  -18.0213   26.7858 C   0  0  0  0  0  0  0  0  0  0  0  0
    8.9564  -17.7639   26.9091 O   0  0  0  0  0  0  0  0  0  0  0  0
   10.8285  -19.0227   27.2602 O   0  0  0  0  0  0  0  0  0  0  0  0
  2  1  1  6
  2  9  1  0
  3  2  1  0
  3  4  1  0
  4  5  2  0
  4  8  1  0
  5  6  1  0
  6  7  1  0
  8  7  2  0
  9 10  2  0
 11 12  1  0
 13 12  1  0
 13 14  1  0
 15 14  1  1
 15 17  1  0
 16  9  1  0
 16 15  1  0
 17 18  2  0
 19 20  1  0
 19 17  1  0
 20 21  1  1
 21 22  1  0
 22 23  2  0
 23 24  1  0
 25 24  2  0
 26 25  1  0
 27 26  2  0
 27 22  1  0
 28 20  1  0
 28 29  1  0
 30 28  2  0
M  END
$$$$
