HMF.pdb
     RDKit          3D

 30 31  0  0  1  0  0  0  0  0999 V2000
    9.0977  -17.6150   19.2626 N   0  0  0  0  0  0  0  0  0  0  0  0
    8.4430  -17.6376   20.5610 C   0  0  1  0  0  0  0  0  0  0  0  0
    8.4769  -19.0013   21.1724 C   0  0  0  0  0  0  0  0  0  0  0  0
    7.8471  -20.0685   20.3698 C   0  0  0  0  0  0  0  0  0  0  0  0
    6.5699  -20.0029   19.8877 C   0  0  0  0  0  0  0  0  0  0  0  0
    6.3314  -21.1407   19.2148 N   0  0  0  0  0  0  0  0  0  0  0  0
    7.4316  -21.8831   19.2844 C   0  0  0  0  0  0  0  0  0  0  0  0
    8.3623  -21.2357   19.9854 N   0  0  0  0  0  0  0  0  0  0  0  0
    8.9055  -16.5433   21.4291 C   0  0  0  0  0  0  0  0  0  0  0  0
   10.0725  -16.1091   21.2606 O   0  0  0  0  0  0  0  0  0  0  0  0
    7.6256  -11.0396   27.0979 C   0  0  0  0  0  0  0  0  0  0  0  0
    6.8855  -12.2113   25.9123 S   0  0  0  0  0  0  0  0  0  0  0  0
    8.2107  -13.0148   24.9218 C   0  0  0  0  0  0  0  0  0  0  0  0
    7.6282  -14.0795   24.0371 C   0  0  0  0  0  0  0  0  0  0  0  0
    8.6249  -14.9150   23.3292 C   0  0  2  0  0  0  0  0  0  0  0  0
    8.1187  -15.9409   22.4449 N   0  0  0  0  0  0  0  0  0  0  0  0
    9.6547  -15.4042   24.2312 C   0  0  0  0  0  0  0  0  0  0  0  0
   10.4405  -14.6170   24.7856 O   0  0  0  0  0  0  0  0  0  0  0  0
    9.8474  -16.7913   24.5374 N   0  0  0  0  0  0  0  0  0  0  0  0
   10.7688  -17.1997   25.5393 C   0  0  1  0  0  0  0  0  0  0  0  0
   10.1964  -17.4488   26.8766 C   0  0  0  0  0  0  0  0  0  0  0  0
    9.6330  -16.2673   27.5684 C   0  0  0  0  0  0  0  0  0  0  0  0
   10.4635  -15.5774   28.4634 C   0  0  0  0  0  0  0  0  0  0  0  0
   10.0262  -14.4601   29.1582 C   0  0  0  0  0  0  0  0  0  0  0  0
    8.7398  -14.0011   28.9807 C   0  0  0  0  0  0  0  0  0  0  0  0
    7.9121  -14.6633   28.1100 C   0  0  0  0  0  0  0  0  0  0  0  0
    8.3578  -15.7752   27.4196 C   0  0  0  0  0  0  0  0  0  0  0  0
   11.4140  -18.5313   25.1537 C   0  0  0  0  0  0  0  0  0  0  0  0
   12.4695  -19.0242   25.8537 O   0  0  0  0  0  0  0  0  0  0  0  0
   10.9125  -19.1101   24.1861 O   0  0  0  0  0  0  0  0  0  0  0  0
  2  1  1  6
  2  9  1  0
  3  2  1  0
  3  4  1  0
  4  5  2  0
  4  8  1  0
  5  6  1  0
  6  7  1  0
  8  7  2  0
  9 10  2  0
 11 12  1  0
 13 12  1  0
 13 14  1  0
 15 14  1  1
 15 17  1  0
 16  9  1  0
 16 15  1  0
 17 18  2  0
 19 20  1  0
 19 17  1  0
 20 21  1  1
 21 22  1  0
 22 23  2  0
 23 24  1  0
 25 24  2  0
 26 25  1  0
 27 26  2  0
 27 22  1  0
 28 20  1  0
 28 29  1  0
 30 28  2  0
M  END
$$$$
