HMF.pdb
     RDKit          3D

 30 31  0  0  1  0  0  0  0  0999 V2000
    8.0651  -17.2422   20.3573 N   0  0  0  0  0  0  0  0  0  0  0  0
    9.4712  -16.8905   20.4764 C   0  0  1  0  0  0  0  0  0  0  0  0
   10.0581  -16.5083   19.1558 C   0  0  0  0  0  0  0  0  0  0  0  0
    9.6366  -17.3423   18.0127 C   0  0  0  0  0  0  0  0  0  0  0  0
   10.1080  -18.6035   17.7783 C   0  0  0  0  0  0  0  0  0  0  0  0
    9.5179  -19.0555   16.6595 N   0  0  0  0  0  0  0  0  0  0  0  0
    8.7090  -18.0969   16.2201 C   0  0  0  0  0  0  0  0  0  0  0  0
    8.7735  -17.0487   17.0410 N   0  0  0  0  0  0  0  0  0  0  0  0
    9.7092  -15.9396   21.5736 C   0  0  0  0  0  0  0  0  0  0  0  0
   10.8902  -15.5665   21.7858 O   0  0  0  0  0  0  0  0  0  0  0  0
    5.4753  -12.5465   25.7888 C   0  0  0  0  0  0  0  0  0  0  0  0
    7.1466  -11.8260   25.9068 S   0  0  0  0  0  0  0  0  0  0  0  0
    8.4023  -13.0879   25.4443 C   0  0  0  0  0  0  0  0  0  0  0  0
    8.0089  -13.7717   24.1664 C   0  0  0  0  0  0  0  0  0  0  0  0
    8.9625  -14.8001   23.6913 C   0  0  2  0  0  0  0  0  0  0  0  0
    8.6912  -15.4108   22.4091 N   0  0  0  0  0  0  0  0  0  0  0  0
    9.2649  -15.7733   24.7280 C   0  0  0  0  0  0  0  0  0  0  0  0
    8.6310  -15.7812   25.7969 O   0  0  0  0  0  0  0  0  0  0  0  0
   10.2928  -16.7653   24.6093 N   0  0  0  0  0  0  0  0  0  0  0  0
   11.3867  -16.7997   25.5158 C   0  0  1  0  0  0  0  0  0  0  0  0
   11.0482  -17.0955   26.9216 C   0  0  0  0  0  0  0  0  0  0  0  0
   10.8769  -15.9204   27.8057 C   0  0  0  0  0  0  0  0  0  0  0  0
   11.0239  -16.1156   29.1867 C   0  0  0  0  0  0  0  0  0  0  0  0
   10.8821  -15.0770   30.0940 C   0  0  0  0  0  0  0  0  0  0  0  0
   10.5841  -13.8092   29.6456 C   0  0  0  0  0  0  0  0  0  0  0  0
   10.4356  -13.5987   28.2983 C   0  0  0  0  0  0  0  0  0  0  0  0
   10.5812  -14.6402   27.4007 C   0  0  0  0  0  0  0  0  0  0  0  0
   12.3638  -17.9088   25.1242 C   0  0  0  0  0  0  0  0  0  0  0  0
   13.5762  -18.0166   25.7287 O   0  0  0  0  0  0  0  0  0  0  0  0
   11.9746  -18.6804   24.2432 O   0  0  0  0  0  0  0  0  0  0  0  0
  2  1  1  6
  2  9  1  0
  3  2  1  0
  3  4  1  0
  4  5  2  0
  4  8  1  0
  5  6  1  0
  6  7  1  0
  8  7  2  0
  9 10  2  0
 11 12  1  0
 13 12  1  0
 13 14  1  0
 15 14  1  1
 15 17  1  0
 16  9  1  0
 16 15  1  0
 17 18  2  0
 19 20  1  0
 19 17  1  0
 20 21  1  1
 21 22  1  0
 22 23  2  0
 23 24  1  0
 25 24  2  0
 26 25  1  0
 27 26  2  0
 27 22  1  0
 28 20  1  0
 28 29  1  0
 30 28  2  0
M  END
$$$$
