HMF.pdb
     RDKit          3D

 30 31  0  0  1  0  0  0  0  0999 V2000
    8.7009  -19.9022   19.8978 N   0  0  0  0  0  0  0  0  0  0  0  0
    7.8479  -19.2538   20.8811 C   0  0  1  0  0  0  0  0  0  0  0  0
    7.5932  -20.1380   22.0592 C   0  0  0  0  0  0  0  0  0  0  0  0
    6.9665  -21.4383   21.7485 C   0  0  0  0  0  0  0  0  0  0  0  0
    5.7384  -21.5688   21.1633 C   0  0  0  0  0  0  0  0  0  0  0  0
    5.4864  -22.8823   21.0380 N   0  0  0  0  0  0  0  0  0  0  0  0
    6.5306  -23.5377   21.5344 C   0  0  0  0  0  0  0  0  0  0  0  0
    7.4395  -22.6644   21.9682 N   0  0  0  0  0  0  0  0  0  0  0  0
    8.3106  -17.8938   21.1991 C   0  0  0  0  0  0  0  0  0  0  0  0
    9.5480  -17.7000   21.3016 O   0  0  0  0  0  0  0  0  0  0  0  0
    7.3789  -12.0261   19.3007 C   0  0  0  0  0  0  0  0  0  0  0  0
    8.5144  -12.4250   20.6710 S   0  0  0  0  0  0  0  0  0  0  0  0
    7.5540  -13.0238   22.1208 C   0  0  0  0  0  0  0  0  0  0  0  0
    6.9585  -14.3719   21.8317 C   0  0  0  0  0  0  0  0  0  0  0  0
    7.9196  -15.4978   21.8675 C   0  0  2  0  0  0  0  0  0  0  0  0
    7.4513  -16.7817   21.3953 N   0  0  0  0  0  0  0  0  0  0  0  0
    8.6025  -15.5816   23.1481 C   0  0  0  0  0  0  0  0  0  0  0  0
    9.6172  -14.9003   23.3732 O   0  0  0  0  0  0  0  0  0  0  0  0
    8.1800  -16.4370   24.2180 N   0  0  0  0  0  0  0  0  0  0  0  0
    8.7380  -16.3136   25.5191 C   0  0  1  0  0  0  0  0  0  0  0  0
    7.8127  -15.8598   26.5756 C   0  0  0  0  0  0  0  0  0  0  0  0
    7.4065  -14.4376   26.5113 C   0  0  0  0  0  0  0  0  0  0  0  0
    8.3988  -13.4659   26.7071 C   0  0  0  0  0  0  0  0  0  0  0  0
    8.1159  -12.1093   26.6656 C   0  0  0  0  0  0  0  0  0  0  0  0
    6.8275  -11.6832   26.4304 C   0  0  0  0  0  0  0  0  0  0  0  0
    5.8430  -12.6188   26.2374 C   0  0  0  0  0  0  0  0  0  0  0  0
    6.1350  -13.9696   26.2781 C   0  0  0  0  0  0  0  0  0  0  0  0
    9.2335  -17.6731   26.0135 C   0  0  0  0  0  0  0  0  0  0  0  0
    9.8755  -17.7909   27.2056 O   0  0  0  0  0  0  0  0  0  0  0  0
    9.0073  -18.6301   25.2679 O   0  0  0  0  0  0  0  0  0  0  0  0
  2  1  1  6
  2  9  1  0
  3  2  1  0
  3  4  1  0
  4  5  2  0
  4  8  1  0
  5  6  1  0
  6  7  1  0
  8  7  2  0
  9 10  2  0
 11 12  1  0
 13 12  1  0
 13 14  1  0
 15 14  1  1
 15 17  1  0
 16  9  1  0
 16 15  1  0
 17 18  2  0
 19 20  1  0
 19 17  1  0
 20 21  1  1
 21 22  1  0
 22 23  2  0
 23 24  1  0
 25 24  2  0
 26 25  1  0
 27 26  2  0
 27 22  1  0
 28 20  1  0
 28 29  1  0
 30 28  2  0
M  END
$$$$
