HMF.pdb
     RDKit          3D

 30 31  0  0  1  0  0  0  0  0999 V2000
    9.0579  -17.5661   18.9526 N   0  0  0  0  0  0  0  0  0  0  0  0
    8.4113  -17.7784   20.2378 C   0  0  1  0  0  0  0  0  0  0  0  0
    8.4623  -19.2142   20.6506 C   0  0  0  0  0  0  0  0  0  0  0  0
    7.8288  -20.1632   19.7136 C   0  0  0  0  0  0  0  0  0  0  0  0
    6.6726  -19.9012   19.0335 C   0  0  0  0  0  0  0  0  0  0  0  0
    6.3890  -20.9800   18.2851 N   0  0  0  0  0  0  0  0  0  0  0  0
    7.3443  -21.8782   18.5023 C   0  0  0  0  0  0  0  0  0  0  0  0
    8.2282  -21.3873   19.3709 N   0  0  0  0  0  0  0  0  0  0  0  0
    8.8682  -16.8126   21.2494 C   0  0  0  0  0  0  0  0  0  0  0  0
   10.0699  -16.4467   21.2161 O   0  0  0  0  0  0  0  0  0  0  0  0
    6.4237  -12.8837   27.2722 C   0  0  0  0  0  0  0  0  0  0  0  0
    6.8214  -12.3782   25.5656 S   0  0  0  0  0  0  0  0  0  0  0  0
    8.1379  -13.4674   24.8847 C   0  0  0  0  0  0  0  0  0  0  0  0
    7.5568  -14.4268   23.8861 C   0  0  0  0  0  0  0  0  0  0  0  0
    8.5325  -15.3608   23.2792 C   0  0  2  0  0  0  0  0  0  0  0  0
    8.0398  -16.2620   22.2615 N   0  0  0  0  0  0  0  0  0  0  0  0
    9.3339  -16.0326   24.2890 C   0  0  0  0  0  0  0  0  0  0  0  0
    8.8341  -16.9032   25.0217 O   0  0  0  0  0  0  0  0  0  0  0  0
   10.7196  -15.7479   24.5207 N   0  0  0  0  0  0  0  0  0  0  0  0
   11.4435  -16.4146   25.5459 C   0  0  1  0  0  0  0  0  0  0  0  0
   10.7007  -16.6715   26.7951 C   0  0  0  0  0  0  0  0  0  0  0  0
   10.3431  -15.4758   27.5915 C   0  0  0  0  0  0  0  0  0  0  0  0
    8.9862  -15.1322   27.6799 C   0  0  0  0  0  0  0  0  0  0  0  0
    8.5535  -14.0306   28.4019 C   0  0  0  0  0  0  0  0  0  0  0  0
    9.4685  -13.2353   29.0556 C   0  0  0  0  0  0  0  0  0  0  0  0
   10.8003  -13.5547   28.9801 C   0  0  0  0  0  0  0  0  0  0  0  0
   11.2224  -14.6568   28.2597 C   0  0  0  0  0  0  0  0  0  0  0  0
   11.8730  -17.8037   25.0728 C   0  0  0  0  0  0  0  0  0  0  0  0
   11.4275  -18.3078   23.8920 O   0  0  0  0  0  0  0  0  0  0  0  0
   12.6386  -18.4135   25.8245 O   0  0  0  0  0  0  0  0  0  0  0  0
  2  1  1  6
  2  9  1  0
  3  2  1  0
  3  4  1  0
  4  5  2  0
  4  8  1  0
  5  6  1  0
  6  7  1  0
  8  7  2  0
  9 10  2  0
 11 12  1  0
 13 12  1  0
 13 14  1  0
 15 14  1  1
 15 17  1  0
 16  9  1  0
 16 15  1  0
 17 18  2  0
 19 20  1  0
 19 17  1  0
 20 21  1  1
 21 22  1  0
 22 23  2  0
 23 24  1  0
 25 24  2  0
 26 25  1  0
 27 26  2  0
 27 22  1  0
 28 20  1  0
 28 29  1  0
 30 28  2  0
M  END
$$$$
