HMF.pdb
     RDKit          3D

 30 31  0  0  1  0  0  0  0  0999 V2000
    6.9959  -20.5010   21.8619 N   0  0  0  0  0  0  0  0  0  0  0  0
    6.5868  -19.3302   22.6214 C   0  0  1  0  0  0  0  0  0  0  0  0
    6.3810  -19.6540   24.0662 C   0  0  0  0  0  0  0  0  0  0  0  0
    5.4369  -20.7562   24.3377 C   0  0  0  0  0  0  0  0  0  0  0  0
    4.2075  -20.8649   23.7507 C   0  0  0  0  0  0  0  0  0  0  0  0
    3.6249  -21.9754   24.2322 N   0  0  0  0  0  0  0  0  0  0  0  0
    4.4736  -22.5302   25.0915 C   0  0  0  0  0  0  0  0  0  0  0  0
    5.5828  -21.7941   25.1604 N   0  0  0  0  0  0  0  0  0  0  0  0
    7.4493  -18.1696   22.3497 C   0  0  0  0  0  0  0  0  0  0  0  0
    8.6738  -18.3761   22.1573 O   0  0  0  0  0  0  0  0  0  0  0  0
    6.7196  -12.6280   18.9928 C   0  0  0  0  0  0  0  0  0  0  0  0
    7.7050  -11.9945   20.3906 S   0  0  0  0  0  0  0  0  0  0  0  0
    8.4187  -13.4011   21.3368 C   0  0  0  0  0  0  0  0  0  0  0  0
    7.4079  -14.5031   21.4755 C   0  0  0  0  0  0  0  0  0  0  0  0
    7.8813  -15.6923   22.2201 C   0  0  2  0  0  0  0  0  0  0  0  0
    6.9896  -16.8285   22.2868 N   0  0  0  0  0  0  0  0  0  0  0  0
    8.4343  -15.3312   23.5151 C   0  0  0  0  0  0  0  0  0  0  0  0
    8.6096  -14.1396   23.8217 O   0  0  0  0  0  0  0  0  0  0  0  0
    8.8190  -16.2901   24.5088 N   0  0  0  0  0  0  0  0  0  0  0  0
    9.3286  -15.8758   25.7689 C   0  0  1  0  0  0  0  0  0  0  0  0
    8.3201  -15.4948   26.7770 C   0  0  0  0  0  0  0  0  0  0  0  0
    7.6257  -14.2086   26.5418 C   0  0  0  0  0  0  0  0  0  0  0  0
    8.3328  -13.0270   26.8075 C   0  0  0  0  0  0  0  0  0  0  0  0
    7.7676  -11.7751   26.6184 C   0  0  0  0  0  0  0  0  0  0  0  0
    6.4731  -11.6681   26.1605 C   0  0  0  0  0  0  0  0  0  0  0  0
    5.7650  -12.8127   25.8959 C   0  0  0  0  0  0  0  0  0  0  0  0
    6.3378  -14.0568   26.0851 C   0  0  0  0  0  0  0  0  0  0  0  0
   10.1040  -17.0173   26.4275 C   0  0  0  0  0  0  0  0  0  0  0  0
   10.1434  -18.2523   25.8614 O   0  0  0  0  0  0  0  0  0  0  0  0
   10.6795  -16.7365   27.4824 O   0  0  0  0  0  0  0  0  0  0  0  0
  2  1  1  6
  2  9  1  0
  3  2  1  0
  3  4  1  0
  4  5  2  0
  4  8  1  0
  5  6  1  0
  6  7  1  0
  8  7  2  0
  9 10  2  0
 11 12  1  0
 13 12  1  0
 13 14  1  0
 15 14  1  1
 15 17  1  0
 16  9  1  0
 16 15  1  0
 17 18  2  0
 19 20  1  0
 19 17  1  0
 20 21  1  1
 21 22  1  0
 22 23  2  0
 23 24  1  0
 25 24  2  0
 26 25  1  0
 27 26  2  0
 27 22  1  0
 28 20  1  0
 28 29  1  0
 30 28  2  0
M  END
$$$$
