HMF.pdb
     RDKit          3D

 30 31  0  0  1  0  0  0  0  0999 V2000
    9.8439  -16.3075   18.7829 N   0  0  0  0  0  0  0  0  0  0  0  0
    9.9538  -17.3121   19.8287 C   0  0  1  0  0  0  0  0  0  0  0  0
   11.1572  -18.1780   19.6378 C   0  0  0  0  0  0  0  0  0  0  0  0
   11.0772  -19.1304   18.5123 C   0  0  0  0  0  0  0  0  0  0  0  0
    9.9396  -19.8047   18.1676 C   0  0  0  0  0  0  0  0  0  0  0  0
   10.2326  -20.5810   17.1112 N   0  0  0  0  0  0  0  0  0  0  0  0
   11.5147  -20.3884   16.8185 C   0  0  0  0  0  0  0  0  0  0  0  0
   12.0373  -19.5031   17.6670 N   0  0  0  0  0  0  0  0  0  0  0  0
    9.8011  -16.7280   21.1705 C   0  0  0  0  0  0  0  0  0  0  0  0
   10.7849  -16.1242   21.6670 O   0  0  0  0  0  0  0  0  0  0  0  0
    7.2198  -13.0254   26.8758 C   0  0  0  0  0  0  0  0  0  0  0  0
    7.3025  -13.7056   25.1856 S   0  0  0  0  0  0  0  0  0  0  0  0
    7.1191  -15.5349   25.2413 C   0  0  0  0  0  0  0  0  0  0  0  0
    7.1587  -16.1059   23.8529 C   0  0  0  0  0  0  0  0  0  0  0  0
    8.5171  -16.2808   23.2899 C   0  0  2  0  0  0  0  0  0  0  0  0
    8.6127  -16.7978   21.9430 N   0  0  0  0  0  0  0  0  0  0  0  0
    9.4016  -16.9621   24.2208 C   0  0  0  0  0  0  0  0  0  0  0  0
    9.6080  -18.1838   24.1233 O   0  0  0  0  0  0  0  0  0  0  0  0
   10.0787  -16.3029   25.2987 N   0  0  0  0  0  0  0  0  0  0  0  0
   11.0431  -16.9876   26.0865 C   0  0  1  0  0  0  0  0  0  0  0  0
   11.9907  -16.1337   26.8290 C   0  0  0  0  0  0  0  0  0  0  0  0
   11.3860  -15.0602   27.6499 C   0  0  0  0  0  0  0  0  0  0  0  0
   11.3118  -15.2617   29.0359 C   0  0  0  0  0  0  0  0  0  0  0  0
   10.7629  -14.3147   29.8869 C   0  0  0  0  0  0  0  0  0  0  0  0
   10.2668  -13.1364   29.3746 C   0  0  0  0  0  0  0  0  0  0  0  0
   10.3297  -12.9215   28.0213 C   0  0  0  0  0  0  0  0  0  0  0  0
   10.8811  -13.8707   27.1806 C   0  0  0  0  0  0  0  0  0  0  0  0
   10.3507  -17.8116   27.1726 C   0  0  0  0  0  0  0  0  0  0  0  0
   11.0573  -18.6686   27.9557 O   0  0  0  0  0  0  0  0  0  0  0  0
    9.1337  -17.6393   27.2828 O   0  0  0  0  0  0  0  0  0  0  0  0
  2  1  1  6
  2  9  1  0
  3  2  1  0
  3  4  1  0
  4  5  2  0
  4  8  1  0
  5  6  1  0
  6  7  1  0
  8  7  2  0
  9 10  2  0
 11 12  1  0
 13 12  1  0
 13 14  1  0
 15 14  1  1
 15 17  1  0
 16  9  1  0
 16 15  1  0
 17 18  2  0
 19 20  1  0
 19 17  1  0
 20 21  1  1
 21 22  1  0
 22 23  2  0
 23 24  1  0
 25 24  2  0
 26 25  1  0
 27 26  2  0
 27 22  1  0
 28 20  1  0
 28 29  1  0
 30 28  2  0
M  END
$$$$
