HMF.pdb
     RDKit          3D

 30 31  0  0  1  0  0  0  0  0999 V2000
    8.9402  -16.4238   18.8331 N   0  0  0  0  0  0  0  0  0  0  0  0
    8.3879  -17.0604   20.0184 C   0  0  1  0  0  0  0  0  0  0  0  0
    8.4575  -18.5508   19.9274 C   0  0  0  0  0  0  0  0  0  0  0  0
    7.7459  -19.1469   18.7793 C   0  0  0  0  0  0  0  0  0  0  0  0
    6.5212  -19.7463   18.8731 C   0  0  0  0  0  0  0  0  0  0  0  0
    6.1852  -20.1766   17.6458 N   0  0  0  0  0  0  0  0  0  0  0  0
    7.1775  -19.8512   16.8237 C   0  0  0  0  0  0  0  0  0  0  0  0
    8.1330  -19.2206   17.5065 N   0  0  0  0  0  0  0  0  0  0  0  0
    8.9253  -16.4763   21.2573 C   0  0  0  0  0  0  0  0  0  0  0  0
   10.1631  -16.2707   21.3246 O   0  0  0  0  0  0  0  0  0  0  0  0
    6.8357  -12.3248   26.3614 C   0  0  0  0  0  0  0  0  0  0  0  0
    5.9666  -12.6467   24.7907 S   0  0  0  0  0  0  0  0  0  0  0  0
    7.0663  -13.5825   23.6514 C   0  0  0  0  0  0  0  0  0  0  0  0
    7.7675  -14.6853   24.3915 C   0  0  0  0  0  0  0  0  0  0  0  0
    8.6871  -15.5021   23.5669 C   0  0  2  0  0  0  0  0  0  0  0  0
    8.1370  -16.1252   22.3838 N   0  0  0  0  0  0  0  0  0  0  0  0
    9.4654  -16.4220   24.3801 C   0  0  0  0  0  0  0  0  0  0  0  0
    9.2358  -17.6431   24.3549 O   0  0  0  0  0  0  0  0  0  0  0  0
   10.5213  -16.0075   25.2566 N   0  0  0  0  0  0  0  0  0  0  0  0
   11.3033  -16.9602   25.9639 C   0  0  1  0  0  0  0  0  0  0  0  0
   12.1475  -16.4218   27.0482 C   0  0  0  0  0  0  0  0  0  0  0  0
   11.4567  -15.5688   28.0417 C   0  0  0  0  0  0  0  0  0  0  0  0
   10.9178  -14.3531   27.5961 C   0  0  0  0  0  0  0  0  0  0  0  0
   10.2534  -13.4874   28.4512 C   0  0  0  0  0  0  0  0  0  0  0  0
   10.1115  -13.8112   29.7823 C   0  0  0  0  0  0  0  0  0  0  0  0
   10.6327  -14.9957   30.2373 C   0  0  0  0  0  0  0  0  0  0  0  0
   11.2916  -15.8540   29.3765 C   0  0  0  0  0  0  0  0  0  0  0  0
   10.3973  -17.9744   26.6628 C   0  0  0  0  0  0  0  0  0  0  0  0
   10.9085  -19.1132   27.2004 O   0  0  0  0  0  0  0  0  0  0  0  0
    9.1985  -17.6843   26.7036 O   0  0  0  0  0  0  0  0  0  0  0  0
  2  1  1  6
  2  9  1  0
  3  2  1  0
  3  4  1  0
  4  5  2  0
  4  8  1  0
  5  6  1  0
  6  7  1  0
  8  7  2  0
  9 10  2  0
 11 12  1  0
 13 12  1  0
 13 14  1  0
 15 14  1  1
 15 17  1  0
 16  9  1  0
 16 15  1  0
 17 18  2  0
 19 20  1  0
 19 17  1  0
 20 21  1  1
 21 22  1  0
 22 23  2  0
 23 24  1  0
 25 24  2  0
 26 25  1  0
 27 26  2  0
 27 22  1  0
 28 20  1  0
 28 29  1  0
 30 28  2  0
M  END
$$$$
