HMF.pdb
     RDKit          3D

 30 31  0  0  1  0  0  0  0  0999 V2000
    9.9372  -16.8027   18.9599 N   0  0  0  0  0  0  0  0  0  0  0  0
    9.6418  -17.6104   20.1327 C   0  0  1  0  0  0  0  0  0  0  0  0
   10.3534  -18.9244   20.0911 C   0  0  0  0  0  0  0  0  0  0  0  0
   10.0329  -19.7792   18.9307 C   0  0  0  0  0  0  0  0  0  0  0  0
    9.1489  -20.8205   18.9757 C   0  0  0  0  0  0  0  0  0  0  0  0
    9.1108  -21.3733   17.7521 N   0  0  0  0  0  0  0  0  0  0  0  0
    9.9495  -20.6904   16.9797 C   0  0  0  0  0  0  0  0  0  0  0  0
   10.5149  -19.7144   17.6901 N   0  0  0  0  0  0  0  0  0  0  0  0
    9.7971  -16.8461   21.3802 C   0  0  0  0  0  0  0  0  0  0  0  0
   10.8643  -16.2049   21.5509 O   0  0  0  0  0  0  0  0  0  0  0  0
    6.5687  -12.2394   25.3475 C   0  0  0  0  0  0  0  0  0  0  0  0
    6.5273  -13.8888   26.1246 S   0  0  0  0  0  0  0  0  0  0  0  0
    8.0013  -14.8586   25.6051 C   0  0  0  0  0  0  0  0  0  0  0  0
    7.8500  -15.3167   24.1829 C   0  0  0  0  0  0  0  0  0  0  0  0
    9.0153  -16.0495   23.6373 C   0  0  2  0  0  0  0  0  0  0  0  0
    8.8184  -16.7810   22.4057 N   0  0  0  0  0  0  0  0  0  0  0  0
    9.6835  -16.8361   24.6611 C   0  0  0  0  0  0  0  0  0  0  0  0
    9.2482  -17.9528   24.9899 O   0  0  0  0  0  0  0  0  0  0  0  0
   10.8561  -16.3975   25.3592 N   0  0  0  0  0  0  0  0  0  0  0  0
   11.5539  -17.2681   26.2394 C   0  0  1  0  0  0  0  0  0  0  0  0
   12.3796  -16.6123   27.2720 C   0  0  0  0  0  0  0  0  0  0  0  0
   11.6732  -15.6527   28.1507 C   0  0  0  0  0  0  0  0  0  0  0  0
   11.2197  -14.4554   27.5782 C   0  0  0  0  0  0  0  0  0  0  0  0
   10.5483  -13.4954   28.3197 C   0  0  0  0  0  0  0  0  0  0  0  0
   10.3138  -13.7035   29.6609 C   0  0  0  0  0  0  0  0  0  0  0  0
   10.7507  -14.8681   30.2390 C   0  0  0  0  0  0  0  0  0  0  0  0
   11.4172  -15.8210   29.4909 C   0  0  0  0  0  0  0  0  0  0  0  0
   10.5646  -18.1198   27.0357 C   0  0  0  0  0  0  0  0  0  0  0  0
    9.2286  -17.8784   26.9746 O   0  0  0  0  0  0  0  0  0  0  0  0
   11.0601  -19.0219   27.7166 O   0  0  0  0  0  0  0  0  0  0  0  0
  2  1  1  6
  2  9  1  0
  3  2  1  0
  3  4  1  0
  4  5  2  0
  4  8  1  0
  5  6  1  0
  6  7  1  0
  8  7  2  0
  9 10  2  0
 11 12  1  0
 13 12  1  0
 13 14  1  0
 15 14  1  1
 15 17  1  0
 16  9  1  0
 16 15  1  0
 17 18  2  0
 19 20  1  0
 19 17  1  0
 20 21  1  1
 21 22  1  0
 22 23  2  0
 23 24  1  0
 25 24  2  0
 26 25  1  0
 27 26  2  0
 27 22  1  0
 28 20  1  0
 28 29  1  0
 30 28  2  0
M  END
$$$$
