HMF.pdb
     RDKit          3D

 30 31  0  0  1  0  0  0  0  0999 V2000
    9.0192  -20.3756   19.5910 N   0  0  0  0  0  0  0  0  0  0  0  0
    8.4970  -19.8474   20.8412 C   0  0  1  0  0  0  0  0  0  0  0  0
    8.7115  -20.7984   21.9745 C   0  0  0  0  0  0  0  0  0  0  0  0
    8.1522  -22.1506   21.7781 C   0  0  0  0  0  0  0  0  0  0  0  0
    7.0463  -22.4120   21.0188 C   0  0  0  0  0  0  0  0  0  0  0  0
    6.8232  -23.7356   21.0694 N   0  0  0  0  0  0  0  0  0  0  0  0
    7.7655  -24.2695   21.8398 C   0  0  0  0  0  0  0  0  0  0  0  0
    8.5820  -23.3099   22.2747 N   0  0  0  0  0  0  0  0  0  0  0  0
    8.9406  -18.4654   21.0824 C   0  0  0  0  0  0  0  0  0  0  0  0
   10.0734  -18.1263   20.6571 O   0  0  0  0  0  0  0  0  0  0  0  0
    6.8776  -10.9752   22.1617 C   0  0  0  0  0  0  0  0  0  0  0  0
    6.8777  -12.7447   22.6035 S   0  0  0  0  0  0  0  0  0  0  0  0
    8.0218  -13.6630   21.4942 C   0  0  0  0  0  0  0  0  0  0  0  0
    7.5810  -15.0921   21.3573 C   0  0  0  0  0  0  0  0  0  0  0  0
    8.5587  -16.0943   21.8391 C   0  0  2  0  0  0  0  0  0  0  0  0
    8.1717  -17.4853   21.7621 N   0  0  0  0  0  0  0  0  0  0  0  0
    9.1067  -15.7312   23.1357 C   0  0  0  0  0  0  0  0  0  0  0  0
    9.9955  -14.8678   23.2311 O   0  0  0  0  0  0  0  0  0  0  0  0
    8.6865  -16.3274   24.3697 N   0  0  0  0  0  0  0  0  0  0  0  0
    9.5945  -16.4939   25.4501 C   0  0  1  0  0  0  0  0  0  0  0  0
    9.8263  -15.2994   26.2855 C   0  0  0  0  0  0  0  0  0  0  0  0
    8.9164  -14.1565   26.0450 C   0  0  0  0  0  0  0  0  0  0  0  0
    7.5362  -14.4027   26.0793 C   0  0  0  0  0  0  0  0  0  0  0  0
    6.6058  -13.3971   25.8662 C   0  0  0  0  0  0  0  0  0  0  0  0
    7.0300  -12.1125   25.6077 C   0  0  0  0  0  0  0  0  0  0  0  0
    8.3762  -11.8523   25.5693 C   0  0  0  0  0  0  0  0  0  0  0  0
    9.2967  -12.8611   25.7855 C   0  0  0  0  0  0  0  0  0  0  0  0
    9.0639  -17.5400   26.4310 C   0  0  0  0  0  0  0  0  0  0  0  0
    9.8062  -17.9364   27.4982 O   0  0  0  0  0  0  0  0  0  0  0  0
    7.9375  -17.9815   26.1872 O   0  0  0  0  0  0  0  0  0  0  0  0
  2  1  1  6
  2  9  1  0
  3  2  1  0
  3  4  1  0
  4  5  2  0
  4  8  1  0
  5  6  1  0
  6  7  1  0
  8  7  2  0
  9 10  2  0
 11 12  1  0
 13 12  1  0
 13 14  1  0
 15 14  1  1
 15 17  1  0
 16  9  1  0
 16 15  1  0
 17 18  2  0
 19 20  1  0
 19 17  1  0
 20 21  1  1
 21 22  1  0
 22 23  2  0
 23 24  1  0
 25 24  2  0
 26 25  1  0
 27 26  2  0
 27 22  1  0
 28 20  1  0
 28 29  1  0
 30 28  2  0
M  END
$$$$
