HMF.pdb
     RDKit          3D

 30 31  0  0  1  0  0  0  0  0999 V2000
    8.9898  -17.8609   19.5610 N   0  0  0  0  0  0  0  0  0  0  0  0
    8.2851  -17.6361   20.8132 C   0  0  1  0  0  0  0  0  0  0  0  0
    7.9952  -18.9202   21.5214 C   0  0  0  0  0  0  0  0  0  0  0  0
    6.9474  -19.7581   20.9051 C   0  0  0  0  0  0  0  0  0  0  0  0
    6.2340  -19.3905   19.7988 C   0  0  0  0  0  0  0  0  0  0  0  0
    5.3714  -20.3829   19.5243 N   0  0  0  0  0  0  0  0  0  0  0  0
    5.5505  -21.3311   20.4382 C   0  0  0  0  0  0  0  0  0  0  0  0
    6.5118  -20.9592   21.2835 N   0  0  0  0  0  0  0  0  0  0  0  0
    8.9311  -16.5956   21.6286 C   0  0  0  0  0  0  0  0  0  0  0  0
   10.1834  -16.5024   21.5828 O   0  0  0  0  0  0  0  0  0  0  0  0
    7.7319  -11.5282   26.6068 C   0  0  0  0  0  0  0  0  0  0  0  0
    6.4986  -12.7356   26.0174 S   0  0  0  0  0  0  0  0  0  0  0  0
    7.3507  -14.1538   25.2139 C   0  0  0  0  0  0  0  0  0  0  0  0
    8.0598  -13.7000   23.9703 C   0  0  0  0  0  0  0  0  0  0  0  0
    8.9007  -14.7316   23.3213 C   0  0  2  0  0  0  0  0  0  0  0  0
    8.2329  -15.6851   22.4636 N   0  0  0  0  0  0  0  0  0  0  0  0
    9.8066  -15.3610   24.2681 C   0  0  0  0  0  0  0  0  0  0  0  0
   10.7328  -14.7152   24.7874 O   0  0  0  0  0  0  0  0  0  0  0  0
    9.7140  -16.7367   24.6603 N   0  0  0  0  0  0  0  0  0  0  0  0
   10.4780  -17.2423   25.7466 C   0  0  1  0  0  0  0  0  0  0  0  0
    9.7631  -17.3700   27.0315 C   0  0  0  0  0  0  0  0  0  0  0  0
    9.4708  -16.1015   27.7368 C   0  0  0  0  0  0  0  0  0  0  0  0
   10.5520  -15.3934   28.2814 C   0  0  0  0  0  0  0  0  0  0  0  0
   10.3788  -14.1966   28.9595 C   0  0  0  0  0  0  0  0  0  0  0  0
    9.1145  -13.6732   29.1169 C   0  0  0  0  0  0  0  0  0  0  0  0
    8.0443  -14.3518   28.5919 C   0  0  0  0  0  0  0  0  0  0  0  0
    8.2270  -15.5435   27.9151 C   0  0  0  0  0  0  0  0  0  0  0  0
   10.9566  -18.6621   25.4414 C   0  0  0  0  0  0  0  0  0  0  0  0
   10.5461  -19.3115   24.3204 O   0  0  0  0  0  0  0  0  0  0  0  0
   11.7275  -19.1577   26.2680 O   0  0  0  0  0  0  0  0  0  0  0  0
  2  1  1  6
  2  9  1  0
  3  2  1  0
  3  4  1  0
  4  5  2  0
  4  8  1  0
  5  6  1  0
  6  7  1  0
  8  7  2  0
  9 10  2  0
 11 12  1  0
 13 12  1  0
 13 14  1  0
 15 14  1  1
 15 17  1  0
 16  9  1  0
 16 15  1  0
 17 18  2  0
 19 20  1  0
 19 17  1  0
 20 21  1  1
 21 22  1  0
 22 23  2  0
 23 24  1  0
 25 24  2  0
 26 25  1  0
 27 26  2  0
 27 22  1  0
 28 20  1  0
 28 29  1  0
 30 28  2  0
M  END
$$$$
