HMF.pdb
     RDKit          3D

 30 31  0  0  1  0  0  0  0  0999 V2000
   11.4365  -17.5964   18.8188 N   0  0  0  0  0  0  0  0  0  0  0  0
   10.2098  -17.8724   19.5496 C   0  0  1  0  0  0  0  0  0  0  0  0
   10.0727  -19.3265   19.8683 C   0  0  0  0  0  0  0  0  0  0  0  0
   10.0539  -20.2294   18.7003 C   0  0  0  0  0  0  0  0  0  0  0  0
    9.0130  -20.3085   17.8182 C   0  0  0  0  0  0  0  0  0  0  0  0
    9.3334  -21.2291   16.8941 N   0  0  0  0  0  0  0  0  0  0  0  0
   10.5366  -21.7019   17.2028 C   0  0  0  0  0  0  0  0  0  0  0  0
   10.9847  -21.0959   18.3023 N   0  0  0  0  0  0  0  0  0  0  0  0
   10.0288  -16.9558   20.6862 C   0  0  0  0  0  0  0  0  0  0  0  0
   11.0569  -16.5064   21.2519 O   0  0  0  0  0  0  0  0  0  0  0  0
    7.6896  -12.0211   19.1985 C   0  0  0  0  0  0  0  0  0  0  0  0
    8.2294  -12.9255   20.6874 S   0  0  0  0  0  0  0  0  0  0  0  0
    6.9581  -14.1699   21.1546 C   0  0  0  0  0  0  0  0  0  0  0  0
    7.3618  -14.8806   22.4146 C   0  0  0  0  0  0  0  0  0  0  0  0
    8.6217  -15.6525   22.3178 C   0  0  2  0  0  0  0  0  0  0  0  0
    8.7672  -16.5410   21.1864 N   0  0  0  0  0  0  0  0  0  0  0  0
    8.9630  -16.2857   23.5811 C   0  0  0  0  0  0  0  0  0  0  0  0
    8.6475  -17.4666   23.8060 O   0  0  0  0  0  0  0  0  0  0  0  0
    9.6608  -15.6178   24.6402 N   0  0  0  0  0  0  0  0  0  0  0  0
    9.2466  -15.7561   25.9925 C   0  0  1  0  0  0  0  0  0  0  0  0
    7.8173  -15.4999   26.2570 C   0  0  0  0  0  0  0  0  0  0  0  0
    7.4120  -14.0764   26.2918 C   0  0  0  0  0  0  0  0  0  0  0  0
    8.4183  -13.1152   26.4664 C   0  0  0  0  0  0  0  0  0  0  0  0
    8.1373  -11.7583   26.5122 C   0  0  0  0  0  0  0  0  0  0  0  0
    6.8369  -11.3217   26.3883 C   0  0  0  0  0  0  0  0  0  0  0  0
    5.8387  -12.2469   26.2178 C   0  0  0  0  0  0  0  0  0  0  0  0
    6.1287  -13.5980   26.1709 C   0  0  0  0  0  0  0  0  0  0  0  0
    9.4640  -17.1930   26.4682 C   0  0  0  0  0  0  0  0  0  0  0  0
    9.3258  -18.2400   25.6129 O   0  0  0  0  0  0  0  0  0  0  0  0
    9.7707  -17.3241   27.6564 O   0  0  0  0  0  0  0  0  0  0  0  0
  2  1  1  1
  2  9  1  0
  3  2  1  0
  3  4  1  0
  4  5  2  0
  4  8  1  0
  5  6  1  0
  6  7  1  0
  8  7  2  0
  9 10  2  0
 11 12  1  0
 13 12  1  0
 13 14  1  0
 15 14  1  1
 15 17  1  0
 16  9  1  0
 16 15  1  0
 17 18  2  0
 19 20  1  0
 19 17  1  0
 20 21  1  6
 21 22  1  0
 22 23  2  0
 23 24  1  0
 25 24  2  0
 26 25  1  0
 27 26  2  0
 27 22  1  0
 28 20  1  0
 28 29  1  0
 30 28  2  0
M  END
$$$$
