HMF.pdb
     RDKit          3D

 30 31  0  0  1  0  0  0  0  0999 V2000
    8.6981  -16.4565   19.7804 N   0  0  0  0  0  0  0  0  0  0  0  0
    8.0480  -15.4563   20.6122 C   0  0  1  0  0  0  0  0  0  0  0  0
    6.9935  -14.7121   19.8580 C   0  0  0  0  0  0  0  0  0  0  0  0
    7.3811  -14.2668   18.5047 C   0  0  0  0  0  0  0  0  0  0  0  0
    8.1639  -13.1735   18.2602 C   0  0  0  0  0  0  0  0  0  0  0  0
    8.3050  -13.0652   16.9288 N   0  0  0  0  0  0  0  0  0  0  0  0
    7.6259  -14.0636   16.3735 C   0  0  0  0  0  0  0  0  0  0  0  0
    7.0608  -14.8031   17.3278 N   0  0  0  0  0  0  0  0  0  0  0  0
    7.6272  -16.0090   21.9092 C   0  0  0  0  0  0  0  0  0  0  0  0
    7.0055  -15.2545   22.6987 O   0  0  0  0  0  0  0  0  0  0  0  0
    5.0099  -22.0791   24.7878 C   0  0  0  0  0  0  0  0  0  0  0  0
    6.7338  -21.6092   25.1536 S   0  0  0  0  0  0  0  0  0  0  0  0
    6.8988  -19.7775   25.1259 C   0  0  0  0  0  0  0  0  0  0  0  0
    7.3160  -19.3117   23.7604 C   0  0  0  0  0  0  0  0  0  0  0  0
    7.4774  -17.8460   23.6248 C   0  0  2  0  0  0  0  0  0  0  0  0
    7.8739  -17.3420   22.3289 N   0  0  0  0  0  0  0  0  0  0  0  0
    8.2641  -17.2885   24.7128 C   0  0  0  0  0  0  0  0  0  0  0  0
    9.4991  -17.1880   24.6178 O   0  0  0  0  0  0  0  0  0  0  0  0
    7.6981  -16.8325   25.9483 N   0  0  0  0  0  0  0  0  0  0  0  0
    8.5225  -16.3306   26.9912 C   0  0  1  0  0  0  0  0  0  0  0  0
    7.8999  -15.3280   27.8775 C   0  0  0  0  0  0  0  0  0  0  0  0
    7.6733  -13.9915   27.2822 C   0  0  0  0  0  0  0  0  0  0  0  0
    6.4214  -13.3918   27.4817 C   0  0  0  0  0  0  0  0  0  0  0  0
    6.1149  -12.1428   26.9637 C   0  0  0  0  0  0  0  0  0  0  0  0
    7.0532  -11.4565   26.2250 C   0  0  0  0  0  0  0  0  0  0  0  0
    8.2833  -12.0273   26.0183 C   0  0  0  0  0  0  0  0  0  0  0  0
    8.5808  -13.2723   26.5409 C   0  0  0  0  0  0  0  0  0  0  0  0
    8.9307  -17.4627   27.9345 C   0  0  0  0  0  0  0  0  0  0  0  0
    9.8556  -17.2598   28.9094 O   0  0  0  0  0  0  0  0  0  0  0  0
    8.3669  -18.5447   27.7495 O   0  0  0  0  0  0  0  0  0  0  0  0
  2  1  1  6
  2  9  1  0
  3  2  1  0
  3  4  1  0
  4  5  2  0
  4  8  1  0
  5  6  1  0
  6  7  1  0
  8  7  2  0
  9 10  2  0
 11 12  1  0
 13 12  1  0
 13 14  1  0
 15 14  1  6
 15 17  1  0
 16  9  1  0
 16 15  1  0
 17 18  2  0
 19 20  1  0
 19 17  1  0
 20 21  1  1
 21 22  1  0
 22 23  2  0
 23 24  1  0
 25 24  2  0
 26 25  1  0
 27 26  2  0
 27 22  1  0
 28 20  1  0
 28 29  1  0
 30 28  2  0
M  END
$$$$
