HMF.pdb
     RDKit          3D

 30 31  0  0  1  0  0  0  0  0999 V2000
    7.7468  -14.3745   18.2175 N   0  0  0  0  0  0  0  0  0  0  0  0
    8.4439  -15.2922   19.1046 C   0  0  1  0  0  0  0  0  0  0  0  0
    9.9250  -15.0982   19.0458 C   0  0  0  0  0  0  0  0  0  0  0  0
   10.6159  -15.8363   17.9698 C   0  0  0  0  0  0  0  0  0  0  0  0
   10.2661  -15.7599   16.6508 C   0  0  0  0  0  0  0  0  0  0  0  0
   11.0978  -16.5602   15.9637 N   0  0  0  0  0  0  0  0  0  0  0  0
   11.9326  -17.1125   16.8380 C   0  0  0  0  0  0  0  0  0  0  0  0
   11.6472  -16.6747   18.0643 N   0  0  0  0  0  0  0  0  0  0  0  0
    7.8602  -15.3017   20.4551 C   0  0  0  0  0  0  0  0  0  0  0  0
    7.6298  -14.1963   21.0065 O   0  0  0  0  0  0  0  0  0  0  0  0
    4.0880  -20.0476   22.2248 C   0  0  0  0  0  0  0  0  0  0  0  0
    3.3279  -18.4550   21.7641 S   0  0  0  0  0  0  0  0  0  0  0  0
    4.6352  -17.1772   21.5611 C   0  0  0  0  0  0  0  0  0  0  0  0
    5.6851  -17.3313   22.6237 C   0  0  0  0  0  0  0  0  0  0  0  0
    6.8689  -16.4568   22.4610 C   0  0  2  0  0  0  0  0  0  0  0  0
    7.5356  -16.4788   21.1781 N   0  0  0  0  0  0  0  0  0  0  0  0
    7.7898  -16.5845   23.5786 C   0  0  0  0  0  0  0  0  0  0  0  0
    8.9125  -17.0941   23.4223 O   0  0  0  0  0  0  0  0  0  0  0  0
    7.4839  -16.1553   24.9116 N   0  0  0  0  0  0  0  0  0  0  0  0
    8.4523  -16.2366   25.9484 C   0  0  1  0  0  0  0  0  0  0  0  0
    8.2501  -15.3242   27.0907 C   0  0  0  0  0  0  0  0  0  0  0  0
    7.6414  -14.0132   26.7703 C   0  0  0  0  0  0  0  0  0  0  0  0
    8.3987  -13.1104   26.0098 C   0  0  0  0  0  0  0  0  0  0  0  0
    7.9148  -11.8592   25.6597 C   0  0  0  0  0  0  0  0  0  0  0  0
    6.6568  -11.4714   26.0647 C   0  0  0  0  0  0  0  0  0  0  0  0
    5.9013  -12.3404   26.8101 C   0  0  0  0  0  0  0  0  0  0  0  0
    6.3913  -13.5872   27.1525 C   0  0  0  0  0  0  0  0  0  0  0  0
    8.4400  -17.6310   26.5758 C   0  0  0  0  0  0  0  0  0  0  0  0
    9.3566  -17.9817   27.5160 O   0  0  0  0  0  0  0  0  0  0  0  0
    7.5542  -18.3915   26.1758 O   0  0  0  0  0  0  0  0  0  0  0  0
  2  1  1  6
  2  9  1  0
  3  2  1  0
  3  4  1  0
  4  5  2  0
  4  8  1  0
  5  6  1  0
  6  7  1  0
  8  7  2  0
  9 10  2  0
 11 12  1  0
 13 12  1  0
 13 14  1  0
 15 14  1  6
 15 17  1  0
 16  9  1  0
 16 15  1  0
 17 18  2  0
 19 20  1  0
 19 17  1  0
 20 21  1  1
 21 22  1  0
 22 23  2  0
 23 24  1  0
 25 24  2  0
 26 25  1  0
 27 26  2  0
 27 22  1  0
 28 20  1  0
 28 29  1  0
 30 28  2  0
M  END
$$$$
