GPN.pdb
     RDKit          3D

 20 20  0  0  1  0  0  0  0  0999 V2000
    9.0043  -17.7909   18.8731 N   0  0  0  0  0  0  0  0  0  0  0  0
    8.1037  -17.2786   19.9368 C   0  0  0  0  0  0  0  0  0  0  0  0
    8.9049  -16.5456   20.9214 C   0  0  0  0  0  0  0  0  0  0  0  0
   10.0781  -17.0231   21.1283 O   0  0  0  0  0  0  0  0  0  0  0  0
    8.5397  -15.4073   21.6511 N   0  0  0  0  0  0  0  0  0  0  0  0
    7.8098  -14.3008   20.9279 C   0  0  0  0  0  0  0  0  0  0  0  0
    6.6504  -14.1234   21.8748 C   0  0  0  0  0  0  0  0  0  0  0  0
    7.2114  -14.4103   23.2462 C   0  0  0  0  0  0  0  0  0  0  0  0
    8.6637  -14.8589   22.9375 C   0  0  1  0  0  0  0  0  0  0  0  0
    9.1949  -15.5852   24.0640 C   0  0  0  0  0  0  0  0  0  0  0  0
    8.4569  -16.5291   24.5381 O   0  0  0  0  0  0  0  0  0  0  0  0
   11.1866  -14.5504   28.8446 N   0  0  0  0  0  0  0  0  0  0  0  0
   10.0180  -14.0425   28.1769 C   0  0  0  0  0  0  0  0  0  0  0  0
    9.1348  -13.5583   28.9559 O   0  0  0  0  0  0  0  0  0  0  0  0
    9.8972  -14.0991   26.7158 C   0  0  0  0  0  0  0  0  0  0  0  0
   10.5386  -15.3683   26.1883 C   0  0  2  0  0  0  0  0  0  0  0  0
   10.4213  -15.4256   24.7332 N   0  0  0  0  0  0  0  0  0  0  0  0
   10.0806  -16.5863   26.8407 C   0  0  0  0  0  0  0  0  0  0  0  0
    9.0959  -17.3751   26.2532 O   0  0  0  0  0  0  0  0  0  0  0  0
   10.5311  -16.9859   27.9390 O   0  0  0  0  0  0  0  0  0  0  0  0
  2  1  1  0
  3  4  2  0
  3  2  1  0
  5  3  1  0
  6  5  1  0
  7  8  1  0
  7  6  1  0
  8  9  1  0
  9 10  1  1
  9  5  1  0
 10 11  2  0
 12 13  1  0
 13 14  2  0
 13 15  1  0
 16 15  1  1
 17 10  1  0
 17 16  1  0
 18 19  1  0
 18 16  1  0
 20 18  2  0
M  END
$$$$
