GPN.pdb
     RDKit          3D

 20 20  0  0  1  0  0  0  0  0999 V2000
    8.3382  -17.2278   16.6642 N   0  0  0  0  0  0  0  0  0  0  0  0
    7.5624  -16.4982   17.6991 C   0  0  0  0  0  0  0  0  0  0  0  0
    8.4951  -15.9392   18.6820 C   0  0  0  0  0  0  0  0  0  0  0  0
    9.4577  -16.7183   19.0191 O   0  0  0  0  0  0  0  0  0  0  0  0
    8.4525  -14.6765   19.2863 N   0  0  0  0  0  0  0  0  0  0  0  0
    7.9813  -13.5053   18.4579 C   0  0  0  0  0  0  0  0  0  0  0  0
    6.9453  -12.9492   19.4014 C   0  0  0  0  0  0  0  0  0  0  0  0
    7.4827  -13.2219   20.7851 C   0  0  0  0  0  0  0  0  0  0  0  0
    8.7660  -14.0450   20.5004 C   0  0  1  0  0  0  0  0  0  0  0  0
    9.1561  -14.7590   21.6907 C   0  0  0  0  0  0  0  0  0  0  0  0
    8.4023  -15.7431   22.0427 O   0  0  0  0  0  0  0  0  0  0  0  0
   11.0947  -17.3153   25.5755 N   0  0  0  0  0  0  0  0  0  0  0  0
    9.7518  -17.2466   25.0644 C   0  0  0  0  0  0  0  0  0  0  0  0
    8.9529  -18.1019   25.5657 O   0  0  0  0  0  0  0  0  0  0  0  0
    9.3788  -16.2556   24.0488 C   0  0  0  0  0  0  0  0  0  0  0  0
   10.5897  -15.4317   23.6548 C   0  0  2  0  0  0  0  0  0  0  0  0
   10.2579  -14.5491   22.5388 N   0  0  0  0  0  0  0  0  0  0  0  0
   11.7946  -16.2136   23.4181 C   0  0  0  0  0  0  0  0  0  0  0  0
   12.4251  -16.1819   22.1777 O   0  0  0  0  0  0  0  0  0  0  0  0
   12.3207  -16.9420   24.2908 O   0  0  0  0  0  0  0  0  0  0  0  0
  2  1  1  0
  3  4  2  0
  3  2  1  0
  5  3  1  0
  6  5  1  0
  7  8  1  0
  7  6  1  0
  8  9  1  0
  9 10  1  1
  9  5  1  0
 10 11  2  0
 12 13  1  0
 13 14  2  0
 13 15  1  0
 16 15  1  6
 17 10  1  0
 17 16  1  0
 18 19  1  0
 18 16  1  0
 20 18  2  0
M  END
$$$$
