GPN.pdb
     RDKit          3D

 20 20  0  0  1  0  0  0  0  0999 V2000
    7.6704  -17.7686   17.6997 N   0  0  0  0  0  0  0  0  0  0  0  0
    6.9463  -16.7117   18.4505 C   0  0  0  0  0  0  0  0  0  0  0  0
    7.8141  -16.2149   19.5224 C   0  0  0  0  0  0  0  0  0  0  0  0
    8.4147  -17.1255   20.1986 O   0  0  0  0  0  0  0  0  0  0  0  0
    8.0535  -14.8843   19.8875 N   0  0  0  0  0  0  0  0  0  0  0  0
    8.1107  -13.8443   18.7941 C   0  0  0  0  0  0  0  0  0  0  0  0
    7.1462  -12.8400   19.3717 C   0  0  0  0  0  0  0  0  0  0  0  0
    7.3282  -12.9306   20.8672 C   0  0  0  0  0  0  0  0  0  0  0  0
    8.3297  -14.1047   21.0220 C   0  0  1  0  0  0  0  0  0  0  0  0
    8.2730  -14.6138   22.3697 C   0  0  0  0  0  0  0  0  0  0  0  0
    7.1096  -14.6454   22.9229 O   0  0  0  0  0  0  0  0  0  0  0  0
    7.4998  -18.8226   25.7359 N   0  0  0  0  0  0  0  0  0  0  0  0
    7.7285  -17.4043   25.6603 C   0  0  0  0  0  0  0  0  0  0  0  0
    7.7264  -16.8096   26.7861 O   0  0  0  0  0  0  0  0  0  0  0  0
    7.9417  -16.7404   24.3694 C   0  0  0  0  0  0  0  0  0  0  0  0
    9.0779  -15.7414   24.4782 C   0  0  2  0  0  0  0  0  0  0  0  0
    9.3096  -15.0983   23.1870 N   0  0  0  0  0  0  0  0  0  0  0  0
   10.2948  -16.2807   25.0676 C   0  0  0  0  0  0  0  0  0  0  0  0
   10.6107  -16.0211   26.3980 O   0  0  0  0  0  0  0  0  0  0  0  0
   11.1083  -16.9892   24.4311 O   0  0  0  0  0  0  0  0  0  0  0  0
  2  1  1  0
  3  4  2  0
  3  2  1  0
  5  3  1  0
  6  5  1  0
  7  8  1  0
  7  6  1  0
  8  9  1  0
  9 10  1  1
  9  5  1  0
 10 11  2  0
 12 13  1  0
 13 14  2  0
 13 15  1  0
 16 15  1  6
 17 10  1  0
 17 16  1  0
 18 19  1  0
 18 16  1  0
 20 18  2  0
M  END
$$$$
