GPN.pdb
     RDKit          3D

 20 20  0  0  1  0  0  0  0  0999 V2000
    8.1012  -16.9040   16.4839 N   0  0  0  0  0  0  0  0  0  0  0  0
    7.3608  -16.2561   17.5962 C   0  0  0  0  0  0  0  0  0  0  0  0
    8.3109  -15.9093   18.6571 C   0  0  0  0  0  0  0  0  0  0  0  0
    9.2036  -16.7997   18.8968 O   0  0  0  0  0  0  0  0  0  0  0  0
    8.3507  -14.7400   19.4270 N   0  0  0  0  0  0  0  0  0  0  0  0
    8.0000  -13.4331   18.7569 C   0  0  0  0  0  0  0  0  0  0  0  0
    6.9833  -12.9245   19.7470 C   0  0  0  0  0  0  0  0  0  0  0  0
    7.4547  -13.4241   21.0908 C   0  0  0  0  0  0  0  0  0  0  0  0
    8.6764  -14.3056   20.7217 C   0  0  1  0  0  0  0  0  0  0  0  0
    8.9716  -15.2028   21.8109 C   0  0  0  0  0  0  0  0  0  0  0  0
    8.0645  -16.0706   22.1018 O   0  0  0  0  0  0  0  0  0  0  0  0
   11.5793  -19.0259   23.8289 N   0  0  0  0  0  0  0  0  0  0  0  0
   11.3895  -18.7896   22.4226 C   0  0  0  0  0  0  0  0  0  0  0  0
   11.6655  -19.7857   21.6791 O   0  0  0  0  0  0  0  0  0  0  0  0
   10.9153  -17.4911   21.9310 C   0  0  0  0  0  0  0  0  0  0  0  0
   10.6760  -16.5487   23.0951 C   0  0  2  0  0  0  0  0  0  0  0  0
   10.1222  -15.2848   22.6153 N   0  0  0  0  0  0  0  0  0  0  0  0
   11.8291  -16.3666   23.9648 C   0  0  0  0  0  0  0  0  0  0  0  0
   11.7617  -16.7170   25.3100 O   0  0  0  0  0  0  0  0  0  0  0  0
   12.9195  -15.8959   23.5668 O   0  0  0  0  0  0  0  0  0  0  0  0
  2  1  1  0
  3  4  2  0
  3  2  1  0
  5  3  1  0
  6  5  1  0
  7  8  1  0
  7  6  1  0
  8  9  1  0
  9 10  1  1
  9  5  1  0
 10 11  2  0
 12 13  1  0
 13 14  2  0
 13 15  1  0
 16 15  1  6
 17 10  1  0
 17 16  1  0
 18 19  1  0
 18 16  1  0
 20 18  2  0
M  END
$$$$
