GPN.pdb
     RDKit          3D

 20 20  0  0  1  0  0  0  0  0999 V2000
    8.6057  -15.1889   14.5668 N   0  0  0  0  0  0  0  0  0  0  0  0
    7.9682  -15.1086   15.9055 C   0  0  0  0  0  0  0  0  0  0  0  0
    8.9877  -14.7420   16.8929 C   0  0  0  0  0  0  0  0  0  0  0  0
   10.1243  -15.3173   16.7367 O   0  0  0  0  0  0  0  0  0  0  0  0
    8.8622  -13.8551   17.9694 N   0  0  0  0  0  0  0  0  0  0  0  0
    7.9820  -12.6407   17.7937 C   0  0  0  0  0  0  0  0  0  0  0  0
    7.1351  -12.7806   19.0329 C   0  0  0  0  0  0  0  0  0  0  0  0
    8.0493  -13.3830   20.0716 C   0  0  0  0  0  0  0  0  0  0  0  0
    9.3495  -13.6544   19.2707 C   0  0  1  0  0  0  0  0  0  0  0  0
   10.1584  -14.6183   19.9745 C   0  0  0  0  0  0  0  0  0  0  0  0
    9.6489  -15.7919   20.1287 O   0  0  0  0  0  0  0  0  0  0  0  0
   14.4456  -13.6581   19.2387 N   0  0  0  0  0  0  0  0  0  0  0  0
   14.0312  -14.9889   19.5947 C   0  0  0  0  0  0  0  0  0  0  0  0
   13.9949  -15.8077   18.6203 O   0  0  0  0  0  0  0  0  0  0  0  0
   13.6880  -15.3291   20.9800 C   0  0  0  0  0  0  0  0  0  0  0  0
   12.1981  -15.5870   21.0998 C   0  0  2  0  0  0  0  0  0  0  0  0
   11.4457  -14.4760   20.5220 N   0  0  0  0  0  0  0  0  0  0  0  0
   11.7562  -15.9308   22.4435 C   0  0  0  0  0  0  0  0  0  0  0  0
   12.2279  -17.0807   23.0698 O   0  0  0  0  0  0  0  0  0  0  0  0
   10.9472  -15.2334   23.0977 O   0  0  0  0  0  0  0  0  0  0  0  0
  2  1  1  0
  3  4  2  0
  3  2  1  0
  5  3  1  0
  6  5  1  0
  7  8  1  0
  7  6  1  0
  8  9  1  0
  9 10  1  1
  9  5  1  0
 10 11  2  0
 12 13  1  0
 13 14  2  0
 13 15  1  0
 16 15  1  1
 17 10  1  0
 17 16  1  0
 18 19  1  0
 18 16  1  0
 20 18  2  0
M  END
$$$$
