GPN.pdb
     RDKit          3D

 20 20  0  0  1  0  0  0  0  0999 V2000
    9.5906  -15.5615   15.5674 N   0  0  0  0  0  0  0  0  0  0  0  0
    8.5755  -15.4053   16.6399 C   0  0  0  0  0  0  0  0  0  0  0  0
    9.2635  -15.1349   17.9056 C   0  0  0  0  0  0  0  0  0  0  0  0
   10.3373  -15.8124   18.0937 O   0  0  0  0  0  0  0  0  0  0  0  0
    8.8860  -14.2410   18.9155 N   0  0  0  0  0  0  0  0  0  0  0  0
    8.4844  -12.8415   18.5151 C   0  0  0  0  0  0  0  0  0  0  0  0
    7.1706  -12.7529   19.2491 C   0  0  0  0  0  0  0  0  0  0  0  0
    7.3632  -13.5663   20.5056 C   0  0  0  0  0  0  0  0  0  0  0  0
    8.7800  -14.1673   20.3135 C   0  0  1  0  0  0  0  0  0  0  0  0
    8.9449  -15.3042   21.1846 C   0  0  0  0  0  0  0  0  0  0  0  0
    8.3868  -16.4025   20.8069 O   0  0  0  0  0  0  0  0  0  0  0  0
   13.3505  -18.4442   22.2957 N   0  0  0  0  0  0  0  0  0  0  0  0
   11.9203  -18.3511   22.1711 C   0  0  0  0  0  0  0  0  0  0  0  0
   11.2964  -19.4262   22.4468 O   0  0  0  0  0  0  0  0  0  0  0  0
   11.2771  -17.0993   21.7569 C   0  0  0  0  0  0  0  0  0  0  0  0
   10.3254  -16.6200   22.8364 C   0  0  2  0  0  0  0  0  0  0  0  0
    9.6412  -15.4044   22.4023 N   0  0  0  0  0  0  0  0  0  0  0  0
   10.9316  -16.4878   24.1533 C   0  0  0  0  0  0  0  0  0  0  0  0
   10.6542  -17.4135   25.1549 O   0  0  0  0  0  0  0  0  0  0  0  0
   11.7156  -15.5591   24.4562 O   0  0  0  0  0  0  0  0  0  0  0  0
  2  1  1  0
  3  4  2  0
  3  2  1  0
  5  3  1  0
  6  5  1  0
  7  8  1  0
  7  6  1  0
  8  9  1  0
  9 10  1  1
  9  5  1  0
 10 11  2  0
 12 13  1  0
 13 14  2  0
 13 15  1  0
 16 15  1  6
 17 10  1  0
 17 16  1  0
 18 19  1  0
 18 16  1  0
 20 18  2  0
M  END
$$$$
