GPN.pdb
     RDKit          3D

 20 20  0  0  1  0  0  0  0  0999 V2000
   10.5245  -15.5354   15.8934 N   0  0  0  0  0  0  0  0  0  0  0  0
    9.3058  -15.3619   16.7238 C   0  0  0  0  0  0  0  0  0  0  0  0
    9.7081  -14.9614   18.0752 C   0  0  0  0  0  0  0  0  0  0  0  0
   10.7723  -15.5291   18.5139 O   0  0  0  0  0  0  0  0  0  0  0  0
    9.0718  -14.0499   18.9270 N   0  0  0  0  0  0  0  0  0  0  0  0
    8.2875  -12.9199   18.3039 C   0  0  0  0  0  0  0  0  0  0  0  0
    6.9933  -13.0850   19.0592 C   0  0  0  0  0  0  0  0  0  0  0  0
    7.3942  -13.5718   20.4303 C   0  0  0  0  0  0  0  0  0  0  0  0
    8.9273  -13.7629   20.2937 C   0  0  1  0  0  0  0  0  0  0  0  0
    9.4016  -14.6304   21.3430 C   0  0  0  0  0  0  0  0  0  0  0  0
    9.0175  -14.3468   22.5399 O   0  0  0  0  0  0  0  0  0  0  0  0
   10.6443  -18.9957   19.6094 N   0  0  0  0  0  0  0  0  0  0  0  0
   11.1858  -18.3548   20.7780 C   0  0  0  0  0  0  0  0  0  0  0  0
   12.4164  -18.0420   20.6847 O   0  0  0  0  0  0  0  0  0  0  0  0
   10.3508  -18.1026   21.9577 C   0  0  0  0  0  0  0  0  0  0  0  0
   10.4831  -16.6549   22.3904 C   0  0  2  0  0  0  0  0  0  0  0  0
   10.2279  -15.7652   21.2601 N   0  0  0  0  0  0  0  0  0  0  0  0
   11.7268  -16.3480   23.0818 C   0  0  0  0  0  0  0  0  0  0  0  0
   12.6132  -15.4109   22.5589 O   0  0  0  0  0  0  0  0  0  0  0  0
   12.0653  -16.8938   24.1571 O   0  0  0  0  0  0  0  0  0  0  0  0
  2  1  1  0
  3  4  2  0
  3  2  1  0
  5  3  1  0
  6  5  1  0
  7  8  1  0
  7  6  1  0
  8  9  1  0
  9 10  1  1
  9  5  1  0
 10 11  2  0
 12 13  1  0
 13 14  2  0
 13 15  1  0
 16 15  1  6
 17 10  1  0
 17 16  1  0
 18 19  1  0
 18 16  1  0
 20 18  2  0
M  END
$$$$
