MNP.pdb
     RDKit          3D

 24 24  0  0  1  0  0  0  0  0999 V2000
   20.2742  -21.4353   -9.3011 C   0  0  0  0  0  0  0  0  0  0  0  0
   18.9534  -22.0445  -10.4123 S   0  0  0  0  0  0  0  0  0  0  0  0
   19.5525  -21.8759  -12.1164 C   0  0  0  0  0  0  0  0  0  0  0  0
   20.5131  -20.7284  -12.2575 C   0  0  0  0  0  0  0  0  0  0  0  0
   21.1105  -20.6557  -13.6566 C   0  0  2  0  0  0  0  0  0  0  0  0
   21.0853  -21.9553  -14.2781 N   0  0  0  0  0  0  0  0  0  0  0  0
   22.5274  -20.2139  -13.4788 C   0  0  0  0  0  0  0  0  0  0  0  0
   22.7024  -19.0625  -13.0056 O   0  0  0  0  0  0  0  0  0  0  0  0
   27.7405  -20.2919  -11.7807 N   0  0  0  0  0  0  0  0  0  0  0  0
   27.1723  -21.0249  -12.8445 C   0  0  0  0  0  0  0  0  0  0  0  0
   27.8912  -21.3492  -13.8189 O   0  0  0  0  0  0  0  0  0  0  0  0
   25.7409  -21.4224  -12.8385 C   0  0  0  0  0  0  0  0  0  0  0  0
   24.9445  -20.5265  -13.7645 C   0  0  2  0  0  0  0  0  0  0  0  0
   23.6091  -21.0543  -13.8274 N   0  0  0  0  0  0  0  0  0  0  0  0
   25.5043  -20.3820  -15.1099 C   0  0  0  0  0  0  0  0  0  0  0  0
   25.0877  -21.1495  -16.0183 O   0  0  0  0  0  0  0  0  0  0  0  0
   26.4996  -19.4186  -15.4599 N   0  0  0  0  0  0  0  0  0  0  0  0
   27.3691  -18.6212  -14.6217 C   0  0  0  0  0  0  0  0  0  0  0  0
   27.6968  -17.3700  -15.4088 C   0  0  0  0  0  0  0  0  0  0  0  0
   26.8109  -17.4999  -16.6274 C   0  0  0  0  0  0  0  0  0  0  0  0
   26.8609  -19.0144  -16.8158 C   0  0  1  0  0  0  0  0  0  0  0  0
   28.1956  -19.4912  -17.2005 C   0  0  0  0  0  0  0  0  0  0  0  0
   28.6687  -19.1646  -18.4551 O   0  0  0  0  0  0  0  0  0  0  0  0
   28.9466  -20.1809  -16.4659 O   0  0  0  0  0  0  0  0  0  0  0  0
  1  2  1  0
  2  3  1  0
  4  3  1  0
  5  4  1  0
  5  6  1  1
  7  8  2  0
  7  5  1  0
  9 10  1  0
 10 12  1  0
 11 10  2  0
 13 12  1  1
 13 14  1  0
 14  7  1  0
 15 17  1  0
 15 13  1  0
 16 15  2  0
 17 18  1  0
 18 19  1  0
 20 19  1  0
 21 17  1  0
 21 20  1  0
 21 22  1  1
 22 23  1  0
 24 22  2  0
M  END
$$$$
