MNP.pdb
     RDKit          3D

 24 24  0  0  1  0  0  0  0  0999 V2000
   13.5048  -13.0608  -13.7342 C   0  0  0  0  0  0  0  0  0  0  0  0
   13.1095  -12.8775  -15.5119 S   0  0  0  0  0  0  0  0  0  0  0  0
   14.5294  -13.4997  -16.4542 C   0  0  0  0  0  0  0  0  0  0  0  0
   15.8273  -12.9486  -15.9335 C   0  0  0  0  0  0  0  0  0  0  0  0
   16.9898  -13.9010  -16.1814 C   0  0  2  0  0  0  0  0  0  0  0  0
   16.9553  -14.9871  -15.2353 N   0  0  0  0  0  0  0  0  0  0  0  0
   18.2335  -13.0978  -15.9754 C   0  0  0  0  0  0  0  0  0  0  0  0
   18.7101  -13.0874  -14.8122 O   0  0  0  0  0  0  0  0  0  0  0  0
   21.1763  -13.5355  -19.4110 N   0  0  0  0  0  0  0  0  0  0  0  0
   21.4654  -12.7642  -18.2650 C   0  0  0  0  0  0  0  0  0  0  0  0
   22.3062  -13.1871  -17.4370 O   0  0  0  0  0  0  0  0  0  0  0  0
   20.7970  -11.4612  -18.0149 C   0  0  0  0  0  0  0  0  0  0  0  0
   19.9575  -11.5360  -16.7564 C   0  0  2  0  0  0  0  0  0  0  0  0
   18.8361  -12.3893  -17.0396 N   0  0  0  0  0  0  0  0  0  0  0  0
   19.5027  -10.2417  -16.2444 C   0  0  0  0  0  0  0  0  0  0  0  0
   18.3304   -9.8678  -16.5161 O   0  0  0  0  0  0  0  0  0  0  0  0
   20.3097   -9.3704  -15.4502 N   0  0  0  0  0  0  0  0  0  0  0  0
   21.6440   -9.5515  -14.9198 C   0  0  0  0  0  0  0  0  0  0  0  0
   21.7325   -8.6941  -13.6750 C   0  0  0  0  0  0  0  0  0  0  0  0
   20.3140   -8.1966  -13.5101 C   0  0  0  0  0  0  0  0  0  0  0  0
   19.9282   -8.0418  -14.9794 C   0  0  1  0  0  0  0  0  0  0  0  0
   20.6831   -6.9764  -15.6515 C   0  0  0  0  0  0  0  0  0  0  0  0
   20.3345   -5.6664  -15.3926 O   0  0  0  0  0  0  0  0  0  0  0  0
   21.6320   -7.1698  -16.4525 O   0  0  0  0  0  0  0  0  0  0  0  0
  1  2  1  0
  2  3  1  0
  4  3  1  0
  5  4  1  0
  5  6  1  1
  7  8  2  0
  7  5  1  0
  9 10  1  0
 10 12  1  0
 11 10  2  0
 13 12  1  6
 13 14  1  0
 14  7  1  0
 15 17  1  0
 15 13  1  0
 16 15  2  0
 17 18  1  0
 18 19  1  0
 20 19  1  0
 21 17  1  0
 21 20  1  0
 21 22  1  6
 22 23  1  0
 24 22  2  0
M  END
$$$$
