MNP.pdb
     RDKit          3D

 24 24  0  0  1  0  0  0  0  0999 V2000
   29.6571  -23.0779  -18.2917 C   0  0  0  0  0  0  0  0  0  0  0  0
   29.7555  -21.5208  -19.2487 S   0  0  0  0  0  0  0  0  0  0  0  0
   29.7269  -20.1481  -18.0630 C   0  0  0  0  0  0  0  0  0  0  0  0
   29.3479  -20.6117  -16.6842 C   0  0  0  0  0  0  0  0  0  0  0  0
   27.9475  -20.1559  -16.2959 C   0  0  2  0  0  0  0  0  0  0  0  0
   27.9482  -18.7482  -15.9891 N   0  0  0  0  0  0  0  0  0  0  0  0
   27.5838  -20.9340  -15.0725 C   0  0  0  0  0  0  0  0  0  0  0  0
   27.6538  -22.1861  -15.1609 O   0  0  0  0  0  0  0  0  0  0  0  0
   24.7098  -20.4686   -9.9883 N   0  0  0  0  0  0  0  0  0  0  0  0
   25.7730  -21.1827  -10.5812 C   0  0  0  0  0  0  0  0  0  0  0  0
   25.9576  -22.3819  -10.2660 O   0  0  0  0  0  0  0  0  0  0  0  0
   26.6805  -20.5477  -11.5712 C   0  0  0  0  0  0  0  0  0  0  0  0
   26.3123  -20.9835  -12.9744 C   0  0  2  0  0  0  0  0  0  0  0  0
   27.1828  -20.2871  -13.8816 N   0  0  0  0  0  0  0  0  0  0  0  0
   24.9104  -20.7647  -13.3368 C   0  0  0  0  0  0  0  0  0  0  0  0
   24.5312  -19.5885  -13.5829 O   0  0  0  0  0  0  0  0  0  0  0  0
   23.9390  -21.8081  -13.4301 N   0  0  0  0  0  0  0  0  0  0  0  0
   24.0044  -23.1911  -13.0085 C   0  0  0  0  0  0  0  0  0  0  0  0
   23.0553  -23.9593  -13.9039 C   0  0  0  0  0  0  0  0  0  0  0  0
   22.6293  -22.9164  -14.9126 C   0  0  0  0  0  0  0  0  0  0  0  0
   22.6038  -21.6860  -14.0086 C   0  0  1  0  0  0  0  0  0  0  0  0
   21.5484  -21.7566  -12.9899 C   0  0  0  0  0  0  0  0  0  0  0  0
   21.9183  -22.0002  -11.6828 O   0  0  0  0  0  0  0  0  0  0  0  0
   20.3218  -21.6103  -13.2211 O   0  0  0  0  0  0  0  0  0  0  0  0
  1  2  1  0
  2  3  1  0
  4  3  1  0
  5  4  1  0
  5  6  1  1
  7  8  2  0
  7  5  1  0
  9 10  1  0
 10 12  1  0
 11 10  2  0
 13 12  1  1
 13 14  1  0
 14  7  1  0
 15 17  1  0
 15 13  1  0
 16 15  2  0
 17 18  1  0
 18 19  1  0
 20 19  1  0
 21 17  1  0
 21 20  1  0
 21 22  1  1
 22 23  1  0
 24 22  2  0
M  END
$$$$
