MNP.pdb
     RDKit          3D

 24 24  0  0  1  0  0  0  0  0999 V2000
   28.2804  -21.2663  -10.8918 C   0  0  0  0  0  0  0  0  0  0  0  0
   27.0320  -22.5476  -11.2786 S   0  0  0  0  0  0  0  0  0  0  0  0
   25.4646  -21.6987  -11.6162 C   0  0  0  0  0  0  0  0  0  0  0  0
   25.6650  -20.4811  -12.4746 C   0  0  0  0  0  0  0  0  0  0  0  0
   25.3809  -20.7676  -13.9433 C   0  0  2  0  0  0  0  0  0  0  0  0
   26.1306  -21.9174  -14.3813 N   0  0  0  0  0  0  0  0  0  0  0  0
   25.8349  -19.5585  -14.6957 C   0  0  0  0  0  0  0  0  0  0  0  0
   27.0676  -19.4687  -14.9251 O   0  0  0  0  0  0  0  0  0  0  0  0
   28.0339  -19.6483  -17.1085 N   0  0  0  0  0  0  0  0  0  0  0  0
   27.4431  -18.3687  -17.0350 C   0  0  0  0  0  0  0  0  0  0  0  0
   28.1678  -17.3703  -16.8129 O   0  0  0  0  0  0  0  0  0  0  0  0
   25.9811  -18.1750  -17.2145 C   0  0  0  0  0  0  0  0  0  0  0  0
   25.3847  -17.5202  -15.9858 C   0  0  2  0  0  0  0  0  0  0  0  0
   24.9182  -18.5715  -15.1238 N   0  0  0  0  0  0  0  0  0  0  0  0
   24.3092  -16.5651  -16.2605 C   0  0  0  0  0  0  0  0  0  0  0  0
   23.1715  -17.0140  -16.5636 O   0  0  0  0  0  0  0  0  0  0  0  0
   24.4695  -15.1465  -16.2054 N   0  0  0  0  0  0  0  0  0  0  0  0
   25.6592  -14.3434  -16.0199 C   0  0  0  0  0  0  0  0  0  0  0  0
   25.2067  -13.0428  -15.3904 C   0  0  0  0  0  0  0  0  0  0  0  0
   23.7419  -13.2970  -15.1139 C   0  0  0  0  0  0  0  0  0  0  0  0
   23.4013  -14.1584  -16.3278 C   0  0  1  0  0  0  0  0  0  0  0  0
   23.4782  -13.4106  -17.5894 C   0  0  0  0  0  0  0  0  0  0  0  0
   24.4689  -13.7483  -18.4889 O   0  0  0  0  0  0  0  0  0  0  0  0
   22.7021  -12.4771  -17.9146 O   0  0  0  0  0  0  0  0  0  0  0  0
  1  2  1  0
  2  3  1  0
  4  3  1  0
  5  4  1  0
  5  6  1  6
  7  8  2  0
  7  5  1  0
  9 10  1  0
 10 12  1  0
 11 10  2  0
 13 12  1  6
 13 14  1  0
 14  7  1  0
 15 17  1  0
 15 13  1  0
 16 15  2  0
 17 18  1  0
 18 19  1  0
 20 19  1  0
 21 17  1  0
 21 20  1  0
 21 22  1  6
 22 23  1  0
 24 22  2  0
M  END
$$$$
