MNP.pdb
     RDKit          3D

 24 24  0  0  1  0  0  0  0  0999 V2000
   32.6263  -21.3044   -8.1613 C   0  0  0  0  0  0  0  0  0  0  0  0
   33.3062  -22.4879   -9.3808 S   0  0  0  0  0  0  0  0  0  0  0  0
   32.3096  -22.3495  -10.8904 C   0  0  0  0  0  0  0  0  0  0  0  0
   30.8774  -22.0129  -10.5827 C   0  0  0  0  0  0  0  0  0  0  0  0
   29.9948  -22.0967  -11.8211 C   0  0  2  0  0  0  0  0  0  0  0  0
   30.7904  -21.9414  -13.0122 N   0  0  0  0  0  0  0  0  0  0  0  0
   29.0260  -20.9632  -11.7158 C   0  0  0  0  0  0  0  0  0  0  0  0
   28.3017  -20.9360  -10.6887 O   0  0  0  0  0  0  0  0  0  0  0  0
   25.7663  -19.2552  -16.0991 N   0  0  0  0  0  0  0  0  0  0  0  0
   26.4492  -18.5674  -15.0733 C   0  0  0  0  0  0  0  0  0  0  0  0
   25.9333  -17.5392  -14.5753 O   0  0  0  0  0  0  0  0  0  0  0  0
   27.7666  -19.0322  -14.5679 C   0  0  0  0  0  0  0  0  0  0  0  0
   27.6345  -19.5337  -13.1448 C   0  0  2  0  0  0  0  0  0  0  0  0
   28.9354  -19.9770  -12.7242 N   0  0  0  0  0  0  0  0  0  0  0  0
   26.6439  -20.5959  -12.9580 C   0  0  0  0  0  0  0  0  0  0  0  0
   26.8216  -21.6927  -13.5522 O   0  0  0  0  0  0  0  0  0  0  0  0
   25.4810  -20.4662  -12.1382 N   0  0  0  0  0  0  0  0  0  0  0  0
   25.0777  -19.4023  -11.2438 C   0  0  0  0  0  0  0  0  0  0  0  0
   24.1963  -20.0376  -10.1892 C   0  0  0  0  0  0  0  0  0  0  0  0
   24.3097  -21.5125  -10.5028 C   0  0  0  0  0  0  0  0  0  0  0  0
   24.3996  -21.4410  -12.0254 C   0  0  1  0  0  0  0  0  0  0  0  0
   23.1551  -20.9639  -12.6420 C   0  0  0  0  0  0  0  0  0  0  0  0
   22.0965  -21.8438  -12.7408 O   0  0  0  0  0  0  0  0  0  0  0  0
   22.9799  -19.8031  -13.0909 O   0  0  0  0  0  0  0  0  0  0  0  0
  1  2  1  0
  2  3  1  0
  4  3  1  0
  5  4  1  0
  5  6  1  6
  7  8  2  0
  7  5  1  0
  9 10  1  0
 10 12  1  0
 11 10  2  0
 13 12  1  6
 13 14  1  0
 14  7  1  0
 15 17  1  0
 15 13  1  0
 16 15  2  0
 17 18  1  0
 18 19  1  0
 20 19  1  0
 21 17  1  0
 21 20  1  0
 21 22  1  6
 22 23  1  0
 24 22  2  0
M  END
$$$$
