MNP.pdb
     RDKit          3D

 24 24  0  0  1  0  0  0  0  0999 V2000
   19.6518  -21.5349   -9.4004 C   0  0  0  0  0  0  0  0  0  0  0  0
   19.8544  -19.7499   -9.7510 S   0  0  0  0  0  0  0  0  0  0  0  0
   21.2854  -19.5684  -10.8513 C   0  0  0  0  0  0  0  0  0  0  0  0
   22.4390  -20.4247  -10.4095 C   0  0  0  0  0  0  0  0  0  0  0  0
   23.6888  -20.1684  -11.2415 C   0  0  2  0  0  0  0  0  0  0  0  0
   23.5378  -20.7366  -12.5568 N   0  0  0  0  0  0  0  0  0  0  0  0
   24.8089  -20.8531  -10.5267 C   0  0  0  0  0  0  0  0  0  0  0  0
   24.7234  -22.1021  -10.4130 O   0  0  0  0  0  0  0  0  0  0  0  0
   28.0936  -20.2630  -12.2577 N   0  0  0  0  0  0  0  0  0  0  0  0
   28.3579  -21.0576  -11.1216 C   0  0  0  0  0  0  0  0  0  0  0  0
   28.7036  -22.2526  -11.2758 O   0  0  0  0  0  0  0  0  0  0  0  0
   28.2365  -20.5121   -9.7451 C   0  0  0  0  0  0  0  0  0  0  0  0
   26.8618  -20.8097   -9.1831 C   0  0  2  0  0  0  0  0  0  0  0  0
   25.9043  -20.1257  -10.0083 N   0  0  0  0  0  0  0  0  0  0  0  0
   26.6820  -20.4450   -7.7763 C   0  0  0  0  0  0  0  0  0  0  0  0
   25.5217  -20.1631   -7.3735 O   0  0  0  0  0  0  0  0  0  0  0  0
   27.7464  -20.3889   -6.8249 N   0  0  0  0  0  0  0  0  0  0  0  0
   29.1478  -20.7223   -6.9646 C   0  0  0  0  0  0  0  0  0  0  0  0
   29.6352  -21.1188   -5.5870 C   0  0  0  0  0  0  0  0  0  0  0  0
   28.3618  -21.1281   -4.7715 C   0  0  0  0  0  0  0  0  0  0  0  0
   27.6296  -19.9628   -5.4332 C   0  0  1  0  0  0  0  0  0  0  0  0
   28.2875  -18.6725   -5.1902 C   0  0  0  0  0  0  0  0  0  0  0  0
   28.1159  -18.0741   -3.9585 O   0  0  0  0  0  0  0  0  0  0  0  0
   29.0020  -18.0664   -6.0278 O   0  0  0  0  0  0  0  0  0  0  0  0
  1  2  1  0
  2  3  1  0
  4  3  1  0
  5  4  1  0
  5  6  1  6
  7  8  2  0
  7  5  1  0
  9 10  1  0
 10 12  1  0
 11 10  2  0
 13 12  1  6
 13 14  1  0
 14  7  1  0
 15 17  1  0
 15 13  1  0
 16 15  2  0
 17 18  1  0
 18 19  1  0
 20 19  1  0
 21 17  1  0
 21 20  1  0
 21 22  1  6
 22 23  1  0
 24 22  2  0
M  END
$$$$
