MNP.pdb
     RDKit          3D

 24 24  0  0  1  0  0  0  0  0999 V2000
   26.0845  -19.3786   -4.0708 C   0  0  0  0  0  0  0  0  0  0  0  0
   27.0010  -20.7866   -4.7972 S   0  0  0  0  0  0  0  0  0  0  0  0
   27.7505  -20.2100   -6.3455 C   0  0  0  0  0  0  0  0  0  0  0  0
   26.7760  -20.2624   -7.4887 C   0  0  0  0  0  0  0  0  0  0  0  0
   27.3675  -19.6834   -8.7672 C   0  0  2  0  0  0  0  0  0  0  0  0
   27.5719  -18.2644   -8.6244 N   0  0  0  0  0  0  0  0  0  0  0  0
   26.3595  -19.9377   -9.8413 C   0  0  0  0  0  0  0  0  0  0  0  0
   25.3142  -19.2402   -9.8082 O   0  0  0  0  0  0  0  0  0  0  0  0
   27.6646  -19.2748  -13.3575 N   0  0  0  0  0  0  0  0  0  0  0  0
   27.6228  -20.6426  -13.7024 C   0  0  0  0  0  0  0  0  0  0  0  0
   28.4648  -21.0970  -14.5124 O   0  0  0  0  0  0  0  0  0  0  0  0
   26.6042  -21.5592  -13.1286 C   0  0  0  0  0  0  0  0  0  0  0  0
   25.8092  -20.8506  -12.0516 C   0  0  2  0  0  0  0  0  0  0  0  0
   26.5786  -20.9144  -10.8392 N   0  0  0  0  0  0  0  0  0  0  0  0
   24.4617  -21.3812  -11.8341 C   0  0  0  0  0  0  0  0  0  0  0  0
   24.2884  -22.2153  -10.9057 O   0  0  0  0  0  0  0  0  0  0  0  0
   23.3233  -21.0097  -12.6134 N   0  0  0  0  0  0  0  0  0  0  0  0
   23.2198  -20.1465  -13.7704 C   0  0  0  0  0  0  0  0  0  0  0  0
   21.8120  -19.5893  -13.7671 C   0  0  0  0  0  0  0  0  0  0  0  0
   21.2583  -20.0874  -12.4510 C   0  0  0  0  0  0  0  0  0  0  0  0
   21.9492  -21.4476  -12.3849 C   0  0  1  0  0  0  0  0  0  0  0  0
   21.4796  -22.3699  -13.4267 C   0  0  0  0  0  0  0  0  0  0  0  0
   22.2945  -22.5909  -14.5183 O   0  0  0  0  0  0  0  0  0  0  0  0
   20.3807  -22.9790  -13.3987 O   0  0  0  0  0  0  0  0  0  0  0  0
  1  2  1  0
  2  3  1  0
  4  3  1  0
  5  4  1  0
  5  6  1  1
  7  8  2  0
  7  5  1  0
  9 10  1  0
 10 12  1  0
 11 10  2  0
 13 12  1  6
 13 14  1  0
 14  7  1  0
 15 17  1  0
 15 13  1  0
 16 15  2  0
 17 18  1  0
 18 19  1  0
 20 19  1  0
 21 17  1  0
 21 20  1  0
 21 22  1  6
 22 23  1  0
 24 22  2  0
M  END
$$$$
