MNP.pdb
     RDKit          3D

 24 24  0  0  1  0  0  0  0  0999 V2000
   19.2641  -30.2956   -9.4598 C   0  0  0  0  0  0  0  0  0  0  0  0
   17.7843  -29.9617  -10.4838 S   0  0  0  0  0  0  0  0  0  0  0  0
   17.9221  -28.2629  -11.1053 C   0  0  0  0  0  0  0  0  0  0  0  0
   17.4905  -27.2569  -10.0753 C   0  0  0  0  0  0  0  0  0  0  0  0
   18.5956  -26.2580   -9.7579 C   0  0  2  0  0  0  0  0  0  0  0  0
   19.8390  -26.6858  -10.3467 N   0  0  0  0  0  0  0  0  0  0  0  0
   18.7260  -26.2448   -8.2689 C   0  0  0  0  0  0  0  0  0  0  0  0
   19.7413  -26.8091   -7.7881 O   0  0  0  0  0  0  0  0  0  0  0  0
   15.0958  -23.7959   -5.1272 N   0  0  0  0  0  0  0  0  0  0  0  0
   16.1828  -23.8915   -6.0222 C   0  0  0  0  0  0  0  0  0  0  0  0
   15.9883  -23.7021   -7.2460 O   0  0  0  0  0  0  0  0  0  0  0  0
   17.5543  -24.2118   -5.5495 C   0  0  0  0  0  0  0  0  0  0  0  0
   17.9661  -25.5880   -6.0300 C   0  0  2  0  0  0  0  0  0  0  0  0
   17.7528  -25.6273   -7.4508 N   0  0  0  0  0  0  0  0  0  0  0  0
   17.2732  -26.6993   -5.3748 C   0  0  0  0  0  0  0  0  0  0  0  0
   16.4195  -27.3476   -6.0372 O   0  0  0  0  0  0  0  0  0  0  0  0
   17.5061  -27.0979   -4.0228 N   0  0  0  0  0  0  0  0  0  0  0  0
   18.3491  -26.5104   -3.0036 C   0  0  0  0  0  0  0  0  0  0  0  0
   18.7359  -27.6336   -2.0648 C   0  0  0  0  0  0  0  0  0  0  0  0
   18.1779  -28.8562   -2.7583 C   0  0  0  0  0  0  0  0  0  0  0  0
   16.9092  -28.2511   -3.3549 C   0  0  1  0  0  0  0  0  0  0  0  0
   15.9360  -27.8563   -2.3284 C   0  0  0  0  0  0  0  0  0  0  0  0
   15.8519  -26.5215   -1.9879 O   0  0  0  0  0  0  0  0  0  0  0  0
   15.1666  -28.6502   -1.7309 O   0  0  0  0  0  0  0  0  0  0  0  0
  1  2  1  0
  2  3  1  0
  4  3  1  0
  5  4  1  0
  5  6  1  6
  7  8  2  0
  7  5  1  0
  9 10  1  0
 10 12  1  0
 11 10  2  0
 13 12  1  1
 13 14  1  0
 14  7  1  0
 15 17  1  0
 15 13  1  0
 16 15  2  0
 17 18  1  0
 18 19  1  0
 20 19  1  0
 21 17  1  0
 21 20  1  0
 21 22  1  1
 22 23  1  0
 24 22  2  0
M  END
$$$$
