MNP.pdb
     RDKit          3D

 24 24  0  0  1  0  0  0  0  0999 V2000
   21.1847  -15.6209  -22.1362 C   0  0  0  0  0  0  0  0  0  0  0  0
   20.3779  -14.5115  -20.9244 S   0  0  0  0  0  0  0  0  0  0  0  0
   21.6614  -13.4315  -20.2334 C   0  0  0  0  0  0  0  0  0  0  0  0
   21.0763  -12.3706  -19.3438 C   0  0  0  0  0  0  0  0  0  0  0  0
   22.1563  -11.5373  -18.6663 C   0  0  2  0  0  0  0  0  0  0  0  0
   23.0646  -12.3905  -17.9432 N   0  0  0  0  0  0  0  0  0  0  0  0
   21.4443  -10.6384  -17.7075 C   0  0  0  0  0  0  0  0  0  0  0  0
   20.5651  -11.1713  -16.9840 O   0  0  0  0  0  0  0  0  0  0  0  0
   19.6256   -8.4083  -13.6394 N   0  0  0  0  0  0  0  0  0  0  0  0
   20.9257   -8.2526  -14.1659 C   0  0  0  0  0  0  0  0  0  0  0  0
   21.6795   -7.3721  -13.6885 O   0  0  0  0  0  0  0  0  0  0  0  0
   21.4243   -9.1077  -15.2738 C   0  0  0  0  0  0  0  0  0  0  0  0
   21.1102   -8.4688  -16.6107 C   0  0  2  0  0  0  0  0  0  0  0  0
   21.7502   -9.2610  -17.6250 N   0  0  0  0  0  0  0  0  0  0  0  0
   21.5077   -7.0643  -16.7281 C   0  0  0  0  0  0  0  0  0  0  0  0
   22.7179   -6.8010  -16.9607 O   0  0  0  0  0  0  0  0  0  0  0  0
   20.6035   -5.9661  -16.5951 N   0  0  0  0  0  0  0  0  0  0  0  0
   19.2277   -5.9328  -16.1472 C   0  0  0  0  0  0  0  0  0  0  0  0
   18.5868   -4.7341  -16.8143 C   0  0  0  0  0  0  0  0  0  0  0  0
   19.6694   -4.2571  -17.7562 C   0  0  0  0  0  0  0  0  0  0  0  0
   20.8992   -4.5706  -16.9072 C   0  0  1  0  0  0  0  0  0  0  0  0
   20.9793   -3.7367  -15.7010 C   0  0  0  0  0  0  0  0  0  0  0  0
   21.3497   -2.4150  -15.8448 O   0  0  0  0  0  0  0  0  0  0  0  0
   20.7335   -4.1400  -14.5364 O   0  0  0  0  0  0  0  0  0  0  0  0
  1  2  1  0
  2  3  1  0
  4  3  1  0
  5  4  1  0
  5  6  1  1
  7  8  2  0
  7  5  1  0
  9 10  1  0
 10 12  1  0
 11 10  2  0
 13 12  1  1
 13 14  1  0
 14  7  1  0
 15 17  1  0
 15 13  1  0
 16 15  2  0
 17 18  1  0
 18 19  1  0
 20 19  1  0
 21 17  1  0
 21 20  1  0
 21 22  1  1
 22 23  1  0
 24 22  2  0
M  END
$$$$
