MNP.pdb
     RDKit          3D

 24 24  0  0  1  0  0  0  0  0999 V2000
   23.7354  -19.4112   -1.5290 C   0  0  0  0  0  0  0  0  0  0  0  0
   22.4313  -20.1226   -0.4597 S   0  0  0  0  0  0  0  0  0  0  0  0
   20.8283  -19.6337   -1.1544 C   0  0  0  0  0  0  0  0  0  0  0  0
   19.9933  -18.8850   -0.1536 C   0  0  0  0  0  0  0  0  0  0  0  0
   18.8447  -19.7331    0.3767 C   0  0  2  0  0  0  0  0  0  0  0  0
   18.0444  -20.2275   -0.7146 N   0  0  0  0  0  0  0  0  0  0  0  0
   18.0197  -18.8248    1.2302 C   0  0  0  0  0  0  0  0  0  0  0  0
   17.5803  -17.7826    0.6814 O   0  0  0  0  0  0  0  0  0  0  0  0
   15.2586  -21.2046    3.3801 N   0  0  0  0  0  0  0  0  0  0  0  0
   15.1357  -19.8028    3.4880 C   0  0  0  0  0  0  0  0  0  0  0  0
   14.1948  -19.2222    2.8972 O   0  0  0  0  0  0  0  0  0  0  0  0
   16.0953  -18.9965    4.2856 C   0  0  0  0  0  0  0  0  0  0  0  0
   16.9942  -18.1935    3.3683 C   0  0  2  0  0  0  0  0  0  0  0  0
   17.7522  -19.1296    2.5841 N   0  0  0  0  0  0  0  0  0  0  0  0
   17.8858  -17.2540    4.0514 C   0  0  0  0  0  0  0  0  0  0  0  0
   19.0659  -17.6197    4.2994 O   0  0  0  0  0  0  0  0  0  0  0  0
   17.4996  -15.9395    4.4566 N   0  0  0  0  0  0  0  0  0  0  0  0
   16.2358  -15.2482    4.3167 C   0  0  0  0  0  0  0  0  0  0  0  0
   16.5560  -13.7687    4.2824 C   0  0  0  0  0  0  0  0  0  0  0  0
   18.0677  -13.7545    4.2453 C   0  0  0  0  0  0  0  0  0  0  0  0
   18.3535  -14.9655    5.1306 C   0  0  1  0  0  0  0  0  0  0  0  0
   17.9547  -14.7496    6.5274 C   0  0  0  0  0  0  0  0  0  0  0  0
   18.7459  -13.9373    7.3140 O   0  0  0  0  0  0  0  0  0  0  0  0
   16.9370  -15.2539    7.0655 O   0  0  0  0  0  0  0  0  0  0  0  0
  1  2  1  0
  2  3  1  0
  4  3  1  0
  5  4  1  0
  5  6  1  6
  7  8  2  0
  7  5  1  0
  9 10  1  0
 10 12  1  0
 11 10  2  0
 13 12  1  1
 13 14  1  0
 14  7  1  0
 15 17  1  0
 15 13  1  0
 16 15  2  0
 17 18  1  0
 18 19  1  0
 20 19  1  0
 21 17  1  0
 21 20  1  0
 21 22  1  1
 22 23  1  0
 24 22  2  0
M  END
$$$$
