MNP.pdb
     RDKit          3D

 24 24  0  0  1  0  0  0  0  0999 V2000
   28.0281  -12.3525  -16.1987 C   0  0  0  0  0  0  0  0  0  0  0  0
   27.3473  -13.3194  -14.8016 S   0  0  0  0  0  0  0  0  0  0  0  0
   25.6615  -13.8165  -15.2516 C   0  0  0  0  0  0  0  0  0  0  0  0
   24.8363  -12.6428  -15.6997 C   0  0  0  0  0  0  0  0  0  0  0  0
   23.3963  -13.0403  -15.9965 C   0  0  2  0  0  0  0  0  0  0  0  0
   23.3481  -13.9346  -17.1251 N   0  0  0  0  0  0  0  0  0  0  0  0
   22.6783  -11.7729  -16.3319 C   0  0  0  0  0  0  0  0  0  0  0  0
   22.8750  -11.3022  -17.4809 O   0  0  0  0  0  0  0  0  0  0  0  0
   18.3928   -8.0121  -14.7932 N   0  0  0  0  0  0  0  0  0  0  0  0
   18.9925   -8.7960  -15.8019 C   0  0  0  0  0  0  0  0  0  0  0  0
   18.9207   -8.4196  -16.9955 O   0  0  0  0  0  0  0  0  0  0  0  0
   19.7083  -10.0585  -15.4841 C   0  0  0  0  0  0  0  0  0  0  0  0
   21.1887   -9.9067  -15.7662 C   0  0  2  0  0  0  0  0  0  0  0  0
   21.8237  -11.1427  -15.3990 N   0  0  0  0  0  0  0  0  0  0  0  0
   21.8298   -8.7779  -15.0887 C   0  0  0  0  0  0  0  0  0  0  0  0
   22.3828   -8.9825  -13.9751 O   0  0  0  0  0  0  0  0  0  0  0  0
   21.8686   -7.4501  -15.6146 N   0  0  0  0  0  0  0  0  0  0  0  0
   21.2997   -6.9050  -16.8287 C   0  0  0  0  0  0  0  0  0  0  0  0
   22.1625   -5.7223  -17.2151 C   0  0  0  0  0  0  0  0  0  0  0  0
   23.2993   -5.7987  -16.2208 C   0  0  0  0  0  0  0  0  0  0  0  0
   22.5339   -6.3046  -15.0002 C   0  0  1  0  0  0  0  0  0  0  0  0
   21.5769   -5.3167  -14.4855 C   0  0  0  0  0  0  0  0  0  0  0  0
   22.0614   -4.2768  -13.7184 O   0  0  0  0  0  0  0  0  0  0  0  0
   20.3377   -5.3475  -14.6930 O   0  0  0  0  0  0  0  0  0  0  0  0
  1  2  1  0
  2  3  1  0
  4  3  1  0
  5  4  1  0
  5  6  1  6
  7  8  2  0
  7  5  1  0
  9 10  1  0
 10 12  1  0
 11 10  2  0
 13 12  1  1
 13 14  1  0
 14  7  1  0
 15 17  1  0
 15 13  1  0
 16 15  2  0
 17 18  1  0
 18 19  1  0
 20 19  1  0
 21 17  1  0
 21 20  1  0
 21 22  1  6
 22 23  1  0
 24 22  2  0
M  END
$$$$
