MNP.pdb
     RDKit          3D

 24 24  0  0  1  0  0  0  0  0999 V2000
   19.0715  -20.9458    5.6664 C   0  0  0  0  0  0  0  0  0  0  0  0
   19.0317  -21.4132    3.8972 S   0  0  0  0  0  0  0  0  0  0  0  0
   17.7081  -20.4552    3.1087 C   0  0  0  0  0  0  0  0  0  0  0  0
   17.8688  -18.9804    3.3507 C   0  0  0  0  0  0  0  0  0  0  0  0
   16.7536  -18.1725    2.7000 C   0  0  2  0  0  0  0  0  0  0  0  0
   16.8652  -18.2339    1.2649 N   0  0  0  0  0  0  0  0  0  0  0  0
   16.9444  -16.7620    3.1565 C   0  0  0  0  0  0  0  0  0  0  0  0
   17.7304  -16.0529    2.4785 O   0  0  0  0  0  0  0  0  0  0  0  0
   14.8298  -13.2432    3.3515 N   0  0  0  0  0  0  0  0  0  0  0  0
   14.4907  -13.5567    4.6851 C   0  0  0  0  0  0  0  0  0  0  0  0
   13.4442  -13.0768    5.1810 O   0  0  0  0  0  0  0  0  0  0  0  0
   15.3444  -14.4429    5.5174 C   0  0  0  0  0  0  0  0  0  0  0  0
   16.5433  -14.9144    4.7208 C   0  0  2  0  0  0  0  0  0  0  0  0
   16.2715  -16.2595    4.2933 N   0  0  0  0  0  0  0  0  0  0  0  0
   17.8193  -14.8501    5.4364 C   0  0  0  0  0  0  0  0  0  0  0  0
   18.3825  -15.9310    5.7564 O   0  0  0  0  0  0  0  0  0  0  0  0
   18.4707  -13.6306    5.7965 N   0  0  0  0  0  0  0  0  0  0  0  0
   18.0961  -12.2562    5.5414 C   0  0  0  0  0  0  0  0  0  0  0  0
   19.3812  -11.4558    5.5244 C   0  0  0  0  0  0  0  0  0  0  0  0
   20.4439  -12.5274    5.6197 C   0  0  0  0  0  0  0  0  0  0  0  0
   19.7249  -13.5154    6.5355 C   0  0  1  0  0  0  0  0  0  0  0  0
   19.5246  -12.9854    7.8904 C   0  0  0  0  0  0  0  0  0  0  0  0
   20.5991  -12.9847    8.7564 O   0  0  0  0  0  0  0  0  0  0  0  0
   18.4376  -12.5279    8.3247 O   0  0  0  0  0  0  0  0  0  0  0  0
  1  2  1  0
  2  3  1  0
  4  3  1  0
  5  4  1  0
  5  6  1  6
  7  8  2  0
  7  5  1  0
  9 10  1  0
 10 12  1  0
 11 10  2  0
 13 12  1  1
 13 14  1  0
 14  7  1  0
 15 17  1  0
 15 13  1  0
 16 15  2  0
 17 18  1  0
 18 19  1  0
 20 19  1  0
 21 17  1  0
 21 20  1  0
 21 22  1  1
 22 23  1  0
 24 22  2  0
M  END
$$$$
