DTD.pdb
     RDKit          3D

 24 23  0  0  1  0  0  0  0  0999 V2000
    7.8726  -16.8801   16.4688 N   0  0  0  0  0  0  0  0  0  0  0  0
    9.2952  -16.6063   16.5257 C   0  0  1  0  0  0  0  0  0  0  0  0
    9.7120  -15.8299   15.2956 C   0  0  0  0  0  0  0  0  0  0  0  0
    9.4560  -16.6287   14.0865 C   0  0  0  0  0  0  0  0  0  0  0  0
    9.6303  -17.8610   14.0974 O   0  0  0  0  0  0  0  0  0  0  0  0
    9.6610  -15.8900   17.7743 C   0  0  0  0  0  0  0  0  0  0  0  0
   10.8606  -15.5980   18.0120 O   0  0  0  0  0  0  0  0  0  0  0  0
    9.0216  -16.0089   12.9386 O   0  0  0  0  0  0  0  0  0  0  0  0
    7.5236  -12.9918   19.6460 C   0  0  0  0  0  0  0  0  0  0  0  0
    7.8808  -14.1336   20.6061 C   0  0  1  0  0  0  0  0  0  0  0  0
    6.7770  -14.9795   20.7598 O   0  0  0  0  0  0  0  0  0  0  0  0
    9.0503  -14.8728   19.9854 C   0  0  2  0  0  0  0  0  0  0  0  0
    8.6998  -15.5042   18.7457 N   0  0  0  0  0  0  0  0  0  0  0  0
    9.5321  -15.8479   20.9981 C   0  0  0  0  0  0  0  0  0  0  0  0
    9.2033  -17.0594   21.0135 O   0  0  0  0  0  0  0  0  0  0  0  0
   10.4293  -15.4666   22.0571 N   0  0  0  0  0  0  0  0  0  0  0  0
   10.7828  -16.3665   23.1349 C   0  0  1  0  0  0  0  0  0  0  0  0
   12.1831  -16.1365   23.6501 C   0  0  0  0  0  0  0  0  0  0  0  0
   13.2252  -16.5336   22.7003 C   0  0  0  0  0  0  0  0  0  0  0  0
   13.0817  -17.4360   21.8582 O   0  0  0  0  0  0  0  0  0  0  0  0
    9.8624  -16.0977   24.2635 C   0  0  0  0  0  0  0  0  0  0  0  0
    9.1439  -15.0703   24.2460 O   0  0  0  0  0  0  0  0  0  0  0  0
   14.4362  -15.8737   22.7364 O   0  0  0  0  0  0  0  0  0  0  0  0
    9.7624  -16.9558   25.3613 O   0  0  0  0  0  0  0  0  0  0  0  0
  2  1  1  6
  2  3  1  0
  3  4  1  0
  4  8  1  0
  5  4  2  0
  6  2  1  0
  7  6  2  0
 10  9  1  6
 10 12  1  0
 11 10  1  0
 12 14  1  0
 12 13  1  6
 13  6  1  0
 14 16  1  0
 15 14  2  0
 16 17  1  0
 17 18  1  1
 17 21  1  0
 18 19  1  0
 19 20  2  0
 19 23  1  0
 21 22  2  0
 21 24  1  0
M  END
$$$$
