DTD.pdb
     RDKit          3D

 24 23  0  0  1  0  0  0  0  0999 V2000
    7.5886  -16.7220   16.2916 N   0  0  0  0  0  0  0  0  0  0  0  0
    8.8838  -16.1170   16.0497 C   0  0  1  0  0  0  0  0  0  0  0  0
    8.7952  -15.1880   14.8587 C   0  0  0  0  0  0  0  0  0  0  0  0
    8.4781  -15.9564   13.6444 C   0  0  0  0  0  0  0  0  0  0  0  0
    7.6038  -15.5540   12.8551 O   0  0  0  0  0  0  0  0  0  0  0  0
    9.3883  -15.4128   17.2561 C   0  0  0  0  0  0  0  0  0  0  0  0
   10.5424  -14.9138   17.2654 O   0  0  0  0  0  0  0  0  0  0  0  0
    9.1522  -17.1255   13.3812 O   0  0  0  0  0  0  0  0  0  0  0  0
    7.7558  -12.6827   19.4758 C   0  0  0  0  0  0  0  0  0  0  0  0
    8.0982  -13.8698   20.3850 C   0  0  1  0  0  0  0  0  0  0  0  0
    6.9425  -14.6182   20.6340 O   0  0  0  0  0  0  0  0  0  0  0  0
    9.1333  -14.6970   19.6477 C   0  0  2  0  0  0  0  0  0  0  0  0
    8.6143  -15.2670   18.4377 N   0  0  0  0  0  0  0  0  0  0  0  0
    9.6153  -15.7333   20.5975 C   0  0  0  0  0  0  0  0  0  0  0  0
    9.2287  -16.9276   20.5840 O   0  0  0  0  0  0  0  0  0  0  0  0
   10.5803  -15.4372   21.6235 N   0  0  0  0  0  0  0  0  0  0  0  0
   11.1083  -16.4550   22.5078 C   0  0  1  0  0  0  0  0  0  0  0  0
   12.4453  -16.0770   23.0985 C   0  0  0  0  0  0  0  0  0  0  0  0
   13.5319  -16.0614   22.1162 C   0  0  0  0  0  0  0  0  0  0  0  0
   13.5420  -16.7611   21.0894 O   0  0  0  0  0  0  0  0  0  0  0  0
   10.1653  -16.5977   23.6407 C   0  0  0  0  0  0  0  0  0  0  0  0
    9.3103  -15.7052   23.8516 O   0  0  0  0  0  0  0  0  0  0  0  0
   14.6076  -15.2261   22.3365 O   0  0  0  0  0  0  0  0  0  0  0  0
   10.1917  -17.7028   24.4948 O   0  0  0  0  0  0  0  0  0  0  0  0
  2  1  1  1
  2  3  1  0
  3  4  1  0
  4  8  1  0
  5  4  2  0
  6  2  1  0
  7  6  2  0
 10  9  1  6
 10 12  1  0
 11 10  1  0
 12 14  1  0
 12 13  1  6
 13  6  1  0
 14 16  1  0
 15 14  2  0
 16 17  1  0
 17 18  1  1
 17 21  1  0
 18 19  1  0
 19 20  2  0
 19 23  1  0
 21 22  2  0
 21 24  1  0
M  END
$$$$
