DTD.pdb
     RDKit          3D

 24 23  0  0  1  0  0  0  0  0999 V2000
   12.1142  -15.6594   16.6409 N   0  0  0  0  0  0  0  0  0  0  0  0
   13.0725  -15.2565   17.6516 C   0  0  1  0  0  0  0  0  0  0  0  0
   14.0722  -14.2945   17.0478 C   0  0  0  0  0  0  0  0  0  0  0  0
   14.8095  -14.9539   15.9582 C   0  0  0  0  0  0  0  0  0  0  0  0
   15.2003  -16.1289   16.0834 O   0  0  0  0  0  0  0  0  0  0  0  0
   12.3972  -14.6705   18.8375 C   0  0  0  0  0  0  0  0  0  0  0  0
   13.0738  -14.1816   19.7778 O   0  0  0  0  0  0  0  0  0  0  0  0
   15.0674  -14.2669   14.7955 O   0  0  0  0  0  0  0  0  0  0  0  0
    8.9997  -12.4361   19.1628 C   0  0  0  0  0  0  0  0  0  0  0  0
    8.9025  -13.7601   19.9313 C   0  0  1  0  0  0  0  0  0  0  0  0
    8.1967  -14.6952   19.1665 O   0  0  0  0  0  0  0  0  0  0  0  0
   10.3248  -14.2232   20.1798 C   0  0  2  0  0  0  0  0  0  0  0  0
   10.9842  -14.6304   18.9725 N   0  0  0  0  0  0  0  0  0  0  0  0
   10.2540  -15.3195   21.1807 C   0  0  0  0  0  0  0  0  0  0  0  0
   10.3373  -16.5379   20.8895 O   0  0  0  0  0  0  0  0  0  0  0  0
   10.0811  -15.0591   22.5856 N   0  0  0  0  0  0  0  0  0  0  0  0
   10.0800  -16.1161   23.5753 C   0  0  1  0  0  0  0  0  0  0  0  0
   10.1062  -15.5895   24.9899 C   0  0  0  0  0  0  0  0  0  0  0  0
   10.5422  -16.5839   25.9732 C   0  0  0  0  0  0  0  0  0  0  0  0
   10.8553  -17.7502   25.6805 O   0  0  0  0  0  0  0  0  0  0  0  0
    8.8152  -16.8711   23.4234 C   0  0  0  0  0  0  0  0  0  0  0  0
    8.7476  -18.0553   23.8301 O   0  0  0  0  0  0  0  0  0  0  0  0
   10.6117  -16.2126   27.3000 O   0  0  0  0  0  0  0  0  0  0  0  0
    7.6794  -16.3078   22.8368 O   0  0  0  0  0  0  0  0  0  0  0  0
  2  1  1  6
  2  3  1  0
  3  4  1  0
  4  8  1  0
  5  4  2  0
  6  2  1  0
  7  6  2  0
 10  9  1  6
 10 12  1  0
 11 10  1  0
 12 14  1  0
 12 13  1  6
 13  6  1  0
 14 16  1  0
 15 14  2  0
 16 17  1  0
 17 18  1  1
 17 21  1  0
 18 19  1  0
 19 20  2  0
 19 23  1  0
 21 22  2  0
 21 24  1  0
M  END
$$$$
