DTD.pdb
     RDKit          3D

 24 23  0  0  1  0  0  0  0  0999 V2000
    7.8894  -15.4397   14.9778 N   0  0  0  0  0  0  0  0  0  0  0  0
    9.1624  -16.0251   15.3506 C   0  0  1  0  0  0  0  0  0  0  0  0
   10.1148  -15.9576   14.1768 C   0  0  0  0  0  0  0  0  0  0  0  0
    9.5735  -16.7272   13.0453 C   0  0  0  0  0  0  0  0  0  0  0  0
   10.2750  -16.9484   12.0413 O   0  0  0  0  0  0  0  0  0  0  0  0
    9.7310  -15.3671   16.5546 C   0  0  0  0  0  0  0  0  0  0  0  0
   10.9164  -14.9480   16.5504 O   0  0  0  0  0  0  0  0  0  0  0  0
    8.2850  -17.2041   13.0988 O   0  0  0  0  0  0  0  0  0  0  0  0
    7.7228  -12.8486   18.9233 C   0  0  0  0  0  0  0  0  0  0  0  0
    8.4256  -13.9148   19.7730 C   0  0  1  0  0  0  0  0  0  0  0  0
    7.5003  -14.8900   20.1609 O   0  0  0  0  0  0  0  0  0  0  0  0
    9.5148  -14.5137   18.9044 C   0  0  2  0  0  0  0  0  0  0  0  0
    8.9859  -15.1793   17.7488 N   0  0  0  0  0  0  0  0  0  0  0  0
   10.3041  -15.4283   19.7698 C   0  0  0  0  0  0  0  0  0  0  0  0
   10.2553  -16.6803   19.6909 O   0  0  0  0  0  0  0  0  0  0  0  0
   11.2005  -14.9354   20.7823 N   0  0  0  0  0  0  0  0  0  0  0  0
   11.9524  -15.8192   21.6485 C   0  0  1  0  0  0  0  0  0  0  0  0
   13.2067  -15.1762   22.1893 C   0  0  0  0  0  0  0  0  0  0  0  0
   14.0069  -16.0741   23.0256 C   0  0  0  0  0  0  0  0  0  0  0  0
   13.8221  -17.3010   23.0910 O   0  0  0  0  0  0  0  0  0  0  0  0
   11.0977  -16.1373   22.8152 C   0  0  0  0  0  0  0  0  0  0  0  0
   11.4795  -16.9934   23.6481 O   0  0  0  0  0  0  0  0  0  0  0  0
   15.0241  -15.5349   23.7857 O   0  0  0  0  0  0  0  0  0  0  0  0
    9.8664  -15.5125   23.0267 O   0  0  0  0  0  0  0  0  0  0  0  0
  2  1  1  6
  2  3  1  0
  3  4  1  0
  4  8  1  0
  5  4  2  0
  6  2  1  0
  7  6  2  0
 10  9  1  6
 10 12  1  0
 11 10  1  0
 12 14  1  0
 12 13  1  6
 13  6  1  0
 14 16  1  0
 15 14  2  0
 16 17  1  0
 17 18  1  1
 17 21  1  0
 18 19  1  0
 19 20  2  0
 19 23  1  0
 21 22  2  0
 21 24  1  0
M  END
$$$$
