DTD.pdb
     RDKit          3D

 24 23  0  0  1  0  0  0  0  0999 V2000
    8.5800  -16.6254   15.0090 N   0  0  0  0  0  0  0  0  0  0  0  0
    8.0573  -17.0093   16.3057 C   0  0  1  0  0  0  0  0  0  0  0  0
    8.1874  -18.5064   16.4821 C   0  0  0  0  0  0  0  0  0  0  0  0
    7.5032  -19.2035   15.3814 C   0  0  0  0  0  0  0  0  0  0  0  0
    8.0693  -20.1319   14.7758 O   0  0  0  0  0  0  0  0  0  0  0  0
    8.7303  -16.2689   17.4034 C   0  0  0  0  0  0  0  0  0  0  0  0
    9.9696  -16.0605   17.3636 O   0  0  0  0  0  0  0  0  0  0  0  0
    6.2312  -18.8262   15.0208 O   0  0  0  0  0  0  0  0  0  0  0  0
    7.2378  -13.1208   19.4263 C   0  0  0  0  0  0  0  0  0  0  0  0
    7.7220  -14.2058   20.3965 C   0  0  1  0  0  0  0  0  0  0  0  0
    6.6263  -14.9399   20.8635 O   0  0  0  0  0  0  0  0  0  0  0  0
    8.6767  -15.0898   19.6178 C   0  0  2  0  0  0  0  0  0  0  0  0
    8.0290  -15.7673   18.5316 N   0  0  0  0  0  0  0  0  0  0  0  0
    9.2819  -16.0356   20.5913 C   0  0  0  0  0  0  0  0  0  0  0  0
    9.1649  -17.2835   20.5185 O   0  0  0  0  0  0  0  0  0  0  0  0
   10.0623  -15.5806   21.7118 N   0  0  0  0  0  0  0  0  0  0  0  0
   10.8654  -16.4803   22.5133 C   0  0  1  0  0  0  0  0  0  0  0  0
   12.3471  -16.2871   22.2979 C   0  0  0  0  0  0  0  0  0  0  0  0
   13.1757  -17.1389   23.1544 C   0  0  0  0  0  0  0  0  0  0  0  0
   13.8731  -16.7064   24.0874 O   0  0  0  0  0  0  0  0  0  0  0  0
   10.5966  -16.1735   23.9369 C   0  0  0  0  0  0  0  0  0  0  0  0
   10.0371  -15.0940   24.2434 O   0  0  0  0  0  0  0  0  0  0  0  0
   13.1877  -18.4981   22.9184 O   0  0  0  0  0  0  0  0  0  0  0  0
   10.9469  -17.0517   24.9652 O   0  0  0  0  0  0  0  0  0  0  0  0
  2  1  1  6
  2  3  1  0
  3  4  1  0
  4  8  1  0
  5  4  2  0
  6  2  1  0
  7  6  2  0
 10  9  1  6
 10 12  1  0
 11 10  1  0
 12 14  1  0
 12 13  1  6
 13  6  1  0
 14 16  1  0
 15 14  2  0
 16 17  1  0
 17 18  1  6
 17 21  1  0
 18 19  1  0
 19 20  2  0
 19 23  1  0
 21 22  2  0
 21 24  1  0
M  END
$$$$
