DTD.pdb
     RDKit          3D

 24 23  0  0  1  0  0  0  0  0999 V2000
    7.3958  -17.7353   17.7893 N   0  0  0  0  0  0  0  0  0  0  0  0
    8.8132  -17.4747   17.6308 C   0  0  1  0  0  0  0  0  0  0  0  0
    9.0676  -16.8642   16.2699 C   0  0  0  0  0  0  0  0  0  0  0  0
    8.6126  -17.7826   15.2139 C   0  0  0  0  0  0  0  0  0  0  0  0
    7.7473  -17.4216   14.3954 O   0  0  0  0  0  0  0  0  0  0  0  0
    9.3324  -16.6121   18.7227 C   0  0  0  0  0  0  0  0  0  0  0  0
   10.5080  -16.1684   18.6784 O   0  0  0  0  0  0  0  0  0  0  0  0
    9.1471  -19.0468   15.1322 O   0  0  0  0  0  0  0  0  0  0  0  0
    7.4078  -13.7339   20.7507 C   0  0  0  0  0  0  0  0  0  0  0  0
    7.9940  -14.7663   21.7220 C   0  0  1  0  0  0  0  0  0  0  0  0
    6.9848  -15.6386   22.1442 O   0  0  0  0  0  0  0  0  0  0  0  0
    9.0746  -15.5117   20.9631 C   0  0  2  0  0  0  0  0  0  0  0  0
    8.5492  -16.2490   19.8502 N   0  0  0  0  0  0  0  0  0  0  0  0
    9.7658  -16.3883   21.9442 C   0  0  0  0  0  0  0  0  0  0  0  0
    9.5552  -17.6214   22.0492 O   0  0  0  0  0  0  0  0  0  0  0  0
   10.7472  -15.8768   22.8644 N   0  0  0  0  0  0  0  0  0  0  0  0
   11.3973  -16.7157   23.8495 C   0  0  1  0  0  0  0  0  0  0  0  0
   12.7479  -16.1853   24.2661 C   0  0  0  0  0  0  0  0  0  0  0  0
   13.7325  -16.1841   23.1815 C   0  0  0  0  0  0  0  0  0  0  0  0
   13.5968  -16.8283   22.1278 O   0  0  0  0  0  0  0  0  0  0  0  0
   10.5480  -16.7231   25.0626 C   0  0  0  0  0  0  0  0  0  0  0  0
    9.5763  -15.9347   25.1438 O   0  0  0  0  0  0  0  0  0  0  0  0
   14.8768  -15.4280   23.3309 O   0  0  0  0  0  0  0  0  0  0  0  0
   10.7905  -17.5858   26.1342 O   0  0  0  0  0  0  0  0  0  0  0  0
  2  1  1  1
  2  3  1  0
  3  4  1  0
  4  8  1  0
  5  4  2  0
  6  2  1  0
  7  6  2  0
 10  9  1  6
 10 12  1  0
 11 10  1  0
 12 14  1  0
 12 13  1  6
 13  6  1  0
 14 16  1  0
 15 14  2  0
 16 17  1  0
 17 18  1  1
 17 21  1  0
 18 19  1  0
 19 20  2  0
 19 23  1  0
 21 22  2  0
 21 24  1  0
M  END
$$$$
