DTD.pdb
     RDKit          3D

 24 23  0  0  1  0  0  0  0  0999 V2000
    8.2227  -16.8821   15.7962 N   0  0  0  0  0  0  0  0  0  0  0  0
    7.8552  -17.2695   17.1441 C   0  0  1  0  0  0  0  0  0  0  0  0
    8.0479  -18.7607   17.3137 C   0  0  0  0  0  0  0  0  0  0  0  0
    7.1449  -19.4903   16.4094 C   0  0  0  0  0  0  0  0  0  0  0  0
    6.0047  -19.8168   16.7868 O   0  0  0  0  0  0  0  0  0  0  0  0
    8.6208  -16.5005   18.1581 C   0  0  0  0  0  0  0  0  0  0  0  0
    9.8140  -16.1704   17.9385 O   0  0  0  0  0  0  0  0  0  0  0  0
    7.5643  -19.8125   15.1402 O   0  0  0  0  0  0  0  0  0  0  0  0
    7.0983  -13.5237   20.3578 C   0  0  0  0  0  0  0  0  0  0  0  0
    7.8385  -14.5199   21.2592 C   0  0  1  0  0  0  0  0  0  0  0  0
    6.9136  -15.3632   21.8846 O   0  0  0  0  0  0  0  0  0  0  0  0
    8.7720  -15.3078   20.3607 C   0  0  2  0  0  0  0  0  0  0  0  0
    8.0619  -16.1046   19.4020 N   0  0  0  0  0  0  0  0  0  0  0  0
    9.6350  -16.1300   21.2484 C   0  0  0  0  0  0  0  0  0  0  0  0
    9.5200  -17.3733   21.3784 O   0  0  0  0  0  0  0  0  0  0  0  0
   10.6872  -15.5487   22.0400 N   0  0  0  0  0  0  0  0  0  0  0  0
   11.5526  -16.3459   22.8839 C   0  0  1  0  0  0  0  0  0  0  0  0
   12.8750  -15.6730   23.1628 C   0  0  0  0  0  0  0  0  0  0  0  0
   13.7879  -16.4928   23.9630 C   0  0  0  0  0  0  0  0  0  0  0  0
   14.0376  -16.2759   25.1606 O   0  0  0  0  0  0  0  0  0  0  0  0
   10.8746  -16.5139   24.1897 C   0  0  0  0  0  0  0  0  0  0  0  0
   11.3303  -17.3314   25.0241 O   0  0  0  0  0  0  0  0  0  0  0  0
   14.4087  -17.5674   23.3604 O   0  0  0  0  0  0  0  0  0  0  0  0
    9.7318  -15.7873   24.5324 O   0  0  0  0  0  0  0  0  0  0  0  0
  2  1  1  6
  2  3  1  0
  3  4  1  0
  4  8  1  0
  5  4  2  0
  6  2  1  0
  7  6  2  0
 10  9  1  6
 10 12  1  0
 11 10  1  0
 12 14  1  0
 12 13  1  6
 13  6  1  0
 14 16  1  0
 15 14  2  0
 16 17  1  0
 17 18  1  1
 17 21  1  0
 18 19  1  0
 19 20  2  0
 19 23  1  0
 21 22  2  0
 21 24  1  0
M  END
$$$$
