DTD.pdb
     RDKit          3D

 24 23  0  0  1  0  0  0  0  0999 V2000
    8.1981  -16.7978   15.9707 N   0  0  0  0  0  0  0  0  0  0  0  0
    9.5028  -16.1654   15.9564 C   0  0  1  0  0  0  0  0  0  0  0  0
    9.5791  -15.1858   14.8058 C   0  0  0  0  0  0  0  0  0  0  0  0
    9.4243  -15.8987   13.5277 C   0  0  0  0  0  0  0  0  0  0  0  0
    8.4183  -15.7101   12.8194 O   0  0  0  0  0  0  0  0  0  0  0  0
    9.8022  -15.5086   17.2544 C   0  0  0  0  0  0  0  0  0  0  0  0
   10.9794  -15.1715   17.5401 O   0  0  0  0  0  0  0  0  0  0  0  0
   10.3973  -16.7779   13.1146 O   0  0  0  0  0  0  0  0  0  0  0  0
    7.3159  -13.0074   19.2315 C   0  0  0  0  0  0  0  0  0  0  0  0
    7.8575  -14.0887   20.1752 C   0  0  1  0  0  0  0  0  0  0  0  0
    6.8822  -15.0731   20.3689 O   0  0  0  0  0  0  0  0  0  0  0  0
    9.0903  -14.6683   19.5091 C   0  0  2  0  0  0  0  0  0  0  0  0
    8.8004  -15.2315   18.2219 N   0  0  0  0  0  0  0  0  0  0  0  0
    9.6582  -15.6706   20.4480 C   0  0  0  0  0  0  0  0  0  0  0  0
    9.7211  -16.9003   20.2032 O   0  0  0  0  0  0  0  0  0  0  0  0
   10.1884  -15.2970   21.7329 N   0  0  0  0  0  0  0  0  0  0  0  0
   10.7279  -16.2687   22.6609 C   0  0  1  0  0  0  0  0  0  0  0  0
   12.2337  -16.2119   22.7538 C   0  0  0  0  0  0  0  0  0  0  0  0
   12.7975  -17.1998   23.6769 C   0  0  0  0  0  0  0  0  0  0  0  0
   12.5085  -18.4080   23.6530 O   0  0  0  0  0  0  0  0  0  0  0  0
   10.2038  -15.9422   24.0069 C   0  0  0  0  0  0  0  0  0  0  0  0
   10.4435  -16.7103   24.9685 O   0  0  0  0  0  0  0  0  0  0  0  0
   13.7004  -16.7727   24.6285 O   0  0  0  0  0  0  0  0  0  0  0  0
    9.4426  -14.7964   24.2500 O   0  0  0  0  0  0  0  0  0  0  0  0
  2  1  1  1
  2  3  1  0
  3  4  1  0
  4  8  1  0
  5  4  2  0
  6  2  1  0
  7  6  2  0
 10  9  1  6
 10 12  1  0
 11 10  1  0
 12 14  1  0
 12 13  1  6
 13  6  1  0
 14 16  1  0
 15 14  2  0
 16 17  1  0
 17 18  1  1
 17 21  1  0
 18 19  1  0
 19 20  2  0
 19 23  1  0
 21 22  2  0
 21 24  1  0
M  END
$$$$
