DTD.pdb
     RDKit          3D

 24 23  0  0  1  0  0  0  0  0999 V2000
    8.4901  -16.4454   15.8985 N   0  0  0  0  0  0  0  0  0  0  0  0
    8.5159  -17.1536   17.1634 C   0  0  1  0  0  0  0  0  0  0  0  0
    9.2803  -18.4496   17.0036 C   0  0  0  0  0  0  0  0  0  0  0  0
    8.5008  -19.3958   16.1895 C   0  0  0  0  0  0  0  0  0  0  0  0
    7.5341  -18.9976   15.5142 O   0  0  0  0  0  0  0  0  0  0  0  0
    9.0869  -16.3119   18.2457 C   0  0  0  0  0  0  0  0  0  0  0  0
   10.2716  -15.8972   18.1709 O   0  0  0  0  0  0  0  0  0  0  0  0
    8.8434  -20.7273   16.1755 O   0  0  0  0  0  0  0  0  0  0  0  0
    7.4026  -13.3131   20.3120 C   0  0  0  0  0  0  0  0  0  0  0  0
    7.8888  -14.4141   21.2630 C   0  0  1  0  0  0  0  0  0  0  0  0
    6.8069  -15.2146   21.6455 O   0  0  0  0  0  0  0  0  0  0  0  0
    8.9203  -15.2224   20.5000 C   0  0  2  0  0  0  0  0  0  0  0  0
    8.3452  -15.9377   19.3973 N   0  0  0  0  0  0  0  0  0  0  0  0
    9.5719  -16.1285   21.4812 C   0  0  0  0  0  0  0  0  0  0  0  0
    9.3314  -17.3579   21.5641 O   0  0  0  0  0  0  0  0  0  0  0  0
   10.5463  -15.6529   22.4278 N   0  0  0  0  0  0  0  0  0  0  0  0
   11.2841  -16.5467   23.2958 C   0  0  1  0  0  0  0  0  0  0  0  0
   12.6046  -15.9668   23.7421 C   0  0  0  0  0  0  0  0  0  0  0  0
   13.7043  -16.2414   22.8141 C   0  0  0  0  0  0  0  0  0  0  0  0
   13.7519  -17.2428   22.0801 O   0  0  0  0  0  0  0  0  0  0  0  0
   10.4738  -16.7552   24.5176 C   0  0  0  0  0  0  0  0  0  0  0  0
    9.4964  -16.0045   24.7487 O   0  0  0  0  0  0  0  0  0  0  0  0
   14.7489  -15.3428   22.7455 O   0  0  0  0  0  0  0  0  0  0  0  0
   10.7599  -17.7692   25.4348 O   0  0  0  0  0  0  0  0  0  0  0  0
  2  1  1  6
  2  3  1  0
  3  4  1  0
  4  8  1  0
  5  4  2  0
  6  2  1  0
  7  6  2  0
 10  9  1  6
 10 12  1  0
 11 10  1  0
 12 14  1  0
 12 13  1  6
 13  6  1  0
 14 16  1  0
 15 14  2  0
 16 17  1  0
 17 18  1  1
 17 21  1  0
 18 19  1  0
 19 20  2  0
 19 23  1  0
 21 22  2  0
 21 24  1  0
M  END
$$$$
