SNM.pdb
     RDKit          3D

 23 22  0  0  1  0  0  0  0  0999 V2000
   29.0868  -23.2234  -15.3707 O   0  0  0  0  0  0  0  0  0  0  0  0
   29.5269  -22.3385  -16.3524 C   0  0  0  0  0  0  0  0  0  0  0  0
   28.3355  -21.6010  -16.9477 C   0  0  2  0  0  0  0  0  0  0  0  0
   28.8611  -20.6942  -17.9355 N   0  0  0  0  0  0  0  0  0  0  0  0
   27.5801  -20.8367  -15.9309 C   0  0  0  0  0  0  0  0  0  0  0  0
   28.0498  -19.7520  -15.5132 O   0  0  0  0  0  0  0  0  0  0  0  0
   24.0032  -18.8131  -12.9124 N   0  0  0  0  0  0  0  0  0  0  0  0
   23.4008  -19.3149  -14.1010 C   0  0  0  0  0  0  0  0  0  0  0  0
   22.2243  -18.9838  -14.3242 O   0  0  0  0  0  0  0  0  0  0  0  0
   24.2250  -20.1875  -14.9699 C   0  0  0  0  0  0  0  0  0  0  0  0
   25.6091  -20.4226  -14.4404 C   0  0  2  0  0  0  0  0  0  0  0  0
   26.3350  -21.2448  -15.3786 N   0  0  0  0  0  0  0  0  0  0  0  0
   25.4619  -21.1420  -13.1454 C   0  0  0  0  0  0  0  0  0  0  0  0
   24.8806  -22.2699  -13.0992 O   0  0  0  0  0  0  0  0  0  0  0  0
   28.8954  -20.3363   -7.6953 C   0  0  0  0  0  0  0  0  0  0  0  0
   27.4622  -19.2217   -7.6061 S   0  0  0  0  0  0  0  0  0  0  0  0
   26.2272  -19.7238   -8.8598 C   0  0  0  0  0  0  0  0  0  0  0  0
   26.6949  -20.9272   -9.6201 C   0  0  0  0  0  0  0  0  0  0  0  0
   25.7084  -21.3340  -10.6482 C   0  0  2  0  0  0  0  0  0  0  0  0
   25.9428  -20.6376  -11.9153 N   0  0  0  0  0  0  0  0  0  0  0  0
   24.3403  -20.9519  -10.2380 C   0  0  0  0  0  0  0  0  0  0  0  0
   23.6509  -20.0672  -10.8080 O   0  0  0  0  0  0  0  0  0  0  0  0
   23.7402  -21.5999   -9.1434 O   0  0  0  0  0  0  0  0  0  0  0  0
  1  2  1  0
  3  2  1  0
  3  5  1  0
  3  4  1  6
  5  6  2  0
  7  8  1  0
  8 10  1  0
  9  8  2  0
 11 10  1  6
 11 13  1  0
 12 11  1  0
 12  5  1  0
 13 14  2  0
 13 20  1  0
 16 15  1  0
 17 16  1  0
 18 17  1  0
 19 18  1  1
 20 19  1  0
 21 23  1  0
 21 19  1  0
 22 21  2  0
M  END
$$$$
