SNM.pdb
     RDKit          3D

 23 22  0  0  1  0  0  0  0  0999 V2000
   16.2178  -12.0078  -15.9224 O   0  0  0  0  0  0  0  0  0  0  0  0
   17.3135  -11.2690  -15.4818 C   0  0  0  0  0  0  0  0  0  0  0  0
   18.3842  -11.2471  -16.5639 C   0  0  2  0  0  0  0  0  0  0  0  0
   19.0209  -12.5388  -16.5428 N   0  0  0  0  0  0  0  0  0  0  0  0
   19.3983  -10.1951  -16.3324 C   0  0  0  0  0  0  0  0  0  0  0  0
   20.3642  -10.4391  -15.5714 O   0  0  0  0  0  0  0  0  0  0  0  0
   21.3366   -4.7403  -18.5314 N   0  0  0  0  0  0  0  0  0  0  0  0
   21.4003   -5.8535  -17.6457 C   0  0  0  0  0  0  0  0  0  0  0  0
   22.3504   -5.8884  -16.8458 O   0  0  0  0  0  0  0  0  0  0  0  0
   20.3313   -6.8740  -17.7515 C   0  0  0  0  0  0  0  0  0  0  0  0
   20.4014   -7.9262  -16.6841 C   0  0  2  0  0  0  0  0  0  0  0  0
   19.3626   -8.9004  -16.9191 N   0  0  0  0  0  0  0  0  0  0  0  0
   20.1674   -7.2409  -15.3833 C   0  0  0  0  0  0  0  0  0  0  0  0
   18.9956   -6.8888  -15.0440 O   0  0  0  0  0  0  0  0  0  0  0  0
   21.7121   -6.4737   -7.8015 C   0  0  0  0  0  0  0  0  0  0  0  0
   22.1403   -7.2616   -9.3828 S   0  0  0  0  0  0  0  0  0  0  0  0
   21.3445   -6.3427  -10.7508 C   0  0  0  0  0  0  0  0  0  0  0  0
   21.5533   -7.0430  -12.0589 C   0  0  0  0  0  0  0  0  0  0  0  0
   20.9263   -6.2989  -13.1764 C   0  0  2  0  0  0  0  0  0  0  0  0
   21.1988   -6.9431  -14.4634 N   0  0  0  0  0  0  0  0  0  0  0  0
   21.5024   -4.9418  -13.2873 C   0  0  0  0  0  0  0  0  0  0  0  0
   22.5556   -4.6687  -13.9191 O   0  0  0  0  0  0  0  0  0  0  0  0
   20.8562   -3.8627  -12.6579 O   0  0  0  0  0  0  0  0  0  0  0  0
  1  2  1  0
  3  2  1  0
  3  5  1  0
  3  4  1  1
  5  6  2  0
  7  8  1  0
  8 10  1  0
  9  8  2  0
 11 10  1  6
 11 13  1  0
 12 11  1  0
 12  5  1  0
 13 14  2  0
 13 20  1  0
 16 15  1  0
 17 16  1  0
 18 17  1  0
 19 18  1  1
 20 19  1  0
 21 23  1  0
 21 19  1  0
 22 21  2  0
M  END
$$$$
