SNM.pdb
     RDKit          3D

 23 22  0  0  1  0  0  0  0  0999 V2000
   20.9391  -15.9693  -18.7273 O   0  0  0  0  0  0  0  0  0  0  0  0
   20.5463  -14.6417  -18.8812 C   0  0  0  0  0  0  0  0  0  0  0  0
   21.2232  -13.7818  -17.8229 C   0  0  2  0  0  0  0  0  0  0  0  0
   21.0666  -14.4704  -16.5675 N   0  0  0  0  0  0  0  0  0  0  0  0
   20.6221  -12.4337  -17.7227 C   0  0  0  0  0  0  0  0  0  0  0  0
   20.5757  -11.7115  -18.7464 O   0  0  0  0  0  0  0  0  0  0  0  0
   15.9874  -10.4232  -16.8121 N   0  0  0  0  0  0  0  0  0  0  0  0
   17.1596  -11.1904  -16.5571 C   0  0  0  0  0  0  0  0  0  0  0  0
   17.1918  -12.3458  -17.0130 O   0  0  0  0  0  0  0  0  0  0  0  0
   18.2400  -10.5486  -15.7720 C   0  0  0  0  0  0  0  0  0  0  0  0
   19.5642  -10.5343  -16.4775 C   0  0  2  0  0  0  0  0  0  0  0  0
   20.0805  -11.8811  -16.5298 N   0  0  0  0  0  0  0  0  0  0  0  0
   20.4751   -9.6740  -15.6733 C   0  0  0  0  0  0  0  0  0  0  0  0
   20.2362   -9.4569  -14.4453 O   0  0  0  0  0  0  0  0  0  0  0  0
   26.6783  -11.8255  -15.3930 C   0  0  0  0  0  0  0  0  0  0  0  0
   26.1855  -10.1275  -15.8153 S   0  0  0  0  0  0  0  0  0  0  0  0
   24.4428   -9.8638  -15.3227 C   0  0  0  0  0  0  0  0  0  0  0  0
   23.9616   -8.5134  -15.7586 C   0  0  0  0  0  0  0  0  0  0  0  0
   22.5521   -8.2877  -15.3611 C   0  0  2  0  0  0  0  0  0  0  0  0
   21.6326   -9.0580  -16.2018 N   0  0  0  0  0  0  0  0  0  0  0  0
   22.1743   -6.8724  -15.5613 C   0  0  0  0  0  0  0  0  0  0  0  0
   21.7413   -6.4011  -16.6445 O   0  0  0  0  0  0  0  0  0  0  0  0
   22.2939   -5.9668  -14.4918 O   0  0  0  0  0  0  0  0  0  0  0  0
  1  2  1  0
  3  2  1  0
  3  5  1  0
  3  4  1  1
  5  6  2  0
  7  8  1  0
  8 10  1  0
  9  8  2  0
 11 10  1  1
 11 13  1  0
 12 11  1  0
 12  5  1  0
 13 14  2  0
 13 20  1  0
 16 15  1  0
 17 16  1  0
 18 17  1  0
 19 18  1  6
 20 19  1  0
 21 23  1  0
 21 19  1  0
 22 21  2  0
M  END
$$$$
