SNM.pdb
     RDKit          3D

 23 22  0  0  1  0  0  0  0  0999 V2000
   21.0736  -15.4917  -15.5904 O   0  0  0  0  0  0  0  0  0  0  0  0
   19.7012  -15.3554  -15.3947 C   0  0  0  0  0  0  0  0  0  0  0  0
   19.0636  -14.7571  -16.6411 C   0  0  2  0  0  0  0  0  0  0  0  0
   19.6437  -15.4375  -17.7703 N   0  0  0  0  0  0  0  0  0  0  0  0
   19.3143  -13.3039  -16.7606 C   0  0  0  0  0  0  0  0  0  0  0  0
   20.2521  -12.9072  -17.4917 O   0  0  0  0  0  0  0  0  0  0  0  0
   16.8538  -10.5296  -18.3035 N   0  0  0  0  0  0  0  0  0  0  0  0
   16.5448   -9.9534  -17.0385 C   0  0  0  0  0  0  0  0  0  0  0  0
   15.4741   -9.3301  -16.9453 O   0  0  0  0  0  0  0  0  0  0  0  0
   17.5231  -10.1450  -15.9422 C   0  0  0  0  0  0  0  0  0  0  0  0
   18.7529  -10.8948  -16.3625 C   0  0  2  0  0  0  0  0  0  0  0  0
   18.5574  -12.2999  -16.0967 N   0  0  0  0  0  0  0  0  0  0  0  0
   19.8799  -10.3761  -15.5395 C   0  0  0  0  0  0  0  0  0  0  0  0
   19.9256  -10.6098  -14.2923 O   0  0  0  0  0  0  0  0  0  0  0  0
   26.0812  -11.5677  -14.8346 C   0  0  0  0  0  0  0  0  0  0  0  0
   26.0733   -9.8384  -15.3950 S   0  0  0  0  0  0  0  0  0  0  0  0
   24.4851   -9.0589  -14.9273 C   0  0  0  0  0  0  0  0  0  0  0  0
   23.3455   -9.6694  -15.6848 C   0  0  0  0  0  0  0  0  0  0  0  0
   22.0431   -9.1275  -15.2312 C   0  0  2  0  0  0  0  0  0  0  0  0
   20.9443   -9.6118  -16.0701 N   0  0  0  0  0  0  0  0  0  0  0  0
   22.0169   -7.6550  -15.3623 C   0  0  0  0  0  0  0  0  0  0  0  0
   21.6094   -7.0418  -16.3825 O   0  0  0  0  0  0  0  0  0  0  0  0
   22.4695   -6.8577  -14.2957 O   0  0  0  0  0  0  0  0  0  0  0  0
  1  2  1  0
  3  2  1  0
  3  5  1  0
  3  4  1  6
  5  6  2  0
  7  8  1  0
  8 10  1  0
  9  8  2  0
 11 10  1  1
 11 13  1  0
 12 11  1  0
 12  5  1  0
 13 14  2  0
 13 20  1  0
 16 15  1  0
 17 16  1  0
 18 17  1  0
 19 18  1  6
 20 19  1  0
 21 23  1  0
 21 19  1  0
 22 21  2  0
M  END
$$$$
