SNM.pdb
     RDKit          3D

 23 22  0  0  1  0  0  0  0  0999 V2000
   17.1826  -13.7899  -15.0201 O   0  0  0  0  0  0  0  0  0  0  0  0
   18.1245  -12.7845  -15.2258 C   0  0  0  0  0  0  0  0  0  0  0  0
   17.8896  -12.1329  -16.5815 C   0  0  2  0  0  0  0  0  0  0  0  0
   18.4898  -12.9964  -17.5657 N   0  0  0  0  0  0  0  0  0  0  0  0
   18.4964  -10.7867  -16.6728 C   0  0  0  0  0  0  0  0  0  0  0  0
   19.5474  -10.6379  -17.3399 O   0  0  0  0  0  0  0  0  0  0  0  0
   16.8423   -5.6873  -17.6829 N   0  0  0  0  0  0  0  0  0  0  0  0
   16.7129   -6.9673  -17.0727 C   0  0  0  0  0  0  0  0  0  0  0  0
   15.8765   -7.7462  -17.5600 O   0  0  0  0  0  0  0  0  0  0  0  0
   17.5840   -7.2625  -15.9109 C   0  0  0  0  0  0  0  0  0  0  0  0
   18.6009   -8.3318  -16.1826 C   0  0  2  0  0  0  0  0  0  0  0  0
   17.9688   -9.6226  -16.0498 N   0  0  0  0  0  0  0  0  0  0  0  0
   19.6703   -8.1842  -15.1574 C   0  0  0  0  0  0  0  0  0  0  0  0
   19.8207   -9.0641  -14.2544 O   0  0  0  0  0  0  0  0  0  0  0  0
   26.5979   -9.9568  -14.6315 C   0  0  0  0  0  0  0  0  0  0  0  0
   24.9873   -9.7627  -15.4517 S   0  0  0  0  0  0  0  0  0  0  0  0
   24.0671   -8.3933  -14.6599 C   0  0  0  0  0  0  0  0  0  0  0  0
   22.6828   -8.2825  -15.2227 C   0  0  0  0  0  0  0  0  0  0  0  0
   21.9106   -7.2109  -14.5512 C   0  0  2  0  0  0  0  0  0  0  0  0
   20.5650   -7.0904  -15.1174 N   0  0  0  0  0  0  0  0  0  0  0  0
   22.5472   -5.8944  -14.7693 C   0  0  0  0  0  0  0  0  0  0  0  0
   22.3831   -5.1901  -15.7988 O   0  0  0  0  0  0  0  0  0  0  0  0
   23.3973   -5.3653  -13.7816 O   0  0  0  0  0  0  0  0  0  0  0  0
  1  2  1  0
  3  2  1  0
  3  5  1  0
  3  4  1  6
  5  6  2  0
  7  8  1  0
  8 10  1  0
  9  8  2  0
 11 10  1  1
 11 13  1  0
 12 11  1  0
 12  5  1  0
 13 14  2  0
 13 20  1  0
 16 15  1  0
 17 16  1  0
 18 17  1  0
 19 18  1  6
 20 19  1  0
 21 23  1  0
 21 19  1  0
 22 21  2  0
M  END
$$$$
