SNM.pdb
     RDKit          3D

 23 22  0  0  1  0  0  0  0  0999 V2000
   17.0779  -13.6568  -13.9310 O   0  0  0  0  0  0  0  0  0  0  0  0
   18.2166  -13.0733  -14.4818 C   0  0  0  0  0  0  0  0  0  0  0  0
   18.0656  -12.9850  -15.9942 C   0  0  2  0  0  0  0  0  0  0  0  0
   18.2668  -14.3150  -16.5089 N   0  0  0  0  0  0  0  0  0  0  0  0
   19.0505  -12.0664  -16.6065 C   0  0  0  0  0  0  0  0  0  0  0  0
   20.1867  -12.5046  -16.9043 O   0  0  0  0  0  0  0  0  0  0  0  0
   19.5135   -6.4551  -19.1920 N   0  0  0  0  0  0  0  0  0  0  0  0
   20.0443   -7.6944  -18.7336 C   0  0  0  0  0  0  0  0  0  0  0  0
   21.2237   -7.9504  -19.0290 O   0  0  0  0  0  0  0  0  0  0  0  0
   19.1485   -8.5723  -17.9446 C   0  0  0  0  0  0  0  0  0  0  0  0
   19.7995   -9.8510  -17.5056 C   0  0  2  0  0  0  0  0  0  0  0  0
   18.8036  -10.6953  -16.8904 N   0  0  0  0  0  0  0  0  0  0  0  0
   20.8413   -9.4868  -16.5064 C   0  0  0  0  0  0  0  0  0  0  0  0
   20.5176   -9.2247  -15.3069 O   0  0  0  0  0  0  0  0  0  0  0  0
   27.1225  -11.0027  -17.0452 C   0  0  0  0  0  0  0  0  0  0  0  0
   27.0063  -10.6402  -15.2676 S   0  0  0  0  0  0  0  0  0  0  0  0
   25.4754   -9.6913  -14.9432 C   0  0  0  0  0  0  0  0  0  0  0  0
   24.4570   -9.9352  -16.0148 C   0  0  0  0  0  0  0  0  0  0  0  0
   23.2267   -9.1431  -15.7817 C   0  0  2  0  0  0  0  0  0  0  0  0
   22.2195   -9.4093  -16.8114 N   0  0  0  0  0  0  0  0  0  0  0  0
   23.5126   -7.6956  -15.8777 C   0  0  0  0  0  0  0  0  0  0  0  0
   23.6272   -6.9289  -14.8867 O   0  0  0  0  0  0  0  0  0  0  0  0
   23.6730   -7.1050  -17.1440 O   0  0  0  0  0  0  0  0  0  0  0  0
  1  2  1  0
  3  2  1  0
  3  5  1  0
  3  4  1  6
  5  6  2  0
  7  8  1  0
  8 10  1  0
  9  8  2  0
 11 10  1  1
 11 13  1  0
 12 11  1  0
 12  5  1  0
 13 14  2  0
 13 20  1  0
 16 15  1  0
 17 16  1  0
 18 17  1  0
 19 18  1  6
 20 19  1  0
 21 23  1  0
 21 19  1  0
 22 21  2  0
M  END
$$$$
