SNM.pdb
     RDKit          3D

 23 22  0  0  1  0  0  0  0  0999 V2000
   17.1852  -13.4967  -12.9571 O   0  0  0  0  0  0  0  0  0  0  0  0
   16.8271  -12.1513  -13.0036 C   0  0  0  0  0  0  0  0  0  0  0  0
   15.3547  -12.0012  -12.6470 C   0  0  2  0  0  0  0  0  0  0  0  0
   14.6189  -12.0831  -13.8825 N   0  0  0  0  0  0  0  0  0  0  0  0
   15.0634  -10.7101  -11.9858 C   0  0  0  0  0  0  0  0  0  0  0  0
   15.0841   -9.6592  -12.6690 O   0  0  0  0  0  0  0  0  0  0  0  0
   13.2662   -7.0728   -8.8740 N   0  0  0  0  0  0  0  0  0  0  0  0
   12.9239   -8.3100   -8.2576 C   0  0  0  0  0  0  0  0  0  0  0  0
   12.1648   -8.2635   -7.2751 O   0  0  0  0  0  0  0  0  0  0  0  0
   13.4997   -9.5459   -8.8379 C   0  0  0  0  0  0  0  0  0  0  0  0
   14.3629   -9.2962  -10.0395 C   0  0  2  0  0  0  0  0  0  0  0  0
   14.7544  -10.5650  -10.6055 N   0  0  0  0  0  0  0  0  0  0  0  0
   15.5671   -8.5614   -9.5637 C   0  0  0  0  0  0  0  0  0  0  0  0
   16.5635   -9.1946   -9.0965 O   0  0  0  0  0  0  0  0  0  0  0  0
   21.5961   -5.5637  -12.2928 C   0  0  0  0  0  0  0  0  0  0  0  0
   20.0597   -6.5350  -12.2676 S   0  0  0  0  0  0  0  0  0  0  0  0
   19.0951   -6.1013  -10.7741 C   0  0  0  0  0  0  0  0  0  0  0  0
   17.8481   -6.9271  -10.6837 C   0  0  0  0  0  0  0  0  0  0  0  0
   16.9854   -6.4824   -9.5641 C   0  0  2  0  0  0  0  0  0  0  0  0
   15.6834   -7.1528   -9.5971 N   0  0  0  0  0  0  0  0  0  0  0  0
   16.6862   -5.0389   -9.6780 C   0  0  0  0  0  0  0  0  0  0  0  0
   15.7809   -4.5586  -10.4079 O   0  0  0  0  0  0  0  0  0  0  0  0
   17.4434   -4.1151   -8.9356 O   0  0  0  0  0  0  0  0  0  0  0  0
  1  2  1  0
  3  2  1  0
  3  5  1  0
  3  4  1  6
  5  6  2  0
  7  8  1  0
  8 10  1  0
  9  8  2  0
 11 10  1  1
 11 13  1  0
 12 11  1  0
 12  5  1  0
 13 14  2  0
 13 20  1  0
 16 15  1  0
 17 16  1  0
 18 17  1  0
 19 18  1  6
 20 19  1  0
 21 23  1  0
 21 19  1  0
 22 21  2  0
M  END
$$$$
