SNM.pdb
     RDKit          3D

 23 22  0  0  1  0  0  0  0  0999 V2000
   21.0357  -14.6498  -23.5146 O   0  0  0  0  0  0  0  0  0  0  0  0
   21.2442  -15.7051  -22.6296 C   0  0  0  0  0  0  0  0  0  0  0  0
   21.0219  -15.2266  -21.2015 C   0  0  2  0  0  0  0  0  0  0  0  0
   22.0632  -14.2729  -20.9174 N   0  0  0  0  0  0  0  0  0  0  0  0
   21.0861  -16.3318  -20.2201 C   0  0  0  0  0  0  0  0  0  0  0  0
   22.1798  -16.5871  -19.6631 O   0  0  0  0  0  0  0  0  0  0  0  0
   17.8685  -19.8925  -16.6134 N   0  0  0  0  0  0  0  0  0  0  0  0
   19.0322  -19.0949  -16.8063 C   0  0  0  0  0  0  0  0  0  0  0  0
   20.0020  -19.3170  -16.0623 O   0  0  0  0  0  0  0  0  0  0  0  0
   18.9893  -18.0697  -17.8754 C   0  0  0  0  0  0  0  0  0  0  0  0
   20.1001  -18.2020  -18.8754 C   0  0  2  0  0  0  0  0  0  0  0  0
   19.9796  -17.1447  -19.8505 N   0  0  0  0  0  0  0  0  0  0  0  0
   19.9315  -19.5240  -19.5390 C   0  0  0  0  0  0  0  0  0  0  0  0
   19.0359  -19.6894  -20.4237 O   0  0  0  0  0  0  0  0  0  0  0  0
   24.6071  -23.8664  -19.9456 C   0  0  0  0  0  0  0  0  0  0  0  0
   23.3998  -24.7217  -21.0017 S   0  0  0  0  0  0  0  0  0  0  0  0
   21.7865  -23.8649  -20.8914 C   0  0  0  0  0  0  0  0  0  0  0  0
   21.8918  -22.6317  -20.0469 C   0  0  0  0  0  0  0  0  0  0  0  0
   20.5994  -21.9098  -19.9809 C   0  0  2  0  0  0  0  0  0  0  0  0
   20.7298  -20.6521  -19.2414 N   0  0  0  0  0  0  0  0  0  0  0  0
   19.5977  -22.7012  -19.2351 C   0  0  0  0  0  0  0  0  0  0  0  0
   19.3386  -22.5459  -18.0138 O   0  0  0  0  0  0  0  0  0  0  0  0
   18.8687  -23.7008  -19.9042 O   0  0  0  0  0  0  0  0  0  0  0  0
  1  2  1  0
  3  2  1  0
  3  5  1  0
  3  4  1  1
  5  6  2  0
  7  8  1  0
  8 10  1  0
  9  8  2  0
 11 10  1  1
 11 13  1  0
 12 11  1  0
 12  5  1  0
 13 14  2  0
 13 20  1  0
 16 15  1  0
 17 16  1  0
 18 17  1  0
 19 18  1  1
 20 19  1  0
 21 23  1  0
 21 19  1  0
 22 21  2  0
M  END
$$$$
