SNM.pdb
     RDKit          3D

 23 22  0  0  1  0  0  0  0  0999 V2000
   16.3098   -9.4089  -15.0167 O   0  0  0  0  0  0  0  0  0  0  0  0
   17.3933   -8.9011  -15.7297 C   0  0  0  0  0  0  0  0  0  0  0  0
   18.6887   -9.2524  -15.0110 C   0  0  2  0  0  0  0  0  0  0  0  0
   18.7035  -10.6847  -14.8605 N   0  0  0  0  0  0  0  0  0  0  0  0
   18.7845   -8.6168  -13.6785 C   0  0  0  0  0  0  0  0  0  0  0  0
   18.4979   -9.2914  -12.6615 O   0  0  0  0  0  0  0  0  0  0  0  0
   21.9872   -7.0826  -12.5888 N   0  0  0  0  0  0  0  0  0  0  0  0
   21.5788   -5.7279  -12.4290 C   0  0  0  0  0  0  0  0  0  0  0  0
   22.4625   -4.8572  -12.4970 O   0  0  0  0  0  0  0  0  0  0  0  0
   20.1383   -5.4706  -12.1959 C   0  0  0  0  0  0  0  0  0  0  0  0
   19.3111   -6.7205  -12.1279 C   0  0  2  0  0  0  0  0  0  0  0  0
   19.1857   -7.2710  -13.4562 N   0  0  0  0  0  0  0  0  0  0  0  0
   17.9702   -6.3261  -11.6150 C   0  0  0  0  0  0  0  0  0  0  0  0
   17.0915   -5.8608  -12.4047 O   0  0  0  0  0  0  0  0  0  0  0  0
   12.0783   -8.0816   -6.8284 C   0  0  0  0  0  0  0  0  0  0  0  0
   13.8237   -8.3457   -7.2626 S   0  0  0  0  0  0  0  0  0  0  0  0
   14.3736   -7.0147   -8.3918 C   0  0  0  0  0  0  0  0  0  0  0  0
   15.7770   -7.2545   -8.8588 C   0  0  0  0  0  0  0  0  0  0  0  0
   16.2136   -6.2115   -9.8164 C   0  0  2  0  0  0  0  0  0  0  0  0
   17.5920   -6.4378  -10.2574 N   0  0  0  0  0  0  0  0  0  0  0  0
   16.2218   -4.8815   -9.1708 C   0  0  0  0  0  0  0  0  0  0  0  0
   17.2646   -4.2673   -8.8271 O   0  0  0  0  0  0  0  0  0  0  0  0
   15.0018   -4.2320   -8.9098 O   0  0  0  0  0  0  0  0  0  0  0  0
  1  2  1  0
  3  2  1  0
  3  5  1  0
  3  4  1  1
  5  6  2  0
  7  8  1  0
  8 10  1  0
  9  8  2  0
 11 10  1  6
 11 13  1  0
 12 11  1  0
 12  5  1  0
 13 14  2  0
 13 20  1  0
 16 15  1  0
 17 16  1  0
 18 17  1  0
 19 18  1  1
 20 19  1  0
 21 23  1  0
 21 19  1  0
 22 21  2  0
M  END
$$$$
