SNM.pdb
     RDKit          3D

 23 22  0  0  1  0  0  0  0  0999 V2000
   29.8958  -23.6730  -15.3863 O   0  0  0  0  0  0  0  0  0  0  0  0
   30.0547  -23.1060  -16.6487 C   0  0  0  0  0  0  0  0  0  0  0  0
   28.7649  -22.4116  -17.0635 C   0  0  2  0  0  0  0  0  0  0  0  0
   29.0115  -21.8147  -18.3509 N   0  0  0  0  0  0  0  0  0  0  0  0
   28.3562  -21.3616  -16.1048 C   0  0  0  0  0  0  0  0  0  0  0  0
   28.9872  -20.2785  -16.0844 O   0  0  0  0  0  0  0  0  0  0  0  0
   26.1534  -17.3033  -14.1446 N   0  0  0  0  0  0  0  0  0  0  0  0
   25.3156  -18.4507  -14.2412 C   0  0  0  0  0  0  0  0  0  0  0  0
   24.2232  -18.4069  -13.6511 O   0  0  0  0  0  0  0  0  0  0  0  0
   25.8152  -19.5977  -15.0353 C   0  0  0  0  0  0  0  0  0  0  0  0
   26.8722  -20.3969  -14.3314 C   0  0  2  0  0  0  0  0  0  0  0  0
   27.2795  -21.4874  -15.1847 N   0  0  0  0  0  0  0  0  0  0  0  0
   26.2549  -20.9318  -13.0867 C   0  0  0  0  0  0  0  0  0  0  0  0
   25.6065  -22.0233  -13.1085 O   0  0  0  0  0  0  0  0  0  0  0  0
   29.1878  -20.3825   -6.5429 C   0  0  0  0  0  0  0  0  0  0  0  0
   27.7146  -19.6367   -7.3031 S   0  0  0  0  0  0  0  0  0  0  0  0
   27.1933  -20.6518   -8.7338 C   0  0  0  0  0  0  0  0  0  0  0  0
   26.0249  -20.0288   -9.4350 C   0  0  0  0  0  0  0  0  0  0  0  0
   25.6511  -20.7944  -10.6474 C   0  0  2  0  0  0  0  0  0  0  0  0
   26.3436  -20.2843  -11.8331 N   0  0  0  0  0  0  0  0  0  0  0  0
   24.2098  -20.6395  -10.9380 C   0  0  0  0  0  0  0  0  0  0  0  0
   23.7494  -19.9919  -11.9136 O   0  0  0  0  0  0  0  0  0  0  0  0
   23.2644  -21.2427  -10.0892 O   0  0  0  0  0  0  0  0  0  0  0  0
  1  2  1  0
  3  2  1  0
  3  5  1  0
  3  4  1  6
  5  6  2  0
  7  8  1  0
  8 10  1  0
  9  8  2  0
 11 10  1  6
 11 13  1  0
 12 11  1  0
 12  5  1  0
 13 14  2  0
 13 20  1  0
 16 15  1  0
 17 16  1  0
 18 17  1  0
 19 18  1  1
 20 19  1  0
 21 23  1  0
 21 19  1  0
 22 21  2  0
M  END
$$$$
