SNM.pdb
     RDKit          3D

 23 22  0  0  1  0  0  0  0  0999 V2000
   18.4266  -12.2843  -17.0770 O   0  0  0  0  0  0  0  0  0  0  0  0
   19.2060  -11.7217  -18.0852 C   0  0  0  0  0  0  0  0  0  0  0  0
   20.1156  -10.6541  -17.4930 C   0  0  2  0  0  0  0  0  0  0  0  0
   20.9460  -11.3121  -16.5174 N   0  0  0  0  0  0  0  0  0  0  0  0
   19.3563   -9.5659  -16.8388 C   0  0  0  0  0  0  0  0  0  0  0  0
   18.6217   -8.8308  -17.5400 O   0  0  0  0  0  0  0  0  0  0  0  0
   16.8578  -10.1338  -13.8818 N   0  0  0  0  0  0  0  0  0  0  0  0
   17.5726   -9.3983  -12.8939 C   0  0  0  0  0  0  0  0  0  0  0  0
   17.2991   -9.6314  -11.7046 O   0  0  0  0  0  0  0  0  0  0  0  0
   18.5801   -8.4194  -13.3656 C   0  0  0  0  0  0  0  0  0  0  0  0
   18.5888   -8.2413  -14.8554 C   0  0  2  0  0  0  0  0  0  0  0  0
   19.3949   -9.2827  -15.4460 N   0  0  0  0  0  0  0  0  0  0  0  0
   19.1996   -6.9116  -15.1298 C   0  0  0  0  0  0  0  0  0  0  0  0
   20.4358   -6.8164  -15.4039 O   0  0  0  0  0  0  0  0  0  0  0  0
   20.7725   -2.0981  -20.2565 C   0  0  0  0  0  0  0  0  0  0  0  0
   20.4221   -3.6952  -19.4622 S   0  0  0  0  0  0  0  0  0  0  0  0
   19.8591   -3.4055  -17.7452 C   0  0  0  0  0  0  0  0  0  0  0  0
   19.4301   -4.6874  -17.0989 C   0  0  0  0  0  0  0  0  0  0  0  0
   18.9974   -4.4684  -15.6987 C   0  0  2  0  0  0  0  0  0  0  0  0
   18.4713   -5.7002  -15.1058 N   0  0  0  0  0  0  0  0  0  0  0  0
   17.8825   -3.4990  -15.6431 C   0  0  0  0  0  0  0  0  0  0  0  0
   16.6701   -3.8050  -15.7819 O   0  0  0  0  0  0  0  0  0  0  0  0
   18.1599   -2.1380  -15.4217 O   0  0  0  0  0  0  0  0  0  0  0  0
  1  2  1  0
  3  2  1  0
  3  5  1  0
  3  4  1  1
  5  6  2  0
  7  8  1  0
  8 10  1  0
  9  8  2  0
 11 10  1  1
 11 13  1  0
 12 11  1  0
 12  5  1  0
 13 14  2  0
 13 20  1  0
 16 15  1  0
 17 16  1  0
 18 17  1  0
 19 18  1  6
 20 19  1  0
 21 23  1  0
 21 19  1  0
 22 21  2  0
M  END
$$$$
