SNM.pdb
     RDKit          3D

 23 22  0  0  1  0  0  0  0  0999 V2000
   23.8862  -11.4104  -19.0310 O   0  0  0  0  0  0  0  0  0  0  0  0
   22.9880  -10.3865  -18.7390 C   0  0  0  0  0  0  0  0  0  0  0  0
   21.8300  -10.9398  -17.9201 C   0  0  2  0  0  0  0  0  0  0  0  0
   20.9136  -11.5427  -18.8534 N   0  0  0  0  0  0  0  0  0  0  0  0
   21.1287   -9.8873  -17.1524 C   0  0  0  0  0  0  0  0  0  0  0  0
   20.4925   -9.0038  -17.7739 O   0  0  0  0  0  0  0  0  0  0  0  0
   18.5718   -7.2732  -13.6435 N   0  0  0  0  0  0  0  0  0  0  0  0
   19.2200   -8.2994  -12.8988 C   0  0  0  0  0  0  0  0  0  0  0  0
   18.9417   -8.3860  -11.6911 O   0  0  0  0  0  0  0  0  0  0  0  0
   20.1693   -9.1756  -13.6244 C   0  0  0  0  0  0  0  0  0  0  0  0
   20.4208   -8.7429  -15.0390 C   0  0  2  0  0  0  0  0  0  0  0  0
   21.1192   -9.7980  -15.7334 N   0  0  0  0  0  0  0  0  0  0  0  0
   21.2765   -7.5263  -14.9750 C   0  0  0  0  0  0  0  0  0  0  0  0
   22.4471   -7.5889  -14.4872 O   0  0  0  0  0  0  0  0  0  0  0  0
   23.6436   -3.7674  -19.4904 C   0  0  0  0  0  0  0  0  0  0  0  0
   22.9273   -2.5256  -18.3727 S   0  0  0  0  0  0  0  0  0  0  0  0
   22.7403   -3.2515  -16.7032 C   0  0  0  0  0  0  0  0  0  0  0  0
   21.8969   -4.4891  -16.7489 C   0  0  0  0  0  0  0  0  0  0  0  0
   21.7480   -5.0916  -15.4034 C   0  0  2  0  0  0  0  0  0  0  0  0
   20.8608   -6.2567  -15.4375 N   0  0  0  0  0  0  0  0  0  0  0  0
   21.1070   -4.1378  -14.4731 C   0  0  0  0  0  0  0  0  0  0  0  0
   21.7325   -3.2897  -13.7857 O   0  0  0  0  0  0  0  0  0  0  0  0
   19.7086   -4.1521  -14.3229 O   0  0  0  0  0  0  0  0  0  0  0  0
  1  2  1  0
  3  2  1  0
  3  5  1  0
  3  4  1  6
  5  6  2  0
  7  8  1  0
  8 10  1  0
  9  8  2  0
 11 10  1  1
 11 13  1  0
 12 11  1  0
 12  5  1  0
 13 14  2  0
 13 20  1  0
 16 15  1  0
 17 16  1  0
 18 17  1  0
 19 18  1  6
 20 19  1  0
 21 23  1  0
 21 19  1  0
 22 21  2  0
M  END
$$$$
