SNM.pdb
     RDKit          3D

 23 22  0  0  1  0  0  0  0  0999 V2000
   17.5913  -15.4549  -14.5586 O   0  0  0  0  0  0  0  0  0  0  0  0
   18.5081  -14.4568  -14.8808 C   0  0  0  0  0  0  0  0  0  0  0  0
   18.3760  -14.0970  -16.3541 C   0  0  2  0  0  0  0  0  0  0  0  0
   19.0115  -15.1544  -17.0973 N   0  0  0  0  0  0  0  0  0  0  0  0
   19.0248  -12.8080  -16.6802 C   0  0  0  0  0  0  0  0  0  0  0  0
   20.2527  -12.7924  -16.9322 O   0  0  0  0  0  0  0  0  0  0  0  0
   17.7644   -7.3143  -18.8251 N   0  0  0  0  0  0  0  0  0  0  0  0
   18.5343   -7.9942  -17.8388 C   0  0  0  0  0  0  0  0  0  0  0  0
   19.6135   -7.4767  -17.5054 O   0  0  0  0  0  0  0  0  0  0  0  0
   17.9854   -9.2581  -17.2940 C   0  0  0  0  0  0  0  0  0  0  0  0
   19.0050  -10.3532  -17.1816 C   0  0  2  0  0  0  0  0  0  0  0  0
   18.3494  -11.5578  -16.7317 N   0  0  0  0  0  0  0  0  0  0  0  0
   20.0047   -9.9132  -16.1699 C   0  0  0  0  0  0  0  0  0  0  0  0
   19.9399  -10.3383  -14.9752 O   0  0  0  0  0  0  0  0  0  0  0  0
   25.3458  -11.7309  -16.0618 C   0  0  0  0  0  0  0  0  0  0  0  0
   25.7762  -10.4419  -14.8544 S   0  0  0  0  0  0  0  0  0  0  0  0
   24.3932   -9.2506  -14.7234 C   0  0  0  0  0  0  0  0  0  0  0  0
   23.2663   -9.6363  -15.6325 C   0  0  0  0  0  0  0  0  0  0  0  0
   22.1109   -8.7214  -15.4793 C   0  0  2  0  0  0  0  0  0  0  0  0
   21.0624   -9.0203  -16.4575 N   0  0  0  0  0  0  0  0  0  0  0  0
   22.5127   -7.3244  -15.7497 C   0  0  0  0  0  0  0  0  0  0  0  0
   22.6052   -6.8240  -16.9003 O   0  0  0  0  0  0  0  0  0  0  0  0
   22.8181   -6.4720  -14.6734 O   0  0  0  0  0  0  0  0  0  0  0  0
  1  2  1  0
  3  2  1  0
  3  5  1  0
  3  4  1  6
  5  6  2  0
  7  8  1  0
  8 10  1  0
  9  8  2  0
 11 10  1  1
 11 13  1  0
 12 11  1  0
 12  5  1  0
 13 14  2  0
 13 20  1  0
 16 15  1  0
 17 16  1  0
 18 17  1  0
 19 18  1  6
 20 19  1  0
 21 23  1  0
 21 19  1  0
 22 21  2  0
M  END
$$$$
