SNM.pdb
     RDKit          3D

 23 22  0  0  1  0  0  0  0  0999 V2000
   22.8081  -22.7963  -14.3837 O   0  0  0  0  0  0  0  0  0  0  0  0
   23.5285  -23.4808  -15.3598 C   0  0  0  0  0  0  0  0  0  0  0  0
   24.6025  -22.5688  -15.9367 C   0  0  2  0  0  0  0  0  0  0  0  0
   25.2923  -23.3289  -16.9471 N   0  0  0  0  0  0  0  0  0  0  0  0
   25.5709  -22.1199  -14.9122 C   0  0  0  0  0  0  0  0  0  0  0  0
   26.6244  -22.7778  -14.7423 O   0  0  0  0  0  0  0  0  0  0  0  0
   26.7272  -17.4797  -15.0939 N   0  0  0  0  0  0  0  0  0  0  0  0
   27.2973  -18.5214  -14.3081 C   0  0  0  0  0  0  0  0  0  0  0  0
   28.4322  -18.9151  -14.6253 O   0  0  0  0  0  0  0  0  0  0  0  0
   26.4918  -19.0472  -13.1810 C   0  0  0  0  0  0  0  0  0  0  0  0
   26.4090  -20.5451  -13.1529 C   0  0  2  0  0  0  0  0  0  0  0  0
   25.3965  -20.9748  -14.0875 N   0  0  0  0  0  0  0  0  0  0  0  0
   26.0176  -20.9322  -11.7696 C   0  0  0  0  0  0  0  0  0  0  0  0
   24.8309  -21.3076  -11.5187 O   0  0  0  0  0  0  0  0  0  0  0  0
   27.4695  -18.3985   -5.3195 C   0  0  0  0  0  0  0  0  0  0  0  0
   27.9817  -20.1067   -5.6721 S   0  0  0  0  0  0  0  0  0  0  0  0
   26.8487  -20.8336   -6.9118 C   0  0  0  0  0  0  0  0  0  0  0  0
   27.3634  -20.6133   -8.3017 C   0  0  0  0  0  0  0  0  0  0  0  0
   26.4717  -21.2293   -9.3121 C   0  0  2  0  0  0  0  0  0  0  0  0
   26.9097  -20.9103  -10.6731 N   0  0  0  0  0  0  0  0  0  0  0  0
   25.1027  -20.6819   -9.2023 C   0  0  0  0  0  0  0  0  0  0  0  0
   24.1736  -21.2232   -8.5490 O   0  0  0  0  0  0  0  0  0  0  0  0
   24.7842  -19.4791   -9.8580 O   0  0  0  0  0  0  0  0  0  0  0  0
  1  2  1  0
  3  2  1  0
  3  5  1  0
  3  4  1  6
  5  6  2  0
  7  8  1  0
  8 10  1  0
  9  8  2  0
 11 10  1  1
 11 13  1  0
 12 11  1  0
 12  5  1  0
 13 14  2  0
 13 20  1  0
 16 15  1  0
 17 16  1  0
 18 17  1  0
 19 18  1  1
 20 19  1  0
 21 23  1  0
 21 19  1  0
 22 21  2  0
M  END
$$$$
