SNM.pdb
     RDKit          3D

 23 22  0  0  1  0  0  0  0  0999 V2000
   16.8936  -13.6835  -13.5988 O   0  0  0  0  0  0  0  0  0  0  0  0
   17.5877  -12.6678  -14.2523 C   0  0  0  0  0  0  0  0  0  0  0  0
   16.6246  -11.8618  -15.1129 C   0  0  2  0  0  0  0  0  0  0  0  0
   16.4367  -12.6057  -16.3319 N   0  0  0  0  0  0  0  0  0  0  0  0
   17.1470  -10.5154  -15.4340 C   0  0  0  0  0  0  0  0  0  0  0  0
   17.8610  -10.3679  -16.4539 O   0  0  0  0  0  0  0  0  0  0  0  0
   18.1553   -5.5055  -15.6828 N   0  0  0  0  0  0  0  0  0  0  0  0
   17.0087   -5.6228  -14.8466 C   0  0  0  0  0  0  0  0  0  0  0  0
   16.4198   -4.5725  -14.5406 O   0  0  0  0  0  0  0  0  0  0  0  0
   16.6148   -6.9838  -14.4127 C   0  0  0  0  0  0  0  0  0  0  0  0
   17.4690   -8.0690  -14.9992 C   0  0  2  0  0  0  0  0  0  0  0  0
   16.8965   -9.3496  -14.6595 N   0  0  0  0  0  0  0  0  0  0  0  0
   18.8186   -7.9389  -14.3843 C   0  0  0  0  0  0  0  0  0  0  0  0
   18.9863   -8.1709  -13.1473 O   0  0  0  0  0  0  0  0  0  0  0  0
   26.0201  -10.2883  -14.5596 C   0  0  0  0  0  0  0  0  0  0  0  0
   24.6369   -9.7090  -15.5871 S   0  0  0  0  0  0  0  0  0  0  0  0
   23.4505   -8.7893  -14.5404 C   0  0  0  0  0  0  0  0  0  0  0  0
   22.2614   -8.3491  -15.3388 C   0  0  0  0  0  0  0  0  0  0  0  0
   21.3065   -7.5799  -14.5069 C   0  0  2  0  0  0  0  0  0  0  0  0
   19.9716   -7.5606  -15.1096 N   0  0  0  0  0  0  0  0  0  0  0  0
   21.7171   -6.1623  -14.4177 C   0  0  0  0  0  0  0  0  0  0  0  0
   21.3079   -5.2564  -15.1890 O   0  0  0  0  0  0  0  0  0  0  0  0
   22.6226   -5.7663  -13.4171 O   0  0  0  0  0  0  0  0  0  0  0  0
  1  2  1  0
  3  2  1  0
  3  5  1  0
  3  4  1  6
  5  6  2  0
  7  8  1  0
  8 10  1  0
  9  8  2  0
 11 10  1  1
 11 13  1  0
 12 11  1  0
 12  5  1  0
 13 14  2  0
 13 20  1  0
 16 15  1  0
 17 16  1  0
 18 17  1  0
 19 18  1  6
 20 19  1  0
 21 23  1  0
 21 19  1  0
 22 21  2  0
M  END
$$$$
