SNM.pdb
     RDKit          3D

 23 22  0  0  1  0  0  0  0  0999 V2000
   28.6894  -19.5655  -17.1366 O   0  0  0  0  0  0  0  0  0  0  0  0
   28.0218  -19.2559  -18.3193 C   0  0  0  0  0  0  0  0  0  0  0  0
   27.1172  -18.0519  -18.0960 C   0  0  2  0  0  0  0  0  0  0  0  0
   27.9710  -16.8924  -18.0647 N   0  0  0  0  0  0  0  0  0  0  0  0
   26.3624  -18.1413  -16.8267 C   0  0  0  0  0  0  0  0  0  0  0  0
   26.5955  -17.3063  -15.9211 O   0  0  0  0  0  0  0  0  0  0  0  0
   21.2551  -18.7097  -14.4701 N   0  0  0  0  0  0  0  0  0  0  0  0
   22.3003  -19.6764  -14.4907 C   0  0  0  0  0  0  0  0  0  0  0  0
   22.3685  -20.4589  -13.5280 O   0  0  0  0  0  0  0  0  0  0  0  0
   23.2166  -19.6686  -15.6551 C   0  0  0  0  0  0  0  0  0  0  0  0
   24.5592  -19.0694  -15.3555 C   0  0  2  0  0  0  0  0  0  0  0  0
   25.3710  -19.1215  -16.5477 N   0  0  0  0  0  0  0  0  0  0  0  0
   25.1766  -19.9011  -14.2861 C   0  0  0  0  0  0  0  0  0  0  0  0
   25.6909  -21.0281  -14.5648 O   0  0  0  0  0  0  0  0  0  0  0  0
   27.8358  -20.4833   -6.8354 C   0  0  0  0  0  0  0  0  0  0  0  0
   26.9408  -19.4587   -8.0411 S   0  0  0  0  0  0  0  0  0  0  0  0
   26.6913  -20.4162   -9.5806 C   0  0  0  0  0  0  0  0  0  0  0  0
   26.0545  -19.5697  -10.6403 C   0  0  0  0  0  0  0  0  0  0  0  0
   25.9357  -20.3055  -11.9209 C   0  0  2  0  0  0  0  0  0  0  0  0
   25.2328  -19.5085  -12.9291 N   0  0  0  0  0  0  0  0  0  0  0  0
   25.1196  -21.5261  -11.7471 C   0  0  0  0  0  0  0  0  0  0  0  0
   23.8673  -21.5634  -11.8623 O   0  0  0  0  0  0  0  0  0  0  0  0
   25.7525  -22.7421  -11.4324 O   0  0  0  0  0  0  0  0  0  0  0  0
  1  2  1  0
  3  2  1  0
  3  5  1  0
  3  4  1  1
  5  6  2  0
  7  8  1  0
  8 10  1  0
  9  8  2  0
 11 10  1  6
 11 13  1  0
 12 11  1  0
 12  5  1  0
 13 14  2  0
 13 20  1  0
 16 15  1  0
 17 16  1  0
 18 17  1  0
 19 18  1  1
 20 19  1  0
 21 23  1  0
 21 19  1  0
 22 21  2  0
M  END
$$$$
