HCM.pdb
     RDKit          3D

 25 25  0  0  1  0  0  0  0  0999 V2000
   18.5275  -13.5169  -16.8219 N   0  0  0  0  0  0  0  0  0  0  0  0
   19.7283  -12.8261  -17.2542 C   0  0  1  0  0  0  0  0  0  0  0  0
   20.1315  -13.3786  -18.5906 C   0  0  0  0  0  0  0  0  0  0  0  0
   20.5217  -14.7909  -18.3981 C   0  0  0  0  0  0  0  0  0  0  0  0
   19.9585  -15.8600  -19.0606 C   0  0  0  0  0  0  0  0  0  0  0  0
   20.5356  -17.0047  -18.6632 N   0  0  0  0  0  0  0  0  0  0  0  0
   21.4609  -16.6805  -17.7547 C   0  0  0  0  0  0  0  0  0  0  0  0
   21.4528  -15.3261  -17.5922 N   0  0  0  0  0  0  0  0  0  0  0  0
   19.4165  -11.3761  -17.2865 C   0  0  0  0  0  0  0  0  0  0  0  0
   18.6284  -10.8957  -18.1355 O   0  0  0  0  0  0  0  0  0  0  0  0
   19.9961  -10.4720  -16.3594 N   0  0  0  0  0  0  0  0  0  0  0  0
   19.7690   -9.0451  -16.3351 C   0  0  1  0  0  0  0  0  0  0  0  0
   18.4004   -8.8061  -15.7390 C   0  0  0  0  0  0  0  0  0  0  0  0
   18.1874   -9.5679  -14.1287 S   0  0  0  0  0  0  0  0  0  0  0  0
   20.8090   -8.3198  -15.5826 C   0  0  0  0  0  0  0  0  0  0  0  0
   21.2678   -8.7405  -14.5059 O   0  0  0  0  0  0  0  0  0  0  0  0
   26.7253   -3.1653  -17.2585 C   0  0  0  0  0  0  0  0  0  0  0  0
   25.2259   -4.0473  -17.6459 S   0  0  0  0  0  0  0  0  0  0  0  0
   24.4383   -4.9208  -16.3157 C   0  0  0  0  0  0  0  0  0  0  0  0
   23.2337   -5.7026  -16.6301 C   0  0  0  0  0  0  0  0  0  0  0  0
   22.4484   -6.3799  -15.5954 C   0  0  2  0  0  0  0  0  0  0  0  0
   21.3051   -7.0971  -16.1057 N   0  0  0  0  0  0  0  0  0  0  0  0
   22.0762   -5.6370  -14.3932 C   0  0  0  0  0  0  0  0  0  0  0  0
   20.9449   -5.1177  -14.2899 O   0  0  0  0  0  0  0  0  0  0  0  0
   22.9694   -5.4970  -13.3527 O   0  0  0  0  0  0  0  0  0  0  0  0
  2  9  1  0
  2  1  1  6
  3  2  1  0
  4  3  1  0
  5  4  2  0
  6  7  1  0
  6  5  1  0
  7  8  2  0
  8  4  1  0
  9 10  2  0
 11 12  1  0
 11  9  1  0
 12 13  1  1
 14 13  1  0
 15 12  1  0
 15 16  2  0
 17 18  1  0
 19 18  1  0
 20 19  1  0
 21 22  1  0
 21 20  1  6
 22 15  1  0
 23 21  1  0
 24 23  2  0
 25 23  1  0
M  END
$$$$
