HCM.pdb
     RDKit          3D

 25 25  0  0  1  0  0  0  0  0999 V2000
   27.1232  -19.4444  -15.3881 N   0  0  0  0  0  0  0  0  0  0  0  0
   27.3469  -18.4508  -14.3544 C   0  0  1  0  0  0  0  0  0  0  0  0
   27.1214  -17.0926  -14.9531 C   0  0  0  0  0  0  0  0  0  0  0  0
   28.0633  -16.9323  -16.0805 C   0  0  0  0  0  0  0  0  0  0  0  0
   29.2378  -17.6373  -16.2308 C   0  0  0  0  0  0  0  0  0  0  0  0
   29.8608  -17.2602  -17.3583 N   0  0  0  0  0  0  0  0  0  0  0  0
   29.0989  -16.3229  -17.9306 C   0  0  0  0  0  0  0  0  0  0  0  0
   27.9990  -16.1219  -17.1492 N   0  0  0  0  0  0  0  0  0  0  0  0
   26.4236  -18.7614  -13.2356 C   0  0  0  0  0  0  0  0  0  0  0  0
   25.6601  -17.8893  -12.7566 O   0  0  0  0  0  0  0  0  0  0  0  0
   26.3650  -20.0570  -12.6602 N   0  0  0  0  0  0  0  0  0  0  0  0
   25.4911  -20.4484  -11.5780 C   0  0  1  0  0  0  0  0  0  0  0  0
   24.6821  -21.6369  -12.0454 C   0  0  0  0  0  0  0  0  0  0  0  0
   23.6328  -21.2686  -13.4533 S   0  0  0  0  0  0  0  0  0  0  0  0
   26.2291  -20.7630  -10.3409 C   0  0  0  0  0  0  0  0  0  0  0  0
   27.4544  -20.9763  -10.3321 O   0  0  0  0  0  0  0  0  0  0  0  0
   28.7043  -17.6029   -5.8143 C   0  0  0  0  0  0  0  0  0  0  0  0
   29.0822  -19.3355   -5.6361 S   0  0  0  0  0  0  0  0  0  0  0  0
   27.8056  -20.4882   -6.0769 C   0  0  0  0  0  0  0  0  0  0  0  0
   27.1621  -20.3265   -7.3887 C   0  0  0  0  0  0  0  0  0  0  0  0
   26.0824  -21.2057   -7.8442 C   0  0  2  0  0  0  0  0  0  0  0  0
   25.5158  -20.8245   -9.1152 N   0  0  0  0  0  0  0  0  0  0  0  0
   25.0171  -21.5576   -6.9078 C   0  0  0  0  0  0  0  0  0  0  0  0
   23.8514  -21.1454   -7.0847 O   0  0  0  0  0  0  0  0  0  0  0  0
   25.2825  -22.3510   -5.8122 O   0  0  0  0  0  0  0  0  0  0  0  0
  2  9  1  0
  2  1  1  6
  3  2  1  0
  4  3  1  0
  5  4  2  0
  6  7  1  0
  6  5  1  0
  7  8  2  0
  8  4  1  0
  9 10  2  0
 11 12  1  0
 11  9  1  0
 12 13  1  6
 14 13  1  0
 15 12  1  0
 15 16  2  0
 17 18  1  0
 19 18  1  0
 20 19  1  0
 21 22  1  0
 21 20  1  1
 22 15  1  0
 23 21  1  0
 24 23  2  0
 25 23  1  0
M  END
$$$$
