HCM.pdb
     RDKit          3D

 25 25  0  0  1  0  0  0  0  0999 V2000
   24.8366  -18.5756  -16.5329 N   0  0  0  0  0  0  0  0  0  0  0  0
   25.8477  -18.4724  -15.4970 C   0  0  1  0  0  0  0  0  0  0  0  0
   26.4668  -17.1073  -15.5806 C   0  0  0  0  0  0  0  0  0  0  0  0
   27.6947  -17.2155  -16.3957 C   0  0  0  0  0  0  0  0  0  0  0  0
   28.1559  -18.3788  -16.9727 C   0  0  0  0  0  0  0  0  0  0  0  0
   29.2910  -18.1400  -17.6480 N   0  0  0  0  0  0  0  0  0  0  0  0
   29.5610  -16.8383  -17.5097 C   0  0  0  0  0  0  0  0  0  0  0  0
   28.5846  -16.2722  -16.7436 N   0  0  0  0  0  0  0  0  0  0  0  0
   25.1795  -18.7373  -14.1993 C   0  0  0  0  0  0  0  0  0  0  0  0
   24.5250  -17.8463  -13.6072 O   0  0  0  0  0  0  0  0  0  0  0  0
   25.2523  -20.0084  -13.5733 N   0  0  0  0  0  0  0  0  0  0  0  0
   24.5976  -20.3655  -12.3356 C   0  0  1  0  0  0  0  0  0  0  0  0
   23.5171  -21.3722  -12.6593 C   0  0  0  0  0  0  0  0  0  0  0  0
   22.7456  -22.0754  -11.2001 S   0  0  0  0  0  0  0  0  0  0  0  0
   25.5370  -20.9001  -11.3328 C   0  0  0  0  0  0  0  0  0  0  0  0
   26.1135  -21.9928  -11.4758 O   0  0  0  0  0  0  0  0  0  0  0  0
   27.7435  -18.8068   -4.3967 C   0  0  0  0  0  0  0  0  0  0  0  0
   28.5731  -19.2348   -5.9149 S   0  0  0  0  0  0  0  0  0  0  0  0
   27.7448  -20.3787   -6.9910 C   0  0  0  0  0  0  0  0  0  0  0  0
   26.7757  -19.8332   -7.9526 C   0  0  0  0  0  0  0  0  0  0  0  0
   25.9888  -20.6908   -8.8422 C   0  0  2  0  0  0  0  0  0  0  0  0
   25.7933  -20.1403  -10.1615 N   0  0  0  0  0  0  0  0  0  0  0  0
   24.7368  -21.2595   -8.3477 C   0  0  0  0  0  0  0  0  0  0  0  0
   23.6384  -20.7612   -8.6725 O   0  0  0  0  0  0  0  0  0  0  0  0
   24.7482  -22.3566   -7.5130 O   0  0  0  0  0  0  0  0  0  0  0  0
  2  9  1  0
  2  1  1  6
  3  2  1  0
  4  3  1  0
  5  4  2  0
  6  7  1  0
  6  5  1  0
  7  8  2  0
  8  4  1  0
  9 10  2  0
 11 12  1  0
 11  9  1  0
 12 13  1  6
 14 13  1  0
 15 12  1  0
 15 16  2  0
 17 18  1  0
 19 18  1  0
 20 19  1  0
 21 22  1  0
 21 20  1  1
 22 15  1  0
 23 21  1  0
 24 23  2  0
 25 23  1  0
M  END
$$$$
