HCM.pdb
     RDKit          3D

 25 25  0  0  1  0  0  0  0  0999 V2000
   26.2760  -18.3372  -16.3107 N   0  0  0  0  0  0  0  0  0  0  0  0
   26.1127  -18.0318  -14.9014 C   0  0  1  0  0  0  0  0  0  0  0  0
   24.9737  -17.0640  -14.7604 C   0  0  0  0  0  0  0  0  0  0  0  0
   25.3616  -15.8065  -15.4328 C   0  0  0  0  0  0  0  0  0  0  0  0
   24.8642  -15.3761  -16.6439 C   0  0  0  0  0  0  0  0  0  0  0  0
   25.4149  -14.1981  -16.9760 N   0  0  0  0  0  0  0  0  0  0  0  0
   26.2581  -13.8700  -15.9922 C   0  0  0  0  0  0  0  0  0  0  0  0
   26.2259  -14.8538  -15.0477 N   0  0  0  0  0  0  0  0  0  0  0  0
   25.8849  -19.3160  -14.1945 C   0  0  0  0  0  0  0  0  0  0  0  0
   24.9667  -20.0978  -14.5387 O   0  0  0  0  0  0  0  0  0  0  0  0
   26.6952  -19.7141  -13.0999 N   0  0  0  0  0  0  0  0  0  0  0  0
   26.6050  -20.9837  -12.4159 C   0  0  1  0  0  0  0  0  0  0  0  0
   27.5491  -21.9450  -13.1016 C   0  0  0  0  0  0  0  0  0  0  0  0
   29.2555  -21.3909  -13.0882 S   0  0  0  0  0  0  0  0  0  0  0  0
   26.9118  -20.8744  -10.9779 C   0  0  0  0  0  0  0  0  0  0  0  0
   28.0638  -21.0125  -10.5302 O   0  0  0  0  0  0  0  0  0  0  0  0
   29.1604  -19.8084   -4.4408 C   0  0  0  0  0  0  0  0  0  0  0  0
   28.2064  -19.0160   -5.7207 S   0  0  0  0  0  0  0  0  0  0  0  0
   26.9098  -19.9717   -6.4679 C   0  0  0  0  0  0  0  0  0  0  0  0
   26.9064  -20.0913   -7.9331 C   0  0  0  0  0  0  0  0  0  0  0  0
   25.8899  -20.8626   -8.6528 C   0  0  2  0  0  0  0  0  0  0  0  0
   25.8543  -20.6013  -10.0713 N   0  0  0  0  0  0  0  0  0  0  0  0
   24.5303  -20.9081   -8.1189 C   0  0  0  0  0  0  0  0  0  0  0  0
   23.5539  -20.6016   -8.8352 O   0  0  0  0  0  0  0  0  0  0  0  0
   24.3034  -21.2902   -6.8140 O   0  0  0  0  0  0  0  0  0  0  0  0
  2  9  1  0
  2  1  1  6
  3  2  1  0
  4  3  1  0
  5  4  2  0
  6  7  1  0
  6  5  1  0
  7  8  2  0
  8  4  1  0
  9 10  2  0
 11 12  1  0
 11  9  1  0
 12 13  1  6
 14 13  1  0
 15 12  1  0
 15 16  2  0
 17 18  1  0
 19 18  1  0
 20 19  1  0
 21 22  1  0
 21 20  1  1
 22 15  1  0
 23 21  1  0
 24 23  2  0
 25 23  1  0
M  END
$$$$
