HCM.pdb
     RDKit          3D

 25 25  0  0  1  0  0  0  0  0999 V2000
   24.2749  -10.2768  -18.3117 N   0  0  0  0  0  0  0  0  0  0  0  0
   23.9217  -10.2099  -16.9057 C   0  0  1  0  0  0  0  0  0  0  0  0
   25.1162  -10.6349  -16.1017 C   0  0  0  0  0  0  0  0  0  0  0  0
   25.3309  -12.0779  -16.3370 C   0  0  0  0  0  0  0  0  0  0  0  0
   24.8586  -13.0863  -15.5249 C   0  0  0  0  0  0  0  0  0  0  0  0
   25.2215  -14.2816  -16.0157 N   0  0  0  0  0  0  0  0  0  0  0  0
   25.9199  -14.0498  -17.1316 C   0  0  0  0  0  0  0  0  0  0  0  0
   25.9871  -12.7017  -17.3285 N   0  0  0  0  0  0  0  0  0  0  0  0
   23.4875   -8.8196  -16.6248 C   0  0  0  0  0  0  0  0  0  0  0  0
   24.3189   -7.8926  -16.4751 O   0  0  0  0  0  0  0  0  0  0  0  0
   22.1146   -8.4794  -16.5134 N   0  0  0  0  0  0  0  0  0  0  0  0
   21.5950   -7.1341  -16.4230 C   0  0  1  0  0  0  0  0  0  0  0  0
   22.1138   -6.3585  -17.6125 C   0  0  0  0  0  0  0  0  0  0  0  0
   21.4001   -4.7184  -17.7534 S   0  0  0  0  0  0  0  0  0  0  0  0
   20.1219   -7.0993  -16.3690 C   0  0  0  0  0  0  0  0  0  0  0  0
   19.4112   -7.5166  -17.3004 O   0  0  0  0  0  0  0  0  0  0  0  0
   18.0436   -9.6262  -10.2931 C   0  0  0  0  0  0  0  0  0  0  0  0
   17.4526   -9.3572  -11.9528 S   0  0  0  0  0  0  0  0  0  0  0  0
   17.9996   -7.8808  -12.7736 C   0  0  0  0  0  0  0  0  0  0  0  0
   17.5902   -7.6845  -14.1718 C   0  0  0  0  0  0  0  0  0  0  0  0
   18.0684   -6.5574  -14.9762 C   0  0  2  0  0  0  0  0  0  0  0  0
   19.4917   -6.5707  -15.2122 N   0  0  0  0  0  0  0  0  0  0  0  0
   17.6325   -5.2069  -14.6272 C   0  0  0  0  0  0  0  0  0  0  0  0
   16.4173   -4.9227  -14.5767 O   0  0  0  0  0  0  0  0  0  0  0  0
   18.5573   -4.2235  -14.3481 O   0  0  0  0  0  0  0  0  0  0  0  0
  2  9  1  0
  2  1  1  6
  3  2  1  0
  4  3  1  0
  5  4  2  0
  6  7  1  0
  6  5  1  0
  7  8  2  0
  8  4  1  0
  9 10  2  0
 11 12  1  0
 11  9  1  0
 12 13  1  6
 14 13  1  0
 15 12  1  0
 15 16  2  0
 17 18  1  0
 19 18  1  0
 20 19  1  0
 21 22  1  0
 21 20  1  1
 22 15  1  0
 23 21  1  0
 24 23  2  0
 25 23  1  0
M  END
$$$$
