HCM.pdb
     RDKit          3D

 25 25  0  0  1  0  0  0  0  0999 V2000
   24.0411  -20.8247  -15.5280 N   0  0  0  0  0  0  0  0  0  0  0  0
   25.2160  -20.0960  -15.0867 C   0  0  1  0  0  0  0  0  0  0  0  0
   25.5221  -19.0383  -16.1071 C   0  0  0  0  0  0  0  0  0  0  0  0
   26.0183  -19.7130  -17.3246 C   0  0  0  0  0  0  0  0  0  0  0  0
   25.2599  -19.9699  -18.4462 C   0  0  0  0  0  0  0  0  0  0  0  0
   26.0048  -20.5908  -19.3741 N   0  0  0  0  0  0  0  0  0  0  0  0
   27.2300  -20.7341  -18.8595 C   0  0  0  0  0  0  0  0  0  0  0  0
   27.2388  -20.1972  -17.6055 N   0  0  0  0  0  0  0  0  0  0  0  0
   24.9161  -19.5471  -13.7416 C   0  0  0  0  0  0  0  0  0  0  0  0
   24.3242  -18.4505  -13.6001 O   0  0  0  0  0  0  0  0  0  0  0  0
   25.2857  -20.2383  -12.5590 N   0  0  0  0  0  0  0  0  0  0  0  0
   24.9599  -19.8209  -11.2145 C   0  0  1  0  0  0  0  0  0  0  0  0
   23.4594  -19.9129  -11.0539 C   0  0  0  0  0  0  0  0  0  0  0  0
   22.8217  -21.5712  -11.3039 S   0  0  0  0  0  0  0  0  0  0  0  0
   25.6529  -20.6232  -10.1898 C   0  0  0  0  0  0  0  0  0  0  0  0
   25.7687  -21.8584  -10.2766 O   0  0  0  0  0  0  0  0  0  0  0  0
   30.3560  -18.7964   -5.2713 C   0  0  0  0  0  0  0  0  0  0  0  0
   28.7425  -19.1378   -4.5959 S   0  0  0  0  0  0  0  0  0  0  0  0
   27.6792  -20.1968   -5.5451 C   0  0  0  0  0  0  0  0  0  0  0  0
   27.3097  -19.7584   -6.8987 C   0  0  0  0  0  0  0  0  0  0  0  0
   26.5001  -20.5868   -7.7957 C   0  0  2  0  0  0  0  0  0  0  0  0
   26.2086  -19.9622   -9.0632 N   0  0  0  0  0  0  0  0  0  0  0  0
   25.2990  -21.2310   -7.2683 C   0  0  0  0  0  0  0  0  0  0  0  0
   24.1675  -20.7537   -7.4964 O   0  0  0  0  0  0  0  0  0  0  0  0
   25.3961  -22.3775   -6.5090 O   0  0  0  0  0  0  0  0  0  0  0  0
  2  9  1  0
  2  1  1  6
  3  2  1  0
  4  3  1  0
  5  4  2  0
  6  7  1  0
  6  5  1  0
  7  8  2  0
  8  4  1  0
  9 10  2  0
 11 12  1  0
 11  9  1  0
 12 13  1  1
 14 13  1  0
 15 12  1  0
 15 16  2  0
 17 18  1  0
 19 18  1  0
 20 19  1  0
 21 22  1  0
 21 20  1  1
 22 15  1  0
 23 21  1  0
 24 23  2  0
 25 23  1  0
M  END
$$$$
