HCM.pdb
     RDKit          3D

 25 25  0  0  1  0  0  0  0  0999 V2000
   21.4510  -20.0791  -20.3982 N   0  0  0  0  0  0  0  0  0  0  0  0
   21.0749  -19.0745  -19.4208 C   0  0  1  0  0  0  0  0  0  0  0  0
   21.6898  -17.7679  -19.8313 C   0  0  0  0  0  0  0  0  0  0  0  0
   23.1583  -17.9319  -19.8115 C   0  0  0  0  0  0  0  0  0  0  0  0
   23.9674  -17.6466  -18.7330 C   0  0  0  0  0  0  0  0  0  0  0  0
   25.2488  -17.9057  -19.0366 N   0  0  0  0  0  0  0  0  0  0  0  0
   25.2689  -18.3533  -20.2959 C   0  0  0  0  0  0  0  0  0  0  0  0
   23.9900  -18.3695  -20.7705 N   0  0  0  0  0  0  0  0  0  0  0  0
   19.5927  -19.0381  -19.3723 C   0  0  0  0  0  0  0  0  0  0  0  0
   18.9325  -18.2815  -20.1237 O   0  0  0  0  0  0  0  0  0  0  0  0
   18.8596  -19.8566  -18.4749 N   0  0  0  0  0  0  0  0  0  0  0  0
   17.4189  -19.9589  -18.4291 C   0  0  1  0  0  0  0  0  0  0  0  0
   16.9471  -20.4342  -19.7846 C   0  0  0  0  0  0  0  0  0  0  0  0
   15.2134  -20.8955  -19.8083 S   0  0  0  0  0  0  0  0  0  0  0  0
   16.9496  -20.8583  -17.3591 C   0  0  0  0  0  0  0  0  0  0  0  0
   17.4389  -21.9868  -17.1751 O   0  0  0  0  0  0  0  0  0  0  0  0
   11.3523  -19.1579  -13.5464 C   0  0  0  0  0  0  0  0  0  0  0  0
   12.5708  -19.9799  -12.5386 S   0  0  0  0  0  0  0  0  0  0  0  0
   13.7763  -20.9740  -13.3819 C   0  0  0  0  0  0  0  0  0  0  0  0
   14.3692  -20.4314  -14.6129 C   0  0  0  0  0  0  0  0  0  0  0  0
   15.4083  -21.1436  -15.3607 C   0  0  2  0  0  0  0  0  0  0  0  0
   15.9015  -20.4206  -16.5078 N   0  0  0  0  0  0  0  0  0  0  0  0
   15.1901  -22.5457  -15.7099 C   0  0  0  0  0  0  0  0  0  0  0  0
   14.6745  -22.8571  -16.8042 O   0  0  0  0  0  0  0  0  0  0  0  0
   15.5502  -23.5488  -14.8355 O   0  0  0  0  0  0  0  0  0  0  0  0
  2  9  1  0
  2  1  1  6
  3  2  1  0
  4  3  1  0
  5  4  2  0
  6  7  1  0
  6  5  1  0
  7  8  2  0
  8  4  1  0
  9 10  2  0
 11 12  1  0
 11  9  1  0
 12 13  1  6
 14 13  1  0
 15 12  1  0
 15 16  2  0
 17 18  1  0
 19 18  1  0
 20 19  1  0
 21 22  1  0
 21 20  1  6
 22 15  1  0
 23 21  1  0
 24 23  2  0
 25 23  1  0
M  END
$$$$
