HCM.pdb
     RDKit          3D

 25 25  0  0  1  0  0  0  0  0999 V2000
   23.5988  -15.6200  -17.1256 N   0  0  0  0  0  0  0  0  0  0  0  0
   23.9411  -14.2822  -17.5718 C   0  0  1  0  0  0  0  0  0  0  0  0
   23.6232  -14.1806  -19.0355 C   0  0  0  0  0  0  0  0  0  0  0  0
   24.4474  -15.1785  -19.7487 C   0  0  0  0  0  0  0  0  0  0  0  0
   25.7581  -14.9887  -20.1297 C   0  0  0  0  0  0  0  0  0  0  0  0
   26.2202  -16.0838  -20.7532 N   0  0  0  0  0  0  0  0  0  0  0  0
   25.2210  -16.9713  -20.7753 C   0  0  0  0  0  0  0  0  0  0  0  0
   24.1361  -16.4179  -20.1609 N   0  0  0  0  0  0  0  0  0  0  0  0
   23.1735  -13.3275  -16.7351 C   0  0  0  0  0  0  0  0  0  0  0  0
   21.9743  -13.5388  -16.4350 O   0  0  0  0  0  0  0  0  0  0  0  0
   23.7626  -12.1358  -16.2393 N   0  0  0  0  0  0  0  0  0  0  0  0
   23.0901  -11.1527  -15.4212 C   0  0  1  0  0  0  0  0  0  0  0  0
   23.9857  -10.8425  -14.2433 C   0  0  0  0  0  0  0  0  0  0  0  0
   23.2816   -9.6353  -13.1181 S   0  0  0  0  0  0  0  0  0  0  0  0
   22.7556   -9.9273  -16.1700 C   0  0  0  0  0  0  0  0  0  0  0  0
   23.5467   -9.3995  -16.9714 O   0  0  0  0  0  0  0  0  0  0  0  0
   16.3665   -5.8499  -18.7759 C   0  0  0  0  0  0  0  0  0  0  0  0
   17.1650   -7.2099  -17.9458 S   0  0  0  0  0  0  0  0  0  0  0  0
   18.9025   -7.0460  -17.6184 C   0  0  0  0  0  0  0  0  0  0  0  0
   19.5855   -8.1755  -16.9714 C   0  0  0  0  0  0  0  0  0  0  0  0
   21.0121   -8.1413  -16.6401 C   0  0  2  0  0  0  0  0  0  0  0  0
   21.4845   -9.3282  -15.9694 N   0  0  0  0  0  0  0  0  0  0  0  0
   21.5570   -6.9506  -15.9913 C   0  0  0  0  0  0  0  0  0  0  0  0
   21.9821   -5.9927  -16.6709 O   0  0  0  0  0  0  0  0  0  0  0  0
   21.6108   -6.8657  -14.6164 O   0  0  0  0  0  0  0  0  0  0  0  0
  2  9  1  0
  2  1  1  1
  3  2  1  0
  4  3  1  0
  5  4  2  0
  6  7  1  0
  6  5  1  0
  7  8  2  0
  8  4  1  0
  9 10  2  0
 11 12  1  0
 11  9  1  0
 12 13  1  1
 14 13  1  0
 15 12  1  0
 15 16  2  0
 17 18  1  0
 19 18  1  0
 20 19  1  0
 21 22  1  0
 21 20  1  1
 22 15  1  0
 23 21  1  0
 24 23  2  0
 25 23  1  0
M  END
$$$$
