HCM.pdb
     RDKit          3D

 25 25  0  0  1  0  0  0  0  0999 V2000
   17.9065  -14.1182  -18.2399 N   0  0  0  0  0  0  0  0  0  0  0  0
   19.0142  -13.7984  -17.3587 C   0  0  1  0  0  0  0  0  0  0  0  0
   20.2290  -14.5328  -17.8474 C   0  0  0  0  0  0  0  0  0  0  0  0
   20.0161  -15.9745  -17.6028 C   0  0  0  0  0  0  0  0  0  0  0  0
   20.2753  -16.9741  -18.5154 C   0  0  0  0  0  0  0  0  0  0  0  0
   19.9787  -18.1708  -17.9851 N   0  0  0  0  0  0  0  0  0  0  0  0
   19.5332  -17.9486  -16.7447 C   0  0  0  0  0  0  0  0  0  0  0  0
   19.5558  -16.6050  -16.5103 N   0  0  0  0  0  0  0  0  0  0  0  0
   19.1746  -12.3237  -17.3677 C   0  0  0  0  0  0  0  0  0  0  0  0
   19.3813  -11.6952  -18.4331 O   0  0  0  0  0  0  0  0  0  0  0  0
   19.1011  -11.5622  -16.1729 N   0  0  0  0  0  0  0  0  0  0  0  0
   19.1991  -10.1226  -16.0960 C   0  0  1  0  0  0  0  0  0  0  0  0
   18.1026   -9.6342  -15.1768 C   0  0  0  0  0  0  0  0  0  0  0  0
   16.4636  -10.1465  -15.6967 S   0  0  0  0  0  0  0  0  0  0  0  0
   20.5226   -9.6700  -15.6295 C   0  0  0  0  0  0  0  0  0  0  0  0
   21.1110  -10.2057  -14.6737 O   0  0  0  0  0  0  0  0  0  0  0  0
   27.2329  -10.2329  -14.7785 C   0  0  0  0  0  0  0  0  0  0  0  0
   25.5327  -10.3407  -15.3022 S   0  0  0  0  0  0  0  0  0  0  0  0
   24.9239   -9.0329  -16.3375 C   0  0  0  0  0  0  0  0  0  0  0  0
   23.5019   -9.0613  -16.7092 C   0  0  0  0  0  0  0  0  0  0  0  0
   22.5155   -8.1670  -16.0982 C   0  0  2  0  0  0  0  0  0  0  0  0
   21.1483   -8.5838  -16.2953 N   0  0  0  0  0  0  0  0  0  0  0  0
   22.6359   -6.7276  -16.3203 C   0  0  0  0  0  0  0  0  0  0  0  0
   21.8164   -6.1238  -17.0442 O   0  0  0  0  0  0  0  0  0  0  0  0
   23.6577   -6.0122  -15.7334 O   0  0  0  0  0  0  0  0  0  0  0  0
  2  9  1  0
  2  1  1  6
  3  2  1  0
  4  3  1  0
  5  4  2  0
  6  7  1  0
  6  5  1  0
  7  8  2  0
  8  4  1  0
  9 10  2  0
 11 12  1  0
 11  9  1  0
 12 13  1  1
 14 13  1  0
 15 12  1  0
 15 16  2  0
 17 18  1  0
 19 18  1  0
 20 19  1  0
 21 22  1  0
 21 20  1  6
 22 15  1  0
 23 21  1  0
 24 23  2  0
 25 23  1  0
M  END
$$$$
