HCM.pdb
     RDKit          3D

 25 25  0  0  1  0  0  0  0  0999 V2000
   26.9068  -22.7580  -15.6627 N   0  0  0  0  0  0  0  0  0  0  0  0
   26.7105  -24.0506  -16.2924 C   0  0  1  0  0  0  0  0  0  0  0  0
   25.5182  -23.9537  -17.1995 C   0  0  0  0  0  0  0  0  0  0  0  0
   24.3198  -23.7690  -16.3547 C   0  0  0  0  0  0  0  0  0  0  0  0
   23.7445  -22.5517  -16.0607 C   0  0  0  0  0  0  0  0  0  0  0  0
   22.6713  -22.7269  -15.2741 N   0  0  0  0  0  0  0  0  0  0  0  0
   22.5532  -24.0413  -15.0617 C   0  0  0  0  0  0  0  0  0  0  0  0
   23.5617  -24.6793  -15.7227 N   0  0  0  0  0  0  0  0  0  0  0  0
   27.9664  -24.3902  -17.0053 C   0  0  0  0  0  0  0  0  0  0  0  0
   28.4438  -23.6342  -17.8847 O   0  0  0  0  0  0  0  0  0  0  0  0
   28.6801  -25.5834  -16.7230 N   0  0  0  0  0  0  0  0  0  0  0  0
   30.0093  -25.8907  -17.1994 C   0  0  1  0  0  0  0  0  0  0  0  0
   30.9371  -24.8010  -16.7124 C   0  0  0  0  0  0  0  0  0  0  0  0
   32.6381  -25.0354  -17.2327 S   0  0  0  0  0  0  0  0  0  0  0  0
   30.4745  -27.2189  -16.7595 C   0  0  0  0  0  0  0  0  0  0  0  0
   30.3349  -27.6202  -15.5906 O   0  0  0  0  0  0  0  0  0  0  0  0
   28.8543  -33.2894  -19.5802 C   0  0  0  0  0  0  0  0  0  0  0  0
   28.1380  -31.6575  -19.5886 S   0  0  0  0  0  0  0  0  0  0  0  0
   28.3917  -30.6587  -18.1427 C   0  0  0  0  0  0  0  0  0  0  0  0
   29.1603  -29.4151  -18.2973 C   0  0  0  0  0  0  0  0  0  0  0  0
   30.6125  -29.3646  -18.1113 C   0  0  2  0  0  0  0  0  0  0  0  0
   31.1045  -28.0709  -17.7040 N   0  0  0  0  0  0  0  0  0  0  0  0
   31.4762  -29.9233  -19.1494 C   0  0  0  0  0  0  0  0  0  0  0  0
   31.8815  -29.2114  -20.0923 O   0  0  0  0  0  0  0  0  0  0  0  0
   31.8575  -31.2472  -19.1046 O   0  0  0  0  0  0  0  0  0  0  0  0
  2  9  1  0
  2  1  1  6
  3  2  1  0
  4  3  1  0
  5  4  2  0
  6  7  1  0
  6  5  1  0
  7  8  2  0
  8  4  1  0
  9 10  2  0
 11 12  1  0
 11  9  1  0
 12 13  1  1
 14 13  1  0
 15 12  1  0
 15 16  2  0
 17 18  1  0
 19 18  1  0
 20 19  1  0
 21 22  1  0
 21 20  1  6
 22 15  1  0
 23 21  1  0
 24 23  2  0
 25 23  1  0
M  END
$$$$
