HCM.pdb
     RDKit          3D

 25 25  0  0  1  0  0  0  0  0999 V2000
   27.4690  -21.3424  -16.5459 N   0  0  0  0  0  0  0  0  0  0  0  0
   27.1038  -20.3643  -15.5380 C   0  0  1  0  0  0  0  0  0  0  0  0
   26.4088  -19.2231  -16.2225 C   0  0  0  0  0  0  0  0  0  0  0  0
   27.4449  -18.3474  -16.8087 C   0  0  0  0  0  0  0  0  0  0  0  0
   27.8416  -17.1370  -16.2828 C   0  0  0  0  0  0  0  0  0  0  0  0
   28.8004  -16.5935  -17.0487 N   0  0  0  0  0  0  0  0  0  0  0  0
   29.0216  -17.4416  -18.0578 C   0  0  0  0  0  0  0  0  0  0  0  0
   28.1924  -18.5149  -17.9114 N   0  0  0  0  0  0  0  0  0  0  0  0
   26.2542  -21.0563  -14.5380 C   0  0  0  0  0  0  0  0  0  0  0  0
   25.4637  -21.9706  -14.8726 O   0  0  0  0  0  0  0  0  0  0  0  0
   26.2994  -20.7136  -13.1620 N   0  0  0  0  0  0  0  0  0  0  0  0
   25.2925  -21.0585  -12.1847 C   0  0  1  0  0  0  0  0  0  0  0  0
   25.8529  -20.7471  -10.8155 C   0  0  0  0  0  0  0  0  0  0  0  0
   24.6367  -20.8896   -9.5043 S   0  0  0  0  0  0  0  0  0  0  0  0
   24.0194  -20.3497  -12.4102 C   0  0  0  0  0  0  0  0  0  0  0  0
   23.9507  -19.1100  -12.4810 O   0  0  0  0  0  0  0  0  0  0  0  0
   22.0764  -23.7351  -17.0713 C   0  0  0  0  0  0  0  0  0  0  0  0
   21.9305  -22.1203  -16.3313 S   0  0  0  0  0  0  0  0  0  0  0  0
   21.0151  -22.0091  -14.8139 C   0  0  0  0  0  0  0  0  0  0  0  0
   21.0027  -20.7149  -14.1166 C   0  0  0  0  0  0  0  0  0  0  0  0
   21.5112  -20.5566  -12.7519 C   0  0  2  0  0  0  0  0  0  0  0  0
   22.8288  -21.1095  -12.5519 N   0  0  0  0  0  0  0  0  0  0  0  0
   20.6444  -20.9131  -11.6307 C   0  0  0  0  0  0  0  0  0  0  0  0
   19.5903  -20.2791  -11.4135 O   0  0  0  0  0  0  0  0  0  0  0  0
   20.9771  -21.9564  -10.7932 O   0  0  0  0  0  0  0  0  0  0  0  0
  2  9  1  0
  2  1  1  6
  3  2  1  0
  4  3  1  0
  5  4  2  0
  6  7  1  0
  6  5  1  0
  7  8  2  0
  8  4  1  0
  9 10  2  0
 11 12  1  0
 11  9  1  0
 12 13  1  1
 14 13  1  0
 15 12  1  0
 15 16  2  0
 17 18  1  0
 19 18  1  0
 20 19  1  0
 21 22  1  0
 21 20  1  6
 22 15  1  0
 23 21  1  0
 24 23  2  0
 25 23  1  0
M  END
$$$$
