HCM.pdb
     RDKit          3D

 25 25  0  0  1  0  0  0  0  0999 V2000
   20.7080  -21.3094  -12.2771 N   0  0  0  0  0  0  0  0  0  0  0  0
   21.2853  -20.9327  -13.5542 C   0  0  1  0  0  0  0  0  0  0  0  0
   20.3514  -19.9667  -14.2239 C   0  0  0  0  0  0  0  0  0  0  0  0
   19.1222  -20.7023  -14.5871 C   0  0  0  0  0  0  0  0  0  0  0  0
   19.0325  -21.6331  -15.5994 C   0  0  0  0  0  0  0  0  0  0  0  0
   17.7834  -22.1189  -15.6697 N   0  0  0  0  0  0  0  0  0  0  0  0
   17.0734  -21.5101  -14.7148 C   0  0  0  0  0  0  0  0  0  0  0  0
   17.8921  -20.6433  -14.0521 N   0  0  0  0  0  0  0  0  0  0  0  0
   22.6268  -20.3614  -13.2814 C   0  0  0  0  0  0  0  0  0  0  0  0
   22.8371  -19.1267  -13.3462 O   0  0  0  0  0  0  0  0  0  0  0  0
   23.7282  -21.1864  -12.9360 N   0  0  0  0  0  0  0  0  0  0  0  0
   25.0952  -20.7375  -12.8033 C   0  0  1  0  0  0  0  0  0  0  0  0
   25.7902  -21.6585  -11.8263 C   0  0  0  0  0  0  0  0  0  0  0  0
   25.3096  -21.3736  -10.1214 S   0  0  0  0  0  0  0  0  0  0  0  0
   25.8061  -20.7005  -14.0945 C   0  0  0  0  0  0  0  0  0  0  0  0
   25.7161  -21.6164  -14.9310 O   0  0  0  0  0  0  0  0  0  0  0  0
   30.2229  -15.5272  -18.4896 C   0  0  0  0  0  0  0  0  0  0  0  0
   29.2874  -15.9846  -17.0432 S   0  0  0  0  0  0  0  0  0  0  0  0
   28.7524  -17.6739  -16.9306 C   0  0  0  0  0  0  0  0  0  0  0  0
   27.9633  -18.0638  -15.7531 C   0  0  0  0  0  0  0  0  0  0  0  0
   27.3499  -19.3881  -15.6259 C   0  0  2  0  0  0  0  0  0  0  0  0
   26.6229  -19.5790  -14.3943 N   0  0  0  0  0  0  0  0  0  0  0  0
   28.1579  -20.5703  -15.9173 C   0  0  0  0  0  0  0  0  0  0  0  0
   28.1663  -21.0700  -17.0620 O   0  0  0  0  0  0  0  0  0  0  0  0
   28.9248  -21.1540  -14.9317 O   0  0  0  0  0  0  0  0  0  0  0  0
  2  9  1  0
  2  1  1  1
  3  2  1  0
  4  3  1  0
  5  4  2  0
  6  7  1  0
  6  5  1  0
  7  8  2  0
  8  4  1  0
  9 10  2  0
 11 12  1  0
 11  9  1  0
 12 13  1  1
 14 13  1  0
 15 12  1  0
 15 16  2  0
 17 18  1  0
 19 18  1  0
 20 19  1  0
 21 22  1  0
 21 20  1  1
 22 15  1  0
 23 21  1  0
 24 23  2  0
 25 23  1  0
M  END
$$$$
