HCM.pdb
     RDKit          3D

 25 25  0  0  1  0  0  0  0  0999 V2000
   16.0820  -12.7813    3.9529 N   0  0  0  0  0  0  0  0  0  0  0  0
   16.3575  -12.7192    5.3763 C   0  0  1  0  0  0  0  0  0  0  0  0
   15.5955  -13.8236    6.0498 C   0  0  0  0  0  0  0  0  0  0  0  0
   15.8852  -15.0800    5.3277 C   0  0  0  0  0  0  0  0  0  0  0  0
   16.9496  -15.9136    5.5951 C   0  0  0  0  0  0  0  0  0  0  0  0
   16.9281  -16.9690    4.7664 N   0  0  0  0  0  0  0  0  0  0  0  0
   15.8632  -16.8205    3.9724 C   0  0  0  0  0  0  0  0  0  0  0  0
   15.2247  -15.6648    4.3155 N   0  0  0  0  0  0  0  0  0  0  0  0
   17.8270  -12.8288    5.5473 C   0  0  0  0  0  0  0  0  0  0  0  0
   18.5496  -13.3583    4.6695 O   0  0  0  0  0  0  0  0  0  0  0  0
   18.4770  -12.3398    6.7097 N   0  0  0  0  0  0  0  0  0  0  0  0
   19.9063  -12.3306    6.9226 C   0  0  1  0  0  0  0  0  0  0  0  0
   20.3704  -10.8926    6.8738 C   0  0  0  0  0  0  0  0  0  0  0  0
   21.6482  -10.5206    8.0771 S   0  0  0  0  0  0  0  0  0  0  0  0
   20.2927  -12.9696    8.1939 C   0  0  0  0  0  0  0  0  0  0  0  0
   19.6101  -12.8622    9.2280 O   0  0  0  0  0  0  0  0  0  0  0  0
   24.5649  -19.2379   10.7726 C   0  0  0  0  0  0  0  0  0  0  0  0
   23.9951  -18.1100    9.5159 S   0  0  0  0  0  0  0  0  0  0  0  0
   23.1381  -16.6558   10.0669 C   0  0  0  0  0  0  0  0  0  0  0  0
   22.6393  -15.7270    9.0423 C   0  0  0  0  0  0  0  0  0  0  0  0
   21.9511  -14.4800    9.3851 C   0  0  2  0  0  0  0  0  0  0  0  0
   21.4870  -13.7353    8.2398 N   0  0  0  0  0  0  0  0  0  0  0  0
   22.5704  -13.5756   10.3516 C   0  0  0  0  0  0  0  0  0  0  0  0
   23.3475  -12.6738    9.9732 O   0  0  0  0  0  0  0  0  0  0  0  0
   22.3066  -13.7038   11.6986 O   0  0  0  0  0  0  0  0  0  0  0  0
  2  9  1  0
  2  1  1  6
  3  2  1  0
  4  3  1  0
  5  4  2  0
  6  7  1  0
  6  5  1  0
  7  8  2  0
  8  4  1  0
  9 10  2  0
 11 12  1  0
 11  9  1  0
 12 13  1  1
 14 13  1  0
 15 12  1  0
 15 16  2  0
 17 18  1  0
 19 18  1  0
 20 19  1  0
 21 22  1  0
 21 20  1  6
 22 15  1  0
 23 21  1  0
 24 23  2  0
 25 23  1  0
M  END
$$$$
