MAQ.pdb
     RDKit          3D

 23 22  0  0  1  0  0  0  0  0999 V2000
   28.9621  -20.7661   -9.3632 C   0  0  0  0  0  0  0  0  0  0  0  0
   29.0946  -22.0642  -10.6357 S   0  0  0  0  0  0  0  0  0  0  0  0
   28.3322  -21.4922  -12.2010 C   0  0  0  0  0  0  0  0  0  0  0  0
   26.8994  -21.1000  -11.9789 C   0  0  0  0  0  0  0  0  0  0  0  0
   26.1525  -20.7532  -13.2259 C   0  0  2  0  0  0  0  0  0  0  0  0
   26.9601  -19.7617  -13.9313 N   0  0  0  0  0  0  0  0  0  0  0  0
   24.7716  -20.3052  -13.0270 C   0  0  0  0  0  0  0  0  0  0  0  0
   24.4319  -19.6391  -12.0034 O   0  0  0  0  0  0  0  0  0  0  0  0
   21.9466  -19.2887  -14.8966 C   0  0  0  0  0  0  0  0  0  0  0  0
   22.3485  -20.1679  -13.7031 C   0  0  2  0  0  0  0  0  0  0  0  0
   23.7020  -20.5641  -13.9361 N   0  0  0  0  0  0  0  0  0  0  0  0
   21.4055  -21.2603  -13.5529 C   0  0  0  0  0  0  0  0  0  0  0  0
   21.5154  -22.2957  -14.2392 O   0  0  0  0  0  0  0  0  0  0  0  0
   18.8979  -23.5613   -8.5372 N   0  0  0  0  0  0  0  0  0  0  0  0
   19.5638  -24.4595   -9.3888 C   0  0  0  0  0  0  0  0  0  0  0  0
   19.9787  -25.5638   -9.0052 O   0  0  0  0  0  0  0  0  0  0  0  0
   19.7732  -24.0492  -10.8197 C   0  0  0  0  0  0  0  0  0  0  0  0
   19.2481  -22.6544  -11.0169 C   0  0  0  0  0  0  0  0  0  0  0  0
   19.3616  -22.2312  -12.4209 C   0  0  2  0  0  0  0  0  0  0  0  0
   20.3428  -21.1771  -12.6287 N   0  0  0  0  0  0  0  0  0  0  0  0
   18.1184  -21.8381  -13.0608 C   0  0  0  0  0  0  0  0  0  0  0  0
   17.5459  -22.6260  -13.9131 O   0  0  0  0  0  0  0  0  0  0  0  0
   17.4169  -20.6578  -12.8669 O   0  0  0  0  0  0  0  0  0  0  0  0
  2  1  1  0
  3  2  1  0
  4  3  1  0
  5  4  1  0
  5  6  1  1
  7 11  1  0
  7  5  1  0
  8  7  2  0
 10  9  1  6
 10 11  1  0
 10 12  1  0
 12 20  1  0
 13 12  2  0
 14 15  1  0
 15 17  1  0
 16 15  2  0
 17 18  1  0
 19 21  1  0
 19 18  1  1
 20 19  1  0
 21 23  1  0
 22 21  2  0
M  END
$$$$
