MAQ.pdb
     RDKit          3D

 23 22  0  0  1  0  0  0  0  0999 V2000
   21.2932  -19.5754  -12.3812 C   0  0  0  0  0  0  0  0  0  0  0  0
   21.2782  -21.3396  -12.8383 S   0  0  0  0  0  0  0  0  0  0  0  0
   19.5539  -21.9556  -12.9161 C   0  0  0  0  0  0  0  0  0  0  0  0
   18.8548  -21.7380  -11.6047 C   0  0  0  0  0  0  0  0  0  0  0  0
   17.4367  -22.2078  -11.5741 C   0  0  2  0  0  0  0  0  0  0  0  0
   16.7289  -21.4588  -12.6091 N   0  0  0  0  0  0  0  0  0  0  0  0
   16.7729  -22.1174  -10.2709 C   0  0  0  0  0  0  0  0  0  0  0  0
   16.8359  -21.0653   -9.5667 O   0  0  0  0  0  0  0  0  0  0  0  0
   13.9822  -23.3090   -8.4582 C   0  0  0  0  0  0  0  0  0  0  0  0
   15.5034  -23.1299   -8.3446 C   0  0  2  0  0  0  0  0  0  0  0  0
   16.0116  -23.1704   -9.6800 N   0  0  0  0  0  0  0  0  0  0  0  0
   16.0539  -24.1279   -7.4468 C   0  0  0  0  0  0  0  0  0  0  0  0
   17.2456  -24.0698   -7.0836 O   0  0  0  0  0  0  0  0  0  0  0  0
   18.7331  -25.6102   -4.2183 N   0  0  0  0  0  0  0  0  0  0  0  0
   17.8940  -26.3484   -3.3661 C   0  0  0  0  0  0  0  0  0  0  0  0
   18.3312  -27.1329   -2.5103 O   0  0  0  0  0  0  0  0  0  0  0  0
   16.4087  -26.1676   -3.5109 C   0  0  0  0  0  0  0  0  0  0  0  0
   16.1313  -25.2678   -4.6828 C   0  0  0  0  0  0  0  0  0  0  0  0
   15.6172  -26.0269   -5.8330 C   0  0  2  0  0  0  0  0  0  0  0  0
   15.2558  -25.1865   -6.9644 N   0  0  0  0  0  0  0  0  0  0  0  0
   14.5093  -26.9224   -5.5499 C   0  0  0  0  0  0  0  0  0  0  0  0
   13.3112  -26.4535   -5.4094 O   0  0  0  0  0  0  0  0  0  0  0  0
   14.5664  -28.3000   -5.4029 O   0  0  0  0  0  0  0  0  0  0  0  0
  2  1  1  0
  3  2  1  0
  4  3  1  0
  5  4  1  0
  5  6  1  6
  7 11  1  0
  7  5  1  0
  8  7  2  0
 10  9  1  6
 10 11  1  0
 10 12  1  0
 12 20  1  0
 13 12  2  0
 14 15  1  0
 15 17  1  0
 16 15  2  0
 17 18  1  0
 19 21  1  0
 19 18  1  1
 20 19  1  0
 21 23  1  0
 22 21  2  0
M  END
$$$$
