MAQ.pdb
     RDKit          3D

 23 22  0  0  1  0  0  0  0  0999 V2000
   27.1347  -16.8795  -14.3146 C   0  0  0  0  0  0  0  0  0  0  0  0
   26.7227  -15.2128  -14.9263 S   0  0  0  0  0  0  0  0  0  0  0  0
   25.2953  -15.2974  -16.0726 C   0  0  0  0  0  0  0  0  0  0  0  0
   24.9231  -13.9248  -16.5561 C   0  0  0  0  0  0  0  0  0  0  0  0
   23.7576  -13.8930  -17.4906 C   0  0  2  0  0  0  0  0  0  0  0  0
   24.1315  -14.7012  -18.6482 N   0  0  0  0  0  0  0  0  0  0  0  0
   23.2950  -12.5561  -17.8726 C   0  0  0  0  0  0  0  0  0  0  0  0
   23.6741  -12.0064  -18.9500 O   0  0  0  0  0  0  0  0  0  0  0  0
   21.0162  -10.6996  -18.7058 C   0  0  0  0  0  0  0  0  0  0  0  0
   21.9330  -10.4704  -17.4951 C   0  0  2  0  0  0  0  0  0  0  0  0
   22.3988  -11.7616  -17.0960 N   0  0  0  0  0  0  0  0  0  0  0  0
   21.2232   -9.7290  -16.4696 C   0  0  0  0  0  0  0  0  0  0  0  0
   20.3533  -10.2840  -15.7692 O   0  0  0  0  0  0  0  0  0  0  0  0
   23.0773   -4.1600  -14.2330 N   0  0  0  0  0  0  0  0  0  0  0  0
   22.1868   -4.0435  -15.3141 C   0  0  0  0  0  0  0  0  0  0  0  0
   22.0285   -2.9846  -15.9405 O   0  0  0  0  0  0  0  0  0  0  0  0
   21.4022   -5.2617  -15.7144 C   0  0  0  0  0  0  0  0  0  0  0  0
   21.7617   -6.4033  -14.8046 C   0  0  0  0  0  0  0  0  0  0  0  0
   20.9746   -7.6063  -15.1155 C   0  0  2  0  0  0  0  0  0  0  0  0
   21.4993   -8.3645  -16.2411 N   0  0  0  0  0  0  0  0  0  0  0  0
   19.5538   -7.3902  -15.3259 C   0  0  0  0  0  0  0  0  0  0  0  0
   18.7954   -7.0333  -14.3398 O   0  0  0  0  0  0  0  0  0  0  0  0
   18.8573   -7.5210  -16.5177 O   0  0  0  0  0  0  0  0  0  0  0  0
  2  1  1  0
  3  2  1  0
  4  3  1  0
  5  4  1  0
  5  6  1  6
  7 11  1  0
  7  5  1  0
  8  7  2  0
 10  9  1  6
 10 11  1  0
 10 12  1  0
 12 20  1  0
 13 12  2  0
 14 15  1  0
 15 17  1  0
 16 15  2  0
 17 18  1  0
 19 21  1  0
 19 18  1  6
 20 19  1  0
 21 23  1  0
 22 21  2  0
M  END
$$$$
