MAQ.pdb
     RDKit          3D

 23 22  0  0  1  0  0  0  0  0999 V2000
   26.8455  -15.5636  -14.6395 C   0  0  0  0  0  0  0  0  0  0  0  0
   25.6734  -14.3693  -15.3618 S   0  0  0  0  0  0  0  0  0  0  0  0
   24.9276  -15.0616  -16.8860 C   0  0  0  0  0  0  0  0  0  0  0  0
   24.0440  -14.0453  -17.5512 C   0  0  0  0  0  0  0  0  0  0  0  0
   23.1282  -13.3182  -16.6208 C   0  0  2  0  0  0  0  0  0  0  0  0
   22.3115  -14.3350  -15.9634 N   0  0  0  0  0  0  0  0  0  0  0  0
   22.3157  -12.2647  -17.2350 C   0  0  0  0  0  0  0  0  0  0  0  0
   22.8473  -11.2781  -17.8271 O   0  0  0  0  0  0  0  0  0  0  0  0
   18.6507  -11.6093  -17.7014 C   0  0  0  0  0  0  0  0  0  0  0  0
   20.1102  -11.1312  -17.6802 C   0  0  2  0  0  0  0  0  0  0  0  0
   20.8885  -12.2424  -17.2300 N   0  0  0  0  0  0  0  0  0  0  0  0
   20.2268   -9.9315  -16.8726 C   0  0  0  0  0  0  0  0  0  0  0  0
   20.8664   -9.9440  -15.8021 O   0  0  0  0  0  0  0  0  0  0  0  0
   22.5845   -7.5561  -13.5375 N   0  0  0  0  0  0  0  0  0  0  0  0
   22.1538   -6.2652  -13.8887 C   0  0  0  0  0  0  0  0  0  0  0  0
   22.5548   -5.2443  -13.3091 O   0  0  0  0  0  0  0  0  0  0  0  0
   21.1668   -6.1344  -15.0150 C   0  0  0  0  0  0  0  0  0  0  0  0
   20.8319   -7.5022  -15.5413 C   0  0  0  0  0  0  0  0  0  0  0  0
   19.9225   -7.4261  -16.6948 C   0  0  2  0  0  0  0  0  0  0  0  0
   19.6198   -8.7243  -17.2780 N   0  0  0  0  0  0  0  0  0  0  0  0
   20.3314   -6.5256  -17.7584 C   0  0  0  0  0  0  0  0  0  0  0  0
   21.2262   -6.8946  -18.6175 O   0  0  0  0  0  0  0  0  0  0  0  0
   19.8599   -5.2429  -17.9932 O   0  0  0  0  0  0  0  0  0  0  0  0
  2  1  1  0
  3  2  1  0
  4  3  1  0
  5  4  1  0
  5  6  1  6
  7 11  1  0
  7  5  1  0
  8  7  2  0
 10  9  1  1
 10 11  1  0
 10 12  1  0
 12 20  1  0
 13 12  2  0
 14 15  1  0
 15 17  1  0
 16 15  2  0
 17 18  1  0
 19 21  1  0
 19 18  1  1
 20 19  1  0
 21 23  1  0
 22 21  2  0
M  END
$$$$
