MAQ.pdb
     RDKit          3D

 23 22  0  0  1  0  0  0  0  0999 V2000
   28.2051  -18.7205   -6.3707 C   0  0  0  0  0  0  0  0  0  0  0  0
   27.9842  -20.5245   -6.2341 S   0  0  0  0  0  0  0  0  0  0  0  0
   28.3276  -21.3252   -7.8465 C   0  0  0  0  0  0  0  0  0  0  0  0
   27.3989  -20.8025   -8.9050 C   0  0  0  0  0  0  0  0  0  0  0  0
   27.5575  -21.4507  -10.2420 C   0  0  2  0  0  0  0  0  0  0  0  0
   28.9918  -21.4965  -10.5136 N   0  0  0  0  0  0  0  0  0  0  0  0
   26.8048  -20.8289  -11.3348 C   0  0  0  0  0  0  0  0  0  0  0  0
   26.2983  -19.6730  -11.2169 O   0  0  0  0  0  0  0  0  0  0  0  0
   26.3918  -21.3543  -14.9676 C   0  0  0  0  0  0  0  0  0  0  0  0
   25.8021  -20.8396  -13.6461 C   0  0  2  0  0  0  0  0  0  0  0  0
   26.5727  -21.4411  -12.6032 N   0  0  0  0  0  0  0  0  0  0  0  0
   24.3789  -21.1173  -13.5973 C   0  0  0  0  0  0  0  0  0  0  0  0
   23.9375  -22.0634  -12.9151 O   0  0  0  0  0  0  0  0  0  0  0  0
   20.5278  -22.6714  -12.3549 N   0  0  0  0  0  0  0  0  0  0  0  0
   19.4831  -21.8473  -12.8075 C   0  0  0  0  0  0  0  0  0  0  0  0
   18.2974  -22.2120  -12.8150 O   0  0  0  0  0  0  0  0  0  0  0  0
   19.8346  -20.4709  -13.2990 C   0  0  0  0  0  0  0  0  0  0  0  0
   21.3151  -20.2554  -13.1511 C   0  0  0  0  0  0  0  0  0  0  0  0
   22.0335  -20.5942  -14.3890 C   0  0  2  0  0  0  0  0  0  0  0  0
   23.4618  -20.3253  -14.3197 N   0  0  0  0  0  0  0  0  0  0  0  0
   21.5088  -19.9951  -15.6037 C   0  0  0  0  0  0  0  0  0  0  0  0
   21.9530  -18.8497  -16.0106 O   0  0  0  0  0  0  0  0  0  0  0  0
   20.5357  -20.5204  -16.4402 O   0  0  0  0  0  0  0  0  0  0  0  0
  2  1  1  0
  3  2  1  0
  4  3  1  0
  5  4  1  0
  5  6  1  6
  7 11  1  0
  7  5  1  0
  8  7  2  0
 10  9  1  6
 10 11  1  0
 10 12  1  0
 12 20  1  0
 13 12  2  0
 14 15  1  0
 15 17  1  0
 16 15  2  0
 17 18  1  0
 19 21  1  0
 19 18  1  1
 20 19  1  0
 21 23  1  0
 22 21  2  0
M  END
$$$$
