MAQ.pdb
     RDKit          3D

 23 22  0  0  1  0  0  0  0  0999 V2000
   20.8504  -13.6131  -21.1853 C   0  0  0  0  0  0  0  0  0  0  0  0
   19.2189  -12.9959  -20.6570 S   0  0  0  0  0  0  0  0  0  0  0  0
   18.9860  -13.2868  -18.8626 C   0  0  0  0  0  0  0  0  0  0  0  0
   20.2603  -13.0195  -18.1137 C   0  0  0  0  0  0  0  0  0  0  0  0
   20.1419  -13.1384  -16.6289 C   0  0  2  0  0  0  0  0  0  0  0  0
   18.7784  -13.5850  -16.3557 N   0  0  0  0  0  0  0  0  0  0  0  0
   20.4941  -11.9341  -15.8721 C   0  0  0  0  0  0  0  0  0  0  0  0
   19.6050  -11.1850  -15.3672 O   0  0  0  0  0  0  0  0  0  0  0  0
   23.6499  -10.3126  -14.6719 C   0  0  0  0  0  0  0  0  0  0  0  0
   22.1600  -10.2383  -15.0373 C   0  0  2  0  0  0  0  0  0  0  0  0
   21.8312  -11.4953  -15.6334 N   0  0  0  0  0  0  0  0  0  0  0  0
   21.9121   -9.0783  -15.8728 C   0  0  0  0  0  0  0  0  0  0  0  0
   22.0971   -9.1295  -17.1050 O   0  0  0  0  0  0  0  0  0  0  0  0
   17.1825   -5.7171  -16.4192 N   0  0  0  0  0  0  0  0  0  0  0  0
   18.0526   -4.8105  -17.0490 C   0  0  0  0  0  0  0  0  0  0  0  0
   17.6487   -3.8138  -17.6672 O   0  0  0  0  0  0  0  0  0  0  0  0
   19.5298   -5.0746  -16.9596 C   0  0  0  0  0  0  0  0  0  0  0  0
   19.7646   -6.2926  -16.1102 C   0  0  0  0  0  0  0  0  0  0  0  0
   21.1876   -6.6634  -16.0847 C   0  0  2  0  0  0  0  0  0  0  0  0
   21.4571   -7.8664  -15.3119 N   0  0  0  0  0  0  0  0  0  0  0  0
   22.1006   -5.6207  -15.6502 C   0  0  0  0  0  0  0  0  0  0  0  0
   22.4794   -5.5590  -14.4142 O   0  0  0  0  0  0  0  0  0  0  0  0
   22.6581   -4.6206  -16.4322 O   0  0  0  0  0  0  0  0  0  0  0  0
  2  1  1  0
  3  2  1  0
  4  3  1  0
  5  4  1  0
  5  6  1  6
  7 11  1  0
  7  5  1  0
  8  7  2  0
 10  9  1  6
 10 11  1  0
 10 12  1  0
 12 20  1  0
 13 12  2  0
 14 15  1  0
 15 17  1  0
 16 15  2  0
 17 18  1  0
 19 21  1  0
 19 18  1  1
 20 19  1  0
 21 23  1  0
 22 21  2  0
M  END
$$$$
