MAQ.pdb
     RDKit          3D

 23 22  0  0  1  0  0  0  0  0999 V2000
   29.5533  -20.8647   -4.2888 C   0  0  0  0  0  0  0  0  0  0  0  0
   28.3217  -19.5235   -4.3671 S   0  0  0  0  0  0  0  0  0  0  0  0
   26.8952  -20.0375   -5.3964 C   0  0  0  0  0  0  0  0  0  0  0  0
   27.3632  -20.5732   -6.7193 C   0  0  0  0  0  0  0  0  0  0  0  0
   26.8314  -19.8389   -7.9072 C   0  0  2  0  0  0  0  0  0  0  0  0
   25.4640  -19.4476   -7.5752 N   0  0  0  0  0  0  0  0  0  0  0  0
   26.9089  -20.5622   -9.1792 C   0  0  0  0  0  0  0  0  0  0  0  0
   28.0218  -20.9039   -9.6805 O   0  0  0  0  0  0  0  0  0  0  0  0
   24.8145  -22.3573  -11.6048 C   0  0  0  0  0  0  0  0  0  0  0  0
   25.8363  -21.2378  -11.3565 C   0  0  2  0  0  0  0  0  0  0  0  0
   25.7759  -20.9441   -9.9588 N   0  0  0  0  0  0  0  0  0  0  0  0
   25.5631  -20.1144  -12.2330 C   0  0  0  0  0  0  0  0  0  0  0  0
   24.7375  -19.2383  -11.9073 O   0  0  0  0  0  0  0  0  0  0  0  0
   29.4402  -17.6227  -16.3446 N   0  0  0  0  0  0  0  0  0  0  0  0
   28.2582  -16.9886  -16.7644 C   0  0  0  0  0  0  0  0  0  0  0  0
   28.2386  -16.1371  -17.6663 O   0  0  0  0  0  0  0  0  0  0  0  0
   26.9742  -17.3698  -16.0819 C   0  0  0  0  0  0  0  0  0  0  0  0
   27.2510  -18.4507  -15.0742 C   0  0  0  0  0  0  0  0  0  0  0  0
   26.0196  -18.8775  -14.3924 C   0  0  2  0  0  0  0  0  0  0  0  0
   26.2234  -19.9867  -13.4731 N   0  0  0  0  0  0  0  0  0  0  0  0
   24.8994  -19.1962  -15.2603 C   0  0  0  0  0  0  0  0  0  0  0  0
   24.1946  -18.2489  -15.7900 O   0  0  0  0  0  0  0  0  0  0  0  0
   24.4575  -20.4597  -15.6223 O   0  0  0  0  0  0  0  0  0  0  0  0
  2  1  1  0
  3  2  1  0
  4  3  1  0
  5  4  1  0
  5  6  1  1
  7 11  1  0
  7  5  1  0
  8  7  2  0
 10  9  1  1
 10 11  1  0
 10 12  1  0
 12 20  1  0
 13 12  2  0
 14 15  1  0
 15 17  1  0
 16 15  2  0
 17 18  1  0
 19 21  1  0
 19 18  1  6
 20 19  1  0
 21 23  1  0
 22 21  2  0
M  END
$$$$
