MAQ.pdb
     RDKit          3D

 23 22  0  0  1  0  0  0  0  0999 V2000
   27.3911  -18.5311   -5.8105 C   0  0  0  0  0  0  0  0  0  0  0  0
   28.4353  -20.0029   -5.5548 S   0  0  0  0  0  0  0  0  0  0  0  0
   28.4891  -21.0108   -7.0844 C   0  0  0  0  0  0  0  0  0  0  0  0
   27.5117  -20.4870   -8.0975 C   0  0  0  0  0  0  0  0  0  0  0  0
   27.4974  -21.2381   -9.3893 C   0  0  2  0  0  0  0  0  0  0  0  0
   28.8876  -21.3405   -9.8252 N   0  0  0  0  0  0  0  0  0  0  0  0
   26.6286  -20.6817  -10.4298 C   0  0  0  0  0  0  0  0  0  0  0  0
   26.1510  -19.5111  -10.3385 O   0  0  0  0  0  0  0  0  0  0  0  0
   26.1987  -21.1054  -13.9716 C   0  0  0  0  0  0  0  0  0  0  0  0
   25.4620  -20.7951  -12.6601 C   0  0  2  0  0  0  0  0  0  0  0  0
   26.2436  -21.3782  -11.6148 N   0  0  0  0  0  0  0  0  0  0  0  0
   24.0917  -21.2653  -12.7384 C   0  0  0  0  0  0  0  0  0  0  0  0
   23.8132  -22.4582  -12.5046 O   0  0  0  0  0  0  0  0  0  0  0  0
   19.2817  -22.8408  -12.2508 N   0  0  0  0  0  0  0  0  0  0  0  0
   19.0403  -21.5874  -11.6625 C   0  0  0  0  0  0  0  0  0  0  0  0
   17.9085  -21.0833  -11.6005 O   0  0  0  0  0  0  0  0  0  0  0  0
   20.2127  -20.8409  -11.0896 C   0  0  0  0  0  0  0  0  0  0  0  0
   20.8169  -19.9729  -12.1580 C   0  0  0  0  0  0  0  0  0  0  0  0
   21.6374  -20.7610  -13.0902 C   0  0  2  0  0  0  0  0  0  0  0  0
   23.0432  -20.3858  -13.0810 N   0  0  0  0  0  0  0  0  0  0  0  0
   21.1749  -20.7867  -14.4667 C   0  0  0  0  0  0  0  0  0  0  0  0
   21.7127  -20.0087  -15.3501 O   0  0  0  0  0  0  0  0  0  0  0  0
   20.1722  -21.5853  -14.9953 O   0  0  0  0  0  0  0  0  0  0  0  0
  2  1  1  0
  3  2  1  0
  4  3  1  0
  5  4  1  0
  5  6  1  6
  7 11  1  0
  7  5  1  0
  8  7  2  0
 10  9  1  6
 10 11  1  0
 10 12  1  0
 12 20  1  0
 13 12  2  0
 14 15  1  0
 15 17  1  0
 16 15  2  0
 17 18  1  0
 19 21  1  0
 19 18  1  1
 20 19  1  0
 21 23  1  0
 22 21  2  0
M  END
$$$$
