MAQ.pdb
     RDKit          3D

 23 22  0  0  1  0  0  0  0  0999 V2000
   18.4222  -15.2843  -17.9106 C   0  0  0  0  0  0  0  0  0  0  0  0
   19.0641  -15.3156  -19.6161 S   0  0  0  0  0  0  0  0  0  0  0  0
   20.3301  -14.0091  -19.8369 C   0  0  0  0  0  0  0  0  0  0  0  0
   20.2777  -13.0249  -18.7034 C   0  0  0  0  0  0  0  0  0  0  0  0
   21.3084  -11.9452  -18.7734 C   0  0  2  0  0  0  0  0  0  0  0  0
   22.5492  -12.5832  -19.2053 N   0  0  0  0  0  0  0  0  0  0  0  0
   21.4836  -11.1635  -17.5464 C   0  0  0  0  0  0  0  0  0  0  0  0
   20.5240  -10.5154  -17.0309 O   0  0  0  0  0  0  0  0  0  0  0  0
   24.2178  -10.6751  -15.0342 C   0  0  0  0  0  0  0  0  0  0  0  0
   22.8827  -10.2479  -15.6618 C   0  0  2  0  0  0  0  0  0  0  0  0
   22.7129  -11.0554  -16.8290 N   0  0  0  0  0  0  0  0  0  0  0  0
   22.8824   -8.8165  -15.8992 C   0  0  0  0  0  0  0  0  0  0  0  0
   23.1378   -8.3585  -17.0307 O   0  0  0  0  0  0  0  0  0  0  0  0
   19.2379   -5.7041  -17.6835 N   0  0  0  0  0  0  0  0  0  0  0  0
   19.8422   -4.5627  -17.1292 C   0  0  0  0  0  0  0  0  0  0  0  0
   19.4534   -3.4112  -17.3778 O   0  0  0  0  0  0  0  0  0  0  0  0
   21.0059   -4.7636  -16.1990 C   0  0  0  0  0  0  0  0  0  0  0  0
   21.2814   -6.2351  -16.0612 C   0  0  0  0  0  0  0  0  0  0  0  0
   22.3288   -6.4942  -15.0616 C   0  0  2  0  0  0  0  0  0  0  0  0
   22.5943   -7.9101  -14.8573 N   0  0  0  0  0  0  0  0  0  0  0  0
   22.1284   -5.8698  -13.7657 C   0  0  0  0  0  0  0  0  0  0  0  0
   21.6498   -6.5558  -12.7782 O   0  0  0  0  0  0  0  0  0  0  0  0
   22.4006   -4.5543  -13.4223 O   0  0  0  0  0  0  0  0  0  0  0  0
  2  1  1  0
  3  2  1  0
  4  3  1  0
  5  4  1  0
  5  6  1  1
  7 11  1  0
  7  5  1  0
  8  7  2  0
 10  9  1  6
 10 11  1  0
 10 12  1  0
 12 20  1  0
 13 12  2  0
 14 15  1  0
 15 17  1  0
 16 15  2  0
 17 18  1  0
 19 21  1  0
 19 18  1  6
 20 19  1  0
 21 23  1  0
 22 21  2  0
M  END
$$$$
