MAQ.pdb
     RDKit          3D

 23 22  0  0  1  0  0  0  0  0999 V2000
   29.4565  -22.6065  -13.8376 C   0  0  0  0  0  0  0  0  0  0  0  0
   30.1862  -21.6316  -12.4816 S   0  0  0  0  0  0  0  0  0  0  0  0
   28.8748  -20.7139  -11.5889 C   0  0  0  0  0  0  0  0  0  0  0  0
   27.7004  -20.4592  -12.4900 C   0  0  0  0  0  0  0  0  0  0  0  0
   26.5122  -19.8662  -11.8050 C   0  0  2  0  0  0  0  0  0  0  0  0
   26.0861  -20.8358  -10.7993 N   0  0  0  0  0  0  0  0  0  0  0  0
   25.4145  -19.4629  -12.6880 C   0  0  0  0  0  0  0  0  0  0  0  0
   24.2044  -19.5402  -12.3187 O   0  0  0  0  0  0  0  0  0  0  0  0
   25.1818  -17.8114  -16.0487 C   0  0  0  0  0  0  0  0  0  0  0  0
   24.5240  -18.4394  -14.8110 C   0  0  2  0  0  0  0  0  0  0  0  0
   25.5896  -18.9578  -14.0115 N   0  0  0  0  0  0  0  0  0  0  0  0
   23.5308  -19.4151  -15.2191 C   0  0  0  0  0  0  0  0  0  0  0  0
   22.5407  -19.0716  -15.8952 O   0  0  0  0  0  0  0  0  0  0  0  0
   20.0612  -22.5872  -12.0442 N   0  0  0  0  0  0  0  0  0  0  0  0
   19.9027  -23.4155  -13.1685 C   0  0  0  0  0  0  0  0  0  0  0  0
   19.0446  -24.3094  -13.2265 O   0  0  0  0  0  0  0  0  0  0  0  0
   20.8188  -23.1954  -14.3399 C   0  0  0  0  0  0  0  0  0  0  0  0
   21.7587  -22.0643  -14.0278 C   0  0  0  0  0  0  0  0  0  0  0  0
   22.6631  -21.7909  -15.1550 C   0  0  2  0  0  0  0  0  0  0  0  0
   23.6608  -20.7734  -14.8610 N   0  0  0  0  0  0  0  0  0  0  0  0
   22.0167  -21.4550  -16.4115 C   0  0  0  0  0  0  0  0  0  0  0  0
   21.0727  -20.5702  -16.4433 O   0  0  0  0  0  0  0  0  0  0  0  0
   22.2948  -21.9871  -17.6614 O   0  0  0  0  0  0  0  0  0  0  0  0
  2  1  1  0
  3  2  1  0
  4  3  1  0
  5  4  1  0
  5  6  1  1
  7 11  1  0
  7  5  1  0
  8  7  2  0
 10  9  1  6
 10 11  1  0
 10 12  1  0
 12 20  1  0
 13 12  2  0
 14 15  1  0
 15 17  1  0
 16 15  2  0
 17 18  1  0
 19 21  1  0
 19 18  1  1
 20 19  1  0
 21 23  1  0
 22 21  2  0
M  END
$$$$
