MAQ.pdb
     RDKit          3D

 23 22  0  0  1  0  0  0  0  0999 V2000
   26.3325  -16.1040  -14.9826 C   0  0  0  0  0  0  0  0  0  0  0  0
   27.8884  -16.5213  -15.8351 S   0  0  0  0  0  0  0  0  0  0  0  0
   28.3641  -18.2523  -15.4664 C   0  0  0  0  0  0  0  0  0  0  0  0
   27.2472  -18.9694  -14.7633 C   0  0  0  0  0  0  0  0  0  0  0  0
   27.5920  -20.3475  -14.2995 C   0  0  2  0  0  0  0  0  0  0  0  0
   27.9434  -21.1115  -15.4936 N   0  0  0  0  0  0  0  0  0  0  0  0
   26.5649  -21.0150  -13.4953 C   0  0  0  0  0  0  0  0  0  0  0  0
   25.6499  -21.7087  -14.0321 O   0  0  0  0  0  0  0  0  0  0  0  0
   25.6379  -20.9214   -9.8574 C   0  0  0  0  0  0  0  0  0  0  0  0
   25.3049  -21.2316  -11.3243 C   0  0  2  0  0  0  0  0  0  0  0  0
   26.4920  -20.9547  -12.0710 N   0  0  0  0  0  0  0  0  0  0  0  0
   24.1318  -20.4832  -11.7349 C   0  0  0  0  0  0  0  0  0  0  0  0
   24.2080  -19.2624  -11.9782 O   0  0  0  0  0  0  0  0  0  0  0  0
   22.0752  -20.4535  -16.6744 N   0  0  0  0  0  0  0  0  0  0  0  0
   20.8769  -19.9175  -16.1724 C   0  0  0  0  0  0  0  0  0  0  0  0
   19.9753  -19.4875  -16.9081 O   0  0  0  0  0  0  0  0  0  0  0  0
   20.6967  -19.8710  -14.6807 C   0  0  0  0  0  0  0  0  0  0  0  0
   21.8843  -20.5121  -14.0183 C   0  0  0  0  0  0  0  0  0  0  0  0
   21.7386  -20.5294  -12.5548 C   0  0  2  0  0  0  0  0  0  0  0  0
   22.8786  -21.1174  -11.8680 N   0  0  0  0  0  0  0  0  0  0  0  0
   20.5256  -21.1498  -12.0517 C   0  0  0  0  0  0  0  0  0  0  0  0
   20.5129  -22.4087  -11.7519 O   0  0  0  0  0  0  0  0  0  0  0  0
   19.3023  -20.5345  -11.8334 O   0  0  0  0  0  0  0  0  0  0  0  0
  2  1  1  0
  3  2  1  0
  4  3  1  0
  5  4  1  0
  5  6  1  6
  7 11  1  0
  7  5  1  0
  8  7  2  0
 10  9  1  1
 10 11  1  0
 10 12  1  0
 12 20  1  0
 13 12  2  0
 14 15  1  0
 15 17  1  0
 16 15  2  0
 17 18  1  0
 19 21  1  0
 19 18  1  6
 20 19  1  0
 21 23  1  0
 22 21  2  0
M  END
$$$$
