LES.pdb
     RDKit          3D

 24 23  0  0  1  0  0  0  0  0999 V2000
   18.5370  -11.1919  -19.0594 C   0  0  0  0  0  0  0  0  0  0  0  0
   17.9266  -11.7193  -17.7703 C   0  0  2  0  0  0  0  0  0  0  0  0
   16.4730  -12.0921  -18.0024 C   0  0  0  0  0  0  0  0  0  0  0  0
   18.0309  -10.6274  -16.7284 C   0  0  0  0  0  0  0  0  0  0  0  0
   19.5231  -10.3939  -16.4786 C   0  0  2  0  0  0  0  0  0  0  0  0
   20.0865  -11.5784  -15.9002 N   0  0  0  0  0  0  0  0  0  0  0  0
   19.7369   -9.1830  -15.6346 C   0  0  0  0  0  0  0  0  0  0  0  0
   19.4077   -9.2259  -14.4372 O   0  0  0  0  0  0  0  0  0  0  0  0
   20.3031   -8.0216  -16.2033 N   0  0  0  0  0  0  0  0  0  0  0  0
   20.5275   -6.7937  -15.3866 C   0  0  1  0  0  0  0  0  0  0  0  0
   21.9695   -6.3818  -15.6132 C   0  0  0  0  0  0  0  0  0  0  0  0
   22.2571   -5.0937  -14.9077 C   0  0  0  0  0  0  0  0  0  0  0  0
   22.2854   -5.3307  -13.4276 C   0  0  0  0  0  0  0  0  0  0  0  0
   22.1336   -4.3869  -12.6309 O   0  0  0  0  0  0  0  0  0  0  0  0
   19.6041   -5.7715  -15.8946 C   0  0  0  0  0  0  0  0  0  0  0  0
   19.6179   -5.5127  -17.1482 O   0  0  0  0  0  0  0  0  0  0  0  0
   22.4820   -6.6086  -12.9666 O   0  0  0  0  0  0  0  0  0  0  0  0
   15.7793   -2.8954  -15.2802 O   0  0  0  0  0  0  0  0  0  0  0  0
   16.7063   -3.7380  -14.7003 C   0  0  0  0  0  0  0  0  0  0  0  0
   17.7678   -4.0530  -15.7608 C   0  0  2  0  0  0  0  0  0  0  0  0
   18.6741   -5.0249  -15.1390 N   0  0  0  0  0  0  0  0  0  0  0  0
   18.4576   -2.8091  -16.1097 C   0  0  0  0  0  0  0  0  0  0  0  0
   18.1450   -2.1026  -17.2527 O   0  0  0  0  0  0  0  0  0  0  0  0
   19.3596   -2.3466  -15.3737 O   0  0  0  0  0  0  0  0  0  0  0  0
  2  1  1  6
  2  3  1  0
  4  2  1  0
  4  5  1  0
  5  7  1  0
  5  6  1  1
  7  8  2  0
  9 10  1  0
  9  7  1  0
 10 11  1  6
 11 12  1  0
 12 13  1  0
 13 14  2  0
 13 17  1  0
 15 16  2  0
 15 10  1  0
 18 19  1  0
 20 19  1  1
 20 22  1  0
 20 21  1  0
 21 15  1  0
 22 23  1  0
 24 22  2  0
M  END
$$$$
