LES.pdb
     RDKit          3D

 24 23  0  0  1  0  0  0  0  0999 V2000
   17.4942  -13.2649  -17.0028 C   0  0  0  0  0  0  0  0  0  0  0  0
   18.8071  -13.4353  -16.2546 C   0  0  2  0  0  0  0  0  0  0  0  0
   18.7866  -14.7323  -15.4652 C   0  0  0  0  0  0  0  0  0  0  0  0
   18.9653  -12.2537  -15.3232 C   0  0  0  0  0  0  0  0  0  0  0  0
   18.9072  -10.9939  -16.1911 C   0  0  2  0  0  0  0  0  0  0  0  0
   20.1005  -10.9214  -16.9821 N   0  0  0  0  0  0  0  0  0  0  0  0
   18.6985   -9.7796  -15.3508 C   0  0  0  0  0  0  0  0  0  0  0  0
   17.7347   -9.7562  -14.5670 O   0  0  0  0  0  0  0  0  0  0  0  0
   19.5888   -8.6894  -15.4586 N   0  0  0  0  0  0  0  0  0  0  0  0
   19.4429   -7.4858  -14.5896 C   0  0  1  0  0  0  0  0  0  0  0  0
   20.8312   -6.8953  -14.4331 C   0  0  0  0  0  0  0  0  0  0  0  0
   20.7913   -5.7157  -13.5129 C   0  0  0  0  0  0  0  0  0  0  0  0
   22.1493   -5.0832  -13.4530 C   0  0  0  0  0  0  0  0  0  0  0  0
   22.9421   -5.3684  -12.5372 O   0  0  0  0  0  0  0  0  0  0  0  0
   18.5544   -6.5561  -15.2982 C   0  0  0  0  0  0  0  0  0  0  0  0
   18.7363   -6.3830  -16.5534 O   0  0  0  0  0  0  0  0  0  0  0  0
   22.5026   -4.1832  -14.4273 O   0  0  0  0  0  0  0  0  0  0  0  0
   14.3792   -4.4849  -15.9590 O   0  0  0  0  0  0  0  0  0  0  0  0
   15.2052   -5.3508  -15.2709 C   0  0  0  0  0  0  0  0  0  0  0  0
   16.6516   -4.9254  -15.5498 C   0  0  2  0  0  0  0  0  0  0  0  0
   17.4906   -5.8151  -14.7391 N   0  0  0  0  0  0  0  0  0  0  0  0
   16.8058   -3.5227  -15.1579 C   0  0  0  0  0  0  0  0  0  0  0  0
   17.4426   -3.1625  -13.9883 O   0  0  0  0  0  0  0  0  0  0  0  0
   16.3598   -2.6012  -15.8799 O   0  0  0  0  0  0  0  0  0  0  0  0
  2  1  1  1
  2  3  1  0
  4  2  1  0
  4  5  1  0
  5  7  1  0
  5  6  1  1
  7  8  2  0
  9 10  1  0
  9  7  1  0
 10 11  1  6
 11 12  1  0
 12 13  1  0
 13 14  2  0
 13 17  1  0
 15 16  2  0
 15 10  1  0
 18 19  1  0
 20 19  1  1
 20 22  1  0
 20 21  1  0
 21 15  1  0
 22 23  1  0
 24 22  2  0
M  END
$$$$
