LES.pdb
     RDKit          3D

 24 23  0  0  1  0  0  0  0  0999 V2000
   23.8481  -20.9542   -9.7872 C   0  0  0  0  0  0  0  0  0  0  0  0
   25.3677  -20.9027   -9.7552 C   0  0  2  0  0  0  0  0  0  0  0  0
   25.8270  -19.8016   -8.8159 C   0  0  0  0  0  0  0  0  0  0  0  0
   25.8510  -20.6307  -11.1628 C   0  0  0  0  0  0  0  0  0  0  0  0
   25.4208  -21.8254  -12.0180 C   0  0  2  0  0  0  0  0  0  0  0  0
   26.3626  -22.8902  -11.8329 N   0  0  0  0  0  0  0  0  0  0  0  0
   25.2736  -21.4288  -13.4481 C   0  0  0  0  0  0  0  0  0  0  0  0
   26.2875  -21.0831  -14.0777 O   0  0  0  0  0  0  0  0  0  0  0  0
   23.9997  -21.4525  -14.0559 N   0  0  0  0  0  0  0  0  0  0  0  0
   23.8352  -21.1787  -15.5130 C   0  0  1  0  0  0  0  0  0  0  0  0
   23.2924  -22.4520  -16.1331 C   0  0  0  0  0  0  0  0  0  0  0  0
   23.0208  -22.2435  -17.5899 C   0  0  0  0  0  0  0  0  0  0  0  0
   22.4595  -23.5030  -18.1784 C   0  0  0  0  0  0  0  0  0  0  0  0
   21.5215  -23.4587  -18.9948 O   0  0  0  0  0  0  0  0  0  0  0  0
   22.8655  -20.0827  -15.6320 C   0  0  0  0  0  0  0  0  0  0  0  0
   21.9303  -20.0047  -14.7615 O   0  0  0  0  0  0  0  0  0  0  0  0
   22.9994  -24.7070  -17.7999 O   0  0  0  0  0  0  0  0  0  0  0  0
   21.6569  -15.7334  -17.2087 O   0  0  0  0  0  0  0  0  0  0  0  0
   22.5328  -16.7979  -17.2812 C   0  0  0  0  0  0  0  0  0  0  0  0
   21.8494  -18.0011  -16.6210 C   0  0  2  0  0  0  0  0  0  0  0  0
   22.8493  -19.0749  -16.6207 N   0  0  0  0  0  0  0  0  0  0  0  0
   20.6687  -18.3551  -17.4120 C   0  0  0  0  0  0  0  0  0  0  0  0
   19.3977  -17.9871  -17.0220 O   0  0  0  0  0  0  0  0  0  0  0  0
   20.7800  -19.0081  -18.4752 O   0  0  0  0  0  0  0  0  0  0  0  0
  2  1  1  6
  2  3  1  0
  4  2  1  0
  4  5  1  0
  5  7  1  0
  5  6  1  6
  7  8  2  0
  9 10  1  0
  9  7  1  0
 10 11  1  6
 11 12  1  0
 12 13  1  0
 13 14  2  0
 13 17  1  0
 15 16  2  0
 15 10  1  0
 18 19  1  0
 20 19  1  6
 20 22  1  0
 20 21  1  0
 21 15  1  0
 22 23  1  0
 24 22  2  0
M  END
$$$$
