LES.pdb
     RDKit          3D

 24 23  0  0  1  0  0  0  0  0999 V2000
   19.9936  -17.4327  -16.3567 C   0  0  0  0  0  0  0  0  0  0  0  0
   18.8114  -16.8458  -17.1122 C   0  0  2  0  0  0  0  0  0  0  0  0
   18.4107  -17.7742  -18.2450 C   0  0  0  0  0  0  0  0  0  0  0  0
   19.2336  -15.4996  -17.6581 C   0  0  0  0  0  0  0  0  0  0  0  0
   19.3683  -14.5572  -16.4591 C   0  0  2  0  0  0  0  0  0  0  0  0
   18.2879  -14.8067  -15.5506 N   0  0  0  0  0  0  0  0  0  0  0  0
   19.4289  -13.1355  -16.9055 C   0  0  0  0  0  0  0  0  0  0  0  0
   20.1572  -12.8444  -17.8693 O   0  0  0  0  0  0  0  0  0  0  0  0
   18.6668  -12.1554  -16.2337 N   0  0  0  0  0  0  0  0  0  0  0  0
   18.6635  -10.7349  -16.6893 C   0  0  1  0  0  0  0  0  0  0  0  0
   17.2662  -10.2030  -16.4347 C   0  0  0  0  0  0  0  0  0  0  0  0
   17.2000   -8.7441  -16.7619 C   0  0  0  0  0  0  0  0  0  0  0  0
   15.7987   -8.2505  -16.5608 C   0  0  0  0  0  0  0  0  0  0  0  0
   15.1884   -8.4875  -15.5025 O   0  0  0  0  0  0  0  0  0  0  0  0
   19.6528  -10.0242  -15.8696 C   0  0  0  0  0  0  0  0  0  0  0  0
   19.6632  -10.2429  -14.6084 O   0  0  0  0  0  0  0  0  0  0  0  0
   15.2006   -7.5317  -17.5657 O   0  0  0  0  0  0  0  0  0  0  0  0
   23.4116   -8.8126  -16.7711 O   0  0  0  0  0  0  0  0  0  0  0  0
   22.6191   -7.7884  -16.2932 C   0  0  0  0  0  0  0  0  0  0  0  0
   21.5377   -8.4189  -15.4078 C   0  0  2  0  0  0  0  0  0  0  0  0
   20.6231   -9.1060  -16.3265 N   0  0  0  0  0  0  0  0  0  0  0  0
   20.8651   -7.3502  -14.6659 C   0  0  0  0  0  0  0  0  0  0  0  0
   21.3648   -6.8701  -13.4730 O   0  0  0  0  0  0  0  0  0  0  0  0
   19.8069   -6.8366  -15.0970 O   0  0  0  0  0  0  0  0  0  0  0  0
  2  1  1  6
  2  3  1  0
  4  2  1  0
  4  5  1  0
  5  7  1  0
  5  6  1  1
  7  8  2  0
  9 10  1  0
  9  7  1  0
 10 11  1  1
 11 12  1  0
 12 13  1  0
 13 14  2  0
 13 17  1  0
 15 16  2  0
 15 10  1  0
 18 19  1  0
 20 19  1  6
 20 22  1  0
 20 21  1  0
 21 15  1  0
 22 23  1  0
 24 22  2  0
M  END
$$$$
