LES.pdb
     RDKit          3D

 24 23  0  0  1  0  0  0  0  0999 V2000
   24.8548  -21.7825   -8.9187 C   0  0  0  0  0  0  0  0  0  0  0  0
   26.1596  -21.0891   -9.2784 C   0  0  2  0  0  0  0  0  0  0  0  0
   26.5703  -20.1493   -8.1586 C   0  0  0  0  0  0  0  0  0  0  0  0
   25.9350  -20.3164  -10.5595 C   0  0  0  0  0  0  0  0  0  0  0  0
   25.6490  -21.3472  -11.6547 C   0  0  2  0  0  0  0  0  0  0  0  0
   26.8928  -21.8935  -12.1123 N   0  0  0  0  0  0  0  0  0  0  0  0
   24.8455  -20.7424  -12.7561 C   0  0  0  0  0  0  0  0  0  0  0  0
   25.2731  -19.7161  -13.3109 O   0  0  0  0  0  0  0  0  0  0  0  0
   23.6268  -21.3388  -13.1455 N   0  0  0  0  0  0  0  0  0  0  0  0
   22.8295  -20.7928  -14.2819 C   0  0  1  0  0  0  0  0  0  0  0  0
   22.8344  -21.8564  -15.3632 C   0  0  0  0  0  0  0  0  0  0  0  0
   22.0144  -21.4095  -16.5326 C   0  0  0  0  0  0  0  0  0  0  0  0
   22.0243  -22.4763  -17.5860 C   0  0  0  0  0  0  0  0  0  0  0  0
   20.9645  -23.0154  -17.9529 O   0  0  0  0  0  0  0  0  0  0  0  0
   21.4700  -20.5656  -13.7759 C   0  0  0  0  0  0  0  0  0  0  0  0
   20.9268  -21.4828  -13.0672 O   0  0  0  0  0  0  0  0  0  0  0  0
   23.2245  -22.8478  -18.1389 O   0  0  0  0  0  0  0  0  0  0  0  0
   19.3790  -17.3900  -12.2512 O   0  0  0  0  0  0  0  0  0  0  0  0
   18.9346  -17.8581  -13.4714 C   0  0  0  0  0  0  0  0  0  0  0  0
   19.2759  -19.3511  -13.5429 C   0  0  2  0  0  0  0  0  0  0  0  0
   20.6739  -19.4182  -13.9833 N   0  0  0  0  0  0  0  0  0  0  0  0
   18.3705  -19.9880  -14.5017 C   0  0  0  0  0  0  0  0  0  0  0  0
   18.7980  -20.3778  -15.7541 O   0  0  0  0  0  0  0  0  0  0  0  0
   17.1707  -20.1992  -14.2096 O   0  0  0  0  0  0  0  0  0  0  0  0
  2  1  1  1
  2  3  1  0
  4  2  1  0
  4  5  1  0
  5  7  1  0
  5  6  1  6
  7  8  2  0
  9 10  1  0
  9  7  1  0
 10 11  1  6
 11 12  1  0
 12 13  1  0
 13 14  2  0
 13 17  1  0
 15 16  2  0
 15 10  1  0
 18 19  1  0
 20 19  1  6
 20 22  1  0
 20 21  1  0
 21 15  1  0
 22 23  1  0
 24 22  2  0
M  END
$$$$
