LES.pdb
     RDKit          3D

 24 23  0  0  1  0  0  0  0  0999 V2000
   22.5428  -12.5435  -14.4050 C   0  0  0  0  0  0  0  0  0  0  0  0
   22.9518  -12.6045  -15.8684 C   0  0  2  0  0  0  0  0  0  0  0  0
   24.4558  -12.7835  -15.9769 C   0  0  0  0  0  0  0  0  0  0  0  0
   22.5267  -11.3080  -16.5219 C   0  0  0  0  0  0  0  0  0  0  0  0
   21.0024  -11.2303  -16.4028 C   0  0  2  0  0  0  0  0  0  0  0  0
   20.4212  -12.2495  -17.2264 N   0  0  0  0  0  0  0  0  0  0  0  0
   20.5122   -9.8640  -16.7450 C   0  0  0  0  0  0  0  0  0  0  0  0
   20.5912   -9.4810  -17.9245 O   0  0  0  0  0  0  0  0  0  0  0  0
   19.9730   -9.0379  -15.7353 N   0  0  0  0  0  0  0  0  0  0  0  0
   19.4105   -7.6942  -16.0568 C   0  0  1  0  0  0  0  0  0  0  0  0
   18.0016   -7.6703  -15.4955 C   0  0  0  0  0  0  0  0  0  0  0  0
   17.3234   -6.3852  -15.8536 C   0  0  0  0  0  0  0  0  0  0  0  0
   15.8720   -6.4678  -15.4875 C   0  0  0  0  0  0  0  0  0  0  0  0
   15.4163   -5.7957  -14.5445 O   0  0  0  0  0  0  0  0  0  0  0  0
   20.2608   -6.7057  -15.3820 C   0  0  0  0  0  0  0  0  0  0  0  0
   20.5974   -6.9259  -14.1667 O   0  0  0  0  0  0  0  0  0  0  0  0
   15.0540   -7.2989  -16.2117 O   0  0  0  0  0  0  0  0  0  0  0  0
   23.4928   -5.3698  -16.5889 O   0  0  0  0  0  0  0  0  0  0  0  0
   22.7708   -4.2424  -16.2524 C   0  0  0  0  0  0  0  0  0  0  0  0
   21.7218   -4.6609  -15.2154 C   0  0  2  0  0  0  0  0  0  0  0  0
   20.7673   -5.5103  -15.9367 N   0  0  0  0  0  0  0  0  0  0  0  0
   21.0857   -3.4527  -14.6861 C   0  0  0  0  0  0  0  0  0  0  0  0
   21.6570   -2.7195  -13.6668 O   0  0  0  0  0  0  0  0  0  0  0  0
   19.9943   -3.0464  -15.1480 O   0  0  0  0  0  0  0  0  0  0  0  0
  2  1  1  1
  2  3  1  0
  4  2  1  0
  4  5  1  0
  5  7  1  0
  5  6  1  6
  7  8  2  0
  9 10  1  0
  9  7  1  0
 10 11  1  1
 11 12  1  0
 12 13  1  0
 13 14  2  0
 13 17  1  0
 15 16  2  0
 15 10  1  0
 18 19  1  0
 20 19  1  6
 20 22  1  0
 20 21  1  0
 21 15  1  0
 22 23  1  0
 24 22  2  0
M  END
$$$$
