LES.pdb
     RDKit          3D

 24 23  0  0  1  0  0  0  0  0999 V2000
   15.4560  -12.7828  -14.8425 C   0  0  0  0  0  0  0  0  0  0  0  0
   16.7604  -13.4172  -15.2992 C   0  0  2  0  0  0  0  0  0  0  0  0
   17.2468  -14.4061  -14.2546 C   0  0  0  0  0  0  0  0  0  0  0  0
   17.7728  -12.3089  -15.4877 C   0  0  0  0  0  0  0  0  0  0  0  0
   17.4303  -11.6154  -16.8089 C   0  0  2  0  0  0  0  0  0  0  0  0
   17.5440  -12.5675  -17.8745 N   0  0  0  0  0  0  0  0  0  0  0  0
   18.2892  -10.4139  -17.0160 C   0  0  0  0  0  0  0  0  0  0  0  0
   19.4768  -10.5797  -17.3416 O   0  0  0  0  0  0  0  0  0  0  0  0
   17.7452   -9.1231  -16.8406 N   0  0  0  0  0  0  0  0  0  0  0  0
   18.5797   -7.9018  -17.0336 C   0  0  1  0  0  0  0  0  0  0  0  0
   17.6162   -6.7430  -17.2045 C   0  0  0  0  0  0  0  0  0  0  0  0
   18.3713   -5.4706  -17.4296 C   0  0  0  0  0  0  0  0  0  0  0  0
   17.4030   -4.3493  -17.6586 C   0  0  0  0  0  0  0  0  0  0  0  0
   16.9279   -4.1424  -18.7900 O   0  0  0  0  0  0  0  0  0  0  0  0
   19.3835   -7.7403  -15.8156 C   0  0  0  0  0  0  0  0  0  0  0  0
   18.8125   -7.9240  -14.6848 O   0  0  0  0  0  0  0  0  0  0  0  0
   17.0495   -3.5542  -16.5970 O   0  0  0  0  0  0  0  0  0  0  0  0
   22.6463   -9.2418  -14.6075 O   0  0  0  0  0  0  0  0  0  0  0  0
   22.8246   -7.8737  -14.6504 C   0  0  0  0  0  0  0  0  0  0  0  0
   21.4476   -7.2248  -14.4675 C   0  0  2  0  0  0  0  0  0  0  0  0
   20.7523   -7.4012  -15.7475 N   0  0  0  0  0  0  0  0  0  0  0  0
   21.6415   -5.8101  -14.1421 C   0  0  0  0  0  0  0  0  0  0  0  0
   21.2883   -4.8086  -15.0226 O   0  0  0  0  0  0  0  0  0  0  0  0
   22.1382   -5.4656  -13.0449 O   0  0  0  0  0  0  0  0  0  0  0  0
  2  1  1  1
  2  3  1  0
  4  2  1  0
  4  5  1  0
  5  7  1  0
  5  6  1  6
  7  8  2  0
  9 10  1  0
  9  7  1  0
 10 11  1  1
 11 12  1  0
 12 13  1  0
 13 14  2  0
 13 17  1  0
 15 16  2  0
 15 10  1  0
 18 19  1  0
 20 19  1  6
 20 22  1  0
 20 21  1  0
 21 15  1  0
 22 23  1  0
 24 22  2  0
M  END
$$$$
