LES.pdb
     RDKit          3D

 24 23  0  0  1  0  0  0  0  0999 V2000
   25.9989  -10.6158  -14.5457 C   0  0  0  0  0  0  0  0  0  0  0  0
   26.0162  -11.1353  -15.9749 C   0  0  2  0  0  0  0  0  0  0  0  0
   27.4439  -11.1822  -16.4897 C   0  0  0  0  0  0  0  0  0  0  0  0
   25.1821  -10.1964  -16.8184 C   0  0  0  0  0  0  0  0  0  0  0  0
   23.7526  -10.2631  -16.2746 C   0  0  2  0  0  0  0  0  0  0  0  0
   23.2586  -11.5993  -16.4342 N   0  0  0  0  0  0  0  0  0  0  0  0
   22.8853   -9.2456  -16.9354 C   0  0  0  0  0  0  0  0  0  0  0  0
   22.5297   -9.4387  -18.1103 O   0  0  0  0  0  0  0  0  0  0  0  0
   22.4871   -8.0934  -16.2237 N   0  0  0  0  0  0  0  0  0  0  0  0
   21.6468   -7.0418  -16.8665 C   0  0  1  0  0  0  0  0  0  0  0  0
   20.4698   -6.8034  -15.9401 C   0  0  0  0  0  0  0  0  0  0  0  0
   19.4865   -5.8748  -16.5808 C   0  0  0  0  0  0  0  0  0  0  0  0
   18.3540   -5.6157  -15.6332 C   0  0  0  0  0  0  0  0  0  0  0  0
   18.3668   -4.6204  -14.8864 O   0  0  0  0  0  0  0  0  0  0  0  0
   22.4816   -5.8387  -16.9743 C   0  0  0  0  0  0  0  0  0  0  0  0
   23.1589   -5.4782  -15.9497 O   0  0  0  0  0  0  0  0  0  0  0  0
   17.3019   -6.4969  -15.6042 O   0  0  0  0  0  0  0  0  0  0  0  0
   24.4742   -4.5420  -20.1961 O   0  0  0  0  0  0  0  0  0  0  0  0
   23.7454   -3.5247  -19.6135 C   0  0  0  0  0  0  0  0  0  0  0  0
   23.5611   -3.8807  -18.1336 C   0  0  2  0  0  0  0  0  0  0  0  0
   22.6303   -5.0147  -18.1110 N   0  0  0  0  0  0  0  0  0  0  0  0
   23.0144   -2.7121  -17.4406 C   0  0  0  0  0  0  0  0  0  0  0  0
   23.8060   -1.6346  -17.1008 O   0  0  0  0  0  0  0  0  0  0  0  0
   21.8012   -2.6568  -17.1334 O   0  0  0  0  0  0  0  0  0  0  0  0
  2  1  1  1
  2  3  1  0
  4  2  1  0
  4  5  1  0
  5  7  1  0
  5  6  1  6
  7  8  2  0
  9 10  1  0
  9  7  1  0
 10 11  1  1
 11 12  1  0
 12 13  1  0
 13 14  2  0
 13 17  1  0
 15 16  2  0
 15 10  1  0
 18 19  1  0
 20 19  1  6
 20 22  1  0
 20 21  1  0
 21 15  1  0
 22 23  1  0
 24 22  2  0
M  END
$$$$
