VHF.pdb
     RDKit          3D

 29 30  0  0  1  0  0  0  0  0999 V2000
   15.1295  -21.6621   -9.3196 C   0  0  0  0  0  0  0  0  0  0  0  0
   15.2535  -22.2972  -10.6824 C   0  0  2  0  0  0  0  0  0  0  0  0
   14.0415  -23.1258  -11.0323 C   0  0  0  0  0  0  0  0  0  0  0  0
   16.5394  -23.0204  -10.9143 C   0  0  2  0  0  0  0  0  0  0  0  0
   16.5564  -23.3129  -12.3663 N   0  0  0  0  0  0  0  0  0  0  0  0
   16.7108  -24.2779  -10.1893 C   0  0  0  0  0  0  0  0  0  0  0  0
   16.0652  -25.3240  -10.5554 O   0  0  0  0  0  0  0  0  0  0  0  0
   17.5569  -24.4369   -9.0856 N   0  0  0  0  0  0  0  0  0  0  0  0
   17.7009  -25.7639   -8.3775 C   0  0  1  0  0  0  0  0  0  0  0  0
   19.0536  -26.2040   -8.7828 C   0  0  0  0  0  0  0  0  0  0  0  0
   19.2618  -27.0266   -9.9545 C   0  0  0  0  0  0  0  0  0  0  0  0
   18.5008  -27.6899  -10.8543 C   0  0  0  0  0  0  0  0  0  0  0  0
   19.2578  -28.2644  -11.8180 N   0  0  0  0  0  0  0  0  0  0  0  0
   20.5067  -27.9530  -11.5144 C   0  0  0  0  0  0  0  0  0  0  0  0
   20.5589  -27.2139  -10.4088 N   0  0  0  0  0  0  0  0  0  0  0  0
   17.7027  -25.3984   -6.9217 C   0  0  0  0  0  0  0  0  0  0  0  0
   18.3734  -24.3594   -6.5843 O   0  0  0  0  0  0  0  0  0  0  0  0
   17.0055  -26.1411   -5.9606 N   0  0  0  0  0  0  0  0  0  0  0  0
   17.1227  -25.7491   -4.5462 C   0  0  1  0  0  0  0  0  0  0  0  0
   15.7503  -25.8735   -3.9201 C   0  0  0  0  0  0  0  0  0  0  0  0
   15.7775  -25.5800   -2.4681 C   0  0  0  0  0  0  0  0  0  0  0  0
   15.8757  -26.6211   -1.5424 C   0  0  0  0  0  0  0  0  0  0  0  0
   15.9102  -26.3206   -0.2028 C   0  0  0  0  0  0  0  0  0  0  0  0
   15.8486  -25.0120    0.2108 C   0  0  0  0  0  0  0  0  0  0  0  0
   15.7517  -23.9900   -0.7149 C   0  0  0  0  0  0  0  0  0  0  0  0
   15.7154  -24.2636   -2.0622 C   0  0  0  0  0  0  0  0  0  0  0  0
   18.0962  -26.6572   -3.9093 C   0  0  0  0  0  0  0  0  0  0  0  0
   18.9221  -26.1858   -2.9037 O   0  0  0  0  0  0  0  0  0  0  0  0
   18.2283  -27.8619   -4.2281 O   0  0  0  0  0  0  0  0  0  0  0  0
  2  1  1  1
  2  3  1  0
  4  2  1  0
  4  5  1  6
  6  4  1  0
  7  6  2  0
  8  6  1  0
  9  8  1  0
  9 10  1  6
 10 11  1  0
 11 15  1  0
 12 11  2  0
 12 13  1  0
 13 14  1  0
 15 14  2  0
 16 17  2  0
 16  9  1  0
 18 16  1  0
 19 18  1  0
 19 20  1  1
 21 22  2  0
 21 20  1  0
 23 22  1  0
 24 23  2  0
 25 24  1  0
 25 26  2  0
 26 21  1  0
 27 19  1  0
 28 27  1  0
 29 27  2  0
M  END
$$$$
