VHF.pdb
     RDKit          3D

 29 30  0  0  1  0  0  0  0  0999 V2000
   27.2620  -13.6616  -16.1245 C   0  0  0  0  0  0  0  0  0  0  0  0
   26.3641  -12.4928  -16.4464 C   0  0  2  0  0  0  0  0  0  0  0  0
   26.4015  -11.4376  -15.3679 C   0  0  0  0  0  0  0  0  0  0  0  0
   24.9748  -12.8698  -16.8437 C   0  0  2  0  0  0  0  0  0  0  0  0
   25.1416  -13.7682  -18.0095 N   0  0  0  0  0  0  0  0  0  0  0  0
   24.0952  -11.7692  -17.2328 C   0  0  0  0  0  0  0  0  0  0  0  0
   24.3986  -11.0272  -18.2340 O   0  0  0  0  0  0  0  0  0  0  0  0
   22.9020  -11.4496  -16.5744 N   0  0  0  0  0  0  0  0  0  0  0  0
   22.0949  -10.2253  -16.9388 C   0  0  1  0  0  0  0  0  0  0  0  0
   20.9187  -10.8031  -17.6247 C   0  0  0  0  0  0  0  0  0  0  0  0
   19.7870   -9.9854  -18.0037 C   0  0  0  0  0  0  0  0  0  0  0  0
   19.4384   -8.6799  -17.9495 C   0  0  0  0  0  0  0  0  0  0  0  0
   18.2361   -8.4620  -18.5317 N   0  0  0  0  0  0  0  0  0  0  0  0
   17.8319   -9.6479  -18.9550 C   0  0  0  0  0  0  0  0  0  0  0  0
   18.7261  -10.5892  -18.6623 N   0  0  0  0  0  0  0  0  0  0  0  0
   21.6794   -9.6584  -15.6127 C   0  0  0  0  0  0  0  0  0  0  0  0
   21.2728  -10.4908  -14.7267 O   0  0  0  0  0  0  0  0  0  0  0  0
   21.7313   -8.2871  -15.3332 N   0  0  0  0  0  0  0  0  0  0  0  0
   21.2087   -7.8110  -14.0416 C   0  0  1  0  0  0  0  0  0  0  0  0
   22.3062   -7.0166  -13.3669 C   0  0  0  0  0  0  0  0  0  0  0  0
   22.7872   -5.9050  -14.2203 C   0  0  0  0  0  0  0  0  0  0  0  0
   23.8013   -6.1248  -15.1550 C   0  0  0  0  0  0  0  0  0  0  0  0
   24.2208   -5.0798  -15.9411 C   0  0  0  0  0  0  0  0  0  0  0  0
   23.6451   -3.8401  -15.8027 C   0  0  0  0  0  0  0  0  0  0  0  0
   22.6420   -3.6348  -14.8740 C   0  0  0  0  0  0  0  0  0  0  0  0
   22.2035   -4.6642  -14.0745 C   0  0  0  0  0  0  0  0  0  0  0  0
   20.0237   -6.9762  -14.3186 C   0  0  0  0  0  0  0  0  0  0  0  0
   19.1533   -6.6534  -13.2919 O   0  0  0  0  0  0  0  0  0  0  0  0
   19.7453   -6.5271  -15.4549 O   0  0  0  0  0  0  0  0  0  0  0  0
  2  1  1  1
  2  3  1  0
  4  2  1  0
  4  5  1  6
  6  4  1  0
  7  6  2  0
  8  6  1  0
  9  8  1  0
  9 10  1  6
 10 11  1  0
 11 15  1  0
 12 11  2  0
 12 13  1  0
 13 14  1  0
 15 14  2  0
 16 17  2  0
 16  9  1  0
 18 16  1  0
 19 18  1  0
 19 20  1  6
 21 22  2  0
 21 20  1  0
 23 22  1  0
 24 23  2  0
 25 24  1  0
 25 26  2  0
 26 21  1  0
 27 19  1  0
 28 27  1  0
 29 27  2  0
M  END
$$$$
