VHF.pdb
     RDKit          3D

 29 30  0  0  1  0  0  0  0  0999 V2000
   28.2201  -17.7958  -14.4198 C   0  0  0  0  0  0  0  0  0  0  0  0
   28.2334  -19.2232  -14.9076 C   0  0  2  0  0  0  0  0  0  0  0  0
   29.0197  -19.3761  -16.1868 C   0  0  0  0  0  0  0  0  0  0  0  0
   26.8883  -19.8690  -14.9707 C   0  0  2  0  0  0  0  0  0  0  0  0
   26.2192  -19.2443  -16.1352 N   0  0  0  0  0  0  0  0  0  0  0  0
   26.0332  -19.6916  -13.7986 C   0  0  0  0  0  0  0  0  0  0  0  0
   25.3516  -18.6144  -13.6575 O   0  0  0  0  0  0  0  0  0  0  0  0
   25.8935  -20.6413  -12.7799 N   0  0  0  0  0  0  0  0  0  0  0  0
   25.0016  -20.4009  -11.5842 C   0  0  1  0  0  0  0  0  0  0  0  0
   23.9581  -21.4370  -11.7428 C   0  0  0  0  0  0  0  0  0  0  0  0
   22.7394  -21.1768  -12.4778 C   0  0  0  0  0  0  0  0  0  0  0  0
   22.1863  -20.1467  -13.1572 C   0  0  0  0  0  0  0  0  0  0  0  0
   21.0065  -20.4985  -13.7194 N   0  0  0  0  0  0  0  0  0  0  0  0
   20.8239  -21.7653  -13.3863 C   0  0  0  0  0  0  0  0  0  0  0  0
   21.8338  -22.2140  -12.6447 N   0  0  0  0  0  0  0  0  0  0  0  0
   25.8735  -20.7365  -10.4095 C   0  0  0  0  0  0  0  0  0  0  0  0
   26.5601  -21.8162  -10.4852 O   0  0  0  0  0  0  0  0  0  0  0  0
   25.9526  -19.9184   -9.2755 N   0  0  0  0  0  0  0  0  0  0  0  0
   26.7435  -20.3845   -8.1243 C   0  0  1  0  0  0  0  0  0  0  0  0
   27.4858  -19.1905   -7.5637 C   0  0  0  0  0  0  0  0  0  0  0  0
   28.0977  -19.4893   -6.2478 C   0  0  0  0  0  0  0  0  0  0  0  0
   29.1288  -20.4261   -6.1487 C   0  0  0  0  0  0  0  0  0  0  0  0
   29.6859  -20.6761   -4.9187 C   0  0  0  0  0  0  0  0  0  0  0  0
   29.2290  -20.0094   -3.8078 C   0  0  0  0  0  0  0  0  0  0  0  0
   28.2079  -19.0843   -3.9183 C   0  0  0  0  0  0  0  0  0  0  0  0
   27.6328  -18.8152   -5.1382 C   0  0  0  0  0  0  0  0  0  0  0  0
   25.8053  -20.9547   -7.1381 C   0  0  0  0  0  0  0  0  0  0  0  0
   24.4582  -20.6446   -7.2097 O   0  0  0  0  0  0  0  0  0  0  0  0
   26.1578  -21.7233   -6.2133 O   0  0  0  0  0  0  0  0  0  0  0  0
  2  1  1  6
  2  3  1  0
  4  2  1  0
  4  5  1  6
  6  4  1  0
  7  6  2  0
  8  6  1  0
  9  8  1  0
  9 10  1  6
 10 11  1  0
 11 15  1  0
 12 11  2  0
 12 13  1  0
 13 14  1  0
 15 14  2  0
 16 17  2  0
 16  9  1  0
 18 16  1  0
 19 18  1  0
 19 20  1  1
 21 22  2  0
 21 20  1  0
 23 22  1  0
 24 23  2  0
 25 24  1  0
 25 26  2  0
 26 21  1  0
 27 19  1  0
 28 27  1  0
 29 27  2  0
M  END
$$$$
