VHF.pdb
     RDKit          3D

 29 30  0  0  1  0  0  0  0  0999 V2000
   15.2137  -11.1958  -16.2242 C   0  0  0  0  0  0  0  0  0  0  0  0
   15.5580  -11.5636  -17.6462 C   0  0  2  0  0  0  0  0  0  0  0  0
   14.3313  -11.9163  -18.4516 C   0  0  0  0  0  0  0  0  0  0  0  0
   16.6506  -12.5731  -17.7778 C   0  0  2  0  0  0  0  0  0  0  0  0
   16.0677  -13.8354  -17.2671 N   0  0  0  0  0  0  0  0  0  0  0  0
   17.8762  -12.2967  -17.0308 C   0  0  0  0  0  0  0  0  0  0  0  0
   18.0607  -12.8294  -15.8788 O   0  0  0  0  0  0  0  0  0  0  0  0
   18.9039  -11.4656  -17.4917 N   0  0  0  0  0  0  0  0  0  0  0  0
   20.1497  -11.2125  -16.6750 C   0  0  1  0  0  0  0  0  0  0  0  0
   21.2264  -11.7011  -17.5637 C   0  0  0  0  0  0  0  0  0  0  0  0
   21.6901  -13.0704  -17.5079 C   0  0  0  0  0  0  0  0  0  0  0  0
   21.4160  -14.1869  -16.7959 C   0  0  0  0  0  0  0  0  0  0  0  0
   22.1427  -15.2433  -17.2289 N   0  0  0  0  0  0  0  0  0  0  0  0
   22.8780  -14.7780  -18.2248 C   0  0  0  0  0  0  0  0  0  0  0  0
   22.6414  -13.4842  -18.4285 N   0  0  0  0  0  0  0  0  0  0  0  0
   20.2175   -9.7166  -16.5731 C   0  0  0  0  0  0  0  0  0  0  0  0
   19.6566   -9.0444  -17.5095 O   0  0  0  0  0  0  0  0  0  0  0  0
   20.8540   -9.0648  -15.5094 N   0  0  0  0  0  0  0  0  0  0  0  0
   20.9373   -7.5949  -15.5324 C   0  0  1  0  0  0  0  0  0  0  0  0
   21.4066   -7.1403  -14.1671 C   0  0  0  0  0  0  0  0  0  0  0  0
   21.6135   -5.6741  -14.1147 C   0  0  0  0  0  0  0  0  0  0  0  0
   20.5670   -4.8298  -13.7370 C   0  0  0  0  0  0  0  0  0  0  0  0
   20.7890   -3.4755  -13.6860 C   0  0  0  0  0  0  0  0  0  0  0  0
   22.0255   -2.9682  -14.0035 C   0  0  0  0  0  0  0  0  0  0  0  0
   23.0536   -3.8139  -14.3758 C   0  0  0  0  0  0  0  0  0  0  0  0
   22.8580   -5.1739  -14.4349 C   0  0  0  0  0  0  0  0  0  0  0  0
   21.8941   -7.2174  -16.5907 C   0  0  0  0  0  0  0  0  0  0  0  0
   23.0347   -7.9757  -16.7905 O   0  0  0  0  0  0  0  0  0  0  0  0
   21.7377   -6.2268  -17.3422 O   0  0  0  0  0  0  0  0  0  0  0  0
  2  1  1  1
  2  3  1  0
  4  2  1  0
  4  5  1  1
  6  4  1  0
  7  6  2  0
  8  6  1  0
  9  8  1  0
  9 10  1  6
 10 11  1  0
 11 15  1  0
 12 11  2  0
 12 13  1  0
 13 14  1  0
 15 14  2  0
 16 17  2  0
 16  9  1  0
 18 16  1  0
 19 18  1  0
 19 20  1  1
 21 22  2  0
 21 20  1  0
 23 22  1  0
 24 23  2  0
 25 24  1  0
 25 26  2  0
 26 21  1  0
 27 19  1  0
 28 27  1  0
 29 27  2  0
M  END
$$$$
