VHF.pdb
     RDKit          3D

 29 30  0  0  1  0  0  0  0  0999 V2000
   26.0830  -18.1531  -16.0418 C   0  0  0  0  0  0  0  0  0  0  0  0
   27.4016  -17.7369  -15.4384 C   0  0  2  0  0  0  0  0  0  0  0  0
   28.4565  -17.5028  -16.4922 C   0  0  0  0  0  0  0  0  0  0  0  0
   27.8762  -18.6102  -14.3239 C   0  0  2  0  0  0  0  0  0  0  0  0
   28.2124  -19.9014  -14.9673 N   0  0  0  0  0  0  0  0  0  0  0  0
   26.9154  -18.8662  -13.2526 C   0  0  0  0  0  0  0  0  0  0  0  0
   26.3321  -17.8868  -12.6648 O   0  0  0  0  0  0  0  0  0  0  0  0
   26.5678  -20.1448  -12.8010 N   0  0  0  0  0  0  0  0  0  0  0  0
   25.5035  -20.3556  -11.7494 C   0  0  1  0  0  0  0  0  0  0  0  0
   24.8264  -21.5859  -12.2136 C   0  0  0  0  0  0  0  0  0  0  0  0
   23.6442  -21.5305  -13.0458 C   0  0  0  0  0  0  0  0  0  0  0  0
   22.8962  -20.5811  -13.6521 C   0  0  0  0  0  0  0  0  0  0  0  0
   21.8981  -21.1276  -14.3848 N   0  0  0  0  0  0  0  0  0  0  0  0
   22.0279  -22.4350  -14.2333 C   0  0  0  0  0  0  0  0  0  0  0  0
   23.0580  -22.7236  -13.4417 N   0  0  0  0  0  0  0  0  0  0  0  0
   26.2825  -20.6473  -10.5001 C   0  0  0  0  0  0  0  0  0  0  0  0
   27.2140  -21.5235  -10.5875 O   0  0  0  0  0  0  0  0  0  0  0  0
   26.0239  -19.9992   -9.2858 N   0  0  0  0  0  0  0  0  0  0  0  0
   26.7667  -20.4248   -8.0879 C   0  0  1  0  0  0  0  0  0  0  0  0
   27.3177  -19.1815   -7.4234 C   0  0  0  0  0  0  0  0  0  0  0  0
   27.9766  -19.4913   -6.1330 C   0  0  0  0  0  0  0  0  0  0  0  0
   29.1945  -20.1744   -6.1120 C   0  0  0  0  0  0  0  0  0  0  0  0
   29.7893  -20.4390   -4.9028 C   0  0  0  0  0  0  0  0  0  0  0  0
   29.1873  -20.0337   -3.7364 C   0  0  0  0  0  0  0  0  0  0  0  0
   27.9818  -19.3581   -3.7698 C   0  0  0  0  0  0  0  0  0  0  0  0
   27.3652  -19.0804   -4.9673 C   0  0  0  0  0  0  0  0  0  0  0  0
   25.8233  -21.1404   -7.2070 C   0  0  0  0  0  0  0  0  0  0  0  0
   26.3006  -22.0577   -6.2871 O   0  0  0  0  0  0  0  0  0  0  0  0
   24.5825  -20.9674   -7.2379 O   0  0  0  0  0  0  0  0  0  0  0  0
  2  1  1  6
  2  3  1  0
  4  2  1  0
  4  5  1  6
  6  4  1  0
  7  6  2  0
  8  6  1  0
  9  8  1  0
  9 10  1  6
 10 11  1  0
 11 15  1  0
 12 11  2  0
 12 13  1  0
 13 14  1  0
 15 14  2  0
 16 17  2  0
 16  9  1  0
 18 16  1  0
 19 18  1  0
 19 20  1  1
 21 22  2  0
 21 20  1  0
 23 22  1  0
 24 23  2  0
 25 24  1  0
 25 26  2  0
 26 21  1  0
 27 19  1  0
 28 27  1  0
 29 27  2  0
M  END
$$$$
