VHF.pdb
     RDKit          3D

 29 30  0  0  1  0  0  0  0  0999 V2000
   24.6741   -8.7599  -21.4302 C   0  0  0  0  0  0  0  0  0  0  0  0
   25.2767   -9.7421  -20.4565 C   0  0  2  0  0  0  0  0  0  0  0  0
   26.4786  -10.4474  -21.0362 C   0  0  0  0  0  0  0  0  0  0  0  0
   24.2949  -10.6803  -19.8354 C   0  0  2  0  0  0  0  0  0  0  0  0
   23.8159  -11.5264  -20.9528 N   0  0  0  0  0  0  0  0  0  0  0  0
   23.1347  -10.0659  -19.1930 C   0  0  0  0  0  0  0  0  0  0  0  0
   21.9837  -10.1215  -19.7562 O   0  0  0  0  0  0  0  0  0  0  0  0
   23.1822   -9.3970  -17.9643 N   0  0  0  0  0  0  0  0  0  0  0  0
   21.9590   -8.7416  -17.3667 C   0  0  1  0  0  0  0  0  0  0  0  0
   21.2189   -9.8895  -16.7992 C   0  0  0  0  0  0  0  0  0  0  0  0
   20.0836   -9.6989  -15.9230 C   0  0  0  0  0  0  0  0  0  0  0  0
   19.3906   -8.6614  -15.4016 C   0  0  0  0  0  0  0  0  0  0  0  0
   18.3379   -9.0869  -14.6650 N   0  0  0  0  0  0  0  0  0  0  0  0
   18.3758  -10.4073  -14.7302 C   0  0  0  0  0  0  0  0  0  0  0  0
   19.4016  -10.8191  -15.4714 N   0  0  0  0  0  0  0  0  0  0  0  0
   22.5087   -7.8949  -16.2561 C   0  0  0  0  0  0  0  0  0  0  0  0
   23.5688   -8.3182  -15.6729 O   0  0  0  0  0  0  0  0  0  0  0  0
   21.9100   -6.6913  -15.8630 N   0  0  0  0  0  0  0  0  0  0  0  0
   22.5113   -5.9355  -14.7516 C   0  0  1  0  0  0  0  0  0  0  0  0
   23.8227   -5.3615  -15.2432 C   0  0  0  0  0  0  0  0  0  0  0  0
   23.6243   -4.4127  -16.3638 C   0  0  0  0  0  0  0  0  0  0  0  0
   23.6798   -4.8635  -17.6844 C   0  0  0  0  0  0  0  0  0  0  0  0
   23.4813   -3.9652  -18.7040 C   0  0  0  0  0  0  0  0  0  0  0  0
   23.2324   -2.6445  -18.4189 C   0  0  0  0  0  0  0  0  0  0  0  0
   23.1797   -2.2102  -17.1077 C   0  0  0  0  0  0  0  0  0  0  0  0
   23.3748   -3.0891  -16.0681 C   0  0  0  0  0  0  0  0  0  0  0  0
   21.5617   -4.8730  -14.3676 C   0  0  0  0  0  0  0  0  0  0  0  0
   21.8125   -4.0962  -13.2498 O   0  0  0  0  0  0  0  0  0  0  0  0
   20.5129   -4.6203  -15.0052 O   0  0  0  0  0  0  0  0  0  0  0  0
  2  1  1  6
  2  3  1  0
  4  2  1  0
  4  5  1  6
  6  4  1  0
  7  6  2  0
  8  6  1  0
  9  8  1  0
  9 10  1  1
 10 11  1  0
 11 15  1  0
 12 11  2  0
 12 13  1  0
 13 14  1  0
 15 14  2  0
 16 17  2  0
 16  9  1  0
 18 16  1  0
 19 18  1  0
 19 20  1  6
 21 22  2  0
 21 20  1  0
 23 22  1  0
 24 23  2  0
 25 24  1  0
 25 26  2  0
 26 21  1  0
 27 19  1  0
 28 27  1  0
 29 27  2  0
M  END
$$$$
