VHF.pdb
     RDKit          3D

 29 30  0  0  1  0  0  0  0  0999 V2000
   24.5241  -14.8735  -21.2069 C   0  0  0  0  0  0  0  0  0  0  0  0
   25.8219  -14.7009  -20.4574 C   0  0  2  0  0  0  0  0  0  0  0  0
   26.4405  -16.0264  -20.0856 C   0  0  0  0  0  0  0  0  0  0  0  0
   25.7523  -13.7487  -19.3091 C   0  0  2  0  0  0  0  0  0  0  0  0
   25.0811  -14.5047  -18.2264 N   0  0  0  0  0  0  0  0  0  0  0  0
   25.0045  -12.5143  -19.5405 C   0  0  0  0  0  0  0  0  0  0  0  0
   25.4086  -11.6735  -20.4207 O   0  0  0  0  0  0  0  0  0  0  0  0
   23.8372  -12.1647  -18.8517 N   0  0  0  0  0  0  0  0  0  0  0  0
   23.0293  -10.9430  -19.2231 C   0  0  1  0  0  0  0  0  0  0  0  0
   21.8623  -11.5243  -19.9214 C   0  0  0  0  0  0  0  0  0  0  0  0
   21.8821  -11.7772  -21.3458 C   0  0  0  0  0  0  0  0  0  0  0  0
   22.4246  -11.2159  -22.4500 C   0  0  0  0  0  0  0  0  0  0  0  0
   22.1543  -11.9412  -23.5602 N   0  0  0  0  0  0  0  0  0  0  0  0
   21.4349  -12.9686  -23.1406 C   0  0  0  0  0  0  0  0  0  0  0  0
   21.2468  -12.9135  -21.8243 N   0  0  0  0  0  0  0  0  0  0  0  0
   22.5984  -10.3789  -17.9007 C   0  0  0  0  0  0  0  0  0  0  0  0
   22.0267  -11.1845  -17.0839 O   0  0  0  0  0  0  0  0  0  0  0  0
   22.8070   -9.0384  -17.5527 N   0  0  0  0  0  0  0  0  0  0  0  0
   22.2588   -8.5483  -16.2770 C   0  0  1  0  0  0  0  0  0  0  0  0
   23.4203   -8.0751  -15.4297 C   0  0  0  0  0  0  0  0  0  0  0  0
   22.9622   -7.3906  -14.1981 C   0  0  0  0  0  0  0  0  0  0  0  0
   22.8814   -5.9970  -14.1573 C   0  0  0  0  0  0  0  0  0  0  0  0
   22.4429   -5.3884  -13.0070 C   0  0  0  0  0  0  0  0  0  0  0  0
   22.0912   -6.1479  -11.9176 C   0  0  0  0  0  0  0  0  0  0  0  0
   22.1752   -7.5266  -11.9700 C   0  0  0  0  0  0  0  0  0  0  0  0
   22.6110   -8.1611  -13.1097 C   0  0  0  0  0  0  0  0  0  0  0  0
   21.3251   -7.4475  -16.5846 C   0  0  0  0  0  0  0  0  0  0  0  0
   20.2203   -7.2359  -15.7782 O   0  0  0  0  0  0  0  0  0  0  0  0
   21.4707   -6.6692  -17.5560 O   0  0  0  0  0  0  0  0  0  0  0  0
  2  1  1  1
  2  3  1  0
  4  2  1  0
  4  5  1  1
  6  4  1  0
  7  6  2  0
  8  6  1  0
  9  8  1  0
  9 10  1  6
 10 11  1  0
 11 15  1  0
 12 11  2  0
 12 13  1  0
 13 14  1  0
 15 14  2  0
 16 17  2  0
 16  9  1  0
 18 16  1  0
 19 18  1  0
 19 20  1  1
 21 22  2  0
 21 20  1  0
 23 22  1  0
 24 23  2  0
 25 24  1  0
 25 26  2  0
 26 21  1  0
 27 19  1  0
 28 27  1  0
 29 27  2  0
M  END
$$$$
