VHF.pdb
     RDKit          3D

 29 30  0  0  1  0  0  0  0  0999 V2000
   26.1772  -18.8502  -15.9362 C   0  0  0  0  0  0  0  0  0  0  0  0
   27.5388  -18.4400  -15.4326 C   0  0  2  0  0  0  0  0  0  0  0  0
   28.5710  -18.4355  -16.5338 C   0  0  0  0  0  0  0  0  0  0  0  0
   27.9936  -19.1698  -14.2117 C   0  0  2  0  0  0  0  0  0  0  0  0
   28.2111  -20.5648  -14.6597 N   0  0  0  0  0  0  0  0  0  0  0  0
   27.0602  -19.1877  -13.0871 C   0  0  0  0  0  0  0  0  0  0  0  0
   26.5726  -18.0893  -12.6389 O   0  0  0  0  0  0  0  0  0  0  0  0
   26.6397  -20.3536  -12.4365 N   0  0  0  0  0  0  0  0  0  0  0  0
   25.5963  -20.3235  -11.3440 C   0  0  1  0  0  0  0  0  0  0  0  0
   24.6917  -21.4291  -11.7272 C   0  0  0  0  0  0  0  0  0  0  0  0
   23.6123  -21.2310  -12.6699 C   0  0  0  0  0  0  0  0  0  0  0  0
   23.2758  -21.6664  -13.9052 C   0  0  0  0  0  0  0  0  0  0  0  0
   22.0728  -21.1821  -14.2923 N   0  0  0  0  0  0  0  0  0  0  0  0
   21.6545  -20.4363  -13.2834 C   0  0  0  0  0  0  0  0  0  0  0  0
   22.5411  -20.4355  -12.2909 N   0  0  0  0  0  0  0  0  0  0  0  0
   26.3579  -20.6987  -10.1063 C   0  0  0  0  0  0  0  0  0  0  0  0
   27.3326  -21.5187  -10.2501 O   0  0  0  0  0  0  0  0  0  0  0  0
   26.0388  -20.1836   -8.8436 N   0  0  0  0  0  0  0  0  0  0  0  0
   26.8659  -20.5798   -7.6916 C   0  0  1  0  0  0  0  0  0  0  0  0
   27.6248  -19.3549   -7.2285 C   0  0  0  0  0  0  0  0  0  0  0  0
   28.3137  -19.5880   -5.9376 C   0  0  0  0  0  0  0  0  0  0  0  0
   29.3543  -20.5156   -5.8539 C   0  0  0  0  0  0  0  0  0  0  0  0
   29.9834  -20.7043   -4.6478 C   0  0  0  0  0  0  0  0  0  0  0  0
   29.5876  -19.9862   -3.5454 C   0  0  0  0  0  0  0  0  0  0  0  0
   28.5564  -19.0707   -3.6406 C   0  0  0  0  0  0  0  0  0  0  0  0
   27.9099  -18.8626   -4.8365 C   0  0  0  0  0  0  0  0  0  0  0  0
   25.9595  -21.0874   -6.6434 C   0  0  0  0  0  0  0  0  0  0  0  0
   24.5987  -21.1608   -6.8859 O   0  0  0  0  0  0  0  0  0  0  0  0
   26.3518  -21.4675   -5.5156 O   0  0  0  0  0  0  0  0  0  0  0  0
  2  1  1  6
  2  3  1  0
  4  2  1  0
  4  5  1  6
  6  4  1  0
  7  6  2  0
  8  6  1  0
  9  8  1  0
  9 10  1  6
 10 11  1  0
 11 15  1  0
 12 11  2  0
 12 13  1  0
 13 14  1  0
 15 14  2  0
 16 17  2  0
 16  9  1  0
 18 16  1  0
 19 18  1  0
 19 20  1  1
 21 22  2  0
 21 20  1  0
 23 22  1  0
 24 23  2  0
 25 24  1  0
 25 26  2  0
 26 21  1  0
 27 19  1  0
 28 27  1  0
 29 27  2  0
M  END
$$$$
