VHF.pdb
     RDKit          3D

 29 30  0  0  1  0  0  0  0  0999 V2000
   28.4714  -19.0345  -16.4691 C   0  0  0  0  0  0  0  0  0  0  0  0
   27.9621  -18.8935  -15.0560 C   0  0  2  0  0  0  0  0  0  0  0  0
   29.0756  -18.9894  -14.0417 C   0  0  0  0  0  0  0  0  0  0  0  0
   26.7979  -19.7689  -14.7268 C   0  0  2  0  0  0  0  0  0  0  0  0
   25.7953  -19.4825  -15.7788 N   0  0  0  0  0  0  0  0  0  0  0  0
   26.1740  -19.5476  -13.4237 C   0  0  0  0  0  0  0  0  0  0  0  0
   25.7888  -18.3714  -13.0870 O   0  0  0  0  0  0  0  0  0  0  0  0
   25.9544  -20.5566  -12.4787 N   0  0  0  0  0  0  0  0  0  0  0  0
   25.1950  -20.2967  -11.1985 C   0  0  1  0  0  0  0  0  0  0  0  0
   23.9445  -21.0602  -11.4010 C   0  0  0  0  0  0  0  0  0  0  0  0
   22.8751  -20.5530  -12.2329 C   0  0  0  0  0  0  0  0  0  0  0  0
   22.1827  -19.3997  -12.3725 C   0  0  0  0  0  0  0  0  0  0  0  0
   21.3001  -19.4707  -13.3960 N   0  0  0  0  0  0  0  0  0  0  0  0
   21.4463  -20.6842  -13.9010 C   0  0  0  0  0  0  0  0  0  0  0  0
   22.3767  -21.3677  -13.2387 N   0  0  0  0  0  0  0  0  0  0  0  0
   26.0286  -20.9620  -10.1424 C   0  0  0  0  0  0  0  0  0  0  0  0
   26.4597  -22.1414  -10.3998 O   0  0  0  0  0  0  0  0  0  0  0  0
   26.3381  -20.3383   -8.9272 N   0  0  0  0  0  0  0  0  0  0  0  0
   27.0405  -21.1178   -7.8942 C   0  0  1  0  0  0  0  0  0  0  0  0
   28.3393  -20.4047   -7.5848 C   0  0  0  0  0  0  0  0  0  0  0  0
   28.3439  -19.8352   -6.2170 C   0  0  0  0  0  0  0  0  0  0  0  0
   28.8583  -20.5747   -5.1497 C   0  0  0  0  0  0  0  0  0  0  0  0
   28.8608  -20.0189   -3.8939 C   0  0  0  0  0  0  0  0  0  0  0  0
   28.3624  -18.7533   -3.7004 C   0  0  0  0  0  0  0  0  0  0  0  0
   27.8560  -18.0310   -4.7647 C   0  0  0  0  0  0  0  0  0  0  0  0
   27.8419  -18.5643   -6.0323 C   0  0  0  0  0  0  0  0  0  0  0  0
   26.1617  -21.1865   -6.7106 C   0  0  0  0  0  0  0  0  0  0  0  0
   26.4513  -22.0735   -5.6883 O   0  0  0  0  0  0  0  0  0  0  0  0
   25.1409  -20.4742   -6.5658 O   0  0  0  0  0  0  0  0  0  0  0  0
  2  1  1  6
  2  3  1  0
  4  2  1  0
  4  5  1  6
  6  4  1  0
  7  6  2  0
  8  6  1  0
  9  8  1  0
  9 10  1  6
 10 11  1  0
 11 15  1  0
 12 11  2  0
 12 13  1  0
 13 14  1  0
 15 14  2  0
 16 17  2  0
 16  9  1  0
 18 16  1  0
 19 18  1  0
 19 20  1  1
 21 22  2  0
 21 20  1  0
 23 22  1  0
 24 23  2  0
 25 24  1  0
 25 26  2  0
 26 21  1  0
 27 19  1  0
 28 27  1  0
 29 27  2  0
M  END
$$$$
