VHF.pdb
     RDKit          3D

 29 30  0  0  1  0  0  0  0  0999 V2000
   27.9041  -19.3510  -16.8072 C   0  0  0  0  0  0  0  0  0  0  0  0
   27.5642  -18.7042  -15.4874 C   0  0  2  0  0  0  0  0  0  0  0  0
   28.0149  -17.2649  -15.4306 C   0  0  0  0  0  0  0  0  0  0  0  0
   27.9774  -19.4911  -14.2872 C   0  0  2  0  0  0  0  0  0  0  0  0
   27.9701  -20.9029  -14.7353 N   0  0  0  0  0  0  0  0  0  0  0  0
   27.1140  -19.3762  -13.1134 C   0  0  0  0  0  0  0  0  0  0  0  0
   26.8447  -18.2216  -12.6241 O   0  0  0  0  0  0  0  0  0  0  0  0
   26.5350  -20.4685  -12.4569 N   0  0  0  0  0  0  0  0  0  0  0  0
   25.5872  -20.2874  -11.2941 C   0  0  1  0  0  0  0  0  0  0  0  0
   24.5420  -21.2981  -11.5657 C   0  0  0  0  0  0  0  0  0  0  0  0
   23.4010  -20.9998  -12.4037 C   0  0  0  0  0  0  0  0  0  0  0  0
   22.9075  -19.9328  -13.0719 C   0  0  0  0  0  0  0  0  0  0  0  0
   21.7949  -20.2558  -13.7716 N   0  0  0  0  0  0  0  0  0  0  0  0
   21.5943  -21.5417  -13.5364 C   0  0  0  0  0  0  0  0  0  0  0  0
   22.5291  -22.0297  -12.7245 N   0  0  0  0  0  0  0  0  0  0  0  0
   26.3959  -20.7040  -10.1003 C   0  0  0  0  0  0  0  0  0  0  0  0
   27.5382  -21.2383  -10.3301 O   0  0  0  0  0  0  0  0  0  0  0  0
   25.9447  -20.5209   -8.7872 N   0  0  0  0  0  0  0  0  0  0  0  0
   26.8541  -20.8513   -7.6773 C   0  0  1  0  0  0  0  0  0  0  0  0
   27.8435  -19.7140   -7.5404 C   0  0  0  0  0  0  0  0  0  0  0  0
   28.5859  -19.7796   -6.2598 C   0  0  0  0  0  0  0  0  0  0  0  0
   28.2918  -18.8829   -5.2303 C   0  0  0  0  0  0  0  0  0  0  0  0
   28.9872  -18.9727   -4.0496 C   0  0  0  0  0  0  0  0  0  0  0  0
   29.9561  -19.9340   -3.8929 C   0  0  0  0  0  0  0  0  0  0  0  0
   30.2383  -20.8161   -4.9190 C   0  0  0  0  0  0  0  0  0  0  0  0
   29.5565  -20.7478   -6.1115 C   0  0  0  0  0  0  0  0  0  0  0  0
   26.0352  -21.0102   -6.4599 C   0  0  0  0  0  0  0  0  0  0  0  0
   26.5835  -21.5972   -5.3327 O   0  0  0  0  0  0  0  0  0  0  0  0
   24.8414  -20.6380   -6.3768 O   0  0  0  0  0  0  0  0  0  0  0  0
  2  1  1  6
  2  3  1  0
  4  2  1  0
  4  5  1  6
  6  4  1  0
  7  6  2  0
  8  6  1  0
  9  8  1  0
  9 10  1  6
 10 11  1  0
 11 15  1  0
 12 11  2  0
 12 13  1  0
 13 14  1  0
 15 14  2  0
 16 17  2  0
 16  9  1  0
 18 16  1  0
 19 18  1  0
 19 20  1  1
 21 22  2  0
 21 20  1  0
 23 22  1  0
 24 23  2  0
 25 24  1  0
 25 26  2  0
 26 21  1  0
 27 19  1  0
 28 27  1  0
 29 27  2  0
M  END
$$$$
