LHF.pdb
     RDKit          3D

 30 31  0  0  1  0  0  0  0  0999 V2000
   24.7844   -5.3457  -24.2813 C   0  0  0  0  0  0  0  0  0  0  0  0
   25.5711   -6.2849  -23.3949 C   0  0  1  0  0  0  0  0  0  0  0  0
   26.8030   -5.5589  -22.8917 C   0  0  0  0  0  0  0  0  0  0  0  0
   24.7037   -6.7400  -22.2464 C   0  0  0  0  0  0  0  0  0  0  0  0
   25.4118   -7.6231  -21.2717 C   0  0  2  0  0  0  0  0  0  0  0  0
   25.8615   -8.8817  -21.8178 N   0  0  0  0  0  0  0  0  0  0  0  0
   24.5619   -7.8120  -20.0514 C   0  0  0  0  0  0  0  0  0  0  0  0
   23.6702   -8.6589  -20.1328 O   0  0  0  0  0  0  0  0  0  0  0  0
   24.8005   -7.0517  -18.9097 N   0  0  0  0  0  0  0  0  0  0  0  0
   24.1809   -7.0806  -17.6245 C   0  0  1  0  0  0  0  0  0  0  0  0
   25.0942   -7.4874  -16.4720 C   0  0  0  0  0  0  0  0  0  0  0  0
   25.4257   -8.9203  -16.4604 C   0  0  0  0  0  0  0  0  0  0  0  0
   24.9824   -9.8936  -17.3035 C   0  0  0  0  0  0  0  0  0  0  0  0
   25.4646  -11.0901  -16.9216 N   0  0  0  0  0  0  0  0  0  0  0  0
   26.2106  -10.8357  -15.8310 C   0  0  0  0  0  0  0  0  0  0  0  0
   26.1952   -9.5203  -15.5401 N   0  0  0  0  0  0  0  0  0  0  0  0
   23.4154   -5.8756  -17.3152 C   0  0  0  0  0  0  0  0  0  0  0  0
   23.9910   -4.7458  -17.4515 O   0  0  0  0  0  0  0  0  0  0  0  0
   22.0768   -5.8378  -16.8722 N   0  0  0  0  0  0  0  0  0  0  0  0
   21.2984   -4.6363  -16.6934 C   0  0  1  0  0  0  0  0  0  0  0  0
   20.4710   -4.2967  -17.9101 C   0  0  0  0  0  0  0  0  0  0  0  0
   19.5489   -5.3566  -18.3123 C   0  0  0  0  0  0  0  0  0  0  0  0
   19.8916   -6.1994  -19.3452 C   0  0  0  0  0  0  0  0  0  0  0  0
   19.0513   -7.2249  -19.7687 C   0  0  0  0  0  0  0  0  0  0  0  0
   17.8435   -7.4233  -19.1578 C   0  0  0  0  0  0  0  0  0  0  0  0
   17.4816   -6.5953  -18.1262 C   0  0  0  0  0  0  0  0  0  0  0  0
   18.3276   -5.5723  -17.7089 C   0  0  0  0  0  0  0  0  0  0  0  0
   20.3627   -4.8746  -15.5764 C   0  0  0  0  0  0  0  0  0  0  0  0
   19.5821   -3.8728  -15.0464 O   0  0  0  0  0  0  0  0  0  0  0  0
   20.2810   -6.0261  -15.1004 O   0  0  0  0  0  0  0  0  0  0  0  0
  2  1  1  6
  3  2  1  0
  4  2  1  0
  5  4  1  0
  5  6  1  6
  7  8  2  0
  7  5  1  0
  9  7  1  0
 10  9  1  0
 10 11  1  1
 12 16  1  0
 12 11  1  0
 13 12  2  0
 14 13  1  0
 14 15  1  0
 15 16  2  0
 17 10  1  0
 17 19  1  0
 18 17  2  0
 20 19  1  0
 20 28  1  0
 20 21  1  6
 22 21  1  0
 23 22  2  0
 24 23  1  0
 25 24  2  0
 25 26  1  0
 26 27  2  0
 27 22  1  0
 28 30  2  0
 28 29  1  0
M  END
$$$$
