LHF.pdb
     RDKit          3D

 30 31  0  0  1  0  0  0  0  0999 V2000
   32.1180  -22.1570  -20.0959 C   0  0  0  0  0  0  0  0  0  0  0  0
   30.8811  -22.8741  -19.6031 C   0  0  1  0  0  0  0  0  0  0  0  0
   31.2481  -24.3096  -19.2829 C   0  0  0  0  0  0  0  0  0  0  0  0
   30.3411  -22.1681  -18.3831 C   0  0  0  0  0  0  0  0  0  0  0  0
   29.2314  -22.9034  -17.7053 C   0  0  2  0  0  0  0  0  0  0  0  0
   28.3436  -23.6085  -18.5993 N   0  0  0  0  0  0  0  0  0  0  0  0
   28.4888  -21.9708  -16.7964 C   0  0  0  0  0  0  0  0  0  0  0  0
   29.1373  -21.4781  -15.8714 O   0  0  0  0  0  0  0  0  0  0  0  0
   27.1409  -21.7034  -17.0204 N   0  0  0  0  0  0  0  0  0  0  0  0
   26.2235  -20.8766  -16.3054 C   0  0  1  0  0  0  0  0  0  0  0  0
   25.2296  -20.1088  -17.1718 C   0  0  0  0  0  0  0  0  0  0  0  0
   24.2927  -19.2790  -16.3991 C   0  0  0  0  0  0  0  0  0  0  0  0
   24.5656  -18.1708  -15.6561 C   0  0  0  0  0  0  0  0  0  0  0  0
   23.4471  -17.7356  -15.0482 N   0  0  0  0  0  0  0  0  0  0  0  0
   22.4837  -18.5941  -15.4298 C   0  0  0  0  0  0  0  0  0  0  0  0
   22.9848  -19.5371  -16.2513 N   0  0  0  0  0  0  0  0  0  0  0  0
   25.5659  -21.5565  -15.1923 C   0  0  0  0  0  0  0  0  0  0  0  0
   25.3542  -22.8099  -15.2936 O   0  0  0  0  0  0  0  0  0  0  0  0
   25.1337  -20.9516  -13.9935 N   0  0  0  0  0  0  0  0  0  0  0  0
   24.5135  -21.6479  -12.8926 C   0  0  1  0  0  0  0  0  0  0  0  0
   25.5042  -22.0325  -11.8198 C   0  0  0  0  0  0  0  0  0  0  0  0
   25.7686  -20.9705  -10.8514 C   0  0  0  0  0  0  0  0  0  0  0  0
   25.2906  -21.0887   -9.5661 C   0  0  0  0  0  0  0  0  0  0  0  0
   25.5132  -20.1076   -8.6043 C   0  0  0  0  0  0  0  0  0  0  0  0
   26.2250  -18.9825   -8.9190 C   0  0  0  0  0  0  0  0  0  0  0  0
   26.7107  -18.8438  -10.1940 C   0  0  0  0  0  0  0  0  0  0  0  0
   26.4836  -19.8295  -11.1496 C   0  0  0  0  0  0  0  0  0  0  0  0
   23.5346  -20.7282  -12.2796 C   0  0  0  0  0  0  0  0  0  0  0  0
   22.5249  -21.1729  -11.4570 O   0  0  0  0  0  0  0  0  0  0  0  0
   23.6309  -19.5065  -12.5190 O   0  0  0  0  0  0  0  0  0  0  0  0
  2  1  1  1
  3  2  1  0
  4  2  1  0
  5  4  1  0
  5  6  1  6
  7  8  2  0
  7  5  1  0
  9  7  1  0
 10  9  1  0
 10 11  1  6
 12 16  1  0
 12 11  1  0
 13 12  2  0
 14 13  1  0
 14 15  1  0
 15 16  2  0
 17 10  1  0
 17 19  1  0
 18 17  2  0
 20 19  1  0
 20 28  1  0
 20 21  1  1
 22 21  1  0
 23 22  2  0
 24 23  1  0
 25 24  2  0
 25 26  1  0
 26 27  2  0
 27 22  1  0
 28 30  2  0
 28 29  1  0
M  END
$$$$
