LHF.pdb
     RDKit          3D

 30 31  0  0  1  0  0  0  0  0999 V2000
   21.8603  -16.2725  -14.7204 C   0  0  0  0  0  0  0  0  0  0  0  0
   21.7394  -16.0186  -16.2063 C   0  0  1  0  0  0  0  0  0  0  0  0
   20.2854  -16.1698  -16.6074 C   0  0  0  0  0  0  0  0  0  0  0  0
   22.2478  -14.6335  -16.5245 C   0  0  0  0  0  0  0  0  0  0  0  0
   22.0886  -14.2499  -17.9594 C   0  0  2  0  0  0  0  0  0  0  0  0
   22.9065  -15.0061  -18.8780 N   0  0  0  0  0  0  0  0  0  0  0  0
   22.2912  -12.7725  -18.1127 C   0  0  0  0  0  0  0  0  0  0  0  0
   23.4597  -12.3813  -18.1386 O   0  0  0  0  0  0  0  0  0  0  0  0
   21.1923  -11.9240  -18.2165 N   0  0  0  0  0  0  0  0  0  0  0  0
   21.1187  -10.5024  -18.3167 C   0  0  1  0  0  0  0  0  0  0  0  0
   19.9922   -9.9706  -19.1976 C   0  0  0  0  0  0  0  0  0  0  0  0
   19.3059  -11.0162  -19.9717 C   0  0  0  0  0  0  0  0  0  0  0  0
   19.6056  -12.3426  -20.0449 C   0  0  0  0  0  0  0  0  0  0  0  0
   18.7806  -12.9550  -20.9135 N   0  0  0  0  0  0  0  0  0  0  0  0
   17.9701  -11.9836  -21.3719 C   0  0  0  0  0  0  0  0  0  0  0  0
   18.2791  -10.8001  -20.8071 N   0  0  0  0  0  0  0  0  0  0  0  0
   21.1709   -9.8200  -17.0262 C   0  0  0  0  0  0  0  0  0  0  0  0
   20.5560  -10.3475  -16.0415 O   0  0  0  0  0  0  0  0  0  0  0  0
   21.8475   -8.6119  -16.7569 N   0  0  0  0  0  0  0  0  0  0  0  0
   21.9303   -7.9813  -15.4619 C   0  0  1  0  0  0  0  0  0  0  0  0
   23.3556   -7.7962  -14.9988 C   0  0  0  0  0  0  0  0  0  0  0  0
   24.0888   -9.0486  -14.8276 C   0  0  0  0  0  0  0  0  0  0  0  0
   25.0606   -9.3968  -15.7380 C   0  0  0  0  0  0  0  0  0  0  0  0
   25.7887  -10.5773  -15.6228 C   0  0  0  0  0  0  0  0  0  0  0  0
   25.5517  -11.4350  -14.5837 C   0  0  0  0  0  0  0  0  0  0  0  0
   24.5877  -11.1081  -13.6646 C   0  0  0  0  0  0  0  0  0  0  0  0
   23.8642   -9.9257  -13.7872 C   0  0  0  0  0  0  0  0  0  0  0  0
   21.3278   -6.6387  -15.5816 C   0  0  0  0  0  0  0  0  0  0  0  0
   21.0801   -5.8448  -14.4851 O   0  0  0  0  0  0  0  0  0  0  0  0
   21.0350   -6.2142  -16.7189 O   0  0  0  0  0  0  0  0  0  0  0  0
  2  1  1  1
  3  2  1  0
  4  2  1  0
  5  4  1  0
  5  6  1  6
  7  8  2  0
  7  5  1  0
  9  7  1  0
 10  9  1  0
 10 11  1  1
 12 16  1  0
 12 11  1  0
 13 12  2  0
 14 13  1  0
 14 15  1  0
 15 16  2  0
 17 10  1  0
 17 19  1  0
 18 17  2  0
 20 19  1  0
 20 28  1  0
 20 21  1  6
 22 21  1  0
 23 22  2  0
 24 23  1  0
 25 24  2  0
 25 26  1  0
 26 27  2  0
 27 22  1  0
 28 30  2  0
 28 29  1  0
M  END
$$$$
