LHF.pdb
     RDKit          3D

 30 31  0  0  1  0  0  0  0  0999 V2000
   28.0433  -15.1389  -15.4942 C   0  0  0  0  0  0  0  0  0  0  0  0
   27.6135  -16.5623  -15.7702 C   0  0  1  0  0  0  0  0  0  0  0  0
   28.8268  -17.3591  -16.2072 C   0  0  0  0  0  0  0  0  0  0  0  0
   26.9968  -17.1534  -14.5257 C   0  0  0  0  0  0  0  0  0  0  0  0
   26.7187  -18.6174  -14.6301 C   0  0  2  0  0  0  0  0  0  0  0  0
   25.9521  -19.0022  -15.7914 N   0  0  0  0  0  0  0  0  0  0  0  0
   26.0935  -19.1046  -13.3577 C   0  0  0  0  0  0  0  0  0  0  0  0
   25.4032  -18.2903  -12.7417 O   0  0  0  0  0  0  0  0  0  0  0  0
   26.3066  -20.4126  -12.9311 N   0  0  0  0  0  0  0  0  0  0  0  0
   25.7629  -21.1326  -11.8255 C   0  0  1  0  0  0  0  0  0  0  0  0
   25.3195  -22.5595  -12.1341 C   0  0  0  0  0  0  0  0  0  0  0  0
   24.0885  -22.6336  -12.9357 C   0  0  0  0  0  0  0  0  0  0  0  0
   23.2027  -21.6369  -13.2118 C   0  0  0  0  0  0  0  0  0  0  0  0
   22.1692  -22.1217  -13.9238 N   0  0  0  0  0  0  0  0  0  0  0  0
   22.4349  -23.4316  -14.0802 C   0  0  0  0  0  0  0  0  0  0  0  0
   23.5989  -23.7555  -13.4841 N   0  0  0  0  0  0  0  0  0  0  0  0
   26.5853  -21.0653  -10.6201 C   0  0  0  0  0  0  0  0  0  0  0  0
   27.7539  -21.5742  -10.6600 O   0  0  0  0  0  0  0  0  0  0  0  0
   26.2070  -20.4815   -9.3930 N   0  0  0  0  0  0  0  0  0  0  0  0
   26.9219  -20.6344   -8.1492 C   0  0  1  0  0  0  0  0  0  0  0  0
   27.5088  -19.3334   -7.6558 C   0  0  0  0  0  0  0  0  0  0  0  0
   28.1701  -19.4384   -6.3570 C   0  0  0  0  0  0  0  0  0  0  0  0
   27.6518  -18.7650   -5.2743 C   0  0  0  0  0  0  0  0  0  0  0  0
   28.2413  -18.8301   -4.0152 C   0  0  0  0  0  0  0  0  0  0  0  0
   29.3699  -19.5782   -3.8201 C   0  0  0  0  0  0  0  0  0  0  0  0
   29.9037  -20.2577   -4.8851 C   0  0  0  0  0  0  0  0  0  0  0  0
   29.3080  -20.1872   -6.1407 C   0  0  0  0  0  0  0  0  0  0  0  0
   25.9542  -21.0948   -7.1336 C   0  0  0  0  0  0  0  0  0  0  0  0
   26.3496  -21.7200   -5.9732 O   0  0  0  0  0  0  0  0  0  0  0  0
   24.7369  -20.9079   -7.3398 O   0  0  0  0  0  0  0  0  0  0  0  0
  2  1  1  1
  3  2  1  0
  4  2  1  0
  5  4  1  0
  5  6  1  6
  7  8  2  0
  7  5  1  0
  9  7  1  0
 10  9  1  0
 10 11  1  6
 12 16  1  0
 12 11  1  0
 13 12  2  0
 14 13  1  0
 14 15  1  0
 15 16  2  0
 17 10  1  0
 17 19  1  0
 18 17  2  0
 20 19  1  0
 20 28  1  0
 20 21  1  1
 22 21  1  0
 23 22  2  0
 24 23  1  0
 25 24  2  0
 25 26  1  0
 26 27  2  0
 27 22  1  0
 28 30  2  0
 28 29  1  0
M  END
$$$$
