LHF.pdb
     RDKit          3D

 30 31  0  0  1  0  0  0  0  0999 V2000
   27.7133  -15.8181  -16.5647 C   0  0  0  0  0  0  0  0  0  0  0  0
   27.6663  -17.2852  -16.2009 C   0  0  1  0  0  0  0  0  0  0  0  0
   28.8689  -17.9754  -16.8134 C   0  0  0  0  0  0  0  0  0  0  0  0
   27.6642  -17.4326  -14.6987 C   0  0  0  0  0  0  0  0  0  0  0  0
   27.6861  -18.8522  -14.2342 C   0  0  2  0  0  0  0  0  0  0  0  0
   27.2496  -19.8136  -15.2189 N   0  0  0  0  0  0  0  0  0  0  0  0
   26.9207  -18.9756  -12.9511 C   0  0  0  0  0  0  0  0  0  0  0  0
   26.9434  -17.9948  -12.2053 O   0  0  0  0  0  0  0  0  0  0  0  0
   26.2358  -20.1515  -12.6569 N   0  0  0  0  0  0  0  0  0  0  0  0
   25.4300  -20.5045  -11.5333 C   0  0  1  0  0  0  0  0  0  0  0  0
   24.3705  -21.5689  -11.8023 C   0  0  0  0  0  0  0  0  0  0  0  0
   23.2311  -21.0795  -12.5931 C   0  0  0  0  0  0  0  0  0  0  0  0
   22.9155  -19.7925  -12.9072 C   0  0  0  0  0  0  0  0  0  0  0  0
   21.7580  -19.7549  -13.5919 N   0  0  0  0  0  0  0  0  0  0  0  0
   21.3684  -21.0389  -13.6929 C   0  0  0  0  0  0  0  0  0  0  0  0
   22.2554  -21.8542  -13.0898 N   0  0  0  0  0  0  0  0  0  0  0  0
   26.2008  -20.7941  -10.3267 C   0  0  0  0  0  0  0  0  0  0  0  0
   27.1096  -21.6862  -10.3932 O   0  0  0  0  0  0  0  0  0  0  0  0
   26.0356  -20.1724   -9.0714 N   0  0  0  0  0  0  0  0  0  0  0  0
   26.7416  -20.5388   -7.8677 C   0  0  1  0  0  0  0  0  0  0  0  0
   27.7477  -19.4944   -7.4466 C   0  0  0  0  0  0  0  0  0  0  0  0
   28.3068  -19.7156   -6.1148 C   0  0  0  0  0  0  0  0  0  0  0  0
   27.6536  -19.2140   -5.0119 C   0  0  0  0  0  0  0  0  0  0  0  0
   28.1416  -19.3954   -3.7212 C   0  0  0  0  0  0  0  0  0  0  0  0
   29.3027  -20.0887   -3.5141 C   0  0  0  0  0  0  0  0  0  0  0  0
   29.9702  -20.5974   -4.5988 C   0  0  0  0  0  0  0  0  0  0  0  0
   29.4753  -20.4115   -5.8860 C   0  0  0  0  0  0  0  0  0  0  0  0
   25.7448  -20.6527   -6.7846 C   0  0  0  0  0  0  0  0  0  0  0  0
   25.9930  -21.3588   -5.6297 O   0  0  0  0  0  0  0  0  0  0  0  0
   24.6406  -20.0870   -6.9264 O   0  0  0  0  0  0  0  0  0  0  0  0
  2  1  1  1
  3  2  1  0
  4  2  1  0
  5  4  1  0
  5  6  1  6
  7  8  2  0
  7  5  1  0
  9  7  1  0
 10  9  1  0
 10 11  1  6
 12 16  1  0
 12 11  1  0
 13 12  2  0
 14 13  1  0
 14 15  1  0
 15 16  2  0
 17 10  1  0
 17 19  1  0
 18 17  2  0
 20 19  1  0
 20 28  1  0
 20 21  1  1
 22 21  1  0
 23 22  2  0
 24 23  1  0
 25 24  2  0
 25 26  1  0
 26 27  2  0
 27 22  1  0
 28 30  2  0
 28 29  1  0
M  END
$$$$
