LHF.pdb
     RDKit          3D

 30 31  0  0  1  0  0  0  0  0999 V2000
   26.9068  -15.4726  -16.4587 C   0  0  0  0  0  0  0  0  0  0  0  0
   27.3539  -16.8755  -16.1137 C   0  0  1  0  0  0  0  0  0  0  0  0
   28.8669  -16.9340  -16.1870 C   0  0  0  0  0  0  0  0  0  0  0  0
   26.8642  -17.2357  -14.7321 C   0  0  0  0  0  0  0  0  0  0  0  0
   27.4249  -18.5187  -14.2114 C   0  0  2  0  0  0  0  0  0  0  0  0
   27.5233  -19.5736  -15.1923 N   0  0  0  0  0  0  0  0  0  0  0  0
   26.6571  -18.9498  -12.9982 C   0  0  0  0  0  0  0  0  0  0  0  0
   26.1166  -18.0538  -12.3471 O   0  0  0  0  0  0  0  0  0  0  0  0
   26.5840  -20.2987  -12.6610 N   0  0  0  0  0  0  0  0  0  0  0  0
   25.8282  -20.9674  -11.6520 C   0  0  1  0  0  0  0  0  0  0  0  0
   25.1340  -22.2492  -12.1026 C   0  0  0  0  0  0  0  0  0  0  0  0
   24.1341  -22.0372  -13.1602 C   0  0  0  0  0  0  0  0  0  0  0  0
   22.8785  -21.5238  -13.0407 C   0  0  0  0  0  0  0  0  0  0  0  0
   22.2519  -21.5543  -14.2309 N   0  0  0  0  0  0  0  0  0  0  0  0
   23.1429  -22.0944  -15.0825 C   0  0  0  0  0  0  0  0  0  0  0  0
   24.2912  -22.3924  -14.4440 N   0  0  0  0  0  0  0  0  0  0  0  0
   26.5567  -21.1525  -10.3995 C   0  0  0  0  0  0  0  0  0  0  0  0
   27.6311  -21.8390  -10.4243 O   0  0  0  0  0  0  0  0  0  0  0  0
   26.1817  -20.6369   -9.1413 N   0  0  0  0  0  0  0  0  0  0  0  0
   26.9598  -20.7584   -7.9324 C   0  0  1  0  0  0  0  0  0  0  0  0
   27.5263  -19.4358   -7.4738 C   0  0  0  0  0  0  0  0  0  0  0  0
   28.2248  -19.5046   -6.1921 C   0  0  0  0  0  0  0  0  0  0  0  0
   29.3437  -20.2968   -6.0700 C   0  0  0  0  0  0  0  0  0  0  0  0
   30.0468  -20.3989   -4.8731 C   0  0  0  0  0  0  0  0  0  0  0  0
   29.6352  -19.7022   -3.7701 C   0  0  0  0  0  0  0  0  0  0  0  0
   28.5225  -18.9065   -3.8691 C   0  0  0  0  0  0  0  0  0  0  0  0
   27.8254  -18.8101   -5.0696 C   0  0  0  0  0  0  0  0  0  0  0  0
   26.0573  -21.2437   -6.8694 C   0  0  0  0  0  0  0  0  0  0  0  0
   24.6873  -21.1825   -6.9850 O   0  0  0  0  0  0  0  0  0  0  0  0
   26.5596  -21.7251   -5.8325 O   0  0  0  0  0  0  0  0  0  0  0  0
  2  1  1  1
  3  2  1  0
  4  2  1  0
  5  4  1  0
  5  6  1  6
  7  8  2  0
  7  5  1  0
  9  7  1  0
 10  9  1  0
 10 11  1  6
 12 16  1  0
 12 11  1  0
 13 12  2  0
 14 13  1  0
 14 15  1  0
 15 16  2  0
 17 10  1  0
 17 19  1  0
 18 17  2  0
 20 19  1  0
 20 28  1  0
 20 21  1  1
 22 21  1  0
 23 22  2  0
 24 23  1  0
 25 24  2  0
 25 26  1  0
 26 27  2  0
 27 22  1  0
 28 30  2  0
 28 29  1  0
M  END
$$$$
