LHF.pdb
     RDKit          3D

 30 31  0  0  1  0  0  0  0  0999 V2000
   27.5169  -18.1084  -18.3577 C   0  0  0  0  0  0  0  0  0  0  0  0
   27.7333  -19.2670  -17.4102 C   0  0  1  0  0  0  0  0  0  0  0  0
   29.1528  -19.7717  -17.5778 C   0  0  0  0  0  0  0  0  0  0  0  0
   27.4837  -18.8128  -15.9926 C   0  0  0  0  0  0  0  0  0  0  0  0
   27.8772  -19.8191  -14.9611 C   0  0  2  0  0  0  0  0  0  0  0  0
   27.7402  -21.1940  -15.3798 N   0  0  0  0  0  0  0  0  0  0  0  0
   27.1434  -19.5455  -13.6828 C   0  0  0  0  0  0  0  0  0  0  0  0
   27.0834  -18.3664  -13.3292 O   0  0  0  0  0  0  0  0  0  0  0  0
   26.5757  -20.5949  -12.9652 N   0  0  0  0  0  0  0  0  0  0  0  0
   25.7282  -20.5877  -11.8171 C   0  0  1  0  0  0  0  0  0  0  0  0
   24.3786  -21.2752  -12.0015 C   0  0  0  0  0  0  0  0  0  0  0  0
   23.5044  -20.6052  -12.9764 C   0  0  0  0  0  0  0  0  0  0  0  0
   23.3797  -20.8587  -14.3085 C   0  0  0  0  0  0  0  0  0  0  0  0
   22.5230  -19.9842  -14.8667 N   0  0  0  0  0  0  0  0  0  0  0  0
   22.1242  -19.1903  -13.8561 C   0  0  0  0  0  0  0  0  0  0  0  0
   22.7136  -19.5574  -12.7015 N   0  0  0  0  0  0  0  0  0  0  0  0
   26.3970  -21.0179  -10.5918 C   0  0  0  0  0  0  0  0  0  0  0  0
   27.5496  -21.5540  -10.6920 O   0  0  0  0  0  0  0  0  0  0  0  0
   25.8836  -20.8962   -9.2836 N   0  0  0  0  0  0  0  0  0  0  0  0
   26.6713  -20.9609   -8.0767 C   0  0  1  0  0  0  0  0  0  0  0  0
   27.5578  -19.7513   -7.8991 C   0  0  0  0  0  0  0  0  0  0  0  0
   28.2655  -19.7198   -6.6210 C   0  0  0  0  0  0  0  0  0  0  0  0
   27.8098  -18.9018   -5.6122 C   0  0  0  0  0  0  0  0  0  0  0  0
   28.4453  -18.8330   -4.3759 C   0  0  0  0  0  0  0  0  0  0  0  0
   29.5578  -19.5902   -4.1295 C   0  0  0  0  0  0  0  0  0  0  0  0
   30.0294  -20.4126   -5.1205 C   0  0  0  0  0  0  0  0  0  0  0  0
   29.3879  -20.4753   -6.3538 C   0  0  0  0  0  0  0  0  0  0  0  0
   25.7350  -20.9925   -6.9355 C   0  0  0  0  0  0  0  0  0  0  0  0
   26.0107  -21.6852   -5.7788 O   0  0  0  0  0  0  0  0  0  0  0  0
   24.6578  -20.3677   -7.0286 O   0  0  0  0  0  0  0  0  0  0  0  0
  2  1  1  6
  3  2  1  0
  4  2  1  0
  5  4  1  0
  5  6  1  6
  7  8  2  0
  7  5  1  0
  9  7  1  0
 10  9  1  0
 10 11  1  6
 12 16  1  0
 12 11  1  0
 13 12  2  0
 14 13  1  0
 14 15  1  0
 15 16  2  0
 17 10  1  0
 17 19  1  0
 18 17  2  0
 20 19  1  0
 20 28  1  0
 20 21  1  1
 22 21  1  0
 23 22  2  0
 24 23  1  0
 25 24  2  0
 25 26  1  0
 26 27  2  0
 27 22  1  0
 28 30  2  0
 28 29  1  0
M  END
$$$$
