LHF.pdb
     RDKit          3D

 30 31  0  0  1  0  0  0  0  0999 V2000
   28.1460  -13.2681  -18.9367 C   0  0  0  0  0  0  0  0  0  0  0  0
   28.0995  -14.7763  -18.8360 C   0  0  1  0  0  0  0  0  0  0  0  0
   29.4413  -15.3328  -19.2690 C   0  0  0  0  0  0  0  0  0  0  0  0
   27.7793  -15.1775  -17.4165 C   0  0  0  0  0  0  0  0  0  0  0  0
   27.8088  -16.6534  -17.1881 C   0  0  2  0  0  0  0  0  0  0  0  0
   27.5147  -17.4485  -18.3567 N   0  0  0  0  0  0  0  0  0  0  0  0
   26.9202  -17.0035  -16.0325 C   0  0  0  0  0  0  0  0  0  0  0  0
   27.1123  -16.3793  -14.9874 O   0  0  0  0  0  0  0  0  0  0  0  0
   25.9443  -17.9861  -16.1748 N   0  0  0  0  0  0  0  0  0  0  0  0
   24.9568  -18.4583  -15.2592 C   0  0  1  0  0  0  0  0  0  0  0  0
   23.5118  -18.2972  -15.7219 C   0  0  0  0  0  0  0  0  0  0  0  0
   23.0566  -16.8990  -15.7561 C   0  0  0  0  0  0  0  0  0  0  0  0
   23.6806  -15.7981  -15.2530 C   0  0  0  0  0  0  0  0  0  0  0  0
   22.9091  -14.7098  -15.4276 N   0  0  0  0  0  0  0  0  0  0  0  0
   21.8020  -15.1603  -16.0457 C   0  0  0  0  0  0  0  0  0  0  0  0
   21.8792  -16.4896  -16.2512 N   0  0  0  0  0  0  0  0  0  0  0  0
   25.2212  -19.8029  -14.7533 C   0  0  0  0  0  0  0  0  0  0  0  0
   25.5591  -20.7045  -15.5894 O   0  0  0  0  0  0  0  0  0  0  0  0
   25.1381  -20.2099  -13.4053 N   0  0  0  0  0  0  0  0  0  0  0  0
   25.3084  -21.5643  -12.9383 C   0  0  1  0  0  0  0  0  0  0  0  0
   26.4339  -21.6947  -11.9401 C   0  0  0  0  0  0  0  0  0  0  0  0
   26.2376  -20.9111  -10.7224 C   0  0  0  0  0  0  0  0  0  0  0  0
   26.3125  -19.5379  -10.7788 C   0  0  0  0  0  0  0  0  0  0  0  0
   26.1337  -18.7435   -9.6501 C   0  0  0  0  0  0  0  0  0  0  0  0
   25.8746  -19.3186   -8.4361 C   0  0  0  0  0  0  0  0  0  0  0  0
   25.7955  -20.6855   -8.3567 C   0  0  0  0  0  0  0  0  0  0  0  0
   25.9756  -21.4724   -9.4902 C   0  0  0  0  0  0  0  0  0  0  0  0
   24.0622  -21.9581  -12.2515 C   0  0  0  0  0  0  0  0  0  0  0  0
   23.0552  -21.0587  -11.9852 O   0  0  0  0  0  0  0  0  0  0  0  0
   23.9225  -23.1489  -11.9028 O   0  0  0  0  0  0  0  0  0  0  0  0
  2  1  1  1
  3  2  1  0
  4  2  1  0
  5  4  1  0
  5  6  1  6
  7  8  2  0
  7  5  1  0
  9  7  1  0
 10  9  1  0
 10 11  1  6
 12 16  1  0
 12 11  1  0
 13 12  2  0
 14 13  1  0
 14 15  1  0
 15 16  2  0
 17 10  1  0
 17 19  1  0
 18 17  2  0
 20 19  1  0
 20 28  1  0
 20 21  1  1
 22 21  1  0
 23 22  2  0
 24 23  1  0
 25 24  2  0
 25 26  1  0
 26 27  2  0
 27 22  1  0
 28 30  2  0
 28 29  1  0
M  END
$$$$
