LHF.pdb
     RDKit          3D

 30 31  0  0  1  0  0  0  0  0999 V2000
   29.9830  -16.0203  -20.0543 C   0  0  0  0  0  0  0  0  0  0  0  0
   28.5192  -16.2053  -19.7230 C   0  0  1  0  0  0  0  0  0  0  0  0
   27.7423  -16.3405  -21.0176 C   0  0  0  0  0  0  0  0  0  0  0  0
   28.3485  -17.4307  -18.8584 C   0  0  0  0  0  0  0  0  0  0  0  0
   26.9218  -17.7870  -18.5960 C   0  0  2  0  0  0  0  0  0  0  0  0
   26.1066  -16.6936  -18.1222 N   0  0  0  0  0  0  0  0  0  0  0  0
   26.8574  -18.9729  -17.6812 C   0  0  0  0  0  0  0  0  0  0  0  0
   27.5330  -19.9510  -18.0067 O   0  0  0  0  0  0  0  0  0  0  0  0
   26.0652  -18.9301  -16.5371 N   0  0  0  0  0  0  0  0  0  0  0  0
   25.7729  -19.9358  -15.5678 C   0  0  1  0  0  0  0  0  0  0  0  0
   25.2295  -19.4191  -14.2390 C   0  0  0  0  0  0  0  0  0  0  0  0
   25.0369  -20.4731  -13.2314 C   0  0  0  0  0  0  0  0  0  0  0  0
   25.3157  -21.8017  -13.3393 C   0  0  0  0  0  0  0  0  0  0  0  0
   24.9348  -22.4457  -12.2211 N   0  0  0  0  0  0  0  0  0  0  0  0
   24.4180  -21.4914  -11.4255 C   0  0  0  0  0  0  0  0  0  0  0  0
   24.4742  -20.2876  -12.0281 N   0  0  0  0  0  0  0  0  0  0  0  0
   24.9739  -21.0407  -16.0916 C   0  0  0  0  0  0  0  0  0  0  0  0
   23.9542  -20.7607  -16.8044 O   0  0  0  0  0  0  0  0  0  0  0  0
   25.2239  -22.4131  -15.8828 N   0  0  0  0  0  0  0  0  0  0  0  0
   24.5120  -23.4907  -16.5258 C   0  0  1  0  0  0  0  0  0  0  0  0
   25.3968  -24.3040  -17.4402 C   0  0  0  0  0  0  0  0  0  0  0  0
   26.5847  -24.8463  -16.7843 C   0  0  0  0  0  0  0  0  0  0  0  0
   26.4924  -26.0233  -16.0768 C   0  0  0  0  0  0  0  0  0  0  0  0
   27.5917  -26.5841  -15.4333 C   0  0  0  0  0  0  0  0  0  0  0  0
   28.8118  -25.9679  -15.4896 C   0  0  0  0  0  0  0  0  0  0  0  0
   28.9268  -24.7939  -16.1891 C   0  0  0  0  0  0  0  0  0  0  0  0
   27.8226  -24.2401  -16.8297 C   0  0  0  0  0  0  0  0  0  0  0  0
   24.0229  -24.3953  -15.4665 C   0  0  0  0  0  0  0  0  0  0  0  0
   23.2065  -25.4695  -15.7376 O   0  0  0  0  0  0  0  0  0  0  0  0
   24.3648  -24.1735  -14.2861 O   0  0  0  0  0  0  0  0  0  0  0  0
  2  1  1  6
  3  2  1  0
  4  2  1  0
  5  4  1  0
  5  6  1  1
  7  8  2  0
  7  5  1  0
  9  7  1  0
 10  9  1  0
 10 11  1  1
 12 16  1  0
 12 11  1  0
 13 12  2  0
 14 13  1  0
 14 15  1  0
 15 16  2  0
 17 10  1  0
 17 19  1  0
 18 17  2  0
 20 19  1  0
 20 28  1  0
 20 21  1  6
 22 21  1  0
 23 22  2  0
 24 23  1  0
 25 24  2  0
 25 26  1  0
 26 27  2  0
 27 22  1  0
 28 30  2  0
 28 29  1  0
M  END
$$$$
