LHF.pdb
     RDKit          3D

 30 31  0  0  1  0  0  0  0  0999 V2000
   24.5093  -14.9082  -19.7787 C   0  0  0  0  0  0  0  0  0  0  0  0
   23.5375  -14.7463  -18.6314 C   0  0  1  0  0  0  0  0  0  0  0  0
   24.3045  -14.8491  -17.3280 C   0  0  0  0  0  0  0  0  0  0  0  0
   22.8399  -13.4126  -18.7456 C   0  0  0  0  0  0  0  0  0  0  0  0
   21.8355  -13.1656  -17.6677 C   0  0  2  0  0  0  0  0  0  0  0  0
   20.8231  -14.1874  -17.5441 N   0  0  0  0  0  0  0  0  0  0  0  0
   21.2384  -11.8010  -17.8369 C   0  0  0  0  0  0  0  0  0  0  0  0
   21.7653  -11.0754  -18.6824 O   0  0  0  0  0  0  0  0  0  0  0  0
   20.1490  -11.4144  -17.0610 N   0  0  0  0  0  0  0  0  0  0  0  0
   19.3442  -10.2368  -17.1056 C   0  0  1  0  0  0  0  0  0  0  0  0
   17.8485  -10.4786  -17.2855 C   0  0  0  0  0  0  0  0  0  0  0  0
   17.4940  -11.0209  -18.6060 C   0  0  0  0  0  0  0  0  0  0  0  0
   17.6611  -10.4406  -19.8266 C   0  0  0  0  0  0  0  0  0  0  0  0
   17.1481  -11.2304  -20.7874 N   0  0  0  0  0  0  0  0  0  0  0  0
   16.6636  -12.3042  -20.1371 C   0  0  0  0  0  0  0  0  0  0  0  0
   16.8676  -12.1891  -18.8103 N   0  0  0  0  0  0  0  0  0  0  0  0
   19.6186   -9.2974  -16.0212 C   0  0  0  0  0  0  0  0  0  0  0  0
   19.1798   -9.5775  -14.8571 O   0  0  0  0  0  0  0  0  0  0  0  0
   20.3350   -8.0878  -16.1371 N   0  0  0  0  0  0  0  0  0  0  0  0
   20.6434   -7.2011  -15.0417 C   0  0  1  0  0  0  0  0  0  0  0  0
   22.1275   -6.9701  -14.8846 C   0  0  0  0  0  0  0  0  0  0  0  0
   22.9071   -8.1999  -14.7607 C   0  0  0  0  0  0  0  0  0  0  0  0
   22.7303   -9.0084  -13.6610 C   0  0  0  0  0  0  0  0  0  0  0  0
   23.4461  -10.1901  -13.4928 C   0  0  0  0  0  0  0  0  0  0  0  0
   24.3587  -10.5832  -14.4332 C   0  0  0  0  0  0  0  0  0  0  0  0
   24.5511   -9.7927  -15.5372 C   0  0  0  0  0  0  0  0  0  0  0  0
   23.8311   -8.6127  -15.6976 C   0  0  0  0  0  0  0  0  0  0  0  0
   20.0230   -5.8947  -15.3387 C   0  0  0  0  0  0  0  0  0  0  0  0
   19.4186   -5.6265  -16.5456 O   0  0  0  0  0  0  0  0  0  0  0  0
   20.0505   -5.0065  -14.4614 O   0  0  0  0  0  0  0  0  0  0  0  0
  2  1  1  6
  3  2  1  0
  4  2  1  0
  5  4  1  0
  5  6  1  6
  7  8  2  0
  7  5  1  0
  9  7  1  0
 10  9  1  0
 10 11  1  1
 12 16  1  0
 12 11  1  0
 13 12  2  0
 14 13  1  0
 14 15  1  0
 15 16  2  0
 17 10  1  0
 17 19  1  0
 18 17  2  0
 20 19  1  0
 20 28  1  0
 20 21  1  6
 22 21  1  0
 23 22  2  0
 24 23  1  0
 25 24  2  0
 25 26  1  0
 26 27  2  0
 27 22  1  0
 28 30  2  0
 28 29  1  0
M  END
$$$$
