LHF.pdb
     RDKit          3D

 30 31  0  0  1  0  0  0  0  0999 V2000
   24.4204  -24.5625  -18.1187 C   0  0  0  0  0  0  0  0  0  0  0  0
   23.8135  -24.0606  -16.8277 C   0  0  1  0  0  0  0  0  0  0  0  0
   22.9775  -25.1702  -16.2213 C   0  0  0  0  0  0  0  0  0  0  0  0
   24.9131  -23.6342  -15.8856 C   0  0  0  0  0  0  0  0  0  0  0  0
   24.4248  -23.2482  -14.5276 C   0  0  2  0  0  0  0  0  0  0  0  0
   23.2340  -22.4318  -14.5268 N   0  0  0  0  0  0  0  0  0  0  0  0
   25.5400  -22.6154  -13.7510 C   0  0  0  0  0  0  0  0  0  0  0  0
   26.6180  -23.2127  -13.7584 O   0  0  0  0  0  0  0  0  0  0  0  0
   25.3271  -21.4185  -13.0725 N   0  0  0  0  0  0  0  0  0  0  0  0
   26.2275  -20.5914  -12.3365 C   0  0  1  0  0  0  0  0  0  0  0  0
   26.1003  -19.0946  -12.6031 C   0  0  0  0  0  0  0  0  0  0  0  0
   26.6420  -18.6801  -13.9063 C   0  0  0  0  0  0  0  0  0  0  0  0
   27.2743  -19.4469  -14.8372 C   0  0  0  0  0  0  0  0  0  0  0  0
   27.6784  -18.6823  -15.8679 N   0  0  0  0  0  0  0  0  0  0  0  0
   27.2841  -17.4344  -15.5546 C   0  0  0  0  0  0  0  0  0  0  0  0
   26.6528  -17.4196  -14.3645 N   0  0  0  0  0  0  0  0  0  0  0  0
   26.2631  -20.8902  -10.9071 C   0  0  0  0  0  0  0  0  0  0  0  0
   25.1853  -21.2781  -10.3467 O   0  0  0  0  0  0  0  0  0  0  0  0
   27.3937  -20.7899  -10.0697 N   0  0  0  0  0  0  0  0  0  0  0  0
   27.3760  -20.9390   -8.6348 C   0  0  1  0  0  0  0  0  0  0  0  0
   28.6006  -20.3493   -7.9768 C   0  0  0  0  0  0  0  0  0  0  0  0
   28.5540  -20.3686   -6.5164 C   0  0  0  0  0  0  0  0  0  0  0  0
   28.0763  -19.2708   -5.8374 C   0  0  0  0  0  0  0  0  0  0  0  0
   28.0099  -19.2358   -4.4476 C   0  0  0  0  0  0  0  0  0  0  0  0
   28.4252  -20.3107   -3.7102 C   0  0  0  0  0  0  0  0  0  0  0  0
   28.9049  -21.4155   -4.3661 C   0  0  0  0  0  0  0  0  0  0  0  0
   28.9678  -21.4422   -5.7560 C   0  0  0  0  0  0  0  0  0  0  0  0
   26.2032  -20.2008   -8.1253 C   0  0  0  0  0  0  0  0  0  0  0  0
   25.3461  -20.7382   -7.1923 O   0  0  0  0  0  0  0  0  0  0  0  0
   25.9864  -19.0502   -8.5593 O   0  0  0  0  0  0  0  0  0  0  0  0
  2  1  1  6
  3  2  1  0
  4  2  1  0
  5  4  1  0
  5  6  1  6
  7  8  2  0
  7  5  1  0
  9  7  1  0
 10  9  1  0
 10 11  1  1
 12 16  1  0
 12 11  1  0
 13 12  2  0
 14 13  1  0
 14 15  1  0
 15 16  2  0
 17 10  1  0
 17 19  1  0
 18 17  2  0
 20 19  1  0
 20 28  1  0
 20 21  1  1
 22 21  1  0
 23 22  2  0
 24 23  1  0
 25 24  2  0
 25 26  1  0
 26 27  2  0
 27 22  1  0
 28 30  2  0
 28 29  1  0
M  END
$$$$
