LHF.pdb
     RDKit          3D

 30 31  0  0  1  0  0  0  0  0999 V2000
   29.6274  -12.7897  -16.9159 C   0  0  0  0  0  0  0  0  0  0  0  0
   28.2378  -13.3707  -17.0514 C   0  0  1  0  0  0  0  0  0  0  0  0
   28.2016  -14.7112  -16.3447 C   0  0  0  0  0  0  0  0  0  0  0  0
   27.2317  -12.4165  -16.4548 C   0  0  0  0  0  0  0  0  0  0  0  0
   25.8227  -12.9075  -16.5256 C   0  0  2  0  0  0  0  0  0  0  0  0
   25.5805  -13.8933  -17.5522 N   0  0  0  0  0  0  0  0  0  0  0  0
   24.8866  -11.7416  -16.6346 C   0  0  0  0  0  0  0  0  0  0  0  0
   25.1194  -10.7834  -15.8954 O   0  0  0  0  0  0  0  0  0  0  0  0
   23.8249  -11.7804  -17.5344 N   0  0  0  0  0  0  0  0  0  0  0  0
   22.7924  -10.8315  -17.7990 C   0  0  1  0  0  0  0  0  0  0  0  0
   21.7393  -11.2813  -18.8073 C   0  0  0  0  0  0  0  0  0  0  0  0
   20.7385  -10.2482  -19.1145 C   0  0  0  0  0  0  0  0  0  0  0  0
   20.7292   -8.9432  -18.7253 C   0  0  0  0  0  0  0  0  0  0  0  0
   19.6063   -8.3407  -19.1567 N   0  0  0  0  0  0  0  0  0  0  0  0
   18.9268   -9.2965  -19.8167 C   0  0  0  0  0  0  0  0  0  0  0  0
   19.6044  -10.4609  -19.7983 N   0  0  0  0  0  0  0  0  0  0  0  0
   22.1888  -10.2699  -16.5932 C   0  0  0  0  0  0  0  0  0  0  0  0
   21.5788  -11.0615  -15.8012 O   0  0  0  0  0  0  0  0  0  0  0  0
   22.2148   -8.9123  -16.2113 N   0  0  0  0  0  0  0  0  0  0  0  0
   21.7587   -8.4015  -14.9414 C   0  0  1  0  0  0  0  0  0  0  0  0
   22.8799   -7.8139  -14.1180 C   0  0  0  0  0  0  0  0  0  0  0  0
   23.6825   -6.8241  -14.8332 C   0  0  0  0  0  0  0  0  0  0  0  0
   24.7468   -7.2390  -15.6010 C   0  0  0  0  0  0  0  0  0  0  0  0
   25.5439   -6.3394  -16.3027 C   0  0  0  0  0  0  0  0  0  0  0  0
   25.2840   -4.9975  -16.2450 C   0  0  0  0  0  0  0  0  0  0  0  0
   24.2282   -4.5616  -15.4859 C   0  0  0  0  0  0  0  0  0  0  0  0
   23.4362   -5.4679  -14.7875 C   0  0  0  0  0  0  0  0  0  0  0  0
   20.7986   -7.3146  -15.2181 C   0  0  0  0  0  0  0  0  0  0  0  0
   20.0693   -6.7079  -14.2210 O   0  0  0  0  0  0  0  0  0  0  0  0
   20.6470   -6.9370  -16.3986 O   0  0  0  0  0  0  0  0  0  0  0  0
  2  1  1  1
  3  2  1  0
  4  2  1  0
  5  4  1  0
  5  6  1  6
  7  8  2  0
  7  5  1  0
  9  7  1  0
 10  9  1  0
 10 11  1  1
 12 16  1  0
 12 11  1  0
 13 12  2  0
 14 13  1  0
 14 15  1  0
 15 16  2  0
 17 10  1  0
 17 19  1  0
 18 17  2  0
 20 19  1  0
 20 28  1  0
 20 21  1  1
 22 21  1  0
 23 22  2  0
 24 23  1  0
 25 24  2  0
 25 26  1  0
 26 27  2  0
 27 22  1  0
 28 30  2  0
 28 29  1  0
M  END
$$$$
