LHF.pdb
     RDKit          3D

 30 31  0  0  1  0  0  0  0  0999 V2000
   25.3816  -31.9599   -8.2721 C   0  0  0  0  0  0  0  0  0  0  0  0
   26.2185  -33.2191   -8.3056 C   0  0  1  0  0  0  0  0  0  0  0  0
   27.5758  -32.8838   -8.8913 C   0  0  0  0  0  0  0  0  0  0  0  0
   26.3535  -33.7725   -6.9078 C   0  0  0  0  0  0  0  0  0  0  0  0
   27.2768  -34.9428   -6.8114 C   0  0  2  0  0  0  0  0  0  0  0  0
   26.8679  -36.0957   -7.5782 N   0  0  0  0  0  0  0  0  0  0  0  0
   27.5137  -35.2819   -5.3705 C   0  0  0  0  0  0  0  0  0  0  0  0
   26.5583  -35.7634   -4.7587 O   0  0  0  0  0  0  0  0  0  0  0  0
   28.7595  -35.0493   -4.7941 N   0  0  0  0  0  0  0  0  0  0  0  0
   29.2382  -35.3056   -3.4744 C   0  0  1  0  0  0  0  0  0  0  0  0
   30.7408  -35.1244   -3.2817 C   0  0  0  0  0  0  0  0  0  0  0  0
   31.2193  -35.5421   -1.9551 C   0  0  0  0  0  0  0  0  0  0  0  0
   30.4930  -36.0429   -0.9177 C   0  0  0  0  0  0  0  0  0  0  0  0
   31.2881  -36.2413    0.1493 N   0  0  0  0  0  0  0  0  0  0  0  0
   32.5136  -35.8544   -0.2497 C   0  0  0  0  0  0  0  0  0  0  0  0
   32.4853  -35.4272   -1.5272 N   0  0  0  0  0  0  0  0  0  0  0  0
   28.4690  -34.6329   -2.4305 C   0  0  0  0  0  0  0  0  0  0  0  0
   28.2849  -33.3753   -2.5348 O   0  0  0  0  0  0  0  0  0  0  0  0
   27.8989  -35.2491   -1.2970 N   0  0  0  0  0  0  0  0  0  0  0  0
   27.0195  -34.5984   -0.3564 C   0  0  1  0  0  0  0  0  0  0  0  0
   25.6265  -34.4042   -0.9060 C   0  0  0  0  0  0  0  0  0  0  0  0
   25.2591  -33.0037   -1.1036 C   0  0  0  0  0  0  0  0  0  0  0  0
   24.4575  -32.6552   -2.1669 C   0  0  0  0  0  0  0  0  0  0  0  0
   24.0774  -31.3371   -2.4018 C   0  0  0  0  0  0  0  0  0  0  0  0
   24.4989  -30.3387   -1.5668 C   0  0  0  0  0  0  0  0  0  0  0  0
   25.2985  -30.6632   -0.5009 C   0  0  0  0  0  0  0  0  0  0  0  0
   25.6739  -31.9837   -0.2732 C   0  0  0  0  0  0  0  0  0  0  0  0
   26.9083  -35.4736    0.8274 C   0  0  0  0  0  0  0  0  0  0  0  0
   27.4288  -36.7474    0.8501 O   0  0  0  0  0  0  0  0  0  0  0  0
   26.3211  -35.0382    1.8397 O   0  0  0  0  0  0  0  0  0  0  0  0
  2  1  1  1
  3  2  1  0
  4  2  1  0
  5  4  1  0
  5  6  1  6
  7  8  2  0
  7  5  1  0
  9  7  1  0
 10  9  1  0
 10 11  1  6
 12 16  1  0
 12 11  1  0
 13 12  2  0
 14 13  1  0
 14 15  1  0
 15 16  2  0
 17 10  1  0
 17 19  1  0
 18 17  2  0
 20 19  1  0
 20 28  1  0
 20 21  1  6
 22 21  1  0
 23 22  2  0
 24 23  1  0
 25 24  2  0
 25 26  1  0
 26 27  2  0
 27 22  1  0
 28 30  2  0
 28 29  1  0
M  END
$$$$
