LHF.pdb
     RDKit          3D

 30 31  0  0  1  0  0  0  0  0999 V2000
   22.8835   -9.6601  -24.1670 C   0  0  0  0  0  0  0  0  0  0  0  0
   23.2925  -10.2625  -22.8415 C   0  0  1  0  0  0  0  0  0  0  0  0
   24.7716  -10.0081  -22.6290 C   0  0  0  0  0  0  0  0  0  0  0  0
   22.4724   -9.6476  -21.7335 C   0  0  0  0  0  0  0  0  0  0  0  0
   22.8922  -10.0774  -20.3658 C   0  0  2  0  0  0  0  0  0  0  0  0
   22.8615  -11.5043  -20.1483 N   0  0  0  0  0  0  0  0  0  0  0  0
   22.0945   -9.3352  -19.3361 C   0  0  0  0  0  0  0  0  0  0  0  0
   21.8795   -8.1437  -19.5665 O   0  0  0  0  0  0  0  0  0  0  0  0
   21.6407   -9.9935  -18.1964 N   0  0  0  0  0  0  0  0  0  0  0  0
   20.8549   -9.5260  -17.1008 C   0  0  1  0  0  0  0  0  0  0  0  0
   19.8270  -10.5196  -16.5678 C   0  0  0  0  0  0  0  0  0  0  0  0
   18.6778  -10.7164  -17.4645 C   0  0  0  0  0  0  0  0  0  0  0  0
   18.3484  -10.0062  -18.5787 C   0  0  0  0  0  0  0  0  0  0  0  0
   17.1859  -10.4554  -19.0857 N   0  0  0  0  0  0  0  0  0  0  0  0
   16.8074  -11.4525  -18.2651 C   0  0  0  0  0  0  0  0  0  0  0  0
   17.7059  -11.6212  -17.2754 N   0  0  0  0  0  0  0  0  0  0  0  0
   21.6435   -8.9275  -16.0267 C   0  0  0  0  0  0  0  0  0  0  0  0
   22.2818   -9.7057  -15.2436 O   0  0  0  0  0  0  0  0  0  0  0  0
   21.7709   -7.5473  -15.7653 N   0  0  0  0  0  0  0  0  0  0  0  0
   22.6106   -6.9733  -14.7421 C   0  0  1  0  0  0  0  0  0  0  0  0
   23.9698   -6.5746  -15.2656 C   0  0  0  0  0  0  0  0  0  0  0  0
   24.8385   -7.7074  -15.5777 C   0  0  0  0  0  0  0  0  0  0  0  0
   25.2909   -7.8820  -16.8659 C   0  0  0  0  0  0  0  0  0  0  0  0
   26.1200   -8.9430  -17.2180 C   0  0  0  0  0  0  0  0  0  0  0  0
   26.5120   -9.8538  -16.2756 C   0  0  0  0  0  0  0  0  0  0  0  0
   26.0731   -9.6994  -14.9855 C   0  0  0  0  0  0  0  0  0  0  0  0
   25.2443   -8.6356  -14.6419 C   0  0  0  0  0  0  0  0  0  0  0  0
   21.9471   -5.7462  -14.2586 C   0  0  0  0  0  0  0  0  0  0  0  0
   22.4222   -5.0294  -13.1842 O   0  0  0  0  0  0  0  0  0  0  0  0
   20.9203   -5.3499  -14.8484 O   0  0  0  0  0  0  0  0  0  0  0  0
  2  1  1  6
  3  2  1  0
  4  2  1  0
  5  4  1  0
  5  6  1  6
  7  8  2  0
  7  5  1  0
  9  7  1  0
 10  9  1  0
 10 11  1  1
 12 16  1  0
 12 11  1  0
 13 12  2  0
 14 13  1  0
 14 15  1  0
 15 16  2  0
 17 10  1  0
 17 19  1  0
 18 17  2  0
 20 19  1  0
 20 28  1  0
 20 21  1  6
 22 21  1  0
 23 22  2  0
 24 23  1  0
 25 24  2  0
 25 26  1  0
 26 27  2  0
 27 22  1  0
 28 30  2  0
 28 29  1  0
M  END
$$$$
