LHF.pdb
     RDKit          3D

 30 31  0  0  1  0  0  0  0  0999 V2000
   27.8383  -15.4569  -16.3490 C   0  0  0  0  0  0  0  0  0  0  0  0
   27.7187  -16.9480  -16.1267 C   0  0  1  0  0  0  0  0  0  0  0  0
   28.9836  -17.6160  -16.6281 C   0  0  0  0  0  0  0  0  0  0  0  0
   27.5064  -17.2236  -14.6579 C   0  0  0  0  0  0  0  0  0  0  0  0
   27.5100  -18.6769  -14.3125 C   0  0  2  0  0  0  0  0  0  0  0  0
   27.0028  -19.5426  -15.3507 N   0  0  0  0  0  0  0  0  0  0  0  0
   26.8005  -18.8880  -13.0089 C   0  0  0  0  0  0  0  0  0  0  0  0
   26.7435  -17.9152  -12.2545 O   0  0  0  0  0  0  0  0  0  0  0  0
   26.2505  -20.1308  -12.7065 N   0  0  0  0  0  0  0  0  0  0  0  0
   25.5076  -20.5694  -11.5698 C   0  0  1  0  0  0  0  0  0  0  0  0
   24.5156  -21.6973  -11.8377 C   0  0  0  0  0  0  0  0  0  0  0  0
   23.3296  -21.2710  -12.5960 C   0  0  0  0  0  0  0  0  0  0  0  0
   22.9052  -20.0026  -12.8516 C   0  0  0  0  0  0  0  0  0  0  0  0
   21.7397  -20.0322  -13.5231 N   0  0  0  0  0  0  0  0  0  0  0  0
   21.4558  -21.3387  -13.6754 C   0  0  0  0  0  0  0  0  0  0  0  0
   22.4146  -22.1023  -13.1162 N   0  0  0  0  0  0  0  0  0  0  0  0
   26.3351  -20.8376  -10.3962 C   0  0  0  0  0  0  0  0  0  0  0  0
   27.3579  -21.5856  -10.5395 O   0  0  0  0  0  0  0  0  0  0  0  0
   26.1098  -20.3411   -9.0953 N   0  0  0  0  0  0  0  0  0  0  0  0
   26.9558  -20.5961   -7.9548 C   0  0  1  0  0  0  0  0  0  0  0  0
   27.5481  -19.3317   -7.3797 C   0  0  0  0  0  0  0  0  0  0  0  0
   28.3167  -19.5429   -6.1550 C   0  0  0  0  0  0  0  0  0  0  0  0
   27.7987  -19.1307   -4.9482 C   0  0  0  0  0  0  0  0  0  0  0  0
   28.4879  -19.3071   -3.7520 C   0  0  0  0  0  0  0  0  0  0  0  0
   29.7184  -19.9050   -3.7469 C   0  0  0  0  0  0  0  0  0  0  0  0
   30.2538  -20.3237   -4.9381 C   0  0  0  0  0  0  0  0  0  0  0  0
   29.5580  -20.1434   -6.1296 C   0  0  0  0  0  0  0  0  0  0  0  0
   26.1156  -21.2063   -6.9053 C   0  0  0  0  0  0  0  0  0  0  0  0
   24.7421  -21.1202   -6.9221 O   0  0  0  0  0  0  0  0  0  0  0  0
   26.6754  -21.8203   -5.9731 O   0  0  0  0  0  0  0  0  0  0  0  0
  2  1  1  1
  3  2  1  0
  4  2  1  0
  5  4  1  0
  5  6  1  6
  7  8  2  0
  7  5  1  0
  9  7  1  0
 10  9  1  0
 10 11  1  6
 12 16  1  0
 12 11  1  0
 13 12  2  0
 14 13  1  0
 14 15  1  0
 15 16  2  0
 17 10  1  0
 17 19  1  0
 18 17  2  0
 20 19  1  0
 20 28  1  0
 20 21  1  1
 22 21  1  0
 23 22  2  0
 24 23  1  0
 25 24  2  0
 25 26  1  0
 26 27  2  0
 27 22  1  0
 28 30  2  0
 28 29  1  0
M  END
$$$$
