CIM.pdb
     RDKit          3D

 23 22  0  0  1  0  0  0  0  0999 V2000
   27.7089  -20.2257  -16.9714 N   0  0  0  0  0  0  0  0  0  0  0  0
   27.7696  -21.1482  -15.8230 C   0  0  1  0  0  0  0  0  0  0  0  0
   29.2312  -21.2606  -15.4308 C   0  0  0  0  0  0  0  0  0  0  0  0
   29.7181  -22.9243  -14.9793 S   0  0  0  0  0  0  0  0  0  0  0  0
   26.9848  -20.5437  -14.7323 C   0  0  0  0  0  0  0  0  0  0  0  0
   27.1038  -19.2770  -14.5608 O   0  0  0  0  0  0  0  0  0  0  0  0
   21.8908  -20.4122  -14.7492 C   0  0  0  0  0  0  0  0  0  0  0  0
   23.3744  -20.1760  -14.5566 C   0  0  0  0  0  0  0  0  0  0  0  0
   23.8127  -20.7060  -13.2272 C   0  0  2  0  0  0  0  0  0  0  0  0
   23.0241  -20.0553  -12.1083 C   0  0  0  0  0  0  0  0  0  0  0  0
   25.2823  -20.6115  -12.9722 C   0  0  2  0  0  0  0  0  0  0  0  0
   26.1198  -21.2970  -13.8839 N   0  0  0  0  0  0  0  0  0  0  0  0
   25.5345  -21.1878  -11.5944 C   0  0  0  0  0  0  0  0  0  0  0  0
   25.3384  -22.4074  -11.3689 O   0  0  0  0  0  0  0  0  0  0  0  0
   29.7032  -19.4903   -6.1744 C   0  0  0  0  0  0  0  0  0  0  0  0
   27.9616  -18.9942   -6.1209 S   0  0  0  0  0  0  0  0  0  0  0  0
   26.8961  -20.2047   -6.9219 C   0  0  0  0  0  0  0  0  0  0  0  0
   26.8317  -19.9511   -8.3798 C   0  0  0  0  0  0  0  0  0  0  0  0
   25.9648  -20.8868   -9.1340 C   0  0  2  0  0  0  0  0  0  0  0  0
   25.9903  -20.3811  -10.5414 N   0  0  0  0  0  0  0  0  0  0  0  0
   24.5891  -21.0876   -8.7187 C   0  0  0  0  0  0  0  0  0  0  0  0
   24.3474  -22.0409   -7.8929 O   0  0  0  0  0  0  0  0  0  0  0  0
   23.4849  -20.3692   -9.0965 O   0  0  0  0  0  0  0  0  0  0  0  0
  2  3  1  0
  2  1  1  6
  4  3  1  0
  5  2  1  0
  6  5  2  0
  8  9  1  0
  8  7  1  0
  9 11  1  0
  9 10  1  1
 11 13  1  0
 11 12  1  6
 12  5  1  0
 13 20  1  0
 14 13  2  0
 16 17  1  0
 16 15  1  0
 19 18  1  1
 18 17  1  0
 19 21  1  0
 20 19  1  0
 21 22  2  0
 21 23  1  0
M  END
$$$$
