CIM.pdb
     RDKit          3D

 23 22  0  0  1  0  0  0  0  0999 V2000
   27.6692  -17.9031  -16.7956 N   0  0  0  0  0  0  0  0  0  0  0  0
   27.2193  -17.6071  -15.4232 C   0  0  1  0  0  0  0  0  0  0  0  0
   26.1603  -16.5260  -15.5351 C   0  0  0  0  0  0  0  0  0  0  0  0
   26.8094  -14.8716  -15.3108 S   0  0  0  0  0  0  0  0  0  0  0  0
   26.6402  -18.8457  -14.8743 C   0  0  0  0  0  0  0  0  0  0  0  0
   26.0214  -19.6143  -15.6955 O   0  0  0  0  0  0  0  0  0  0  0  0
   28.5774  -21.5458  -10.3884 C   0  0  0  0  0  0  0  0  0  0  0  0
   28.0651  -21.3515  -11.8004 C   0  0  0  0  0  0  0  0  0  0  0  0
   26.6160  -20.9775  -11.7763 C   0  0  2  0  0  0  0  0  0  0  0  0
   25.7691  -22.1562  -11.3398 C   0  0  0  0  0  0  0  0  0  0  0  0
   26.1021  -20.3916  -13.0516 C   0  0  2  0  0  0  0  0  0  0  0  0
   26.7415  -19.2110  -13.4988 N   0  0  0  0  0  0  0  0  0  0  0  0
   24.6383  -20.0677  -12.8363 C   0  0  0  0  0  0  0  0  0  0  0  0
   24.2977  -19.1631  -12.0348 O   0  0  0  0  0  0  0  0  0  0  0  0
   20.9206  -16.8475  -16.3086 C   0  0  0  0  0  0  0  0  0  0  0  0
   20.0502  -18.4316  -16.1845 S   0  0  0  0  0  0  0  0  0  0  0  0
   20.3929  -19.2629  -14.6244 C   0  0  0  0  0  0  0  0  0  0  0  0
   21.8075  -19.6988  -14.5718 C   0  0  0  0  0  0  0  0  0  0  0  0
   22.1933  -20.4023  -13.3260 C   0  0  2  0  0  0  0  0  0  0  0  0
   23.6315  -20.7640  -13.5211 N   0  0  0  0  0  0  0  0  0  0  0  0
   21.4538  -21.5771  -12.9036 C   0  0  0  0  0  0  0  0  0  0  0  0
   21.9478  -22.7280  -13.1874 O   0  0  0  0  0  0  0  0  0  0  0  0
   20.2690  -21.6208  -12.2164 O   0  0  0  0  0  0  0  0  0  0  0  0
  2  3  1  0
  2  1  1  6
  4  3  1  0
  5  2  1  0
  6  5  2  0
  8  9  1  0
  8  7  1  0
  9 11  1  0
  9 10  1  6
 11 13  1  0
 11 12  1  1
 12  5  1  0
 13 20  1  0
 14 13  2  0
 16 17  1  0
 16 15  1  0
 19 18  1  6
 18 17  1  0
 19 21  1  0
 20 19  1  0
 21 22  2  0
 21 23  1  0
M  END
$$$$
