CIM.pdb
     RDKit          3D

 23 22  0  0  1  0  0  0  0  0999 V2000
   25.5526  -24.5464  -16.1429 N   0  0  0  0  0  0  0  0  0  0  0  0
   24.7255  -23.5413  -15.4509 C   0  0  1  0  0  0  0  0  0  0  0  0
   23.6698  -24.3055  -14.6736 C   0  0  0  0  0  0  0  0  0  0  0  0
   22.4131  -25.0394  -15.7181 S   0  0  0  0  0  0  0  0  0  0  0  0
   25.6099  -22.8007  -14.5342 C   0  0  0  0  0  0  0  0  0  0  0  0
   26.6844  -23.3923  -14.1553 O   0  0  0  0  0  0  0  0  0  0  0  0
   27.4902  -17.7621  -15.0636 C   0  0  0  0  0  0  0  0  0  0  0  0
   27.2122  -19.2334  -14.8357 C   0  0  0  0  0  0  0  0  0  0  0  0
   26.5808  -19.4371  -13.4940 C   0  0  2  0  0  0  0  0  0  0  0  0
   27.4450  -18.8379  -12.4024 C   0  0  0  0  0  0  0  0  0  0  0  0
   26.2277  -20.8550  -13.1799 C   0  0  2  0  0  0  0  0  0  0  0  0
   25.3216  -21.4840  -14.0665 N   0  0  0  0  0  0  0  0  0  0  0  0
   25.6020  -20.8644  -11.8007 C   0  0  0  0  0  0  0  0  0  0  0  0
   24.3669  -20.6866  -11.6608 O   0  0  0  0  0  0  0  0  0  0  0  0
   28.4885  -18.5697   -6.4523 C   0  0  0  0  0  0  0  0  0  0  0  0
   27.8293  -20.1716   -5.9214 S   0  0  0  0  0  0  0  0  0  0  0  0
   26.4357  -20.6912   -6.9363 C   0  0  0  0  0  0  0  0  0  0  0  0
   26.8483  -20.8192   -8.3531 C   0  0  0  0  0  0  0  0  0  0  0  0
   25.7407  -21.0920   -9.2990 C   0  0  2  0  0  0  0  0  0  0  0  0
   26.3792  -21.0705  -10.6514 N   0  0  0  0  0  0  0  0  0  0  0  0
   24.5706  -20.2340   -9.3046 C   0  0  0  0  0  0  0  0  0  0  0  0
   23.4805  -20.7071   -8.8177 O   0  0  0  0  0  0  0  0  0  0  0  0
   24.4754  -18.9475   -9.7671 O   0  0  0  0  0  0  0  0  0  0  0  0
  2  3  1  0
  2  1  1  1
  4  3  1  0
  5  2  1  0
  6  5  2  0
  8  9  1  0
  8  7  1  0
  9 11  1  0
  9 10  1  1
 11 13  1  0
 11 12  1  6
 12  5  1  0
 13 20  1  0
 14 13  2  0
 16 17  1  0
 16 15  1  0
 19 18  1  1
 18 17  1  0
 19 21  1  0
 20 19  1  0
 21 22  2  0
 21 23  1  0
M  END
$$$$
