CIM.pdb
     RDKit          3D

 23 22  0  0  1  0  0  0  0  0999 V2000
   13.9609  -11.6141    2.5451 N   0  0  0  0  0  0  0  0  0  0  0  0
   13.9550  -12.3165    3.8413 C   0  0  1  0  0  0  0  0  0  0  0  0
   12.8142  -13.3158    3.7905 C   0  0  0  0  0  0  0  0  0  0  0  0
   12.8673  -14.5203    5.1154 S   0  0  0  0  0  0  0  0  0  0  0  0
   15.2479  -13.0112    3.9702 C   0  0  0  0  0  0  0  0  0  0  0  0
   15.7604  -13.4936    2.8966 O   0  0  0  0  0  0  0  0  0  0  0  0
   19.5962  -11.0383    6.5088 C   0  0  0  0  0  0  0  0  0  0  0  0
   18.6003  -11.6808    5.5658 C   0  0  0  0  0  0  0  0  0  0  0  0
   18.2585  -13.0594    6.0378 C   0  0  2  0  0  0  0  0  0  0  0  0
   19.5096  -13.9065    6.1581 C   0  0  0  0  0  0  0  0  0  0  0  0
   17.2160  -13.7561    5.2245 C   0  0  2  0  0  0  0  0  0  0  0  0
   15.9318  -13.1614    5.2132 N   0  0  0  0  0  0  0  0  0  0  0  0
   17.0696  -15.1540    5.7889 C   0  0  0  0  0  0  0  0  0  0  0  0
   16.4365  -15.3466    6.8560 O   0  0  0  0  0  0  0  0  0  0  0  0
   17.7877  -22.7677    3.8095 C   0  0  0  0  0  0  0  0  0  0  0  0
   17.9417  -20.9979    3.4535 S   0  0  0  0  0  0  0  0  0  0  0  0
   17.5598  -19.9896    4.8956 C   0  0  0  0  0  0  0  0  0  0  0  0
   17.7153  -18.5517    4.5758 C   0  0  0  0  0  0  0  0  0  0  0  0
   17.4834  -17.6345    5.7163 C   0  0  2  0  0  0  0  0  0  0  0  0
   17.6330  -16.2625    5.1399 N   0  0  0  0  0  0  0  0  0  0  0  0
   18.3012  -17.7479    6.9096 C   0  0  0  0  0  0  0  0  0  0  0  0
   19.4966  -17.2813    6.8611 O   0  0  0  0  0  0  0  0  0  0  0  0
   17.9533  -18.2957    8.1166 O   0  0  0  0  0  0  0  0  0  0  0  0
  2  3  1  0
  2  1  1  6
  4  3  1  0
  5  2  1  0
  6  5  2  0
  8  9  1  0
  8  7  1  0
  9 11  1  0
  9 10  1  6
 11 13  1  0
 11 12  1  1
 12  5  1  0
 13 20  1  0
 14 13  2  0
 16 17  1  0
 16 15  1  0
 19 18  1  6
 18 17  1  0
 19 21  1  0
 20 19  1  0
 21 22  2  0
 21 23  1  0
M  END
$$$$
