CIM.pdb
     RDKit          3D

 23 22  0  0  1  0  0  0  0  0999 V2000
   24.1181  -14.3599  -17.7359 N   0  0  0  0  0  0  0  0  0  0  0  0
   23.9477  -13.4716  -16.5717 C   0  0  1  0  0  0  0  0  0  0  0  0
   25.3410  -13.0954  -16.1027 C   0  0  0  0  0  0  0  0  0  0  0  0
   26.1982  -14.4358  -15.2798 S   0  0  0  0  0  0  0  0  0  0  0  0
   23.2159  -12.2789  -17.0329 C   0  0  0  0  0  0  0  0  0  0  0  0
   23.4059  -11.9116  -18.2482 O   0  0  0  0  0  0  0  0  0  0  0  0
   17.9162   -9.7470  -17.5156 C   0  0  0  0  0  0  0  0  0  0  0  0
   19.3934   -9.4368  -17.3903 C   0  0  0  0  0  0  0  0  0  0  0  0
   20.1248  -10.6228  -16.8436 C   0  0  2  0  0  0  0  0  0  0  0  0
   19.5416  -11.0386  -15.5078 C   0  0  0  0  0  0  0  0  0  0  0  0
   21.6068  -10.4532  -16.7517 C   0  0  2  0  0  0  0  0  0  0  0  0
   22.3265  -11.5387  -16.1982 N   0  0  0  0  0  0  0  0  0  0  0  0
   21.8644   -9.2402  -15.8820 C   0  0  0  0  0  0  0  0  0  0  0  0
   21.9345   -9.3554  -14.6336 O   0  0  0  0  0  0  0  0  0  0  0  0
   25.8675   -4.4241  -17.7005 C   0  0  0  0  0  0  0  0  0  0  0  0
   24.4448   -3.5776  -16.9644 S   0  0  0  0  0  0  0  0  0  0  0  0
   23.5767   -4.6281  -15.7874 C   0  0  0  0  0  0  0  0  0  0  0  0
   23.1411   -5.8843  -16.4402 C   0  0  0  0  0  0  0  0  0  0  0  0
   22.3516   -6.7913  -15.5742 C   0  0  2  0  0  0  0  0  0  0  0  0
   22.0304   -7.9655  -16.4432 N   0  0  0  0  0  0  0  0  0  0  0  0
   21.1357   -6.3096  -14.9459 C   0  0  0  0  0  0  0  0  0  0  0  0
   21.2003   -5.9542  -13.7136 O   0  0  0  0  0  0  0  0  0  0  0  0
   19.8953   -6.1735  -15.5124 O   0  0  0  0  0  0  0  0  0  0  0  0
  2  3  1  0
  2  1  1  6
  4  3  1  0
  5  2  1  0
  6  5  2  0
  8  9  1  0
  8  7  1  0
  9 11  1  0
  9 10  1  1
 11 13  1  0
 11 12  1  1
 12  5  1  0
 13 20  1  0
 14 13  2  0
 16 17  1  0
 16 15  1  0
 19 18  1  6
 18 17  1  0
 19 21  1  0
 20 19  1  0
 21 22  2  0
 21 23  1  0
M  END
$$$$
