CIM.pdb
     RDKit          3D

 23 22  0  0  1  0  0  0  0  0999 V2000
   21.5175  -21.5163  -12.2555 N   0  0  0  0  0  0  0  0  0  0  0  0
   22.3784  -20.3442  -12.0141 C   0  0  1  0  0  0  0  0  0  0  0  0
   21.5898  -19.3993  -11.1264 C   0  0  0  0  0  0  0  0  0  0  0  0
   20.4169  -18.3909  -12.0299 S   0  0  0  0  0  0  0  0  0  0  0  0
   23.5863  -20.8223  -11.3188 C   0  0  0  0  0  0  0  0  0  0  0  0
   23.4176  -21.6843  -10.3825 O   0  0  0  0  0  0  0  0  0  0  0  0
   28.6804  -21.6432  -13.6005 C   0  0  0  0  0  0  0  0  0  0  0  0
   27.3112  -21.7004  -12.9555 C   0  0  0  0  0  0  0  0  0  0  0  0
   27.3101  -20.9209  -11.6778 C   0  0  2  0  0  0  0  0  0  0  0  0
   28.4384  -21.3776  -10.7745 C   0  0  0  0  0  0  0  0  0  0  0  0
   26.0058  -20.9220  -10.9481 C   0  0  2  0  0  0  0  0  0  0  0  0
   24.9013  -20.3734  -11.6423 N   0  0  0  0  0  0  0  0  0  0  0  0
   26.2011  -20.1124   -9.6829 C   0  0  0  0  0  0  0  0  0  0  0  0
   26.0398  -18.8672   -9.6928 O   0  0  0  0  0  0  0  0  0  0  0  0
   25.9335  -21.5829   -2.5958 C   0  0  0  0  0  0  0  0  0  0  0  0
   27.4510  -21.5324   -3.5843 S   0  0  0  0  0  0  0  0  0  0  0  0
   27.3775  -20.2625   -4.8587 C   0  0  0  0  0  0  0  0  0  0  0  0
   27.0316  -20.8639   -6.1673 C   0  0  0  0  0  0  0  0  0  0  0  0
   26.9459  -19.8998   -7.2893 C   0  0  2  0  0  0  0  0  0  0  0  0
   26.5647  -20.7270   -8.4757 N   0  0  0  0  0  0  0  0  0  0  0  0
   28.0950  -19.0791   -7.6231 C   0  0  0  0  0  0  0  0  0  0  0  0
   28.9334  -19.5441   -8.4774 O   0  0  0  0  0  0  0  0  0  0  0  0
   28.4075  -17.8358   -7.1386 O   0  0  0  0  0  0  0  0  0  0  0  0
  2  3  1  0
  2  1  1  1
  4  3  1  0
  5  2  1  0
  6  5  2  0
  8  9  1  0
  8  7  1  0
  9 11  1  0
  9 10  1  1
 11 13  1  0
 11 12  1  6
 12  5  1  0
 13 20  1  0
 14 13  2  0
 16 17  1  0
 16 15  1  0
 19 18  1  1
 18 17  1  0
 19 21  1  0
 20 19  1  0
 21 22  2  0
 21 23  1  0
M  END
$$$$
