CIM.pdb
     RDKit          3D

 23 22  0  0  1  0  0  0  0  0999 V2000
   16.1177  -12.7071  -13.3930 N   0  0  0  0  0  0  0  0  0  0  0  0
   15.9648  -11.2815  -13.7360 C   0  0  1  0  0  0  0  0  0  0  0  0
   14.4765  -10.9858  -13.7176 C   0  0  0  0  0  0  0  0  0  0  0  0
   13.5669  -11.8458  -14.9989 S   0  0  0  0  0  0  0  0  0  0  0  0
   16.6613  -10.5028  -12.6970 C   0  0  0  0  0  0  0  0  0  0  0  0
   16.5682  -10.9274  -11.4891 O   0  0  0  0  0  0  0  0  0  0  0  0
   21.5723   -7.9077  -13.2791 C   0  0  0  0  0  0  0  0  0  0  0  0
   20.3723   -8.7597  -12.9213 C   0  0  0  0  0  0  0  0  0  0  0  0
   19.3191   -7.9193  -12.2694 C   0  0  2  0  0  0  0  0  0  0  0  0
   19.8847   -7.1991  -11.0617 C   0  0  0  0  0  0  0  0  0  0  0  0
   18.0657   -8.6532  -11.9172 C   0  0  2  0  0  0  0  0  0  0  0  0
   17.4161   -9.3255  -12.9796 N   0  0  0  0  0  0  0  0  0  0  0  0
   17.0947   -7.6350  -11.3562 C   0  0  0  0  0  0  0  0  0  0  0  0
   16.4697   -6.8617  -12.1229 O   0  0  0  0  0  0  0  0  0  0  0  0
   11.2919   -6.5861   -6.4964 C   0  0  0  0  0  0  0  0  0  0  0  0
   12.5847   -7.5435   -7.3299 S   0  0  0  0  0  0  0  0  0  0  0  0
   13.8340   -6.4785   -8.0698 C   0  0  0  0  0  0  0  0  0  0  0  0
   14.8579   -7.2911   -8.7664 C   0  0  0  0  0  0  0  0  0  0  0  0
   15.9194   -6.5062   -9.4395 C   0  0  2  0  0  0  0  0  0  0  0  0
   16.8694   -7.5294   -9.9758 N   0  0  0  0  0  0  0  0  0  0  0  0
   16.6592   -5.5063   -8.6923 C   0  0  0  0  0  0  0  0  0  0  0  0
   16.0808   -4.3830   -8.4626 O   0  0  0  0  0  0  0  0  0  0  0  0
   17.9258   -5.6088   -8.1793 O   0  0  0  0  0  0  0  0  0  0  0  0
  2  3  1  0
  2  1  1  1
  4  3  1  0
  5  2  1  0
  6  5  2  0
  8  9  1  0
  8  7  1  0
  9 11  1  0
  9 10  1  1
 11 13  1  0
 11 12  1  6
 12  5  1  0
 13 20  1  0
 14 13  2  0
 16 17  1  0
 16 15  1  0
 19 18  1  1
 18 17  1  0
 19 21  1  0
 20 19  1  0
 21 22  2  0
 21 23  1  0
M  END
$$$$
