CIM.pdb
     RDKit          3D

 23 22  0  0  1  0  0  0  0  0999 V2000
   23.0509  -22.0713  -13.9362 N   0  0  0  0  0  0  0  0  0  0  0  0
   23.1505  -21.0489  -12.8788 C   0  0  1  0  0  0  0  0  0  0  0  0
   21.8170  -21.0390  -12.1547 C   0  0  0  0  0  0  0  0  0  0  0  0
   21.4803  -19.4956  -11.3101 S   0  0  0  0  0  0  0  0  0  0  0  0
   24.2323  -21.4630  -11.9682 C   0  0  0  0  0  0  0  0  0  0  0  0
   24.1619  -22.6482  -11.4799 O   0  0  0  0  0  0  0  0  0  0  0  0
   30.1447  -21.5554  -11.0769 C   0  0  0  0  0  0  0  0  0  0  0  0
   28.7695  -21.7334  -10.4677 C   0  0  0  0  0  0  0  0  0  0  0  0
   27.7320  -21.1041  -11.3439 C   0  0  2  0  0  0  0  0  0  0  0  0
   28.1444  -19.6982  -11.7320 C   0  0  0  0  0  0  0  0  0  0  0  0
   26.3476  -21.1202  -10.7810 C   0  0  2  0  0  0  0  0  0  0  0  0
   25.3261  -20.6156  -11.6206 N   0  0  0  0  0  0  0  0  0  0  0  0
   26.3670  -20.2763   -9.5234 C   0  0  0  0  0  0  0  0  0  0  0  0
   25.9297  -19.0994   -9.5397 O   0  0  0  0  0  0  0  0  0  0  0  0
   29.6438  -22.1497   -4.0762 C   0  0  0  0  0  0  0  0  0  0  0  0
   28.1342  -21.3483   -3.4750 S   0  0  0  0  0  0  0  0  0  0  0  0
   27.4705  -20.1839   -4.6774 C   0  0  0  0  0  0  0  0  0  0  0  0
   27.3596  -20.8237   -6.0086 C   0  0  0  0  0  0  0  0  0  0  0  0
   26.9383  -19.9144   -7.1002 C   0  0  2  0  0  0  0  0  0  0  0  0
   26.8700  -20.7829   -8.3160 N   0  0  0  0  0  0  0  0  0  0  0  0
   27.7250  -18.7316   -7.3962 C   0  0  0  0  0  0  0  0  0  0  0  0
   28.6176  -18.8223   -8.3149 O   0  0  0  0  0  0  0  0  0  0  0  0
   27.6327  -17.4948   -6.8133 O   0  0  0  0  0  0  0  0  0  0  0  0
  2  3  1  0
  2  1  1  6
  4  3  1  0
  5  2  1  0
  6  5  2  0
  8  9  1  0
  8  7  1  0
  9 11  1  0
  9 10  1  1
 11 13  1  0
 11 12  1  6
 12  5  1  0
 13 20  1  0
 14 13  2  0
 16 17  1  0
 16 15  1  0
 19 18  1  1
 18 17  1  0
 19 21  1  0
 20 19  1  0
 21 22  2  0
 21 23  1  0
M  END
$$$$
