CIM.pdb
     RDKit          3D

 23 22  0  0  1  0  0  0  0  0999 V2000
   17.0084   -9.1967  -10.5778 N   0  0  0  0  0  0  0  0  0  0  0  0
   15.7165   -8.5199  -10.3627 C   0  0  1  0  0  0  0  0  0  0  0  0
   14.9553   -9.3472   -9.3434 C   0  0  0  0  0  0  0  0  0  0  0  0
   14.1854  -10.8043  -10.0454 S   0  0  0  0  0  0  0  0  0  0  0  0
   16.0074   -7.1779   -9.8285 C   0  0  0  0  0  0  0  0  0  0  0  0
   17.1191   -7.0268   -9.2046 O   0  0  0  0  0  0  0  0  0  0  0  0
   16.9326   -1.9052  -11.9112 C   0  0  0  0  0  0  0  0  0  0  0  0
   16.3726   -2.5564  -10.6637 C   0  0  0  0  0  0  0  0  0  0  0  0
   16.1053   -4.0075  -10.9151 C   0  0  2  0  0  0  0  0  0  0  0  0
   15.1774   -4.1803  -12.1010 C   0  0  0  0  0  0  0  0  0  0  0  0
   15.6035   -4.7638   -9.7276 C   0  0  2  0  0  0  0  0  0  0  0  0
   15.1206   -6.0703   -9.9777 N   0  0  0  0  0  0  0  0  0  0  0  0
   14.4657   -3.9594   -9.1340 C   0  0  0  0  0  0  0  0  0  0  0  0
   13.3826   -3.8335   -9.7566 O   0  0  0  0  0  0  0  0  0  0  0  0
   13.8223   -2.0669   -2.5499 C   0  0  0  0  0  0  0  0  0  0  0  0
   12.3940   -2.8001   -3.3894 S   0  0  0  0  0  0  0  0  0  0  0  0
   12.3037   -2.3000   -5.1168 C   0  0  0  0  0  0  0  0  0  0  0  0
   13.3375   -3.0020   -5.9120 C   0  0  0  0  0  0  0  0  0  0  0  0
   13.4576   -2.5427   -7.3157 C   0  0  2  0  0  0  0  0  0  0  0  0
   14.5902   -3.3384   -7.8825 N   0  0  0  0  0  0  0  0  0  0  0  0
   13.6690   -1.1351   -7.5974 C   0  0  0  0  0  0  0  0  0  0  0  0
   14.8805   -0.7199   -7.6913 O   0  0  0  0  0  0  0  0  0  0  0  0
   12.7194   -0.1657   -7.7888 O   0  0  0  0  0  0  0  0  0  0  0  0
  2  3  1  0
  2  1  1  1
  4  3  1  0
  5  2  1  0
  6  5  2  0
  8  9  1  0
  8  7  1  0
  9 11  1  0
  9 10  1  6
 11 13  1  0
 11 12  1  6
 12  5  1  0
 13 20  1  0
 14 13  2  0
 16 17  1  0
 16 15  1  0
 19 18  1  1
 18 17  1  0
 19 21  1  0
 20 19  1  0
 21 22  2  0
 21 23  1  0
M  END
$$$$
