CIM.pdb
     RDKit          3D

 23 22  0  0  1  0  0  0  0  0999 V2000
   28.2005  -19.6125  -15.8601 N   0  0  0  0  0  0  0  0  0  0  0  0
   27.8565  -20.7619  -15.0034 C   0  0  1  0  0  0  0  0  0  0  0  0
   29.1666  -21.3334  -14.4938 C   0  0  0  0  0  0  0  0  0  0  0  0
   29.8247  -22.6350  -15.5338 S   0  0  0  0  0  0  0  0  0  0  0  0
   27.0446  -20.2492  -13.8859 C   0  0  0  0  0  0  0  0  0  0  0  0
   27.1489  -18.9987  -13.6148 O   0  0  0  0  0  0  0  0  0  0  0  0
   21.9130  -20.0720  -13.9737 C   0  0  0  0  0  0  0  0  0  0  0  0
   23.4019  -19.8932  -13.7617 C   0  0  0  0  0  0  0  0  0  0  0  0
   23.8289  -20.5761  -12.5001 C   0  0  2  0  0  0  0  0  0  0  0  0
   22.9887  -20.1059  -11.3296 C   0  0  0  0  0  0  0  0  0  0  0  0
   25.2871  -20.4627  -12.1927 C   0  0  2  0  0  0  0  0  0  0  0  0
   26.1694  -21.0721  -13.1163 N   0  0  0  0  0  0  0  0  0  0  0  0
   25.5113  -21.1152  -10.8443 C   0  0  0  0  0  0  0  0  0  0  0  0
   25.3866  -22.3573  -10.7097 O   0  0  0  0  0  0  0  0  0  0  0  0
   29.2387  -18.4076   -6.6066 C   0  0  0  0  0  0  0  0  0  0  0  0
   28.2713  -19.3653   -5.4111 S   0  0  0  0  0  0  0  0  0  0  0  0
   27.1710  -20.5355   -6.2249 C   0  0  0  0  0  0  0  0  0  0  0  0
   26.9374  -20.1322   -7.6309 C   0  0  0  0  0  0  0  0  0  0  0  0
   26.0046  -21.0068   -8.3797 C   0  0  2  0  0  0  0  0  0  0  0  0
   25.8616  -20.3554   -9.7185 N   0  0  0  0  0  0  0  0  0  0  0  0
   24.6884  -21.2877   -7.8373 C   0  0  0  0  0  0  0  0  0  0  0  0
   23.6853  -20.6769   -8.3567 O   0  0  0  0  0  0  0  0  0  0  0  0
   24.3657  -22.1484   -6.8208 O   0  0  0  0  0  0  0  0  0  0  0  0
  2  3  1  0
  2  1  1  6
  4  3  1  0
  5  2  1  0
  6  5  2  0
  8  9  1  0
  8  7  1  0
  9 11  1  0
  9 10  1  1
 11 13  1  0
 11 12  1  6
 12  5  1  0
 13 20  1  0
 14 13  2  0
 16 17  1  0
 16 15  1  0
 19 18  1  1
 18 17  1  0
 19 21  1  0
 20 19  1  0
 21 22  2  0
 21 23  1  0
M  END
$$$$
