GWV.pdb
     RDKit          3D

 26 27  0  0  1  0  0  0  0  0999 V2000
   31.2536  -21.3946  -10.4996 N   0  0  0  0  0  0  0  0  0  0  0  0
   30.1780  -20.4828  -10.7412 C   0  0  0  0  0  0  0  0  0  0  0  0
   28.8607  -21.0692  -10.3793 C   0  0  0  0  0  0  0  0  0  0  0  0
   28.7114  -22.3087  -10.3279 O   0  0  0  0  0  0  0  0  0  0  0  0
   27.7732  -20.2163  -10.0926 N   0  0  0  0  0  0  0  0  0  0  0  0
   26.4393  -20.6922   -9.7952 C   0  0  1  0  0  0  0  0  0  0  0  0
   25.8801  -20.0599   -8.5445 C   0  0  0  0  0  0  0  0  0  0  0  0
   26.9186  -19.6703   -7.5861 C   0  0  0  0  0  0  0  0  0  0  0  0
   27.7109  -18.5502   -7.6822 C   0  0  0  0  0  0  0  0  0  0  0  0
   28.5460  -18.5235   -6.6239 N   0  0  0  0  0  0  0  0  0  0  0  0
   28.3287  -19.6020   -5.8224 C   0  0  0  0  0  0  0  0  0  0  0  0
   28.8853  -20.0495   -4.6488 C   0  0  0  0  0  0  0  0  0  0  0  0
   28.4430  -21.2130   -4.0534 C   0  0  0  0  0  0  0  0  0  0  0  0
   27.4282  -21.9269   -4.6545 C   0  0  0  0  0  0  0  0  0  0  0  0
   26.8835  -21.4684   -5.8238 C   0  0  0  0  0  0  0  0  0  0  0  0
   27.3143  -20.3068   -6.4322 C   0  0  0  0  0  0  0  0  0  0  0  0
   25.4914  -20.4088  -10.9041 C   0  0  0  0  0  0  0  0  0  0  0  0
   25.5978  -19.3068  -11.4916 O   0  0  0  0  0  0  0  0  0  0  0  0
   25.0948  -22.3228  -14.0106 C   0  0  0  0  0  0  0  0  0  0  0  0
   23.7086  -22.1990  -13.4492 C   0  0  1  0  0  0  0  0  0  0  0  0
   23.3040  -23.5432  -12.8865 C   0  0  0  0  0  0  0  0  0  0  0  0
   23.5893  -21.1059  -12.3963 C   0  0  2  0  0  0  0  0  0  0  0  0
   24.4964  -21.3474  -11.2918 N   0  0  0  0  0  0  0  0  0  0  0  0
   22.2020  -20.9028  -11.9499 C   0  0  0  0  0  0  0  0  0  0  0  0
   21.8058  -21.1065  -10.7765 O   0  0  0  0  0  0  0  0  0  0  0  0
   21.2707  -20.4590  -12.8779 O   0  0  0  0  0  0  0  0  0  0  0  0
  1  2  1  0
  3  2  1  0
  3  4  2  0
  5  3  1  0
  6  5  1  0
  6  7  1  1
  7  8  1  0
  8  9  2  0
  8 16  1  0
  9 10  1  0
 10 11  1  0
 11 12  2  0
 12 13  1  0
 14 13  2  0
 15 14  1  0
 16 15  2  0
 16 11  1  0
 17  6  1  0
 18 17  2  0
 20 21  1  1
 20 19  1  0
 22 20  1  0
 22 23  1  1
 23 17  1  0
 24 22  1  0
 25 24  2  0
 26 24  1  0
M  END
$$$$
