GWV.pdb
     RDKit          3D

 26 27  0  0  1  0  0  0  0  0999 V2000
   28.1677  -23.3902  -15.8506 N   0  0  0  0  0  0  0  0  0  0  0  0
   27.9920  -22.0960  -15.2665 C   0  0  0  0  0  0  0  0  0  0  0  0
   26.9811  -22.1110  -14.1766 C   0  0  0  0  0  0  0  0  0  0  0  0
   26.2330  -23.0995  -14.0197 O   0  0  0  0  0  0  0  0  0  0  0  0
   26.8686  -20.9988  -13.3150 N   0  0  0  0  0  0  0  0  0  0  0  0
   25.8836  -20.9002  -12.2594 C   0  0  1  0  0  0  0  0  0  0  0  0
   26.2989  -19.9210  -11.1893 C   0  0  0  0  0  0  0  0  0  0  0  0
   27.4248  -20.3988  -10.3813 C   0  0  0  0  0  0  0  0  0  0  0  0
   28.5102  -21.0945  -10.8607 C   0  0  0  0  0  0  0  0  0  0  0  0
   29.3363  -21.3638   -9.8298 N   0  0  0  0  0  0  0  0  0  0  0  0
   28.8264  -20.8629   -8.6714 C   0  0  0  0  0  0  0  0  0  0  0  0
   29.2494  -20.8550   -7.3644 C   0  0  0  0  0  0  0  0  0  0  0  0
   28.4959  -20.2499   -6.3795 C   0  0  0  0  0  0  0  0  0  0  0  0
   27.3042  -19.6486   -6.7250 C   0  0  0  0  0  0  0  0  0  0  0  0
   26.8959  -19.6647   -8.0316 C   0  0  0  0  0  0  0  0  0  0  0  0
   27.6377  -20.2655   -9.0286 C   0  0  0  0  0  0  0  0  0  0  0  0
   24.5603  -20.4650  -12.7773 C   0  0  0  0  0  0  0  0  0  0  0  0
   24.4979  -19.3507  -13.3477 O   0  0  0  0  0  0  0  0  0  0  0  0
   22.5943  -22.0677  -15.3382 C   0  0  0  0  0  0  0  0  0  0  0  0
   21.6240  -21.8819  -14.2086 C   0  0  1  0  0  0  0  0  0  0  0  0
   21.3572  -23.2343  -13.5862 C   0  0  0  0  0  0  0  0  0  0  0  0
   22.1101  -20.8852  -13.1655 C   0  0  2  0  0  0  0  0  0  0  0  0
   23.4014  -21.2762  -12.6355 N   0  0  0  0  0  0  0  0  0  0  0  0
   21.1165  -20.6483  -12.1065 C   0  0  0  0  0  0  0  0  0  0  0  0
   21.2789  -20.9768  -10.9061 O   0  0  0  0  0  0  0  0  0  0  0  0
   19.9257  -20.0240  -12.4495 O   0  0  0  0  0  0  0  0  0  0  0  0
  1  2  1  0
  3  2  1  0
  3  4  2  0
  5  3  1  0
  6  5  1  0
  6  7  1  1
  7  8  1  0
  8  9  2  0
  8 16  1  0
  9 10  1  0
 10 11  1  0
 11 12  2  0
 12 13  1  0
 14 13  2  0
 15 14  1  0
 16 15  2  0
 16 11  1  0
 17  6  1  0
 18 17  2  0
 20 21  1  1
 20 19  1  0
 22 20  1  0
 22 23  1  1
 23 17  1  0
 24 22  1  0
 25 24  2  0
 26 24  1  0
M  END
$$$$
