GWV.pdb
     RDKit          3D

 26 27  0  0  1  0  0  0  0  0999 V2000
   22.1098  -21.0863   -8.1135 N   0  0  0  0  0  0  0  0  0  0  0  0
   22.9495  -21.7947   -9.0300 C   0  0  0  0  0  0  0  0  0  0  0  0
   24.0463  -20.9389   -9.5538 C   0  0  0  0  0  0  0  0  0  0  0  0
   23.7876  -19.9177  -10.2259 O   0  0  0  0  0  0  0  0  0  0  0  0
   25.3885  -21.2857   -9.2881 N   0  0  0  0  0  0  0  0  0  0  0  0
   26.5229  -20.5807   -9.8452 C   0  0  1  0  0  0  0  0  0  0  0  0
   27.7546  -20.7247   -8.9857 C   0  0  0  0  0  0  0  0  0  0  0  0
   27.6471  -20.0155   -7.7073 C   0  0  0  0  0  0  0  0  0  0  0  0
   26.8083  -18.9555   -7.4529 C   0  0  0  0  0  0  0  0  0  0  0  0
   26.9854  -18.5658   -6.1744 N   0  0  0  0  0  0  0  0  0  0  0  0
   27.9246  -19.3427   -5.5686 C   0  0  0  0  0  0  0  0  0  0  0  0
   28.4704  -19.3765   -4.3083 C   0  0  0  0  0  0  0  0  0  0  0  0
   29.4335  -20.3077   -3.9781 C   0  0  0  0  0  0  0  0  0  0  0  0
   29.8450  -21.2110   -4.9350 C   0  0  0  0  0  0  0  0  0  0  0  0
   29.2920  -21.1649   -6.1865 C   0  0  0  0  0  0  0  0  0  0  0  0
   28.3278  -20.2400   -6.5329 C   0  0  0  0  0  0  0  0  0  0  0  0
   26.8648  -21.0716  -11.2057 C   0  0  0  0  0  0  0  0  0  0  0  0
   27.3819  -22.2095  -11.2995 O   0  0  0  0  0  0  0  0  0  0  0  0
   24.9555  -22.4028  -13.6241 C   0  0  0  0  0  0  0  0  0  0  0  0
   25.5976  -21.2663  -14.3644 C   0  0  1  0  0  0  0  0  0  0  0  0
   24.5857  -20.1491  -14.4867 C   0  0  0  0  0  0  0  0  0  0  0  0
   26.8786  -20.7754  -13.7042 C   0  0  2  0  0  0  0  0  0  0  0  0
   26.6182  -20.2863  -12.3648 N   0  0  0  0  0  0  0  0  0  0  0  0
   27.5979  -19.7935  -14.5310 C   0  0  0  0  0  0  0  0  0  0  0  0
   28.1747  -20.0736  -15.6100 O   0  0  0  0  0  0  0  0  0  0  0  0
   27.6447  -18.4765  -14.0967 O   0  0  0  0  0  0  0  0  0  0  0  0
  1  2  1  0
  3  2  1  0
  3  4  2  0
  5  3  1  0
  6  5  1  0
  6  7  1  1
  7  8  1  0
  8  9  2  0
  8 16  1  0
  9 10  1  0
 10 11  1  0
 11 12  2  0
 12 13  1  0
 14 13  2  0
 15 14  1  0
 16 15  2  0
 16 11  1  0
 17  6  1  0
 18 17  2  0
 20 21  1  1
 20 19  1  0
 22 20  1  0
 22 23  1  1
 23 17  1  0
 24 22  1  0
 25 24  2  0
 26 24  1  0
M  END
$$$$
