GWV.pdb
     RDKit          3D

 26 27  0  0  1  0  0  0  0  0999 V2000
   31.4476  -21.6868  -10.1971 N   0  0  0  0  0  0  0  0  0  0  0  0
   30.4491  -20.6630  -10.2376 C   0  0  0  0  0  0  0  0  0  0  0  0
   29.0921  -21.1989   -9.9527 C   0  0  0  0  0  0  0  0  0  0  0  0
   28.9141  -22.4266   -9.8029 O   0  0  0  0  0  0  0  0  0  0  0  0
   27.9993  -20.3113   -9.8516 N   0  0  0  0  0  0  0  0  0  0  0  0
   26.6404  -20.7400   -9.5991 C   0  0  1  0  0  0  0  0  0  0  0  0
   26.0575  -20.0774   -8.3753 C   0  0  0  0  0  0  0  0  0  0  0  0
   27.0807  -19.5625   -7.4605 C   0  0  0  0  0  0  0  0  0  0  0  0
   27.7619  -18.3775   -7.6137 C   0  0  0  0  0  0  0  0  0  0  0  0
   28.6193  -18.2394   -6.5823 N   0  0  0  0  0  0  0  0  0  0  0  0
   28.5258  -19.3069   -5.7430 C   0  0  0  0  0  0  0  0  0  0  0  0
   29.1536  -19.6627   -4.5740 C   0  0  0  0  0  0  0  0  0  0  0  0
   28.8385  -20.8423   -3.9312 C   0  0  0  0  0  0  0  0  0  0  0  0
   27.8789  -21.6662   -4.4800 C   0  0  0  0  0  0  0  0  0  0  0  0
   27.2620  -21.2982   -5.6455 C   0  0  0  0  0  0  0  0  0  0  0  0
   27.5656  -20.1219   -6.3008 C   0  0  0  0  0  0  0  0  0  0  0  0
   25.7433  -20.4363  -10.7444 C   0  0  0  0  0  0  0  0  0  0  0  0
   25.7848  -19.2789  -11.2236 O   0  0  0  0  0  0  0  0  0  0  0  0
   25.5198  -22.2551  -14.0505 C   0  0  0  0  0  0  0  0  0  0  0  0
   24.1297  -22.1874  -13.4894 C   0  0  1  0  0  0  0  0  0  0  0  0
   23.7579  -23.5615  -12.9783 C   0  0  0  0  0  0  0  0  0  0  0  0
   23.9803  -21.1377  -12.3969 C   0  0  2  0  0  0  0  0  0  0  0  0
   24.8662  -21.4165  -11.2840 N   0  0  0  0  0  0  0  0  0  0  0  0
   22.5826  -20.9617  -11.9720 C   0  0  0  0  0  0  0  0  0  0  0  0
   22.1607  -21.2285  -10.8204 O   0  0  0  0  0  0  0  0  0  0  0  0
   21.6710  -20.4712  -12.8961 O   0  0  0  0  0  0  0  0  0  0  0  0
  1  2  1  0
  3  2  1  0
  3  4  2  0
  5  3  1  0
  6  5  1  0
  6  7  1  1
  7  8  1  0
  8  9  2  0
  8 16  1  0
  9 10  1  0
 10 11  1  0
 11 12  2  0
 12 13  1  0
 14 13  2  0
 15 14  1  0
 16 15  2  0
 16 11  1  0
 17  6  1  0
 18 17  2  0
 20 21  1  1
 20 19  1  0
 22 20  1  0
 22 23  1  1
 23 17  1  0
 24 22  1  0
 25 24  2  0
 26 24  1  0
M  END
$$$$
