GWV.pdb
     RDKit          3D

 26 27  0  0  1  0  0  0  0  0999 V2000
   28.9726  -22.6530  -15.1973 N   0  0  0  0  0  0  0  0  0  0  0  0
   28.5439  -21.4113  -14.6304 C   0  0  0  0  0  0  0  0  0  0  0  0
   27.6969  -21.6138  -13.4256 C   0  0  0  0  0  0  0  0  0  0  0  0
   26.6626  -22.3122  -13.4881 O   0  0  0  0  0  0  0  0  0  0  0  0
   28.0669  -21.0110  -12.2042 N   0  0  0  0  0  0  0  0  0  0  0  0
   27.2383  -21.0317  -11.0178 C   0  0  1  0  0  0  0  0  0  0  0  0
   27.9268  -20.3925   -9.8371 C   0  0  0  0  0  0  0  0  0  0  0  0
   27.1057  -20.3990   -8.6228 C   0  0  0  0  0  0  0  0  0  0  0  0
   25.7965  -20.8143   -8.5492 C   0  0  0  0  0  0  0  0  0  0  0  0
   25.3739  -20.6764   -7.2763 N   0  0  0  0  0  0  0  0  0  0  0  0
   26.3726  -20.1778   -6.4974 C   0  0  0  0  0  0  0  0  0  0  0  0
   26.4769  -19.8540   -5.1664 C   0  0  0  0  0  0  0  0  0  0  0  0
   27.6543  -19.3539   -4.6491 C   0  0  0  0  0  0  0  0  0  0  0  0
   28.7333  -19.1815   -5.4899 C   0  0  0  0  0  0  0  0  0  0  0  0
   28.6140  -19.5086   -6.8140 C   0  0  0  0  0  0  0  0  0  0  0  0
   27.4437  -20.0099   -7.3472 C   0  0  0  0  0  0  0  0  0  0  0  0
   25.9527  -20.3166  -11.2291 C   0  0  0  0  0  0  0  0  0  0  0  0
   25.9838  -19.0640  -11.2638 O   0  0  0  0  0  0  0  0  0  0  0  0
   21.7989  -20.0500  -13.5933 C   0  0  0  0  0  0  0  0  0  0  0  0
   23.1109  -20.6584  -13.1925 C   0  0  1  0  0  0  0  0  0  0  0  0
   24.1728  -20.1678  -14.1511 C   0  0  0  0  0  0  0  0  0  0  0  0
   23.4915  -20.3533  -11.7504 C   0  0  2  0  0  0  0  0  0  0  0  0
   24.7268  -21.0190  -11.3872 N   0  0  0  0  0  0  0  0  0  0  0  0
   22.3998  -20.6409  -10.8067 C   0  0  0  0  0  0  0  0  0  0  0  0
   22.1894  -21.7701  -10.3006 O   0  0  0  0  0  0  0  0  0  0  0  0
   21.5481  -19.6050  -10.4506 O   0  0  0  0  0  0  0  0  0  0  0  0
  1  2  1  0
  3  2  1  0
  3  4  2  0
  5  3  1  0
  6  5  1  0
  6  7  1  1
  7  8  1  0
  8  9  2  0
  8 16  1  0
  9 10  1  0
 10 11  1  0
 11 12  2  0
 12 13  1  0
 14 13  2  0
 15 14  1  0
 16 15  2  0
 16 11  1  0
 17  6  1  0
 18 17  2  0
 20 21  1  6
 20 19  1  0
 22 20  1  0
 22 23  1  1
 23 17  1  0
 24 22  1  0
 25 24  2  0
 26 24  1  0
M  END
$$$$
