GWV.pdb
     RDKit          3D

 26 27  0  0  1  0  0  0  0  0999 V2000
   29.1746  -20.0615  -14.1035 N   0  0  0  0  0  0  0  0  0  0  0  0
   28.4860  -19.4000  -13.0380 C   0  0  0  0  0  0  0  0  0  0  0  0
   27.5935  -20.3268  -12.2936 C   0  0  0  0  0  0  0  0  0  0  0  0
   27.2607  -21.4233  -12.7920 O   0  0  0  0  0  0  0  0  0  0  0  0
   27.1204  -19.9620  -11.0148 N   0  0  0  0  0  0  0  0  0  0  0  0
   26.1005  -20.6976  -10.2986 C   0  0  1  0  0  0  0  0  0  0  0  0
   26.1447  -20.4253   -8.8152 C   0  0  0  0  0  0  0  0  0  0  0  0
   27.4726  -20.6402   -8.2327 C   0  0  0  0  0  0  0  0  0  0  0  0
   28.5180  -21.2862   -8.8505 C   0  0  0  0  0  0  0  0  0  0  0  0
   29.5742  -21.2914   -8.0124 N   0  0  0  0  0  0  0  0  0  0  0  0
   29.2571  -20.6627   -6.8476 C   0  0  0  0  0  0  0  0  0  0  0  0
   29.9432  -20.3933   -5.6882 C   0  0  0  0  0  0  0  0  0  0  0  0
   29.3390  -19.7171   -4.6483 C   0  0  0  0  0  0  0  0  0  0  0  0
   28.0286  -19.3116   -4.7871 C   0  0  0  0  0  0  0  0  0  0  0  0
   27.3579  -19.5873   -5.9484 C   0  0  0  0  0  0  0  0  0  0  0  0
   27.9476  -20.2626   -6.9978 C   0  0  0  0  0  0  0  0  0  0  0  0
   24.7351  -20.3576  -10.7771 C   0  0  0  0  0  0  0  0  0  0  0  0
   24.3512  -19.1720  -10.6428 O   0  0  0  0  0  0  0  0  0  0  0  0
   22.8264  -23.1678  -13.4557 C   0  0  0  0  0  0  0  0  0  0  0  0
   22.8478  -21.6709  -13.5593 C   0  0  1  0  0  0  0  0  0  0  0  0
   21.7137  -21.2426  -14.4636 C   0  0  0  0  0  0  0  0  0  0  0  0
   22.7596  -20.9802  -12.2055 C   0  0  2  0  0  0  0  0  0  0  0  0
   23.8876  -21.3348  -11.3670 N   0  0  0  0  0  0  0  0  0  0  0  0
   21.4688  -21.2115  -11.5380 C   0  0  0  0  0  0  0  0  0  0  0  0
   21.3306  -21.9002  -10.4979 O   0  0  0  0  0  0  0  0  0  0  0  0
   20.3320  -20.6358  -12.0871 O   0  0  0  0  0  0  0  0  0  0  0  0
  1  2  1  0
  3  2  1  0
  3  4  2  0
  5  3  1  0
  6  5  1  0
  6  7  1  1
  7  8  1  0
  8  9  2  0
  8 16  1  0
  9 10  1  0
 10 11  1  0
 11 12  2  0
 12 13  1  0
 14 13  2  0
 15 14  1  0
 16 15  2  0
 16 11  1  0
 17  6  1  0
 18 17  2  0
 20 21  1  6
 20 19  1  0
 22 20  1  0
 22 23  1  1
 23 17  1  0
 24 22  1  0
 25 24  2  0
 26 24  1  0
M  END
$$$$
