GWV.pdb
     RDKit          3D

 26 27  0  0  1  0  0  0  0  0999 V2000
   23.6179  -21.0539   -7.8623 N   0  0  0  0  0  0  0  0  0  0  0  0
   24.7172  -21.4106   -8.7055 C   0  0  0  0  0  0  0  0  0  0  0  0
   24.7051  -20.6528   -9.9843 C   0  0  0  0  0  0  0  0  0  0  0  0
   23.7212  -19.9474  -10.2938 O   0  0  0  0  0  0  0  0  0  0  0  0
   25.8149  -20.7333  -10.8527 N   0  0  0  0  0  0  0  0  0  0  0  0
   25.9000  -20.0235  -12.1110 C   0  0  1  0  0  0  0  0  0  0  0  0
   27.3236  -19.9041  -12.5967 C   0  0  0  0  0  0  0  0  0  0  0  0
   27.4666  -18.9876  -13.7318 C   0  0  0  0  0  0  0  0  0  0  0  0
   27.0802  -17.6676  -13.7429 C   0  0  0  0  0  0  0  0  0  0  0  0
   27.3673  -17.1470  -14.9530 N   0  0  0  0  0  0  0  0  0  0  0  0
   27.9373  -18.0908  -15.7511 C   0  0  0  0  0  0  0  0  0  0  0  0
   28.4091  -18.0946  -17.0414 C   0  0  0  0  0  0  0  0  0  0  0  0
   28.9493  -19.2374  -17.5948 C   0  0  0  0  0  0  0  0  0  0  0  0
   29.0106  -20.3842  -16.8321 C   0  0  0  0  0  0  0  0  0  0  0  0
   28.5364  -20.3649  -15.5479 C   0  0  0  0  0  0  0  0  0  0  0  0
   27.9932  -19.2305  -14.9795 C   0  0  0  0  0  0  0  0  0  0  0  0
   25.1161  -20.6966  -13.1793 C   0  0  0  0  0  0  0  0  0  0  0  0
   25.2337  -21.9396  -13.2903 O   0  0  0  0  0  0  0  0  0  0  0  0
   21.9258  -18.5935  -15.3581 C   0  0  0  0  0  0  0  0  0  0  0  0
   21.9831  -20.0354  -14.9465 C   0  0  1  0  0  0  0  0  0  0  0  0
   21.0334  -20.8171  -15.8265 C   0  0  0  0  0  0  0  0  0  0  0  0
   23.3894  -20.6154  -15.0075 C   0  0  2  0  0  0  0  0  0  0  0  0
   24.2612  -19.9658  -14.0488 N   0  0  0  0  0  0  0  0  0  0  0  0
   23.9449  -20.6038  -16.3700 C   0  0  0  0  0  0  0  0  0  0  0  0
   24.9100  -19.8856  -16.7279 O   0  0  0  0  0  0  0  0  0  0  0  0
   23.3714  -21.4354  -17.3212 O   0  0  0  0  0  0  0  0  0  0  0  0
  1  2  1  0
  3  2  1  0
  3  4  2  0
  5  3  1  0
  6  5  1  0
  6  7  1  6
  7  8  1  0
  8  9  2  0
  8 16  1  0
  9 10  1  0
 10 11  1  0
 11 12  2  0
 12 13  1  0
 14 13  2  0
 15 14  1  0
 16 15  2  0
 16 11  1  0
 17  6  1  0
 18 17  2  0
 20 21  1  6
 20 19  1  0
 22 20  1  0
 22 23  1  1
 23 17  1  0
 24 22  1  0
 25 24  2  0
 26 24  1  0
M  END
$$$$
