GWV.pdb
     RDKit          3D

 26 27  0  0  1  0  0  0  0  0999 V2000
   28.9244  -22.4693  -15.1387 N   0  0  0  0  0  0  0  0  0  0  0  0
   28.5295  -21.2707  -14.4646 C   0  0  0  0  0  0  0  0  0  0  0  0
   27.7178  -21.5568  -13.2525 C   0  0  0  0  0  0  0  0  0  0  0  0
   26.7271  -22.3155  -13.3177 O   0  0  0  0  0  0  0  0  0  0  0  0
   28.0718  -20.9650  -12.0209 N   0  0  0  0  0  0  0  0  0  0  0  0
   27.2232  -20.9871  -10.8489 C   0  0  1  0  0  0  0  0  0  0  0  0
   27.9021  -20.3743   -9.6488 C   0  0  0  0  0  0  0  0  0  0  0  0
   27.1053  -20.4818   -8.4230 C   0  0  0  0  0  0  0  0  0  0  0  0
   25.8143  -20.9509   -8.3512 C   0  0  0  0  0  0  0  0  0  0  0  0
   25.4114  -20.9023   -7.0654 N   0  0  0  0  0  0  0  0  0  0  0  0
   26.4055  -20.4107   -6.2762 C   0  0  0  0  0  0  0  0  0  0  0  0
   26.5232  -20.1597   -4.9307 C   0  0  0  0  0  0  0  0  0  0  0  0
   27.6907  -19.6448   -4.4055 C   0  0  0  0  0  0  0  0  0  0  0  0
   28.7460  -19.3832   -5.2533 C   0  0  0  0  0  0  0  0  0  0  0  0
   28.6137  -19.6386   -6.5918 C   0  0  0  0  0  0  0  0  0  0  0  0
   27.4530  -20.1534   -7.1330 C   0  0  0  0  0  0  0  0  0  0  0  0
   25.9532  -20.2484  -11.0722 C   0  0  0  0  0  0  0  0  0  0  0  0
   26.0101  -18.9973  -11.1221 O   0  0  0  0  0  0  0  0  0  0  0  0
   24.4750  -19.7282  -13.8779 C   0  0  0  0  0  0  0  0  0  0  0  0
   23.3040  -20.2855  -13.1227 C   0  0  1  0  0  0  0  0  0  0  0  0
   23.0616  -21.6996  -13.6011 C   0  0  0  0  0  0  0  0  0  0  0  0
   23.4959  -20.2432  -11.6131 C   0  0  2  0  0  0  0  0  0  0  0  0
   24.7134  -20.9273  -11.2249 N   0  0  0  0  0  0  0  0  0  0  0  0
   22.3176  -20.7345  -10.8814 C   0  0  0  0  0  0  0  0  0  0  0  0
   22.3118  -21.7744  -10.1786 O   0  0  0  0  0  0  0  0  0  0  0  0
   21.1385  -20.0083  -10.9698 O   0  0  0  0  0  0  0  0  0  0  0  0
  1  2  1  0
  3  2  1  0
  3  4  2  0
  5  3  1  0
  6  5  1  0
  6  7  1  1
  7  8  1  0
  8  9  2  0
  8 16  1  0
  9 10  1  0
 10 11  1  0
 11 12  2  0
 12 13  1  0
 14 13  2  0
 15 14  1  0
 16 15  2  0
 16 11  1  0
 17  6  1  0
 18 17  2  0
 20 21  1  6
 20 19  1  0
 22 20  1  0
 22 23  1  6
 23 17  1  0
 24 22  1  0
 25 24  2  0
 26 24  1  0
M  END
$$$$
