GWV.pdb
     RDKit          3D

 26 27  0  0  1  0  0  0  0  0999 V2000
   30.2147  -21.6023  -13.0942 N   0  0  0  0  0  0  0  0  0  0  0  0
   29.4374  -20.5357  -12.5419 C   0  0  0  0  0  0  0  0  0  0  0  0
   28.3442  -21.0392  -11.6693 C   0  0  0  0  0  0  0  0  0  0  0  0
   27.9290  -22.2119  -11.7863 O   0  0  0  0  0  0  0  0  0  0  0  0
   27.7737  -20.1832  -10.7028 N   0  0  0  0  0  0  0  0  0  0  0  0
   26.6225  -20.5365   -9.9002 C   0  0  1  0  0  0  0  0  0  0  0  0
   26.6683  -19.8963   -8.5347 C   0  0  0  0  0  0  0  0  0  0  0  0
   27.8258  -20.3207   -7.7416 C   0  0  0  0  0  0  0  0  0  0  0  0
   28.7946  -21.2043   -8.1569 C   0  0  0  0  0  0  0  0  0  0  0  0
   29.6951  -21.3508   -7.1641 N   0  0  0  0  0  0  0  0  0  0  0  0
   29.3489  -20.5840   -6.0942 C   0  0  0  0  0  0  0  0  0  0  0  0
   29.9010  -20.3650   -4.8554 C   0  0  0  0  0  0  0  0  0  0  0  0
   29.3045  -19.5053   -3.9559 C   0  0  0  0  0  0  0  0  0  0  0  0
   28.1390  -18.8637   -4.3174 C   0  0  0  0  0  0  0  0  0  0  0  0
   27.6008  -19.0922   -5.5554 C   0  0  0  0  0  0  0  0  0  0  0  0
   28.1848  -19.9488   -6.4666 C   0  0  0  0  0  0  0  0  0  0  0  0
   25.3500  -20.1236  -10.5474 C   0  0  0  0  0  0  0  0  0  0  0  0
   25.1186  -18.8953  -10.6423 O   0  0  0  0  0  0  0  0  0  0  0  0
   24.6033  -21.1327  -13.9801 C   0  0  0  0  0  0  0  0  0  0  0  0
   23.3427  -21.4163  -13.2168 C   0  0  1  0  0  0  0  0  0  0  0  0
   23.2179  -22.9141  -13.0485 C   0  0  0  0  0  0  0  0  0  0  0  0
   23.2910  -20.7075  -11.8705 C   0  0  2  0  0  0  0  0  0  0  0  0
   24.4222  -21.0795  -11.0439 N   0  0  0  0  0  0  0  0  0  0  0  0
   22.0049  -20.8991  -11.1819 C   0  0  0  0  0  0  0  0  0  0  0  0
   21.8688  -21.5530  -10.1192 O   0  0  0  0  0  0  0  0  0  0  0  0
   20.8701  -20.3243  -11.7361 O   0  0  0  0  0  0  0  0  0  0  0  0
  1  2  1  0
  3  2  1  0
  3  4  2  0
  5  3  1  0
  6  5  1  0
  6  7  1  1
  7  8  1  0
  8  9  2  0
  8 16  1  0
  9 10  1  0
 10 11  1  0
 11 12  2  0
 12 13  1  0
 14 13  2  0
 15 14  1  0
 16 15  2  0
 16 11  1  0
 17  6  1  0
 18 17  2  0
 20 21  1  1
 20 19  1  0
 22 20  1  0
 22 23  1  1
 23 17  1  0
 24 22  1  0
 25 24  2  0
 26 24  1  0
M  END
$$$$
