GWV.pdb
     RDKit          3D

 26 27  0  0  1  0  0  0  0  0999 V2000
   27.9486  -24.4310  -16.0104 N   0  0  0  0  0  0  0  0  0  0  0  0
   27.5829  -23.0559  -15.8610 C   0  0  0  0  0  0  0  0  0  0  0  0
   26.8169  -22.8175  -14.6095 C   0  0  0  0  0  0  0  0  0  0  0  0
   26.1321  -23.7311  -14.1018 O   0  0  0  0  0  0  0  0  0  0  0  0
   26.8660  -21.5487  -13.9932 N   0  0  0  0  0  0  0  0  0  0  0  0
   25.9760  -21.1414  -12.9273 C   0  0  1  0  0  0  0  0  0  0  0  0
   26.5322  -19.9806  -12.1399 C   0  0  0  0  0  0  0  0  0  0  0  0
   27.5597  -20.3830  -11.1749 C   0  0  0  0  0  0  0  0  0  0  0  0
   28.8326  -20.7958  -11.4929 C   0  0  0  0  0  0  0  0  0  0  0  0
   29.4883  -21.0827  -10.3503 N   0  0  0  0  0  0  0  0  0  0  0  0
   28.6810  -20.8705   -9.2753 C   0  0  0  0  0  0  0  0  0  0  0  0
   28.8418  -21.0017   -7.9172 C   0  0  0  0  0  0  0  0  0  0  0  0
   27.8116  -20.7018   -7.0496 C   0  0  0  0  0  0  0  0  0  0  0  0
   26.6097  -20.2656   -7.5653 C   0  0  0  0  0  0  0  0  0  0  0  0
   26.4646  -20.1399   -8.9208 C   0  0  0  0  0  0  0  0  0  0  0  0
   27.4848  -20.4356   -9.8021 C   0  0  0  0  0  0  0  0  0  0  0  0
   24.6433  -20.7354  -13.4449 C   0  0  0  0  0  0  0  0  0  0  0  0
   24.6117  -19.8767  -14.3574 O   0  0  0  0  0  0  0  0  0  0  0  0
   20.0758  -21.9070  -14.5659 C   0  0  0  0  0  0  0  0  0  0  0  0
   21.4174  -22.2071  -13.9640 C   0  0  1  0  0  0  0  0  0  0  0  0
   22.2461  -22.9393  -14.9957 C   0  0  0  0  0  0  0  0  0  0  0  0
   22.1375  -20.9614  -13.4666 C   0  0  2  0  0  0  0  0  0  0  0  0
   23.4421  -21.2950  -12.9300 N   0  0  0  0  0  0  0  0  0  0  0  0
   21.3242  -20.1802  -12.5213 C   0  0  0  0  0  0  0  0  0  0  0  0
   21.3844  -20.3059  -11.2739 O   0  0  0  0  0  0  0  0  0  0  0  0
   20.4353  -19.2463  -13.0340 O   0  0  0  0  0  0  0  0  0  0  0  0
  1  2  1  0
  3  2  1  0
  3  4  2  0
  5  3  1  0
  6  5  1  0
  6  7  1  6
  7  8  1  0
  8  9  2  0
  8 16  1  0
  9 10  1  0
 10 11  1  0
 11 12  2  0
 12 13  1  0
 14 13  2  0
 15 14  1  0
 16 15  2  0
 16 11  1  0
 17  6  1  0
 18 17  2  0
 20 21  1  6
 20 19  1  0
 22 20  1  0
 22 23  1  1
 23 17  1  0
 24 22  1  0
 25 24  2  0
 26 24  1  0
M  END
$$$$
