GWV.pdb
     RDKit          3D

 26 27  0  0  1  0  0  0  0  0999 V2000
   28.4680  -22.2143  -15.1144 N   0  0  0  0  0  0  0  0  0  0  0  0
   28.2413  -21.0482  -14.3170 C   0  0  0  0  0  0  0  0  0  0  0  0
   27.4964  -21.3642  -13.0700 C   0  0  0  0  0  0  0  0  0  0  0  0
   26.4927  -22.1078  -13.1024 O   0  0  0  0  0  0  0  0  0  0  0  0
   27.9291  -20.8183  -11.8424 N   0  0  0  0  0  0  0  0  0  0  0  0
   27.1580  -20.8867  -10.6197 C   0  0  1  0  0  0  0  0  0  0  0  0
   27.8842  -20.2543   -9.4581 C   0  0  0  0  0  0  0  0  0  0  0  0
   27.2437  -20.5232   -8.1672 C   0  0  0  0  0  0  0  0  0  0  0  0
   26.0594  -21.2004   -7.9917 C   0  0  0  0  0  0  0  0  0  0  0  0
   25.7864  -21.2520   -6.6724 N   0  0  0  0  0  0  0  0  0  0  0  0
   26.7630  -20.6239   -5.9621 C   0  0  0  0  0  0  0  0  0  0  0  0
   26.9745  -20.3917   -4.6247 C   0  0  0  0  0  0  0  0  0  0  0  0
   28.0908  -19.7053   -4.1927 C   0  0  0  0  0  0  0  0  0  0  0  0
   28.9985  -19.2515   -5.1259 C   0  0  0  0  0  0  0  0  0  0  0  0
   28.7740  -19.4905   -6.4551 C   0  0  0  0  0  0  0  0  0  0  0  0
   27.6628  -20.1754   -6.9038 C   0  0  0  0  0  0  0  0  0  0  0  0
   25.8456  -20.2027  -10.7550 C   0  0  0  0  0  0  0  0  0  0  0  0
   25.8505  -18.9548  -10.8724 O   0  0  0  0  0  0  0  0  0  0  0  0
   23.2178  -22.3050  -13.0020 C   0  0  0  0  0  0  0  0  0  0  0  0
   23.3059  -20.8187  -12.8146 C   0  0  1  0  0  0  0  0  0  0  0  0
   22.0997  -20.1862  -13.4722 C   0  0  0  0  0  0  0  0  0  0  0  0
   23.4101  -20.4093  -11.3520 C   0  0  2  0  0  0  0  0  0  0  0  0
   24.6233  -20.9287  -10.7523 N   0  0  0  0  0  0  0  0  0  0  0  0
   22.2071  -20.7615  -10.5813 C   0  0  0  0  0  0  0  0  0  0  0  0
   22.0887  -21.8142   -9.9081 O   0  0  0  0  0  0  0  0  0  0  0  0
   21.1354  -19.8803  -10.5957 O   0  0  0  0  0  0  0  0  0  0  0  0
  1  2  1  0
  3  2  1  0
  3  4  2  0
  5  3  1  0
  6  5  1  0
  6  7  1  1
  7  8  1  0
  8  9  2  0
  8 16  1  0
  9 10  1  0
 10 11  1  0
 11 12  2  0
 12 13  1  0
 14 13  2  0
 15 14  1  0
 16 15  2  0
 16 11  1  0
 17  6  1  0
 18 17  2  0
 20 21  1  1
 20 19  1  0
 22 20  1  0
 22 23  1  1
 23 17  1  0
 24 22  1  0
 25 24  2  0
 26 24  1  0
M  END
$$$$
