GWV.pdb
     RDKit          3D

 26 27  0  0  1  0  0  0  0  0999 V2000
   16.6458  -26.0507   -4.5495 N   0  0  0  0  0  0  0  0  0  0  0  0
   15.4002  -25.7983   -3.8924 C   0  0  0  0  0  0  0  0  0  0  0  0
   15.3138  -24.4047   -3.3821 C   0  0  0  0  0  0  0  0  0  0  0  0
   16.2944  -23.6353   -3.4708 O   0  0  0  0  0  0  0  0  0  0  0  0
   14.1137  -23.9512   -2.7936 N   0  0  0  0  0  0  0  0  0  0  0  0
   13.9691  -22.6543   -2.1677 C   0  0  1  0  0  0  0  0  0  0  0  0
   12.6755  -21.9814   -2.5556 C   0  0  0  0  0  0  0  0  0  0  0  0
   12.6734  -21.4988   -3.9398 C   0  0  0  0  0  0  0  0  0  0  0  0
   13.5475  -21.8986   -4.9236 C   0  0  0  0  0  0  0  0  0  0  0  0
   13.2414  -21.2431   -6.0614 N   0  0  0  0  0  0  0  0  0  0  0  0
   12.1812  -20.4137   -5.8591 C   0  0  0  0  0  0  0  0  0  0  0  0
   11.4817  -19.5426   -6.6586 C   0  0  0  0  0  0  0  0  0  0  0  0
   10.4206  -18.8170   -6.1571 C   0  0  0  0  0  0  0  0  0  0  0  0
   10.0677  -18.9776   -4.8340 C   0  0  0  0  0  0  0  0  0  0  0  0
   10.7743  -19.8494   -4.0497 C   0  0  0  0  0  0  0  0  0  0  0  0
   11.8379  -20.5825   -4.5358 C   0  0  0  0  0  0  0  0  0  0  0  0
   13.9986  -22.7500   -0.6850 C   0  0  0  0  0  0  0  0  0  0  0  0
   13.2634  -23.6087   -0.1437 O   0  0  0  0  0  0  0  0  0  0  0  0
   16.3784  -22.4363    3.5175 C   0  0  0  0  0  0  0  0  0  0  0  0
   16.2454  -22.4426    2.0228 C   0  0  1  0  0  0  0  0  0  0  0  0
   16.5566  -23.8366    1.5256 C   0  0  0  0  0  0  0  0  0  0  0  0
   14.8740  -21.9846    1.5463 C   0  0  2  0  0  0  0  0  0  0  0  0
   14.8273  -21.9023    0.0999 N   0  0  0  0  0  0  0  0  0  0  0  0
   14.4403  -20.7367    2.1943 C   0  0  0  0  0  0  0  0  0  0  0  0
   14.6706  -19.5914    1.7354 O   0  0  0  0  0  0  0  0  0  0  0  0
   13.7332  -20.8251    3.3849 O   0  0  0  0  0  0  0  0  0  0  0  0
  1  2  1  0
  3  2  1  0
  3  4  2  0
  5  3  1  0
  6  5  1  0
  6  7  1  1
  7  8  1  0
  8  9  2  0
  8 16  1  0
  9 10  1  0
 10 11  1  0
 11 12  2  0
 12 13  1  0
 14 13  2  0
 15 14  1  0
 16 15  2  0
 16 11  1  0
 17  6  1  0
 18 17  2  0
 20 21  1  1
 20 19  1  0
 22 20  1  0
 22 23  1  6
 23 17  1  0
 24 22  1  0
 25 24  2  0
 26 24  1  0
M  END
$$$$
