GWV.pdb
     RDKit          3D

 26 27  0  0  1  0  0  0  0  0999 V2000
   28.2801  -22.4118  -15.2855 N   0  0  0  0  0  0  0  0  0  0  0  0
   28.2193  -21.2486  -14.4548 C   0  0  0  0  0  0  0  0  0  0  0  0
   27.4165  -21.4848  -13.2261 C   0  0  0  0  0  0  0  0  0  0  0  0
   26.4526  -22.2798  -13.2419 O   0  0  0  0  0  0  0  0  0  0  0  0
   27.7485  -20.8041  -12.0350 N   0  0  0  0  0  0  0  0  0  0  0  0
   26.9045  -20.7892  -10.8595 C   0  0  1  0  0  0  0  0  0  0  0  0
   27.5066  -19.9729   -9.7425 C   0  0  0  0  0  0  0  0  0  0  0  0
   26.9786  -20.3309   -8.4226 C   0  0  0  0  0  0  0  0  0  0  0  0
   25.7904  -20.9837   -8.1907 C   0  0  0  0  0  0  0  0  0  0  0  0
   25.6392  -21.1390   -6.8600 N   0  0  0  0  0  0  0  0  0  0  0  0
   26.7009  -20.6040   -6.1974 C   0  0  0  0  0  0  0  0  0  0  0  0
   27.0443  -20.4930   -4.8718 C   0  0  0  0  0  0  0  0  0  0  0  0
   28.2216  -19.8805   -4.4938 C   0  0  0  0  0  0  0  0  0  0  0  0
   29.0557  -19.3772   -5.4693 C   0  0  0  0  0  0  0  0  0  0  0  0
   28.6999  -19.4952   -6.7861 C   0  0  0  0  0  0  0  0  0  0  0  0
   27.5263  -20.1049   -7.1809 C   0  0  0  0  0  0  0  0  0  0  0  0
   25.5599  -20.2277  -11.1517 C   0  0  0  0  0  0  0  0  0  0  0  0
   25.4850  -19.0028  -11.4067 O   0  0  0  0  0  0  0  0  0  0  0  0
   21.4710  -21.1496  -13.5533 C   0  0  0  0  0  0  0  0  0  0  0  0
   22.8248  -21.4506  -12.9800 C   0  0  1  0  0  0  0  0  0  0  0  0
   23.8566  -21.2376  -14.0651 C   0  0  0  0  0  0  0  0  0  0  0  0
   23.1465  -20.6177  -11.7469 C   0  0  2  0  0  0  0  0  0  0  0  0
   24.3948  -21.0422  -11.1445 N   0  0  0  0  0  0  0  0  0  0  0  0
   22.0372  -20.5900  -10.7807 C   0  0  0  0  0  0  0  0  0  0  0  0
   21.0332  -19.8442  -10.8867 O   0  0  0  0  0  0  0  0  0  0  0  0
   22.0990  -21.4375   -9.6838 O   0  0  0  0  0  0  0  0  0  0  0  0
  1  2  1  0
  3  2  1  0
  3  4  2  0
  5  3  1  0
  6  5  1  0
  6  7  1  1
  7  8  1  0
  8  9  2  0
  8 16  1  0
  9 10  1  0
 10 11  1  0
 11 12  2  0
 12 13  1  0
 14 13  2  0
 15 14  1  0
 16 15  2  0
 16 11  1  0
 17  6  1  0
 18 17  2  0
 20 21  1  6
 20 19  1  0
 22 20  1  0
 22 23  1  1
 23 17  1  0
 24 22  1  0
 25 24  2  0
 26 24  1  0
M  END
$$$$
