RVY.pdb
     RDKit          3D

 31 31  0  0  1  0  0  0  0  0999 V2000
    5.8136  -18.2765   17.3417 N   0  0  0  0  0  0  0  0  0  0  0  0
    6.9449  -17.6230   16.7835 C   0  0  0  0  0  0  0  0  0  0  0  0
    7.1045  -17.6681   15.5230 N   0  0  0  0  0  0  0  0  0  0  0  0
    7.8852  -16.9315   17.5968 N   0  0  0  0  0  0  0  0  0  0  0  0
    7.8015  -17.0084   19.0267 C   0  0  0  0  0  0  0  0  0  0  0  0
    8.1340  -15.6784   19.6527 C   0  0  0  0  0  0  0  0  0  0  0  0
    6.9375  -14.7400   19.6479 C   0  0  0  0  0  0  0  0  0  0  0  0
    7.3874  -13.4349   20.2521 C   0  0  2  0  0  0  0  0  0  0  0  0
    8.4644  -12.9125   19.4317 N   0  0  0  0  0  0  0  0  0  0  0  0
    7.9440  -13.6476   21.6177 C   0  0  0  0  0  0  0  0  0  0  0  0
    9.1676  -13.9260   21.7047 O   0  0  0  0  0  0  0  0  0  0  0  0
    7.9439  -17.3146   15.0143 C   0  0  0  0  0  0  0  0  0  0  0  0
    7.3355  -13.4405   26.5469 C   0  0  2  0  0  0  0  0  0  0  0  0
    6.8128  -13.3077   25.1477 C   0  0  0  0  0  0  0  0  0  0  0  0
    6.1791  -11.9749   24.9312 C   0  0  1  0  0  0  0  0  0  0  0  0
    7.8024  -13.7087   24.0861 N   0  0  0  0  0  0  0  0  0  0  0  0
    7.1577  -13.5486   22.7924 C   0  0  0  0  0  0  0  0  0  0  0  0
    8.2888  -15.0722   24.2939 O   0  0  0  0  0  0  0  0  0  0  0  0
    9.0706  -15.5830   23.4121 O   0  0  0  0  0  0  0  0  0  0  0  0
   13.0291  -16.8415   31.2476 C   0  0  0  0  0  0  0  0  0  0  0  0
   12.2023  -16.4353   30.2014 C   0  0  0  0  0  0  0  0  0  0  0  0
   11.2087  -15.5180   30.4236 C   0  0  0  0  0  0  0  0  0  0  0  0
   10.4036  -15.1284   29.3843 C   0  0  0  0  0  0  0  0  0  0  0  0
   10.5456  -15.6221   28.1016 C   0  0  0  0  0  0  0  0  0  0  0  0
    9.6481  -15.1628   27.0166 C   0  0  1  0  0  0  0  0  0  0  0  0
    8.9987  -16.3603   26.3414 N   0  0  0  0  0  0  0  0  0  0  0  0
    8.0108  -15.9378   25.3691 C   0  0  0  0  0  0  0  0  0  0  0  0
    8.3111  -17.2136   27.3334 O   0  0  0  0  0  0  0  0  0  0  0  0
    7.2869  -16.7497   28.1584 C   0  0  0  0  0  0  0  0  0  0  0  0
   11.5346  -16.5356   27.8785 C   0  0  0  0  0  0  0  0  0  0  0  0
   12.3603  -16.9422   28.9205 O   0  0  0  0  0  0  0  0  0  0  0  0
  1  2  1  0
  2  4  1  0
  2  3  2  0
  4  5  1  0
  6  5  1  0
  7  6  1  0
  8  7  1  0
  8  9  1  6
 10  8  1  0
 10 16  1  0
 11 10  2  0
 13 12  1  1
 13 14  1  0
 13 15  1  0
 15 17  1  0
 15 16  1  1
 17 18  2  0
 19 20  1  0
 20 30  2  0
 21 22  2  0
 21 20  1  0
 22 23  1  0
 23 24  1  0
 23 29  2  0
 25 24  1  6
 26 25  1  0
 26 17  1  0
 27 25  1  0
 28 27  1  0
 30 29  1  0
 31 27  2  0
M  END
$$$$
