RVY.pdb
     RDKit          3D

 31 31  0  0  1  0  0  0  0  0999 V2000
    7.5898  -20.9239   15.9445 N   0  0  0  0  0  0  0  0  0  0  0  0
    6.5500  -20.2890   16.6753 C   0  0  0  0  0  0  0  0  0  0  0  0
    5.6187  -19.7187   16.0242 N   0  0  0  0  0  0  0  0  0  0  0  0
    6.5336  -20.2808   18.0978 N   0  0  0  0  0  0  0  0  0  0  0  0
    7.6219  -20.8504   18.8384 C   0  0  0  0  0  0  0  0  0  0  0  0
    8.8955  -20.0843   18.5891 C   0  0  0  0  0  0  0  0  0  0  0  0
    9.1095  -18.9957   19.6291 C   0  0  0  0  0  0  0  0  0  0  0  0
    9.4803  -17.7354   18.8909 C   0  0  2  0  0  0  0  0  0  0  0  0
   10.7825  -17.9415   18.2846 N   0  0  0  0  0  0  0  0  0  0  0  0
    9.6154  -16.5898   19.8339 C   0  0  0  0  0  0  0  0  0  0  0  0
   10.7409  -16.4108   20.3663 O   0  0  0  0  0  0  0  0  0  0  0  0
    4.8321  -19.1834   16.4519 C   0  0  0  0  0  0  0  0  0  0  0  0
    7.7421  -12.4886   21.8961 C   0  0  1  0  0  0  0  0  0  0  0  0
    7.6532  -13.6473   20.9484 C   0  0  0  0  0  0  0  0  0  0  0  0
    7.4531  -13.1840   19.5448 C   0  0  1  0  0  0  0  0  0  0  0  0
    8.7524  -14.6619   21.1206 N   0  0  0  0  0  0  0  0  0  0  0  0
    8.5422  -15.7171   20.1422 C   0  0  0  0  0  0  0  0  0  0  0  0
    8.7952  -15.1794   22.4878 O   0  0  0  0  0  0  0  0  0  0  0  0
    7.9728  -16.1102   22.8148 O   0  0  0  0  0  0  0  0  0  0  0  0
    5.9508  -11.0228   27.4781 C   0  0  0  0  0  0  0  0  0  0  0  0
    6.5367  -12.1758   26.9582 C   0  0  0  0  0  0  0  0  0  0  0  0
    5.7536  -13.1754   26.4429 C   0  0  0  0  0  0  0  0  0  0  0  0
    6.3448  -14.3035   25.9350 C   0  0  0  0  0  0  0  0  0  0  0  0
    7.7142  -14.4871   25.9159 C   0  0  0  0  0  0  0  0  0  0  0  0
    8.2979  -15.7261   25.3520 C   0  0  2  0  0  0  0  0  0  0  0  0
    9.6968  -15.4458   24.8269 N   0  0  0  0  0  0  0  0  0  0  0  0
    9.6469  -14.7859   23.5377 C   0  0  0  0  0  0  0  0  0  0  0  0
   10.4551  -16.7029   24.6550 O   0  0  0  0  0  0  0  0  0  0  0  0
   11.0447  -17.3887   25.7165 C   0  0  0  0  0  0  0  0  0  0  0  0
    8.4956  -13.4927   26.4286 C   0  0  0  0  0  0  0  0  0  0  0  0
    7.9133  -12.3419   26.9477 O   0  0  0  0  0  0  0  0  0  0  0  0
  1  2  1  0
  2  4  1  0
  2  3  2  0
  4  5  1  0
  6  5  1  0
  7  6  1  0
  8  7  1  0
  8  9  1  1
 10  8  1  0
 10 16  1  0
 11 10  2  0
 13 12  1  1
 13 14  1  0
 13 15  1  0
 15 17  1  0
 15 16  1  1
 17 18  2  0
 19 20  1  0
 20 30  2  0
 21 22  2  0
 21 20  1  0
 22 23  1  0
 23 24  1  0
 23 29  2  0
 25 24  1  1
 26 25  1  0
 26 17  1  0
 27 25  1  0
 28 27  1  0
 30 29  1  0
 31 27  2  0
M  END
$$$$
