RVY.pdb
     RDKit          3D

 31 31  0  0  1  0  0  0  0  0999 V2000
    8.9607  -13.2884   14.8787 N   0  0  0  0  0  0  0  0  0  0  0  0
    8.2795  -13.8249   16.0041 C   0  0  0  0  0  0  0  0  0  0  0  0
    7.0375  -13.5830   16.1271 N   0  0  0  0  0  0  0  0  0  0  0  0
    8.9519  -14.6140   16.9783 N   0  0  0  0  0  0  0  0  0  0  0  0
    9.2179  -14.0824   18.2838 C   0  0  0  0  0  0  0  0  0  0  0  0
    8.1125  -14.4439   19.2422 C   0  0  0  0  0  0  0  0  0  0  0  0
    8.3298  -13.8204   20.6120 C   0  0  0  0  0  0  0  0  0  0  0  0
    8.1167  -14.9034   21.6378 C   0  0  2  0  0  0  0  0  0  0  0  0
    6.6975  -15.2031   21.6804 N   0  0  0  0  0  0  0  0  0  0  0  0
    8.5026  -14.4291   22.9965 C   0  0  0  0  0  0  0  0  0  0  0  0
    9.6924  -14.0550   23.1603 O   0  0  0  0  0  0  0  0  0  0  0  0
    6.4540  -13.8568   16.9474 C   0  0  0  0  0  0  0  0  0  0  0  0
    7.2313  -12.8008   27.4719 C   0  0  2  0  0  0  0  0  0  0  0  0
    6.9135  -13.2578   26.0794 C   0  0  0  0  0  0  0  0  0  0  0  0
    6.2534  -12.1762   25.2926 C   0  0  1  0  0  0  0  0  0  0  0  0
    8.0668  -13.9253   25.3783 N   0  0  0  0  0  0  0  0  0  0  0  0
    7.5939  -14.3874   24.0831 C   0  0  0  0  0  0  0  0  0  0  0  0
    8.6252  -15.0132   26.1807 O   0  0  0  0  0  0  0  0  0  0  0  0
    7.8565  -15.9896   26.5054 O   0  0  0  0  0  0  0  0  0  0  0  0
   10.9375  -18.9177   21.7255 C   0  0  0  0  0  0  0  0  0  0  0  0
   11.1291  -18.3933   23.0027 C   0  0  0  0  0  0  0  0  0  0  0  0
   10.8565  -19.1547   24.1091 C   0  0  0  0  0  0  0  0  0  0  0  0
   11.0501  -18.6248   25.3588 C   0  0  0  0  0  0  0  0  0  0  0  0
   11.5141  -17.3394   25.5632 C   0  0  0  0  0  0  0  0  0  0  0  0
   11.7069  -16.8202   26.9369 C   0  0  2  0  0  0  0  0  0  0  0  0
   10.3953  -16.2641   27.4679 N   0  0  0  0  0  0  0  0  0  0  0  0
    9.9404  -15.1466   26.6653 C   0  0  0  0  0  0  0  0  0  0  0  0
   10.5533  -15.7809   28.8558 O   0  0  0  0  0  0  0  0  0  0  0  0
   10.7656  -16.6321   29.9399 C   0  0  0  0  0  0  0  0  0  0  0  0
   11.7861  -16.5798   24.4626 C   0  0  0  0  0  0  0  0  0  0  0  0
   11.5957  -17.1008   23.1878 O   0  0  0  0  0  0  0  0  0  0  0  0
  1  2  1  0
  2  4  1  0
  2  3  2  0
  4  5  1  0
  6  5  1  0
  7  6  1  0
  8  7  1  0
  8  9  1  1
 10  8  1  0
 10 16  1  0
 11 10  2  0
 13 12  1  1
 13 14  1  0
 13 15  1  0
 15 17  1  0
 15 16  1  1
 17 18  2  0
 19 20  1  0
 20 30  2  0
 21 22  2  0
 21 20  1  0
 22 23  1  0
 23 24  1  0
 23 29  2  0
 25 24  1  6
 26 25  1  0
 26 17  1  0
 27 25  1  0
 28 27  1  0
 30 29  1  0
 31 27  2  0
M  END
$$$$
