RVY.pdb
     RDKit          3D

 31 31  0  0  1  0  0  0  0  0999 V2000
    9.1985  -23.0978   19.2703 N   0  0  0  0  0  0  0  0  0  0  0  0
    8.0992  -22.5415   18.5629 C   0  0  0  0  0  0  0  0  0  0  0  0
    6.9599  -23.0904   18.6936 N   0  0  0  0  0  0  0  0  0  0  0  0
    8.2493  -21.4010   17.7259 N   0  0  0  0  0  0  0  0  0  0  0  0
    8.8917  -20.2180   18.2211 C   0  0  0  0  0  0  0  0  0  0  0  0
    8.5654  -20.0034   19.6767 C   0  0  0  0  0  0  0  0  0  0  0  0
    9.3609  -18.8498   20.2671 C   0  0  0  0  0  0  0  0  0  0  0  0
    9.1434  -17.6525   19.3785 C   0  0  2  0  0  0  0  0  0  0  0  0
   10.1222  -17.7085   18.3086 N   0  0  0  0  0  0  0  0  0  0  0  0
    9.3873  -16.3869   20.1260 C   0  0  0  0  0  0  0  0  0  0  0  0
   10.5827  -16.0215   20.2666 O   0  0  0  0  0  0  0  0  0  0  0  0
    6.0700  -22.7220   18.2925 C   0  0  0  0  0  0  0  0  0  0  0  0
    7.5268  -12.9636   19.5862 C   0  0  2  0  0  0  0  0  0  0  0  0
    7.5897  -13.3588   21.0314 C   0  0  0  0  0  0  0  0  0  0  0  0
    6.2407  -13.7268   21.5507 C   0  0  2  0  0  0  0  0  0  0  0  0
    8.6730  -14.3566   21.3444 N   0  0  0  0  0  0  0  0  0  0  0  0
    8.3408  -15.6015   20.6703 C   0  0  0  0  0  0  0  0  0  0  0  0
    8.8350  -14.5375   22.7866 O   0  0  0  0  0  0  0  0  0  0  0  0
    8.2625  -13.7010   23.5753 O   0  0  0  0  0  0  0  0  0  0  0  0
    6.6502  -10.7741   27.6086 C   0  0  0  0  0  0  0  0  0  0  0  0
    7.0204  -12.0094   27.0793 C   0  0  0  0  0  0  0  0  0  0  0  0
    8.2737  -12.5123   27.3128 C   0  0  0  0  0  0  0  0  0  0  0  0
    8.6230  -13.7287   26.7854 C   0  0  0  0  0  0  0  0  0  0  0  0
    7.7606  -14.4869   26.0168 C   0  0  0  0  0  0  0  0  0  0  0  0
    8.1915  -15.7962   25.4748 C   0  0  2  0  0  0  0  0  0  0  0  0
    9.5947  -15.6813   24.9008 N   0  0  0  0  0  0  0  0  0  0  0  0
    9.5579  -15.5414   23.4589 C   0  0  0  0  0  0  0  0  0  0  0  0
   10.3896  -16.8882   25.2113 O   0  0  0  0  0  0  0  0  0  0  0  0
   10.7679  -17.2393   26.5069 C   0  0  0  0  0  0  0  0  0  0  0  0
    6.5121  -13.9877   25.7833 C   0  0  0  0  0  0  0  0  0  0  0  0
    6.1408  -12.7559   26.3102 O   0  0  0  0  0  0  0  0  0  0  0  0
  1  2  1  0
  2  4  1  0
  2  3  2  0
  4  5  1  0
  6  5  1  0
  7  6  1  0
  8  7  1  0
  8  9  1  6
 10  8  1  0
 10 16  1  0
 11 10  2  0
 13 12  1  1
 13 14  1  0
 13 15  1  0
 15 17  1  0
 15 16  1  1
 17 18  2  0
 19 20  1  0
 20 30  2  0
 21 22  2  0
 21 20  1  0
 22 23  1  0
 23 24  1  0
 23 29  2  0
 25 24  1  1
 26 25  1  0
 26 17  1  0
 27 25  1  0
 28 27  1  0
 30 29  1  0
 31 27  2  0
M  END
$$$$
