RVY.pdb
     RDKit          3D

 31 31  0  0  1  0  0  0  0  0999 V2000
    9.8950  -21.4651   21.0435 N   0  0  0  0  0  0  0  0  0  0  0  0
    9.0557  -22.3508   20.3160 C   0  0  0  0  0  0  0  0  0  0  0  0
    8.5553  -23.3455   20.9295 N   0  0  0  0  0  0  0  0  0  0  0  0
    8.7709  -22.1469   18.9372 N   0  0  0  0  0  0  0  0  0  0  0  0
    9.3821  -21.0632   18.2233 C   0  0  0  0  0  0  0  0  0  0  0  0
    8.4789  -19.8569   18.2095 C   0  0  0  0  0  0  0  0  0  0  0  0
    8.8943  -18.8316   19.2527 C   0  0  0  0  0  0  0  0  0  0  0  0
    9.0172  -17.5027   18.5530 C   0  0  2  0  0  0  0  0  0  0  0  0
   10.0436  -17.6289   17.5350 N   0  0  0  0  0  0  0  0  0  0  0  0
    9.4706  -16.4456   19.5000 C   0  0  0  0  0  0  0  0  0  0  0  0
   10.7054  -16.3650   19.7260 O   0  0  0  0  0  0  0  0  0  0  0  0
    7.9479  -24.0726   20.4928 C   0  0  0  0  0  0  0  0  0  0  0  0
    8.4711  -12.6004   19.7773 C   0  0  2  0  0  0  0  0  0  0  0  0
    8.2882  -13.3601   21.0572 C   0  0  0  0  0  0  0  0  0  0  0  0
    6.8428  -13.5270   21.3853 C   0  0  2  0  0  0  0  0  0  0  0  0
    9.0968  -14.6279   21.1350 N   0  0  0  0  0  0  0  0  0  0  0  0
    8.5766  -15.5503   20.1383 C   0  0  0  0  0  0  0  0  0  0  0  0
    9.0700  -15.1993   22.4811 O   0  0  0  0  0  0  0  0  0  0  0  0
    8.1657  -16.0682   22.7580 O   0  0  0  0  0  0  0  0  0  0  0  0
    5.8282  -11.1494   27.1063 C   0  0  0  0  0  0  0  0  0  0  0  0
    6.4668  -12.2998   26.6460 C   0  0  0  0  0  0  0  0  0  0  0  0
    5.7332  -13.3392   26.1367 C   0  0  0  0  0  0  0  0  0  0  0  0
    6.3759  -14.4642   25.6878 C   0  0  0  0  0  0  0  0  0  0  0  0
    7.7499  -14.6058   25.7235 C   0  0  0  0  0  0  0  0  0  0  0  0
    8.3905  -15.8436   25.2220 C   0  0  2  0  0  0  0  0  0  0  0  0
    9.8387  -15.5633   24.8542 N   0  0  0  0  0  0  0  0  0  0  0  0
    9.9322  -14.9206   23.5587 C   0  0  0  0  0  0  0  0  0  0  0  0
   10.6157  -16.8189   24.7858 O   0  0  0  0  0  0  0  0  0  0  0  0
   10.1323  -17.9829   24.1889 C   0  0  0  0  0  0  0  0  0  0  0  0
    8.4821  -13.5717   26.2303 C   0  0  0  0  0  0  0  0  0  0  0  0
    7.8472  -12.4235   26.6900 O   0  0  0  0  0  0  0  0  0  0  0  0
  1  2  1  0
  2  4  1  0
  2  3  2  0
  4  5  1  0
  6  5  1  0
  7  6  1  0
  8  7  1  0
  8  9  1  6
 10  8  1  0
 10 16  1  0
 11 10  2  0
 13 12  1  1
 13 14  1  0
 13 15  1  0
 15 17  1  0
 15 16  1  1
 17 18  2  0
 19 20  1  0
 20 30  2  0
 21 22  2  0
 21 20  1  0
 22 23  1  0
 23 24  1  0
 23 29  2  0
 25 24  1  1
 26 25  1  0
 26 17  1  0
 27 25  1  0
 28 27  1  0
 30 29  1  0
 31 27  2  0
M  END
$$$$
