RVY.pdb
     RDKit          3D

 31 31  0  0  1  0  0  0  0  0999 V2000
    8.4583  -13.3819   16.9773 N   0  0  0  0  0  0  0  0  0  0  0  0
    7.9229  -14.3266   16.0613 C   0  0  0  0  0  0  0  0  0  0  0  0
    7.4695  -13.8995   14.9529 N   0  0  0  0  0  0  0  0  0  0  0  0
    7.8863  -15.7174   16.3581 N   0  0  0  0  0  0  0  0  0  0  0  0
    8.4627  -16.2145   17.5739 C   0  0  0  0  0  0  0  0  0  0  0  0
    7.5045  -16.0486   18.7252 C   0  0  0  0  0  0  0  0  0  0  0  0
    8.1779  -15.4095   19.9294 C   0  0  0  0  0  0  0  0  0  0  0  0
    7.1380  -15.2858   21.0129 C   0  0  2  0  0  0  0  0  0  0  0  0
    5.9394  -14.7248   20.4175 N   0  0  0  0  0  0  0  0  0  0  0  0
    7.5850  -14.3354   22.0698 C   0  0  0  0  0  0  0  0  0  0  0  0
    8.3476  -13.3989   21.7181 O   0  0  0  0  0  0  0  0  0  0  0  0
    7.1072  -14.5035   14.1834 C   0  0  0  0  0  0  0  0  0  0  0  0
    6.0374  -14.3430   26.0621 C   0  0  1  0  0  0  0  0  0  0  0  0
    6.6640  -13.1667   25.3750 C   0  0  0  0  0  0  0  0  0  0  0  0
    7.0408  -12.1061   26.3537 C   0  0  1  0  0  0  0  0  0  0  0  0
    7.7541  -13.5366   24.4044 N   0  0  0  0  0  0  0  0  0  0  0  0
    7.1878  -14.4506   23.4252 C   0  0  0  0  0  0  0  0  0  0  0  0
    8.9105  -14.1120   25.0905 O   0  0  0  0  0  0  0  0  0  0  0  0
    9.5660  -13.3708   25.9094 O   0  0  0  0  0  0  0  0  0  0  0  0
   10.7370  -14.4492   31.8543 C   0  0  0  0  0  0  0  0  0  0  0  0
   10.6312  -15.0341   30.5934 C   0  0  0  0  0  0  0  0  0  0  0  0
   10.7312  -16.3936   30.4530 C   0  0  0  0  0  0  0  0  0  0  0  0
   10.6250  -16.9541   29.2062 C   0  0  0  0  0  0  0  0  0  0  0  0
   10.4186  -16.2047   28.0637 C   0  0  0  0  0  0  0  0  0  0  0  0
   10.3091  -16.8649   26.7423 C   0  0  2  0  0  0  0  0  0  0  0  0
   10.6322  -15.8698   25.6392 N   0  0  0  0  0  0  0  0  0  0  0  0
    9.4258  -15.4173   24.9761 C   0  0  0  0  0  0  0  0  0  0  0  0
   11.5001  -16.4859   24.6136 O   0  0  0  0  0  0  0  0  0  0  0  0
   11.1293  -16.6086   23.2749 C   0  0  0  0  0  0  0  0  0  0  0  0
   10.3187  -14.8507   28.2016 C   0  0  0  0  0  0  0  0  0  0  0  0
   10.4240  -14.2653   29.4582 O   0  0  0  0  0  0  0  0  0  0  0  0
  1  2  1  0
  2  4  1  0
  2  3  2  0
  4  5  1  0
  6  5  1  0
  7  6  1  0
  8  7  1  0
  8  9  1  6
 10  8  1  0
 10 16  1  0
 11 10  2  0
 13 12  1  6
 13 14  1  0
 13 15  1  0
 15 17  1  0
 15 16  1  6
 17 18  2  0
 19 20  1  0
 20 30  2  0
 21 22  2  0
 21 20  1  0
 22 23  1  0
 23 24  1  0
 23 29  2  0
 25 24  1  1
 26 25  1  0
 26 17  1  0
 27 25  1  0
 28 27  1  0
 30 29  1  0
 31 27  2  0
M  END
$$$$
