RVY.pdb
     RDKit          3D

 31 31  0  0  1  0  0  0  0  0999 V2000
    5.3982  -21.8739   20.6816 N   0  0  0  0  0  0  0  0  0  0  0  0
    6.2558  -23.0062   20.7075 C   0  0  0  0  0  0  0  0  0  0  0  0
    5.7751  -24.1328   20.3668 N   0  0  0  0  0  0  0  0  0  0  0  0
    7.6189  -22.9024   21.1013 N   0  0  0  0  0  0  0  0  0  0  0  0
    8.1374  -21.6605   21.5976 C   0  0  0  0  0  0  0  0  0  0  0  0
    8.1934  -20.6293   20.5001 C   0  0  0  0  0  0  0  0  0  0  0  0
    8.7327  -19.3001   21.0046 C   0  0  0  0  0  0  0  0  0  0  0  0
    8.6133  -18.3089   19.8759 C   0  0  2  0  0  0  0  0  0  0  0  0
    9.5224  -18.7219   18.8229 N   0  0  0  0  0  0  0  0  0  0  0  0
    9.0437  -16.9518   20.3152 C   0  0  0  0  0  0  0  0  0  0  0  0
   10.2798  -16.7215   20.3486 O   0  0  0  0  0  0  0  0  0  0  0  0
    6.3087  -25.0292   20.3494 C   0  0  0  0  0  0  0  0  0  0  0  0
    8.0737  -12.2305   21.3160 C   0  0  2  0  0  0  0  0  0  0  0  0
    7.6734  -13.5928   20.8338 C   0  0  0  0  0  0  0  0  0  0  0  0
    7.3041  -13.5683   19.3888 C   0  0  1  0  0  0  0  0  0  0  0  0
    8.6407  -14.6827   21.2128 N   0  0  0  0  0  0  0  0  0  0  0  0
    8.1267  -15.9375   20.6874 C   0  0  0  0  0  0  0  0  0  0  0  0
    8.8491  -14.7356   22.6594 O   0  0  0  0  0  0  0  0  0  0  0  0
    8.1831  -13.9269   23.4025 O   0  0  0  0  0  0  0  0  0  0  0  0
    5.9263  -10.8985   26.6966 C   0  0  0  0  0  0  0  0  0  0  0  0
    6.5798  -12.0963   26.4119 C   0  0  0  0  0  0  0  0  0  0  0  0
    5.8640  -13.1948   26.0128 C   0  0  0  0  0  0  0  0  0  0  0  0
    6.5211  -14.3659   25.7364 C   0  0  0  0  0  0  0  0  0  0  0  0
    7.8926  -14.4976   25.8414 C   0  0  0  0  0  0  0  0  0  0  0  0
    8.5494  -15.7875   25.5271 C   0  0  2  0  0  0  0  0  0  0  0  0
    9.8716  -15.5353   24.8204 N   0  0  0  0  0  0  0  0  0  0  0  0
    9.7105  -15.5838   23.3811 C   0  0  0  0  0  0  0  0  0  0  0  0
   10.8696  -16.5605   25.1919 O   0  0  0  0  0  0  0  0  0  0  0  0
   11.3622  -16.7104   26.4879 C   0  0  0  0  0  0  0  0  0  0  0  0
    8.6070  -13.4048   26.2386 C   0  0  0  0  0  0  0  0  0  0  0  0
    7.9573  -12.2091   26.5231 O   0  0  0  0  0  0  0  0  0  0  0  0
  1  2  1  0
  2  4  1  0
  2  3  2  0
  4  5  1  0
  6  5  1  0
  7  6  1  0
  8  7  1  0
  8  9  1  6
 10  8  1  0
 10 16  1  0
 11 10  2  0
 13 12  1  1
 13 14  1  0
 13 15  1  0
 15 17  1  0
 15 16  1  1
 17 18  2  0
 19 20  1  0
 20 30  2  0
 21 22  2  0
 21 20  1  0
 22 23  1  0
 23 24  1  0
 23 29  2  0
 25 24  1  6
 26 25  1  0
 26 17  1  0
 27 25  1  0
 28 27  1  0
 30 29  1  0
 31 27  2  0
M  END
$$$$
