RVY.pdb
     RDKit          3D

 31 31  0  0  1  0  0  0  0  0999 V2000
   12.8792  -22.8322   18.1766 N   0  0  0  0  0  0  0  0  0  0  0  0
   12.0957  -22.5020   19.3148 C   0  0  0  0  0  0  0  0  0  0  0  0
   11.1014  -23.2427   19.5960 N   0  0  0  0  0  0  0  0  0  0  0  0
   12.3998  -21.3768   20.1304 N   0  0  0  0  0  0  0  0  0  0  0  0
   12.8996  -20.1683   19.5412 C   0  0  0  0  0  0  0  0  0  0  0  0
   11.8580  -19.5375   18.6533 C   0  0  0  0  0  0  0  0  0  0  0  0
   10.7943  -18.8121   19.4623 C   0  0  0  0  0  0  0  0  0  0  0  0
   10.4726  -17.5316   18.7361 C   0  0  2  0  0  0  0  0  0  0  0  0
   11.6366  -17.1591   17.9537 N   0  0  0  0  0  0  0  0  0  0  0  0
   10.2238  -16.4238   19.7009 C   0  0  0  0  0  0  0  0  0  0  0  0
   11.2291  -15.8799   20.2262 O   0  0  0  0  0  0  0  0  0  0  0  0
   10.4709  -23.1099   20.4165 C   0  0  0  0  0  0  0  0  0  0  0  0
    7.0381  -13.2347   21.7775 C   0  0  1  0  0  0  0  0  0  0  0  0
    7.4208  -14.2515   20.7439 C   0  0  0  0  0  0  0  0  0  0  0  0
    7.1911  -13.7333   19.3642 C   0  0  1  0  0  0  0  0  0  0  0  0
    8.7792  -14.8629   20.9633 N   0  0  0  0  0  0  0  0  0  0  0  0
    8.9224  -15.9748   20.0372 C   0  0  0  0  0  0  0  0  0  0  0  0
    8.9625  -15.2773   22.3539 O   0  0  0  0  0  0  0  0  0  0  0  0
    8.5412  -16.4385   22.7058 O   0  0  0  0  0  0  0  0  0  0  0  0
   10.4349  -15.8397   31.0307 C   0  0  0  0  0  0  0  0  0  0  0  0
   10.4074  -15.3946   29.7100 C   0  0  0  0  0  0  0  0  0  0  0  0
    9.6711  -14.2900   29.3695 C   0  0  0  0  0  0  0  0  0  0  0  0
    9.6541  -13.8645   28.0662 C   0  0  0  0  0  0  0  0  0  0  0  0
   10.3538  -14.5038   27.0607 C   0  0  0  0  0  0  0  0  0  0  0  0
   10.3005  -13.9976   25.6698 C   0  0  1  0  0  0  0  0  0  0  0  0
    9.6399  -15.0292   24.7694 N   0  0  0  0  0  0  0  0  0  0  0  0
    9.5616  -14.5538   23.4027 C   0  0  0  0  0  0  0  0  0  0  0  0
    8.2620  -15.3154   25.2213 O   0  0  0  0  0  0  0  0  0  0  0  0
    7.9330  -16.4129   26.0163 C   0  0  0  0  0  0  0  0  0  0  0  0
   11.0876  -15.6039   27.3980 C   0  0  0  0  0  0  0  0  0  0  0  0
   11.1165  -16.0496   28.7146 O   0  0  0  0  0  0  0  0  0  0  0  0
  1  2  1  0
  2  4  1  0
  2  3  2  0
  4  5  1  0
  6  5  1  0
  7  6  1  0
  8  7  1  0
  8  9  1  6
 10  8  1  0
 10 16  1  0
 11 10  2  0
 13 12  1  1
 13 14  1  0
 13 15  1  0
 15 17  1  0
 15 16  1  1
 17 18  2  0
 19 20  1  0
 20 30  2  0
 21 22  2  0
 21 20  1  0
 22 23  1  0
 23 24  1  0
 23 29  2  0
 25 24  1  6
 26 25  1  0
 26 17  1  0
 27 25  1  0
 28 27  1  0
 30 29  1  0
 31 27  2  0
M  END
$$$$
