RVY.pdb
     RDKit          3D

 31 31  0  0  1  0  0  0  0  0999 V2000
    9.6592  -18.8830   17.4365 N   0  0  0  0  0  0  0  0  0  0  0  0
    8.3629  -19.4601   17.5063 C   0  0  0  0  0  0  0  0  0  0  0  0
    7.8218  -19.8561   16.4261 N   0  0  0  0  0  0  0  0  0  0  0  0
    7.6726  -19.5998   18.7423 N   0  0  0  0  0  0  0  0  0  0  0  0
    8.1618  -18.9491   19.9233 C   0  0  0  0  0  0  0  0  0  0  0  0
    7.3859  -17.6864   20.1968 C   0  0  0  0  0  0  0  0  0  0  0  0
    7.9436  -16.9320   21.3935 C   0  0  0  0  0  0  0  0  0  0  0  0
    7.1057  -15.6926   21.5738 C   0  0  2  0  0  0  0  0  0  0  0  0
    7.0947  -14.9753   20.3123 N   0  0  0  0  0  0  0  0  0  0  0  0
    7.7147  -14.7843   22.5858 C   0  0  0  0  0  0  0  0  0  0  0  0
    8.7401  -14.1423   22.2415 O   0  0  0  0  0  0  0  0  0  0  0  0
    6.8629  -20.2604   16.3517 C   0  0  0  0  0  0  0  0  0  0  0  0
    7.4181  -12.3382   26.8660 C   0  0  2  0  0  0  0  0  0  0  0  0
    6.8420  -13.1933   25.7771 C   0  0  0  0  0  0  0  0  0  0  0  0
    5.6818  -12.5244   25.1206 C   0  0  1  0  0  0  0  0  0  0  0  0
    7.8700  -13.7400   24.8224 N   0  0  0  0  0  0  0  0  0  0  0  0
    7.1879  -14.6251   23.8917 C   0  0  0  0  0  0  0  0  0  0  0  0
    8.9545  -14.4175   25.5322 O   0  0  0  0  0  0  0  0  0  0  0  0
    8.9627  -14.3781   26.8160 O   0  0  0  0  0  0  0  0  0  0  0  0
   11.2037  -14.9859   32.1030 C   0  0  0  0  0  0  0  0  0  0  0  0
   11.0233  -15.4123   30.7882 C   0  0  0  0  0  0  0  0  0  0  0  0
   10.8463  -16.7430   30.5127 C   0  0  0  0  0  0  0  0  0  0  0  0
   10.6701  -17.1469   29.2143 C   0  0  0  0  0  0  0  0  0  0  0  0
   10.6617  -16.2650   28.1506 C   0  0  0  0  0  0  0  0  0  0  0  0
   10.4643  -16.7580   26.7679 C   0  0  2  0  0  0  0  0  0  0  0  0
   11.0654  -15.7736   25.7775 N   0  0  0  0  0  0  0  0  0  0  0  0
   10.0333  -15.1372   24.9840 C   0  0  0  0  0  0  0  0  0  0  0  0
   11.9839  -16.4610   24.8454 O   0  0  0  0  0  0  0  0  0  0  0  0
   11.6195  -16.8329   23.5517 C   0  0  0  0  0  0  0  0  0  0  0  0
   10.8378  -14.9394   28.4231 C   0  0  0  0  0  0  0  0  0  0  0  0
   11.0179  -14.5119   29.7337 O   0  0  0  0  0  0  0  0  0  0  0  0
  1  2  1  0
  2  4  1  0
  2  3  2  0
  4  5  1  0
  6  5  1  0
  7  6  1  0
  8  7  1  0
  8  9  1  6
 10  8  1  0
 10 16  1  0
 11 10  2  0
 13 12  1  1
 13 14  1  0
 13 15  1  0
 15 17  1  0
 15 16  1  1
 17 18  2  0
 19 20  1  0
 20 30  2  0
 21 22  2  0
 21 20  1  0
 22 23  1  0
 23 24  1  0
 23 29  2  0
 25 24  1  1
 26 25  1  0
 26 17  1  0
 27 25  1  0
 28 27  1  0
 30 29  1  0
 31 27  2  0
M  END
$$$$
