RVY.pdb
     RDKit          3D

 31 31  0  0  1  0  0  0  0  0999 V2000
   12.7171  -20.8706   18.5684 N   0  0  0  0  0  0  0  0  0  0  0  0
   13.3668  -20.6919   19.8192 C   0  0  0  0  0  0  0  0  0  0  0  0
   14.6097  -20.9486   19.8935 N   0  0  0  0  0  0  0  0  0  0  0  0
   12.6624  -20.2389   20.9691 N   0  0  0  0  0  0  0  0  0  0  0  0
   11.2312  -20.1450   20.9521 C   0  0  0  0  0  0  0  0  0  0  0  0
   10.7863  -18.9149   20.2037 C   0  0  0  0  0  0  0  0  0  0  0  0
    9.4671  -19.1422   19.4823 C   0  0  0  0  0  0  0  0  0  0  0  0
    9.1750  -17.9019   18.6780 C   0  0  2  0  0  0  0  0  0  0  0  0
   10.1158  -17.8555   17.5741 N   0  0  0  0  0  0  0  0  0  0  0  0
    9.4008  -16.6761   19.4943 C   0  0  0  0  0  0  0  0  0  0  0  0
   10.5858  -16.2701   19.6094 O   0  0  0  0  0  0  0  0  0  0  0  0
   15.1777  -20.9033   20.7674 C   0  0  0  0  0  0  0  0  0  0  0  0
    7.5347  -12.8220   21.9990 C   0  0  2  0  0  0  0  0  0  0  0  0
    7.4417  -13.9337   20.9968 C   0  0  0  0  0  0  0  0  0  0  0  0
    6.9713  -13.4312   19.6736 C   0  0  1  0  0  0  0  0  0  0  0  0
    8.6696  -14.8029   20.9342 N   0  0  0  0  0  0  0  0  0  0  0  0
    8.3485  -15.9708   20.1295 C   0  0  0  0  0  0  0  0  0  0  0  0
    9.1376  -15.1671   22.2712 O   0  0  0  0  0  0  0  0  0  0  0  0
    8.4472  -16.0097   22.9515 O   0  0  0  0  0  0  0  0  0  0  0  0
   10.4082  -15.5670   30.6686 C   0  0  0  0  0  0  0  0  0  0  0  0
   10.1334  -15.3486   29.3196 C   0  0  0  0  0  0  0  0  0  0  0  0
   10.2834  -14.0984   28.7786 C   0  0  0  0  0  0  0  0  0  0  0  0
   10.0092  -13.8994   27.4501 C   0  0  0  0  0  0  0  0  0  0  0  0
    9.5818  -14.9130   26.6139 C   0  0  0  0  0  0  0  0  0  0  0  0
    9.3029  -14.6403   25.1850 C   0  0  1  0  0  0  0  0  0  0  0  0
   10.5409  -14.9314   24.3521 N   0  0  0  0  0  0  0  0  0  0  0  0
   10.2858  -14.7066   22.9434 C   0  0  0  0  0  0  0  0  0  0  0  0
   10.9608  -16.3398   24.5097 O   0  0  0  0  0  0  0  0  0  0  0  0
   10.2378  -17.4134   23.9907 C   0  0  0  0  0  0  0  0  0  0  0  0
    9.4320  -16.1586   27.1508 C   0  0  0  0  0  0  0  0  0  0  0  0
    9.7054  -16.3787   28.4960 O   0  0  0  0  0  0  0  0  0  0  0  0
  1  2  1  0
  2  4  1  0
  2  3  2  0
  4  5  1  0
  6  5  1  0
  7  6  1  0
  8  7  1  0
  8  9  1  6
 10  8  1  0
 10 16  1  0
 11 10  2  0
 13 12  1  1
 13 14  1  0
 13 15  1  0
 15 17  1  0
 15 16  1  1
 17 18  2  0
 19 20  1  0
 20 30  2  0
 21 22  2  0
 21 20  1  0
 22 23  1  0
 23 24  1  0
 23 29  2  0
 25 24  1  1
 26 25  1  0
 26 17  1  0
 27 25  1  0
 28 27  1  0
 30 29  1  0
 31 27  2  0
M  END
$$$$
