RVY.pdb
     RDKit          3D

 31 31  0  0  1  0  0  0  0  0999 V2000
    7.6166  -22.5495   15.4813 N   0  0  0  0  0  0  0  0  0  0  0  0
    6.7722  -21.6786   16.2210 C   0  0  0  0  0  0  0  0  0  0  0  0
    5.6449  -22.1200   16.6092 N   0  0  0  0  0  0  0  0  0  0  0  0
    7.1601  -20.3450   16.5290 N   0  0  0  0  0  0  0  0  0  0  0  0
    8.5482  -19.9865   16.5762 C   0  0  0  0  0  0  0  0  0  0  0  0
    9.0813  -20.1020   17.9811 C   0  0  0  0  0  0  0  0  0  0  0  0
    8.5892  -18.9662   18.8643 C   0  0  0  0  0  0  0  0  0  0  0  0
    9.1610  -17.6865   18.3112 C   0  0  2  0  0  0  0  0  0  0  0  0
   10.4732  -17.9837   17.7676 N   0  0  0  0  0  0  0  0  0  0  0  0
    9.3556  -16.6819   19.3942 C   0  0  0  0  0  0  0  0  0  0  0  0
   10.4474  -16.7110   20.0183 O   0  0  0  0  0  0  0  0  0  0  0  0
    4.9427  -21.5705   17.1508 C   0  0  0  0  0  0  0  0  0  0  0  0
    7.7463  -12.6354   21.7933 C   0  0  1  0  0  0  0  0  0  0  0  0
    7.5913  -13.6952   20.7438 C   0  0  0  0  0  0  0  0  0  0  0  0
    7.3338  -13.0950   19.4028 C   0  0  1  0  0  0  0  0  0  0  0  0
    8.6783  -14.7369   20.7636 N   0  0  0  0  0  0  0  0  0  0  0  0
    8.3737  -15.7186   19.7349 C   0  0  0  0  0  0  0  0  0  0  0  0
    8.8116  -15.3479   22.0856 O   0  0  0  0  0  0  0  0  0  0  0  0
    8.0486  -16.3381   22.3807 O   0  0  0  0  0  0  0  0  0  0  0  0
    6.6381  -10.3175   27.0015 C   0  0  0  0  0  0  0  0  0  0  0  0
    7.0007  -11.5631   26.4916 C   0  0  0  0  0  0  0  0  0  0  0  0
    6.0617  -12.3654   25.8979 C   0  0  0  0  0  0  0  0  0  0  0  0
    6.4338  -13.5880   25.4011 C   0  0  0  0  0  0  0  0  0  0  0  0
    7.7304  -14.0608   25.4698 C   0  0  0  0  0  0  0  0  0  0  0  0
    8.0756  -15.3894   24.9135 C   0  0  2  0  0  0  0  0  0  0  0  0
    9.5381  -15.4117   24.4988 N   0  0  0  0  0  0  0  0  0  0  0  0
    9.6955  -14.9899   23.1214 C   0  0  0  0  0  0  0  0  0  0  0  0
   10.0959  -16.7758   24.6136 O   0  0  0  0  0  0  0  0  0  0  0  0
   11.1405  -17.2418   23.8159 C   0  0  0  0  0  0  0  0  0  0  0  0
    8.6668  -13.2632   26.0607 C   0  0  0  0  0  0  0  0  0  0  0  0
    8.3074  -12.0205   26.5699 O   0  0  0  0  0  0  0  0  0  0  0  0
  1  2  1  0
  2  4  1  0
  2  3  2  0
  4  5  1  0
  6  5  1  0
  7  6  1  0
  8  7  1  0
  8  9  1  1
 10  8  1  0
 10 16  1  0
 11 10  2  0
 13 12  1  1
 13 14  1  0
 13 15  1  0
 15 17  1  0
 15 16  1  1
 17 18  2  0
 19 20  1  0
 20 30  2  0
 21 22  2  0
 21 20  1  0
 22 23  1  0
 23 24  1  0
 23 29  2  0
 25 24  1  1
 26 25  1  0
 26 17  1  0
 27 25  1  0
 28 27  1  0
 30 29  1  0
 31 27  2  0
M  END
$$$$
