RVY.pdb
     RDKit          3D

 31 31  0  0  1  0  0  0  0  0999 V2000
    9.2309  -13.8908   19.3015 N   0  0  0  0  0  0  0  0  0  0  0  0
    8.0247  -13.5533   18.6310 C   0  0  0  0  0  0  0  0  0  0  0  0
    7.9164  -12.3861   18.1389 N   0  0  0  0  0  0  0  0  0  0  0  0
    6.9554  -14.4829   18.5033 N   0  0  0  0  0  0  0  0  0  0  0  0
    6.8447  -15.5892   19.4095 C   0  0  0  0  0  0  0  0  0  0  0  0
    6.5180  -15.1090   20.8001 C   0  0  0  0  0  0  0  0  0  0  0  0
    5.2334  -15.7325   21.3229 C   0  0  0  0  0  0  0  0  0  0  0  0
    5.5083  -17.1947   21.5618 C   0  0  2  0  0  0  0  0  0  0  0  0
    4.2335  -17.8871   21.5977 N   0  0  0  0  0  0  0  0  0  0  0  0
    6.1541  -17.4022   22.8884 C   0  0  0  0  0  0  0  0  0  0  0  0
    5.6034  -16.8715   23.8871 O   0  0  0  0  0  0  0  0  0  0  0  0
    7.0957  -12.0411   17.5949 C   0  0  0  0  0  0  0  0  0  0  0  0
    9.2864  -19.5704   25.9427 C   0  0  2  0  0  0  0  0  0  0  0  0
    8.4056  -19.4947   24.7314 C   0  0  0  0  0  0  0  0  0  0  0  0
    7.2432  -20.4220   24.8490 C   0  0  1  0  0  0  0  0  0  0  0  0
    8.0456  -18.0901   24.3257 N   0  0  0  0  0  0  0  0  0  0  0  0
    7.3398  -18.1599   23.0562 C   0  0  0  0  0  0  0  0  0  0  0  0
    9.2286  -17.2334   24.2517 O   0  0  0  0  0  0  0  0  0  0  0  0
    9.9073  -17.2219   23.1614 O   0  0  0  0  0  0  0  0  0  0  0  0
    9.5445  -15.7460   31.3010 C   0  0  0  0  0  0  0  0  0  0  0  0
    9.9036  -15.4178   29.9947 C   0  0  0  0  0  0  0  0  0  0  0  0
    9.0033  -14.8007   29.1661 C   0  0  0  0  0  0  0  0  0  0  0  0
    9.3714  -14.4842   27.8838 C   0  0  0  0  0  0  0  0  0  0  0  0
   10.6262  -14.7606   27.3753 C   0  0  0  0  0  0  0  0  0  0  0  0
   10.9695  -14.3933   25.9822 C   0  0  1  0  0  0  0  0  0  0  0  0
   10.9818  -15.6370   25.1079 N   0  0  0  0  0  0  0  0  0  0  0  0
    9.7479  -16.3840   25.2473 C   0  0  0  0  0  0  0  0  0  0  0  0
   12.0921  -16.5355   25.4883 O   0  0  0  0  0  0  0  0  0  0  0  0
   13.4323  -16.2365   25.2450 C   0  0  0  0  0  0  0  0  0  0  0  0
   11.5241  -15.3751   28.1991 C   0  0  0  0  0  0  0  0  0  0  0  0
   11.1680  -15.7033   29.5023 O   0  0  0  0  0  0  0  0  0  0  0  0
  1  2  1  0
  2  4  1  0
  2  3  2  0
  4  5  1  0
  6  5  1  0
  7  6  1  0
  8  7  1  0
  8  9  1  1
 10  8  1  0
 10 16  1  0
 11 10  2  0
 13 12  1  6
 13 14  1  0
 13 15  1  0
 15 17  1  0
 15 16  1  6
 17 18  2  0
 19 20  1  0
 20 30  2  0
 21 22  2  0
 21 20  1  0
 22 23  1  0
 23 24  1  0
 23 29  2  0
 25 24  1  6
 26 25  1  0
 26 17  1  0
 27 25  1  0
 28 27  1  0
 30 29  1  0
 31 27  2  0
M  END
$$$$
