RVY.pdb
     RDKit          3D

 31 31  0  0  1  0  0  0  0  0999 V2000
   12.4709  -20.5790   14.6676 N   0  0  0  0  0  0  0  0  0  0  0  0
   11.5659  -21.1649   15.5928 C   0  0  0  0  0  0  0  0  0  0  0  0
   10.6816  -21.9620   15.1467 N   0  0  0  0  0  0  0  0  0  0  0  0
   11.6313  -20.8796   16.9849 N   0  0  0  0  0  0  0  0  0  0  0  0
   10.9486  -19.7391   17.5240 C   0  0  0  0  0  0  0  0  0  0  0  0
   11.0848  -18.5524   16.6050 C   0  0  0  0  0  0  0  0  0  0  0  0
   10.4256  -17.3119   17.1871 C   0  0  0  0  0  0  0  0  0  0  0  0
    9.8368  -17.6989   18.5191 C   0  0  2  0  0  0  0  0  0  0  0  0
    8.4396  -18.0297   18.3089 N   0  0  0  0  0  0  0  0  0  0  0  0
    9.8744  -16.5509   19.4682 C   0  0  0  0  0  0  0  0  0  0  0  0
   11.0012  -16.0583   19.7330 O   0  0  0  0  0  0  0  0  0  0  0  0
    9.9706  -22.4530   15.7314 C   0  0  0  0  0  0  0  0  0  0  0  0
    7.5504  -13.1445   22.2067 C   0  0  2  0  0  0  0  0  0  0  0  0
    7.5789  -14.1905   21.1326 C   0  0  0  0  0  0  0  0  0  0  0  0
    7.1601  -13.6264   19.8169 C   0  0  1  0  0  0  0  0  0  0  0  0
    8.8549  -14.9889   21.0923 N   0  0  0  0  0  0  0  0  0  0  0  0
    8.7095  -16.0100   20.0671 C   0  0  0  0  0  0  0  0  0  0  0  0
    9.1701  -15.5626   22.4001 O   0  0  0  0  0  0  0  0  0  0  0  0
    8.4858  -16.5709   22.8059 O   0  0  0  0  0  0  0  0  0  0  0  0
   10.0531  -14.1069   30.7157 C   0  0  0  0  0  0  0  0  0  0  0  0
    9.8166  -14.5262   29.4075 C   0  0  0  0  0  0  0  0  0  0  0  0
   10.0049  -15.8381   29.0590 C   0  0  0  0  0  0  0  0  0  0  0  0
    9.7681  -16.2353   27.7682 C   0  0  0  0  0  0  0  0  0  0  0  0
    9.3417  -15.3648   26.7834 C   0  0  0  0  0  0  0  0  0  0  0  0
    9.0991  -15.8506   25.4054 C   0  0  2  0  0  0  0  0  0  0  0  0
   10.3854  -15.7790   24.5982 N   0  0  0  0  0  0  0  0  0  0  0  0
   10.1594  -15.1492   23.3127 C   0  0  0  0  0  0  0  0  0  0  0  0
   10.9216  -17.1326   24.3431 O   0  0  0  0  0  0  0  0  0  0  0  0
   10.1527  -18.2906   24.4551 C   0  0  0  0  0  0  0  0  0  0  0  0
    9.1537  -14.0580   27.1287 C   0  0  0  0  0  0  0  0  0  0  0  0
    9.3889  -13.6376   28.4328 O   0  0  0  0  0  0  0  0  0  0  0  0
  1  2  1  0
  2  4  1  0
  2  3  2  0
  4  5  1  0
  6  5  1  0
  7  6  1  0
  8  7  1  0
  8  9  1  6
 10  8  1  0
 10 16  1  0
 11 10  2  0
 13 12  1  1
 13 14  1  0
 13 15  1  0
 15 17  1  0
 15 16  1  1
 17 18  2  0
 19 20  1  0
 20 30  2  0
 21 22  2  0
 21 20  1  0
 22 23  1  0
 23 24  1  0
 23 29  2  0
 25 24  1  1
 26 25  1  0
 26 17  1  0
 27 25  1  0
 28 27  1  0
 30 29  1  0
 31 27  2  0
M  END
$$$$
