LLI.pdb
     RDKit          3D

 25 24  0  0  1  0  0  0  0  0999 V2000
   20.9246  -38.2903  -12.4616 C   0  0  0  0  0  0  0  0  0  0  0  0
   21.0106  -37.4271  -13.6914 C   0  0  2  0  0  0  0  0  0  0  0  0
   20.4281  -38.0987  -14.8910 C   0  0  0  0  0  0  0  0  0  0  0  0
   22.4555  -36.9907  -13.9182 C   0  0  0  0  0  0  0  0  0  0  0  0
   22.9439  -36.4206  -12.6038 C   0  0  2  0  0  0  0  0  0  0  0  0
   22.3144  -35.1044  -12.4737 N   0  0  0  0  0  0  0  0  0  0  0  0
   24.4211  -36.2692  -12.5976 C   0  0  0  0  0  0  0  0  0  0  0  0
   25.1227  -37.2859  -12.7053 O   0  0  0  0  0  0  0  0  0  0  0  0
   28.0847  -32.4490  -14.9702 C   0  0  0  0  0  0  0  0  0  0  0  0
   27.9233  -33.8302  -14.2834 C   0  0  2  0  0  0  0  0  0  0  0  0
   27.6396  -34.7834  -15.4019 C   0  0  0  0  0  0  0  0  0  0  0  0
   26.8258  -33.6469  -13.3198 C   0  0  0  0  0  0  0  0  0  0  0  0
   26.4783  -34.8003  -12.4194 C   0  0  2  0  0  0  0  0  0  0  0  0
   24.9967  -34.9841  -12.4705 N   0  0  0  0  0  0  0  0  0  0  0  0
   26.8301  -34.6476  -11.0174 C   0  0  0  0  0  0  0  0  0  0  0  0
   28.0256  -34.5836  -10.6412 O   0  0  0  0  0  0  0  0  0  0  0  0
   24.1960  -31.0786   -8.5499 C   0  0  0  0  0  0  0  0  0  0  0  0
   25.3033  -32.0245   -8.9905 C   0  0  0  0  0  0  0  0  0  0  0  0
   25.2298  -33.2471   -8.1050 C   0  0  2  0  0  0  0  0  0  0  0  0
   25.5384  -32.8473   -6.6964 C   0  0  0  0  0  0  0  0  0  0  0  0
   26.1683  -34.3307   -8.6127 C   0  0  2  0  0  0  0  0  0  0  0  0
   25.8384  -34.5607  -10.0132 N   0  0  0  0  0  0  0  0  0  0  0  0
   26.0933  -35.5515   -7.8113 C   0  0  0  0  0  0  0  0  0  0  0  0
   26.9193  -35.7723   -6.6975 O   0  0  0  0  0  0  0  0  0  0  0  0
   25.2750  -36.4633   -8.0924 O   0  0  0  0  0  0  0  0  0  0  0  0
  2  1  1  1
  2  3  1  0
  4  5  1  0
  4  2  1  0
  5  6  1  6
  7  5  1  0
  7  8  2  0
 10  9  1  6
 11 10  1  0
 12 10  1  0
 13 12  1  6
 13 14  1  0
 14  7  1  0
 15 13  1  0
 16 15  2  0
 17 18  1  0
 18 19  1  0
 19 21  1  0
 19 20  1  1
 21 22  1  6
 21 23  1  0
 22 15  1  0
 23 24  1  0
 25 23  2  0
M  END
$$$$
