LLI.pdb
     RDKit          3D

 25 24  0  0  1  0  0  0  0  0999 V2000
   27.8973  -19.8767  -17.5121 C   0  0  0  0  0  0  0  0  0  0  0  0
   28.8264  -20.3365  -16.4211 C   0  0  2  0  0  0  0  0  0  0  0  0
   29.9106  -21.2210  -16.9423 C   0  0  0  0  0  0  0  0  0  0  0  0
   28.0257  -21.0006  -15.3043 C   0  0  0  0  0  0  0  0  0  0  0  0
   26.7816  -20.1608  -15.1090 C   0  0  2  0  0  0  0  0  0  0  0  0
   27.2372  -18.8835  -14.5555 N   0  0  0  0  0  0  0  0  0  0  0  0
   25.8385  -20.8066  -14.1611 C   0  0  0  0  0  0  0  0  0  0  0  0
   25.4148  -21.9415  -14.4256 O   0  0  0  0  0  0  0  0  0  0  0  0
   26.0443  -22.1593   -9.8598 C   0  0  0  0  0  0  0  0  0  0  0  0
   26.1485  -20.6281  -10.0840 C   0  0  2  0  0  0  0  0  0  0  0  0
   26.4575  -20.0633   -8.7330 C   0  0  0  0  0  0  0  0  0  0  0  0
   24.8445  -20.2390  -10.6451 C   0  0  0  0  0  0  0  0  0  0  0  0
   24.4891  -20.7421  -12.0172 C   0  0  2  0  0  0  0  0  0  0  0  0
   25.4438  -20.1255  -12.9867 N   0  0  0  0  0  0  0  0  0  0  0  0
   23.1523  -20.4233  -12.4904 C   0  0  0  0  0  0  0  0  0  0  0  0
   22.5620  -19.3730  -12.1391 O   0  0  0  0  0  0  0  0  0  0  0  0
   21.6678  -20.9121  -17.4769 C   0  0  0  0  0  0  0  0  0  0  0  0
   21.7898  -20.4713  -16.0258 C   0  0  0  0  0  0  0  0  0  0  0  0
   20.9150  -21.3878  -15.2018 C   0  0  2  0  0  0  0  0  0  0  0  0
   19.4998  -21.2621  -15.6715 C   0  0  0  0  0  0  0  0  0  0  0  0
   21.0582  -21.0728  -13.7208 C   0  0  2  0  0  0  0  0  0  0  0  0
   22.4573  -21.2829  -13.3720 N   0  0  0  0  0  0  0  0  0  0  0  0
   20.1491  -21.8647  -12.8934 C   0  0  0  0  0  0  0  0  0  0  0  0
   19.0012  -21.3158  -12.2995 O   0  0  0  0  0  0  0  0  0  0  0  0
   20.3631  -23.0846  -12.6787 O   0  0  0  0  0  0  0  0  0  0  0  0
  2  1  1  6
  2  3  1  0
  4  5  1  0
  4  2  1  0
  5  6  1  1
  7  5  1  0
  7  8  2  0
 10  9  1  1
 11 10  1  0
 12 10  1  0
 13 12  1  1
 13 14  1  0
 14  7  1  0
 15 13  1  0
 16 15  2  0
 17 18  1  0
 18 19  1  0
 19 21  1  0
 19 20  1  6
 21 22  1  1
 21 23  1  0
 22 15  1  0
 23 24  1  0
 25 23  2  0
M  END
$$$$
