LLI.pdb
     RDKit          3D

 25 24  0  0  1  0  0  0  0  0999 V2000
   20.8087  -18.3690  -11.5101 C   0  0  0  0  0  0  0  0  0  0  0  0
   21.9963  -18.9466  -12.2316 C   0  0  2  0  0  0  0  0  0  0  0  0
   21.7525  -19.0787  -13.6988 C   0  0  0  0  0  0  0  0  0  0  0  0
   22.3973  -20.2727  -11.5909 C   0  0  0  0  0  0  0  0  0  0  0  0
   23.6321  -20.7491  -12.3253 C   0  0  2  0  0  0  0  0  0  0  0  0
   23.2048  -21.8883  -13.1407 N   0  0  0  0  0  0  0  0  0  0  0  0
   24.6892  -21.1835  -11.3772 C   0  0  0  0  0  0  0  0  0  0  0  0
   24.4655  -22.1585  -10.6444 O   0  0  0  0  0  0  0  0  0  0  0  0
   30.6935  -20.7564  -11.4134 C   0  0  0  0  0  0  0  0  0  0  0  0
   29.5530  -21.1280  -10.4302 C   0  0  2  0  0  0  0  0  0  0  0  0
   29.7555  -22.5824  -10.1407 C   0  0  0  0  0  0  0  0  0  0  0  0
   28.3119  -20.7968  -11.1489 C   0  0  0  0  0  0  0  0  0  0  0  0
   27.0121  -20.9126  -10.4012 C   0  0  2  0  0  0  0  0  0  0  0  0
   25.9186  -20.4872  -11.3258 N   0  0  0  0  0  0  0  0  0  0  0  0
   26.8858  -20.0967   -9.2050 C   0  0  0  0  0  0  0  0  0  0  0  0
   26.4031  -18.9389   -9.2450 O   0  0  0  0  0  0  0  0  0  0  0  0
   25.9580  -22.1923   -4.2348 C   0  0  0  0  0  0  0  0  0  0  0  0
   25.9173  -21.2377   -5.4189 C   0  0  0  0  0  0  0  0  0  0  0  0
   27.2898  -20.6177   -5.5448 C   0  0  2  0  0  0  0  0  0  0  0  0
   27.6108  -19.8847   -4.2803 C   0  0  0  0  0  0  0  0  0  0  0  0
   27.3567  -19.7129   -6.7653 C   0  0  2  0  0  0  0  0  0  0  0  0
   27.2990  -20.5736   -7.9397 N   0  0  0  0  0  0  0  0  0  0  0  0
   28.5404  -18.8545   -6.7570 C   0  0  0  0  0  0  0  0  0  0  0  0
   29.8019  -19.3082   -7.1745 O   0  0  0  0  0  0  0  0  0  0  0  0
   28.4735  -17.6603   -6.3702 O   0  0  0  0  0  0  0  0  0  0  0  0
  2  1  1  1
  2  3  1  0
  4  5  1  0
  4  2  1  0
  5  6  1  6
  7  5  1  0
  7  8  2  0
 10  9  1  6
 11 10  1  0
 12 10  1  0
 13 12  1  6
 13 14  1  0
 14  7  1  0
 15 13  1  0
 16 15  2  0
 17 18  1  0
 18 19  1  0
 19 21  1  0
 19 20  1  1
 21 22  1  6
 21 23  1  0
 22 15  1  0
 23 24  1  0
 25 23  2  0
M  END
$$$$
