LLI.pdb
     RDKit          3D

 25 24  0  0  1  0  0  0  0  0999 V2000
   29.1044  -21.4601  -14.9133 C   0  0  0  0  0  0  0  0  0  0  0  0
   28.8952  -20.0411  -15.3688 C   0  0  2  0  0  0  0  0  0  0  0  0
   30.1843  -19.3557  -15.6818 C   0  0  0  0  0  0  0  0  0  0  0  0
   28.0729  -19.2800  -14.3324 C   0  0  0  0  0  0  0  0  0  0  0  0
   26.8450  -20.1207  -14.0560 C   0  0  2  0  0  0  0  0  0  0  0  0
   25.9231  -19.8697  -15.1662 N   0  0  0  0  0  0  0  0  0  0  0  0
   26.2013  -19.7302  -12.7760 C   0  0  0  0  0  0  0  0  0  0  0  0
   26.0983  -18.5242  -12.5067 O   0  0  0  0  0  0  0  0  0  0  0  0
   22.4188  -18.9710  -11.5064 C   0  0  0  0  0  0  0  0  0  0  0  0
   22.7785  -20.4405  -11.8482 C   0  0  2  0  0  0  0  0  0  0  0  0
   21.4602  -21.1346  -11.9897 C   0  0  0  0  0  0  0  0  0  0  0  0
   23.6119  -20.8966  -10.7240 C   0  0  0  0  0  0  0  0  0  0  0  0
   25.0170  -20.3688  -10.6286 C   0  0  2  0  0  0  0  0  0  0  0  0
   25.7222  -20.7275  -11.8957 N   0  0  0  0  0  0  0  0  0  0  0  0
   25.8259  -20.8923   -9.5403 C   0  0  0  0  0  0  0  0  0  0  0  0
   26.2900  -22.0579   -9.5659 O   0  0  0  0  0  0  0  0  0  0  0  0
   29.2698  -18.1487   -6.4562 C   0  0  0  0  0  0  0  0  0  0  0  0
   28.5528  -19.2547   -7.2163 C   0  0  0  0  0  0  0  0  0  0  0  0
   27.3525  -19.6617   -6.3930 C   0  0  2  0  0  0  0  0  0  0  0  0
   27.8210  -20.1563   -5.0607 C   0  0  0  0  0  0  0  0  0  0  0  0
   26.5259  -20.7019   -7.1331 C   0  0  2  0  0  0  0  0  0  0  0  0
   26.1290  -20.1083   -8.4033 N   0  0  0  0  0  0  0  0  0  0  0  0
   25.3819  -21.1640   -6.3484 C   0  0  0  0  0  0  0  0  0  0  0  0
   25.4686  -22.2447   -5.4562 O   0  0  0  0  0  0  0  0  0  0  0  0
   24.2606  -20.6037   -6.4435 O   0  0  0  0  0  0  0  0  0  0  0  0
  2  1  1  1
  2  3  1  0
  4  5  1  0
  4  2  1  0
  5  6  1  6
  7  5  1  0
  7  8  2  0
 10  9  1  1
 11 10  1  0
 12 10  1  0
 13 12  1  6
 13 14  1  0
 14  7  1  0
 15 13  1  0
 16 15  2  0
 17 18  1  0
 18 19  1  0
 19 21  1  0
 19 20  1  1
 21 22  1  6
 21 23  1  0
 22 15  1  0
 23 24  1  0
 25 23  2  0
M  END
$$$$
