LLI.pdb
     RDKit          3D

 25 24  0  0  1  0  0  0  0  0999 V2000
   20.1349  -17.7014  -13.5202 C   0  0  0  0  0  0  0  0  0  0  0  0
   19.7058  -18.9587  -14.2271 C   0  0  2  0  0  0  0  0  0  0  0  0
   18.3136  -18.8579  -14.7572 C   0  0  0  0  0  0  0  0  0  0  0  0
   19.8868  -20.1602  -13.3034 C   0  0  0  0  0  0  0  0  0  0  0  0
   21.3185  -20.1149  -12.8143 C   0  0  2  0  0  0  0  0  0  0  0  0
   22.1438  -20.5789  -13.9320 N   0  0  0  0  0  0  0  0  0  0  0  0
   21.5171  -21.0073  -11.6442 C   0  0  0  0  0  0  0  0  0  0  0  0
   21.3907  -22.2307  -11.8023 O   0  0  0  0  0  0  0  0  0  0  0  0
   24.9478  -22.0464   -8.7647 C   0  0  0  0  0  0  0  0  0  0  0  0
   24.4218  -20.5876   -8.7927 C   0  0  2  0  0  0  0  0  0  0  0  0
   25.3692  -19.8220   -7.9230 C   0  0  0  0  0  0  0  0  0  0  0  0
   23.0400  -20.6747   -8.2931 C   0  0  0  0  0  0  0  0  0  0  0  0
   22.0098  -21.3203   -9.1783 C   0  0  2  0  0  0  0  0  0  0  0  0
   21.8430  -20.4547  -10.3843 N   0  0  0  0  0  0  0  0  0  0  0  0
   20.6861  -21.4906   -8.6026 C   0  0  0  0  0  0  0  0  0  0  0  0
   19.7956  -20.6152   -8.7277 O   0  0  0  0  0  0  0  0  0  0  0  0
   16.2955  -24.5883   -9.6913 C   0  0  0  0  0  0  0  0  0  0  0  0
   16.8931  -24.0139   -8.4154 C   0  0  0  0  0  0  0  0  0  0  0  0
   18.3160  -23.6105   -8.7266 C   0  0  2  0  0  0  0  0  0  0  0  0
   19.0714  -24.8137   -9.1966 C   0  0  0  0  0  0  0  0  0  0  0  0
   18.9647  -22.9636   -7.5127 C   0  0  2  0  0  0  0  0  0  0  0  0
   20.3412  -22.6542   -7.8772 N   0  0  0  0  0  0  0  0  0  0  0  0
   18.8762  -23.8052   -6.3202 C   0  0  0  0  0  0  0  0  0  0  0  0
   19.9984  -24.4358   -5.7593 O   0  0  0  0  0  0  0  0  0  0  0  0
   17.7765  -23.9996   -5.7431 O   0  0  0  0  0  0  0  0  0  0  0  0
  2  1  1  1
  2  3  1  0
  4  5  1  0
  4  2  1  0
  5  6  1  6
  7  5  1  0
  7  8  2  0
 10  9  1  1
 11 10  1  0
 12 10  1  0
 13 12  1  1
 13 14  1  0
 14  7  1  0
 15 13  1  0
 16 15  2  0
 17 18  1  0
 18 19  1  0
 19 21  1  0
 19 20  1  1
 21 22  1  6
 21 23  1  0
 22 15  1  0
 23 24  1  0
 25 23  2  0
M  END
$$$$
