LLI.pdb
     RDKit          3D

 25 24  0  0  1  0  0  0  0  0999 V2000
   21.7835  -18.9402  -13.3568 C   0  0  0  0  0  0  0  0  0  0  0  0
   21.2968  -20.2839  -12.8853 C   0  0  2  0  0  0  0  0  0  0  0  0
   19.8975  -20.2246  -12.3678 C   0  0  0  0  0  0  0  0  0  0  0  0
   22.2693  -20.8560  -11.8574 C   0  0  0  0  0  0  0  0  0  0  0  0
   23.6430  -20.8065  -12.4910 C   0  0  2  0  0  0  0  0  0  0  0  0
   23.6282  -21.7975  -13.5695 N   0  0  0  0  0  0  0  0  0  0  0  0
   24.7021  -21.1538  -11.5098 C   0  0  0  0  0  0  0  0  0  0  0  0
   24.6882  -22.2820  -10.9955 O   0  0  0  0  0  0  0  0  0  0  0  0
   28.7258  -22.3013  -11.8950 C   0  0  0  0  0  0  0  0  0  0  0  0
   28.4411  -20.8310  -12.2988 C   0  0  2  0  0  0  0  0  0  0  0  0
   29.6974  -20.3671  -12.9668 C   0  0  0  0  0  0  0  0  0  0  0  0
   28.1116  -20.1497  -11.0363 C   0  0  0  0  0  0  0  0  0  0  0  0
   26.8590  -20.5672  -10.3161 C   0  0  2  0  0  0  0  0  0  0  0  0
   25.6969  -20.2043  -11.1817 N   0  0  0  0  0  0  0  0  0  0  0  0
   26.6250  -19.9446   -9.0237 C   0  0  0  0  0  0  0  0  0  0  0  0
   26.0173  -18.8516   -8.9193 O   0  0  0  0  0  0  0  0  0  0  0  0
   26.2959  -22.5388   -4.1736 C   0  0  0  0  0  0  0  0  0  0  0  0
   26.1030  -21.5490   -5.3130 C   0  0  0  0  0  0  0  0  0  0  0  0
   27.3936  -20.7767   -5.4617 C   0  0  2  0  0  0  0  0  0  0  0  0
   27.7165  -20.1128   -4.1601 C   0  0  0  0  0  0  0  0  0  0  0  0
   27.2894  -19.7787   -6.6046 C   0  0  2  0  0  0  0  0  0  0  0  0
   27.0699  -20.5459   -7.8238 N   0  0  0  0  0  0  0  0  0  0  0  0
   28.4620  -18.9097   -6.6926 C   0  0  0  0  0  0  0  0  0  0  0  0
   28.5003  -17.6357   -6.1034 O   0  0  0  0  0  0  0  0  0  0  0  0
   29.4958  -19.2746   -7.3076 O   0  0  0  0  0  0  0  0  0  0  0  0
  2  1  1  1
  2  3  1  0
  4  5  1  0
  4  2  1  0
  5  6  1  6
  7  5  1  0
  7  8  2  0
 10  9  1  1
 11 10  1  0
 12 10  1  0
 13 12  1  6
 13 14  1  0
 14  7  1  0
 15 13  1  0
 16 15  2  0
 17 18  1  0
 18 19  1  0
 19 21  1  0
 19 20  1  1
 21 22  1  6
 21 23  1  0
 22 15  1  0
 23 24  1  0
 25 23  2  0
M  END
$$$$
