LLI.pdb
     RDKit          3D

 25 24  0  0  1  0  0  0  0  0999 V2000
   25.7745  -12.7381  -16.8638 C   0  0  0  0  0  0  0  0  0  0  0  0
   24.4602  -13.4707  -16.8877 C   0  0  2  0  0  0  0  0  0  0  0  0
   24.5269  -14.7177  -17.7064 C   0  0  0  0  0  0  0  0  0  0  0  0
   23.3516  -12.5314  -17.3550 C   0  0  0  0  0  0  0  0  0  0  0  0
   23.3589  -11.3520  -16.4063 C   0  0  2  0  0  0  0  0  0  0  0  0
   23.3591  -11.9181  -15.0554 N   0  0  0  0  0  0  0  0  0  0  0  0
   22.1540  -10.5041  -16.5910 C   0  0  0  0  0  0  0  0  0  0  0  0
   21.9852   -9.9420  -17.6833 O   0  0  0  0  0  0  0  0  0  0  0  0
   16.4836  -10.7695  -15.0748 C   0  0  0  0  0  0  0  0  0  0  0  0
   17.4954   -9.6651  -15.4773 C   0  0  2  0  0  0  0  0  0  0  0  0
   17.0760   -9.2433  -16.8506 C   0  0  0  0  0  0  0  0  0  0  0  0
   18.8145  -10.3128  -15.3938 C   0  0  0  0  0  0  0  0  0  0  0  0
   20.0311   -9.4724  -15.6687 C   0  0  2  0  0  0  0  0  0  0  0  0
   21.2299  -10.3531  -15.5316 N   0  0  0  0  0  0  0  0  0  0  0  0
   20.2427   -8.3412  -14.7808 C   0  0  0  0  0  0  0  0  0  0  0  0
   20.5550   -8.4990  -13.5756 O   0  0  0  0  0  0  0  0  0  0  0  0
   23.1273   -3.3018  -14.5023 C   0  0  0  0  0  0  0  0  0  0  0  0
   21.8469   -3.9383  -13.9821 C   0  0  0  0  0  0  0  0  0  0  0  0
   21.5713   -5.1561  -14.8336 C   0  0  2  0  0  0  0  0  0  0  0  0
   21.4802   -4.7372  -16.2673 C   0  0  0  0  0  0  0  0  0  0  0  0
   20.3106   -5.8633  -14.3611 C   0  0  2  0  0  0  0  0  0  0  0  0
   20.1091   -7.0098  -15.2376 N   0  0  0  0  0  0  0  0  0  0  0  0
   19.1519   -4.9719  -14.3287 C   0  0  0  0  0  0  0  0  0  0  0  0
   18.8707   -4.1431  -13.2307 O   0  0  0  0  0  0  0  0  0  0  0  0
   18.3515   -4.9124  -15.2961 O   0  0  0  0  0  0  0  0  0  0  0  0
  2  1  1  6
  2  3  1  0
  4  5  1  0
  4  2  1  0
  5  6  1  1
  7  5  1  0
  7  8  2  0
 10  9  1  6
 11 10  1  0
 12 10  1  0
 13 12  1  1
 13 14  1  0
 14  7  1  0
 15 13  1  0
 16 15  2  0
 17 18  1  0
 18 19  1  0
 19 21  1  0
 19 20  1  6
 21 22  1  6
 21 23  1  0
 22 15  1  0
 23 24  1  0
 25 23  2  0
M  END
$$$$
