LLI.pdb
     RDKit          3D

 25 24  0  0  1  0  0  0  0  0999 V2000
   22.8371  -18.6683  -13.1349 C   0  0  0  0  0  0  0  0  0  0  0  0
   21.9121  -19.5974  -12.3960 C   0  0  2  0  0  0  0  0  0  0  0  0
   20.6702  -18.9066  -11.9377 C   0  0  0  0  0  0  0  0  0  0  0  0
   22.6595  -20.2659  -11.2453 C   0  0  0  0  0  0  0  0  0  0  0  0
   23.9764  -20.7512  -11.8122 C   0  0  2  0  0  0  0  0  0  0  0  0
   23.6543  -21.9036  -12.6571 N   0  0  0  0  0  0  0  0  0  0  0  0
   24.9066  -21.1693  -10.7329 C   0  0  0  0  0  0  0  0  0  0  0  0
   24.5815  -22.1176  -10.0030 O   0  0  0  0  0  0  0  0  0  0  0  0
   30.0343  -20.6823   -8.7286 C   0  0  0  0  0  0  0  0  0  0  0  0
   29.6140  -21.7721   -9.7491 C   0  0  2  0  0  0  0  0  0  0  0  0
   30.8207  -21.9756  -10.6109 C   0  0  0  0  0  0  0  0  0  0  0  0
   28.4380  -21.2133  -10.4356 C   0  0  0  0  0  0  0  0  0  0  0  0
   27.1833  -21.0096   -9.6318 C   0  0  2  0  0  0  0  0  0  0  0  0
   26.1328  -20.4879  -10.5568 N   0  0  0  0  0  0  0  0  0  0  0  0
   27.2738  -20.0651   -8.5306 C   0  0  0  0  0  0  0  0  0  0  0  0
   27.0979  -18.8344   -8.7021 O   0  0  0  0  0  0  0  0  0  0  0  0
   25.8994  -21.7030   -3.5237 C   0  0  0  0  0  0  0  0  0  0  0  0
   26.0218  -20.8104   -4.7498 C   0  0  0  0  0  0  0  0  0  0  0  0
   27.4573  -20.3437   -4.8254 C   0  0  2  0  0  0  0  0  0  0  0  0
   27.7737  -19.5420   -3.6022 C   0  0  0  0  0  0  0  0  0  0  0  0
   27.6958  -19.5569   -6.1049 C   0  0  2  0  0  0  0  0  0  0  0  0
   27.5613  -20.4924   -7.2139 N   0  0  0  0  0  0  0  0  0  0  0  0
   28.9873  -18.8712   -6.1034 C   0  0  0  0  0  0  0  0  0  0  0  0
   29.1289  -17.5342   -5.6985 O   0  0  0  0  0  0  0  0  0  0  0  0
   30.0355  -19.4604   -6.4697 O   0  0  0  0  0  0  0  0  0  0  0  0
  2  1  1  1
  2  3  1  0
  4  5  1  0
  4  2  1  0
  5  6  1  6
  7  5  1  0
  7  8  2  0
 10  9  1  1
 11 10  1  0
 12 10  1  0
 13 12  1  6
 13 14  1  0
 14  7  1  0
 15 13  1  0
 16 15  2  0
 17 18  1  0
 18 19  1  0
 19 21  1  0
 19 20  1  1
 21 22  1  6
 21 23  1  0
 22 15  1  0
 23 24  1  0
 25 23  2  0
M  END
$$$$
