LLI.pdb
     RDKit          3D

 25 24  0  0  1  0  0  0  0  0999 V2000
   28.0665  -20.7382   -4.3150 C   0  0  0  0  0  0  0  0  0  0  0  0
   28.2558  -20.3656   -5.7607 C   0  0  2  0  0  0  0  0  0  0  0  0
   29.6498  -20.6235   -6.2295 C   0  0  0  0  0  0  0  0  0  0  0  0
   27.8304  -18.9166   -5.9825 C   0  0  0  0  0  0  0  0  0  0  0  0
   28.0537  -18.6227   -7.4504 C   0  0  2  0  0  0  0  0  0  0  0  0
   28.0769  -17.1633   -7.5729 N   0  0  0  0  0  0  0  0  0  0  0  0
   26.9560  -19.1753   -8.2839 C   0  0  0  0  0  0  0  0  0  0  0  0
   25.8162  -18.7050   -8.1526 O   0  0  0  0  0  0  0  0  0  0  0  0
   26.0214  -19.8573  -13.1111 C   0  0  0  0  0  0  0  0  0  0  0  0
   27.3448  -20.3220  -12.4493 C   0  0  2  0  0  0  0  0  0  0  0  0
   28.1278  -20.9509  -13.5589 C   0  0  0  0  0  0  0  0  0  0  0  0
   26.9286  -21.2385  -11.3754 C   0  0  0  0  0  0  0  0  0  0  0  0
   26.1995  -20.6569  -10.1955 C   0  0  2  0  0  0  0  0  0  0  0  0
   27.2248  -20.2159   -9.2025 N   0  0  0  0  0  0  0  0  0  0  0  0
   25.2990  -21.5551   -9.4921 C   0  0  0  0  0  0  0  0  0  0  0  0
   25.2440  -22.7791   -9.7639 O   0  0  0  0  0  0  0  0  0  0  0  0
   24.3318  -21.1077   -4.2367 C   0  0  0  0  0  0  0  0  0  0  0  0
   24.5573  -21.6619   -5.6356 C   0  0  0  0  0  0  0  0  0  0  0  0
   23.2745  -21.4649   -6.4100 C   0  0  2  0  0  0  0  0  0  0  0  0
   22.1645  -22.1767   -5.7027 C   0  0  0  0  0  0  0  0  0  0  0  0
   23.4391  -21.9411   -7.8450 C   0  0  2  0  0  0  0  0  0  0  0  0
   24.4453  -21.0893   -8.4657 N   0  0  0  0  0  0  0  0  0  0  0  0
   22.1746  -21.9415   -8.5792 C   0  0  0  0  0  0  0  0  0  0  0  0
   21.3230  -23.0575   -8.6104 O   0  0  0  0  0  0  0  0  0  0  0  0
   21.7957  -20.9286   -9.2200 O   0  0  0  0  0  0  0  0  0  0  0  0
  2  1  1  1
  2  3  1  0
  4  5  1  0
  4  2  1  0
  5  6  1  1
  7  5  1  0
  7  8  2  0
 10  9  1  6
 11 10  1  0
 12 10  1  0
 13 12  1  6
 13 14  1  0
 14  7  1  0
 15 13  1  0
 16 15  2  0
 17 18  1  0
 18 19  1  0
 19 21  1  0
 19 20  1  1
 21 22  1  6
 21 23  1  0
 22 15  1  0
 23 24  1  0
 25 23  2  0
M  END
$$$$
