LLI.pdb
     RDKit          3D

 25 24  0  0  1  0  0  0  0  0999 V2000
   25.0603  -16.8927  -17.7645 C   0  0  0  0  0  0  0  0  0  0  0  0
   23.8084  -17.6899  -17.5158 C   0  0  2  0  0  0  0  0  0  0  0  0
   22.6092  -16.8158  -17.3508 C   0  0  0  0  0  0  0  0  0  0  0  0
   24.0143  -18.6195  -16.3229 C   0  0  0  0  0  0  0  0  0  0  0  0
   25.2883  -19.3907  -16.5935 C   0  0  2  0  0  0  0  0  0  0  0  0
   24.9703  -20.3354  -17.6667 N   0  0  0  0  0  0  0  0  0  0  0  0
   25.7333  -20.1364  -15.3889 C   0  0  0  0  0  0  0  0  0  0  0  0
   25.0779  -21.1247  -15.0266 O   0  0  0  0  0  0  0  0  0  0  0  0
   29.7650  -22.2129  -13.5242 C   0  0  0  0  0  0  0  0  0  0  0  0
   29.7741  -20.7459  -14.0277 C   0  0  2  0  0  0  0  0  0  0  0  0
   31.1839  -20.2827  -13.8329 C   0  0  0  0  0  0  0  0  0  0  0  0
   28.7666  -20.0577  -13.2044 C   0  0  0  0  0  0  0  0  0  0  0  0
   27.3194  -20.3988  -13.4301 C   0  0  2  0  0  0  0  0  0  0  0  0
   26.8828  -19.7127  -14.6831 N   0  0  0  0  0  0  0  0  0  0  0  0
   26.3938  -19.9882  -12.3872 C   0  0  0  0  0  0  0  0  0  0  0  0
   26.1333  -18.7789  -12.1763 O   0  0  0  0  0  0  0  0  0  0  0  0
   21.6213  -21.2962  -12.0363 C   0  0  0  0  0  0  0  0  0  0  0  0
   22.9656  -20.6041  -11.8669 C   0  0  0  0  0  0  0  0  0  0  0  0
   23.5679  -21.1011  -10.5729 C   0  0  2  0  0  0  0  0  0  0  0  0
   22.6626  -20.7303   -9.4405 C   0  0  0  0  0  0  0  0  0  0  0  0
   24.9721  -20.5463  -10.3903 C   0  0  2  0  0  0  0  0  0  0  0  0
   25.7420  -20.9355  -11.5646 N   0  0  0  0  0  0  0  0  0  0  0  0
   25.5887  -20.9935   -9.1421 C   0  0  0  0  0  0  0  0  0  0  0  0
   25.4604  -20.2780   -7.9408 O   0  0  0  0  0  0  0  0  0  0  0  0
   26.2671  -22.0508   -9.0956 O   0  0  0  0  0  0  0  0  0  0  0  0
  2  1  1  1
  2  3  1  0
  4  5  1  0
  4  2  1  0
  5  6  1  6
  7  5  1  0
  7  8  2  0
 10  9  1  1
 11 10  1  0
 12 10  1  0
 13 12  1  1
 13 14  1  0
 14  7  1  0
 15 13  1  0
 16 15  2  0
 17 18  1  0
 18 19  1  0
 19 21  1  0
 19 20  1  1
 21 22  1  6
 21 23  1  0
 22 15  1  0
 23 24  1  0
 25 23  2  0
M  END
$$$$
