LLI.pdb
     RDKit          3D

 25 24  0  0  1  0  0  0  0  0999 V2000
   25.1399  -26.1253  -15.8964 C   0  0  0  0  0  0  0  0  0  0  0  0
   25.7628  -24.9185  -16.5447 C   0  0  2  0  0  0  0  0  0  0  0  0
   25.2160  -24.6701  -17.9118 C   0  0  0  0  0  0  0  0  0  0  0  0
   27.2827  -25.0579  -16.5469 C   0  0  0  0  0  0  0  0  0  0  0  0
   27.8350  -23.7376  -17.0398 C   0  0  2  0  0  0  0  0  0  0  0  0
   29.2741  -23.9419  -17.2203 N   0  0  0  0  0  0  0  0  0  0  0  0
   27.6058  -22.6544  -16.0503 C   0  0  0  0  0  0  0  0  0  0  0  0
   28.2067  -22.7030  -14.9667 O   0  0  0  0  0  0  0  0  0  0  0  0
   28.3531  -18.1147  -15.7664 C   0  0  0  0  0  0  0  0  0  0  0  0
   27.4350  -18.6286  -16.9060 C   0  0  2  0  0  0  0  0  0  0  0  0
   27.1360  -17.4174  -17.7327 C   0  0  0  0  0  0  0  0  0  0  0  0
   26.2767  -19.2227  -16.2189 C   0  0  0  0  0  0  0  0  0  0  0  0
   26.5021  -20.4666  -15.4043 C   0  0  2  0  0  0  0  0  0  0  0  0
   26.7171  -21.5980  -16.3558 N   0  0  0  0  0  0  0  0  0  0  0  0
   25.4142  -20.8634  -14.5258 C   0  0  0  0  0  0  0  0  0  0  0  0
   24.4504  -21.5520  -14.9402 O   0  0  0  0  0  0  0  0  0  0  0  0
   26.3808  -20.6600   -9.1180 C   0  0  0  0  0  0  0  0  0  0  0  0
   25.9178  -21.2196  -10.4550 C   0  0  0  0  0  0  0  0  0  0  0  0
   24.6943  -20.4363  -10.8716 C   0  0  2  0  0  0  0  0  0  0  0  0
   23.6018  -20.6744   -9.8771 C   0  0  0  0  0  0  0  0  0  0  0  0
   24.2759  -20.8119  -12.2847 C   0  0  2  0  0  0  0  0  0  0  0  0
   25.3954  -20.4931  -13.1614 N   0  0  0  0  0  0  0  0  0  0  0  0
   23.0379  -20.1493  -12.6927 C   0  0  0  0  0  0  0  0  0  0  0  0
   21.7953  -20.8031  -12.6807 O   0  0  0  0  0  0  0  0  0  0  0  0
   23.0382  -18.9520  -13.0754 O   0  0  0  0  0  0  0  0  0  0  0  0
  2  1  1  6
  2  3  1  0
  4  5  1  0
  4  2  1  0
  5  6  1  1
  7  5  1  0
  7  8  2  0
 10  9  1  1
 11 10  1  0
 12 10  1  0
 13 12  1  6
 13 14  1  0
 14  7  1  0
 15 13  1  0
 16 15  2  0
 17 18  1  0
 18 19  1  0
 19 21  1  0
 19 20  1  1
 21 22  1  6
 21 23  1  0
 22 15  1  0
 23 24  1  0
 25 23  2  0
M  END
$$$$
