PLF.pdb
     RDKit          3D

 27 28  0  0  1  0  0  0  0  0999 V2000
    7.5830  -18.8601   20.5875 N   0  0  0  0  0  0  0  0  0  0  0  0
    6.6888  -18.9862   19.4634 C   0  0  0  0  0  0  0  0  0  0  0  0
    7.4525  -18.6633   18.2236 C   0  0  0  0  0  0  0  0  0  0  0  0
    8.8862  -18.7987   18.6149 C   0  0  0  0  0  0  0  0  0  0  0  0
    8.9024  -18.6354   20.0863 C   0  0  1  0  0  0  0  0  0  0  0  0
    9.4841  -17.3530   20.5442 C   0  0  0  0  0  0  0  0  0  0  0  0
   10.6564  -17.0819   20.1694 O   0  0  0  0  0  0  0  0  0  0  0  0
    6.3416  -13.3566   20.0111 C   0  0  0  0  0  0  0  0  0  0  0  0
    7.6252  -14.1610   20.0535 C   0  0  1  0  0  0  0  0  0  0  0  0
    8.5927  -13.4157   19.1093 C   0  0  0  0  0  0  0  0  0  0  0  0
    8.2633  -14.1526   21.3799 C   0  0  0  0  0  0  0  0  0  0  0  0
    9.3686  -15.0840   21.6696 C   0  0  2  0  0  0  0  0  0  0  0  0
    8.8204  -16.4320   21.3591 N   0  0  0  0  0  0  0  0  0  0  0  0
    9.8451  -15.1917   23.0415 C   0  0  0  0  0  0  0  0  0  0  0  0
   10.7546  -14.4908   23.5554 O   0  0  0  0  0  0  0  0  0  0  0  0
    9.2584  -16.1552   23.9024 N   0  0  0  0  0  0  0  0  0  0  0  0
    9.4627  -16.1039   25.3514 C   0  0  1  0  0  0  0  0  0  0  0  0
    8.1364  -16.1058   26.0388 C   0  0  0  0  0  0  0  0  0  0  0  0
    7.6338  -14.7386   26.2996 C   0  0  0  0  0  0  0  0  0  0  0  0
    8.4739  -13.6765   26.0523 C   0  0  0  0  0  0  0  0  0  0  0  0
    8.0198  -12.3855   26.2905 C   0  0  0  0  0  0  0  0  0  0  0  0
    6.7451  -12.1308   26.7702 C   0  0  0  0  0  0  0  0  0  0  0  0
    5.9160  -13.1965   27.0133 C   0  0  0  0  0  0  0  0  0  0  0  0
    6.3655  -14.4893   26.7767 C   0  0  0  0  0  0  0  0  0  0  0  0
   10.3875  -17.1598   25.7729 C   0  0  0  0  0  0  0  0  0  0  0  0
   10.7271  -17.3891   26.9482 O   0  0  0  0  0  0  0  0  0  0  0  0
   10.9456  -17.9887   24.7921 O   0  0  0  0  0  0  0  0  0  0  0  0
  1  2  1  0
  3  2  1  0
  4  5  1  0
  4  3  1  0
  5  1  1  0
  5  6  1  6
  6  7  2  0
  9 10  1  6
  9  8  1  0
 11  9  1  0
 12 11  1  1
 12 13  1  0
 13  6  1  0
 14 15  2  0
 14 12  1  0
 16 14  1  0
 17 16  1  0
 17 18  1  1
 19 18  1  0
 19 20  2  0
 21 20  1  0
 22 21  2  0
 23 24  2  0
 23 22  1  0
 24 19  1  0
 25 17  1  0
 26 25  2  0
 27 25  1  0
M  END
$$$$
