PLF.pdb
     RDKit          3D

 27 28  0  0  1  0  0  0  0  0999 V2000
    7.6327  -18.8415   20.9921 N   0  0  0  0  0  0  0  0  0  0  0  0
    6.6800  -19.0884   19.9382 C   0  0  0  0  0  0  0  0  0  0  0  0
    7.3482  -18.8119   18.6337 C   0  0  0  0  0  0  0  0  0  0  0  0
    8.8082  -18.8479   18.9400 C   0  0  0  0  0  0  0  0  0  0  0  0
    8.9049  -18.5847   20.3938 C   0  0  1  0  0  0  0  0  0  0  0  0
    9.4424  -17.2466   20.7299 C   0  0  0  0  0  0  0  0  0  0  0  0
   10.5809  -16.9493   20.2787 O   0  0  0  0  0  0  0  0  0  0  0  0
    6.5824  -12.8968   20.2692 C   0  0  0  0  0  0  0  0  0  0  0  0
    7.7435  -13.8696   20.3151 C   0  0  1  0  0  0  0  0  0  0  0  0
    8.8362  -13.2260   19.4349 C   0  0  0  0  0  0  0  0  0  0  0  0
    8.3284  -14.0009   21.6594 C   0  0  0  0  0  0  0  0  0  0  0  0
    9.3809  -15.0025   21.9083 C   0  0  2  0  0  0  0  0  0  0  0  0
    8.7720  -16.3003   21.5097 N   0  0  0  0  0  0  0  0  0  0  0  0
    9.8280  -15.2153   23.2778 C   0  0  0  0  0  0  0  0  0  0  0  0
   10.7547  -14.5853   23.8494 O   0  0  0  0  0  0  0  0  0  0  0  0
    9.1884  -16.2067   24.0665 N   0  0  0  0  0  0  0  0  0  0  0  0
    9.3897  -16.2715   25.5155 C   0  0  1  0  0  0  0  0  0  0  0  0
    8.0665  -16.1868   26.2034 C   0  0  0  0  0  0  0  0  0  0  0  0
    7.5555  -14.7999   26.2756 C   0  0  0  0  0  0  0  0  0  0  0  0
    6.3568  -14.5136   25.6621 C   0  0  0  0  0  0  0  0  0  0  0  0
    5.8606  -13.2175   25.7194 C   0  0  0  0  0  0  0  0  0  0  0  0
    6.5343  -12.2000   26.3758 C   0  0  0  0  0  0  0  0  0  0  0  0
    7.7279  -12.4962   26.9838 C   0  0  0  0  0  0  0  0  0  0  0  0
    8.2284  -13.7908   26.9293 C   0  0  0  0  0  0  0  0  0  0  0  0
   10.2031  -17.4395   25.8648 C   0  0  0  0  0  0  0  0  0  0  0  0
   10.5337  -17.7642   27.0200 O   0  0  0  0  0  0  0  0  0  0  0  0
   10.6552  -18.2706   24.8325 O   0  0  0  0  0  0  0  0  0  0  0  0
  1  2  1  0
  3  2  1  0
  4  5  1  0
  4  3  1  0
  5  1  1  0
  5  6  1  6
  6  7  2  0
  9 10  1  6
  9  8  1  0
 11  9  1  0
 12 11  1  1
 12 13  1  0
 13  6  1  0
 14 15  2  0
 14 12  1  0
 16 14  1  0
 17 16  1  0
 17 18  1  1
 19 18  1  0
 19 20  2  0
 21 20  1  0
 22 21  2  0
 23 24  2  0
 23 22  1  0
 24 19  1  0
 25 17  1  0
 26 25  2  0
 27 25  1  0
M  END
$$$$
