PLF.pdb
     RDKit          3D

 27 28  0  0  1  0  0  0  0  0999 V2000
    8.7745  -14.9361   18.2103 N   0  0  0  0  0  0  0  0  0  0  0  0
    7.8714  -14.4360   17.2035 C   0  0  0  0  0  0  0  0  0  0  0  0
    7.2281  -13.1976   17.7303 C   0  0  0  0  0  0  0  0  0  0  0  0
    8.1113  -12.7580   18.8499 C   0  0  0  0  0  0  0  0  0  0  0  0
    8.8425  -13.9760   19.2668 C   0  0  1  0  0  0  0  0  0  0  0  0
    8.4090  -14.5222   20.5730 C   0  0  0  0  0  0  0  0  0  0  0  0
    8.3565  -13.7234   21.5464 O   0  0  0  0  0  0  0  0  0  0  0  0
    8.4978  -19.3205   22.2060 C   0  0  0  0  0  0  0  0  0  0  0  0
    7.5923  -18.7087   21.1561 C   0  0  1  0  0  0  0  0  0  0  0  0
    6.6062  -19.8343   20.7770 C   0  0  0  0  0  0  0  0  0  0  0  0
    6.7699  -17.6063   21.6805 C   0  0  0  0  0  0  0  0  0  0  0  0
    7.4031  -16.3256   22.0440 C   0  0  2  0  0  0  0  0  0  0  0  0
    8.0572  -15.8567   20.7926 N   0  0  0  0  0  0  0  0  0  0  0  0
    8.4724  -16.3349   23.0325 C   0  0  0  0  0  0  0  0  0  0  0  0
    9.6858  -16.5646   22.7930 O   0  0  0  0  0  0  0  0  0  0  0  0
    8.1597  -16.0655   24.3903 N   0  0  0  0  0  0  0  0  0  0  0  0
    9.2065  -15.9961   25.4118 C   0  0  1  0  0  0  0  0  0  0  0  0
    9.5750  -14.5677   25.6468 C   0  0  0  0  0  0  0  0  0  0  0  0
    8.4005  -13.7275   25.9699 C   0  0  0  0  0  0  0  0  0  0  0  0
    8.1415  -13.4495   27.2931 C   0  0  0  0  0  0  0  0  0  0  0  0
    7.0438  -12.6620   27.6162 C   0  0  0  0  0  0  0  0  0  0  0  0
    6.1983  -12.1453   26.6476 C   0  0  0  0  0  0  0  0  0  0  0  0
    6.4656  -12.4285   25.3321 C   0  0  0  0  0  0  0  0  0  0  0  0
    7.5620  -13.2155   25.0039 C   0  0  0  0  0  0  0  0  0  0  0  0
    8.8026  -16.7429   26.6063 C   0  0  0  0  0  0  0  0  0  0  0  0
    7.6948  -17.2853   26.7730 O   0  0  0  0  0  0  0  0  0  0  0  0
    9.7203  -16.8691   27.6563 O   0  0  0  0  0  0  0  0  0  0  0  0
  1  2  1  0
  3  2  1  0
  4  5  1  0
  4  3  1  0
  5  1  1  0
  5  6  1  1
  6  7  2  0
  9 10  1  1
  9  8  1  0
 11  9  1  0
 12 11  1  6
 12 13  1  0
 13  6  1  0
 14 15  2  0
 14 12  1  0
 16 14  1  0
 17 16  1  0
 17 18  1  1
 19 18  1  0
 19 20  2  0
 21 20  1  0
 22 21  2  0
 23 24  2  0
 23 22  1  0
 24 19  1  0
 25 17  1  0
 26 25  2  0
 27 25  1  0
M  END
$$$$
