PLF.pdb
     RDKit          3D

 27 28  0  0  1  0  0  0  0  0999 V2000
    9.3401  -13.7275   19.4807 N   0  0  0  0  0  0  0  0  0  0  0  0
    8.7005  -13.6475   18.1909 C   0  0  0  0  0  0  0  0  0  0  0  0
    7.2245  -13.6286   18.4045 C   0  0  0  0  0  0  0  0  0  0  0  0
    7.0531  -13.2410   19.8353 C   0  0  0  0  0  0  0  0  0  0  0  0
    8.3347  -13.5931   20.4875 C   0  0  1  0  0  0  0  0  0  0  0  0
    8.2525  -14.7694   21.3831 C   0  0  0  0  0  0  0  0  0  0  0  0
    7.1610  -14.9669   21.9814 O   0  0  0  0  0  0  0  0  0  0  0  0
   11.0299  -19.4052   20.2394 C   0  0  0  0  0  0  0  0  0  0  0  0
    9.9163  -18.4603   20.6436 C   0  0  1  0  0  0  0  0  0  0  0  0
    8.6749  -19.3611   20.8193 C   0  0  0  0  0  0  0  0  0  0  0  0
   10.1484  -17.8272   21.9520 C   0  0  0  0  0  0  0  0  0  0  0  0
    9.1713  -16.8602   22.4842 C   0  0  2  0  0  0  0  0  0  0  0  0
    9.3004  -15.6669   21.6048 N   0  0  0  0  0  0  0  0  0  0  0  0
    9.3684  -16.3429   23.8312 C   0  0  0  0  0  0  0  0  0  0  0  0
   10.2931  -15.5681   24.1875 O   0  0  0  0  0  0  0  0  0  0  0  0
    8.4613  -16.7205   24.8552 N   0  0  0  0  0  0  0  0  0  0  0  0
    8.7078  -16.3707   26.2555 C   0  0  1  0  0  0  0  0  0  0  0  0
    7.4567  -15.8173   26.8552 C   0  0  0  0  0  0  0  0  0  0  0  0
    7.2275  -14.4044   26.4793 C   0  0  0  0  0  0  0  0  0  0  0  0
    8.1254  -13.4584   26.9196 C   0  0  0  0  0  0  0  0  0  0  0  0
    7.9273  -12.1270   26.5766 C   0  0  0  0  0  0  0  0  0  0  0  0
    6.8525  -11.7184   25.8035 C   0  0  0  0  0  0  0  0  0  0  0  0
    5.9637  -12.6694   25.3700 C   0  0  0  0  0  0  0  0  0  0  0  0
    6.1573  -14.0021   25.7104 C   0  0  0  0  0  0  0  0  0  0  0  0
    9.2935  -17.5090   26.9691 C   0  0  0  0  0  0  0  0  0  0  0  0
    9.3918  -18.6650   26.5182 O   0  0  0  0  0  0  0  0  0  0  0  0
    9.7883  -17.3026   28.2626 O   0  0  0  0  0  0  0  0  0  0  0  0
  1  2  1  0
  3  2  1  0
  4  5  1  0
  4  3  1  0
  5  1  1  0
  5  6  1  6
  6  7  2  0
  9 10  1  1
  9  8  1  0
 11  9  1  0
 12 11  1  6
 12 13  1  0
 13  6  1  0
 14 15  2  0
 14 12  1  0
 16 14  1  0
 17 16  1  0
 17 18  1  1
 19 18  1  0
 19 20  2  0
 21 20  1  0
 22 21  2  0
 23 24  2  0
 23 22  1  0
 24 19  1  0
 25 17  1  0
 26 25  2  0
 27 25  1  0
M  END
$$$$
