PLF.pdb
     RDKit          3D

 27 28  0  0  1  0  0  0  0  0999 V2000
    8.9782  -14.1574   19.2066 N   0  0  0  0  0  0  0  0  0  0  0  0
    8.2217  -13.7896   18.0355 C   0  0  0  0  0  0  0  0  0  0  0  0
    7.0007  -13.0583   18.4819 C   0  0  0  0  0  0  0  0  0  0  0  0
    7.3072  -12.6238   19.8762 C   0  0  0  0  0  0  0  0  0  0  0  0
    8.3670  -13.5454   20.3443 C   0  0  1  0  0  0  0  0  0  0  0  0
    7.9094  -14.5279   21.3532 C   0  0  0  0  0  0  0  0  0  0  0  0
    7.0033  -14.1619   22.1490 O   0  0  0  0  0  0  0  0  0  0  0  0
    7.9662  -19.8056   20.0563 C   0  0  0  0  0  0  0  0  0  0  0  0
    7.4871  -18.4815   20.6162 C   0  0  1  0  0  0  0  0  0  0  0  0
    6.0001  -18.7108   20.9618 C   0  0  0  0  0  0  0  0  0  0  0  0
    8.1483  -18.1211   21.8809 C   0  0  0  0  0  0  0  0  0  0  0  0
    7.9096  -16.7972   22.4839 C   0  0  2  0  0  0  0  0  0  0  0  0
    8.4147  -15.8249   21.4773 N   0  0  0  0  0  0  0  0  0  0  0  0
    8.6174  -16.4538   23.7093 C   0  0  0  0  0  0  0  0  0  0  0  0
    9.8333  -16.1404   23.7865 O   0  0  0  0  0  0  0  0  0  0  0  0
    7.9106  -16.4605   24.9398 N   0  0  0  0  0  0  0  0  0  0  0  0
    8.6082  -16.3038   26.2176 C   0  0  1  0  0  0  0  0  0  0  0  0
    7.7407  -15.5412   27.1650 C   0  0  0  0  0  0  0  0  0  0  0  0
    7.5543  -14.1328   26.7508 C   0  0  0  0  0  0  0  0  0  0  0  0
    8.6585  -13.3113   26.7166 C   0  0  0  0  0  0  0  0  0  0  0  0
    8.5035  -11.9862   26.3299 C   0  0  0  0  0  0  0  0  0  0  0  0
    7.2705  -11.4623   25.9763 C   0  0  0  0  0  0  0  0  0  0  0  0
    6.1767  -12.2896   26.0140 C   0  0  0  0  0  0  0  0  0  0  0  0
    6.3265  -13.6155   26.4000 C   0  0  0  0  0  0  0  0  0  0  0  0
    9.0754  -17.6043   26.7055 C   0  0  0  0  0  0  0  0  0  0  0  0
    8.7484  -18.7080   26.2321 O   0  0  0  0  0  0  0  0  0  0  0  0
    9.9608  -17.6314   27.7899 O   0  0  0  0  0  0  0  0  0  0  0  0
  1  2  1  0
  3  2  1  0
  4  5  1  0
  4  3  1  0
  5  1  1  0
  5  6  1  1
  6  7  2  0
  9 10  1  1
  9  8  1  0
 11  9  1  0
 12 11  1  6
 12 13  1  0
 13  6  1  0
 14 15  2  0
 14 12  1  0
 16 14  1  0
 17 16  1  0
 17 18  1  1
 19 18  1  0
 19 20  2  0
 21 20  1  0
 22 21  2  0
 23 24  2  0
 23 22  1  0
 24 19  1  0
 25 17  1  0
 26 25  2  0
 27 25  1  0
M  END
$$$$
