PLF.pdb
     RDKit          3D

 27 28  0  0  1  0  0  0  0  0999 V2000
    6.3797  -18.3193   21.3783 N   0  0  0  0  0  0  0  0  0  0  0  0
    5.7096  -18.9327   20.2586 C   0  0  0  0  0  0  0  0  0  0  0  0
    6.7203  -19.7022   19.4769 C   0  0  0  0  0  0  0  0  0  0  0  0
    7.8653  -19.8875   20.4157 C   0  0  0  0  0  0  0  0  0  0  0  0
    7.7225  -18.8071   21.4178 C   0  0  1  0  0  0  0  0  0  0  0  0
    8.7323  -17.7313   21.2928 C   0  0  0  0  0  0  0  0  0  0  0  0
    9.6445  -17.8894   20.4378 O   0  0  0  0  0  0  0  0  0  0  0  0
    6.8475  -13.0875   21.4816 C   0  0  0  0  0  0  0  0  0  0  0  0
    7.7130  -14.2697   21.0948 C   0  0  1  0  0  0  0  0  0  0  0  0
    7.9837  -14.0874   19.5859 C   0  0  0  0  0  0  0  0  0  0  0  0
    9.0311  -14.2537   21.7498 C   0  0  0  0  0  0  0  0  0  0  0  0
    9.7820  -15.5106   21.9211 C   0  0  2  0  0  0  0  0  0  0  0  0
    8.7374  -16.5614   22.0571 N   0  0  0  0  0  0  0  0  0  0  0  0
   10.6131  -15.6677   23.1065 C   0  0  0  0  0  0  0  0  0  0  0  0
   11.6176  -14.9661   23.3919 O   0  0  0  0  0  0  0  0  0  0  0  0
   10.2948  -16.6853   24.0429 N   0  0  0  0  0  0  0  0  0  0  0  0
   11.1340  -16.9258   25.2185 C   0  0  1  0  0  0  0  0  0  0  0  0
   11.5583  -15.6169   25.8000 C   0  0  0  0  0  0  0  0  0  0  0  0
   10.5122  -15.0132   26.6550 C   0  0  0  0  0  0  0  0  0  0  0  0
   10.6784  -15.0605   28.0207 C   0  0  0  0  0  0  0  0  0  0  0  0
    9.7073  -14.4987   28.8398 C   0  0  0  0  0  0  0  0  0  0  0  0
    8.5733  -13.8904   28.3259 C   0  0  0  0  0  0  0  0  0  0  0  0
    8.4176  -13.8489   26.9635 C   0  0  0  0  0  0  0  0  0  0  0  0
    9.3859  -14.4093   26.1402 C   0  0  0  0  0  0  0  0  0  0  0  0
   10.4586  -17.8345   26.1490 C   0  0  0  0  0  0  0  0  0  0  0  0
    9.2833  -18.2295   26.0403 O   0  0  0  0  0  0  0  0  0  0  0  0
   11.1735  -18.3086   27.2557 O   0  0  0  0  0  0  0  0  0  0  0  0
  1  2  1  0
  3  2  1  0
  4  5  1  0
  4  3  1  0
  5  1  1  0
  5  6  1  6
  6  7  2  0
  9 10  1  6
  9  8  1  0
 11  9  1  0
 12 11  1  1
 12 13  1  0
 13  6  1  0
 14 15  2  0
 14 12  1  0
 16 14  1  0
 17 16  1  0
 17 18  1  1
 19 18  1  0
 19 20  2  0
 21 20  1  0
 22 21  2  0
 23 24  2  0
 23 22  1  0
 24 19  1  0
 25 17  1  0
 26 25  2  0
 27 25  1  0
M  END
$$$$
