PLF.pdb
     RDKit          3D

 27 28  0  0  1  0  0  0  0  0999 V2000
    7.3131  -17.6894   20.0590 N   0  0  0  0  0  0  0  0  0  0  0  0
    6.2529  -17.3373   19.1473 C   0  0  0  0  0  0  0  0  0  0  0  0
    6.6346  -16.0710   18.4576 C   0  0  0  0  0  0  0  0  0  0  0  0
    8.1097  -15.9613   18.6547 C   0  0  0  0  0  0  0  0  0  0  0  0
    8.4035  -16.7905   19.8455 C   0  0  1  0  0  0  0  0  0  0  0  0
    8.7532  -16.0086   21.0533 C   0  0  0  0  0  0  0  0  0  0  0  0
    9.7847  -15.2868   20.9978 O   0  0  0  0  0  0  0  0  0  0  0  0
    5.8165  -13.0256   25.2533 C   0  0  0  0  0  0  0  0  0  0  0  0
    6.6980  -13.3429   24.0622 C   0  0  1  0  0  0  0  0  0  0  0  0
    8.0172  -12.5876   24.3316 C   0  0  0  0  0  0  0  0  0  0  0  0
    7.0550  -14.7684   23.9769 C   0  0  0  0  0  0  0  0  0  0  0  0
    8.3568  -15.1675   23.4121 C   0  0  2  0  0  0  0  0  0  0  0  0
    8.0173  -16.0206   22.2413 N   0  0  0  0  0  0  0  0  0  0  0  0
    9.2413  -15.9945   24.2211 C   0  0  0  0  0  0  0  0  0  0  0  0
    9.1152  -17.2322   24.4075 O   0  0  0  0  0  0  0  0  0  0  0  0
   10.3504  -15.3907   24.8684 N   0  0  0  0  0  0  0  0  0  0  0  0
   10.7752  -15.8165   26.2035 C   0  0  1  0  0  0  0  0  0  0  0  0
   11.1249  -14.6145   27.0186 C   0  0  0  0  0  0  0  0  0  0  0  0
   11.2072  -14.9175   28.4647 C   0  0  0  0  0  0  0  0  0  0  0  0
   12.1083  -15.8712   28.8811 C   0  0  0  0  0  0  0  0  0  0  0  0
   12.2005  -16.1690   30.2348 C   0  0  0  0  0  0  0  0  0  0  0  0
   11.4128  -15.5357   31.1827 C   0  0  0  0  0  0  0  0  0  0  0  0
   10.5181  -14.5869   30.7568 C   0  0  0  0  0  0  0  0  0  0  0  0
   10.4222  -14.2856   29.4043 C   0  0  0  0  0  0  0  0  0  0  0  0
    9.7728  -16.7054   26.7974 C   0  0  0  0  0  0  0  0  0  0  0  0
    8.5486  -16.4836   26.8337 O   0  0  0  0  0  0  0  0  0  0  0  0
   10.2041  -17.9053   27.3759 O   0  0  0  0  0  0  0  0  0  0  0  0
  1  2  1  0
  3  2  1  0
  4  5  1  0
  4  3  1  0
  5  1  1  0
  5  6  1  1
  6  7  2  0
  9 10  1  1
  9  8  1  0
 11  9  1  0
 12 11  1  1
 12 13  1  0
 13  6  1  0
 14 15  2  0
 14 12  1  0
 16 14  1  0
 17 16  1  0
 17 18  1  1
 19 18  1  0
 19 20  2  0
 21 20  1  0
 22 21  2  0
 23 24  2  0
 23 22  1  0
 24 19  1  0
 25 17  1  0
 26 25  2  0
 27 25  1  0
M  END
$$$$
