PLF.pdb
     RDKit          3D

 27 28  0  0  1  0  0  0  0  0999 V2000
    5.6448  -18.3996   22.1552 N   0  0  0  0  0  0  0  0  0  0  0  0
    4.2183  -18.1995   22.2196 C   0  0  0  0  0  0  0  0  0  0  0  0
    3.7889  -17.5101   20.9685 C   0  0  0  0  0  0  0  0  0  0  0  0
    4.9094  -17.7332   20.0086 C   0  0  0  0  0  0  0  0  0  0  0  0
    6.0921  -18.0150   20.8535 C   0  0  1  0  0  0  0  0  0  0  0  0
    7.0862  -16.9180   20.8844 C   0  0  0  0  0  0  0  0  0  0  0  0
    7.3605  -16.3536   19.7915 O   0  0  0  0  0  0  0  0  0  0  0  0
    7.1242  -12.5081   19.9058 C   0  0  0  0  0  0  0  0  0  0  0  0
    7.7724  -13.8524   20.1687 C   0  0  1  0  0  0  0  0  0  0  0  0
    9.2239  -13.6988   19.6660 C   0  0  0  0  0  0  0  0  0  0  0  0
    7.8694  -14.1714   21.6023 C   0  0  0  0  0  0  0  0  0  0  0  0
    8.6771  -15.3219   22.0462 C   0  0  2  0  0  0  0  0  0  0  0  0
    7.7342  -16.4729   22.0398 N   0  0  0  0  0  0  0  0  0  0  0  0
    9.2249  -15.3073   23.3954 C   0  0  0  0  0  0  0  0  0  0  0  0
   10.1460  -14.5527   23.8011 O   0  0  0  0  0  0  0  0  0  0  0  0
    8.7010  -16.2037   24.3628 N   0  0  0  0  0  0  0  0  0  0  0  0
    9.1641  -16.1784   25.7517 C   0  0  1  0  0  0  0  0  0  0  0  0
    8.0018  -15.9311   26.6567 C   0  0  0  0  0  0  0  0  0  0  0  0
    7.5211  -14.5331   26.5893 C   0  0  0  0  0  0  0  0  0  0  0  0
    6.2956  -14.2918   26.0104 C   0  0  0  0  0  0  0  0  0  0  0  0
    5.8273  -12.9861   25.9383 C   0  0  0  0  0  0  0  0  0  0  0  0
    6.5551  -11.9151   26.4314 C   0  0  0  0  0  0  0  0  0  0  0  0
    7.7751  -12.1667   27.0063 C   0  0  0  0  0  0  0  0  0  0  0  0
    8.2479  -13.4707   27.0807 C   0  0  0  0  0  0  0  0  0  0  0  0
    9.9446  -17.3823   26.0502 C   0  0  0  0  0  0  0  0  0  0  0  0
   10.4631  -17.6469   27.1504 O   0  0  0  0  0  0  0  0  0  0  0  0
   10.1350  -18.3238   25.0313 O   0  0  0  0  0  0  0  0  0  0  0  0
  1  2  1  0
  3  2  1  0
  4  5  1  0
  4  3  1  0
  5  1  1  0
  5  6  1  1
  6  7  2  0
  9 10  1  1
  9  8  1  0
 11  9  1  0
 12 11  1  1
 12 13  1  0
 13  6  1  0
 14 15  2  0
 14 12  1  0
 16 14  1  0
 17 16  1  0
 17 18  1  1
 19 18  1  0
 19 20  2  0
 21 20  1  0
 22 21  2  0
 23 24  2  0
 23 22  1  0
 24 19  1  0
 25 17  1  0
 26 25  2  0
 27 25  1  0
M  END
$$$$
