PLF.pdb
     RDKit          3D

 27 28  0  0  1  0  0  0  0  0999 V2000
   10.2200  -18.6188   19.3917 N   0  0  0  0  0  0  0  0  0  0  0  0
   10.1804  -18.4786   17.9571 C   0  0  0  0  0  0  0  0  0  0  0  0
   11.0396  -17.3193   17.5797 C   0  0  0  0  0  0  0  0  0  0  0  0
   11.9170  -17.0952   18.7658 C   0  0  0  0  0  0  0  0  0  0  0  0
   11.1920  -17.7047   19.9037 C   0  0  1  0  0  0  0  0  0  0  0  0
   10.6183  -16.7207   20.8499 C   0  0  0  0  0  0  0  0  0  0  0  0
   11.4256  -16.0304   21.5281 O   0  0  0  0  0  0  0  0  0  0  0  0
    6.3777  -13.6199   19.5333 C   0  0  0  0  0  0  0  0  0  0  0  0
    7.6950  -14.0512   20.1458 C   0  0  1  0  0  0  0  0  0  0  0  0
    8.3216  -12.7522   20.6963 C   0  0  0  0  0  0  0  0  0  0  0  0
    7.5239  -14.9434   21.3039 C   0  0  0  0  0  0  0  0  0  0  0  0
    8.7074  -15.5001   21.9840 C   0  0  2  0  0  0  0  0  0  0  0  0
    9.2494  -16.5112   21.0365 N   0  0  0  0  0  0  0  0  0  0  0  0
    8.5137  -16.2331   23.2274 C   0  0  0  0  0  0  0  0  0  0  0  0
    8.3913  -17.4810   23.3275 O   0  0  0  0  0  0  0  0  0  0  0  0
    8.4542  -15.5150   24.4499 N   0  0  0  0  0  0  0  0  0  0  0  0
    8.2088  -16.1985   25.7214 C   0  0  1  0  0  0  0  0  0  0  0  0
    8.5039  -15.2655   26.8501 C   0  0  0  0  0  0  0  0  0  0  0  0
    7.8175  -13.9631   26.7002 C   0  0  0  0  0  0  0  0  0  0  0  0
    6.4567  -13.9158   26.9027 C   0  0  0  0  0  0  0  0  0  0  0  0
    5.7948  -12.7022   26.7671 C   0  0  0  0  0  0  0  0  0  0  0  0
    6.4611  -11.5339   26.4337 C   0  0  0  0  0  0  0  0  0  0  0  0
    7.8172  -11.5922   26.2342 C   0  0  0  0  0  0  0  0  0  0  0  0
    8.4837  -12.8035   26.3686 C   0  0  0  0  0  0  0  0  0  0  0  0
    6.8673  -16.7885   25.7317 C   0  0  0  0  0  0  0  0  0  0  0  0
    5.9574  -16.5161   24.9273 O   0  0  0  0  0  0  0  0  0  0  0  0
    6.5629  -17.7366   26.7161 O   0  0  0  0  0  0  0  0  0  0  0  0
  1  2  1  0
  3  2  1  0
  4  5  1  0
  4  3  1  0
  5  1  1  0
  5  6  1  6
  6  7  2  0
  9 10  1  1
  9  8  1  0
 11  9  1  0
 12 11  1  6
 12 13  1  0
 13  6  1  0
 14 15  2  0
 14 12  1  0
 16 14  1  0
 17 16  1  0
 17 18  1  1
 19 18  1  0
 19 20  2  0
 21 20  1  0
 22 21  2  0
 23 24  2  0
 23 22  1  0
 24 19  1  0
 25 17  1  0
 26 25  2  0
 27 25  1  0
M  END
$$$$
