PLF.pdb
     RDKit          3D

 27 28  0  0  1  0  0  0  0  0999 V2000
    6.4165  -20.0700   21.7982 N   0  0  0  0  0  0  0  0  0  0  0  0
    6.3834  -21.0396   22.8649 C   0  0  0  0  0  0  0  0  0  0  0  0
    6.3335  -20.3031   24.1609 C   0  0  0  0  0  0  0  0  0  0  0  0
    5.8814  -18.9278   23.7987 C   0  0  0  0  0  0  0  0  0  0  0  0
    6.2235  -18.7730   22.3666 C   0  0  1  0  0  0  0  0  0  0  0  0
    7.3584  -17.8561   22.1135 C   0  0  0  0  0  0  0  0  0  0  0  0
    8.4322  -18.3653   21.6942 O   0  0  0  0  0  0  0  0  0  0  0  0
    6.9621  -12.8015   19.6228 C   0  0  0  0  0  0  0  0  0  0  0  0
    7.6852  -14.0900   19.9597 C   0  0  1  0  0  0  0  0  0  0  0  0
    9.1419  -13.8590   19.5038 C   0  0  0  0  0  0  0  0  0  0  0  0
    7.7479  -14.3506   21.4070 C   0  0  0  0  0  0  0  0  0  0  0  0
    8.4205  -15.5632   21.9069 C   0  0  2  0  0  0  0  0  0  0  0  0
    7.3138  -16.4731   22.3086 N   0  0  0  0  0  0  0  0  0  0  0  0
    9.2534  -15.4556   23.0966 C   0  0  0  0  0  0  0  0  0  0  0  0
   10.3850  -14.9084   23.1484 O   0  0  0  0  0  0  0  0  0  0  0  0
    8.7834  -16.0001   24.3199 N   0  0  0  0  0  0  0  0  0  0  0  0
    9.6024  -15.9617   25.5332 C   0  0  1  0  0  0  0  0  0  0  0  0
    9.8729  -14.5400   25.9031 C   0  0  0  0  0  0  0  0  0  0  0  0
    8.6306  -13.7744   26.1492 C   0  0  0  0  0  0  0  0  0  0  0  0
    7.4414  -14.2966   25.6929 C   0  0  0  0  0  0  0  0  0  0  0  0
    6.2646  -13.5927   25.9149 C   0  0  0  0  0  0  0  0  0  0  0  0
    6.2482  -12.3787   26.5825 C   0  0  0  0  0  0  0  0  0  0  0  0
    7.4389  -11.8674   27.0330 C   0  0  0  0  0  0  0  0  0  0  0  0
    8.6184  -12.5674   26.8135 C   0  0  0  0  0  0  0  0  0  0  0  0
    8.9908  -16.7769   26.5863 C   0  0  0  0  0  0  0  0  0  0  0  0
    7.9016  -17.3718   26.4919 O   0  0  0  0  0  0  0  0  0  0  0  0
    9.6683  -16.9112   27.8043 O   0  0  0  0  0  0  0  0  0  0  0  0
  1  2  1  0
  3  2  1  0
  4  5  1  0
  4  3  1  0
  5  1  1  0
  5  6  1  1
  6  7  2  0
  9 10  1  1
  9  8  1  0
 11  9  1  0
 12 11  1  1
 12 13  1  0
 13  6  1  0
 14 15  2  0
 14 12  1  0
 16 14  1  0
 17 16  1  0
 17 18  1  1
 19 18  1  0
 19 20  2  0
 21 20  1  0
 22 21  2  0
 23 24  2  0
 23 22  1  0
 24 19  1  0
 25 17  1  0
 26 25  2  0
 27 25  1  0
M  END
$$$$
