PLF.pdb
     RDKit          3D

 27 28  0  0  1  0  0  0  0  0999 V2000
    8.6881  -14.9927   18.4068 N   0  0  0  0  0  0  0  0  0  0  0  0
    7.9168  -14.4720   17.3054 C   0  0  0  0  0  0  0  0  0  0  0  0
    7.1982  -13.2529   17.7768 C   0  0  0  0  0  0  0  0  0  0  0  0
    7.9255  -12.8375   19.0118 C   0  0  0  0  0  0  0  0  0  0  0  0
    8.6097  -14.0611   19.4877 C   0  0  1  0  0  0  0  0  0  0  0  0
    8.0176  -14.6454   20.7127 C   0  0  0  0  0  0  0  0  0  0  0  0
    7.7909  -13.8648   21.6758 O   0  0  0  0  0  0  0  0  0  0  0  0
    4.9820  -19.2749   20.3923 C   0  0  0  0  0  0  0  0  0  0  0  0
    5.4249  -17.8688   20.7432 C   0  0  1  0  0  0  0  0  0  0  0  0
    4.2085  -17.2339   21.4507 C   0  0  0  0  0  0  0  0  0  0  0  0
    6.5248  -17.8415   21.7209 C   0  0  0  0  0  0  0  0  0  0  0  0
    7.1212  -16.5540   22.1205 C   0  0  2  0  0  0  0  0  0  0  0  0
    7.6969  -15.9968   20.8667 N   0  0  0  0  0  0  0  0  0  0  0  0
    8.2346  -16.5652   23.0590 C   0  0  0  0  0  0  0  0  0  0  0  0
    9.4004  -16.9630   22.8037 O   0  0  0  0  0  0  0  0  0  0  0  0
    8.0274  -16.0946   24.3817 N   0  0  0  0  0  0  0  0  0  0  0  0
    9.1229  -16.0482   25.3521 C   0  0  1  0  0  0  0  0  0  0  0  0
    9.5522  -14.6308   25.5468 C   0  0  0  0  0  0  0  0  0  0  0  0
    8.4474  -13.7658   26.0170 C   0  0  0  0  0  0  0  0  0  0  0  0
    7.5702  -13.2625   25.0831 C   0  0  0  0  0  0  0  0  0  0  0  0
    6.5264  -12.4491   25.5053 C   0  0  0  0  0  0  0  0  0  0  0  0
    6.3385  -12.1264   26.8397 C   0  0  0  0  0  0  0  0  0  0  0  0
    7.2185  -12.6333   27.7621 C   0  0  0  0  0  0  0  0  0  0  0  0
    8.2639  -13.4472   27.3449 C   0  0  0  0  0  0  0  0  0  0  0  0
    8.7497  -16.7628   26.5759 C   0  0  0  0  0  0  0  0  0  0  0  0
    9.4624  -16.8685   27.5908 O   0  0  0  0  0  0  0  0  0  0  0  0
    7.4958  -17.3837   26.6300 O   0  0  0  0  0  0  0  0  0  0  0  0
  1  2  1  0
  3  2  1  0
  4  5  1  0
  4  3  1  0
  5  1  1  0
  5  6  1  1
  6  7  2  0
  9 10  1  1
  9  8  1  0
 11  9  1  0
 12 11  1  6
 12 13  1  0
 13  6  1  0
 14 15  2  0
 14 12  1  0
 16 14  1  0
 17 16  1  0
 17 18  1  1
 19 18  1  0
 19 20  2  0
 21 20  1  0
 22 21  2  0
 23 24  2  0
 23 22  1  0
 24 19  1  0
 25 17  1  0
 26 25  2  0
 27 25  1  0
M  END
$$$$
