LAA.pdb
     RDKit          3D

 19 18  0  0  1  0  0  0  0  0999 V2000
   22.7421  -17.2749  -15.0555 C   0  0  0  0  0  0  0  0  0  0  0  0
   21.7103  -18.2909  -15.5502 C   0  0  2  0  0  0  0  0  0  0  0  0
   20.4476  -17.5891  -16.0048 C   0  0  0  0  0  0  0  0  0  0  0  0
   21.3596  -19.1757  -14.4042 C   0  0  0  0  0  0  0  0  0  0  0  0
   22.5598  -19.9387  -13.8697 C   0  0  2  0  0  0  0  0  0  0  0  0
   23.1532  -20.7101  -14.9158 N   0  0  0  0  0  0  0  0  0  0  0  0
   22.1254  -20.7690  -12.7163 C   0  0  0  0  0  0  0  0  0  0  0  0
   21.4617  -21.8212  -12.9016 O   0  0  0  0  0  0  0  0  0  0  0  0
   22.7290  -20.7357   -9.0124 C   0  0  0  0  0  0  0  0  0  0  0  0
   22.0299  -21.2709  -10.2413 C   0  0  2  0  0  0  0  0  0  0  0  0
   22.4280  -20.4300  -11.3670 N   0  0  0  0  0  0  0  0  0  0  0  0
   20.5564  -21.3076  -10.0889 C   0  0  0  0  0  0  0  0  0  0  0  0
   19.8887  -20.2606  -10.2955 O   0  0  0  0  0  0  0  0  0  0  0  0
   17.9619  -23.8671  -10.0780 C   0  0  0  0  0  0  0  0  0  0  0  0
   18.4131  -22.5136   -9.5226 C   0  0  2  0  0  0  0  0  0  0  0  0
   19.8597  -22.4728   -9.7193 N   0  0  0  0  0  0  0  0  0  0  0  0
   18.0483  -22.3797   -8.1000 C   0  0  0  0  0  0  0  0  0  0  0  0
   16.7190  -22.1085   -7.7957 O   0  0  0  0  0  0  0  0  0  0  0  0
   18.9315  -22.5127   -7.2422 O   0  0  0  0  0  0  0  0  0  0  0  0
  2  4  1  0
  2  1  1  1
  3  2  1  0
  4  5  1  0
  5  7  1  0
  5  6  1  6
  7  8  2  0
 10  9  1  1
 10 12  1  0
 11 10  1  0
 11  7  1  0
 12 13  2  0
 12 16  1  0
 15 14  1  1
 15 17  1  0
 16 15  1  0
 17 19  2  0
 17 18  1  0
M  END
$$$$
