LAA.pdb
     RDKit          3D

 19 18  0  0  1  0  0  0  0  0999 V2000
   18.5815  -11.7598  -19.8691 C   0  0  0  0  0  0  0  0  0  0  0  0
   18.5958  -12.8408  -18.7862 C   0  0  2  0  0  0  0  0  0  0  0  0
   17.2178  -13.4470  -18.6209 C   0  0  0  0  0  0  0  0  0  0  0  0
   18.9709  -12.1895  -17.5001 C   0  0  0  0  0  0  0  0  0  0  0  0
   20.3094  -11.4750  -17.5784 C   0  0  2  0  0  0  0  0  0  0  0  0
   21.3533  -12.4195  -17.8234 N   0  0  0  0  0  0  0  0  0  0  0  0
   20.5142  -10.7014  -16.3263 C   0  0  0  0  0  0  0  0  0  0  0  0
   19.5348  -10.1915  -15.7238 O   0  0  0  0  0  0  0  0  0  0  0  0
   23.3332  -10.0858  -13.9586 C   0  0  0  0  0  0  0  0  0  0  0  0
   21.9991   -9.6898  -14.5491 C   0  0  2  0  0  0  0  0  0  0  0  0
   21.7998  -10.4972  -15.7495 N   0  0  0  0  0  0  0  0  0  0  0  0
   21.9165   -8.2417  -14.8520 C   0  0  0  0  0  0  0  0  0  0  0  0
   22.4804   -7.7946  -15.8850 O   0  0  0  0  0  0  0  0  0  0  0  0
   19.6931   -5.5164  -13.8796 C   0  0  0  0  0  0  0  0  0  0  0  0
   21.0997   -5.9098  -14.3382 C   0  0  2  0  0  0  0  0  0  0  0  0
   21.2287   -7.3313  -14.0288 N   0  0  0  0  0  0  0  0  0  0  0  0
   22.1237   -5.1027  -13.6489 C   0  0  0  0  0  0  0  0  0  0  0  0
   22.4638   -3.8754  -14.2070 O   0  0  0  0  0  0  0  0  0  0  0  0
   22.6342   -5.5457  -12.6114 O   0  0  0  0  0  0  0  0  0  0  0  0
  2  4  1  0
  2  1  1  6
  3  2  1  0
  4  5  1  0
  5  7  1  0
  5  6  1  1
  7  8  2  0
 10  9  1  6
 10 12  1  0
 11 10  1  0
 11  7  1  0
 12 13  2  0
 12 16  1  0
 15 14  1  1
 15 17  1  0
 16 15  1  0
 17 19  2  0
 17 18  1  0
M  END
$$$$
