LAA.pdb
     RDKit          3D

 19 18  0  0  1  0  0  0  0  0999 V2000
   13.2341   -6.0479   -9.2785 C   0  0  0  0  0  0  0  0  0  0  0  0
   14.2863   -6.6054   -8.3176 C   0  0  2  0  0  0  0  0  0  0  0  0
   14.5764   -5.6125   -7.2114 C   0  0  0  0  0  0  0  0  0  0  0  0
   15.5419   -6.8141   -9.0914 C   0  0  0  0  0  0  0  0  0  0  0  0
   15.3887   -7.8666  -10.1764 C   0  0  2  0  0  0  0  0  0  0  0  0
   15.2350   -9.1583   -9.5851 N   0  0  0  0  0  0  0  0  0  0  0  0
   16.5572   -7.7865  -11.0909 C   0  0  0  0  0  0  0  0  0  0  0  0
   17.6884   -8.1907  -10.7180 O   0  0  0  0  0  0  0  0  0  0  0  0
   17.0493   -7.1326  -14.7285 C   0  0  0  0  0  0  0  0  0  0  0  0
   17.6039   -7.2460  -13.3268 C   0  0  2  0  0  0  0  0  0  0  0  0
   16.4666   -7.2601  -12.4107 N   0  0  0  0  0  0  0  0  0  0  0  0
   18.5495   -6.1538  -12.9973 C   0  0  0  0  0  0  0  0  0  0  0  0
   18.1101   -5.0913  -12.4847 O   0  0  0  0  0  0  0  0  0  0  0  0
   22.2626   -5.7547  -13.1805 C   0  0  0  0  0  0  0  0  0  0  0  0
   20.8677   -5.1565  -12.9803 C   0  0  2  0  0  0  0  0  0  0  0  0
   19.9332   -6.2500  -13.2334 N   0  0  0  0  0  0  0  0  0  0  0  0
   20.6450   -4.0210  -13.8947 C   0  0  0  0  0  0  0  0  0  0  0  0
   20.9667   -2.7484  -13.4363 O   0  0  0  0  0  0  0  0  0  0  0  0
   20.1851   -4.2442  -15.0226 O   0  0  0  0  0  0  0  0  0  0  0  0
  2  4  1  0
  2  1  1  6
  3  2  1  0
  4  5  1  0
  5  7  1  0
  5  6  1  1
  7  8  2  0
 10  9  1  6
 10 12  1  0
 11 10  1  0
 11  7  1  0
 12 13  2  0
 12 16  1  0
 15 14  1  6
 15 17  1  0
 16 15  1  0
 17 19  2  0
 17 18  1  0
M  END
$$$$
