LAA.pdb
     RDKit          3D

 19 18  0  0  1  0  0  0  0  0999 V2000
   18.2881  -10.3598  -20.2417 C   0  0  0  0  0  0  0  0  0  0  0  0
   16.9500   -9.9865  -19.6002 C   0  0  2  0  0  0  0  0  0  0  0  0
   16.0459   -9.3105  -20.6097 C   0  0  0  0  0  0  0  0  0  0  0  0
   17.2272   -9.0151  -18.5054 C   0  0  0  0  0  0  0  0  0  0  0  0
   18.0480   -9.6241  -17.3812 C   0  0  2  0  0  0  0  0  0  0  0  0
   17.3588  -10.7460  -16.8262 N   0  0  0  0  0  0  0  0  0  0  0  0
   18.3387   -8.5704  -16.3745 C   0  0  0  0  0  0  0  0  0  0  0  0
   17.4653   -8.2310  -15.5354 O   0  0  0  0  0  0  0  0  0  0  0  0
   21.3140   -6.8725  -14.9952 C   0  0  0  0  0  0  0  0  0  0  0  0
   19.8472   -6.8166  -15.3570 C   0  0  2  0  0  0  0  0  0  0  0  0
   19.5926   -7.8998  -16.3028 N   0  0  0  0  0  0  0  0  0  0  0  0
   19.4475   -5.5046  -15.9176 C   0  0  0  0  0  0  0  0  0  0  0  0
   19.6677   -5.2602  -17.1328 O   0  0  0  0  0  0  0  0  0  0  0  0
   17.3088   -2.7120  -14.7522 C   0  0  0  0  0  0  0  0  0  0  0  0
   18.4109   -3.2151  -15.6881 C   0  0  2  0  0  0  0  0  0  0  0  0
   18.8255   -4.5062  -15.1457 N   0  0  0  0  0  0  0  0  0  0  0  0
   19.5315   -2.2580  -15.7450 C   0  0  0  0  0  0  0  0  0  0  0  0
   19.3530   -1.0962  -16.4877 O   0  0  0  0  0  0  0  0  0  0  0  0
   20.5759   -2.5247  -15.1353 O   0  0  0  0  0  0  0  0  0  0  0  0
  2  4  1  0
  2  1  1  6
  3  2  1  0
  4  5  1  0
  5  7  1  0
  5  6  1  1
  7  8  2  0
 10  9  1  6
 10 12  1  0
 11 10  1  0
 11  7  1  0
 12 13  2  0
 12 16  1  0
 15 14  1  1
 15 17  1  0
 16 15  1  0
 17 19  2  0
 17 18  1  0
M  END
$$$$
