LAA.pdb
     RDKit          3D

 19 18  0  0  1  0  0  0  0  0999 V2000
   16.5196  -12.6970  -15.5348 C   0  0  0  0  0  0  0  0  0  0  0  0
   17.7515  -13.3482  -16.1669 C   0  0  2  0  0  0  0  0  0  0  0  0
   18.0452  -14.6809  -15.5102 C   0  0  0  0  0  0  0  0  0  0  0  0
   18.9141  -12.4486  -15.9257 C   0  0  0  0  0  0  0  0  0  0  0  0
   18.7150  -11.0670  -16.5257 C   0  0  2  0  0  0  0  0  0  0  0  0
   18.5623  -11.1676  -17.9428 N   0  0  0  0  0  0  0  0  0  0  0  0
   19.8567  -10.2027  -16.1287 C   0  0  0  0  0  0  0  0  0  0  0  0
   20.2258  -10.1446  -14.9276 O   0  0  0  0  0  0  0  0  0  0  0  0
   22.3628   -8.0497  -17.9038 C   0  0  0  0  0  0  0  0  0  0  0  0
   21.6388   -8.4887  -16.6514 C   0  0  2  0  0  0  0  0  0  0  0  0
   20.5818   -9.4089  -17.0621 N   0  0  0  0  0  0  0  0  0  0  0  0
   21.0924   -7.3484  -15.8789 C   0  0  0  0  0  0  0  0  0  0  0  0
   19.9532   -6.8971  -16.1677 O   0  0  0  0  0  0  0  0  0  0  0  0
   22.0622   -5.5948  -12.7517 C   0  0  0  0  0  0  0  0  0  0  0  0
   21.2794   -5.6013  -14.0673 C   0  0  2  0  0  0  0  0  0  0  0  0
   21.7962   -6.7386  -14.8242 N   0  0  0  0  0  0  0  0  0  0  0  0
   21.4595   -4.3307  -14.7940 C   0  0  0  0  0  0  0  0  0  0  0  0
   20.6887   -3.2436  -14.3972 O   0  0  0  0  0  0  0  0  0  0  0  0
   22.2816   -4.2833  -15.7189 O   0  0  0  0  0  0  0  0  0  0  0  0
  2  4  1  0
  2  1  1  1
  3  2  1  0
  4  5  1  0
  5  7  1  0
  5  6  1  6
  7  8  2  0
 10  9  1  6
 10 12  1  0
 11 10  1  0
 11  7  1  0
 12 13  2  0
 12 16  1  0
 15 14  1  1
 15 17  1  0
 16 15  1  0
 17 19  2  0
 17 18  1  0
M  END
$$$$
