LAA.pdb
     RDKit          3D

 19 18  0  0  1  0  0  0  0  0999 V2000
   27.7072  -16.3151  -15.3146 C   0  0  0  0  0  0  0  0  0  0  0  0
   26.3654  -16.5481  -16.0122 C   0  0  2  0  0  0  0  0  0  0  0  0
   25.4313  -15.3802  -15.7735 C   0  0  0  0  0  0  0  0  0  0  0  0
   25.7474  -17.7635  -15.4123 C   0  0  0  0  0  0  0  0  0  0  0  0
   26.7048  -18.9425  -15.3698 C   0  0  2  0  0  0  0  0  0  0  0  0
   27.1110  -19.2894  -16.6951 N   0  0  0  0  0  0  0  0  0  0  0  0
   26.0486  -20.0677  -14.6547 C   0  0  0  0  0  0  0  0  0  0  0  0
   25.3924  -20.9320  -15.2908 O   0  0  0  0  0  0  0  0  0  0  0  0
   26.0297  -21.3853  -11.1485 C   0  0  0  0  0  0  0  0  0  0  0  0
   25.4509  -21.3218  -12.5436 C   0  0  2  0  0  0  0  0  0  0  0  0
   26.1226  -20.2292  -13.2421 N   0  0  0  0  0  0  0  0  0  0  0  0
   23.9803  -21.1398  -12.5434 C   0  0  0  0  0  0  0  0  0  0  0  0
   23.2550  -21.9801  -11.9496 O   0  0  0  0  0  0  0  0  0  0  0  0
   21.6279  -18.5316  -13.8033 C   0  0  0  0  0  0  0  0  0  0  0  0
   21.9045  -19.9787  -13.3870 C   0  0  2  0  0  0  0  0  0  0  0  0
   23.3486  -20.0579  -13.1838 N   0  0  0  0  0  0  0  0  0  0  0  0
   21.4430  -20.9222  -14.4222 C   0  0  0  0  0  0  0  0  0  0  0  0
   20.0717  -21.0891  -14.5805 O   0  0  0  0  0  0  0  0  0  0  0  0
   22.2866  -21.5218  -15.1021 O   0  0  0  0  0  0  0  0  0  0  0  0
  2  4  1  0
  2  1  1  1
  3  2  1  0
  4  5  1  0
  5  7  1  0
  5  6  1  6
  7  8  2  0
 10  9  1  1
 10 12  1  0
 11 10  1  0
 11  7  1  0
 12 13  2  0
 12 16  1  0
 15 14  1  6
 15 17  1  0
 16 15  1  0
 17 19  2  0
 17 18  1  0
M  END
$$$$
