LAA.pdb
     RDKit          3D

 19 18  0  0  1  0  0  0  0  0999 V2000
   26.8658  -13.5658  -15.3569 C   0  0  0  0  0  0  0  0  0  0  0  0
   27.0366  -12.4862  -16.4277 C   0  0  2  0  0  0  0  0  0  0  0  0
   28.3883  -11.8159  -16.2971 C   0  0  0  0  0  0  0  0  0  0  0  0
   25.9860  -11.4543  -16.2031 C   0  0  0  0  0  0  0  0  0  0  0  0
   24.6271  -11.8833  -16.7299 C   0  0  2  0  0  0  0  0  0  0  0  0
   24.7598  -12.4090  -18.0520 N   0  0  0  0  0  0  0  0  0  0  0  0
   23.6984  -10.7253  -16.6605 C   0  0  0  0  0  0  0  0  0  0  0  0
   23.8823   -9.7152  -17.3873 O   0  0  0  0  0  0  0  0  0  0  0  0
   20.4015  -10.0385  -15.0246 C   0  0  0  0  0  0  0  0  0  0  0  0
   21.6354   -9.5733  -15.7639 C   0  0  2  0  0  0  0  0  0  0  0  0
   22.5735  -10.6923  -15.7884 N   0  0  0  0  0  0  0  0  0  0  0  0
   22.2464   -8.3694  -15.1533 C   0  0  0  0  0  0  0  0  0  0  0  0
   23.0562   -8.5052  -14.1990 O   0  0  0  0  0  0  0  0  0  0  0  0
   22.3006   -4.7477  -16.0313 C   0  0  0  0  0  0  0  0  0  0  0  0
   22.5856   -5.8716  -15.0315 C   0  0  2  0  0  0  0  0  0  0  0  0
   21.9602   -7.0648  -15.5956 N   0  0  0  0  0  0  0  0  0  0  0  0
   22.0415   -5.5434  -13.7006 C   0  0  0  0  0  0  0  0  0  0  0  0
   22.7750   -4.6774  -12.8973 O   0  0  0  0  0  0  0  0  0  0  0  0
   20.9643   -6.0472  -13.3553 O   0  0  0  0  0  0  0  0  0  0  0  0
  2  4  1  0
  2  1  1  1
  3  2  1  0
  4  5  1  0
  5  7  1  0
  5  6  1  6
  7  8  2  0
 10  9  1  1
 10 12  1  0
 11 10  1  0
 11  7  1  0
 12 13  2  0
 12 16  1  0
 15 14  1  6
 15 17  1  0
 16 15  1  0
 17 19  2  0
 17 18  1  0
M  END
$$$$
