LAA.pdb
     RDKit          3D

 19 18  0  0  1  0  0  0  0  0999 V2000
   26.9002  -18.5550  -13.6993 C   0  0  0  0  0  0  0  0  0  0  0  0
   27.4367  -19.9825  -13.5744 C   0  0  2  0  0  0  0  0  0  0  0  0
   28.1723  -20.3871  -14.8349 C   0  0  0  0  0  0  0  0  0  0  0  0
   26.2692  -20.8929  -13.4090 C   0  0  0  0  0  0  0  0  0  0  0  0
   25.4554  -20.5755  -12.1659 C   0  0  2  0  0  0  0  0  0  0  0  0
   26.0353  -21.2138  -11.0266 N   0  0  0  0  0  0  0  0  0  0  0  0
   24.0452  -20.9821  -12.3990 C   0  0  0  0  0  0  0  0  0  0  0  0
   23.6966  -22.1830  -12.2634 O   0  0  0  0  0  0  0  0  0  0  0  0
   20.7964  -19.2152  -12.9337 C   0  0  0  0  0  0  0  0  0  0  0  0
   21.6454  -20.4644  -12.9985 C   0  0  2  0  0  0  0  0  0  0  0  0
   23.0311  -20.0584  -12.7802 N   0  0  0  0  0  0  0  0  0  0  0  0
   21.4913  -21.1931  -14.2795 C   0  0  0  0  0  0  0  0  0  0  0  0
   22.2455  -20.9074  -15.2462 O   0  0  0  0  0  0  0  0  0  0  0  0
   19.8322  -24.2985  -15.3597 C   0  0  0  0  0  0  0  0  0  0  0  0
   20.3425  -22.9049  -15.7353 C   0  0  2  0  0  0  0  0  0  0  0  0
   20.5293  -22.2023  -14.4685 N   0  0  0  0  0  0  0  0  0  0  0  0
   19.3813  -22.2103  -16.6119 C   0  0  0  0  0  0  0  0  0  0  0  0
   18.6719  -21.1414  -16.0756 O   0  0  0  0  0  0  0  0  0  0  0  0
   19.2458  -22.6027  -17.7786 O   0  0  0  0  0  0  0  0  0  0  0  0
  2  4  1  0
  2  1  1  6
  3  2  1  0
  4  5  1  0
  5  7  1  0
  5  6  1  1
  7  8  2  0
 10  9  1  6
 10 12  1  0
 11 10  1  0
 11  7  1  0
 12 13  2  0
 12 16  1  0
 15 14  1  1
 15 17  1  0
 16 15  1  0
 17 19  2  0
 17 18  1  0
M  END
$$$$
