LAA.pdb
     RDKit          3D

 19 18  0  0  1  0  0  0  0  0999 V2000
   26.3759  -20.7068  -10.7937 C   0  0  0  0  0  0  0  0  0  0  0  0
   26.9374  -21.3033  -12.0861 C   0  0  2  0  0  0  0  0  0  0  0  0
   28.3674  -20.8540  -12.3026 C   0  0  0  0  0  0  0  0  0  0  0  0
   26.1158  -20.7892  -13.2173 C   0  0  0  0  0  0  0  0  0  0  0  0
   24.6446  -21.1407  -13.0747 C   0  0  2  0  0  0  0  0  0  0  0  0
   24.4980  -22.5429  -12.8423 N   0  0  0  0  0  0  0  0  0  0  0  0
   23.9213  -20.6786  -14.2878 C   0  0  0  0  0  0  0  0  0  0  0  0
   24.2472  -21.1038  -15.4258 O   0  0  0  0  0  0  0  0  0  0  0  0
   20.8655  -18.6165  -14.9628 C   0  0  0  0  0  0  0  0  0  0  0  0
   22.1185  -19.3231  -15.4277 C   0  0  2  0  0  0  0  0  0  0  0  0
   22.8433  -19.7501  -14.2339 N   0  0  0  0  0  0  0  0  0  0  0  0
   22.9639  -18.4723  -16.2976 C   0  0  0  0  0  0  0  0  0  0  0  0
   23.7839  -17.6751  -15.7714 O   0  0  0  0  0  0  0  0  0  0  0  0
   23.9997  -18.6169  -19.8086 C   0  0  0  0  0  0  0  0  0  0  0  0
   23.7737  -17.7413  -18.5733 C   0  0  2  0  0  0  0  0  0  0  0  0
   22.8923  -18.5141  -17.7021 N   0  0  0  0  0  0  0  0  0  0  0  0
   23.1772  -16.4455  -18.9479 C   0  0  0  0  0  0  0  0  0  0  0  0
   24.0412  -15.4005  -19.2560 O   0  0  0  0  0  0  0  0  0  0  0  0
   21.9435  -16.3412  -18.9727 O   0  0  0  0  0  0  0  0  0  0  0  0
  2  4  1  0
  2  1  1  1
  3  2  1  0
  4  5  1  0
  5  7  1  0
  5  6  1  6
  7  8  2  0
 10  9  1  1
 10 12  1  0
 11 10  1  0
 11  7  1  0
 12 13  2  0
 12 16  1  0
 15 14  1  6
 15 17  1  0
 16 15  1  0
 17 19  2  0
 17 18  1  0
M  END
$$$$
