LAA.pdb
     RDKit          3D

 19 18  0  0  1  0  0  0  0  0999 V2000
   16.6497  -11.9913  -16.5049 C   0  0  0  0  0  0  0  0  0  0  0  0
   17.8283  -12.5964  -15.7393 C   0  0  2  0  0  0  0  0  0  0  0  0
   17.4214  -12.9420  -14.3221 C   0  0  0  0  0  0  0  0  0  0  0  0
   18.9027  -11.5667  -15.6729 C   0  0  0  0  0  0  0  0  0  0  0  0
   19.4562  -11.2142  -17.0432 C   0  0  2  0  0  0  0  0  0  0  0  0
   20.2722  -12.2816  -17.5295 N   0  0  0  0  0  0  0  0  0  0  0  0
   20.1897   -9.9254  -16.9472 C   0  0  0  0  0  0  0  0  0  0  0  0
   21.3115   -9.8702  -16.3811 O   0  0  0  0  0  0  0  0  0  0  0  0
   19.9431   -6.6118  -18.6031 C   0  0  0  0  0  0  0  0  0  0  0  0
   20.4424   -7.4633  -17.4581 C   0  0  2  0  0  0  0  0  0  0  0  0
   19.6778   -8.7073  -17.4777 N   0  0  0  0  0  0  0  0  0  0  0  0
   20.3298   -6.7804  -16.1479 C   0  0  0  0  0  0  0  0  0  0  0  0
   19.2620   -6.8825  -15.4890 O   0  0  0  0  0  0  0  0  0  0  0  0
   22.6668   -4.9176  -13.9250 C   0  0  0  0  0  0  0  0  0  0  0  0
   21.2369   -5.2363  -14.3697 C   0  0  2  0  0  0  0  0  0  0  0  0
   21.3737   -6.0135  -15.5987 N   0  0  0  0  0  0  0  0  0  0  0  0
   20.4640   -3.9990  -14.5856 C   0  0  0  0  0  0  0  0  0  0  0  0
   19.9355   -3.3630  -13.4677 O   0  0  0  0  0  0  0  0  0  0  0  0
   20.3181   -3.5803  -15.7418 O   0  0  0  0  0  0  0  0  0  0  0  0
  2  4  1  0
  2  1  1  6
  3  2  1  0
  4  5  1  0
  5  7  1  0
  5  6  1  1
  7  8  2  0
 10  9  1  6
 10 12  1  0
 11 10  1  0
 11  7  1  0
 12 13  2  0
 12 16  1  0
 15 14  1  6
 15 17  1  0
 16 15  1  0
 17 19  2  0
 17 18  1  0
M  END
$$$$
