LAA.pdb
     RDKit          3D

 19 18  0  0  1  0  0  0  0  0999 V2000
   26.6134  -16.3584  -15.1007 C   0  0  0  0  0  0  0  0  0  0  0  0
   26.0877  -15.4279  -16.1957 C   0  0  2  0  0  0  0  0  0  0  0  0
   26.0388  -13.9975  -15.7007 C   0  0  0  0  0  0  0  0  0  0  0  0
   24.6972  -15.8513  -16.5217 C   0  0  0  0  0  0  0  0  0  0  0  0
   24.6426  -17.2311  -17.1554 C   0  0  2  0  0  0  0  0  0  0  0  0
   25.5948  -17.3187  -18.2171 N   0  0  0  0  0  0  0  0  0  0  0  0
   23.2515  -17.4977  -17.6051 C   0  0  0  0  0  0  0  0  0  0  0  0
   22.7931  -16.9323  -18.6309 O   0  0  0  0  0  0  0  0  0  0  0  0
   20.6619  -20.0495  -16.7750 C   0  0  0  0  0  0  0  0  0  0  0  0
   21.0645  -18.7534  -17.4410 C   0  0  2  0  0  0  0  0  0  0  0  0
   22.3778  -18.3871  -16.9176 N   0  0  0  0  0  0  0  0  0  0  0  0
   20.0761  -17.6706  -17.2265 C   0  0  0  0  0  0  0  0  0  0  0  0
   20.1754  -16.9378  -16.2078 O   0  0  0  0  0  0  0  0  0  0  0  0
   17.2841  -16.2585  -19.2680 C   0  0  0  0  0  0  0  0  0  0  0  0
   18.0827  -16.3092  -17.9628 C   0  0  2  0  0  0  0  0  0  0  0  0
   19.0182  -17.4199  -18.1195 N   0  0  0  0  0  0  0  0  0  0  0  0
   17.1893  -16.5029  -16.8056 C   0  0  0  0  0  0  0  0  0  0  0  0
   16.5576  -15.3808  -16.2809 O   0  0  0  0  0  0  0  0  0  0  0  0
   17.0389  -17.6454  -16.3521 O   0  0  0  0  0  0  0  0  0  0  0  0
  2  4  1  0
  2  1  1  1
  3  2  1  0
  4  5  1  0
  5  7  1  0
  5  6  1  6
  7  8  2  0
 10  9  1  1
 10 12  1  0
 11 10  1  0
 11  7  1  0
 12 13  2  0
 12 16  1  0
 15 14  1  6
 15 17  1  0
 16 15  1  0
 17 19  2  0
 17 18  1  0
M  END
$$$$
