LAA.pdb
     RDKit          3D

 19 18  0  0  1  0  0  0  0  0999 V2000
   23.7615  -21.0290  -10.1646 C   0  0  0  0  0  0  0  0  0  0  0  0
   25.1602  -21.2915   -9.6024 C   0  0  2  0  0  0  0  0  0  0  0  0
   25.3121  -20.6577   -8.2354 C   0  0  0  0  0  0  0  0  0  0  0  0
   26.1449  -20.6524  -10.5195 C   0  0  0  0  0  0  0  0  0  0  0  0
   26.0519  -21.1886  -11.9380 C   0  0  2  0  0  0  0  0  0  0  0  0
   26.5285  -22.5349  -11.9832 N   0  0  0  0  0  0  0  0  0  0  0  0
   26.8022  -20.2806  -12.8441 C   0  0  0  0  0  0  0  0  0  0  0  0
   27.7666  -19.5997  -12.4099 O   0  0  0  0  0  0  0  0  0  0  0  0
   27.9838  -20.2856  -16.0795 C   0  0  0  0  0  0  0  0  0  0  0  0
   27.2935  -19.3297  -15.1334 C   0  0  2  0  0  0  0  0  0  0  0  0
   26.4809  -20.1321  -14.2232 N   0  0  0  0  0  0  0  0  0  0  0  0
   26.4734  -18.3189  -15.8415 C   0  0  0  0  0  0  0  0  0  0  0  0
   25.3273  -18.6349  -16.2557 O   0  0  0  0  0  0  0  0  0  0  0  0
   26.9123  -14.6880  -16.6252 C   0  0  0  0  0  0  0  0  0  0  0  0
   26.1063  -15.9855  -16.7298 C   0  0  2  0  0  0  0  0  0  0  0  0
   26.9211  -17.0058  -16.0755 N   0  0  0  0  0  0  0  0  0  0  0  0
   25.8312  -16.3228  -18.1389 C   0  0  0  0  0  0  0  0  0  0  0  0
   24.6834  -15.7937  -18.7186 O   0  0  0  0  0  0  0  0  0  0  0  0
   26.6252  -17.0561  -18.7432 O   0  0  0  0  0  0  0  0  0  0  0  0
  2  4  1  0
  2  1  1  6
  3  2  1  0
  4  5  1  0
  5  7  1  0
  5  6  1  1
  7  8  2  0
 10  9  1  6
 10 12  1  0
 11 10  1  0
 11  7  1  0
 12 13  2  0
 12 16  1  0
 15 14  1  6
 15 17  1  0
 16 15  1  0
 17 19  2  0
 17 18  1  0
M  END
$$$$
