LAA.pdb
     RDKit          3D

 19 18  0  0  1  0  0  0  0  0999 V2000
   25.3804  -20.8147   -7.5864 C   0  0  0  0  0  0  0  0  0  0  0  0
   26.7382  -20.2964   -8.0650 C   0  0  2  0  0  0  0  0  0  0  0  0
   27.1693  -19.0978   -7.2459 C   0  0  0  0  0  0  0  0  0  0  0  0
   26.5829  -19.8569   -9.4798 C   0  0  0  0  0  0  0  0  0  0  0  0
   26.2074  -21.0008  -10.4066 C   0  0  2  0  0  0  0  0  0  0  0  0
   27.3231  -21.8770  -10.5774 N   0  0  0  0  0  0  0  0  0  0  0  0
   25.7156  -20.4365  -11.6903 C   0  0  0  0  0  0  0  0  0  0  0  0
   25.7035  -19.1928  -11.8777 O   0  0  0  0  0  0  0  0  0  0  0  0
   25.3638  -21.6967  -15.1055 C   0  0  0  0  0  0  0  0  0  0  0  0
   24.8971  -20.7029  -14.0664 C   0  0  2  0  0  0  0  0  0  0  0  0
   25.2410  -21.2511  -12.7573 N   0  0  0  0  0  0  0  0  0  0  0  0
   23.4478  -20.4112  -14.1663 C   0  0  0  0  0  0  0  0  0  0  0  0
   22.6319  -21.1060  -13.5055 O   0  0  0  0  0  0  0  0  0  0  0  0
   21.4129  -17.8336  -15.9579 C   0  0  0  0  0  0  0  0  0  0  0  0
   21.5060  -19.1105  -15.1184 C   0  0  2  0  0  0  0  0  0  0  0  0
   22.9341  -19.3811  -14.9752 N   0  0  0  0  0  0  0  0  0  0  0  0
   20.7990  -20.2256  -15.7752 C   0  0  0  0  0  0  0  0  0  0  0  0
   19.4501  -20.3972  -15.4846 O   0  0  0  0  0  0  0  0  0  0  0  0
   21.4284  -20.9571  -16.5513 O   0  0  0  0  0  0  0  0  0  0  0  0
  2  4  1  0
  2  1  1  1
  3  2  1  0
  4  5  1  0
  5  7  1  0
  5  6  1  6
  7  8  2  0
 10  9  1  6
 10 12  1  0
 11 10  1  0
 11  7  1  0
 12 13  2  0
 12 16  1  0
 15 14  1  6
 15 17  1  0
 16 15  1  0
 17 19  2  0
 17 18  1  0
M  END
$$$$
