LAA.pdb
     RDKit          3D

 19 18  0  0  1  0  0  0  0  0999 V2000
   26.3198  -14.5436  -15.2577 C   0  0  0  0  0  0  0  0  0  0  0  0
   26.9705  -13.4613  -16.1217 C   0  0  2  0  0  0  0  0  0  0  0  0
   28.0900  -12.7776  -15.3650 C   0  0  0  0  0  0  0  0  0  0  0  0
   25.9303  -12.4402  -16.4291 C   0  0  0  0  0  0  0  0  0  0  0  0
   24.8173  -12.9891  -17.3057 C   0  0  2  0  0  0  0  0  0  0  0  0
   25.3671  -13.5455  -18.5015 N   0  0  0  0  0  0  0  0  0  0  0  0
   23.8374  -11.9042  -17.5721 C   0  0  0  0  0  0  0  0  0  0  0  0
   24.1791  -10.8796  -18.2167 O   0  0  0  0  0  0  0  0  0  0  0  0
   20.1398  -11.4969  -17.1878 C   0  0  0  0  0  0  0  0  0  0  0  0
   21.5134  -10.9197  -17.4438 C   0  0  2  0  0  0  0  0  0  0  0  0
   22.4871  -11.9600  -17.1240 N   0  0  0  0  0  0  0  0  0  0  0  0
   21.7672   -9.6844  -16.6658 C   0  0  0  0  0  0  0  0  0  0  0  0
   22.2243   -9.7751  -15.4964 O   0  0  0  0  0  0  0  0  0  0  0  0
   21.5751   -6.0332  -17.4558 C   0  0  0  0  0  0  0  0  0  0  0  0
   21.8839   -7.1704  -16.4785 C   0  0  2  0  0  0  0  0  0  0  0  0
   21.5182   -8.3985  -17.1794 N   0  0  0  0  0  0  0  0  0  0  0  0
   21.1257   -7.0076  -15.2241 C   0  0  0  0  0  0  0  0  0  0  0  0
   21.6712   -6.1909  -14.2398 O   0  0  0  0  0  0  0  0  0  0  0  0
   20.0448   -7.5987  -15.0988 O   0  0  0  0  0  0  0  0  0  0  0  0
  2  4  1  0
  2  1  1  1
  3  2  1  0
  4  5  1  0
  5  7  1  0
  5  6  1  6
  7  8  2  0
 10  9  1  1
 10 12  1  0
 11 10  1  0
 11  7  1  0
 12 13  2  0
 12 16  1  0
 15 14  1  6
 15 17  1  0
 16 15  1  0
 17 19  2  0
 17 18  1  0
M  END
$$$$
