ATN.pdb
     RDKit          3D

 21 20  0  0  1  0  0  0  0  0999 V2000
   13.7172  -11.9445  -14.2181 C   0  0  0  0  0  0  0  0  0  0  0  0
   15.2346  -11.8539  -14.4112 C   0  0  2  0  0  0  0  0  0  0  0  0
   15.7959  -13.1748  -14.5864 N   0  0  0  0  0  0  0  0  0  0  0  0
   15.7748  -11.1987  -13.1962 C   0  0  0  0  0  0  0  0  0  0  0  0
   15.8637  -11.8847  -12.1488 O   0  0  0  0  0  0  0  0  0  0  0  0
   19.1345   -9.8304  -13.0362 C   0  0  0  0  0  0  0  0  0  0  0  0
   18.2131   -8.7361  -12.5555 C   0  0  1  0  0  0  0  0  0  0  0  0
   17.9746   -7.8463  -13.5978 O   0  0  0  0  0  0  0  0  0  0  0  0
   16.9086   -9.2675  -12.0220 C   0  0  2  0  0  0  0  0  0  0  0  0
   16.1897   -9.8551  -13.1594 N   0  0  0  0  0  0  0  0  0  0  0  0
   16.0725   -8.2613  -11.3632 C   0  0  0  0  0  0  0  0  0  0  0  0
   15.2678   -7.5820  -12.0603 O   0  0  0  0  0  0  0  0  0  0  0  0
   14.6639   -5.6541   -5.9409 N   0  0  0  0  0  0  0  0  0  0  0  0
   14.3609   -6.0631   -7.2641 C   0  0  0  0  0  0  0  0  0  0  0  0
   13.4199   -5.5358   -7.9030 O   0  0  0  0  0  0  0  0  0  0  0  0
   15.1562   -7.1209   -7.9062 C   0  0  0  0  0  0  0  0  0  0  0  0
   15.3553   -6.8749   -9.3860 C   0  0  2  0  0  0  0  0  0  0  0  0
   16.0921   -7.9807   -9.9771 N   0  0  0  0  0  0  0  0  0  0  0  0
   15.9821   -5.5750   -9.6808 C   0  0  0  0  0  0  0  0  0  0  0  0
   15.2585   -4.4788  -10.1233 O   0  0  0  0  0  0  0  0  0  0  0  0
   17.2227   -5.4149   -9.5369 O   0  0  0  0  0  0  0  0  0  0  0  0
  2  1  1  1
  2  4  1  0
  3  2  1  0
  4  5  2  0
  7  6  1  6
  7  9  1  0
  8  7  1  0
  9 11  1  0
 10  4  1  0
  9 10  1  6
 11 12  2  0
 13 14  1  0
 14 16  1  0
 14 15  2  0
 17 16  1  1
 17 19  1  0
 18 17  1  0
 18 11  1  0
 19 21  2  0
 19 20  1  0
M  END
$$$$
