ATN.pdb
     RDKit          3D

 21 20  0  0  1  0  0  0  0  0999 V2000
   18.4304  -10.8207  -18.6046 C   0  0  0  0  0  0  0  0  0  0  0  0
   19.7589  -11.3328  -18.0382 C   0  0  2  0  0  0  0  0  0  0  0  0
   19.6897  -12.7595  -17.8137 N   0  0  0  0  0  0  0  0  0  0  0  0
   19.9852  -10.6007  -16.7693 C   0  0  0  0  0  0  0  0  0  0  0  0
   19.0593  -10.5933  -15.9219 O   0  0  0  0  0  0  0  0  0  0  0  0
   22.4861  -11.2880  -14.2141 C   0  0  0  0  0  0  0  0  0  0  0  0
   22.6637   -9.8397  -14.5996 C   0  0  1  0  0  0  0  0  0  0  0  0
   23.7180   -9.7307  -15.5006 O   0  0  0  0  0  0  0  0  0  0  0  0
   21.4155   -9.2385  -15.1907 C   0  0  2  0  0  0  0  0  0  0  0  0
   21.1784   -9.9185  -16.4701 N   0  0  0  0  0  0  0  0  0  0  0  0
   21.4833   -7.7897  -15.3952 C   0  0  0  0  0  0  0  0  0  0  0  0
   21.9639   -7.3455  -16.4753 O   0  0  0  0  0  0  0  0  0  0  0  0
   21.1613   -2.6546  -15.0521 N   0  0  0  0  0  0  0  0  0  0  0  0
   19.9080   -3.2705  -14.8082 C   0  0  0  0  0  0  0  0  0  0  0  0
   18.8606   -2.5877  -14.7155 O   0  0  0  0  0  0  0  0  0  0  0  0
   19.8239   -4.7317  -14.6601 C   0  0  0  0  0  0  0  0  0  0  0  0
   21.1850   -5.3927  -14.6805 C   0  0  2  0  0  0  0  0  0  0  0  0
   21.0441   -6.8233  -14.4607 N   0  0  0  0  0  0  0  0  0  0  0  0
   22.1425   -4.7826  -13.7421 C   0  0  0  0  0  0  0  0  0  0  0  0
   22.7460   -3.5577  -13.9801 O   0  0  0  0  0  0  0  0  0  0  0  0
   22.4499   -5.3674  -12.6703 O   0  0  0  0  0  0  0  0  0  0  0  0
  2  1  1  1
  2  4  1  0
  3  2  1  0
  4  5  2  0
  7  6  1  6
  7  9  1  0
  8  7  1  0
  9 11  1  0
 10  4  1  0
  9 10  1  6
 11 12  2  0
 13 14  1  0
 14 16  1  0
 14 15  2  0
 17 16  1  1
 17 19  1  0
 18 17  1  0
 18 11  1  0
 19 21  2  0
 19 20  1  0
M  END
$$$$
