ATN.pdb
     RDKit          3D

 21 20  0  0  1  0  0  0  0  0999 V2000
   13.8011  -10.2339  -13.3892 C   0  0  0  0  0  0  0  0  0  0  0  0
   15.3288  -10.1815  -13.4961 C   0  0  2  0  0  0  0  0  0  0  0  0
   15.8671  -11.5175  -13.6220 N   0  0  0  0  0  0  0  0  0  0  0  0
   15.8144   -9.5221  -12.2605 C   0  0  0  0  0  0  0  0  0  0  0  0
   15.7448  -10.1651  -11.1849 O   0  0  0  0  0  0  0  0  0  0  0  0
   19.2443   -8.0119  -11.8602 C   0  0  0  0  0  0  0  0  0  0  0  0
   18.2257   -6.9876  -11.4230 C   0  0  1  0  0  0  0  0  0  0  0  0
   18.0286   -6.0695  -12.4494 O   0  0  0  0  0  0  0  0  0  0  0  0
   16.9118   -7.6076  -11.0258 C   0  0  2  0  0  0  0  0  0  0  0  0
   16.3458   -8.2199  -12.2343 N   0  0  0  0  0  0  0  0  0  0  0  0
   15.9535   -6.6662  -10.4420 C   0  0  0  0  0  0  0  0  0  0  0  0
   15.1065   -6.1086  -11.1948 O   0  0  0  0  0  0  0  0  0  0  0  0
   13.2520   -3.5871   -7.2677 N   0  0  0  0  0  0  0  0  0  0  0  0
   13.9314   -4.5168   -6.4409 C   0  0  0  0  0  0  0  0  0  0  0  0
   13.7456   -4.5340   -5.2012 O   0  0  0  0  0  0  0  0  0  0  0  0
   14.8705   -5.4800   -7.0361 C   0  0  0  0  0  0  0  0  0  0  0  0
   14.9538   -5.3494   -8.5415 C   0  0  2  0  0  0  0  0  0  0  0  0
   15.8965   -6.3216   -9.0715 N   0  0  0  0  0  0  0  0  0  0  0  0
   15.2623   -3.9810   -8.9907 C   0  0  0  0  0  0  0  0  0  0  0  0
   16.5268   -3.5986   -9.4102 O   0  0  0  0  0  0  0  0  0  0  0  0
   14.3673   -3.0955   -9.0083 O   0  0  0  0  0  0  0  0  0  0  0  0
  2  1  1  1
  2  4  1  0
  3  2  1  0
  4  5  2  0
  7  6  1  6
  7  9  1  0
  8  7  1  0
  9 11  1  0
 10  4  1  0
  9 10  1  6
 11 12  2  0
 13 14  1  0
 14 16  1  0
 14 15  2  0
 17 16  1  1
 17 19  1  0
 18 17  1  0
 18 11  1  0
 19 21  2  0
 19 20  1  0
M  END
$$$$
