ATN.pdb
     RDKit          3D

 21 20  0  0  1  0  0  0  0  0999 V2000
   17.0474  -12.9160  -15.1590 C   0  0  0  0  0  0  0  0  0  0  0  0
   17.8656  -13.3109  -16.3929 C   0  0  2  0  0  0  0  0  0  0  0  0
   18.2770  -14.6938  -16.2981 N   0  0  0  0  0  0  0  0  0  0  0  0
   19.0376  -12.4041  -16.4282 C   0  0  0  0  0  0  0  0  0  0  0  0
   20.0726  -12.7570  -15.8119 O   0  0  0  0  0  0  0  0  0  0  0  0
   20.7709  -11.0622  -19.5145 C   0  0  0  0  0  0  0  0  0  0  0  0
   20.3891   -9.9029  -18.6269 C   0  0  1  0  0  0  0  0  0  0  0  0
   19.2111   -9.3327  -19.0983 O   0  0  0  0  0  0  0  0  0  0  0  0
   20.2267  -10.3045  -17.1843 C   0  0  2  0  0  0  0  0  0  0  0  0
   19.0471  -11.1757  -17.1136 N   0  0  0  0  0  0  0  0  0  0  0  0
   20.0779   -9.1790  -16.2587 C   0  0  0  0  0  0  0  0  0  0  0  0
   18.9257   -8.8832  -15.8346 O   0  0  0  0  0  0  0  0  0  0  0  0
   20.8371   -5.1086  -13.1557 N   0  0  0  0  0  0  0  0  0  0  0  0
   22.1289   -5.5805  -13.4998 C   0  0  0  0  0  0  0  0  0  0  0  0
   23.1582   -5.0581  -13.0104 O   0  0  0  0  0  0  0  0  0  0  0  0
   22.2749   -6.6989  -14.4440 C   0  0  0  0  0  0  0  0  0  0  0  0
   20.9407   -7.2172  -14.9351 C   0  0  2  0  0  0  0  0  0  0  0  0
   21.1436   -8.3767  -15.7890 N   0  0  0  0  0  0  0  0  0  0  0  0
   20.1218   -6.1847  -15.5931 C   0  0  0  0  0  0  0  0  0  0  0  0
   19.0963   -5.5163  -14.9428 O   0  0  0  0  0  0  0  0  0  0  0  0
   20.3320   -5.8696  -16.7939 O   0  0  0  0  0  0  0  0  0  0  0  0
  2  1  1  1
  2  4  1  0
  3  2  1  0
  4  5  2  0
  7  6  1  6
  7  9  1  0
  8  7  1  0
  9 11  1  0
 10  4  1  0
  9 10  1  6
 11 12  2  0
 13 14  1  0
 14 16  1  0
 14 15  2  0
 17 16  1  6
 17 19  1  0
 18 17  1  0
 18 11  1  0
 19 21  2  0
 19 20  1  0
M  END
$$$$
