ATN.pdb
     RDKit          3D

 21 20  0  0  1  0  0  0  0  0999 V2000
   16.5713  -10.8147  -13.2344 C   0  0  0  0  0  0  0  0  0  0  0  0
   16.1245  -10.8013  -11.7687 C   0  0  2  0  0  0  0  0  0  0  0  0
   15.1345  -11.8296  -11.5385 N   0  0  0  0  0  0  0  0  0  0  0  0
   15.5662   -9.4524  -11.5115 C   0  0  0  0  0  0  0  0  0  0  0  0
   14.4411   -9.1798  -11.9964 O   0  0  0  0  0  0  0  0  0  0  0  0
   15.0462   -7.7577   -8.0711 C   0  0  0  0  0  0  0  0  0  0  0  0
   15.9036   -6.9078   -8.9768 C   0  0  1  0  0  0  0  0  0  0  0  0
   17.2447   -7.1386   -8.6884 O   0  0  0  0  0  0  0  0  0  0  0  0
   15.6382   -7.1646  -10.4371 C   0  0  2  0  0  0  0  0  0  0  0  0
   16.2308   -8.4695  -10.7559 N   0  0  0  0  0  0  0  0  0  0  0  0
   16.1694   -6.1370  -11.3357 C   0  0  0  0  0  0  0  0  0  0  0  0
   17.3952   -6.1626  -11.6385 O   0  0  0  0  0  0  0  0  0  0  0  0
   14.8286   -2.6124  -16.1248 N   0  0  0  0  0  0  0  0  0  0  0  0
   15.5946   -2.9726  -14.9877 C   0  0  0  0  0  0  0  0  0  0  0  0
   16.7548   -2.5265  -14.8235 O   0  0  0  0  0  0  0  0  0  0  0  0
   15.0296   -3.8825  -13.9794 C   0  0  0  0  0  0  0  0  0  0  0  0
   15.9693   -4.1079  -12.8148 C   0  0  2  0  0  0  0  0  0  0  0  0
   15.4047   -5.0932  -11.9064 N   0  0  0  0  0  0  0  0  0  0  0  0
   16.3407   -2.8647  -12.1176 C   0  0  0  0  0  0  0  0  0  0  0  0
   15.6493   -2.3908  -11.0137 O   0  0  0  0  0  0  0  0  0  0  0  0
   17.3198   -2.1777  -12.5111 O   0  0  0  0  0  0  0  0  0  0  0  0
  2  1  1  6
  2  4  1  0
  3  2  1  0
  4  5  2  0
  7  6  1  1
  7  9  1  0
  8  7  1  0
  9 11  1  0
 10  4  1  0
  9 10  1  6
 11 12  2  0
 13 14  1  0
 14 16  1  0
 14 15  2  0
 17 16  1  6
 17 19  1  0
 18 17  1  0
 18 11  1  0
 19 21  2  0
 19 20  1  0
M  END
$$$$
