ATN.pdb
     RDKit          3D

 21 20  0  0  1  0  0  0  0  0999 V2000
   18.4523  -11.2477  -18.1278 C   0  0  0  0  0  0  0  0  0  0  0  0
   19.9504  -11.4869  -17.9122 C   0  0  2  0  0  0  0  0  0  0  0  0
   20.2152  -12.9012  -17.7694 N   0  0  0  0  0  0  0  0  0  0  0  0
   20.3222  -10.7451  -16.6839 C   0  0  0  0  0  0  0  0  0  0  0  0
   19.6043  -10.8971  -15.6656 O   0  0  0  0  0  0  0  0  0  0  0  0
   23.2345  -11.1665  -14.6546 C   0  0  0  0  0  0  0  0  0  0  0  0
   23.2164   -9.7033  -15.0242 C   0  0  1  0  0  0  0  0  0  0  0  0
   24.0777   -9.4900  -16.0955 O   0  0  0  0  0  0  0  0  0  0  0  0
   21.8357   -9.2074  -15.3654 C   0  0  2  0  0  0  0  0  0  0  0  0
   21.4324   -9.8850  -16.6039 N   0  0  0  0  0  0  0  0  0  0  0  0
   21.7413   -7.7552  -15.5320 C   0  0  0  0  0  0  0  0  0  0  0  0
   22.1169   -7.2381  -16.6213 O   0  0  0  0  0  0  0  0  0  0  0  0
   17.6526   -5.8092  -15.2429 N   0  0  0  0  0  0  0  0  0  0  0  0
   18.9177   -5.2593  -15.5699 C   0  0  0  0  0  0  0  0  0  0  0  0
   19.2586   -5.0905  -16.7645 O   0  0  0  0  0  0  0  0  0  0  0  0
   19.8517   -4.8776  -14.4994 C   0  0  0  0  0  0  0  0  0  0  0  0
   21.2458   -5.4192  -14.7302 C   0  0  2  0  0  0  0  0  0  0  0  0
   21.2524   -6.8623  -14.5503 N   0  0  0  0  0  0  0  0  0  0  0  0
   22.2713   -4.7565  -13.9065 C   0  0  0  0  0  0  0  0  0  0  0  0
   22.5717   -3.4088  -14.0272 O   0  0  0  0  0  0  0  0  0  0  0  0
   22.9222   -5.4077  -13.0476 O   0  0  0  0  0  0  0  0  0  0  0  0
  2  1  1  1
  2  4  1  0
  3  2  1  0
  4  5  2  0
  7  6  1  6
  7  9  1  0
  8  7  1  0
  9 11  1  0
 10  4  1  0
  9 10  1  6
 11 12  2  0
 13 14  1  0
 14 16  1  0
 14 15  2  0
 17 16  1  1
 17 19  1  0
 18 17  1  0
 18 11  1  0
 19 21  2  0
 19 20  1  0
M  END
$$$$
