ATN.pdb
     RDKit          3D

 21 20  0  0  1  0  0  0  0  0999 V2000
   18.8432  -14.5969  -17.5280 C   0  0  0  0  0  0  0  0  0  0  0  0
   20.3447  -14.5971  -17.2224 C   0  0  2  0  0  0  0  0  0  0  0  0
   20.7405  -15.8697  -16.6617 N   0  0  0  0  0  0  0  0  0  0  0  0
   20.5787  -13.4922  -16.2624 C   0  0  0  0  0  0  0  0  0  0  0  0
   20.0978  -13.6045  -15.1085 O   0  0  0  0  0  0  0  0  0  0  0  0
   23.8152  -12.2268  -15.0262 C   0  0  0  0  0  0  0  0  0  0  0  0
   23.0640  -11.0460  -15.5911 C   0  0  1  0  0  0  0  0  0  0  0  0
   23.5238  -10.7825  -16.8774 O   0  0  0  0  0  0  0  0  0  0  0  0
   21.5733  -11.2608  -15.6099 C   0  0  2  0  0  0  0  0  0  0  0  0
   21.3082  -12.3318  -16.5787 N   0  0  0  0  0  0  0  0  0  0  0  0
   20.7970  -10.0672  -15.9536 C   0  0  0  0  0  0  0  0  0  0  0  0
   20.4415   -9.8922  -17.1527 O   0  0  0  0  0  0  0  0  0  0  0  0
   16.4623   -6.6151  -15.5519 N   0  0  0  0  0  0  0  0  0  0  0  0
   17.6392   -6.5572  -14.7637 C   0  0  0  0  0  0  0  0  0  0  0  0
   18.0386   -5.4721  -14.2791 O   0  0  0  0  0  0  0  0  0  0  0  0
   18.4107   -7.7826  -14.5044 C   0  0  0  0  0  0  0  0  0  0  0  0
   19.6136   -7.9100  -15.4137 C   0  0  2  0  0  0  0  0  0  0  0  0
   20.4027   -9.0701  -15.0313 N   0  0  0  0  0  0  0  0  0  0  0  0
   20.4290   -6.6849  -15.4754 C   0  0  0  0  0  0  0  0  0  0  0  0
   20.0523   -5.5718  -16.2104 O   0  0  0  0  0  0  0  0  0  0  0  0
   21.5182   -6.6083  -14.8484 O   0  0  0  0  0  0  0  0  0  0  0  0
  2  1  1  1
  2  4  1  0
  3  2  1  0
  4  5  2  0
  7  6  1  6
  7  9  1  0
  8  7  1  0
  9 11  1  0
 10  4  1  0
  9 10  1  6
 11 12  2  0
 13 14  1  0
 14 16  1  0
 14 15  2  0
 17 16  1  1
 17 19  1  0
 18 17  1  0
 18 11  1  0
 19 21  2  0
 19 20  1  0
M  END
$$$$
