ATN.pdb
     RDKit          3D

 21 20  0  0  1  0  0  0  0  0999 V2000
   24.1838  -22.8262  -15.7720 C   0  0  0  0  0  0  0  0  0  0  0  0
   25.6857  -22.5641  -15.9256 C   0  0  2  0  0  0  0  0  0  0  0  0
   25.9079  -21.2695  -16.5299 N   0  0  0  0  0  0  0  0  0  0  0  0
   26.2174  -23.6528  -16.7795 C   0  0  0  0  0  0  0  0  0  0  0  0
   25.4637  -24.1275  -17.6638 O   0  0  0  0  0  0  0  0  0  0  0  0
   30.1614  -25.9927  -18.6010 C   0  0  0  0  0  0  0  0  0  0  0  0
   29.4264  -24.8737  -17.9043 C   0  0  1  0  0  0  0  0  0  0  0  0
   29.3810  -23.7635  -18.7414 O   0  0  0  0  0  0  0  0  0  0  0  0
   28.0322  -25.2643  -17.4892 C   0  0  2  0  0  0  0  0  0  0  0  0
   27.5163  -24.1767  -16.6485 N   0  0  0  0  0  0  0  0  0  0  0  0
   27.9523  -26.5379  -16.7703 C   0  0  0  0  0  0  0  0  0  0  0  0
   28.6963  -26.7223  -15.7666 O   0  0  0  0  0  0  0  0  0  0  0  0
   25.1856  -31.0389  -18.3466 N   0  0  0  0  0  0  0  0  0  0  0  0
   25.2732  -29.6998  -17.8896 C   0  0  0  0  0  0  0  0  0  0  0  0
   25.0689  -28.7379  -18.6674 O   0  0  0  0  0  0  0  0  0  0  0  0
   25.6081  -29.4236  -16.4841 C   0  0  0  0  0  0  0  0  0  0  0  0
   26.9880  -28.8225  -16.3274 C   0  0  2  0  0  0  0  0  0  0  0  0
   27.0898  -27.6044  -17.1152 N   0  0  0  0  0  0  0  0  0  0  0  0
   28.0736  -29.7695  -16.6341 C   0  0  0  0  0  0  0  0  0  0  0  0
   28.3987  -30.8297  -15.8025 O   0  0  0  0  0  0  0  0  0  0  0  0
   28.7560  -29.6431  -17.6847 O   0  0  0  0  0  0  0  0  0  0  0  0
  2  1  1  6
  2  4  1  0
  3  2  1  0
  4  5  2  0
  7  6  1  6
  7  9  1  0
  8  7  1  0
  9 11  1  0
 10  4  1  0
  9 10  1  1
 11 12  2  0
 13 14  1  0
 14 16  1  0
 14 15  2  0
 17 16  1  6
 17 19  1  0
 18 17  1  0
 18 11  1  0
 19 21  2  0
 19 20  1  0
M  END
$$$$
