ATN.pdb
     RDKit          3D

 21 20  0  0  1  0  0  0  0  0999 V2000
   19.2428  -13.7071  -15.7324 C   0  0  0  0  0  0  0  0  0  0  0  0
   17.9487  -12.9117  -15.5313 C   0  0  2  0  0  0  0  0  0  0  0  0
   16.8655  -13.5253  -16.2667 N   0  0  0  0  0  0  0  0  0  0  0  0
   18.2186  -11.5387  -16.0205 C   0  0  0  0  0  0  0  0  0  0  0  0
   19.0100  -11.4035  -16.9852 O   0  0  0  0  0  0  0  0  0  0  0  0
   15.8039   -9.2559  -17.5297 C   0  0  0  0  0  0  0  0  0  0  0  0
   16.4272   -8.5326  -16.3608 C   0  0  1  0  0  0  0  0  0  0  0  0
   15.5950   -8.6495  -15.2523 O   0  0  0  0  0  0  0  0  0  0  0  0
   17.8043   -9.0443  -16.0284 C   0  0  2  0  0  0  0  0  0  0  0  0
   17.6354  -10.3876  -15.4605 N   0  0  0  0  0  0  0  0  0  0  0  0
   18.5544   -8.1954  -15.0998 C   0  0  0  0  0  0  0  0  0  0  0  0
   18.4943   -8.4395  -13.8622 O   0  0  0  0  0  0  0  0  0  0  0  0
   22.9331   -4.2868  -14.3426 N   0  0  0  0  0  0  0  0  0  0  0  0
   22.2753   -5.4304  -13.8239 C   0  0  0  0  0  0  0  0  0  0  0  0
   22.3117   -5.6957  -12.5991 O   0  0  0  0  0  0  0  0  0  0  0  0
   21.5361   -6.3256  -14.7274 C   0  0  0  0  0  0  0  0  0  0  0  0
   20.0390   -6.2440  -14.5224 C   0  0  2  0  0  0  0  0  0  0  0  0
   19.3603   -7.0984  -15.4837 N   0  0  0  0  0  0  0  0  0  0  0  0
   19.5221   -4.8650  -14.5494 C   0  0  0  0  0  0  0  0  0  0  0  0
   19.4455   -4.0724  -13.4149 O   0  0  0  0  0  0  0  0  0  0  0  0
   19.1247   -4.3511  -15.6280 O   0  0  0  0  0  0  0  0  0  0  0  0
  2  1  1  6
  2  4  1  0
  3  2  1  0
  4  5  2  0
  7  6  1  6
  7  9  1  0
  8  7  1  0
  9 11  1  0
 10  4  1  0
  9 10  1  1
 11 12  2  0
 13 14  1  0
 14 16  1  0
 14 15  2  0
 17 16  1  6
 17 19  1  0
 18 17  1  0
 18 11  1  0
 19 21  2  0
 19 20  1  0
M  END
$$$$
