ATN.pdb
     RDKit          3D

 21 20  0  0  1  0  0  0  0  0999 V2000
   13.8591   -9.5740  -14.4034 C   0  0  0  0  0  0  0  0  0  0  0  0
   14.6685  -10.6574  -15.1239 C   0  0  2  0  0  0  0  0  0  0  0  0
   14.1658  -11.9687  -14.7798 N   0  0  0  0  0  0  0  0  0  0  0  0
   16.0754  -10.4912  -14.6879 C   0  0  0  0  0  0  0  0  0  0  0  0
   16.3639  -10.7955  -13.5048 O   0  0  0  0  0  0  0  0  0  0  0  0
   18.8414  -12.3513  -16.0923 C   0  0  0  0  0  0  0  0  0  0  0  0
   19.2170  -10.8928  -16.1911 C   0  0  1  0  0  0  0  0  0  0  0  0
   18.9265  -10.4300  -17.4704 O   0  0  0  0  0  0  0  0  0  0  0  0
   18.5179  -10.0420  -15.1634 C   0  0  2  0  0  0  0  0  0  0  0  0
   17.0963  -10.0123  -15.5289 N   0  0  0  0  0  0  0  0  0  0  0  0
   19.0390   -8.6773  -15.0560 C   0  0  0  0  0  0  0  0  0  0  0  0
   18.4998   -7.7605  -15.7369 O   0  0  0  0  0  0  0  0  0  0  0  0
   21.7884   -4.4364  -13.9438 N   0  0  0  0  0  0  0  0  0  0  0  0
   22.0834   -5.3785  -12.9264 C   0  0  0  0  0  0  0  0  0  0  0  0
   22.8226   -5.0749  -11.9604 O   0  0  0  0  0  0  0  0  0  0  0  0
   21.5189   -6.7352  -12.9954 C   0  0  0  0  0  0  0  0  0  0  0  0
   20.6717   -6.9451  -14.2316 C   0  0  2  0  0  0  0  0  0  0  0  0
   20.1224   -8.2917  -14.2327 N   0  0  0  0  0  0  0  0  0  0  0  0
   21.3839   -6.6396  -15.4842 C   0  0  0  0  0  0  0  0  0  0  0  0
   21.8866   -7.6256  -16.3186 O   0  0  0  0  0  0  0  0  0  0  0  0
   21.5628   -5.4464  -15.8445 O   0  0  0  0  0  0  0  0  0  0  0  0
  2  1  1  1
  2  4  1  0
  3  2  1  0
  4  5  2  0
  7  6  1  6
  7  9  1  0
  8  7  1  0
  9 11  1  0
 10  4  1  0
  9 10  1  6
 11 12  2  0
 13 14  1  0
 14 16  1  0
 14 15  2  0
 17 16  1  1
 17 19  1  0
 18 17  1  0
 18 11  1  0
 19 21  2  0
 19 20  1  0
M  END
$$$$
