ATN.pdb
     RDKit          3D

 21 20  0  0  1  0  0  0  0  0999 V2000
   15.1733  -11.0998  -10.5834 C   0  0  0  0  0  0  0  0  0  0  0  0
   14.5706  -10.0859   -9.6052 C   0  0  2  0  0  0  0  0  0  0  0  0
   13.1322  -10.2267   -9.5626 N   0  0  0  0  0  0  0  0  0  0  0  0
   14.9637   -8.7435  -10.0956 C   0  0  0  0  0  0  0  0  0  0  0  0
   14.3988   -8.3062  -11.1277 O   0  0  0  0  0  0  0  0  0  0  0  0
   14.6331   -5.5325   -8.3756 C   0  0  0  0  0  0  0  0  0  0  0  0
   16.0836   -5.6587   -8.7728 C   0  0  1  0  0  0  0  0  0  0  0  0
   16.8237   -6.0894   -7.6764 O   0  0  0  0  0  0  0  0  0  0  0  0
   16.2887   -6.5959   -9.9340 C   0  0  2  0  0  0  0  0  0  0  0  0
   15.9321   -7.9409   -9.4656 N   0  0  0  0  0  0  0  0  0  0  0  0
   17.6496   -6.5954  -10.4755 C   0  0  0  0  0  0  0  0  0  0  0  0
   18.5802   -7.1089   -9.7934 O   0  0  0  0  0  0  0  0  0  0  0  0
   22.3055   -6.7570  -12.5820 N   0  0  0  0  0  0  0  0  0  0  0  0
   21.1909   -7.2995  -13.2698 C   0  0  0  0  0  0  0  0  0  0  0  0
   21.3064   -7.7439  -14.4364 O   0  0  0  0  0  0  0  0  0  0  0  0
   19.8749   -7.3464  -12.6142 C   0  0  0  0  0  0  0  0  0  0  0  0
   19.3971   -5.9773  -12.1812 C   0  0  2  0  0  0  0  0  0  0  0  0
   18.0170   -6.0544  -11.7295 N   0  0  0  0  0  0  0  0  0  0  0  0
   19.5821   -4.9430  -13.2135 C   0  0  0  0  0  0  0  0  0  0  0  0
   20.7839   -4.2777  -13.3989 O   0  0  0  0  0  0  0  0  0  0  0  0
   18.6333   -4.6233  -13.9770 O   0  0  0  0  0  0  0  0  0  0  0  0
  2  1  1  6
  2  4  1  0
  3  2  1  0
  4  5  2  0
  7  6  1  1
  7  9  1  0
  8  7  1  0
  9 11  1  0
 10  4  1  0
  9 10  1  1
 11 12  2  0
 13 14  1  0
 14 16  1  0
 14 15  2  0
 17 16  1  6
 17 19  1  0
 18 17  1  0
 18 11  1  0
 19 21  2  0
 19 20  1  0
M  END
$$$$
