ATN.pdb
     RDKit          3D

 21 20  0  0  1  0  0  0  0  0999 V2000
   18.6233  -14.6264  -16.3579 C   0  0  0  0  0  0  0  0  0  0  0  0
   20.1409  -14.5479  -16.1615 C   0  0  2  0  0  0  0  0  0  0  0  0
   20.6006  -15.6655  -15.3676 N   0  0  0  0  0  0  0  0  0  0  0  0
   20.4107  -13.2594  -15.4803 C   0  0  0  0  0  0  0  0  0  0  0  0
   20.0766  -13.1504  -14.2753 O   0  0  0  0  0  0  0  0  0  0  0  0
   23.7156  -11.6435  -14.9351 C   0  0  0  0  0  0  0  0  0  0  0  0
   22.8246  -10.6628  -15.6578 C   0  0  1  0  0  0  0  0  0  0  0  0
   23.0944  -10.7166  -17.0214 O   0  0  0  0  0  0  0  0  0  0  0  0
   21.3606  -10.9170  -15.4110 C   0  0  2  0  0  0  0  0  0  0  0  0
   21.0186  -12.1601  -16.1134 N   0  0  0  0  0  0  0  0  0  0  0  0
   20.4788   -9.8322  -15.8483 C   0  0  0  0  0  0  0  0  0  0  0  0
   20.0217   -9.8515  -17.0254 O   0  0  0  0  0  0  0  0  0  0  0  0
   17.5003   -5.6277  -16.2103 N   0  0  0  0  0  0  0  0  0  0  0  0
   17.2843   -6.2541  -14.9570 C   0  0  0  0  0  0  0  0  0  0  0  0
   16.3702   -5.8670  -14.1912 O   0  0  0  0  0  0  0  0  0  0  0  0
   18.1394   -7.3757  -14.5392 C   0  0  0  0  0  0  0  0  0  0  0  0
   19.2456   -7.6586  -15.5324 C   0  0  2  0  0  0  0  0  0  0  0  0
   20.0872   -8.7384  -15.0419 N   0  0  0  0  0  0  0  0  0  0  0  0
   20.0316   -6.4637  -15.8842 C   0  0  0  0  0  0  0  0  0  0  0  0
   19.6034   -5.5357  -16.8205 O   0  0  0  0  0  0  0  0  0  0  0  0
   21.1420   -6.2424  -15.3334 O   0  0  0  0  0  0  0  0  0  0  0  0
  2  1  1  1
  2  4  1  0
  3  2  1  0
  4  5  2  0
  7  6  1  1
  7  9  1  0
  8  7  1  0
  9 11  1  0
 10  4  1  0
  9 10  1  6
 11 12  2  0
 13 14  1  0
 14 16  1  0
 14 15  2  0
 17 16  1  1
 17 19  1  0
 18 17  1  0
 18 11  1  0
 19 21  2  0
 19 20  1  0
M  END
$$$$
