ATN.pdb
     RDKit          3D

 21 20  0  0  1  0  0  0  0  0999 V2000
   13.8808   -9.2553  -15.1604 C   0  0  0  0  0  0  0  0  0  0  0  0
   14.7124  -10.3996  -15.7496 C   0  0  2  0  0  0  0  0  0  0  0  0
   14.0930  -11.6719  -15.4526 N   0  0  0  0  0  0  0  0  0  0  0  0
   16.0576  -10.3017  -15.1347 C   0  0  0  0  0  0  0  0  0  0  0  0
   16.1619  -10.5438  -13.9075 O   0  0  0  0  0  0  0  0  0  0  0  0
   18.9530  -12.3326  -15.6681 C   0  0  0  0  0  0  0  0  0  0  0  0
   19.3994  -10.9184  -15.9479 C   0  0  1  0  0  0  0  0  0  0  0  0
   19.3806  -10.6945  -17.3208 O   0  0  0  0  0  0  0  0  0  0  0  0
   18.5502   -9.8914  -15.2459 C   0  0  2  0  0  0  0  0  0  0  0  0
   17.2152   -9.9532  -15.8539 N   0  0  0  0  0  0  0  0  0  0  0  0
   19.0740   -8.5254  -15.3184 C   0  0  0  0  0  0  0  0  0  0  0  0
   18.5964   -7.7311  -16.1763 O   0  0  0  0  0  0  0  0  0  0  0  0
   22.7932   -4.9756  -14.6167 N   0  0  0  0  0  0  0  0  0  0  0  0
   22.2198   -5.2560  -13.3509 C   0  0  0  0  0  0  0  0  0  0  0  0
   22.6909   -4.7533  -12.3034 O   0  0  0  0  0  0  0  0  0  0  0  0
   21.0546   -6.1487  -13.2537 C   0  0  0  0  0  0  0  0  0  0  0  0
   20.5979   -6.6502  -14.6065 C   0  0  2  0  0  0  0  0  0  0  0  0
   20.0949   -8.0095  -14.4867 N   0  0  0  0  0  0  0  0  0  0  0  0
   21.6318   -6.5351  -15.6492 C   0  0  0  0  0  0  0  0  0  0  0  0
   21.9520   -5.3305  -16.2554 O   0  0  0  0  0  0  0  0  0  0  0  0
   22.2716   -7.5500  -16.0315 O   0  0  0  0  0  0  0  0  0  0  0  0
  2  1  1  1
  2  4  1  0
  3  2  1  0
  4  5  2  0
  7  6  1  6
  7  9  1  0
  8  7  1  0
  9 11  1  0
 10  4  1  0
  9 10  1  6
 11 12  2  0
 13 14  1  0
 14 16  1  0
 14 15  2  0
 17 16  1  1
 17 19  1  0
 18 17  1  0
 18 11  1  0
 19 21  2  0
 19 20  1  0
M  END
$$$$
