ATN.pdb
     RDKit          3D

 21 20  0  0  1  0  0  0  0  0999 V2000
   21.1723  -15.7823  -18.5733 C   0  0  0  0  0  0  0  0  0  0  0  0
   21.4752  -14.3598  -19.0555 C   0  0  2  0  0  0  0  0  0  0  0  0
   22.5500  -14.3781  -20.0225 N   0  0  0  0  0  0  0  0  0  0  0  0
   21.8496  -13.5787  -17.8525 C   0  0  0  0  0  0  0  0  0  0  0  0
   21.1175  -13.6756  -16.8376 O   0  0  0  0  0  0  0  0  0  0  0  0
   25.2622  -10.7777  -15.5517 C   0  0  0  0  0  0  0  0  0  0  0  0
   24.7949  -11.8019  -16.5568 C   0  0  1  0  0  0  0  0  0  0  0  0
   25.3395  -13.0412  -16.2361 O   0  0  0  0  0  0  0  0  0  0  0  0
   23.2937  -11.9014  -16.6299 C   0  0  2  0  0  0  0  0  0  0  0  0
   22.9773  -12.7400  -17.7928 N   0  0  0  0  0  0  0  0  0  0  0  0
   22.6091  -10.6110  -16.7382 C   0  0  0  0  0  0  0  0  0  0  0  0
   22.6804   -9.9691  -17.8234 O   0  0  0  0  0  0  0  0  0  0  0  0
   17.8812   -7.4080  -14.9956 N   0  0  0  0  0  0  0  0  0  0  0  0
   18.9243   -7.6871  -15.9141 C   0  0  0  0  0  0  0  0  0  0  0  0
   19.2238   -6.8715  -16.8179 O   0  0  0  0  0  0  0  0  0  0  0  0
   19.6729   -8.9495  -15.8141 C   0  0  0  0  0  0  0  0  0  0  0  0
   21.1704   -8.7374  -15.8634 C   0  0  2  0  0  0  0  0  0  0  0  0
   21.8562  -10.0097  -15.7029 N   0  0  0  0  0  0  0  0  0  0  0  0
   21.6474   -7.7291  -14.9015 C   0  0  0  0  0  0  0  0  0  0  0  0
   21.6475   -6.3712  -15.1795 O   0  0  0  0  0  0  0  0  0  0  0  0
   22.0798   -8.0765  -13.7711 O   0  0  0  0  0  0  0  0  0  0  0  0
  2  1  1  1
  2  4  1  0
  3  2  1  0
  4  5  2  0
  7  6  1  1
  7  9  1  0
  8  7  1  0
  9 11  1  0
 10  4  1  0
  9 10  1  6
 11 12  2  0
 13 14  1  0
 14 16  1  0
 14 15  2  0
 17 16  1  1
 17 19  1  0
 18 17  1  0
 18 11  1  0
 19 21  2  0
 19 20  1  0
M  END
$$$$
