DSA.pdb
     RDKit          3D

 20 19  0  0  1  0  0  0  0  0999 V2000
   10.0174  -16.9283   20.2013 N   0  0  0  0  0  0  0  0  0  0  0  0
   10.6279  -17.3544   21.4412 C   0  0  1  0  0  0  0  0  0  0  0  0
   12.0904  -16.9495   21.3862 C   0  0  0  0  0  0  0  0  0  0  0  0
   12.8815  -17.7936   20.4569 C   0  0  0  0  0  0  0  0  0  0  0  0
   13.7357  -17.3409   19.6506 O   0  0  0  0  0  0  0  0  0  0  0  0
    9.9771  -16.6407   22.5518 C   0  0  0  0  0  0  0  0  0  0  0  0
    9.8860  -15.3877   22.4595 O   0  0  0  0  0  0  0  0  0  0  0  0
   12.7204  -19.1860   20.4198 O   0  0  0  0  0  0  0  0  0  0  0  0
    8.0095  -18.4305   25.8992 O   0  0  0  0  0  0  0  0  0  0  0  0
    7.5851  -17.2500   25.3160 C   0  0  0  0  0  0  0  0  0  0  0  0
    8.7275  -16.4762   24.6573 C   0  0  2  0  0  0  0  0  0  0  0  0
    9.4473  -17.2504   23.7119 N   0  0  0  0  0  0  0  0  0  0  0  0
    9.5503  -15.9110   25.7400 C   0  0  0  0  0  0  0  0  0  0  0  0
   10.6886  -16.4239   25.9207 O   0  0  0  0  0  0  0  0  0  0  0  0
    9.5725  -13.0511   28.1944 C   0  0  0  0  0  0  0  0  0  0  0  0
   10.0506  -14.3345   27.5559 C   0  0  2  0  0  0  0  0  0  0  0  0
    9.1467  -14.8438   26.5763 N   0  0  0  0  0  0  0  0  0  0  0  0
   10.1897  -15.3653   28.6407 C   0  0  0  0  0  0  0  0  0  0  0  0
   11.0145  -15.2125   29.5866 O   0  0  0  0  0  0  0  0  0  0  0  0
    9.4291  -16.5233   28.6593 O   0  0  0  0  0  0  0  0  0  0  0  0
  2  1  1  6
  3  2  1  0
  3  4  1  0
  4  5  2  0
  6  2  1  0
  6  7  2  0
  8  4  1  0
 10  9  1  0
 11 10  1  1
 11 12  1  0
 12  6  1  0
 13 11  1  0
 14 13  2  0
 16 15  1  1
 16 17  1  0
 16 18  1  0
 17 13  1  0
 18 20  1  0
 19 18  2  0
M  END
$$$$
