DSA.pdb
     RDKit          3D

 20 19  0  0  1  0  0  0  0  0999 V2000
    8.9279  -26.5296   29.5976 N   0  0  0  0  0  0  0  0  0  0  0  0
    9.1284  -25.4800   28.6232 C   0  0  1  0  0  0  0  0  0  0  0  0
    7.9236  -24.5587   28.6984 C   0  0  0  0  0  0  0  0  0  0  0  0
    6.7069  -25.1607   28.0991 C   0  0  0  0  0  0  0  0  0  0  0  0
    5.5806  -25.1766   28.6613 O   0  0  0  0  0  0  0  0  0  0  0  0
   10.3331  -24.7207   28.9956 C   0  0  0  0  0  0  0  0  0  0  0  0
   10.5782  -24.5916   30.2245 O   0  0  0  0  0  0  0  0  0  0  0  0
    6.7395  -25.7655   26.8345 O   0  0  0  0  0  0  0  0  0  0  0  0
   12.8557  -22.3138   26.4794 O   0  0  0  0  0  0  0  0  0  0  0  0
   13.3956  -23.1439   27.4454 C   0  0  0  0  0  0  0  0  0  0  0  0
   12.4011  -23.4740   28.5589 C   0  0  2  0  0  0  0  0  0  0  0  0
   11.2349  -24.1262   28.0837 N   0  0  0  0  0  0  0  0  0  0  0  0
   12.1471  -22.2261   29.2984 C   0  0  0  0  0  0  0  0  0  0  0  0
   11.0797  -21.6095   29.0302 O   0  0  0  0  0  0  0  0  0  0  0  0
   12.2676  -20.6503   32.3696 C   0  0  0  0  0  0  0  0  0  0  0  0
   12.6719  -20.4628   30.9257 C   0  0  2  0  0  0  0  0  0  0  0  0
   13.0149  -21.6861   30.2763 N   0  0  0  0  0  0  0  0  0  0  0  0
   13.8784  -19.5671   30.8974 C   0  0  0  0  0  0  0  0  0  0  0  0
   14.9522  -19.9334   30.3397 O   0  0  0  0  0  0  0  0  0  0  0  0
   13.8754  -18.3076   31.4750 O   0  0  0  0  0  0  0  0  0  0  0  0
  2  1  1  1
  3  2  1  0
  3  4  1  0
  4  5  2  0
  6  2  1  0
  6  7  2  0
  8  4  1  0
 10  9  1  0
 11 10  1  6
 11 12  1  0
 12  6  1  0
 13 11  1  0
 14 13  2  0
 16 15  1  1
 16 17  1  0
 16 18  1  0
 17 13  1  0
 18 20  1  0
 19 18  2  0
M  END
$$$$
