DSA.pdb
     RDKit          3D

 20 19  0  0  1  0  0  0  0  0999 V2000
   15.0896  -13.8909   18.0427 N   0  0  0  0  0  0  0  0  0  0  0  0
   13.9174  -14.7203   17.8708 C   0  0  1  0  0  0  0  0  0  0  0  0
   14.4012  -16.1341   17.6006 C   0  0  0  0  0  0  0  0  0  0  0  0
   15.0655  -16.2673   16.2804 C   0  0  0  0  0  0  0  0  0  0  0  0
   16.1988  -16.7894   16.1133 O   0  0  0  0  0  0  0  0  0  0  0  0
   13.1501  -14.7109   19.1267 C   0  0  0  0  0  0  0  0  0  0  0  0
   13.8034  -14.6724   20.2031 O   0  0  0  0  0  0  0  0  0  0  0  0
   14.4535  -15.8062   15.1061 O   0  0  0  0  0  0  0  0  0  0  0  0
    8.9330  -15.3839   19.6814 O   0  0  0  0  0  0  0  0  0  0  0  0
    9.6067  -14.4080   20.3939 C   0  0  0  0  0  0  0  0  0  0  0  0
   11.1084  -14.6802   20.4877 C   0  0  2  0  0  0  0  0  0  0  0  0
   11.7398  -14.7414   19.2193 N   0  0  0  0  0  0  0  0  0  0  0  0
   11.2805  -15.8851   21.3166 C   0  0  0  0  0  0  0  0  0  0  0  0
   11.7221  -16.9171   20.7410 O   0  0  0  0  0  0  0  0  0  0  0  0
   12.5737  -17.7037   23.3503 C   0  0  0  0  0  0  0  0  0  0  0  0
   11.1546  -17.1863   23.3961 C   0  0  2  0  0  0  0  0  0  0  0  0
   10.9848  -15.9532   22.6983 N   0  0  0  0  0  0  0  0  0  0  0  0
   10.7932  -16.9586   24.8371 C   0  0  0  0  0  0  0  0  0  0  0  0
   10.8124  -17.9060   25.6739 O   0  0  0  0  0  0  0  0  0  0  0  0
   10.4244  -15.7121   25.3167 O   0  0  0  0  0  0  0  0  0  0  0  0
  2  1  1  1
  3  2  1  0
  3  4  1  0
  4  5  2  0
  6  2  1  0
  6  7  2  0
  8  4  1  0
 10  9  1  0
 11 10  1  6
 11 12  1  0
 12  6  1  0
 13 11  1  0
 14 13  2  0
 16 15  1  1
 16 17  1  0
 16 18  1  0
 17 13  1  0
 18 20  1  0
 19 18  2  0
M  END
$$$$
