DSA.pdb
     RDKit          3D

 20 19  0  0  1  0  0  0  0  0999 V2000
   11.3526  -16.7049   19.9855 N   0  0  0  0  0  0  0  0  0  0  0  0
   11.9656  -15.8302   20.9605 C   0  0  1  0  0  0  0  0  0  0  0  0
   12.2510  -14.5104   20.2659 C   0  0  0  0  0  0  0  0  0  0  0  0
   13.5580  -14.5064   19.5631 C   0  0  0  0  0  0  0  0  0  0  0  0
   14.4463  -15.3833   19.7262 O   0  0  0  0  0  0  0  0  0  0  0  0
   11.0034  -15.5974   22.0497 C   0  0  0  0  0  0  0  0  0  0  0  0
   10.2640  -14.5814   21.9606 O   0  0  0  0  0  0  0  0  0  0  0  0
   13.8916  -13.4968   18.6491 O   0  0  0  0  0  0  0  0  0  0  0  0
    9.7341  -18.4402   24.8555 O   0  0  0  0  0  0  0  0  0  0  0  0
    8.9825  -17.3319   24.5083 C   0  0  0  0  0  0  0  0  0  0  0  0
    9.8483  -16.1237   24.1497 C   0  0  2  0  0  0  0  0  0  0  0  0
   10.8443  -16.4234   23.1857 N   0  0  0  0  0  0  0  0  0  0  0  0
   10.3647  -15.5693   25.4125 C   0  0  0  0  0  0  0  0  0  0  0  0
   11.5440  -15.8812   25.7341 O   0  0  0  0  0  0  0  0  0  0  0  0
    9.4699  -13.1796   28.1733 C   0  0  0  0  0  0  0  0  0  0  0  0
   10.1739  -14.3575   27.5404 C   0  0  2  0  0  0  0  0  0  0  0  0
    9.6288  -14.7212   26.2728 N   0  0  0  0  0  0  0  0  0  0  0  0
   10.0266  -15.5335   28.4645 C   0  0  0  0  0  0  0  0  0  0  0  0
    9.2623  -16.4990   28.1781 O   0  0  0  0  0  0  0  0  0  0  0  0
   10.7136  -15.6186   29.6648 O   0  0  0  0  0  0  0  0  0  0  0  0
  2  1  1  6
  3  2  1  0
  3  4  1  0
  4  5  2  0
  6  2  1  0
  6  7  2  0
  8  4  1  0
 10  9  1  0
 11 10  1  1
 11 12  1  0
 12  6  1  0
 13 11  1  0
 14 13  2  0
 16 15  1  1
 16 17  1  0
 16 18  1  0
 17 13  1  0
 18 20  1  0
 19 18  2  0
M  END
$$$$
