DSA.pdb
     RDKit          3D

 20 19  0  0  1  0  0  0  0  0999 V2000
   11.0659  -16.2454   19.6033 N   0  0  0  0  0  0  0  0  0  0  0  0
   11.8018  -15.7408   20.7415 C   0  0  1  0  0  0  0  0  0  0  0  0
   12.3877  -14.3985   20.3406 C   0  0  0  0  0  0  0  0  0  0  0  0
   13.6010  -14.5346   19.4970 C   0  0  0  0  0  0  0  0  0  0  0  0
   14.5488  -15.3232   19.7510 O   0  0  0  0  0  0  0  0  0  0  0  0
   10.8597  -15.5367   21.8538 C   0  0  0  0  0  0  0  0  0  0  0  0
    9.9217  -14.7153   21.6736 O   0  0  0  0  0  0  0  0  0  0  0  0
   13.7694  -13.7711   18.3331 O   0  0  0  0  0  0  0  0  0  0  0  0
    9.9031  -18.3363   24.6689 O   0  0  0  0  0  0  0  0  0  0  0  0
    9.0980  -17.2553   24.3575 C   0  0  0  0  0  0  0  0  0  0  0  0
    9.9025  -15.9876   24.0678 C   0  0  2  0  0  0  0  0  0  0  0  0
   10.9251  -16.1892   23.1061 N   0  0  0  0  0  0  0  0  0  0  0  0
   10.3728  -15.4663   25.3622 C   0  0  0  0  0  0  0  0  0  0  0  0
   11.5550  -15.7508   25.6980 O   0  0  0  0  0  0  0  0  0  0  0  0
    9.3473  -13.1958   28.1766 C   0  0  0  0  0  0  0  0  0  0  0  0
   10.1041  -14.3285   27.5223 C   0  0  2  0  0  0  0  0  0  0  0  0
    9.5901  -14.6777   26.2378 N   0  0  0  0  0  0  0  0  0  0  0  0
    9.9896  -15.5341   28.4124 C   0  0  0  0  0  0  0  0  0  0  0  0
   10.4521  -15.5250   29.5889 O   0  0  0  0  0  0  0  0  0  0  0  0
    9.3779  -16.7045   27.9932 O   0  0  0  0  0  0  0  0  0  0  0  0
  2  1  1  6
  3  2  1  0
  3  4  1  0
  4  5  2  0
  6  2  1  0
  6  7  2  0
  8  4  1  0
 10  9  1  0
 11 10  1  1
 11 12  1  0
 12  6  1  0
 13 11  1  0
 14 13  2  0
 16 15  1  1
 16 17  1  0
 16 18  1  0
 17 13  1  0
 18 20  1  0
 19 18  2  0
M  END
$$$$
