DSA.pdb
     RDKit          3D

 20 19  0  0  1  0  0  0  0  0999 V2000
   11.9704  -16.2803   20.2839 N   0  0  0  0  0  0  0  0  0  0  0  0
   12.5089  -16.5179   21.6050 C   0  0  1  0  0  0  0  0  0  0  0  0
   13.7630  -15.6724   21.7395 C   0  0  0  0  0  0  0  0  0  0  0  0
   14.9126  -16.2333   20.9873 C   0  0  0  0  0  0  0  0  0  0  0  0
   15.6360  -15.5619   20.2058 O   0  0  0  0  0  0  0  0  0  0  0  0
   11.5217  -16.0681   22.5997 C   0  0  0  0  0  0  0  0  0  0  0  0
   11.1146  -14.8791   22.5135 O   0  0  0  0  0  0  0  0  0  0  0  0
   15.2724  -17.5834   21.1050 O   0  0  0  0  0  0  0  0  0  0  0  0
    9.2891  -18.5539   25.1481 O   0  0  0  0  0  0  0  0  0  0  0  0
    8.8629  -17.2880   24.7883 C   0  0  0  0  0  0  0  0  0  0  0  0
   10.0248  -16.3291   24.5266 C   0  0  2  0  0  0  0  0  0  0  0  0
   10.9956  -16.8647   23.6423 N   0  0  0  0  0  0  0  0  0  0  0  0
   10.5518  -15.9170   25.8384 C   0  0  0  0  0  0  0  0  0  0  0  0
   11.6181  -16.4690   26.2255 O   0  0  0  0  0  0  0  0  0  0  0  0
    9.9311  -13.4209   28.5911 C   0  0  0  0  0  0  0  0  0  0  0  0
   10.5340  -14.6432   27.9384 C   0  0  2  0  0  0  0  0  0  0  0  0
    9.9433  -14.9542   26.6773 N   0  0  0  0  0  0  0  0  0  0  0  0
   10.3127  -15.8124   28.8565 C   0  0  0  0  0  0  0  0  0  0  0  0
    9.4757  -16.7168   28.5739 O   0  0  0  0  0  0  0  0  0  0  0  0
   11.0072  -15.9571   30.0467 O   0  0  0  0  0  0  0  0  0  0  0  0
  2  1  1  6
  3  2  1  0
  3  4  1  0
  4  5  2  0
  6  2  1  0
  6  7  2  0
  8  4  1  0
 10  9  1  0
 11 10  1  1
 11 12  1  0
 12  6  1  0
 13 11  1  0
 14 13  2  0
 16 15  1  1
 16 17  1  0
 16 18  1  0
 17 13  1  0
 18 20  1  0
 19 18  2  0
M  END
$$$$
