DSA.pdb
     RDKit          3D

 20 19  0  0  1  0  0  0  0  0999 V2000
   10.6909  -17.0502   20.2350 N   0  0  0  0  0  0  0  0  0  0  0  0
   11.3266  -17.3721   21.4934 C   0  0  1  0  0  0  0  0  0  0  0  0
   12.7385  -16.8155   21.4407 C   0  0  0  0  0  0  0  0  0  0  0  0
   13.6014  -17.5393   20.4744 C   0  0  0  0  0  0  0  0  0  0  0  0
   13.7204  -18.7920   20.4397 O   0  0  0  0  0  0  0  0  0  0  0  0
   10.5891  -16.6995   22.5750 C   0  0  0  0  0  0  0  0  0  0  0  0
   10.2191  -15.5126   22.3713 O   0  0  0  0  0  0  0  0  0  0  0  0
   14.3578  -16.8516   19.5147 O   0  0  0  0  0  0  0  0  0  0  0  0
    8.6834  -18.6640   25.7578 O   0  0  0  0  0  0  0  0  0  0  0  0
    8.2558  -17.4598   25.2278 C   0  0  0  0  0  0  0  0  0  0  0  0
    9.4125  -16.5949   24.7259 C   0  0  2  0  0  0  0  0  0  0  0  0
   10.2640  -17.2801   23.8222 N   0  0  0  0  0  0  0  0  0  0  0  0
   10.0917  -16.0470   25.9121 C   0  0  0  0  0  0  0  0  0  0  0  0
   11.2034  -16.5570   26.2211 O   0  0  0  0  0  0  0  0  0  0  0  0
    9.6896  -13.3657   28.5386 C   0  0  0  0  0  0  0  0  0  0  0  0
   10.3225  -14.5502   27.8458 C   0  0  2  0  0  0  0  0  0  0  0  0
    9.5800  -14.9994   26.7131 N   0  0  0  0  0  0  0  0  0  0  0  0
   10.3910  -15.6800   28.8346 C   0  0  0  0  0  0  0  0  0  0  0  0
   11.1319  -15.6108   29.8566 O   0  0  0  0  0  0  0  0  0  0  0  0
    9.6537  -16.8426   28.6780 O   0  0  0  0  0  0  0  0  0  0  0  0
  2  1  1  6
  3  2  1  0
  3  4  1  0
  4  5  2  0
  6  2  1  0
  6  7  2  0
  8  4  1  0
 10  9  1  0
 11 10  1  1
 11 12  1  0
 12  6  1  0
 13 11  1  0
 14 13  2  0
 16 15  1  1
 16 17  1  0
 16 18  1  0
 17 13  1  0
 18 20  1  0
 19 18  2  0
M  END
$$$$
