DSA.pdb
     RDKit          3D

 20 19  0  0  1  0  0  0  0  0999 V2000
   12.4764  -21.3422   18.2357 N   0  0  0  0  0  0  0  0  0  0  0  0
   12.7283  -22.1946   19.3765 C   0  0  1  0  0  0  0  0  0  0  0  0
   14.2203  -22.1460   19.6551 C   0  0  0  0  0  0  0  0  0  0  0  0
   15.0072  -22.9543   18.6909 C   0  0  0  0  0  0  0  0  0  0  0  0
   14.5035  -23.5750   17.7184 O   0  0  0  0  0  0  0  0  0  0  0  0
   12.0085  -21.6462   20.5374 C   0  0  0  0  0  0  0  0  0  0  0  0
   11.9221  -20.3924   20.6246 O   0  0  0  0  0  0  0  0  0  0  0  0
   16.3988  -23.0789   18.8088 O   0  0  0  0  0  0  0  0  0  0  0  0
    9.3114  -23.6157   23.3354 O   0  0  0  0  0  0  0  0  0  0  0  0
    9.3063  -22.3272   22.8320 C   0  0  0  0  0  0  0  0  0  0  0  0
   10.7158  -21.7740   22.6192 C   0  0  2  0  0  0  0  0  0  0  0  0
   11.4077  -22.4150   21.5602 N   0  0  0  0  0  0  0  0  0  0  0  0
   11.4036  -21.8255   23.9203 C   0  0  0  0  0  0  0  0  0  0  0  0
   12.2559  -22.7415   24.0809 O   0  0  0  0  0  0  0  0  0  0  0  0
   11.9420  -19.7747   27.0085 C   0  0  0  0  0  0  0  0  0  0  0  0
   11.9195  -21.0459   26.1917 C   0  0  2  0  0  0  0  0  0  0  0  0
   11.1692  -20.9230   24.9842 N   0  0  0  0  0  0  0  0  0  0  0  0
   11.2820  -22.1199   27.0279 C   0  0  0  0  0  0  0  0  0  0  0  0
   10.0868  -22.4806   26.8293 O   0  0  0  0  0  0  0  0  0  0  0  0
   11.9647  -22.7624   28.0482 O   0  0  0  0  0  0  0  0  0  0  0  0
  2  1  1  6
  3  2  1  0
  3  4  1  0
  4  5  2  0
  6  2  1  0
  6  7  2  0
  8  4  1  0
 10  9  1  0
 11 10  1  1
 11 12  1  0
 12  6  1  0
 13 11  1  0
 14 13  2  0
 16 15  1  1
 16 17  1  0
 16 18  1  0
 17 13  1  0
 18 20  1  0
 19 18  2  0
M  END
$$$$
