DSA.pdb
     RDKit          3D

 20 19  0  0  1  0  0  0  0  0999 V2000
   15.8194  -14.2807   16.5470 N   0  0  0  0  0  0  0  0  0  0  0  0
   14.5767  -15.0187   16.5971 C   0  0  1  0  0  0  0  0  0  0  0  0
   14.9207  -16.4912   16.4574 C   0  0  0  0  0  0  0  0  0  0  0  0
   15.3210  -16.8549   15.0755 C   0  0  0  0  0  0  0  0  0  0  0  0
   14.6702  -16.5322   14.0474 O   0  0  0  0  0  0  0  0  0  0  0  0
   13.9545  -14.7973   17.9125 C   0  0  0  0  0  0  0  0  0  0  0  0
   14.7056  -14.4217   18.8515 O   0  0  0  0  0  0  0  0  0  0  0  0
   16.4812  -17.6014   14.8248 O   0  0  0  0  0  0  0  0  0  0  0  0
    9.8167  -15.3631   19.0091 O   0  0  0  0  0  0  0  0  0  0  0  0
   10.5768  -14.2959   19.4530 C   0  0  0  0  0  0  0  0  0  0  0  0
   12.0731  -14.6099   19.4767 C   0  0  2  0  0  0  0  0  0  0  0  0
   12.5824  -14.9728   18.2038 N   0  0  0  0  0  0  0  0  0  0  0  0
   12.2896  -15.6137   20.5322 C   0  0  0  0  0  0  0  0  0  0  0  0
   12.3983  -16.8156   20.1649 O   0  0  0  0  0  0  0  0  0  0  0  0
   13.8232  -16.1313   23.7201 C   0  0  0  0  0  0  0  0  0  0  0  0
   12.6122  -16.3675   22.8475 C   0  0  2  0  0  0  0  0  0  0  0  0
   12.3817  -15.3151   21.9119 N   0  0  0  0  0  0  0  0  0  0  0  0
   11.4098  -16.4643   23.7440 C   0  0  0  0  0  0  0  0  0  0  0  0
   10.5020  -15.5849   23.7181 O   0  0  0  0  0  0  0  0  0  0  0  0
   11.2370  -17.5111   24.6352 O   0  0  0  0  0  0  0  0  0  0  0  0
  2  1  1  1
  3  2  1  0
  3  4  1  0
  4  5  2  0
  6  2  1  0
  6  7  2  0
  8  4  1  0
 10  9  1  0
 11 10  1  6
 11 12  1  0
 12  6  1  0
 13 11  1  0
 14 13  2  0
 16 15  1  1
 16 17  1  0
 16 18  1  0
 17 13  1  0
 18 20  1  0
 19 18  2  0
M  END
$$$$
