DSA.pdb
     RDKit          3D

 20 19  0  0  1  0  0  0  0  0999 V2000
   11.2363  -18.8530   21.7955 N   0  0  0  0  0  0  0  0  0  0  0  0
   11.9628  -17.6313   22.0622 C   0  0  1  0  0  0  0  0  0  0  0  0
   12.2031  -16.9489   20.7271 C   0  0  0  0  0  0  0  0  0  0  0  0
   13.3527  -17.5284   19.9890 C   0  0  0  0  0  0  0  0  0  0  0  0
   13.3242  -18.6447   19.4079 O   0  0  0  0  0  0  0  0  0  0  0  0
   11.1211  -16.7601   22.8982 C   0  0  0  0  0  0  0  0  0  0  0  0
   11.4655  -15.5531   23.0050 O   0  0  0  0  0  0  0  0  0  0  0  0
   14.5749  -16.8479   19.8919 O   0  0  0  0  0  0  0  0  0  0  0  0
    7.8374  -17.9572   25.3226 O   0  0  0  0  0  0  0  0  0  0  0  0
    7.7816  -16.7497   24.6498 C   0  0  0  0  0  0  0  0  0  0  0  0
    9.1669  -16.2185   24.2801 C   0  0  2  0  0  0  0  0  0  0  0  0
    9.9584  -17.1712   23.5891 N   0  0  0  0  0  0  0  0  0  0  0  0
    9.7757  -15.6963   25.5151 C   0  0  0  0  0  0  0  0  0  0  0  0
   10.7345  -16.3551   26.0030 O   0  0  0  0  0  0  0  0  0  0  0  0
    9.5341  -12.7663   27.8830 C   0  0  0  0  0  0  0  0  0  0  0  0
   10.0407  -14.0872   27.3518 C   0  0  2  0  0  0  0  0  0  0  0  0
    9.3561  -14.5184   26.1765 N   0  0  0  0  0  0  0  0  0  0  0  0
    9.8308  -15.1244   28.4191 C   0  0  0  0  0  0  0  0  0  0  0  0
    8.8648  -15.9378   28.3599 O   0  0  0  0  0  0  0  0  0  0  0  0
   10.6762  -15.2406   29.5107 O   0  0  0  0  0  0  0  0  0  0  0  0
  2  1  1  6
  3  2  1  0
  3  4  1  0
  4  5  2  0
  6  2  1  0
  6  7  2  0
  8  4  1  0
 10  9  1  0
 11 10  1  1
 11 12  1  0
 12  6  1  0
 13 11  1  0
 14 13  2  0
 16 15  1  1
 16 17  1  0
 16 18  1  0
 17 13  1  0
 18 20  1  0
 19 18  2  0
M  END
$$$$
