DSA.pdb
     RDKit          3D

 20 19  0  0  1  0  0  0  0  0999 V2000
   10.0183  -17.2044   20.3824 N   0  0  0  0  0  0  0  0  0  0  0  0
   10.6884  -17.5423   21.6187 C   0  0  1  0  0  0  0  0  0  0  0  0
   12.1378  -17.1118   21.4783 C   0  0  0  0  0  0  0  0  0  0  0  0
   12.8986  -17.9686   20.5353 C   0  0  0  0  0  0  0  0  0  0  0  0
   13.7497  -17.5304   19.7177 O   0  0  0  0  0  0  0  0  0  0  0  0
   10.0673  -16.7761   22.7112 C   0  0  0  0  0  0  0  0  0  0  0  0
   10.0836  -15.5199   22.6184 O   0  0  0  0  0  0  0  0  0  0  0  0
   12.7096  -19.3574   20.4969 O   0  0  0  0  0  0  0  0  0  0  0  0
    7.8521  -18.4033   25.9567 O   0  0  0  0  0  0  0  0  0  0  0  0
    7.5876  -17.1472   25.4409 C   0  0  0  0  0  0  0  0  0  0  0  0
    8.8197  -16.5012   24.8063 C   0  0  2  0  0  0  0  0  0  0  0  0
    9.4550  -17.3387   23.8544 N   0  0  0  0  0  0  0  0  0  0  0  0
    9.6904  -16.0533   25.9062 C   0  0  0  0  0  0  0  0  0  0  0  0
   10.7732  -16.6794   26.0698 O   0  0  0  0  0  0  0  0  0  0  0  0
   10.0344  -13.3037   28.4469 C   0  0  0  0  0  0  0  0  0  0  0  0
   10.2799  -14.6691   27.8477 C   0  0  2  0  0  0  0  0  0  0  0  0
    9.3897  -14.9795   26.7766 N   0  0  0  0  0  0  0  0  0  0  0  0
   10.0779  -15.6910   28.9311 C   0  0  0  0  0  0  0  0  0  0  0  0
    9.0775  -16.4639   28.9231 O   0  0  0  0  0  0  0  0  0  0  0  0
   10.9682  -15.8364   29.9828 O   0  0  0  0  0  0  0  0  0  0  0  0
  2  1  1  6
  3  2  1  0
  3  4  1  0
  4  5  2  0
  6  2  1  0
  6  7  2  0
  8  4  1  0
 10  9  1  0
 11 10  1  1
 11 12  1  0
 12  6  1  0
 13 11  1  0
 14 13  2  0
 16 15  1  1
 16 17  1  0
 16 18  1  0
 17 13  1  0
 18 20  1  0
 19 18  2  0
M  END
$$$$
