DSA.pdb
     RDKit          3D

 20 19  0  0  1  0  0  0  0  0999 V2000
   -1.7770  -25.6203   26.9631 N   0  0  0  0  0  0  0  0  0  0  0  0
   -2.2716  -25.8961   28.2938 C   0  0  1  0  0  0  0  0  0  0  0  0
   -1.0637  -26.0435   29.2023 C   0  0  0  0  0  0  0  0  0  0  0  0
   -0.2002  -27.1888   28.8220 C   0  0  0  0  0  0  0  0  0  0  0  0
   -0.6339  -28.3446   28.5757 O   0  0  0  0  0  0  0  0  0  0  0  0
   -3.0689  -24.7437   28.7441 C   0  0  0  0  0  0  0  0  0  0  0  0
   -3.4099  -24.7149   29.9564 O   0  0  0  0  0  0  0  0  0  0  0  0
    1.1905  -27.0484   28.7111 O   0  0  0  0  0  0  0  0  0  0  0  0
   -4.7769  -21.7603   26.2507 O   0  0  0  0  0  0  0  0  0  0  0  0
   -4.3959  -21.4206   27.5365 C   0  0  0  0  0  0  0  0  0  0  0  0
   -4.2921  -22.6357   28.4589 C   0  0  2  0  0  0  0  0  0  0  0  0
   -3.4811  -23.6687   27.9239 N   0  0  0  0  0  0  0  0  0  0  0  0
   -5.6664  -23.0462   28.7927 C   0  0  0  0  0  0  0  0  0  0  0  0
   -6.2012  -23.9128   28.0483 O   0  0  0  0  0  0  0  0  0  0  0  0
   -7.8262  -24.0153   31.2299 C   0  0  0  0  0  0  0  0  0  0  0  0
   -7.7388  -23.0040   30.1105 C   0  0  2  0  0  0  0  0  0  0  0  0
   -6.4108  -22.5347   29.8815 N   0  0  0  0  0  0  0  0  0  0  0  0
   -8.5902  -21.8242   30.4874 C   0  0  0  0  0  0  0  0  0  0  0  0
   -8.0720  -20.7035   30.7589 O   0  0  0  0  0  0  0  0  0  0  0  0
   -9.9718  -21.9040   30.5559 O   0  0  0  0  0  0  0  0  0  0  0  0
  2  1  1  6
  3  2  1  0
  3  4  1  0
  4  5  2  0
  6  2  1  0
  6  7  2  0
  8  4  1  0
 10  9  1  0
 11 10  1  6
 11 12  1  0
 12  6  1  0
 13 11  1  0
 14 13  2  0
 16 15  1  1
 16 17  1  0
 16 18  1  0
 17 13  1  0
 18 20  1  0
 19 18  2  0
M  END
$$$$
