DSA.pdb
     RDKit          3D

 20 19  0  0  1  0  0  0  0  0999 V2000
    8.6141  -14.6381   19.3350 N   0  0  0  0  0  0  0  0  0  0  0  0
    7.8177  -15.3063   20.3404 C   0  0  1  0  0  0  0  0  0  0  0  0
    7.9105  -16.7979   20.0712 C   0  0  0  0  0  0  0  0  0  0  0  0
    7.2420  -17.1921   18.8063 C   0  0  0  0  0  0  0  0  0  0  0  0
    6.3320  -16.5205   18.2534 O   0  0  0  0  0  0  0  0  0  0  0  0
    8.4004  -15.0233   21.6620 C   0  0  0  0  0  0  0  0  0  0  0  0
    9.6539  -15.0894   21.7674 O   0  0  0  0  0  0  0  0  0  0  0  0
    7.5937  -18.3699   18.1318 O   0  0  0  0  0  0  0  0  0  0  0  0
    6.2784  -14.3781   25.3454 O   0  0  0  0  0  0  0  0  0  0  0  0
    7.4864  -13.7548   25.0888 C   0  0  0  0  0  0  0  0  0  0  0  0
    8.3300  -14.5089   24.0604 C   0  0  2  0  0  0  0  0  0  0  0  0
    7.6645  -14.6836   22.8202 N   0  0  0  0  0  0  0  0  0  0  0  0
    8.7765  -15.7592   24.6976 C   0  0  0  0  0  0  0  0  0  0  0  0
    8.0394  -16.7721   24.5486 O   0  0  0  0  0  0  0  0  0  0  0  0
   11.6822  -17.6395   25.4904 C   0  0  0  0  0  0  0  0  0  0  0  0
   10.3314  -17.1667   25.9759 C   0  0  2  0  0  0  0  0  0  0  0  0
    9.9641  -15.8901   25.4549 N   0  0  0  0  0  0  0  0  0  0  0  0
   10.3921  -17.0578   27.4736 C   0  0  0  0  0  0  0  0  0  0  0  0
   10.7002  -18.0528   28.1900 O   0  0  0  0  0  0  0  0  0  0  0  0
   10.1163  -15.8738   28.1385 O   0  0  0  0  0  0  0  0  0  0  0  0
  2  1  1  6
  3  2  1  0
  3  4  1  0
  4  5  2  0
  6  2  1  0
  6  7  2  0
  8  4  1  0
 10  9  1  0
 11 10  1  1
 11 12  1  0
 12  6  1  0
 13 11  1  0
 14 13  2  0
 16 15  1  6
 16 17  1  0
 16 18  1  0
 17 13  1  0
 18 20  1  0
 19 18  2  0
M  END
$$$$
