EYV.pdb
     RDKit          3D

 29 29  0  0  1  0  0  0  0  0999 V2000
   21.9264  -10.3778  -17.2030 N   0  0  0  0  0  0  0  0  0  0  0  0
   20.9478   -9.3275  -17.4381 C   0  0  1  0  0  0  0  0  0  0  0  0
   19.5933   -9.9840  -17.4610 C   0  0  0  0  0  0  0  0  0  0  0  0
   19.3338  -10.8381  -18.6580 C   0  0  0  0  0  0  0  0  0  0  0  0
   18.9329  -10.0856  -19.8538 C   0  0  0  0  0  0  0  0  0  0  0  0
   19.6633   -9.3013  -20.5099 O   0  0  0  0  0  0  0  0  0  0  0  0
   20.9906   -8.3089  -16.3679 C   0  0  0  0  0  0  0  0  0  0  0  0
   20.7861   -8.6135  -15.1863 O   0  0  0  0  0  0  0  0  0  0  0  0
   17.6313  -10.2396  -20.3202 O   0  0  0  0  0  0  0  0  0  0  0  0
   27.4202   -6.4386  -17.8925 O   0  0  0  0  0  0  0  0  0  0  0  0
   26.2512   -6.3668  -17.1397 C   0  0  0  0  0  0  0  0  0  0  0  0
   25.7354   -5.1370  -16.7542 C   0  0  0  0  0  0  0  0  0  0  0  0
   24.5767   -5.0268  -16.0063 C   0  0  0  0  0  0  0  0  0  0  0  0
   23.8868   -6.1455  -15.6137 C   0  0  0  0  0  0  0  0  0  0  0  0
   22.6561   -6.0732  -14.8219 C   0  0  0  0  0  0  0  0  0  0  0  0
   21.4030   -5.9459  -15.6203 C   0  0  2  0  0  0  0  0  0  0  0  0
   21.2697   -6.9280  -16.6489 N   0  0  0  0  0  0  0  0  0  0  0  0
   21.3938   -4.5516  -16.1954 C   0  0  0  0  0  0  0  0  0  0  0  0
   22.1035   -4.2599  -17.1907 O   0  0  0  0  0  0  0  0  0  0  0  0
   24.3868   -7.3859  -15.9894 C   0  0  0  0  0  0  0  0  0  0  0  0
   25.5540   -7.4877  -16.7424 C   0  0  0  0  0  0  0  0  0  0  0  0
   18.1253   -2.0655  -15.4395 C   0  0  0  0  0  0  0  0  0  0  0  0
   18.9991   -1.9618  -16.6704 C   0  0  1  0  0  0  0  0  0  0  0  0
   18.9279   -0.5473  -17.2049 C   0  0  0  0  0  0  0  0  0  0  0  0
   20.4174   -2.2159  -16.2454 C   0  0  2  0  0  0  0  0  0  0  0  0
   20.5882   -3.5207  -15.6384 N   0  0  0  0  0  0  0  0  0  0  0  0
   20.9654   -1.1531  -15.3802 C   0  0  0  0  0  0  0  0  0  0  0  0
   21.0299   -1.3729  -14.1271 O   0  0  0  0  0  0  0  0  0  0  0  0
   21.4134    0.0597  -15.8193 O   0  0  0  0  0  0  0  0  0  0  0  0
  2  7  1  0
  2  1  1  1
  3  2  1  0
  4  3  1  0
  4  5  1  0
  5  6  2  0
  7  8  2  0
  9  5  1  0
 10 11  1  0
 11 21  2  0
 11 12  1  0
 12 13  2  0
 13 14  1  0
 14 15  1  0
 16 15  1  6
 17 16  1  0
 17  7  1  0
 18 19  2  0
 18 16  1  0
 20 14  2  0
 21 20  1  0
 23 22  1  1
 23 25  1  0
 24 23  1  0
 25 27  1  0
 25 26  1  1
 26 18  1  0
 27 29  1  0
 28 27  2  0
M  END
$$$$
