EYV.pdb
     RDKit          3D

 29 29  0  0  1  0  0  0  0  0999 V2000
   28.7299  -22.5801  -17.3252 N   0  0  0  0  0  0  0  0  0  0  0  0
   27.9446  -21.3858  -17.0551 C   0  0  1  0  0  0  0  0  0  0  0  0
   27.0992  -21.1290  -18.2739 C   0  0  0  0  0  0  0  0  0  0  0  0
   27.7821  -20.3596  -19.3563 C   0  0  0  0  0  0  0  0  0  0  0  0
   29.1262  -20.8526  -19.6834 C   0  0  0  0  0  0  0  0  0  0  0  0
   29.3985  -21.9725  -20.1841 O   0  0  0  0  0  0  0  0  0  0  0  0
   27.0746  -21.5746  -15.8752 C   0  0  0  0  0  0  0  0  0  0  0  0
   26.3638  -22.5807  -15.7589 O   0  0  0  0  0  0  0  0  0  0  0  0
   30.2112  -20.0213  -19.4240 O   0  0  0  0  0  0  0  0  0  0  0  0
   23.7749  -20.9489   -7.6796 O   0  0  0  0  0  0  0  0  0  0  0  0
   24.4982  -20.7320   -8.8493 C   0  0  0  0  0  0  0  0  0  0  0  0
   25.6553  -21.4546   -9.1068 C   0  0  0  0  0  0  0  0  0  0  0  0
   26.3996  -21.2663  -10.2578 C   0  0  0  0  0  0  0  0  0  0  0  0
   26.0145  -20.3455  -11.1987 C   0  0  0  0  0  0  0  0  0  0  0  0
   26.7733  -20.1154  -12.4308 C   0  0  0  0  0  0  0  0  0  0  0  0
   26.2303  -20.8001  -13.6391 C   0  0  2  0  0  0  0  0  0  0  0  0
   27.0150  -20.6053  -14.8168 N   0  0  0  0  0  0  0  0  0  0  0  0
   24.8240  -20.2905  -13.8324 C   0  0  0  0  0  0  0  0  0  0  0  0
   24.6097  -19.0925  -14.1459 O   0  0  0  0  0  0  0  0  0  0  0  0
   24.8593  -19.6121  -10.9596 C   0  0  0  0  0  0  0  0  0  0  0  0
   24.1159  -19.8080   -9.7982 C   0  0  0  0  0  0  0  0  0  0  0  0
   22.5326  -20.9884  -16.2149 C   0  0  0  0  0  0  0  0  0  0  0  0
   21.6498  -21.2700  -15.0188 C   0  0  1  0  0  0  0  0  0  0  0  0
   21.5586  -22.7676  -14.8179 C   0  0  0  0  0  0  0  0  0  0  0  0
   22.3237  -20.6896  -13.8081 C   0  0  2  0  0  0  0  0  0  0  0  0
   23.6945  -21.1387  -13.6688 N   0  0  0  0  0  0  0  0  0  0  0  0
   21.5659  -20.9057  -12.5600 C   0  0  0  0  0  0  0  0  0  0  0  0
   22.0211  -21.7477  -11.7195 O   0  0  0  0  0  0  0  0  0  0  0  0
   20.4038  -20.2690  -12.2304 O   0  0  0  0  0  0  0  0  0  0  0  0
  2  7  1  0
  2  1  1  6
  3  2  1  0
  4  3  1  0
  4  5  1  0
  5  6  2  0
  7  8  2  0
  9  5  1  0
 10 11  1  0
 11 21  2  0
 11 12  1  0
 12 13  2  0
 13 14  1  0
 14 15  1  0
 16 15  1  1
 17 16  1  0
 17  7  1  0
 18 19  2  0
 18 16  1  0
 20 14  2  0
 21 20  1  0
 23 22  1  6
 23 25  1  0
 24 23  1  0
 25 27  1  0
 25 26  1  1
 26 18  1  0
 27 29  1  0
 28 27  2  0
M  END
$$$$
