EYV.pdb
     RDKit          3D

 29 29  0  0  1  0  0  0  0  0999 V2000
   28.3396  -28.8399  -20.7399 N   0  0  0  0  0  0  0  0  0  0  0  0
   27.0836  -28.8566  -20.0063 C   0  0  1  0  0  0  0  0  0  0  0  0
   25.9769  -28.8052  -21.0256 C   0  0  0  0  0  0  0  0  0  0  0  0
   25.7825  -27.4718  -21.6690 C   0  0  0  0  0  0  0  0  0  0  0  0
   24.7809  -26.6278  -21.0046 C   0  0  0  0  0  0  0  0  0  0  0  0
   24.4569  -25.4624  -21.3450 O   0  0  0  0  0  0  0  0  0  0  0  0
   26.9567  -30.0845  -19.1934 C   0  0  0  0  0  0  0  0  0  0  0  0
   27.5035  -31.1395  -19.5384 O   0  0  0  0  0  0  0  0  0  0  0  0
   24.1185  -27.1449  -19.8959 O   0  0  0  0  0  0  0  0  0  0  0  0
   32.4704  -32.2069  -16.6901 O   0  0  0  0  0  0  0  0  0  0  0  0
   31.1159  -31.9429  -16.5059 C   0  0  0  0  0  0  0  0  0  0  0  0
   30.2831  -32.8958  -15.9352 C   0  0  0  0  0  0  0  0  0  0  0  0
   28.9328  -32.6690  -15.7366 C   0  0  0  0  0  0  0  0  0  0  0  0
   28.3612  -31.4769  -16.1021 C   0  0  0  0  0  0  0  0  0  0  0  0
   26.9362  -31.1959  -15.9090 C   0  0  0  0  0  0  0  0  0  0  0  0
   26.1086  -31.2705  -17.1473 C   0  0  2  0  0  0  0  0  0  0  0  0
   26.1976  -30.1091  -17.9741 N   0  0  0  0  0  0  0  0  0  0  0  0
   24.6874  -31.5161  -16.7060 C   0  0  0  0  0  0  0  0  0  0  0  0
   23.9992  -30.5920  -16.2041 O   0  0  0  0  0  0  0  0  0  0  0  0
   29.1778  -30.5101  -16.6751 C   0  0  0  0  0  0  0  0  0  0  0  0
   30.5362  -30.7468  -16.8713 C   0  0  0  0  0  0  0  0  0  0  0  0
   22.0587  -33.1703  -18.8197 C   0  0  0  0  0  0  0  0  0  0  0  0
   21.9904  -33.9057  -17.4991 C   0  0  1  0  0  0  0  0  0  0  0  0
   22.7451  -35.2118  -17.6252 C   0  0  0  0  0  0  0  0  0  0  0  0
   22.7004  -33.0682  -16.4736 C   0  0  2  0  0  0  0  0  0  0  0  0
   24.0753  -32.7926  -16.8395 N   0  0  0  0  0  0  0  0  0  0  0  0
   22.6164  -33.6236  -15.1087 C   0  0  0  0  0  0  0  0  0  0  0  0
   23.6109  -34.2865  -14.6681 O   0  0  0  0  0  0  0  0  0  0  0  0
   21.5471  -33.4827  -14.2714 O   0  0  0  0  0  0  0  0  0  0  0  0
  2  7  1  0
  2  1  1  6
  3  2  1  0
  4  3  1  0
  4  5  1  0
  5  6  2  0
  7  8  2  0
  9  5  1  0
 10 11  1  0
 11 21  2  0
 11 12  1  0
 12 13  2  0
 13 14  1  0
 14 15  1  0
 16 15  1  1
 17 16  1  0
 17  7  1  0
 18 19  2  0
 18 16  1  0
 20 14  2  0
 21 20  1  0
 23 22  1  6
 23 25  1  0
 24 23  1  0
 25 27  1  0
 25 26  1  6
 26 18  1  0
 27 29  1  0
 28 27  2  0
M  END
$$$$
