EYV.pdb
     RDKit          3D

 29 29  0  0  1  0  0  0  0  0999 V2000
   25.1813  -11.5234  -19.3389 N   0  0  0  0  0  0  0  0  0  0  0  0
   24.9401  -10.1333  -18.9846 C   0  0  1  0  0  0  0  0  0  0  0  0
   24.8662   -9.3565  -20.2720 C   0  0  0  0  0  0  0  0  0  0  0  0
   26.1322   -9.3385  -21.0636 C   0  0  0  0  0  0  0  0  0  0  0  0
   26.0494   -8.5597  -22.3060 C   0  0  0  0  0  0  0  0  0  0  0  0
   26.9829   -8.3832  -23.1284 O   0  0  0  0  0  0  0  0  0  0  0  0
   23.6726   -9.9849  -18.2389 C   0  0  0  0  0  0  0  0  0  0  0  0
   22.7045  -10.7199  -18.4700 O   0  0  0  0  0  0  0  0  0  0  0  0
   24.8374   -7.9537  -22.6210 O   0  0  0  0  0  0  0  0  0  0  0  0
   22.7954  -15.0216  -14.5046 O   0  0  0  0  0  0  0  0  0  0  0  0
   22.7307  -13.6364  -14.6289 C   0  0  0  0  0  0  0  0  0  0  0  0
   21.5974  -13.0277  -15.1507 C   0  0  0  0  0  0  0  0  0  0  0  0
   21.4972  -11.6547  -15.2892 C   0  0  0  0  0  0  0  0  0  0  0  0
   22.5294  -10.8348  -14.9101 C   0  0  0  0  0  0  0  0  0  0  0  0
   22.4640   -9.3768  -15.0392 C   0  0  0  0  0  0  0  0  0  0  0  0
   22.3177   -8.8766  -16.4364 C   0  0  2  0  0  0  0  0  0  0  0  0
   23.5079   -8.9872  -17.2186 N   0  0  0  0  0  0  0  0  0  0  0  0
   21.8625   -7.4420  -16.3390 C   0  0  0  0  0  0  0  0  0  0  0  0
   22.6602   -6.5343  -15.9939 O   0  0  0  0  0  0  0  0  0  0  0  0
   23.6725  -11.4247  -14.3856 C   0  0  0  0  0  0  0  0  0  0  0  0
   23.7650  -12.8077  -14.2496 C   0  0  0  0  0  0  0  0  0  0  0  0
   17.7807   -6.2732  -17.2695 C   0  0  0  0  0  0  0  0  0  0  0  0
   18.9882   -5.4502  -17.6622 C   0  0  1  0  0  0  0  0  0  0  0  0
   18.6213   -3.9827  -17.6056 C   0  0  0  0  0  0  0  0  0  0  0  0
   20.0576   -5.6909  -16.6348 C   0  0  2  0  0  0  0  0  0  0  0  0
   20.5235   -7.0632  -16.6317 N   0  0  0  0  0  0  0  0  0  0  0  0
   19.6688   -5.2602  -15.2776 C   0  0  0  0  0  0  0  0  0  0  0  0
   19.2456   -6.1453  -14.4651 O   0  0  0  0  0  0  0  0  0  0  0  0
   19.7268   -3.9758  -14.8180 O   0  0  0  0  0  0  0  0  0  0  0  0
  2  7  1  0
  2  1  1  6
  3  2  1  0
  4  3  1  0
  4  5  1  0
  5  6  2  0
  7  8  2  0
  9  5  1  0
 10 11  1  0
 11 21  2  0
 11 12  1  0
 12 13  2  0
 13 14  1  0
 14 15  1  0
 16 15  1  1
 17 16  1  0
 17  7  1  0
 18 19  2  0
 18 16  1  0
 20 14  2  0
 21 20  1  0
 23 22  1  1
 23 25  1  0
 24 23  1  0
 25 27  1  0
 25 26  1  1
 26 18  1  0
 27 29  1  0
 28 27  2  0
M  END
$$$$
