EYV.pdb
     RDKit          3D

 29 29  0  0  1  0  0  0  0  0999 V2000
   19.6256  -11.7790  -16.7994 N   0  0  0  0  0  0  0  0  0  0  0  0
   18.9191  -10.6033  -17.2838 C   0  0  1  0  0  0  0  0  0  0  0  0
   17.4698  -10.9860  -17.4232 C   0  0  0  0  0  0  0  0  0  0  0  0
   17.1896  -11.9905  -18.4920 C   0  0  0  0  0  0  0  0  0  0  0  0
   15.7648  -12.3054  -18.6577 C   0  0  0  0  0  0  0  0  0  0  0  0
   15.2798  -13.1061  -19.4960 O   0  0  0  0  0  0  0  0  0  0  0  0
   19.0485   -9.4753  -16.3374 C   0  0  0  0  0  0  0  0  0  0  0  0
   18.8775   -9.6366  -15.1227 O   0  0  0  0  0  0  0  0  0  0  0  0
   14.8511  -11.6715  -17.8216 O   0  0  0  0  0  0  0  0  0  0  0  0
   24.4872  -11.0222  -14.2873 O   0  0  0  0  0  0  0  0  0  0  0  0
   23.6560   -9.9703  -14.6628 C   0  0  0  0  0  0  0  0  0  0  0  0
   22.8953   -9.2999  -13.7146 C   0  0  0  0  0  0  0  0  0  0  0  0
   22.0585   -8.2505  -14.0505 C   0  0  0  0  0  0  0  0  0  0  0  0
   21.9497   -7.8295  -15.3514 C   0  0  0  0  0  0  0  0  0  0  0  0
   21.0763   -6.7225  -15.7496 C   0  0  0  0  0  0  0  0  0  0  0  0
   19.6330   -7.0759  -15.8748 C   0  0  2  0  0  0  0  0  0  0  0  0
   19.3763   -8.1492  -16.7818 N   0  0  0  0  0  0  0  0  0  0  0  0
   18.9135   -5.8205  -16.3003 C   0  0  0  0  0  0  0  0  0  0  0  0
   19.0653   -5.3505  -17.4559 O   0  0  0  0  0  0  0  0  0  0  0  0
   22.7029   -8.4876  -16.3154 C   0  0  0  0  0  0  0  0  0  0  0  0
   23.5428   -9.5431  -15.9686 C   0  0  0  0  0  0  0  0  0  0  0  0
   15.4379   -5.2727  -16.5789 C   0  0  0  0  0  0  0  0  0  0  0  0
   15.8210   -4.1161  -15.6817 C   0  0  1  0  0  0  0  0  0  0  0  0
   15.5052   -4.4823  -14.2472 C   0  0  0  0  0  0  0  0  0  0  0  0
   17.3081   -3.9310  -15.7863 C   0  0  2  0  0  0  0  0  0  0  0  0
   18.0419   -5.1252  -15.4178 N   0  0  0  0  0  0  0  0  0  0  0  0
   17.8023   -2.7550  -15.0438 C   0  0  0  0  0  0  0  0  0  0  0  0
   18.4352   -2.9542  -13.9564 O   0  0  0  0  0  0  0  0  0  0  0  0
   17.6340   -1.4570  -15.4328 O   0  0  0  0  0  0  0  0  0  0  0  0
  2  7  1  0
  2  1  1  1
  3  2  1  0
  4  3  1  0
  4  5  1  0
  5  6  2  0
  7  8  2  0
  9  5  1  0
 10 11  1  0
 11 21  2  0
 11 12  1  0
 12 13  2  0
 13 14  1  0
 14 15  1  0
 16 15  1  6
 17 16  1  0
 17  7  1  0
 18 19  2  0
 18 16  1  0
 20 14  2  0
 21 20  1  0
 23 22  1  6
 23 25  1  0
 24 23  1  0
 25 27  1  0
 25 26  1  1
 26 18  1  0
 27 29  1  0
 28 27  2  0
M  END
$$$$
