EYV.pdb
     RDKit          3D

 29 29  0  0  1  0  0  0  0  0999 V2000
   25.7670  -14.8292  -17.6236 N   0  0  0  0  0  0  0  0  0  0  0  0
   24.6993  -13.8523  -17.7707 C   0  0  1  0  0  0  0  0  0  0  0  0
   23.4334  -14.6203  -18.0429 C   0  0  0  0  0  0  0  0  0  0  0  0
   23.1680  -14.8945  -19.4866 C   0  0  0  0  0  0  0  0  0  0  0  0
   21.9191  -15.6257  -19.7364 C   0  0  0  0  0  0  0  0  0  0  0  0
   21.1144  -16.0304  -18.8602 O   0  0  0  0  0  0  0  0  0  0  0  0
   24.5397  -13.0470  -16.5415 C   0  0  0  0  0  0  0  0  0  0  0  0
   24.9154  -13.4749  -15.4431 O   0  0  0  0  0  0  0  0  0  0  0  0
   21.5758  -15.9068  -21.0550 O   0  0  0  0  0  0  0  0  0  0  0  0
   28.9272   -8.8474  -18.7763 O   0  0  0  0  0  0  0  0  0  0  0  0
   27.9934   -9.2372  -17.8200 C   0  0  0  0  0  0  0  0  0  0  0  0
   28.2732  -10.2773  -16.9443 C   0  0  0  0  0  0  0  0  0  0  0  0
   27.3701  -10.6920  -15.9817 C   0  0  0  0  0  0  0  0  0  0  0  0
   26.1485  -10.0807  -15.8571 C   0  0  0  0  0  0  0  0  0  0  0  0
   25.1639  -10.4883  -14.8514 C   0  0  0  0  0  0  0  0  0  0  0  0
   23.8462  -10.9181  -15.4016 C   0  0  2  0  0  0  0  0  0  0  0  0
   23.9451  -11.7396  -16.5660 N   0  0  0  0  0  0  0  0  0  0  0  0
   23.0639   -9.6608  -15.6881 C   0  0  0  0  0  0  0  0  0  0  0  0
   23.4587   -8.8385  -16.5525 O   0  0  0  0  0  0  0  0  0  0  0  0
   25.8493   -9.0375  -16.7242 C   0  0  0  0  0  0  0  0  0  0  0  0
   26.7643   -8.6265  -17.6904 C   0  0  0  0  0  0  0  0  0  0  0  0
   19.5679   -9.5969  -16.6513 C   0  0  0  0  0  0  0  0  0  0  0  0
   19.5948   -8.5783  -15.5327 C   0  0  1  0  0  0  0  0  0  0  0  0
   19.0684   -9.2237  -14.2686 C   0  0  0  0  0  0  0  0  0  0  0  0
   21.0299   -8.2065  -15.2890 C   0  0  2  0  0  0  0  0  0  0  0  0
   21.8584   -9.3590  -14.9968 N   0  0  0  0  0  0  0  0  0  0  0  0
   21.1940   -7.1612  -14.2599 C   0  0  0  0  0  0  0  0  0  0  0  0
   20.6337   -6.0339  -14.4547 O   0  0  0  0  0  0  0  0  0  0  0  0
   21.9056   -7.3068  -13.1037 O   0  0  0  0  0  0  0  0  0  0  0  0
  2  7  1  0
  2  1  1  1
  3  2  1  0
  4  3  1  0
  4  5  1  0
  5  6  2  0
  7  8  2  0
  9  5  1  0
 10 11  1  0
 11 21  2  0
 11 12  1  0
 12 13  2  0
 13 14  1  0
 14 15  1  0
 16 15  1  6
 17 16  1  0
 17  7  1  0
 18 19  2  0
 18 16  1  0
 20 14  2  0
 21 20  1  0
 23 22  1  6
 23 25  1  0
 24 23  1  0
 25 27  1  0
 25 26  1  1
 26 18  1  0
 27 29  1  0
 28 27  2  0
M  END
$$$$
