EYV.pdb
     RDKit          3D

 29 29  0  0  1  0  0  0  0  0999 V2000
   36.2096  -37.7148   -1.7622 N   0  0  0  0  0  0  0  0  0  0  0  0
   35.3069  -36.5914   -1.5640 C   0  0  1  0  0  0  0  0  0  0  0  0
   33.9075  -37.1464   -1.5557 C   0  0  0  0  0  0  0  0  0  0  0  0
   33.3526  -37.4604   -2.9060 C   0  0  0  0  0  0  0  0  0  0  0  0
   32.0705  -38.1759   -2.8739 C   0  0  0  0  0  0  0  0  0  0  0  0
   31.4233  -38.4820   -1.8411 O   0  0  0  0  0  0  0  0  0  0  0  0
   35.5798  -35.9071   -0.2826 C   0  0  0  0  0  0  0  0  0  0  0  0
   35.7483  -36.5486    0.7620 O   0  0  0  0  0  0  0  0  0  0  0  0
   31.5026  -38.5595   -4.0846 O   0  0  0  0  0  0  0  0  0  0  0  0
   37.1825  -29.5839    5.7594 O   0  0  0  0  0  0  0  0  0  0  0  0
   37.0646  -30.3106    4.5777 C   0  0  0  0  0  0  0  0  0  0  0  0
   37.4790  -31.6343    4.5199 C   0  0  0  0  0  0  0  0  0  0  0  0
   37.3773  -32.3874    3.3638 C   0  0  0  0  0  0  0  0  0  0  0  0
   36.8559  -31.8444    2.2172 C   0  0  0  0  0  0  0  0  0  0  0  0
   36.7301  -32.6068    0.9723 C   0  0  0  0  0  0  0  0  0  0  0  0
   35.8291  -33.7925    1.0511 C   0  0  2  0  0  0  0  0  0  0  0  0
   35.6613  -34.4758   -0.1920 N   0  0  0  0  0  0  0  0  0  0  0  0
   34.5068  -33.2989    1.5829 C   0  0  0  0  0  0  0  0  0  0  0  0
   33.7294  -32.6291    0.8574 O   0  0  0  0  0  0  0  0  0  0  0  0
   36.4355  -30.5210    2.2544 C   0  0  0  0  0  0  0  0  0  0  0  0
   36.5414  -29.7700    3.4226 C   0  0  0  0  0  0  0  0  0  0  0  0
   32.9527  -34.8123    5.2670 C   0  0  0  0  0  0  0  0  0  0  0  0
   32.0966  -34.3678    4.1013 C   0  0  1  0  0  0  0  0  0  0  0  0
   30.7698  -33.8661    4.6299 C   0  0  0  0  0  0  0  0  0  0  0  0
   32.7900  -33.2095    3.4420 C   0  0  2  0  0  0  0  0  0  0  0  0
   34.0912  -33.5700    2.9156 N   0  0  0  0  0  0  0  0  0  0  0  0
   32.8800  -32.0162    4.3061 C   0  0  0  0  0  0  0  0  0  0  0  0
   33.9357  -31.8563    5.0006 O   0  0  0  0  0  0  0  0  0  0  0  0
   31.9124  -31.0598    4.4221 O   0  0  0  0  0  0  0  0  0  0  0  0
  2  7  1  0
  2  1  1  1
  3  2  1  0
  4  3  1  0
  4  5  1  0
  5  6  2  0
  7  8  2  0
  9  5  1  0
 10 11  1  0
 11 21  2  0
 11 12  1  0
 12 13  2  0
 13 14  1  0
 14 15  1  0
 16 15  1  6
 17 16  1  0
 17  7  1  0
 18 19  2  0
 18 16  1  0
 20 14  2  0
 21 20  1  0
 23 22  1  1
 23 25  1  0
 24 23  1  0
 25 27  1  0
 25 26  1  1
 26 18  1  0
 27 29  1  0
 28 27  2  0
M  END
$$$$
