EYV.pdb
     RDKit          3D

 29 29  0  0  1  0  0  0  0  0999 V2000
   17.2888  -15.7352  -18.4187 N   0  0  0  0  0  0  0  0  0  0  0  0
   17.9117  -14.4326  -18.5958 C   0  0  1  0  0  0  0  0  0  0  0  0
   17.2802  -13.8031  -19.8087 C   0  0  0  0  0  0  0  0  0  0  0  0
   17.6135  -14.4695  -21.1028 C   0  0  0  0  0  0  0  0  0  0  0  0
   16.7464  -14.0735  -22.2200 C   0  0  0  0  0  0  0  0  0  0  0  0
   16.4787  -12.8945  -22.5627 O   0  0  0  0  0  0  0  0  0  0  0  0
   17.6921  -13.5710  -17.4151 C   0  0  0  0  0  0  0  0  0  0  0  0
   16.6506  -13.6482  -16.7516 O   0  0  0  0  0  0  0  0  0  0  0  0
   16.1572  -15.0778  -22.9813 O   0  0  0  0  0  0  0  0  0  0  0  0
   19.1540  -17.5289  -12.7684 O   0  0  0  0  0  0  0  0  0  0  0  0
   19.2578  -16.2311  -13.2615 C   0  0  0  0  0  0  0  0  0  0  0  0
   18.5247  -15.1994  -12.6910 C   0  0  0  0  0  0  0  0  0  0  0  0
   18.6023  -13.8980  -13.1541 C   0  0  0  0  0  0  0  0  0  0  0  0
   19.4182  -13.5768  -14.2089 C   0  0  0  0  0  0  0  0  0  0  0  0
   19.5300  -12.2119  -14.7298 C   0  0  0  0  0  0  0  0  0  0  0  0
   18.5333  -11.8579  -15.7809 C   0  0  2  0  0  0  0  0  0  0  0  0
   18.6713  -12.6111  -16.9868 N   0  0  0  0  0  0  0  0  0  0  0  0
   18.6839  -10.3802  -16.0427 C   0  0  0  0  0  0  0  0  0  0  0  0
   19.6087   -9.9459  -16.7745 O   0  0  0  0  0  0  0  0  0  0  0  0
   20.1601  -14.5952  -14.7938 C   0  0  0  0  0  0  0  0  0  0  0  0
   20.0761  -15.9027  -14.3212 C   0  0  0  0  0  0  0  0  0  0  0  0
   16.6209   -8.0903  -17.6932 C   0  0  0  0  0  0  0  0  0  0  0  0
   16.7618   -7.3850  -16.3620 C   0  0  1  0  0  0  0  0  0  0  0  0
   15.5251   -7.6530  -15.5313 C   0  0  0  0  0  0  0  0  0  0  0  0
   17.9320   -7.9954  -15.6443 C   0  0  2  0  0  0  0  0  0  0  0  0
   17.7925   -9.4280  -15.4763 N   0  0  0  0  0  0  0  0  0  0  0  0
   18.2335   -7.3378  -14.3577 C   0  0  0  0  0  0  0  0  0  0  0  0
   18.0193   -7.9909  -13.2852 O   0  0  0  0  0  0  0  0  0  0  0  0
   18.7288   -6.0726  -14.2231 O   0  0  0  0  0  0  0  0  0  0  0  0
  2  7  1  0
  2  1  1  1
  3  2  1  0
  4  3  1  0
  4  5  1  0
  5  6  2  0
  7  8  2  0
  9  5  1  0
 10 11  1  0
 11 21  2  0
 11 12  1  0
 12 13  2  0
 13 14  1  0
 14 15  1  0
 16 15  1  1
 17 16  1  0
 17  7  1  0
 18 19  2  0
 18 16  1  0
 20 14  2  0
 21 20  1  0
 23 22  1  6
 23 25  1  0
 24 23  1  0
 25 27  1  0
 25 26  1  1
 26 18  1  0
 27 29  1  0
 28 27  2  0
M  END
$$$$
