EYV.pdb
     RDKit          3D

 29 29  0  0  1  0  0  0  0  0999 V2000
   25.4363  -25.2900  -15.1003 N   0  0  0  0  0  0  0  0  0  0  0  0
   25.6822  -23.8848  -15.3847 C   0  0  1  0  0  0  0  0  0  0  0  0
   25.8805  -23.7641  -16.8721 C   0  0  0  0  0  0  0  0  0  0  0  0
   27.1870  -24.2865  -17.3720 C   0  0  0  0  0  0  0  0  0  0  0  0
   27.1970  -25.7342  -17.6187 C   0  0  0  0  0  0  0  0  0  0  0  0
   26.3314  -26.3776  -18.2635 O   0  0  0  0  0  0  0  0  0  0  0  0
   24.5393  -23.0472  -14.9641 C   0  0  0  0  0  0  0  0  0  0  0  0
   23.4515  -23.5539  -14.6626 O   0  0  0  0  0  0  0  0  0  0  0  0
   28.2506  -26.4809  -17.1011 O   0  0  0  0  0  0  0  0  0  0  0  0
   25.2383  -21.1313   -8.1548 O   0  0  0  0  0  0  0  0  0  0  0  0
   24.9300  -20.7734   -9.4645 C   0  0  0  0  0  0  0  0  0  0  0  0
   25.9321  -20.6581  -10.4183 C   0  0  0  0  0  0  0  0  0  0  0  0
   25.6636  -20.3048  -11.7287 C   0  0  0  0  0  0  0  0  0  0  0  0
   24.3788  -20.0522  -12.1374 C   0  0  0  0  0  0  0  0  0  0  0  0
   24.0512  -19.6760  -13.5150 C   0  0  0  0  0  0  0  0  0  0  0  0
   23.5835  -20.7988  -14.3777 C   0  0  2  0  0  0  0  0  0  0  0  0
   24.6386  -21.6162  -14.8867 N   0  0  0  0  0  0  0  0  0  0  0  0
   22.7846  -20.1821  -15.4985 C   0  0  0  0  0  0  0  0  0  0  0  0
   23.3225  -19.3933  -16.3157 O   0  0  0  0  0  0  0  0  0  0  0  0
   23.3616  -20.1622  -11.1978 C   0  0  0  0  0  0  0  0  0  0  0  0
   23.6407  -20.5185   -9.8806 C   0  0  0  0  0  0  0  0  0  0  0  0
   18.9948  -20.3323  -18.5448 C   0  0  0  0  0  0  0  0  0  0  0  0
   19.7798  -20.9979  -17.4356 C   0  0  1  0  0  0  0  0  0  0  0  0
   20.7362  -22.0007  -18.0447 C   0  0  0  0  0  0  0  0  0  0  0  0
   20.6027  -19.9380  -16.7600 C   0  0  2  0  0  0  0  0  0  0  0  0
   21.4024  -20.4668  -15.6733 N   0  0  0  0  0  0  0  0  0  0  0  0
   19.8064  -18.7773  -16.3159 C   0  0  0  0  0  0  0  0  0  0  0  0
   19.2304  -18.8431  -15.1816 O   0  0  0  0  0  0  0  0  0  0  0  0
   19.6354  -17.6265  -17.0306 O   0  0  0  0  0  0  0  0  0  0  0  0
  2  7  1  0
  2  1  1  6
  3  2  1  0
  4  3  1  0
  4  5  1  0
  5  6  2  0
  7  8  2  0
  9  5  1  0
 10 11  1  0
 11 21  2  0
 11 12  1  0
 12 13  2  0
 13 14  1  0
 14 15  1  0
 16 15  1  6
 17 16  1  0
 17  7  1  0
 18 19  2  0
 18 16  1  0
 20 14  2  0
 21 20  1  0
 23 22  1  6
 23 25  1  0
 24 23  1  0
 25 27  1  0
 25 26  1  1
 26 18  1  0
 27 29  1  0
 28 27  2  0
M  END
$$$$
