EYV.pdb
     RDKit          3D

 29 29  0  0  1  0  0  0  0  0999 V2000
   30.5370  -36.1499   -2.9230 N   0  0  0  0  0  0  0  0  0  0  0  0
   29.1859  -36.3652   -2.4287 C   0  0  1  0  0  0  0  0  0  0  0  0
   29.3066  -37.1060   -1.1238 C   0  0  0  0  0  0  0  0  0  0  0  0
   29.7209  -38.5348   -1.2532 C   0  0  0  0  0  0  0  0  0  0  0  0
   28.9268  -39.4636   -0.4386 C   0  0  0  0  0  0  0  0  0  0  0  0
   28.2294  -39.1561    0.5604 O   0  0  0  0  0  0  0  0  0  0  0  0
   28.4864  -35.0815   -2.2108 C   0  0  0  0  0  0  0  0  0  0  0  0
   29.1015  -34.0079   -2.2215 O   0  0  0  0  0  0  0  0  0  0  0  0
   28.9325  -40.8108   -0.7860 O   0  0  0  0  0  0  0  0  0  0  0  0
   22.3501  -28.7531   -1.7720 O   0  0  0  0  0  0  0  0  0  0  0  0
   23.0753  -29.9168   -2.0139 C   0  0  0  0  0  0  0  0  0  0  0  0
   24.3726  -29.8500   -2.5035 C   0  0  0  0  0  0  0  0  0  0  0  0
   25.1233  -30.9845   -2.7557 C   0  0  0  0  0  0  0  0  0  0  0  0
   24.6042  -32.2335   -2.5274 C   0  0  0  0  0  0  0  0  0  0  0  0
   25.3651  -33.4598   -2.7803 C   0  0  0  0  0  0  0  0  0  0  0  0
   26.3810  -33.7935   -1.7409 C   0  0  2  0  0  0  0  0  0  0  0  0
   27.0701  -35.0220   -1.9782 N   0  0  0  0  0  0  0  0  0  0  0  0
   25.6561  -33.8234   -0.4186 C   0  0  0  0  0  0  0  0  0  0  0  0
   24.7950  -34.7057   -0.1751 O   0  0  0  0  0  0  0  0  0  0  0  0
   23.3074  -32.3216   -2.0373 C   0  0  0  0  0  0  0  0  0  0  0  0
   22.5587  -31.1744   -1.7862 C   0  0  0  0  0  0  0  0  0  0  0  0
   27.2339  -33.9890    2.8231 C   0  0  0  0  0  0  0  0  0  0  0  0
   26.2721  -32.8383    3.0241 C   0  0  1  0  0  0  0  0  0  0  0  0
   27.0366  -31.5359    2.9208 C   0  0  0  0  0  0  0  0  0  0  0  0
   25.2787  -32.8724    1.8976 C   0  0  2  0  0  0  0  0  0  0  0  0
   25.9167  -32.8622    0.5964 N   0  0  0  0  0  0  0  0  0  0  0  0
   24.2532  -31.8151    1.9932 C   0  0  0  0  0  0  0  0  0  0  0  0
   24.4165  -30.7564    1.3040 O   0  0  0  0  0  0  0  0  0  0  0  0
   23.1318  -31.8812    2.7693 O   0  0  0  0  0  0  0  0  0  0  0  0
  2  7  1  0
  2  1  1  1
  3  2  1  0
  4  3  1  0
  4  5  1  0
  5  6  2  0
  7  8  2  0
  9  5  1  0
 10 11  1  0
 11 21  2  0
 11 12  1  0
 12 13  2  0
 13 14  1  0
 14 15  1  0
 16 15  1  6
 17 16  1  0
 17  7  1  0
 18 19  2  0
 18 16  1  0
 20 14  2  0
 21 20  1  0
 23 22  1  6
 23 25  1  0
 24 23  1  0
 25 27  1  0
 25 26  1  6
 26 18  1  0
 27 29  1  0
 28 27  2  0
M  END
$$$$
