EYV.pdb
     RDKit          3D

 29 29  0  0  1  0  0  0  0  0999 V2000
   38.4465   -6.6915  -10.6701 N   0  0  0  0  0  0  0  0  0  0  0  0
   38.4027   -7.9033   -9.8666 C   0  0  1  0  0  0  0  0  0  0  0  0
   38.7486   -9.0499  -10.7788 C   0  0  0  0  0  0  0  0  0  0  0  0
   39.2597   -8.6461  -12.1225 C   0  0  0  0  0  0  0  0  0  0  0  0
   39.5548   -9.7754  -13.0138 C   0  0  0  0  0  0  0  0  0  0  0  0
   39.3112  -10.9849  -12.7760 O   0  0  0  0  0  0  0  0  0  0  0  0
   39.3732   -7.8410   -8.7535 C   0  0  0  0  0  0  0  0  0  0  0  0
   40.4066   -7.1665   -8.8427 O   0  0  0  0  0  0  0  0  0  0  0  0
   40.1588   -9.5049  -14.2376 O   0  0  0  0  0  0  0  0  0  0  0  0
   36.8476   -2.9129   -5.1249 O   0  0  0  0  0  0  0  0  0  0  0  0
   37.4575   -4.1645   -5.1188 C   0  0  0  0  0  0  0  0  0  0  0  0
   36.8142   -5.2649   -5.6689 C   0  0  0  0  0  0  0  0  0  0  0  0
   37.3889   -6.5233   -5.6809 C   0  0  0  0  0  0  0  0  0  0  0  0
   38.6330   -6.7308   -5.1416 C   0  0  0  0  0  0  0  0  0  0  0  0
   39.2776   -8.0466   -5.1342 C   0  0  0  0  0  0  0  0  0  0  0  0
   40.0090   -8.3939   -6.3865 C   0  0  2  0  0  0  0  0  0  0  0  0
   39.1624   -8.5560   -7.5255 N   0  0  0  0  0  0  0  0  0  0  0  0
   40.7841   -9.6559   -6.1013 C   0  0  0  0  0  0  0  0  0  0  0  0
   40.2495  -10.6179   -5.4946 O   0  0  0  0  0  0  0  0  0  0  0  0
   39.2933   -5.6422   -4.5861 C   0  0  0  0  0  0  0  0  0  0  0  0
   38.7074   -4.3787   -4.5783 C   0  0  0  0  0  0  0  0  0  0  0  0
   41.9061  -12.0277   -8.1730 C   0  0  0  0  0  0  0  0  0  0  0  0
   43.2226  -11.7855   -7.4675 C   0  0  1  0  0  0  0  0  0  0  0  0
   44.1104  -10.9452   -8.3604 C   0  0  0  0  0  0  0  0  0  0  0  0
   42.9357  -10.9848   -6.2292 C   0  0  2  0  0  0  0  0  0  0  0  0
   42.1396   -9.8056   -6.5045 N   0  0  0  0  0  0  0  0  0  0  0  0
   44.1503  -10.6378   -5.4657 C   0  0  0  0  0  0  0  0  0  0  0  0
   44.5166   -9.4179   -5.4424 O   0  0  0  0  0  0  0  0  0  0  0  0
   44.9212  -11.5284   -4.7751 O   0  0  0  0  0  0  0  0  0  0  0  0
  2  7  1  0
  2  1  1  6
  3  2  1  0
  4  3  1  0
  4  5  1  0
  5  6  2  0
  7  8  2  0
  9  5  1  0
 10 11  1  0
 11 21  2  0
 11 12  1  0
 12 13  2  0
 13 14  1  0
 14 15  1  0
 16 15  1  1
 17 16  1  0
 17  7  1  0
 18 19  2  0
 18 16  1  0
 20 14  2  0
 21 20  1  0
 23 22  1  6
 23 25  1  0
 24 23  1  0
 25 27  1  0
 25 26  1  6
 26 18  1  0
 27 29  1  0
 28 27  2  0
M  END
$$$$
