EYV.pdb
     RDKit          3D

 29 29  0  0  1  0  0  0  0  0999 V2000
   23.2120  -22.3915  -13.9819 N   0  0  0  0  0  0  0  0  0  0  0  0
   22.6420  -21.0729  -14.2109 C   0  0  1  0  0  0  0  0  0  0  0  0
   21.6862  -20.8032  -13.0795 C   0  0  0  0  0  0  0  0  0  0  0  0
   20.4981  -21.7069  -13.0374 C   0  0  0  0  0  0  0  0  0  0  0  0
   19.7220  -21.7324  -14.2839 C   0  0  0  0  0  0  0  0  0  0  0  0
   19.8870  -22.5331  -15.2382 O   0  0  0  0  0  0  0  0  0  0  0  0
   23.6930  -20.0339  -14.2345 C   0  0  0  0  0  0  0  0  0  0  0  0
   23.4432  -18.8640  -13.9185 O   0  0  0  0  0  0  0  0  0  0  0  0
   18.7073  -20.7942  -14.4445 O   0  0  0  0  0  0  0  0  0  0  0  0
   25.5447  -20.8301   -8.2413 O   0  0  0  0  0  0  0  0  0  0  0  0
   25.9502  -20.5649   -9.5465 C   0  0  0  0  0  0  0  0  0  0  0  0
   26.1481  -21.6022  -10.4477 C   0  0  0  0  0  0  0  0  0  0  0  0
   26.5506  -21.3770  -11.7521 C   0  0  0  0  0  0  0  0  0  0  0  0
   26.7714  -20.1020  -12.2073 C   0  0  0  0  0  0  0  0  0  0  0  0
   27.1976  -19.8197  -13.5804 C   0  0  0  0  0  0  0  0  0  0  0  0
   26.1062  -19.3865  -14.4995 C   0  0  2  0  0  0  0  0  0  0  0  0
   25.0433  -20.3329  -14.6229 N   0  0  0  0  0  0  0  0  0  0  0  0
   26.7474  -19.1118  -15.8367 C   0  0  0  0  0  0  0  0  0  0  0  0
   27.1145  -20.0550  -16.5818 O   0  0  0  0  0  0  0  0  0  0  0  0
   26.5789  -19.0500  -11.3207 C   0  0  0  0  0  0  0  0  0  0  0  0
   26.1736  -19.2857  -10.0092 C   0  0  0  0  0  0  0  0  0  0  0  0
   25.2322  -16.8088  -18.3798 C   0  0  0  0  0  0  0  0  0  0  0  0
   26.6736  -16.3597  -18.2794 C   0  0  1  0  0  0  0  0  0  0  0  0
   26.7491  -15.1519  -17.3699 C   0  0  0  0  0  0  0  0  0  0  0  0
   27.4521  -17.4676  -17.6287 C   0  0  2  0  0  0  0  0  0  0  0  0
   26.9602  -17.7855  -16.3032 N   0  0  0  0  0  0  0  0  0  0  0  0
   28.9076  -17.2231  -17.6093 C   0  0  0  0  0  0  0  0  0  0  0  0
   29.4294  -16.7915  -16.5303 O   0  0  0  0  0  0  0  0  0  0  0  0
   29.7488  -17.4243  -18.6658 O   0  0  0  0  0  0  0  0  0  0  0  0
  2  7  1  0
  2  1  1  1
  3  2  1  0
  4  3  1  0
  4  5  1  0
  5  6  2  0
  7  8  2  0
  9  5  1  0
 10 11  1  0
 11 21  2  0
 11 12  1  0
 12 13  2  0
 13 14  1  0
 14 15  1  0
 16 15  1  1
 17 16  1  0
 17  7  1  0
 18 19  2  0
 18 16  1  0
 20 14  2  0
 21 20  1  0
 23 22  1  1
 23 25  1  0
 24 23  1  0
 25 27  1  0
 25 26  1  1
 26 18  1  0
 27 29  1  0
 28 27  2  0
M  END
$$$$
