KGM.pdb
     RDKit          3D

 22 21  0  0  1  0  0  0  0  0999 V2000
   26.2043  -22.4595  -14.8735 N   0  0  0  0  0  0  0  0  0  0  0  0
   26.7702  -21.1618  -15.0840 C   0  0  1  0  0  0  0  0  0  0  0  0
   26.7399  -20.7028  -16.5104 C   0  0  0  0  0  0  0  0  0  0  0  0
   26.9059  -21.8625  -17.4809 C   0  0  0  0  0  0  0  0  0  0  0  0
   28.3374  -22.3258  -17.5423 C   0  0  0  0  0  0  0  0  0  0  0  0
   28.5338  -23.4400  -18.5488 C   0  0  0  0  0  0  0  0  0  0  0  0
   29.8801  -23.9375  -18.5554 N   0  0  0  0  0  0  0  0  0  0  0  0
   26.1566  -20.1604  -14.1907 C   0  0  0  0  0  0  0  0  0  0  0  0
   25.7387  -19.0916  -14.6956 O   0  0  0  0  0  0  0  0  0  0  0  0
   26.0512  -20.4188  -12.7975 N   0  0  0  0  0  0  0  0  0  0  0  0
   25.4963  -19.4137  -11.9675 C   0  0  0  0  0  0  0  0  0  0  0  0
   25.5029  -19.6758  -10.5186 C   0  0  0  0  0  0  0  0  0  0  0  0
   24.9176  -18.8686   -9.7070 O   0  0  0  0  0  0  0  0  0  0  0  0
   29.7510  -19.2269   -6.1918 C   0  0  0  0  0  0  0  0  0  0  0  0
   28.1731  -19.3461   -5.3065 S   0  0  0  0  0  0  0  0  0  0  0  0
   26.9944  -20.3716   -6.2176 C   0  0  0  0  0  0  0  0  0  0  0  0
   27.0216  -20.0920   -7.7046 C   0  0  0  0  0  0  0  0  0  0  0  0
   26.0471  -20.9837   -8.4446 C   0  0  2  0  0  0  0  0  0  0  0  0
   26.1158  -20.7800   -9.8753 N   0  0  0  0  0  0  0  0  0  0  0  0
   24.6800  -20.8352   -7.9167 C   0  0  0  0  0  0  0  0  0  0  0  0
   24.2884  -21.4498   -6.7486 O   0  0  0  0  0  0  0  0  0  0  0  0
   23.8560  -20.1383   -8.5382 O   0  0  0  0  0  0  0  0  0  0  0  0
  2  1  1  6
  3  2  1  0
  4  3  1  0
  5  4  1  0
  6  5  1  0
  7  6  1  0
  8  2  1  0
  8 10  1  0
  9  8  2  0
 11 10  1  0
 11 12  1  0
 12 13  2  0
 15 14  1  0
 16 15  1  0
 17 16  1  0
 18 17  1  1
 19 12  1  0
 19 18  1  0
 20 21  1  0
 20 18  1  0
 22 20  2  0
M  END
$$$$
