KGM.pdb
     RDKit          3D

 22 21  0  0  1  0  0  0  0  0999 V2000
   27.9800  -17.3513  -14.7546 N   0  0  0  0  0  0  0  0  0  0  0  0
   26.6631  -17.9117  -14.7393 C   0  0  1  0  0  0  0  0  0  0  0  0
   25.8837  -17.6826  -15.9987 C   0  0  0  0  0  0  0  0  0  0  0  0
   26.7643  -17.7856  -17.2350 C   0  0  0  0  0  0  0  0  0  0  0  0
   27.0287  -19.2219  -17.6020 C   0  0  0  0  0  0  0  0  0  0  0  0
   27.8689  -19.3450  -18.8558 C   0  0  0  0  0  0  0  0  0  0  0  0
   28.4038  -20.6659  -19.0259 N   0  0  0  0  0  0  0  0  0  0  0  0
   26.6967  -19.3447  -14.3888 C   0  0  0  0  0  0  0  0  0  0  0  0
   26.7949  -20.1807  -15.3178 O   0  0  0  0  0  0  0  0  0  0  0  0
   26.6184  -19.7468  -13.0282 N   0  0  0  0  0  0  0  0  0  0  0  0
   26.3774  -21.1136  -12.7441 C   0  0  0  0  0  0  0  0  0  0  0  0
   26.3241  -21.4930  -11.3224 C   0  0  0  0  0  0  0  0  0  0  0  0
   25.8848  -22.6493  -10.9718 O   0  0  0  0  0  0  0  0  0  0  0  0
   28.7107  -18.3343   -5.9527 C   0  0  0  0  0  0  0  0  0  0  0  0
   27.8461  -19.7522   -5.2249 S   0  0  0  0  0  0  0  0  0  0  0  0
   26.7889  -20.5640   -6.4473 C   0  0  0  0  0  0  0  0  0  0  0  0
   27.2095  -20.2504   -7.8667 C   0  0  0  0  0  0  0  0  0  0  0  0
   26.3240  -20.9626   -8.8674 C   0  0  2  0  0  0  0  0  0  0  0  0
   26.7244  -20.6842  -10.2295 N   0  0  0  0  0  0  0  0  0  0  0  0
   24.9009  -20.6704   -8.6247 C   0  0  0  0  0  0  0  0  0  0  0  0
   24.2248  -21.2189   -7.5582 O   0  0  0  0  0  0  0  0  0  0  0  0
   24.2912  -19.9099   -9.3998 O   0  0  0  0  0  0  0  0  0  0  0  0
  2  1  1  6
  3  2  1  0
  4  3  1  0
  5  4  1  0
  6  5  1  0
  7  6  1  0
  8  2  1  0
  8 10  1  0
  9  8  2  0
 11 10  1  0
 11 12  1  0
 12 13  2  0
 15 14  1  0
 16 15  1  0
 17 16  1  0
 18 17  1  1
 19 12  1  0
 19 18  1  0
 20 21  1  0
 20 18  1  0
 22 20  2  0
M  END
$$$$
