KGM.pdb
     RDKit          3D

 22 21  0  0  1  0  0  0  0  0999 V2000
   26.4124  -20.7467  -14.9308 N   0  0  0  0  0  0  0  0  0  0  0  0
   25.6891  -19.6379  -15.4748 C   0  0  1  0  0  0  0  0  0  0  0  0
   26.2575  -19.1022  -16.7539 C   0  0  0  0  0  0  0  0  0  0  0  0
   27.7600  -19.3241  -16.8414 C   0  0  0  0  0  0  0  0  0  0  0  0
   28.4643  -18.7982  -15.6188 C   0  0  0  0  0  0  0  0  0  0  0  0
   29.9674  -18.9548  -15.7147 C   0  0  0  0  0  0  0  0  0  0  0  0
   30.6298  -18.6186  -14.4866 N   0  0  0  0  0  0  0  0  0  0  0  0
   24.2559  -19.9560  -15.6227 C   0  0  0  0  0  0  0  0  0  0  0  0
   23.7365  -19.8414  -16.7580 O   0  0  0  0  0  0  0  0  0  0  0  0
   23.5008  -20.3796  -14.4960 N   0  0  0  0  0  0  0  0  0  0  0  0
   23.5282  -21.7522  -14.1460 C   0  0  0  0  0  0  0  0  0  0  0  0
   23.9069  -22.0727  -12.7597 C   0  0  0  0  0  0  0  0  0  0  0  0
   23.5281  -23.1755  -12.2184 O   0  0  0  0  0  0  0  0  0  0  0  0
   28.0901  -19.0233   -8.6335 C   0  0  0  0  0  0  0  0  0  0  0  0
   27.1194  -20.0120   -7.4639 S   0  0  0  0  0  0  0  0  0  0  0  0
   25.7124  -20.7945   -8.2880 C   0  0  0  0  0  0  0  0  0  0  0  0
   25.8331  -20.7475   -9.7957 C   0  0  0  0  0  0  0  0  0  0  0  0
   24.6163  -21.3573  -10.4590 C   0  0  2  0  0  0  0  0  0  0  0  0
   24.6870  -21.2588  -11.9007 N   0  0  0  0  0  0  0  0  0  0  0  0
   23.3705  -20.7918   -9.9134 C   0  0  0  0  0  0  0  0  0  0  0  0
   22.8655  -21.1999   -8.6994 O   0  0  0  0  0  0  0  0  0  0  0  0
   22.7565  -19.9240  -10.5621 O   0  0  0  0  0  0  0  0  0  0  0  0
  2  1  1  6
  3  2  1  0
  4  3  1  0
  5  4  1  0
  6  5  1  0
  7  6  1  0
  8  2  1  0
  8 10  1  0
  9  8  2  0
 11 10  1  0
 11 12  1  0
 12 13  2  0
 15 14  1  0
 16 15  1  0
 17 16  1  0
 18 17  1  1
 19 12  1  0
 19 18  1  0
 20 21  1  0
 20 18  1  0
 22 20  2  0
M  END
$$$$
