KGM.pdb
     RDKit          3D

 22 21  0  0  1  0  0  0  0  0999 V2000
   23.6665  -21.8943  -14.9872 N   0  0  0  0  0  0  0  0  0  0  0  0
   23.9154  -21.0009  -13.8970 C   0  0  1  0  0  0  0  0  0  0  0  0
   22.7669  -20.8593  -12.9447 C   0  0  0  0  0  0  0  0  0  0  0  0
   21.4824  -20.4721  -13.6621 C   0  0  0  0  0  0  0  0  0  0  0  0
   20.4378  -21.5494  -13.5365 C   0  0  0  0  0  0  0  0  0  0  0  0
   19.1196  -21.1414  -14.1601 C   0  0  0  0  0  0  0  0  0  0  0  0
   18.1536  -22.2026  -14.1358 N   0  0  0  0  0  0  0  0  0  0  0  0
   25.1556  -21.3617  -13.1835 C   0  0  0  0  0  0  0  0  0  0  0  0
   25.5403  -22.5541  -13.2278 O   0  0  0  0  0  0  0  0  0  0  0  0
   25.8809  -20.3695  -12.4703 N   0  0  0  0  0  0  0  0  0  0  0  0
   27.0061  -20.7753  -11.7110 C   0  0  0  0  0  0  0  0  0  0  0  0
   26.7965  -20.9557  -10.2648 C   0  0  0  0  0  0  0  0  0  0  0  0
   25.6701  -21.3845   -9.8175 O   0  0  0  0  0  0  0  0  0  0  0  0
   30.9735  -20.7716   -4.6670 C   0  0  0  0  0  0  0  0  0  0  0  0
   29.5384  -19.6825   -4.4619 S   0  0  0  0  0  0  0  0  0  0  0  0
   28.1679  -20.2103   -5.5176 C   0  0  0  0  0  0  0  0  0  0  0  0
   28.5165  -20.1362   -6.9884 C   0  0  0  0  0  0  0  0  0  0  0  0
   27.4102  -20.7211   -7.8407 C   0  0  2  0  0  0  0  0  0  0  0  0
   27.7483  -20.6964   -9.2472 N   0  0  0  0  0  0  0  0  0  0  0  0
   26.1180  -20.0731   -7.5576 C   0  0  0  0  0  0  0  0  0  0  0  0
   25.1597  -20.6860   -6.7821 O   0  0  0  0  0  0  0  0  0  0  0  0
   25.8828  -18.9446   -8.0287 O   0  0  0  0  0  0  0  0  0  0  0  0
  2  1  1  6
  3  2  1  0
  4  3  1  0
  5  4  1  0
  6  5  1  0
  7  6  1  0
  8  2  1  0
  8 10  1  0
  9  8  2  0
 11 10  1  0
 11 12  1  0
 12 13  2  0
 15 14  1  0
 16 15  1  0
 17 16  1  0
 18 17  1  1
 19 12  1  0
 19 18  1  0
 20 21  1  0
 20 18  1  0
 22 20  2  0
M  END
$$$$
