KGM.pdb
     RDKit          3D

 22 21  0  0  1  0  0  0  0  0999 V2000
   23.2131  -21.6813  -14.6543 N   0  0  0  0  0  0  0  0  0  0  0  0
   23.6369  -20.3759  -15.0605 C   0  0  1  0  0  0  0  0  0  0  0  0
   22.5160  -19.4018  -15.2628 C   0  0  0  0  0  0  0  0  0  0  0  0
   21.4393  -19.9618  -16.1801 C   0  0  0  0  0  0  0  0  0  0  0  0
   21.9000  -19.9898  -17.6135 C   0  0  0  0  0  0  0  0  0  0  0  0
   20.8175  -20.4819  -18.5511 C   0  0  0  0  0  0  0  0  0  0  0  0
   21.2999  -20.6693  -19.8899 N   0  0  0  0  0  0  0  0  0  0  0  0
   24.6524  -19.8330  -14.1379 C   0  0  0  0  0  0  0  0  0  0  0  0
   25.2358  -18.7700  -14.4565 O   0  0  0  0  0  0  0  0  0  0  0  0
   24.9474  -20.5115  -12.9248 N   0  0  0  0  0  0  0  0  0  0  0  0
   25.9286  -19.9573  -12.0662 C   0  0  0  0  0  0  0  0  0  0  0  0
   26.0638  -20.5715  -10.7348 C   0  0  0  0  0  0  0  0  0  0  0  0
   25.8298  -21.8245  -10.5677 O   0  0  0  0  0  0  0  0  0  0  0  0
   28.1928  -18.1290   -4.3593 C   0  0  0  0  0  0  0  0  0  0  0  0
   28.9752  -19.6356   -4.9961 S   0  0  0  0  0  0  0  0  0  0  0  0
   27.8517  -20.5368   -6.0900 C   0  0  0  0  0  0  0  0  0  0  0  0
   27.6594  -19.8356   -7.4172 C   0  0  0  0  0  0  0  0  0  0  0  0
   26.7062  -20.6052   -8.3070 C   0  0  2  0  0  0  0  0  0  0  0  0
   26.4445  -19.9029   -9.5445 N   0  0  0  0  0  0  0  0  0  0  0  0
   25.4720  -20.9613   -7.5863 C   0  0  0  0  0  0  0  0  0  0  0  0
   24.3209  -20.2178   -7.7185 O   0  0  0  0  0  0  0  0  0  0  0  0
   25.4652  -21.9574   -6.8389 O   0  0  0  0  0  0  0  0  0  0  0  0
  2  1  1  1
  3  2  1  0
  4  3  1  0
  5  4  1  0
  6  5  1  0
  7  6  1  0
  8  2  1  0
  8 10  1  0
  9  8  2  0
 11 10  1  0
 11 12  1  0
 12 13  2  0
 15 14  1  0
 16 15  1  0
 17 16  1  0
 18 17  1  1
 19 12  1  0
 19 18  1  0
 20 21  1  0
 20 18  1  0
 22 20  2  0
M  END
$$$$
