KGM.pdb
     RDKit          3D

 22 21  0  0  1  0  0  0  0  0999 V2000
   22.2806  -22.8827  -12.6328 N   0  0  0  0  0  0  0  0  0  0  0  0
   21.9375  -21.4937  -12.5948 C   0  0  1  0  0  0  0  0  0  0  0  0
   20.5005  -21.2250  -12.2645 C   0  0  0  0  0  0  0  0  0  0  0  0
   19.6578  -22.4894  -12.3380 C   0  0  0  0  0  0  0  0  0  0  0  0
   19.2323  -22.9454  -10.9674 C   0  0  0  0  0  0  0  0  0  0  0  0
   18.2691  -24.1124  -11.0279 C   0  0  0  0  0  0  0  0  0  0  0  0
   17.9164  -24.5962   -9.7234 N   0  0  0  0  0  0  0  0  0  0  0  0
   22.8378  -20.7456  -11.6963 C   0  0  0  0  0  0  0  0  0  0  0  0
   22.7477  -19.4954  -11.6724 O   0  0  0  0  0  0  0  0  0  0  0  0
   23.7756  -21.4420  -10.8872 N   0  0  0  0  0  0  0  0  0  0  0  0
   24.6020  -20.6892  -10.0168 C   0  0  0  0  0  0  0  0  0  0  0  0
   25.7925  -20.0622  -10.6148 C   0  0  0  0  0  0  0  0  0  0  0  0
   26.4249  -19.1343   -9.9889 O   0  0  0  0  0  0  0  0  0  0  0  0
   32.4380  -21.7126   -9.9654 C   0  0  0  0  0  0  0  0  0  0  0  0
   30.6560  -21.4982   -9.7078 S   0  0  0  0  0  0  0  0  0  0  0  0
   29.7267  -21.9599  -11.1891 C   0  0  0  0  0  0  0  0  0  0  0  0
   28.2432  -21.7026  -11.0379 C   0  0  0  0  0  0  0  0  0  0  0  0
   27.7620  -20.6802  -12.0457 C   0  0  2  0  0  0  0  0  0  0  0  0
   26.3567  -20.3811  -11.8752 N   0  0  0  0  0  0  0  0  0  0  0  0
   28.0905  -21.0905  -13.4217 C   0  0  0  0  0  0  0  0  0  0  0  0
   29.0936  -20.4753  -14.1364 O   0  0  0  0  0  0  0  0  0  0  0  0
   27.4485  -22.0148  -13.9548 O   0  0  0  0  0  0  0  0  0  0  0  0
  2  1  1  1
  3  2  1  0
  4  3  1  0
  5  4  1  0
  6  5  1  0
  7  6  1  0
  8  2  1  0
  8 10  1  0
  9  8  2  0
 11 10  1  0
 11 12  1  0
 12 13  2  0
 15 14  1  0
 16 15  1  0
 17 16  1  0
 18 17  1  1
 19 12  1  0
 19 18  1  0
 20 21  1  0
 20 18  1  0
 22 20  2  0
M  END
$$$$
