KGM.pdb
     RDKit          3D

 22 21  0  0  1  0  0  0  0  0999 V2000
   21.3662  -21.4607  -15.2589 N   0  0  0  0  0  0  0  0  0  0  0  0
   21.7126  -20.1223  -15.6295 C   0  0  1  0  0  0  0  0  0  0  0  0
   20.5835  -19.3392  -16.2279 C   0  0  0  0  0  0  0  0  0  0  0  0
   20.1399  -19.9175  -17.5633 C   0  0  0  0  0  0  0  0  0  0  0  0
   21.1018  -19.5562  -18.6641 C   0  0  0  0  0  0  0  0  0  0  0  0
   20.6891  -20.1431  -19.9977 C   0  0  0  0  0  0  0  0  0  0  0  0
   21.6451  -19.8696  -21.0327 N   0  0  0  0  0  0  0  0  0  0  0  0
   22.3222  -19.3959  -14.4990 C   0  0  0  0  0  0  0  0  0  0  0  0
   22.7168  -18.2217  -14.6916 O   0  0  0  0  0  0  0  0  0  0  0  0
   22.4499  -20.0278  -13.2327 N   0  0  0  0  0  0  0  0  0  0  0  0
   23.0722  -19.3089  -12.1825 C   0  0  0  0  0  0  0  0  0  0  0  0
   24.2577  -19.9302  -11.5689 C   0  0  0  0  0  0  0  0  0  0  0  0
   24.7578  -21.0076  -12.0608 O   0  0  0  0  0  0  0  0  0  0  0  0
   28.0074  -17.5969   -6.5235 C   0  0  0  0  0  0  0  0  0  0  0  0
   28.4672  -19.3497   -6.5865 S   0  0  0  0  0  0  0  0  0  0  0  0
   27.8578  -20.1257   -8.1023 C   0  0  0  0  0  0  0  0  0  0  0  0
   26.5700  -19.4978   -8.5895 C   0  0  0  0  0  0  0  0  0  0  0  0
   26.1262  -20.1119   -9.9004 C   0  0  2  0  0  0  0  0  0  0  0  0
   24.9538  -19.4509  -10.4311 N   0  0  0  0  0  0  0  0  0  0  0  0
   25.9466  -21.5684   -9.7746 C   0  0  0  0  0  0  0  0  0  0  0  0
   26.9263  -22.4515  -10.1692 O   0  0  0  0  0  0  0  0  0  0  0  0
   24.8854  -22.0158   -9.3006 O   0  0  0  0  0  0  0  0  0  0  0  0
  2  1  1  1
  3  2  1  0
  4  3  1  0
  5  4  1  0
  6  5  1  0
  7  6  1  0
  8  2  1  0
  8 10  1  0
  9  8  2  0
 11 10  1  0
 11 12  1  0
 12 13  2  0
 15 14  1  0
 16 15  1  0
 17 16  1  0
 18 17  1  1
 19 12  1  0
 19 18  1  0
 20 21  1  0
 20 18  1  0
 22 20  2  0
M  END
$$$$
