KGM.pdb
     RDKit          3D

 22 21  0  0  1  0  0  0  0  0999 V2000
   26.2617  -19.8629  -15.3303 N   0  0  0  0  0  0  0  0  0  0  0  0
   26.8408  -18.8442  -14.5084 C   0  0  1  0  0  0  0  0  0  0  0  0
   25.8466  -17.8846  -13.9279 C   0  0  0  0  0  0  0  0  0  0  0  0
   24.5950  -17.7795  -14.7863 C   0  0  0  0  0  0  0  0  0  0  0  0
   23.6144  -18.8755  -14.4628 C   0  0  0  0  0  0  0  0  0  0  0  0
   22.3518  -18.7746  -15.2928 C   0  0  0  0  0  0  0  0  0  0  0  0
   21.3927  -19.7863  -14.9511 N   0  0  0  0  0  0  0  0  0  0  0  0
   27.6928  -19.4284  -13.4547 C   0  0  0  0  0  0  0  0  0  0  0  0
   28.2627  -18.6508  -12.6533 O   0  0  0  0  0  0  0  0  0  0  0  0
   27.8507  -20.8378  -13.3669 N   0  0  0  0  0  0  0  0  0  0  0  0
   28.7159  -21.3565  -12.3722 C   0  0  0  0  0  0  0  0  0  0  0  0
   28.1466  -21.5261  -11.0250 C   0  0  0  0  0  0  0  0  0  0  0  0
   28.3201  -22.6226  -10.3767 O   0  0  0  0  0  0  0  0  0  0  0  0
   28.5639  -18.4421   -5.4897 C   0  0  0  0  0  0  0  0  0  0  0  0
   27.5939  -19.9389   -5.1634 S   0  0  0  0  0  0  0  0  0  0  0  0
   26.6201  -20.4091   -6.6131 C   0  0  0  0  0  0  0  0  0  0  0  0
   27.3399  -20.1065   -7.9094 C   0  0  0  0  0  0  0  0  0  0  0  0
   26.7216  -20.8637   -9.0656 C   0  0  2  0  0  0  0  0  0  0  0  0
   27.3838  -20.5642  -10.3166 N   0  0  0  0  0  0  0  0  0  0  0  0
   25.2662  -20.6465   -9.1294 C   0  0  0  0  0  0  0  0  0  0  0  0
   24.4251  -21.1096   -8.1427 O   0  0  0  0  0  0  0  0  0  0  0  0
   24.7809  -20.0301  -10.0965 O   0  0  0  0  0  0  0  0  0  0  0  0
  2  1  1  1
  3  2  1  0
  4  3  1  0
  5  4  1  0
  6  5  1  0
  7  6  1  0
  8  2  1  0
  8 10  1  0
  9  8  2  0
 11 10  1  0
 11 12  1  0
 12 13  2  0
 15 14  1  0
 16 15  1  0
 17 16  1  0
 18 17  1  1
 19 12  1  0
 19 18  1  0
 20 21  1  0
 20 18  1  0
 22 20  2  0
M  END
$$$$
