KGM.pdb
     RDKit          3D

 22 21  0  0  1  0  0  0  0  0999 V2000
   20.3160  -15.0521  -20.4649 N   0  0  0  0  0  0  0  0  0  0  0  0
   20.1581  -15.0934  -19.0429 C   0  0  1  0  0  0  0  0  0  0  0  0
   20.6017  -16.3789  -18.4130 C   0  0  0  0  0  0  0  0  0  0  0  0
   19.9860  -17.5876  -19.1016 C   0  0  0  0  0  0  0  0  0  0  0  0
   20.5902  -18.8721  -18.5990 C   0  0  0  0  0  0  0  0  0  0  0  0
   20.0103  -20.0858  -19.2945 C   0  0  0  0  0  0  0  0  0  0  0  0
   20.5168  -21.3162  -18.7562 N   0  0  0  0  0  0  0  0  0  0  0  0
   20.8074  -13.9349  -18.3997 C   0  0  0  0  0  0  0  0  0  0  0  0
   20.7147  -13.8183  -17.1549 O   0  0  0  0  0  0  0  0  0  0  0  0
   21.5146  -12.9871  -19.1874 N   0  0  0  0  0  0  0  0  0  0  0  0
   21.9881  -11.8096  -18.5579 C   0  0  0  0  0  0  0  0  0  0  0  0
   21.1490  -10.6069  -18.6904 C   0  0  0  0  0  0  0  0  0  0  0  0
   20.3243  -10.4916  -19.6697 O   0  0  0  0  0  0  0  0  0  0  0  0
   15.9665   -5.4053  -16.4433 C   0  0  0  0  0  0  0  0  0  0  0  0
   17.0056   -6.8443  -16.0728 S   0  0  0  0  0  0  0  0  0  0  0  0
   18.3480   -7.0011  -17.2746 C   0  0  0  0  0  0  0  0  0  0  0  0
   19.2070   -8.2203  -17.0180 C   0  0  0  0  0  0  0  0  0  0  0  0
   20.3200   -8.3273  -18.0389 C   0  0  2  0  0  0  0  0  0  0  0  0
   21.1439   -9.4947  -17.8119 N   0  0  0  0  0  0  0  0  0  0  0  0
   21.1064   -7.0836  -18.1045 C   0  0  0  0  0  0  0  0  0  0  0  0
   20.6278   -5.9619  -18.7435 O   0  0  0  0  0  0  0  0  0  0  0  0
   22.2308   -7.0412  -17.5708 O   0  0  0  0  0  0  0  0  0  0  0  0
  2  1  1  6
  3  2  1  0
  4  3  1  0
  5  4  1  0
  6  5  1  0
  7  6  1  0
  8  2  1  0
  8 10  1  0
  9  8  2  0
 11 10  1  0
 11 12  1  0
 12 13  2  0
 15 14  1  0
 16 15  1  0
 17 16  1  0
 18 17  1  1
 19 12  1  0
 19 18  1  0
 20 21  1  0
 20 18  1  0
 22 20  2  0
M  END
$$$$
