KGM.pdb
     RDKit          3D

 22 21  0  0  1  0  0  0  0  0999 V2000
   20.9907  -20.6137  -14.5099 N   0  0  0  0  0  0  0  0  0  0  0  0
   22.2851  -21.1169  -14.8564 C   0  0  1  0  0  0  0  0  0  0  0  0
   22.3325  -21.8369  -16.1699 C   0  0  0  0  0  0  0  0  0  0  0  0
   22.4240  -23.3442  -15.9853 C   0  0  0  0  0  0  0  0  0  0  0  0
   23.8215  -23.7679  -15.6179 C   0  0  0  0  0  0  0  0  0  0  0  0
   23.9372  -25.2685  -15.4504 C   0  0  0  0  0  0  0  0  0  0  0  0
   25.2756  -25.6802  -15.1355 N   0  0  0  0  0  0  0  0  0  0  0  0
   23.3053  -20.0525  -14.7970 C   0  0  0  0  0  0  0  0  0  0  0  0
   23.4309  -19.2949  -15.7880 O   0  0  0  0  0  0  0  0  0  0  0  0
   24.1145  -19.9059  -13.6383 N   0  0  0  0  0  0  0  0  0  0  0  0
   25.3697  -19.2628  -13.7721 C   0  0  0  0  0  0  0  0  0  0  0  0
   26.1680  -19.1108  -12.5442 C   0  0  0  0  0  0  0  0  0  0  0  0
   27.3745  -18.6706  -12.6008 O   0  0  0  0  0  0  0  0  0  0  0  0
   27.8712  -18.3026   -6.4541 C   0  0  0  0  0  0  0  0  0  0  0  0
   27.0987  -19.9352   -6.2938 S   0  0  0  0  0  0  0  0  0  0  0  0
   26.9573  -20.7464   -7.9042 C   0  0  0  0  0  0  0  0  0  0  0  0
   26.0928  -19.9616   -8.8668 C   0  0  0  0  0  0  0  0  0  0  0  0
   26.5444  -20.1680  -10.2972 C   0  0  2  0  0  0  0  0  0  0  0  0
   25.7360  -19.4110  -11.2281 N   0  0  0  0  0  0  0  0  0  0  0  0
   26.6073  -21.6000  -10.6365 C   0  0  0  0  0  0  0  0  0  0  0  0
   25.5997  -22.2176  -11.3427 O   0  0  0  0  0  0  0  0  0  0  0  0
   27.5931  -22.2713  -10.2781 O   0  0  0  0  0  0  0  0  0  0  0  0
  2  1  1  6
  3  2  1  0
  4  3  1  0
  5  4  1  0
  6  5  1  0
  7  6  1  0
  8  2  1  0
  8 10  1  0
  9  8  2  0
 11 10  1  0
 11 12  1  0
 12 13  2  0
 15 14  1  0
 16 15  1  0
 17 16  1  0
 18 17  1  1
 19 12  1  0
 19 18  1  0
 20 21  1  0
 20 18  1  0
 22 20  2  0
M  END
$$$$
