KGM.pdb
     RDKit          3D

 22 21  0  0  1  0  0  0  0  0999 V2000
   24.2534  -21.8327  -15.3433 N   0  0  0  0  0  0  0  0  0  0  0  0
   25.4621  -21.2759  -15.8703 C   0  0  1  0  0  0  0  0  0  0  0  0
   25.2558  -20.0729  -16.7400 C   0  0  0  0  0  0  0  0  0  0  0  0
   25.3422  -20.4226  -18.2181 C   0  0  0  0  0  0  0  0  0  0  0  0
   24.9940  -21.8673  -18.4613 C   0  0  0  0  0  0  0  0  0  0  0  0
   25.0919  -22.2389  -19.9260 C   0  0  0  0  0  0  0  0  0  0  0  0
   24.8008  -23.6253  -20.1571 N   0  0  0  0  0  0  0  0  0  0  0  0
   26.4332  -20.9940  -14.7957 C   0  0  0  0  0  0  0  0  0  0  0  0
   27.5327  -20.4797  -15.1092 O   0  0  0  0  0  0  0  0  0  0  0  0
   26.1122  -21.3046  -13.4467 N   0  0  0  0  0  0  0  0  0  0  0  0
   26.9064  -20.7381  -12.4193 C   0  0  0  0  0  0  0  0  0  0  0  0
   26.4853  -21.0083  -11.0345 C   0  0  0  0  0  0  0  0  0  0  0  0
   25.2382  -21.0210  -10.7226 O   0  0  0  0  0  0  0  0  0  0  0  0
   28.3895  -19.3698   -3.5684 C   0  0  0  0  0  0  0  0  0  0  0  0
   28.7930  -19.3030   -5.3348 S   0  0  0  0  0  0  0  0  0  0  0  0
   27.5735  -20.2124   -6.3132 C   0  0  0  0  0  0  0  0  0  0  0  0
   28.0066  -20.3831   -7.7531 C   0  0  0  0  0  0  0  0  0  0  0  0
   26.9363  -21.0818   -8.5648 C   0  0  2  0  0  0  0  0  0  0  0  0
   27.3457  -21.2717   -9.9394 N   0  0  0  0  0  0  0  0  0  0  0  0
   25.6414  -20.3892   -8.4503 C   0  0  0  0  0  0  0  0  0  0  0  0
   25.4427  -19.1396   -8.9929 O   0  0  0  0  0  0  0  0  0  0  0  0
   24.7017  -20.9433   -7.8496 O   0  0  0  0  0  0  0  0  0  0  0  0
  2  1  1  1
  3  2  1  0
  4  3  1  0
  5  4  1  0
  6  5  1  0
  7  6  1  0
  8  2  1  0
  8 10  1  0
  9  8  2  0
 11 10  1  0
 11 12  1  0
 12 13  2  0
 15 14  1  0
 16 15  1  0
 17 16  1  0
 18 17  1  1
 19 12  1  0
 19 18  1  0
 20 21  1  0
 20 18  1  0
 22 20  2  0
M  END
$$$$
