KGM.pdb
     RDKit          3D

 22 21  0  0  1  0  0  0  0  0999 V2000
   25.9912  -20.0506  -16.6768 N   0  0  0  0  0  0  0  0  0  0  0  0
   25.5844  -18.7233  -16.3282 C   0  0  1  0  0  0  0  0  0  0  0  0
   24.1042  -18.4977  -16.3941 C   0  0  0  0  0  0  0  0  0  0  0  0
   23.3275  -19.6677  -15.8093 C   0  0  0  0  0  0  0  0  0  0  0  0
   22.0381  -19.8965  -16.5525 C   0  0  0  0  0  0  0  0  0  0  0  0
   21.2629  -21.0746  -16.0008 C   0  0  0  0  0  0  0  0  0  0  0  0
   19.9763  -21.2187  -16.6205 N   0  0  0  0  0  0  0  0  0  0  0  0
   26.1239  -18.3274  -15.0131 C   0  0  0  0  0  0  0  0  0  0  0  0
   26.0301  -17.1251  -14.6707 O   0  0  0  0  0  0  0  0  0  0  0  0
   26.7305  -19.2980  -14.1710 N   0  0  0  0  0  0  0  0  0  0  0  0
   27.2894  -18.8670  -12.9426 C   0  0  0  0  0  0  0  0  0  0  0  0
   27.0230  -19.7090  -11.7645 C   0  0  0  0  0  0  0  0  0  0  0  0
   27.0134  -20.9904  -11.8672 O   0  0  0  0  0  0  0  0  0  0  0  0
   28.8691  -20.7593   -4.4298 C   0  0  0  0  0  0  0  0  0  0  0  0
   27.9028  -19.5513   -5.3757 S   0  0  0  0  0  0  0  0  0  0  0  0
   27.1729  -20.3127   -6.8450 C   0  0  0  0  0  0  0  0  0  0  0  0
   27.2355  -19.4029   -8.0526 C   0  0  0  0  0  0  0  0  0  0  0  0
   26.7650  -20.1203   -9.3002 C   0  0  2  0  0  0  0  0  0  0  0  0
   26.7602  -19.2442  -10.4516 N   0  0  0  0  0  0  0  0  0  0  0  0
   25.4638  -20.7750   -9.0816 C   0  0  0  0  0  0  0  0  0  0  0  0
   25.3775  -22.0845   -8.6655 O   0  0  0  0  0  0  0  0  0  0  0  0
   24.4148  -20.1327   -9.2765 O   0  0  0  0  0  0  0  0  0  0  0  0
  2  1  1  1
  3  2  1  0
  4  3  1  0
  5  4  1  0
  6  5  1  0
  7  6  1  0
  8  2  1  0
  8 10  1  0
  9  8  2  0
 11 10  1  0
 11 12  1  0
 12 13  2  0
 15 14  1  0
 16 15  1  0
 17 16  1  0
 18 17  1  1
 19 12  1  0
 19 18  1  0
 20 21  1  0
 20 18  1  0
 22 20  2  0
M  END
$$$$
