VKH.pdb
     RDKit          3D

 27 27  0  0  1  0  0  0  0  0999 V2000
   23.1393  -13.5504  -22.1122 C   0  0  0  0  0  0  0  0  0  0  0  0
   21.9681  -12.7122  -21.6351 C   0  0  1  0  0  0  0  0  0  0  0  0
   20.7943  -13.6455  -21.4718 C   0  0  0  0  0  0  0  0  0  0  0  0
   22.3748  -12.0694  -20.3340 C   0  0  2  0  0  0  0  0  0  0  0  0
   22.9348  -13.0704  -19.4184 N   0  0  0  0  0  0  0  0  0  0  0  0
   21.2846  -11.3328  -19.6794 C   0  0  0  0  0  0  0  0  0  0  0  0
   20.7261  -10.3453  -20.2405 O   0  0  0  0  0  0  0  0  0  0  0  0
   20.8500  -11.7364  -18.3937 N   0  0  0  0  0  0  0  0  0  0  0  0
   19.7492  -11.0630  -17.6698 C   0  0  1  0  0  0  0  0  0  0  0  0
   18.9453  -12.1519  -16.9803 C   0  0  0  0  0  0  0  0  0  0  0  0
   17.7732  -11.6329  -16.2482 C   0  0  0  0  0  0  0  0  0  0  0  0
   17.0334  -12.8121  -15.6035 C   0  0  0  0  0  0  0  0  0  0  0  0
   15.8269  -12.3836  -14.8291 C   0  0  0  0  0  0  0  0  0  0  0  0
   15.2151  -13.5892  -14.2753 N   0  0  0  0  0  0  0  0  0  0  0  0
   20.2728  -10.0266  -16.7811 C   0  0  0  0  0  0  0  0  0  0  0  0
   21.1327  -10.3551  -15.9102 O   0  0  0  0  0  0  0  0  0  0  0  0
   19.9204   -8.6534  -16.7848 N   0  0  0  0  0  0  0  0  0  0  0  0
   20.5045   -7.7025  -15.8451 C   0  0  1  0  0  0  0  0  0  0  0  0
   20.6483   -6.3754  -16.6021 C   0  0  0  0  0  0  0  0  0  0  0  0
   21.2171   -5.3314  -15.7266 C   0  0  0  0  0  0  0  0  0  0  0  0
   22.4169   -5.4236  -15.0522 C   0  0  0  0  0  0  0  0  0  0  0  0
   22.5500   -4.2762  -14.3857 N   0  0  0  0  0  0  0  0  0  0  0  0
   21.4778   -3.5018  -14.6348 C   0  0  0  0  0  0  0  0  0  0  0  0
   20.6318   -4.1506  -15.4751 N   0  0  0  0  0  0  0  0  0  0  0  0
   19.6185   -7.4800  -14.6772 C   0  0  0  0  0  0  0  0  0  0  0  0
   18.3718   -7.4654  -14.8292 O   0  0  0  0  0  0  0  0  0  0  0  0
   20.0762   -7.2793  -13.3821 O   0  0  0  0  0  0  0  0  0  0  0  0
  2  1  1  1
  2  4  1  0
  3  2  1  0
  4  5  1  1
  6  7  2  0
  6  4  1  0
  8  6  1  0
  9 15  1  0
  9  8  1  0
  9 10  1  1
 11 12  1  0
 11 10  1  0
 13 14  1  0
 13 12  1  0
 15 17  1  0
 16 15  2  0
 17 18  1  0
 18 25  1  0
 18 19  1  6
 20 19  1  0
 20 21  2  0
 22 21  1  0
 23 22  1  0
 24 23  2  0
 24 20  1  0
 25 26  2  0
 25 27  1  0
M  END
$$$$
