VKH.pdb
     RDKit          3D

 27 27  0  0  1  0  0  0  0  0999 V2000
   19.5753  -15.4435  -16.5603 C   0  0  0  0  0  0  0  0  0  0  0  0
   18.3231  -14.6345  -16.8421 C   0  0  1  0  0  0  0  0  0  0  0  0
   17.5831  -14.4959  -15.5348 C   0  0  0  0  0  0  0  0  0  0  0  0
   18.7621  -13.3035  -17.3962 C   0  0  2  0  0  0  0  0  0  0  0  0
   19.2715  -13.4581  -18.7639 N   0  0  0  0  0  0  0  0  0  0  0  0
   19.7551  -12.6189  -16.5565 C   0  0  0  0  0  0  0  0  0  0  0  0
   19.4743  -12.2347  -15.3837 O   0  0  0  0  0  0  0  0  0  0  0  0
   21.0534  -12.3843  -17.0705 N   0  0  0  0  0  0  0  0  0  0  0  0
   22.0822  -11.6167  -16.3344 C   0  0  1  0  0  0  0  0  0  0  0  0
   23.4329  -12.1240  -16.8092 C   0  0  0  0  0  0  0  0  0  0  0  0
   24.5700  -11.4457  -16.1563 C   0  0  0  0  0  0  0  0  0  0  0  0
   25.8759  -12.0380  -16.7017 C   0  0  0  0  0  0  0  0  0  0  0  0
   27.0889  -11.4873  -16.0204 C   0  0  0  0  0  0  0  0  0  0  0  0
   28.2394  -12.2515  -16.4967 N   0  0  0  0  0  0  0  0  0  0  0  0
   21.8708  -10.1792  -16.4988 C   0  0  0  0  0  0  0  0  0  0  0  0
   21.7073   -9.7223  -17.6694 O   0  0  0  0  0  0  0  0  0  0  0  0
   21.8226   -9.2089  -15.4663 N   0  0  0  0  0  0  0  0  0  0  0  0
   21.2584   -7.8805  -15.6792 C   0  0  1  0  0  0  0  0  0  0  0  0
   19.7963   -8.0905  -16.0956 C   0  0  0  0  0  0  0  0  0  0  0  0
   19.1089   -6.7953  -16.2675 C   0  0  0  0  0  0  0  0  0  0  0  0
   18.8481   -5.8913  -15.2586 C   0  0  0  0  0  0  0  0  0  0  0  0
   18.2190   -4.8685  -15.8387 N   0  0  0  0  0  0  0  0  0  0  0  0
   18.0932   -5.1249  -17.1539 C   0  0  0  0  0  0  0  0  0  0  0  0
   18.6471   -6.3311  -17.4387 N   0  0  0  0  0  0  0  0  0  0  0  0
   21.2779   -7.0766  -14.4335 C   0  0  0  0  0  0  0  0  0  0  0  0
   21.2095   -7.6479  -13.3170 O   0  0  0  0  0  0  0  0  0  0  0  0
   21.3692   -5.6917  -14.4040 O   0  0  0  0  0  0  0  0  0  0  0  0
  2  1  1  1
  2  4  1  0
  3  2  1  0
  4  5  1  6
  6  7  2  0
  6  4  1  0
  8  6  1  0
  9 15  1  0
  9  8  1  0
  9 10  1  6
 11 12  1  0
 11 10  1  0
 13 14  1  0
 13 12  1  0
 15 17  1  0
 16 15  2  0
 17 18  1  0
 18 25  1  0
 18 19  1  1
 20 19  1  0
 20 21  2  0
 22 21  1  0
 23 22  1  0
 24 23  2  0
 24 20  1  0
 25 26  2  0
 25 27  1  0
M  END
$$$$
