VKH.pdb
     RDKit          3D

 27 27  0  0  1  0  0  0  0  0999 V2000
   15.7691  -12.9289  -16.2657 C   0  0  0  0  0  0  0  0  0  0  0  0
   16.8123  -11.8589  -16.5274 C   0  0  1  0  0  0  0  0  0  0  0  0
   17.1901  -11.2734  -15.1894 C   0  0  0  0  0  0  0  0  0  0  0  0
   17.9785  -12.5246  -17.2116 C   0  0  2  0  0  0  0  0  0  0  0  0
   18.4141  -13.7043  -16.4549 N   0  0  0  0  0  0  0  0  0  0  0  0
   19.1136  -11.6209  -17.4453 C   0  0  0  0  0  0  0  0  0  0  0  0
   20.0772  -11.5478  -16.6280 O   0  0  0  0  0  0  0  0  0  0  0  0
   19.1293  -10.8150  -18.6093 N   0  0  0  0  0  0  0  0  0  0  0  0
   20.1548   -9.7767  -18.8536 C   0  0  1  0  0  0  0  0  0  0  0  0
   20.0921   -9.4361  -20.3327 C   0  0  0  0  0  0  0  0  0  0  0  0
   21.0647   -8.3996  -20.7314 C   0  0  0  0  0  0  0  0  0  0  0  0
   21.9304   -8.9495  -21.8724 C   0  0  0  0  0  0  0  0  0  0  0  0
   22.9549   -7.9669  -22.3454 C   0  0  0  0  0  0  0  0  0  0  0  0
   23.7309   -8.6204  -23.3968 N   0  0  0  0  0  0  0  0  0  0  0  0
   19.9667   -8.6418  -17.9510 C   0  0  0  0  0  0  0  0  0  0  0  0
   18.7970   -8.1793  -17.7971 O   0  0  0  0  0  0  0  0  0  0  0  0
   20.9736   -7.9818  -17.2025 N   0  0  0  0  0  0  0  0  0  0  0  0
   20.6772   -6.8361  -16.3493 C   0  0  1  0  0  0  0  0  0  0  0  0
   21.4206   -7.0739  -15.0279 C   0  0  0  0  0  0  0  0  0  0  0  0
   20.6201   -7.9204  -14.1210 C   0  0  0  0  0  0  0  0  0  0  0  0
   19.3669   -8.4248  -14.4005 C   0  0  0  0  0  0  0  0  0  0  0  0
   19.0081   -9.1272  -13.3252 N   0  0  0  0  0  0  0  0  0  0  0  0
   19.9966   -9.0628  -12.4141 C   0  0  0  0  0  0  0  0  0  0  0  0
   21.0157   -8.3086  -12.8991 N   0  0  0  0  0  0  0  0  0  0  0  0
   21.1758   -5.5729  -16.9444 C   0  0  0  0  0  0  0  0  0  0  0  0
   21.8404   -5.6008  -18.0099 O   0  0  0  0  0  0  0  0  0  0  0  0
   20.9575   -4.3165  -16.3959 O   0  0  0  0  0  0  0  0  0  0  0  0
  2  1  1  1
  2  4  1  0
  3  2  1  0
  4  5  1  1
  6  7  2  0
  6  4  1  0
  8  6  1  0
  9 15  1  0
  9  8  1  0
  9 10  1  6
 11 12  1  0
 11 10  1  0
 13 14  1  0
 13 12  1  0
 15 17  1  0
 16 15  2  0
 17 18  1  0
 18 25  1  0
 18 19  1  1
 20 19  1  0
 20 21  2  0
 22 21  1  0
 23 22  1  0
 24 23  2  0
 24 20  1  0
 25 26  2  0
 25 27  1  0
M  END
$$$$
