VKH.pdb
     RDKit          3D

 27 27  0  0  1  0  0  0  0  0999 V2000
   23.1914  -13.7700  -19.2855 C   0  0  0  0  0  0  0  0  0  0  0  0
   22.2300  -12.7252  -18.7508 C   0  0  1  0  0  0  0  0  0  0  0  0
   22.5934  -11.4148  -19.4040 C   0  0  0  0  0  0  0  0  0  0  0  0
   20.8352  -13.1742  -19.1036 C   0  0  2  0  0  0  0  0  0  0  0  0
   20.7315  -13.4494  -20.5415 N   0  0  0  0  0  0  0  0  0  0  0  0
   19.7926  -12.2249  -18.6895 C   0  0  0  0  0  0  0  0  0  0  0  0
   19.4880  -11.2265  -19.4053 O   0  0  0  0  0  0  0  0  0  0  0  0
   19.1146  -12.4317  -17.4639 N   0  0  0  0  0  0  0  0  0  0  0  0
   18.1908  -11.4349  -16.8787 C   0  0  1  0  0  0  0  0  0  0  0  0
   17.1602  -12.2090  -16.0750 C   0  0  0  0  0  0  0  0  0  0  0  0
   16.1693  -11.3393  -15.4109 C   0  0  0  0  0  0  0  0  0  0  0  0
   15.1319  -12.2232  -14.7066 C   0  0  0  0  0  0  0  0  0  0  0  0
   14.0173  -11.4323  -14.0974 C   0  0  0  0  0  0  0  0  0  0  0  0
   13.0996  -12.3833  -13.4744 N   0  0  0  0  0  0  0  0  0  0  0  0
   18.9309  -10.4254  -16.1229 C   0  0  0  0  0  0  0  0  0  0  0  0
   19.8566  -10.8092  -15.3473 O   0  0  0  0  0  0  0  0  0  0  0  0
   18.7275   -9.0229  -16.1625 N   0  0  0  0  0  0  0  0  0  0  0  0
   19.4831   -8.1076  -15.3142 C   0  0  1  0  0  0  0  0  0  0  0  0
   20.2277   -7.1540  -16.2582 C   0  0  0  0  0  0  0  0  0  0  0  0
   21.0411   -6.1881  -15.4932 C   0  0  0  0  0  0  0  0  0  0  0  0
   21.2302   -6.2113  -14.1269 C   0  0  0  0  0  0  0  0  0  0  0  0
   22.0215   -5.1741  -13.8504 N   0  0  0  0  0  0  0  0  0  0  0  0
   22.3130   -4.5318  -14.9966 C   0  0  0  0  0  0  0  0  0  0  0  0
   21.7047   -5.1566  -16.0370 N   0  0  0  0  0  0  0  0  0  0  0  0
   18.5861   -7.3029  -14.4503 C   0  0  0  0  0  0  0  0  0  0  0  0
   18.8887   -7.1002  -13.2482 O   0  0  0  0  0  0  0  0  0  0  0  0
   17.3949   -6.7358  -14.8821 O   0  0  0  0  0  0  0  0  0  0  0  0
  2  1  1  6
  2  4  1  0
  3  2  1  0
  4  5  1  6
  6  7  2  0
  6  4  1  0
  8  6  1  0
  9 15  1  0
  9  8  1  0
  9 10  1  1
 11 12  1  0
 11 10  1  0
 13 14  1  0
 13 12  1  0
 15 17  1  0
 16 15  2  0
 17 18  1  0
 18 25  1  0
 18 19  1  6
 20 19  1  0
 20 21  2  0
 22 21  1  0
 23 22  1  0
 24 23  2  0
 24 20  1  0
 25 26  2  0
 25 27  1  0
M  END
$$$$
