VKH.pdb
     RDKit          3D

 27 27  0  0  1  0  0  0  0  0999 V2000
   26.6000  -15.2377  -16.0472 C   0  0  0  0  0  0  0  0  0  0  0  0
   26.0507  -16.6517  -16.0701 C   0  0  1  0  0  0  0  0  0  0  0  0
   26.6774  -17.3879  -14.9120 C   0  0  0  0  0  0  0  0  0  0  0  0
   24.5520  -16.5548  -15.9443 C   0  0  2  0  0  0  0  0  0  0  0  0
   23.9534  -17.8932  -15.8800 N   0  0  0  0  0  0  0  0  0  0  0  0
   23.9248  -15.7664  -17.0142 C   0  0  0  0  0  0  0  0  0  0  0  0
   24.1666  -14.5317  -17.1518 O   0  0  0  0  0  0  0  0  0  0  0  0
   23.0311  -16.4016  -17.9100 N   0  0  0  0  0  0  0  0  0  0  0  0
   22.2508  -15.6613  -18.9261 C   0  0  1  0  0  0  0  0  0  0  0  0
   22.0619  -16.6000  -20.1054 C   0  0  0  0  0  0  0  0  0  0  0  0
   23.1767  -16.5495  -21.0718 C   0  0  0  0  0  0  0  0  0  0  0  0
   24.1478  -17.6965  -20.7639 C   0  0  0  0  0  0  0  0  0  0  0  0
   25.3324  -17.7117  -21.6778 C   0  0  0  0  0  0  0  0  0  0  0  0
   26.2075  -18.7954  -21.2370 N   0  0  0  0  0  0  0  0  0  0  0  0
   21.0128  -15.1400  -18.3484 C   0  0  0  0  0  0  0  0  0  0  0  0
   20.4343  -15.8174  -17.4471 O   0  0  0  0  0  0  0  0  0  0  0  0
   20.3678  -13.9244  -18.6891 N   0  0  0  0  0  0  0  0  0  0  0  0
   19.1618  -13.4706  -18.0050 C   0  0  1  0  0  0  0  0  0  0  0  0
   19.5406  -13.2910  -16.5288 C   0  0  0  0  0  0  0  0  0  0  0  0
   18.4179  -12.7097  -15.7663 C   0  0  0  0  0  0  0  0  0  0  0  0
   17.1831  -12.3851  -16.2889 C   0  0  0  0  0  0  0  0  0  0  0  0
   16.4741  -11.8941  -15.2717 N   0  0  0  0  0  0  0  0  0  0  0  0
   17.2354  -11.9123  -14.1621 C   0  0  0  0  0  0  0  0  0  0  0  0
   18.4588  -12.4217  -14.4565 N   0  0  0  0  0  0  0  0  0  0  0  0
   18.6991  -12.1636  -18.5304 C   0  0  0  0  0  0  0  0  0  0  0  0
   19.4842  -11.4400  -19.1921 O   0  0  0  0  0  0  0  0  0  0  0  0
   17.4197  -11.6593  -18.3413 O   0  0  0  0  0  0  0  0  0  0  0  0
  2  1  1  1
  2  4  1  0
  3  2  1  0
  4  5  1  6
  6  7  2  0
  6  4  1  0
  8  6  1  0
  9 15  1  0
  9  8  1  0
  9 10  1  6
 11 12  1  0
 11 10  1  0
 13 14  1  0
 13 12  1  0
 15 17  1  0
 16 15  2  0
 17 18  1  0
 18 25  1  0
 18 19  1  1
 20 19  1  0
 20 21  2  0
 22 21  1  0
 23 22  1  0
 24 23  2  0
 24 20  1  0
 25 26  2  0
 25 27  1  0
M  END
$$$$
