VKH.pdb
     RDKit          3D

 27 27  0  0  1  0  0  0  0  0999 V2000
   19.3556  -15.2294  -16.3054 C   0  0  0  0  0  0  0  0  0  0  0  0
   17.9710  -14.6280  -16.4569 C   0  0  1  0  0  0  0  0  0  0  0  0
   17.3112  -14.6909  -15.1017 C   0  0  0  0  0  0  0  0  0  0  0  0
   18.1457  -13.2125  -16.9442 C   0  0  2  0  0  0  0  0  0  0  0  0
   18.3603  -13.1908  -18.3959 N   0  0  0  0  0  0  0  0  0  0  0  0
   19.2239  -12.4865  -16.2584 C   0  0  0  0  0  0  0  0  0  0  0  0
   19.1149  -12.1337  -15.0478 O   0  0  0  0  0  0  0  0  0  0  0  0
   20.4094  -12.1752  -16.9671 N   0  0  0  0  0  0  0  0  0  0  0  0
   21.5038  -11.3665  -16.3859 C   0  0  1  0  0  0  0  0  0  0  0  0
   22.7914  -11.8309  -17.0446 C   0  0  0  0  0  0  0  0  0  0  0  0
   23.7875  -12.3367  -16.0796 C   0  0  0  0  0  0  0  0  0  0  0  0
   25.0370  -12.7829  -16.8498 C   0  0  0  0  0  0  0  0  0  0  0  0
   26.0803  -13.3825  -15.9606 C   0  0  0  0  0  0  0  0  0  0  0  0
   27.1685  -13.8457  -16.8185 N   0  0  0  0  0  0  0  0  0  0  0  0
   21.2208   -9.9385  -16.5238 C   0  0  0  0  0  0  0  0  0  0  0  0
   20.8654   -9.4996  -17.6581 O   0  0  0  0  0  0  0  0  0  0  0  0
   21.2974   -8.9596  -15.5012 N   0  0  0  0  0  0  0  0  0  0  0  0
   20.9251   -7.5682  -15.7332 C   0  0  1  0  0  0  0  0  0  0  0  0
   19.4281   -7.5690  -16.0712 C   0  0  0  0  0  0  0  0  0  0  0  0
   18.9472   -6.1964  -16.3250 C   0  0  0  0  0  0  0  0  0  0  0  0
   19.6614   -5.2084  -16.9708 C   0  0  0  0  0  0  0  0  0  0  0  0
   18.8684   -4.1362  -16.9867 N   0  0  0  0  0  0  0  0  0  0  0  0
   17.7090   -4.4437  -16.3764 C   0  0  0  0  0  0  0  0  0  0  0  0
   17.7432   -5.7339  -15.9555 N   0  0  0  0  0  0  0  0  0  0  0  0
   21.1289   -6.7422  -14.5189 C   0  0  0  0  0  0  0  0  0  0  0  0
   21.2594   -7.2952  -13.3986 O   0  0  0  0  0  0  0  0  0  0  0  0
   21.1889   -5.3554  -14.5238 O   0  0  0  0  0  0  0  0  0  0  0  0
  2  1  1  1
  2  4  1  0
  3  2  1  0
  4  5  1  6
  6  7  2  0
  6  4  1  0
  8  6  1  0
  9 15  1  0
  9  8  1  0
  9 10  1  6
 11 12  1  0
 11 10  1  0
 13 14  1  0
 13 12  1  0
 15 17  1  0
 16 15  2  0
 17 18  1  0
 18 25  1  0
 18 19  1  1
 20 19  1  0
 20 21  2  0
 22 21  1  0
 23 22  1  0
 24 23  2  0
 24 20  1  0
 25 26  2  0
 25 27  1  0
M  END
$$$$
