VKH.pdb
     RDKit          3D

 27 27  0  0  1  0  0  0  0  0999 V2000
   23.1787  -12.4999  -18.7013 C   0  0  0  0  0  0  0  0  0  0  0  0
   22.8605  -13.8544  -18.0964 C   0  0  1  0  0  0  0  0  0  0  0  0
   21.4666  -14.2209  -18.5420 C   0  0  0  0  0  0  0  0  0  0  0  0
   23.8970  -14.8265  -18.5986 C   0  0  2  0  0  0  0  0  0  0  0  0
   23.9996  -14.7595  -20.0611 N   0  0  0  0  0  0  0  0  0  0  0  0
   23.6586  -16.2109  -18.1669 C   0  0  0  0  0  0  0  0  0  0  0  0
   22.8362  -16.9581  -18.7729 O   0  0  0  0  0  0  0  0  0  0  0  0
   24.3638  -16.7194  -17.0494 N   0  0  0  0  0  0  0  0  0  0  0  0
   24.1060  -18.0601  -16.4790 C   0  0  1  0  0  0  0  0  0  0  0  0
   25.4207  -18.5510  -15.8977 C   0  0  0  0  0  0  0  0  0  0  0  0
   26.2597  -19.2645  -16.8807 C   0  0  0  0  0  0  0  0  0  0  0  0
   27.1713  -18.2480  -17.5801 C   0  0  0  0  0  0  0  0  0  0  0  0
   28.0734  -18.8813  -18.5921 C   0  0  0  0  0  0  0  0  0  0  0  0
   28.9627  -19.7905  -17.8730 N   0  0  0  0  0  0  0  0  0  0  0  0
   22.9923  -18.0138  -15.5326 C   0  0  0  0  0  0  0  0  0  0  0  0
   22.7518  -16.9224  -14.9353 O   0  0  0  0  0  0  0  0  0  0  0  0
   22.1220  -19.0820  -15.1993 N   0  0  0  0  0  0  0  0  0  0  0  0
   20.8446  -18.8590  -14.5307 C   0  0  1  0  0  0  0  0  0  0  0  0
   20.0126  -17.9722  -15.4669 C   0  0  0  0  0  0  0  0  0  0  0  0
   18.6773  -17.7122  -14.8932 C   0  0  0  0  0  0  0  0  0  0  0  0
   18.2522  -18.1211  -13.6461 C   0  0  0  0  0  0  0  0  0  0  0  0
   16.9982  -17.6834  -13.5264 N   0  0  0  0  0  0  0  0  0  0  0  0
   16.6566  -17.0292  -14.6519 C   0  0  0  0  0  0  0  0  0  0  0  0
   17.7005  -17.0387  -15.5197 N   0  0  0  0  0  0  0  0  0  0  0  0
   20.1128  -20.1312  -14.3203 C   0  0  0  0  0  0  0  0  0  0  0  0
   18.9544  -20.1158  -13.8348 O   0  0  0  0  0  0  0  0  0  0  0  0
   20.6266  -21.3832  -14.6294 O   0  0  0  0  0  0  0  0  0  0  0  0
  2  1  1  6
  2  4  1  0
  3  2  1  0
  4  5  1  6
  6  7  2  0
  6  4  1  0
  8  6  1  0
  9 15  1  0
  9  8  1  0
  9 10  1  1
 11 12  1  0
 11 10  1  0
 13 14  1  0
 13 12  1  0
 15 17  1  0
 16 15  2  0
 17 18  1  0
 18 25  1  0
 18 19  1  6
 20 19  1  0
 20 21  2  0
 22 21  1  0
 23 22  1  0
 24 23  2  0
 24 20  1  0
 25 26  2  0
 25 27  1  0
M  END
$$$$
