VKH.pdb
     RDKit          3D

 27 27  0  0  1  0  0  0  0  0999 V2000
   24.3296  -14.0911  -16.4267 C   0  0  0  0  0  0  0  0  0  0  0  0
   23.1919  -15.0938  -16.3820 C   0  0  1  0  0  0  0  0  0  0  0  0
   23.6993  -16.3049  -15.6394 C   0  0  0  0  0  0  0  0  0  0  0  0
   22.0358  -14.4320  -15.6771 C   0  0  2  0  0  0  0  0  0  0  0  0
   20.9052  -15.3604  -15.5593 N   0  0  0  0  0  0  0  0  0  0  0  0
   21.6029  -13.1793  -16.3121 C   0  0  0  0  0  0  0  0  0  0  0  0
   22.3907  -12.1964  -16.4360 O   0  0  0  0  0  0  0  0  0  0  0  0
   20.2767  -13.0698  -16.7955 N   0  0  0  0  0  0  0  0  0  0  0  0
   19.7464  -11.8344  -17.4136 C   0  0  1  0  0  0  0  0  0  0  0  0
   18.3163  -12.1306  -17.8315 C   0  0  0  0  0  0  0  0  0  0  0  0
   17.6337  -10.9667  -18.4305 C   0  0  0  0  0  0  0  0  0  0  0  0
   16.2224  -11.3899  -18.8581 C   0  0  0  0  0  0  0  0  0  0  0  0
   15.4659  -10.2857  -19.5269 C   0  0  0  0  0  0  0  0  0  0  0  0
   14.1902  -10.8409  -19.9729 N   0  0  0  0  0  0  0  0  0  0  0  0
   19.9013  -10.6961  -16.5090 C   0  0  0  0  0  0  0  0  0  0  0  0
   19.5884  -10.8457  -15.2902 O   0  0  0  0  0  0  0  0  0  0  0  0
   20.3799   -9.4057  -16.8492 N   0  0  0  0  0  0  0  0  0  0  0  0
   20.4501   -8.3245  -15.8722 C   0  0  1  0  0  0  0  0  0  0  0  0
   21.9310   -7.9400  -15.7545 C   0  0  0  0  0  0  0  0  0  0  0  0
   22.0988   -6.7604  -14.8827 C   0  0  0  0  0  0  0  0  0  0  0  0
   22.0862   -6.7806  -13.5033 C   0  0  0  0  0  0  0  0  0  0  0  0
   22.2696   -5.5170  -13.1183 N   0  0  0  0  0  0  0  0  0  0  0  0
   22.3912   -4.7424  -14.2121 C   0  0  0  0  0  0  0  0  0  0  0  0
   22.2862   -5.5086  -15.3278 N   0  0  0  0  0  0  0  0  0  0  0  0
   19.6932   -7.1331  -16.3261 C   0  0  0  0  0  0  0  0  0  0  0  0
   19.5429   -6.9155  -17.5540 O   0  0  0  0  0  0  0  0  0  0  0  0
   19.1169   -6.2058  -15.4687 O   0  0  0  0  0  0  0  0  0  0  0  0
  2  1  1  1
  2  4  1  0
  3  2  1  0
  4  5  1  6
  6  7  2  0
  6  4  1  0
  8  6  1  0
  9 15  1  0
  9  8  1  0
  9 10  1  1
 11 12  1  0
 11 10  1  0
 13 14  1  0
 13 12  1  0
 15 17  1  0
 16 15  2  0
 17 18  1  0
 18 25  1  0
 18 19  1  6
 20 19  1  0
 20 21  2  0
 22 21  1  0
 23 22  1  0
 24 23  2  0
 24 20  1  0
 25 26  2  0
 25 27  1  0
M  END
$$$$
