VKH.pdb
     RDKit          3D

 27 27  0  0  1  0  0  0  0  0999 V2000
   18.7366  -13.6125  -23.0089 C   0  0  0  0  0  0  0  0  0  0  0  0
   18.3818  -13.2816  -21.5714 C   0  0  1  0  0  0  0  0  0  0  0  0
   18.1796  -14.5928  -20.8532 C   0  0  0  0  0  0  0  0  0  0  0  0
   19.5247  -12.4840  -20.9976 C   0  0  2  0  0  0  0  0  0  0  0  0
   20.7942  -13.1962  -21.1846 N   0  0  0  0  0  0  0  0  0  0  0  0
   19.3406  -12.1326  -19.5826 C   0  0  0  0  0  0  0  0  0  0  0  0
   18.3047  -11.5247  -19.1836 O   0  0  0  0  0  0  0  0  0  0  0  0
   20.3435  -12.4815  -18.6460 N   0  0  0  0  0  0  0  0  0  0  0  0
   20.2358  -12.1754  -17.2023 C   0  0  1  0  0  0  0  0  0  0  0  0
   20.7269  -13.4031  -16.4546 C   0  0  0  0  0  0  0  0  0  0  0  0
   19.7138  -14.4732  -16.3670 C   0  0  0  0  0  0  0  0  0  0  0  0
   20.2686  -15.6062  -15.4940 C   0  0  0  0  0  0  0  0  0  0  0  0
   19.3098  -16.7456  -15.3480 C   0  0  0  0  0  0  0  0  0  0  0  0
   19.9821  -17.7822  -14.5682 N   0  0  0  0  0  0  0  0  0  0  0  0
   20.9416  -10.9353  -16.8828 C   0  0  0  0  0  0  0  0  0  0  0  0
   22.0841  -10.7408  -17.3953 O   0  0  0  0  0  0  0  0  0  0  0  0
   20.4782   -9.8921  -16.0422 N   0  0  0  0  0  0  0  0  0  0  0  0
   21.2896   -8.7150  -15.7515 C   0  0  1  0  0  0  0  0  0  0  0  0
   20.7769   -7.5961  -16.6682 C   0  0  0  0  0  0  0  0  0  0  0  0
   21.3910   -7.6927  -18.0073 C   0  0  0  0  0  0  0  0  0  0  0  0
   22.2939   -8.6580  -18.4023 C   0  0  0  0  0  0  0  0  0  0  0  0
   22.5922   -8.3808  -19.6722 N   0  0  0  0  0  0  0  0  0  0  0  0
   21.9038   -7.2886  -20.0522 C   0  0  0  0  0  0  0  0  0  0  0  0
   21.1449   -6.8449  -19.0177 N   0  0  0  0  0  0  0  0  0  0  0  0
   21.1261   -8.2771  -14.3444 C   0  0  0  0  0  0  0  0  0  0  0  0
   20.3301   -8.8853  -13.5866 O   0  0  0  0  0  0  0  0  0  0  0  0
   21.8088   -7.2089  -13.7789 O   0  0  0  0  0  0  0  0  0  0  0  0
  2  1  1  6
  2  4  1  0
  3  2  1  0
  4  5  1  1
  6  7  2  0
  6  4  1  0
  8  6  1  0
  9 15  1  0
  9  8  1  0
  9 10  1  1
 11 12  1  0
 11 10  1  0
 13 14  1  0
 13 12  1  0
 15 17  1  0
 16 15  2  0
 17 18  1  0
 18 25  1  0
 18 19  1  6
 20 19  1  0
 20 21  2  0
 22 21  1  0
 23 22  1  0
 24 23  2  0
 24 20  1  0
 25 26  2  0
 25 27  1  0
M  END
$$$$
