VKH.pdb
     RDKit          3D

 27 27  0  0  1  0  0  0  0  0999 V2000
   35.7675  -35.8873  -15.8719 C   0  0  0  0  0  0  0  0  0  0  0  0
   34.6945  -34.8387  -16.0972 C   0  0  1  0  0  0  0  0  0  0  0  0
   33.4182  -35.3772  -15.4998 C   0  0  0  0  0  0  0  0  0  0  0  0
   35.1537  -33.5721  -15.4220 C   0  0  2  0  0  0  0  0  0  0  0  0
   35.5123  -33.8353  -14.0234 N   0  0  0  0  0  0  0  0  0  0  0  0
   34.1744  -32.4791  -15.5003 C   0  0  0  0  0  0  0  0  0  0  0  0
   33.3703  -32.2450  -14.5513 O   0  0  0  0  0  0  0  0  0  0  0  0
   34.1297  -31.6709  -16.6620 N   0  0  0  0  0  0  0  0  0  0  0  0
   33.1102  -30.6188  -16.8698 C   0  0  1  0  0  0  0  0  0  0  0  0
   33.6278  -29.7175  -17.9776 C   0  0  0  0  0  0  0  0  0  0  0  0
   32.7011  -28.6182  -18.3122 C   0  0  0  0  0  0  0  0  0  0  0  0
   33.2628  -27.8495  -19.5152 C   0  0  0  0  0  0  0  0  0  0  0  0
   32.3428  -26.7700  -19.9918 C   0  0  0  0  0  0  0  0  0  0  0  0
   33.0363  -26.0458  -21.0544 N   0  0  0  0  0  0  0  0  0  0  0  0
   31.7979  -31.2130  -17.1207 C   0  0  0  0  0  0  0  0  0  0  0  0
   31.7409  -32.3020  -17.7661 O   0  0  0  0  0  0  0  0  0  0  0  0
   30.5438  -30.6961  -16.7087 N   0  0  0  0  0  0  0  0  0  0  0  0
   29.3527  -31.5341  -16.6218 C   0  0  1  0  0  0  0  0  0  0  0  0
   28.8619  -31.4433  -15.1706 C   0  0  0  0  0  0  0  0  0  0  0  0
   27.6777  -32.3003  -14.9631 C   0  0  0  0  0  0  0  0  0  0  0  0
   27.1186  -33.1307  -15.9123 C   0  0  0  0  0  0  0  0  0  0  0  0
   26.0781  -33.7159  -15.3178 N   0  0  0  0  0  0  0  0  0  0  0  0
   25.9928  -33.2686  -14.0514 C   0  0  0  0  0  0  0  0  0  0  0  0
   26.9903  -32.3790  -13.8135 N   0  0  0  0  0  0  0  0  0  0  0  0
   28.2746  -31.0387  -17.5109 C   0  0  0  0  0  0  0  0  0  0  0  0
   28.1729  -29.8095  -17.7490 O   0  0  0  0  0  0  0  0  0  0  0  0
   27.3349  -31.8569  -18.1228 O   0  0  0  0  0  0  0  0  0  0  0  0
  2  1  1  1
  2  4  1  0
  3  2  1  0
  4  5  1  1
  6  7  2  0
  6  4  1  0
  8  6  1  0
  9 15  1  0
  9  8  1  0
  9 10  1  6
 11 12  1  0
 11 10  1  0
 13 14  1  0
 13 12  1  0
 15 17  1  0
 16 15  2  0
 17 18  1  0
 18 25  1  0
 18 19  1  1
 20 19  1  0
 20 21  2  0
 22 21  1  0
 23 22  1  0
 24 23  2  0
 24 20  1  0
 25 26  2  0
 25 27  1  0
M  END
$$$$
