VKH.pdb
     RDKit          3D

 27 27  0  0  1  0  0  0  0  0999 V2000
   23.7784  -22.3819  -14.9008 C   0  0  0  0  0  0  0  0  0  0  0  0
   24.2708  -22.3466  -13.4662 C   0  0  1  0  0  0  0  0  0  0  0  0
   24.6348  -23.7612  -13.0891 C   0  0  0  0  0  0  0  0  0  0  0  0
   25.4567  -21.4177  -13.4198 C   0  0  2  0  0  0  0  0  0  0  0  0
   26.0681  -21.4299  -12.0857 N   0  0  0  0  0  0  0  0  0  0  0  0
   25.1374  -20.0406  -13.8219 C   0  0  0  0  0  0  0  0  0  0  0  0
   24.5966  -19.2274  -13.0170 O   0  0  0  0  0  0  0  0  0  0  0  0
   25.4414  -19.6150  -15.1376 N   0  0  0  0  0  0  0  0  0  0  0  0
   25.2559  -18.2196  -15.5934 C   0  0  1  0  0  0  0  0  0  0  0  0
   26.3260  -17.9521  -16.6378 C   0  0  0  0  0  0  0  0  0  0  0  0
   26.2540  -16.5922  -17.2077 C   0  0  0  0  0  0  0  0  0  0  0  0
   27.4301  -16.4002  -18.1739 C   0  0  0  0  0  0  0  0  0  0  0  0
   27.3994  -15.0735  -18.8650 C   0  0  0  0  0  0  0  0  0  0  0  0
   28.5716  -15.0093  -19.7347 N   0  0  0  0  0  0  0  0  0  0  0  0
   23.8831  -18.0022  -16.0474 C   0  0  0  0  0  0  0  0  0  0  0  0
   23.3502  -18.8720  -16.7992 O   0  0  0  0  0  0  0  0  0  0  0  0
   23.0532  -16.8975  -15.7299 N   0  0  0  0  0  0  0  0  0  0  0  0
   21.6738  -16.8072  -16.1963 C   0  0  1  0  0  0  0  0  0  0  0  0
   20.8016  -16.6389  -14.9450 C   0  0  0  0  0  0  0  0  0  0  0  0
   20.0649  -17.8835  -14.6481 C   0  0  0  0  0  0  0  0  0  0  0  0
   20.1897  -19.0686  -15.3433 C   0  0  0  0  0  0  0  0  0  0  0  0
   19.3564  -19.9268  -14.7538 N   0  0  0  0  0  0  0  0  0  0  0  0
   18.7385  -19.3024  -13.7342 C   0  0  0  0  0  0  0  0  0  0  0  0
   19.1729  -18.0186  -13.6551 N   0  0  0  0  0  0  0  0  0  0  0  0
   21.4721  -15.6250  -17.0682 C   0  0  0  0  0  0  0  0  0  0  0  0
   22.2514  -14.6434  -16.9844 O   0  0  0  0  0  0  0  0  0  0  0  0
   20.4524  -15.5144  -18.0035 O   0  0  0  0  0  0  0  0  0  0  0  0
  2  1  1  6
  2  4  1  0
  3  2  1  0
  4  5  1  1
  6  7  2  0
  6  4  1  0
  8  6  1  0
  9 15  1  0
  9  8  1  0
  9 10  1  6
 11 12  1  0
 11 10  1  0
 13 14  1  0
 13 12  1  0
 15 17  1  0
 16 15  2  0
 17 18  1  0
 18 25  1  0
 18 19  1  1
 20 19  1  0
 20 21  2  0
 22 21  1  0
 23 22  1  0
 24 23  2  0
 24 20  1  0
 25 26  2  0
 25 27  1  0
M  END
$$$$
