VKH.pdb
     RDKit          3D

 27 27  0  0  1  0  0  0  0  0999 V2000
   26.8703  -20.7247   -8.0027 C   0  0  0  0  0  0  0  0  0  0  0  0
   27.1759  -20.2349   -9.4057 C   0  0  1  0  0  0  0  0  0  0  0  0
   28.3858  -20.9973   -9.8861 C   0  0  0  0  0  0  0  0  0  0  0  0
   25.9572  -20.5017  -10.2513 C   0  0  2  0  0  0  0  0  0  0  0  0
   25.6617  -21.9388  -10.2893 N   0  0  0  0  0  0  0  0  0  0  0  0
   26.0633  -19.9666  -11.6160 C   0  0  0  0  0  0  0  0  0  0  0  0
   26.1487  -18.7224  -11.8315 O   0  0  0  0  0  0  0  0  0  0  0  0
   26.0702  -20.8621  -12.7126 N   0  0  0  0  0  0  0  0  0  0  0  0
   26.1112  -20.4080  -14.1203 C   0  0  1  0  0  0  0  0  0  0  0  0
   27.2626  -21.1419  -14.7859 C   0  0  0  0  0  0  0  0  0  0  0  0
   27.4728  -20.7397  -16.1906 C   0  0  0  0  0  0  0  0  0  0  0  0
   28.6657  -21.5229  -16.7539 C   0  0  0  0  0  0  0  0  0  0  0  0
   29.0292  -21.1019  -18.1430 C   0  0  0  0  0  0  0  0  0  0  0  0
   30.3255  -21.7001  -18.4531 N   0  0  0  0  0  0  0  0  0  0  0  0
   24.8098  -20.5922  -14.7610 C   0  0  0  0  0  0  0  0  0  0  0  0
   24.3633  -21.7706  -14.8947 O   0  0  0  0  0  0  0  0  0  0  0  0
   23.9627  -19.5717  -15.2618 N   0  0  0  0  0  0  0  0  0  0  0  0
   22.5819  -19.8352  -15.6523 C   0  0  1  0  0  0  0  0  0  0  0  0
   21.6957  -19.0714  -14.6591 C   0  0  0  0  0  0  0  0  0  0  0  0
   21.0560  -19.9997  -13.7058 C   0  0  0  0  0  0  0  0  0  0  0  0
   21.2038  -21.3713  -13.7080 C   0  0  0  0  0  0  0  0  0  0  0  0
   20.4647  -21.8196  -12.6925 N   0  0  0  0  0  0  0  0  0  0  0  0
   19.8810  -20.7710  -12.0834 C   0  0  0  0  0  0  0  0  0  0  0  0
   20.2426  -19.6213  -12.7081 N   0  0  0  0  0  0  0  0  0  0  0  0
   22.2977  -19.3287  -17.0165 C   0  0  0  0  0  0  0  0  0  0  0  0
   22.9795  -18.3863  -17.4905 O   0  0  0  0  0  0  0  0  0  0  0  0
   21.3007  -19.8330  -17.8404 O   0  0  0  0  0  0  0  0  0  0  0  0
  2  1  1  1
  2  4  1  0
  3  2  1  0
  4  5  1  6
  6  7  2  0
  6  4  1  0
  8  6  1  0
  9 15  1  0
  9  8  1  0
  9 10  1  6
 11 12  1  0
 11 10  1  0
 13 14  1  0
 13 12  1  0
 15 17  1  0
 16 15  2  0
 17 18  1  0
 18 25  1  0
 18 19  1  1
 20 19  1  0
 20 21  2  0
 22 21  1  0
 23 22  1  0
 24 23  2  0
 24 20  1  0
 25 26  2  0
 25 27  1  0
M  END
$$$$
