VKH.pdb
     RDKit          3D

 27 27  0  0  1  0  0  0  0  0999 V2000
   24.2036  -21.2872   -8.3297 C   0  0  0  0  0  0  0  0  0  0  0  0
   25.2543  -20.3839   -7.7116 C   0  0  1  0  0  0  0  0  0  0  0  0
   25.6181  -20.9800   -6.3744 C   0  0  0  0  0  0  0  0  0  0  0  0
   26.4260  -20.3424   -8.6586 C   0  0  2  0  0  0  0  0  0  0  0  0
   27.4772  -19.4603   -8.1383 N   0  0  0  0  0  0  0  0  0  0  0  0
   26.0595  -19.9477  -10.0260 C   0  0  0  0  0  0  0  0  0  0  0  0
   25.6825  -18.7695  -10.2934 O   0  0  0  0  0  0  0  0  0  0  0  0
   26.1298  -20.9059  -11.0660 N   0  0  0  0  0  0  0  0  0  0  0  0
   25.7342  -20.6084  -12.4604 C   0  0  1  0  0  0  0  0  0  0  0  0
   26.7504  -21.2896  -13.3608 C   0  0  0  0  0  0  0  0  0  0  0  0
   26.4925  -21.0697  -14.7976 C   0  0  0  0  0  0  0  0  0  0  0  0
   27.5305  -21.8548  -15.6100 C   0  0  0  0  0  0  0  0  0  0  0  0
   27.3837  -21.6514  -17.0851 C   0  0  0  0  0  0  0  0  0  0  0  0
   28.4895  -22.3531  -17.7327 N   0  0  0  0  0  0  0  0  0  0  0  0
   24.3439  -20.9947  -12.6970 C   0  0  0  0  0  0  0  0  0  0  0  0
   23.9170  -22.0667  -12.1732 O   0  0  0  0  0  0  0  0  0  0  0  0
   23.3886  -20.2833  -13.4658 N   0  0  0  0  0  0  0  0  0  0  0  0
   22.0152  -20.7514  -13.6183 C   0  0  1  0  0  0  0  0  0  0  0  0
   21.1167  -19.6728  -12.9982 C   0  0  0  0  0  0  0  0  0  0  0  0
   19.6909  -20.0124  -13.1761 C   0  0  0  0  0  0  0  0  0  0  0  0
   19.1139  -21.2235  -12.8543 C   0  0  0  0  0  0  0  0  0  0  0  0
   17.8235  -21.1083  -13.1704 N   0  0  0  0  0  0  0  0  0  0  0  0
   17.6059  -19.8770  -13.6682 C   0  0  0  0  0  0  0  0  0  0  0  0
   18.7690  -19.1769  -13.6782 N   0  0  0  0  0  0  0  0  0  0  0  0
   21.6481  -20.8998  -15.0471 C   0  0  0  0  0  0  0  0  0  0  0  0
   21.0549  -21.9357  -15.4381 O   0  0  0  0  0  0  0  0  0  0  0  0
   21.9186  -19.9488  -16.0216 O   0  0  0  0  0  0  0  0  0  0  0  0
  2  1  1  6
  2  4  1  0
  3  2  1  0
  4  5  1  1
  6  7  2  0
  6  4  1  0
  8  6  1  0
  9 15  1  0
  9  8  1  0
  9 10  1  6
 11 12  1  0
 11 10  1  0
 13 14  1  0
 13 12  1  0
 15 17  1  0
 16 15  2  0
 17 18  1  0
 18 25  1  0
 18 19  1  6
 20 19  1  0
 20 21  2  0
 22 21  1  0
 23 22  1  0
 24 23  2  0
 24 20  1  0
 25 26  2  0
 25 27  1  0
M  END
$$$$
