VKH.pdb
     RDKit          3D

 27 27  0  0  1  0  0  0  0  0999 V2000
   17.8480  -11.0681  -11.4456 C   0  0  0  0  0  0  0  0  0  0  0  0
   16.4337  -11.6171  -11.4331 C   0  0  1  0  0  0  0  0  0  0  0  0
   16.5269  -13.0693  -11.0352 C   0  0  0  0  0  0  0  0  0  0  0  0
   15.6426  -10.8012  -10.4432 C   0  0  2  0  0  0  0  0  0  0  0  0
   14.3458  -11.4336  -10.1747 N   0  0  0  0  0  0  0  0  0  0  0  0
   15.4527   -9.4036  -10.8560 C   0  0  0  0  0  0  0  0  0  0  0  0
   14.7635   -9.1049  -11.8747 O   0  0  0  0  0  0  0  0  0  0  0  0
   16.0535   -8.3695  -10.0981 N   0  0  0  0  0  0  0  0  0  0  0  0
   15.8909   -6.9356  -10.4250 C   0  0  1  0  0  0  0  0  0  0  0  0
   15.2388   -6.2809   -9.2194 C   0  0  0  0  0  0  0  0  0  0  0  0
   14.9831   -4.8394   -9.4091 C   0  0  0  0  0  0  0  0  0  0  0  0
   13.9045   -4.3953   -8.4126 C   0  0  0  0  0  0  0  0  0  0  0  0
   14.3483   -4.5165   -6.9888 C   0  0  0  0  0  0  0  0  0  0  0  0
   13.2530   -4.0358   -6.1498 N   0  0  0  0  0  0  0  0  0  0  0  0
   17.1681   -6.3496  -10.8295 C   0  0  0  0  0  0  0  0  0  0  0  0
   18.0936   -6.2640   -9.9681 O   0  0  0  0  0  0  0  0  0  0  0  0
   17.5008   -5.8544  -12.1155 N   0  0  0  0  0  0  0  0  0  0  0  0
   18.7681   -5.1825  -12.3814 C   0  0  1  0  0  0  0  0  0  0  0  0
   19.3443   -5.8265  -13.6496 C   0  0  0  0  0  0  0  0  0  0  0  0
   19.8729   -7.1741  -13.3595 C   0  0  0  0  0  0  0  0  0  0  0  0
   19.9923   -7.7298  -12.1025 C   0  0  0  0  0  0  0  0  0  0  0  0
   20.5080   -8.9455  -12.2885 N   0  0  0  0  0  0  0  0  0  0  0  0
   20.7017   -9.1388  -13.6062 C   0  0  0  0  0  0  0  0  0  0  0  0
   20.3077   -8.0354  -14.2919 N   0  0  0  0  0  0  0  0  0  0  0  0
   18.5714   -3.7359  -12.6407 C   0  0  0  0  0  0  0  0  0  0  0  0
   19.5664   -2.9871  -12.8058 O   0  0  0  0  0  0  0  0  0  0  0  0
   17.3286   -3.1225  -12.7180 O   0  0  0  0  0  0  0  0  0  0  0  0
  2  1  1  1
  2  4  1  0
  3  2  1  0
  4  5  1  6
  6  7  2  0
  6  4  1  0
  8  6  1  0
  9 15  1  0
  9  8  1  0
  9 10  1  1
 11 12  1  0
 11 10  1  0
 13 14  1  0
 13 12  1  0
 15 17  1  0
 16 15  2  0
 17 18  1  0
 18 25  1  0
 18 19  1  6
 20 19  1  0
 20 21  2  0
 22 21  1  0
 23 22  1  0
 24 23  2  0
 24 20  1  0
 25 26  2  0
 25 27  1  0
M  END
$$$$
