VKH.pdb
     RDKit          3D

 27 27  0  0  1  0  0  0  0  0999 V2000
   21.5482  -18.8891  -14.2132 C   0  0  0  0  0  0  0  0  0  0  0  0
   22.8411  -19.2272  -14.9314 C   0  0  1  0  0  0  0  0  0  0  0  0
   22.7927  -20.6989  -15.2592 C   0  0  0  0  0  0  0  0  0  0  0  0
   22.9083  -18.3666  -16.1669 C   0  0  2  0  0  0  0  0  0  0  0  0
   23.8518  -18.9330  -17.1379 N   0  0  0  0  0  0  0  0  0  0  0  0
   23.2463  -16.9643  -15.8855 C   0  0  0  0  0  0  0  0  0  0  0  0
   22.5354  -16.2569  -15.1134 O   0  0  0  0  0  0  0  0  0  0  0  0
   24.3914  -16.3928  -16.4912 N   0  0  0  0  0  0  0  0  0  0  0  0
   24.7496  -14.9647  -16.3441 C   0  0  1  0  0  0  0  0  0  0  0  0
   26.2158  -14.8380  -16.7204 C   0  0  0  0  0  0  0  0  0  0  0  0
   26.7072  -13.4466  -16.6806 C   0  0  0  0  0  0  0  0  0  0  0  0
   28.2131  -13.4475  -16.9737 C   0  0  0  0  0  0  0  0  0  0  0  0
   28.8171  -12.0807  -16.8989 C   0  0  0  0  0  0  0  0  0  0  0  0
   30.2676  -12.2422  -16.9673 N   0  0  0  0  0  0  0  0  0  0  0  0
   23.8393  -14.1211  -17.1173 C   0  0  0  0  0  0  0  0  0  0  0  0
   23.4105  -14.5543  -18.2282 O   0  0  0  0  0  0  0  0  0  0  0  0
   23.3640  -12.8360  -16.7533 N   0  0  0  0  0  0  0  0  0  0  0  0
   22.0540  -12.3489  -17.1715 C   0  0  1  0  0  0  0  0  0  0  0  0
   21.0193  -13.3011  -16.5570 C   0  0  0  0  0  0  0  0  0  0  0  0
   19.6466  -12.8327  -16.8332 C   0  0  0  0  0  0  0  0  0  0  0  0
   19.3186  -11.7351  -17.6019 C   0  0  0  0  0  0  0  0  0  0  0  0
   17.9867  -11.6686  -17.5932 N   0  0  0  0  0  0  0  0  0  0  0  0
   17.5055  -12.6823  -16.8503 C   0  0  0  0  0  0  0  0  0  0  0  0
   18.5355  -13.4222  -16.3662 N   0  0  0  0  0  0  0  0  0  0  0  0
   21.7938  -10.9825  -16.6579 C   0  0  0  0  0  0  0  0  0  0  0  0
   22.4592  -10.5391  -15.6892 O   0  0  0  0  0  0  0  0  0  0  0  0
   20.8375  -10.1242  -17.1832 O   0  0  0  0  0  0  0  0  0  0  0  0
  2  1  1  6
  2  4  1  0
  3  2  1  0
  4  5  1  6
  6  7  2  0
  6  4  1  0
  8  6  1  0
  9 15  1  0
  9  8  1  0
  9 10  1  6
 11 12  1  0
 11 10  1  0
 13 14  1  0
 13 12  1  0
 15 17  1  0
 16 15  2  0
 17 18  1  0
 18 25  1  0
 18 19  1  1
 20 19  1  0
 20 21  2  0
 22 21  1  0
 23 22  1  0
 24 23  2  0
 24 20  1  0
 25 26  2  0
 25 27  1  0
M  END
$$$$
