FFS.pdb
     RDKit          3D

 29 30  0  0  1  0  0  0  0  0999 V2000
   26.9844  -19.9907  -17.1194 N   0  0  0  0  0  0  0  0  0  0  0  0
   27.0198  -19.7524  -15.6899 C   0  0  1  0  0  0  0  0  0  0  0  0
   26.8973  -18.3051  -15.3505 C   0  0  0  0  0  0  0  0  0  0  0  0
   27.9815  -17.5532  -16.0504 C   0  0  0  0  0  0  0  0  0  0  0  0
   29.2954  -17.8963  -15.9728 C   0  0  0  0  0  0  0  0  0  0  0  0
   30.2247  -17.1339  -16.6545 C   0  0  0  0  0  0  0  0  0  0  0  0
   29.8246  -16.0475  -17.3981 C   0  0  0  0  0  0  0  0  0  0  0  0
   28.4956  -15.6958  -17.4802 C   0  0  0  0  0  0  0  0  0  0  0  0
   27.5757  -16.4502  -16.8055 C   0  0  0  0  0  0  0  0  0  0  0  0
   25.9045  -20.5064  -15.0675 C   0  0  0  0  0  0  0  0  0  0  0  0
   24.9091  -20.8667  -15.7754 O   0  0  0  0  0  0  0  0  0  0  0  0
   25.8866  -20.8538  -13.7019 N   0  0  0  0  0  0  0  0  0  0  0  0
   24.8209  -21.6996  -13.1944 C   0  0  1  0  0  0  0  0  0  0  0  0
   25.3840  -22.4168  -11.9924 C   0  0  0  0  0  0  0  0  0  0  0  0
   25.7202  -21.4418  -10.9420 C   0  0  0  0  0  0  0  0  0  0  0  0
   26.9806  -20.9407  -10.8340 C   0  0  0  0  0  0  0  0  0  0  0  0
   27.2917  -20.0214   -9.8519 C   0  0  0  0  0  0  0  0  0  0  0  0
   26.2997  -19.6253   -8.9870 C   0  0  0  0  0  0  0  0  0  0  0  0
   25.0102  -20.1087   -9.0618 C   0  0  0  0  0  0  0  0  0  0  0  0
   24.7461  -21.0265  -10.0609 C   0  0  0  0  0  0  0  0  0  0  0  0
   23.6756  -20.8429  -12.8530 C   0  0  0  0  0  0  0  0  0  0  0  0
   23.8273  -19.7206  -12.3132 O   0  0  0  0  0  0  0  0  0  0  0  0
   20.7518  -20.4250  -15.0731 O   0  0  0  0  0  0  0  0  0  0  0  0
   20.7652  -19.6034  -13.9407 C   0  0  0  0  0  0  0  0  0  0  0  0
   21.2303  -20.4557  -12.7850 C   0  0  2  0  0  0  0  0  0  0  0  0
   22.3631  -21.2853  -13.1359 N   0  0  0  0  0  0  0  0  0  0  0  0
   20.0910  -21.3241  -12.3923 C   0  0  0  0  0  0  0  0  0  0  0  0
   20.1907  -22.5739  -12.4831 O   0  0  0  0  0  0  0  0  0  0  0  0
   18.8862  -20.8279  -11.9169 O   0  0  0  0  0  0  0  0  0  0  0  0
  2 10  1  0
  2  1  1  6
  2  3  1  0
  4  3  1  0
  4  9  1  0
  5  4  2  0
  6  5  1  0
  6  7  2  0
  7  8  1  0
  8  9  2  0
 10 11  2  0
 12 13  1  0
 12 10  1  0
 13 21  1  0
 14 15  1  0
 13 14  1  1
 15 16  2  0
 16 17  1  0
 18 17  2  0
 19 18  1  0
 20 15  1  0
 20 19  2  0
 21 22  2  0
 21 26  1  0
 25 24  1  6
 24 23  1  0
 25 27  1  0
 26 25  1  0
 27 28  2  0
 27 29  1  0
M  END
$$$$
