FFS.pdb
     RDKit          3D

 29 30  0  0  1  0  0  0  0  0999 V2000
   23.4064  -14.3222  -17.2149 N   0  0  0  0  0  0  0  0  0  0  0  0
   22.7044  -15.1178  -16.2273 C   0  0  1  0  0  0  0  0  0  0  0  0
   21.2336  -15.1615  -16.4720 C   0  0  0  0  0  0  0  0  0  0  0  0
   20.5764  -15.8647  -15.3300 C   0  0  0  0  0  0  0  0  0  0  0  0
   20.1999  -17.1709  -15.3770 C   0  0  0  0  0  0  0  0  0  0  0  0
   19.5944  -17.7304  -14.2679 C   0  0  0  0  0  0  0  0  0  0  0  0
   19.3778  -16.9766  -13.1373 C   0  0  0  0  0  0  0  0  0  0  0  0
   19.7572  -15.6538  -13.0843 C   0  0  0  0  0  0  0  0  0  0  0  0
   20.3564  -15.0998  -14.1819 C   0  0  0  0  0  0  0  0  0  0  0  0
   23.2568  -16.4938  -16.2642 C   0  0  0  0  0  0  0  0  0  0  0  0
   23.4164  -17.0838  -17.3814 O   0  0  0  0  0  0  0  0  0  0  0  0
   23.6233  -17.2005  -15.1014 N   0  0  0  0  0  0  0  0  0  0  0  0
   24.3256  -18.4653  -15.2264 C   0  0  1  0  0  0  0  0  0  0  0  0
   25.6048  -18.3202  -14.4397 C   0  0  0  0  0  0  0  0  0  0  0  0
   26.4613  -17.2988  -15.0642 C   0  0  0  0  0  0  0  0  0  0  0  0
   26.5308  -16.0399  -14.5525 C   0  0  0  0  0  0  0  0  0  0  0  0
   27.3401  -15.0856  -15.1365 C   0  0  0  0  0  0  0  0  0  0  0  0
   28.0724  -15.4367  -16.2452 C   0  0  0  0  0  0  0  0  0  0  0  0
   28.0305  -16.7007  -16.7953 C   0  0  0  0  0  0  0  0  0  0  0  0
   27.2067  -17.6222  -16.1767 C   0  0  0  0  0  0  0  0  0  0  0  0
   23.4577  -19.5284  -14.6981 C   0  0  0  0  0  0  0  0  0  0  0  0
   23.8385  -20.7220  -14.6346 O   0  0  0  0  0  0  0  0  0  0  0  0
   20.8031  -19.3726  -11.6526 O   0  0  0  0  0  0  0  0  0  0  0  0
   20.1947  -19.7231  -12.8628 C   0  0  0  0  0  0  0  0  0  0  0  0
   21.2827  -20.2559  -13.7633 C   0  0  2  0  0  0  0  0  0  0  0  0
   22.1567  -19.2086  -14.2468 N   0  0  0  0  0  0  0  0  0  0  0  0
   20.6165  -20.9093  -14.9191 C   0  0  0  0  0  0  0  0  0  0  0  0
   20.1628  -20.2123  -15.8616 O   0  0  0  0  0  0  0  0  0  0  0  0
   20.4584  -22.2830  -15.0276 O   0  0  0  0  0  0  0  0  0  0  0  0
  2 10  1  0
  2  1  1  6
  2  3  1  0
  4  3  1  0
  4  9  1  0
  5  4  2  0
  6  5  1  0
  6  7  2  0
  7  8  1  0
  8  9  2  0
 10 11  2  0
 12 13  1  0
 12 10  1  0
 13 21  1  0
 14 15  1  0
 13 14  1  1
 15 16  2  0
 16 17  1  0
 18 17  2  0
 19 18  1  0
 20 15  1  0
 20 19  2  0
 21 22  2  0
 21 26  1  0
 25 24  1  1
 24 23  1  0
 25 27  1  0
 26 25  1  0
 27 28  2  0
 27 29  1  0
M  END
$$$$
