FFS.pdb
     RDKit          3D

 29 30  0  0  1  0  0  0  0  0999 V2000
   25.2255   -7.9258  -20.7098 N   0  0  0  0  0  0  0  0  0  0  0  0
   24.2750   -8.9702  -20.3825 C   0  0  1  0  0  0  0  0  0  0  0  0
   24.9307  -10.2953  -20.1843 C   0  0  0  0  0  0  0  0  0  0  0  0
   25.2780  -10.8650  -21.5205 C   0  0  0  0  0  0  0  0  0  0  0  0
   24.5352  -10.6473  -22.6389 C   0  0  0  0  0  0  0  0  0  0  0  0
   24.9380  -11.2225  -23.8291 C   0  0  0  0  0  0  0  0  0  0  0  0
   26.0713  -12.0013  -23.8785 C   0  0  0  0  0  0  0  0  0  0  0  0
   26.8271  -12.2249  -22.7492 C   0  0  0  0  0  0  0  0  0  0  0  0
   26.4286  -11.6557  -21.5712 C   0  0  0  0  0  0  0  0  0  0  0  0
   23.5632   -8.5760  -19.1424 C   0  0  0  0  0  0  0  0  0  0  0  0
   22.6634   -9.3360  -18.6583 O   0  0  0  0  0  0  0  0  0  0  0  0
   23.8358   -7.3767  -18.4545 N   0  0  0  0  0  0  0  0  0  0  0  0
   23.1601   -7.1050  -17.1982 C   0  0  1  0  0  0  0  0  0  0  0  0
   24.2436   -6.9190  -16.1649 C   0  0  0  0  0  0  0  0  0  0  0  0
   24.8411   -8.2217  -15.8285 C   0  0  0  0  0  0  0  0  0  0  0  0
   26.0572   -8.5791  -16.3232 C   0  0  0  0  0  0  0  0  0  0  0  0
   26.6182   -9.7989  -16.0008 C   0  0  0  0  0  0  0  0  0  0  0  0
   25.9202  -10.6423  -15.1700 C   0  0  0  0  0  0  0  0  0  0  0  0
   24.6855  -10.3187  -14.6475 C   0  0  0  0  0  0  0  0  0  0  0  0
   24.1642   -9.0875  -14.9979 C   0  0  0  0  0  0  0  0  0  0  0  0
   22.3340   -5.9007  -17.3703 C   0  0  0  0  0  0  0  0  0  0  0  0
   22.7186   -4.9290  -18.0643 O   0  0  0  0  0  0  0  0  0  0  0  0
   18.0756   -3.7584  -16.8260 O   0  0  0  0  0  0  0  0  0  0  0  0
   18.7757   -4.9555  -16.6414 C   0  0  0  0  0  0  0  0  0  0  0  0
   20.2235   -4.6713  -16.9601 C   0  0  2  0  0  0  0  0  0  0  0  0
   21.0702   -5.8245  -16.7415 N   0  0  0  0  0  0  0  0  0  0  0  0
   20.6617   -3.5669  -16.0686 C   0  0  0  0  0  0  0  0  0  0  0  0
   21.2309   -3.8253  -14.9782 O   0  0  0  0  0  0  0  0  0  0  0  0
   20.4767   -2.2263  -16.3727 O   0  0  0  0  0  0  0  0  0  0  0  0
  2 10  1  0
  2  1  1  1
  2  3  1  0
  4  3  1  0
  4  9  1  0
  5  4  2  0
  6  5  1  0
  6  7  2  0
  7  8  1  0
  8  9  2  0
 10 11  2  0
 12 13  1  0
 12 10  1  0
 13 21  1  0
 14 15  1  0
 13 14  1  1
 15 16  2  0
 16 17  1  0
 18 17  2  0
 19 18  1  0
 20 15  1  0
 20 19  2  0
 21 22  2  0
 21 26  1  0
 25 24  1  1
 24 23  1  0
 25 27  1  0
 26 25  1  0
 27 28  2  0
 27 29  1  0
M  END
$$$$
