FFS.pdb
     RDKit          3D

 29 30  0  0  1  0  0  0  0  0999 V2000
   20.4071  -13.1534  -18.8532 N   0  0  0  0  0  0  0  0  0  0  0  0
   20.5020  -11.7404  -19.1628 C   0  0  1  0  0  0  0  0  0  0  0  0
   19.4193  -11.2849  -20.0822 C   0  0  0  0  0  0  0  0  0  0  0  0
   19.9766  -11.1719  -21.4632 C   0  0  0  0  0  0  0  0  0  0  0  0
   19.4712  -10.3292  -22.4036 C   0  0  0  0  0  0  0  0  0  0  0  0
   20.0551  -10.3005  -23.6558 C   0  0  0  0  0  0  0  0  0  0  0  0
   21.1290  -11.1115  -23.9430 C   0  0  0  0  0  0  0  0  0  0  0  0
   21.6447  -11.9665  -22.9945 C   0  0  0  0  0  0  0  0  0  0  0  0
   21.0669  -11.9951  -21.7552 C   0  0  0  0  0  0  0  0  0  0  0  0
   20.4272  -10.9820  -17.8904 C   0  0  0  0  0  0  0  0  0  0  0  0
   19.6072  -11.3413  -16.9847 O   0  0  0  0  0  0  0  0  0  0  0  0
   21.2341   -9.8580  -17.6234 N   0  0  0  0  0  0  0  0  0  0  0  0
   21.0116   -9.0914  -16.4103 C   0  0  1  0  0  0  0  0  0  0  0  0
   22.3756   -8.6921  -15.9042 C   0  0  0  0  0  0  0  0  0  0  0  0
   22.2402   -7.9375  -14.6475 C   0  0  0  0  0  0  0  0  0  0  0  0
   22.0797   -8.5834  -13.4607 C   0  0  0  0  0  0  0  0  0  0  0  0
   21.9594   -7.8733  -12.2827 C   0  0  0  0  0  0  0  0  0  0  0  0
   22.0054   -6.5008  -12.3371 C   0  0  0  0  0  0  0  0  0  0  0  0
   22.1664   -5.8077  -13.5185 C   0  0  0  0  0  0  0  0  0  0  0  0
   22.2826   -6.5608  -14.6716 C   0  0  0  0  0  0  0  0  0  0  0  0
   20.1739   -7.9304  -16.7461 C   0  0  0  0  0  0  0  0  0  0  0  0
   20.4422   -7.1798  -17.7148 O   0  0  0  0  0  0  0  0  0  0  0  0
   16.6121   -7.5691  -14.9373 O   0  0  0  0  0  0  0  0  0  0  0  0
   16.7243   -6.8187  -16.1128 C   0  0  0  0  0  0  0  0  0  0  0  0
   18.1907   -6.5150  -16.3018 C   0  0  2  0  0  0  0  0  0  0  0  0
   19.0327   -7.6423  -15.9631 N   0  0  0  0  0  0  0  0  0  0  0  0
   18.5217   -5.3726  -15.4121 C   0  0  0  0  0  0  0  0  0  0  0  0
   17.9761   -4.2546  -15.5924 O   0  0  0  0  0  0  0  0  0  0  0  0
   19.4231   -5.4640  -14.3618 O   0  0  0  0  0  0  0  0  0  0  0  0
  2 10  1  0
  2  1  1  1
  2  3  1  0
  4  3  1  0
  4  9  1  0
  5  4  2  0
  6  5  1  0
  6  7  2  0
  7  8  1  0
  8  9  2  0
 10 11  2  0
 12 13  1  0
 12 10  1  0
 13 21  1  0
 14 15  1  0
 13 14  1  6
 15 16  2  0
 16 17  1  0
 18 17  2  0
 19 18  1  0
 20 15  1  0
 20 19  2  0
 21 22  2  0
 21 26  1  0
 25 24  1  1
 24 23  1  0
 25 27  1  0
 26 25  1  0
 27 28  2  0
 27 29  1  0
M  END
$$$$
