FFS.pdb
     RDKit          3D

 29 30  0  0  1  0  0  0  0  0999 V2000
   21.2439  -19.0307  -14.1035 N   0  0  0  0  0  0  0  0  0  0  0  0
   21.7075  -20.2596  -14.7168 C   0  0  1  0  0  0  0  0  0  0  0  0
   21.3774  -20.3309  -16.1697 C   0  0  0  0  0  0  0  0  0  0  0  0
   19.9136  -20.5868  -16.3186 C   0  0  0  0  0  0  0  0  0  0  0  0
   19.0046  -19.6010  -16.5465 C   0  0  0  0  0  0  0  0  0  0  0  0
   17.6701  -19.9394  -16.6657 C   0  0  0  0  0  0  0  0  0  0  0  0
   17.2711  -21.2517  -16.5554 C   0  0  0  0  0  0  0  0  0  0  0  0
   18.1873  -22.2537  -16.3248 C   0  0  0  0  0  0  0  0  0  0  0  0
   19.5081  -21.9190  -16.2068 C   0  0  0  0  0  0  0  0  0  0  0  0
   23.1773  -20.3414  -14.5351 C   0  0  0  0  0  0  0  0  0  0  0  0
   23.8735  -19.2755  -14.5067 O   0  0  0  0  0  0  0  0  0  0  0  0
   23.8612  -21.5648  -14.3886 N   0  0  0  0  0  0  0  0  0  0  0  0
   25.2990  -21.5589  -14.1857 C   0  0  1  0  0  0  0  0  0  0  0  0
   25.5597  -22.4135  -12.9700 C   0  0  0  0  0  0  0  0  0  0  0  0
   25.2805  -21.6414  -11.7482 C   0  0  0  0  0  0  0  0  0  0  0  0
   26.2815  -21.0028  -11.0835 C   0  0  0  0  0  0  0  0  0  0  0  0
   26.0158  -20.2739   -9.9413 C   0  0  0  0  0  0  0  0  0  0  0  0
   24.7186  -20.2089   -9.4922 C   0  0  0  0  0  0  0  0  0  0  0  0
   23.6755  -20.8411  -10.1357 C   0  0  0  0  0  0  0  0  0  0  0  0
   23.9896  -21.5586  -11.2746 C   0  0  0  0  0  0  0  0  0  0  0  0
   25.9375  -22.0944  -15.3973 C   0  0  0  0  0  0  0  0  0  0  0  0
   25.5540  -23.1639  -15.9290 O   0  0  0  0  0  0  0  0  0  0  0  0
   28.7606  -19.8521  -17.1655 O   0  0  0  0  0  0  0  0  0  0  0  0
   28.2040  -20.7847  -18.0476 C   0  0  0  0  0  0  0  0  0  0  0  0
   27.6186  -21.8916  -17.2047 C   0  0  2  0  0  0  0  0  0  0  0  0
   27.0138  -21.3934  -15.9879 N   0  0  0  0  0  0  0  0  0  0  0  0
   28.7295  -22.8141  -16.8566 C   0  0  0  0  0  0  0  0  0  0  0  0
   29.3687  -23.4020  -17.7653 O   0  0  0  0  0  0  0  0  0  0  0  0
   29.1185  -23.0762  -15.5513 O   0  0  0  0  0  0  0  0  0  0  0  0
  2 10  1  0
  2  1  1  6
  2  3  1  0
  4  3  1  0
  4  9  1  0
  5  4  2  0
  6  5  1  0
  6  7  2  0
  7  8  1  0
  8  9  2  0
 10 11  2  0
 12 13  1  0
 12 10  1  0
 13 21  1  0
 14 15  1  0
 13 14  1  1
 15 16  2  0
 16 17  1  0
 18 17  2  0
 19 18  1  0
 20 15  1  0
 20 19  2  0
 21 22  2  0
 21 26  1  0
 25 24  1  1
 24 23  1  0
 25 27  1  0
 26 25  1  0
 27 28  2  0
 27 29  1  0
M  END
$$$$
