FFS.pdb
     RDKit          3D

 29 30  0  0  1  0  0  0  0  0999 V2000
   21.2573  -11.1774  -17.9392 N   0  0  0  0  0  0  0  0  0  0  0  0
   21.0513   -9.7758  -18.2465 C   0  0  1  0  0  0  0  0  0  0  0  0
   20.0616   -9.5729  -19.3440 C   0  0  0  0  0  0  0  0  0  0  0  0
   20.6605  -10.0500  -20.6263 C   0  0  0  0  0  0  0  0  0  0  0  0
   20.3457  -11.2440  -21.1965 C   0  0  0  0  0  0  0  0  0  0  0  0
   20.9579  -11.5977  -22.3838 C   0  0  0  0  0  0  0  0  0  0  0  0
   21.8694  -10.7543  -22.9765 C   0  0  0  0  0  0  0  0  0  0  0  0
   22.1915   -9.5441  -22.4036 C   0  0  0  0  0  0  0  0  0  0  0  0
   21.5858   -9.1939  -21.2284 C   0  0  0  0  0  0  0  0  0  0  0  0
   20.5769   -9.0973  -17.0159 C   0  0  0  0  0  0  0  0  0  0  0  0
   19.6778   -9.6421  -16.2973 O   0  0  0  0  0  0  0  0  0  0  0  0
   21.0797   -7.8520  -16.5890 N   0  0  0  0  0  0  0  0  0  0  0  0
   20.5587   -7.2502  -15.3745 C   0  0  1  0  0  0  0  0  0  0  0  0
   21.7265   -7.1260  -14.4274 C   0  0  0  0  0  0  0  0  0  0  0  0
   22.8223   -6.3910  -15.0803 C   0  0  0  0  0  0  0  0  0  0  0  0
   22.9343   -5.0418  -14.9445 C   0  0  0  0  0  0  0  0  0  0  0  0
   23.9668   -4.3558  -15.5527 C   0  0  0  0  0  0  0  0  0  0  0  0
   24.8771   -5.0668  -16.2974 C   0  0  0  0  0  0  0  0  0  0  0  0
   24.7996   -6.4341  -16.4604 C   0  0  0  0  0  0  0  0  0  0  0  0
   23.7495   -7.0775  -15.8331 C   0  0  0  0  0  0  0  0  0  0  0  0
   19.9737   -5.9463  -15.7206 C   0  0  0  0  0  0  0  0  0  0  0  0
   20.4148   -5.2549  -16.6700 O   0  0  0  0  0  0  0  0  0  0  0  0
   16.3232   -5.0755  -14.3727 O   0  0  0  0  0  0  0  0  0  0  0  0
   16.7589   -4.3238  -15.4693 C   0  0  0  0  0  0  0  0  0  0  0  0
   18.2583   -4.1990  -15.3486 C   0  0  2  0  0  0  0  0  0  0  0  0
   18.8842   -5.4478  -14.9702 N   0  0  0  0  0  0  0  0  0  0  0  0
   18.5322   -3.1786  -14.3045 C   0  0  0  0  0  0  0  0  0  0  0  0
   19.1119   -3.5073  -13.2387 O   0  0  0  0  0  0  0  0  0  0  0  0
   18.1778   -1.8439  -14.4352 O   0  0  0  0  0  0  0  0  0  0  0  0
  2 10  1  0
  2  1  1  1
  2  3  1  0
  4  3  1  0
  4  9  1  0
  5  4  2  0
  6  5  1  0
  6  7  2  0
  7  8  1  0
  8  9  2  0
 10 11  2  0
 12 13  1  0
 12 10  1  0
 13 21  1  0
 14 15  1  0
 13 14  1  1
 15 16  2  0
 16 17  1  0
 18 17  2  0
 19 18  1  0
 20 15  1  0
 20 19  2  0
 21 22  2  0
 21 26  1  0
 25 24  1  1
 24 23  1  0
 25 27  1  0
 26 25  1  0
 27 28  2  0
 27 29  1  0
M  END
$$$$
