FFS.pdb
     RDKit          3D

 29 30  0  0  1  0  0  0  0  0999 V2000
   15.9963  -11.0502  -16.2598 N   0  0  0  0  0  0  0  0  0  0  0  0
   15.9967   -9.6241  -16.0000 C   0  0  1  0  0  0  0  0  0  0  0  0
   14.6283   -9.0935  -15.7330 C   0  0  0  0  0  0  0  0  0  0  0  0
   13.8586   -9.0817  -17.0128 C   0  0  0  0  0  0  0  0  0  0  0  0
   13.0538  -10.1048  -17.4073 C   0  0  0  0  0  0  0  0  0  0  0  0
   12.3856  -10.0007  -18.6125 C   0  0  0  0  0  0  0  0  0  0  0  0
   12.5340   -8.8802  -19.3973 C   0  0  0  0  0  0  0  0  0  0  0  0
   13.3475   -7.8414  -19.0026 C   0  0  0  0  0  0  0  0  0  0  0  0
   14.0089   -7.9443  -17.8099 C   0  0  0  0  0  0  0  0  0  0  0  0
   16.8681   -9.3677  -14.8275 C   0  0  0  0  0  0  0  0  0  0  0  0
   16.8972  -10.2002  -13.8643 O   0  0  0  0  0  0  0  0  0  0  0  0
   17.6853   -8.2247  -14.7195 N   0  0  0  0  0  0  0  0  0  0  0  0
   18.4762   -8.0236  -13.5183 C   0  0  1  0  0  0  0  0  0  0  0  0
   19.8785   -7.7132  -13.9804 C   0  0  0  0  0  0  0  0  0  0  0  0
   20.7795   -7.6304  -12.8192 C   0  0  0  0  0  0  0  0  0  0  0  0
   21.4230   -8.7364  -12.3563 C   0  0  0  0  0  0  0  0  0  0  0  0
   22.2726   -8.6547  -11.2710 C   0  0  0  0  0  0  0  0  0  0  0  0
   22.4524   -7.4319  -10.6700 C   0  0  0  0  0  0  0  0  0  0  0  0
   21.8195   -6.2872  -11.1073 C   0  0  0  0  0  0  0  0  0  0  0  0
   20.9789   -6.4179  -12.1967 C   0  0  0  0  0  0  0  0  0  0  0  0
   17.8786   -6.9196  -12.7527 C   0  0  0  0  0  0  0  0  0  0  0  0
   17.4720   -5.8722  -13.3108 O   0  0  0  0  0  0  0  0  0  0  0  0
   16.1912   -7.5716   -9.1336 O   0  0  0  0  0  0  0  0  0  0  0  0
   16.8904   -6.3598   -9.1499 C   0  0  0  0  0  0  0  0  0  0  0  0
   17.0882   -5.9863  -10.5990 C   0  0  2  0  0  0  0  0  0  0  0  0
   17.7537   -7.0301  -11.3489 N   0  0  0  0  0  0  0  0  0  0  0  0
   17.9216   -4.7570  -10.6267 C   0  0  0  0  0  0  0  0  0  0  0  0
   17.5879   -3.7540   -9.9466 O   0  0  0  0  0  0  0  0  0  0  0  0
   19.0812   -4.6421  -11.3791 O   0  0  0  0  0  0  0  0  0  0  0  0
  2 10  1  0
  2  1  1  1
  2  3  1  0
  4  3  1  0
  4  9  1  0
  5  4  2  0
  6  5  1  0
  6  7  2  0
  7  8  1  0
  8  9  2  0
 10 11  2  0
 12 13  1  0
 12 10  1  0
 13 21  1  0
 14 15  1  0
 13 14  1  6
 15 16  2  0
 16 17  1  0
 18 17  2  0
 19 18  1  0
 20 15  1  0
 20 19  2  0
 21 22  2  0
 21 26  1  0
 25 24  1  1
 24 23  1  0
 25 27  1  0
 26 25  1  0
 27 28  2  0
 27 29  1  0
M  END
$$$$
