FFS.pdb
     RDKit          3D

 29 30  0  0  1  0  0  0  0  0999 V2000
   24.9586  -17.9791  -18.8424 N   0  0  0  0  0  0  0  0  0  0  0  0
   24.1549  -17.6306  -17.6874 C   0  0  1  0  0  0  0  0  0  0  0  0
   22.8115  -17.1044  -18.0662 C   0  0  0  0  0  0  0  0  0  0  0  0
   22.9811  -15.7617  -18.6978 C   0  0  0  0  0  0  0  0  0  0  0  0
   23.1342  -14.6157  -17.9815 C   0  0  0  0  0  0  0  0  0  0  0  0
   23.2803  -13.4204  -18.6594 C   0  0  0  0  0  0  0  0  0  0  0  0
   23.2709  -13.3935  -20.0351 C   0  0  0  0  0  0  0  0  0  0  0  0
   23.1165  -14.5509  -20.7653 C   0  0  0  0  0  0  0  0  0  0  0  0
   22.9717  -15.7340  -20.0945 C   0  0  0  0  0  0  0  0  0  0  0  0
   23.9967  -18.8448  -16.8505 C   0  0  0  0  0  0  0  0  0  0  0  0
   23.7747  -19.9711  -17.4018 O   0  0  0  0  0  0  0  0  0  0  0  0
   24.0808  -18.8186  -15.4440 N   0  0  0  0  0  0  0  0  0  0  0  0
   23.9292  -20.0543  -14.6967 C   0  0  1  0  0  0  0  0  0  0  0  0
   25.1066  -20.1287  -13.7561 C   0  0  0  0  0  0  0  0  0  0  0  0
   26.3278  -20.4554  -14.5103 C   0  0  0  0  0  0  0  0  0  0  0  0
   26.6336  -21.7455  -14.8165 C   0  0  0  0  0  0  0  0  0  0  0  0
   27.7764  -22.0485  -15.5296 C   0  0  0  0  0  0  0  0  0  0  0  0
   28.5967  -21.0180  -15.9221 C   0  0  0  0  0  0  0  0  0  0  0  0
   28.3236  -19.6976  -15.6323 C   0  0  0  0  0  0  0  0  0  0  0  0
   27.1688  -19.4429  -14.9168 C   0  0  0  0  0  0  0  0  0  0  0  0
   22.6430  -20.0080  -13.9856 C   0  0  0  0  0  0  0  0  0  0  0  0
   22.4157  -19.1650  -13.0847 O   0  0  0  0  0  0  0  0  0  0  0  0
   17.9997  -20.7476  -14.0844 O   0  0  0  0  0  0  0  0  0  0  0  0
   19.2143  -20.8687  -14.7682 C   0  0  0  0  0  0  0  0  0  0  0  0
   20.3102  -20.8006  -13.7324 C   0  0  2  0  0  0  0  0  0  0  0  0
   21.6273  -20.9336  -14.3175 N   0  0  0  0  0  0  0  0  0  0  0  0
   20.0840  -21.9164  -12.7785 C   0  0  0  0  0  0  0  0  0  0  0  0
   20.6747  -23.0140  -12.9409 O   0  0  0  0  0  0  0  0  0  0  0  0
   19.2355  -21.8211  -11.6853 O   0  0  0  0  0  0  0  0  0  0  0  0
  2 10  1  0
  2  1  1  6
  2  3  1  0
  4  3  1  0
  4  9  1  0
  5  4  2  0
  6  5  1  0
  6  7  2  0
  7  8  1  0
  8  9  2  0
 10 11  2  0
 12 13  1  0
 12 10  1  0
 13 21  1  0
 14 15  1  0
 13 14  1  1
 15 16  2  0
 16 17  1  0
 18 17  2  0
 19 18  1  0
 20 15  1  0
 20 19  2  0
 21 22  2  0
 21 26  1  0
 25 24  1  6
 24 23  1  0
 25 27  1  0
 26 25  1  0
 27 28  2  0
 27 29  1  0
M  END
$$$$
