FFS.pdb
     RDKit          3D

 29 30  0  0  1  0  0  0  0  0999 V2000
   27.9362  -18.7332  -16.2301 N   0  0  0  0  0  0  0  0  0  0  0  0
   27.0090  -18.1742  -15.2662 C   0  0  1  0  0  0  0  0  0  0  0  0
   26.0210  -17.2507  -15.8957 C   0  0  0  0  0  0  0  0  0  0  0  0
   26.7205  -15.9894  -16.2836 C   0  0  0  0  0  0  0  0  0  0  0  0
   27.0290  -15.6744  -17.5703 C   0  0  0  0  0  0  0  0  0  0  0  0
   27.6817  -14.4837  -17.8269 C   0  0  0  0  0  0  0  0  0  0  0  0
   28.0121  -13.6337  -16.7965 C   0  0  0  0  0  0  0  0  0  0  0  0
   27.7020  -13.9477  -15.4919 C   0  0  0  0  0  0  0  0  0  0  0  0
   27.0561  -15.1262  -15.2378 C   0  0  0  0  0  0  0  0  0  0  0  0
   26.2944  -19.2948  -14.6078 C   0  0  0  0  0  0  0  0  0  0  0  0
   26.0454  -20.3594  -15.2607 O   0  0  0  0  0  0  0  0  0  0  0  0
   25.8660  -19.2435  -13.2663 N   0  0  0  0  0  0  0  0  0  0  0  0
   25.2298  -20.4073  -12.6752 C   0  0  1  0  0  0  0  0  0  0  0  0
   25.7832  -20.5293  -11.2769 C   0  0  0  0  0  0  0  0  0  0  0  0
   27.1987  -20.9294  -11.3338 C   0  0  0  0  0  0  0  0  0  0  0  0
   27.5481  -22.2249  -11.5597 C   0  0  0  0  0  0  0  0  0  0  0  0
   28.8767  -22.5963  -11.6189 C   0  0  0  0  0  0  0  0  0  0  0  0
   29.8363  -21.6281  -11.4444 C   0  0  0  0  0  0  0  0  0  0  0  0
   29.5250  -20.3046  -11.2131 C   0  0  0  0  0  0  0  0  0  0  0  0
   28.1824  -19.9803  -11.1624 C   0  0  0  0  0  0  0  0  0  0  0  0
   23.7750  -20.1934  -12.6879 C   0  0  0  0  0  0  0  0  0  0  0  0
   23.2613  -19.1192  -12.2928 O   0  0  0  0  0  0  0  0  0  0  0  0
   21.5410  -22.6868  -14.8497 O   0  0  0  0  0  0  0  0  0  0  0  0
   20.9187  -21.4691  -14.5537 C   0  0  0  0  0  0  0  0  0  0  0  0
   21.4961  -20.9874  -13.2449 C   0  0  2  0  0  0  0  0  0  0  0  0
   22.9220  -21.2190  -13.1558 N   0  0  0  0  0  0  0  0  0  0  0  0
   20.8105  -21.7350  -12.1598 C   0  0  0  0  0  0  0  0  0  0  0  0
   21.4612  -22.5253  -11.4305 O   0  0  0  0  0  0  0  0  0  0  0  0
   19.4551  -21.6124  -11.8919 O   0  0  0  0  0  0  0  0  0  0  0  0
  2 10  1  0
  2  1  1  6
  2  3  1  0
  4  3  1  0
  4  9  1  0
  5  4  2  0
  6  5  1  0
  6  7  2  0
  7  8  1  0
  8  9  2  0
 10 11  2  0
 12 13  1  0
 12 10  1  0
 13 21  1  0
 14 15  1  0
 13 14  1  1
 15 16  2  0
 16 17  1  0
 18 17  2  0
 19 18  1  0
 20 15  1  0
 20 19  2  0
 21 22  2  0
 21 26  1  0
 25 24  1  6
 24 23  1  0
 25 27  1  0
 26 25  1  0
 27 28  2  0
 27 29  1  0
M  END
$$$$
