FFS.pdb
     RDKit          3D

 29 30  0  0  1  0  0  0  0  0999 V2000
   25.2797  -18.7745  -19.1497 N   0  0  0  0  0  0  0  0  0  0  0  0
   24.5848  -18.1451  -18.0442 C   0  0  1  0  0  0  0  0  0  0  0  0
   23.1760  -17.7918  -18.3840 C   0  0  0  0  0  0  0  0  0  0  0  0
   23.1859  -16.6906  -19.3929 C   0  0  0  0  0  0  0  0  0  0  0  0
   23.1252  -16.9087  -20.7340 C   0  0  0  0  0  0  0  0  0  0  0  0
   23.1445  -15.8221  -21.5876 C   0  0  0  0  0  0  0  0  0  0  0  0
   23.2236  -14.5431  -21.0863 C   0  0  0  0  0  0  0  0  0  0  0  0
   23.2851  -14.3166  -19.7292 C   0  0  0  0  0  0  0  0  0  0  0  0
   23.2661  -15.3920  -18.8843 C   0  0  0  0  0  0  0  0  0  0  0  0
   24.6002  -19.0820  -16.8944 C   0  0  0  0  0  0  0  0  0  0  0  0
   24.4796  -20.3338  -17.0944 O   0  0  0  0  0  0  0  0  0  0  0  0
   24.7446  -18.6509  -15.5606 N   0  0  0  0  0  0  0  0  0  0  0  0
   24.6868  -19.6251  -14.4854 C   0  0  1  0  0  0  0  0  0  0  0  0
   25.4933  -19.0499  -13.3474 C   0  0  0  0  0  0  0  0  0  0  0  0
   25.4118  -19.9403  -12.1780 C   0  0  0  0  0  0  0  0  0  0  0  0
   24.5779  -19.6546  -11.1415 C   0  0  0  0  0  0  0  0  0  0  0  0
   24.4986  -20.4949  -10.0487 C   0  0  0  0  0  0  0  0  0  0  0  0
   25.2808  -21.6248  -10.0326 C   0  0  0  0  0  0  0  0  0  0  0  0
   26.1389  -21.9508  -11.0619 C   0  0  0  0  0  0  0  0  0  0  0  0
   26.1842  -21.0800  -12.1344 C   0  0  0  0  0  0  0  0  0  0  0  0
   23.2759  -19.8323  -14.1267 C   0  0  0  0  0  0  0  0  0  0  0  0
   22.4784  -18.8724  -13.9991 O   0  0  0  0  0  0  0  0  0  0  0  0
   20.7698  -22.5078  -15.5212 O   0  0  0  0  0  0  0  0  0  0  0  0
   20.8751  -22.6619  -14.1346 C   0  0  0  0  0  0  0  0  0  0  0  0
   21.4008  -21.3575  -13.5863 C   0  0  2  0  0  0  0  0  0  0  0  0
   22.7935  -21.1446  -13.9175 N   0  0  0  0  0  0  0  0  0  0  0  0
   21.2516  -21.4090  -12.1094 C   0  0  0  0  0  0  0  0  0  0  0  0
   22.2573  -21.6028  -11.3807 O   0  0  0  0  0  0  0  0  0  0  0  0
   20.0345  -21.2519  -11.4629 O   0  0  0  0  0  0  0  0  0  0  0  0
  2 10  1  0
  2  1  1  6
  2  3  1  0
  4  3  1  0
  4  9  1  0
  5  4  2  0
  6  5  1  0
  6  7  2  0
  7  8  1  0
  8  9  2  0
 10 11  2  0
 12 13  1  0
 12 10  1  0
 13 21  1  0
 14 15  1  0
 13 14  1  1
 15 16  2  0
 16 17  1  0
 18 17  2  0
 19 18  1  0
 20 15  1  0
 20 19  2  0
 21 22  2  0
 21 26  1  0
 25 24  1  6
 24 23  1  0
 25 27  1  0
 26 25  1  0
 27 28  2  0
 27 29  1  0
M  END
$$$$
