FFS.pdb
     RDKit          3D

 29 30  0  0  1  0  0  0  0  0999 V2000
   22.7486  -19.1954  -18.9505 N   0  0  0  0  0  0  0  0  0  0  0  0
   21.6863  -18.4457  -18.3096 C   0  0  1  0  0  0  0  0  0  0  0  0
   20.4599  -18.3601  -19.1544 C   0  0  0  0  0  0  0  0  0  0  0  0
   20.7350  -17.4577  -20.3122 C   0  0  0  0  0  0  0  0  0  0  0  0
   21.0881  -16.1518  -20.1712 C   0  0  0  0  0  0  0  0  0  0  0  0
   21.3181  -15.3972  -21.3058 C   0  0  0  0  0  0  0  0  0  0  0  0
   21.1914  -15.9602  -22.5550 C   0  0  0  0  0  0  0  0  0  0  0  0
   20.8343  -17.2820  -22.7034 C   0  0  0  0  0  0  0  0  0  0  0  0
   20.6066  -18.0289  -21.5806 C   0  0  0  0  0  0  0  0  0  0  0  0
   21.3608  -19.1109  -17.0245 C   0  0  0  0  0  0  0  0  0  0  0  0
   21.6628  -20.3356  -16.8497 O   0  0  0  0  0  0  0  0  0  0  0  0
   20.7199  -18.4445  -15.9611 N   0  0  0  0  0  0  0  0  0  0  0  0
   20.4409  -19.1653  -14.7317 C   0  0  1  0  0  0  0  0  0  0  0  0
   20.9146  -18.2813  -13.6046 C   0  0  0  0  0  0  0  0  0  0  0  0
   20.6517  -18.9362  -12.3127 C   0  0  0  0  0  0  0  0  0  0  0  0
   21.4464  -19.9481  -11.8699 C   0  0  0  0  0  0  0  0  0  0  0  0
   21.2014  -20.5564  -10.6548 C   0  0  0  0  0  0  0  0  0  0  0  0
   20.1374  -20.1164   -9.9043 C   0  0  0  0  0  0  0  0  0  0  0  0
   19.3079  -19.0946  -10.3163 C   0  0  0  0  0  0  0  0  0  0  0  0
   19.5922  -18.5161  -11.5390 C   0  0  0  0  0  0  0  0  0  0  0  0
   18.9957  -19.4295  -14.6703 C   0  0  0  0  0  0  0  0  0  0  0  0
   18.1505  -18.5610  -14.9950 O   0  0  0  0  0  0  0  0  0  0  0  0
   17.4548  -22.6968  -15.8611 O   0  0  0  0  0  0  0  0  0  0  0  0
   16.8640  -22.4520  -14.6167 C   0  0  0  0  0  0  0  0  0  0  0  0
   17.1211  -21.0019  -14.2859 C   0  0  2  0  0  0  0  0  0  0  0  0
   18.5341  -20.6928  -14.2351 N   0  0  0  0  0  0  0  0  0  0  0  0
   16.5151  -20.7399  -12.9554 C   0  0  0  0  0  0  0  0  0  0  0  0
   17.1799  -20.9453  -11.9086 O   0  0  0  0  0  0  0  0  0  0  0  0
   15.2213  -20.2680  -12.7895 O   0  0  0  0  0  0  0  0  0  0  0  0
  2 10  1  0
  2  1  1  6
  2  3  1  0
  4  3  1  0
  4  9  1  0
  5  4  2  0
  6  5  1  0
  6  7  2  0
  7  8  1  0
  8  9  2  0
 10 11  2  0
 12 13  1  0
 12 10  1  0
 13 21  1  0
 14 15  1  0
 13 14  1  1
 15 16  2  0
 16 17  1  0
 18 17  2  0
 19 18  1  0
 20 15  1  0
 20 19  2  0
 21 22  2  0
 21 26  1  0
 25 24  1  1
 24 23  1  0
 25 27  1  0
 26 25  1  0
 27 28  2  0
 27 29  1  0
M  END
$$$$
