FFS.pdb
     RDKit          3D

 29 30  0  0  1  0  0  0  0  0999 V2000
   25.0665  -20.7919  -19.0566 N   0  0  0  0  0  0  0  0  0  0  0  0
   24.3305  -19.8798  -18.2036 C   0  0  1  0  0  0  0  0  0  0  0  0
   22.9955  -19.5252  -18.7667 C   0  0  0  0  0  0  0  0  0  0  0  0
   23.1920  -18.6144  -19.9339 C   0  0  0  0  0  0  0  0  0  0  0  0
   23.1145  -19.0322  -21.2259 C   0  0  0  0  0  0  0  0  0  0  0  0
   23.3160  -18.1121  -22.2372 C   0  0  0  0  0  0  0  0  0  0  0  0
   23.5899  -16.7971  -21.9389 C   0  0  0  0  0  0  0  0  0  0  0  0
   23.6694  -16.3687  -20.6325 C   0  0  0  0  0  0  0  0  0  0  0  0
   23.4700  -17.2791  -19.6314 C   0  0  0  0  0  0  0  0  0  0  0  0
   24.1575  -20.5233  -16.8785 C   0  0  0  0  0  0  0  0  0  0  0  0
   24.1498  -21.7934  -16.7861 O   0  0  0  0  0  0  0  0  0  0  0  0
   23.9972  -19.7870  -15.6877 N   0  0  0  0  0  0  0  0  0  0  0  0
   23.9381  -20.4882  -14.4175 C   0  0  1  0  0  0  0  0  0  0  0  0
   24.6927  -19.6365  -13.4268 C   0  0  0  0  0  0  0  0  0  0  0  0
   24.6924  -20.2880  -12.1067 C   0  0  0  0  0  0  0  0  0  0  0  0
   23.7281  -20.0041  -11.1897 C   0  0  0  0  0  0  0  0  0  0  0  0
   23.7265  -20.6214   -9.9547 C   0  0  0  0  0  0  0  0  0  0  0  0
   24.7207  -21.5278   -9.6737 C   0  0  0  0  0  0  0  0  0  0  0  0
   25.7162  -21.8436  -10.5743 C   0  0  0  0  0  0  0  0  0  0  0  0
   25.6766  -21.2008  -11.7973 C   0  0  0  0  0  0  0  0  0  0  0  0
   22.5243  -20.6588  -14.0508 C   0  0  0  0  0  0  0  0  0  0  0  0
   21.7245  -19.6924  -14.0339 O   0  0  0  0  0  0  0  0  0  0  0  0
   20.5720  -23.7266  -15.1238 O   0  0  0  0  0  0  0  0  0  0  0  0
   20.1511  -23.5057  -13.8080 C   0  0  0  0  0  0  0  0  0  0  0  0
   20.6364  -22.1311  -13.4164 C   0  0  2  0  0  0  0  0  0  0  0  0
   22.0417  -21.9421  -13.7061 N   0  0  0  0  0  0  0  0  0  0  0  0
   20.4145  -21.9859  -11.9549 C   0  0  0  0  0  0  0  0  0  0  0  0
   19.2496  -22.0414  -11.4858 O   0  0  0  0  0  0  0  0  0  0  0  0
   21.4434  -21.7866  -11.0463 O   0  0  0  0  0  0  0  0  0  0  0  0
  2 10  1  0
  2  1  1  6
  2  3  1  0
  4  3  1  0
  4  9  1  0
  5  4  2  0
  6  5  1  0
  6  7  2  0
  7  8  1  0
  8  9  2  0
 10 11  2  0
 12 13  1  0
 12 10  1  0
 13 21  1  0
 14 15  1  0
 13 14  1  1
 15 16  2  0
 16 17  1  0
 18 17  2  0
 19 18  1  0
 20 15  1  0
 20 19  2  0
 21 22  2  0
 21 26  1  0
 25 24  1  1
 24 23  1  0
 25 27  1  0
 26 25  1  0
 27 28  2  0
 27 29  1  0
M  END
$$$$
