FFS.pdb
     RDKit          3D

 29 30  0  0  1  0  0  0  0  0999 V2000
   28.3530  -10.4610  -17.3787 N   0  0  0  0  0  0  0  0  0  0  0  0
   26.9495  -10.4574  -17.0160 C   0  0  1  0  0  0  0  0  0  0  0  0
   26.6529  -11.3753  -15.8782 C   0  0  0  0  0  0  0  0  0  0  0  0
   26.9415  -12.7776  -16.3034 C   0  0  0  0  0  0  0  0  0  0  0  0
   27.9170  -13.5405  -15.7411 C   0  0  0  0  0  0  0  0  0  0  0  0
   28.1091  -14.8271  -16.2077 C   0  0  0  0  0  0  0  0  0  0  0  0
   27.3255  -15.3246  -17.2233 C   0  0  0  0  0  0  0  0  0  0  0  0
   26.3362  -14.5565  -17.7961 C   0  0  0  0  0  0  0  0  0  0  0  0
   26.1460  -13.2831  -17.3346 C   0  0  0  0  0  0  0  0  0  0  0  0
   26.5698   -9.0712  -16.6500 C   0  0  0  0  0  0  0  0  0  0  0  0
   27.4676   -8.2391  -16.2989 O   0  0  0  0  0  0  0  0  0  0  0  0
   25.2368   -8.6144  -16.6702 N   0  0  0  0  0  0  0  0  0  0  0  0
   24.9609   -7.2073  -16.4409 C   0  0  1  0  0  0  0  0  0  0  0  0
   25.6228   -6.4555  -17.5692 C   0  0  0  0  0  0  0  0  0  0  0  0
   25.2712   -5.0282  -17.4916 C   0  0  0  0  0  0  0  0  0  0  0  0
   25.8628   -4.2135  -16.5764 C   0  0  0  0  0  0  0  0  0  0  0  0
   25.5358   -2.8736  -16.5101 C   0  0  0  0  0  0  0  0  0  0  0  0
   24.5998   -2.3832  -17.3888 C   0  0  0  0  0  0  0  0  0  0  0  0
   23.9767   -3.1744  -18.3309 C   0  0  0  0  0  0  0  0  0  0  0  0
   24.3362   -4.5087  -18.3598 C   0  0  0  0  0  0  0  0  0  0  0  0
   23.5024   -7.0212  -16.4202 C   0  0  0  0  0  0  0  0  0  0  0  0
   22.7765   -7.3805  -17.3781 O   0  0  0  0  0  0  0  0  0  0  0  0
   21.4896   -6.7192  -12.9793 O   0  0  0  0  0  0  0  0  0  0  0  0
   20.7996   -7.0248  -14.1575 C   0  0  0  0  0  0  0  0  0  0  0  0
   21.4551   -6.2387  -15.2669 C   0  0  2  0  0  0  0  0  0  0  0  0
   22.8904   -6.4221  -15.2955 N   0  0  0  0  0  0  0  0  0  0  0  0
   21.1499   -4.8045  -15.0297 C   0  0  0  0  0  0  0  0  0  0  0  0
   22.0708   -4.0070  -14.7200 O   0  0  0  0  0  0  0  0  0  0  0  0
   19.8729   -4.2726  -15.1314 O   0  0  0  0  0  0  0  0  0  0  0  0
  2 10  1  0
  2  1  1  1
  2  3  1  0
  4  3  1  0
  4  9  1  0
  5  4  2  0
  6  5  1  0
  6  7  2  0
  7  8  1  0
  8  9  2  0
 10 11  2  0
 12 13  1  0
 12 10  1  0
 13 21  1  0
 14 15  1  0
 13 14  1  6
 15 16  2  0
 16 17  1  0
 18 17  2  0
 19 18  1  0
 20 15  1  0
 20 19  2  0
 21 22  2  0
 21 26  1  0
 25 24  1  1
 24 23  1  0
 25 27  1  0
 26 25  1  0
 27 28  2  0
 27 29  1  0
M  END
$$$$
