FFS.pdb
     RDKit          3D

 29 30  0  0  1  0  0  0  0  0999 V2000
   23.5444  -20.4128  -18.5848 N   0  0  0  0  0  0  0  0  0  0  0  0
   22.4812  -19.6451  -17.9671 C   0  0  1  0  0  0  0  0  0  0  0  0
   21.2216  -19.6715  -18.7657 C   0  0  0  0  0  0  0  0  0  0  0  0
   21.4359  -18.9029  -20.0282 C   0  0  0  0  0  0  0  0  0  0  0  0
   21.6440  -19.4954  -21.2346 C   0  0  0  0  0  0  0  0  0  0  0  0
   21.8364  -18.6962  -22.3454 C   0  0  0  0  0  0  0  0  0  0  0  0
   21.8172  -17.3252  -22.2296 C   0  0  0  0  0  0  0  0  0  0  0  0
   21.6068  -16.7201  -21.0105 C   0  0  0  0  0  0  0  0  0  0  0  0
   21.4164  -17.5110  -19.9110 C   0  0  0  0  0  0  0  0  0  0  0  0
   22.2280  -20.2074  -16.6182 C   0  0  0  0  0  0  0  0  0  0  0  0
   22.5169  -21.4233  -16.3732 O   0  0  0  0  0  0  0  0  0  0  0  0
   21.6715  -19.4504  -15.5679 N   0  0  0  0  0  0  0  0  0  0  0  0
   21.4575  -20.0741  -14.2742 C   0  0  1  0  0  0  0  0  0  0  0  0
   21.7821  -19.0259  -13.2387 C   0  0  0  0  0  0  0  0  0  0  0  0
   21.5863  -19.5804  -11.8892 C   0  0  0  0  0  0  0  0  0  0  0  0
   22.5354  -20.3685  -11.3152 C   0  0  0  0  0  0  0  0  0  0  0  0
   22.3520  -20.8820  -10.0466 C   0  0  0  0  0  0  0  0  0  0  0  0
   21.1899  -20.5789   -9.3785 C   0  0  0  0  0  0  0  0  0  0  0  0
   20.2033  -19.7845   -9.9240 C   0  0  0  0  0  0  0  0  0  0  0  0
   20.4312  -19.2933  -11.1957 C   0  0  0  0  0  0  0  0  0  0  0  0
   20.0581  -20.5203  -14.2036 C   0  0  0  0  0  0  0  0  0  0  0  0
   19.1087  -19.7755  -14.5467 O   0  0  0  0  0  0  0  0  0  0  0  0
   19.3438  -24.3737  -13.2542 O   0  0  0  0  0  0  0  0  0  0  0  0
   18.2960  -23.7785  -13.9650 C   0  0  0  0  0  0  0  0  0  0  0  0
   18.3932  -22.2910  -13.7275 C   0  0  2  0  0  0  0  0  0  0  0  0
   19.7623  -21.8219  -13.7381 N   0  0  0  0  0  0  0  0  0  0  0  0
   17.7929  -22.0178  -12.3966 C   0  0  0  0  0  0  0  0  0  0  0  0
   18.5302  -21.7332  -11.4191 O   0  0  0  0  0  0  0  0  0  0  0  0
   16.4274  -22.0581  -12.1564 O   0  0  0  0  0  0  0  0  0  0  0  0
  2 10  1  0
  2  1  1  6
  2  3  1  0
  4  3  1  0
  4  9  1  0
  5  4  2  0
  6  5  1  0
  6  7  2  0
  7  8  1  0
  8  9  2  0
 10 11  2  0
 12 13  1  0
 12 10  1  0
 13 21  1  0
 14 15  1  0
 13 14  1  1
 15 16  2  0
 16 17  1  0
 18 17  2  0
 19 18  1  0
 20 15  1  0
 20 19  2  0
 21 22  2  0
 21 26  1  0
 25 24  1  1
 24 23  1  0
 25 27  1  0
 26 25  1  0
 27 28  2  0
 27 29  1  0
M  END
$$$$
