FFS.pdb
     RDKit          3D

 29 30  0  0  1  0  0  0  0  0999 V2000
   25.6752  -18.8203  -19.0986 N   0  0  0  0  0  0  0  0  0  0  0  0
   25.1738  -18.0525  -17.9759 C   0  0  1  0  0  0  0  0  0  0  0  0
   23.8660  -17.3988  -18.2717 C   0  0  0  0  0  0  0  0  0  0  0  0
   24.0812  -16.3340  -19.2966 C   0  0  0  0  0  0  0  0  0  0  0  0
   23.6983  -16.4621  -20.5954 C   0  0  0  0  0  0  0  0  0  0  0  0
   23.9458  -15.4204  -21.4691 C   0  0  0  0  0  0  0  0  0  0  0  0
   24.5686  -14.2749  -21.0297 C   0  0  0  0  0  0  0  0  0  0  0  0
   24.9583  -14.1399  -19.7156 C   0  0  0  0  0  0  0  0  0  0  0  0
   24.7135  -15.1708  -18.8507 C   0  0  0  0  0  0  0  0  0  0  0  0
   25.0226  -18.9688  -16.8194 C   0  0  0  0  0  0  0  0  0  0  0  0
   24.5824  -20.1502  -16.9991 O   0  0  0  0  0  0  0  0  0  0  0  0
   25.3477  -18.5933  -15.5007 N   0  0  0  0  0  0  0  0  0  0  0  0
   25.1199  -19.5303  -14.4149 C   0  0  1  0  0  0  0  0  0  0  0  0
   26.0583  -19.1288  -13.3038 C   0  0  0  0  0  0  0  0  0  0  0  0
   25.8172  -19.9689  -12.1193 C   0  0  0  0  0  0  0  0  0  0  0  0
   26.4087  -21.1882  -11.9975 C   0  0  0  0  0  0  0  0  0  0  0  0
   26.1859  -21.9713  -10.8824 C   0  0  0  0  0  0  0  0  0  0  0  0
   25.3535  -21.4910   -9.8999 C   0  0  0  0  0  0  0  0  0  0  0  0
   24.7344  -20.2615   -9.9842 C   0  0  0  0  0  0  0  0  0  0  0  0
   24.9874  -19.5133  -11.1184 C   0  0  0  0  0  0  0  0  0  0  0  0
   23.7069  -19.4409  -14.0180 C   0  0  0  0  0  0  0  0  0  0  0  0
   23.1583  -18.3402  -13.7701 O   0  0  0  0  0  0  0  0  0  0  0  0
   21.1727  -21.6720  -15.4872 O   0  0  0  0  0  0  0  0  0  0  0  0
   20.5868  -20.7492  -14.6139 C   0  0  0  0  0  0  0  0  0  0  0  0
   21.5569  -20.5443  -13.4758 C   0  0  2  0  0  0  0  0  0  0  0  0
   22.9356  -20.6206  -13.9094 N   0  0  0  0  0  0  0  0  0  0  0  0
   21.2979  -21.6144  -12.4787 C   0  0  0  0  0  0  0  0  0  0  0  0
   22.0695  -22.6036  -12.4010 O   0  0  0  0  0  0  0  0  0  0  0  0
   20.2247  -21.5907  -11.6003 O   0  0  0  0  0  0  0  0  0  0  0  0
  2 10  1  0
  2  1  1  6
  2  3  1  0
  4  3  1  0
  4  9  1  0
  5  4  2  0
  6  5  1  0
  6  7  2  0
  7  8  1  0
  8  9  2  0
 10 11  2  0
 12 13  1  0
 12 10  1  0
 13 21  1  0
 14 15  1  0
 13 14  1  1
 15 16  2  0
 16 17  1  0
 18 17  2  0
 19 18  1  0
 20 15  1  0
 20 19  2  0
 21 22  2  0
 21 26  1  0
 25 24  1  6
 24 23  1  0
 25 27  1  0
 26 25  1  0
 27 28  2  0
 27 29  1  0
M  END
$$$$
