GRL.pdb
     RDKit          3D

 24 23  0  0  1  0  0  0  0  0999 V2000
   27.5591  -24.3701  -16.7101 N   0  0  0  0  0  0  0  0  0  0  0  0
   27.3877  -22.9761  -16.4603 C   0  0  0  0  0  0  0  0  0  0  0  0
   26.2187  -22.6800  -15.5924 C   0  0  0  0  0  0  0  0  0  0  0  0
   25.3039  -23.5355  -15.4695 O   0  0  0  0  0  0  0  0  0  0  0  0
   24.0134  -21.5946   -8.3058 N   0  0  0  0  0  0  0  0  0  0  0  0
   22.9351  -20.7947   -8.8130 C   0  0  0  0  0  0  0  0  0  0  0  0
   21.9387  -20.6258   -8.0005 N   0  0  0  0  0  0  0  0  0  0  0  0
   22.9506  -20.2317  -10.0964 N   0  0  0  0  0  0  0  0  0  0  0  0
   24.1178  -20.4346  -10.9346 C   0  0  0  0  0  0  0  0  0  0  0  0
   23.9552  -19.7004  -12.2678 C   0  0  0  0  0  0  0  0  0  0  0  0
   25.1724  -20.0334  -13.0961 C   0  0  0  0  0  0  0  0  0  0  0  0
   24.9138  -21.1291  -14.0907 C   0  0  2  0  0  0  0  0  0  0  0  0
   26.0706  -21.4658  -14.8803 N   0  0  0  0  0  0  0  0  0  0  0  0
   23.8806  -20.5963  -15.0496 C   0  0  0  0  0  0  0  0  0  0  0  0
   24.2614  -19.7002  -15.8317 O   0  0  0  0  0  0  0  0  0  0  0  0
   21.0960  -20.0976   -8.2494 C   0  0  0  0  0  0  0  0  0  0  0  0
   21.7064  -22.9051  -18.8924 C   0  0  2  0  0  0  0  0  0  0  0  0
   22.0624  -21.7491  -18.0440 C   0  0  0  0  0  0  0  0  0  0  0  0
   22.1625  -20.4818  -18.9069 C   0  0  0  0  0  0  0  0  0  0  0  0
   21.1123  -21.4391  -16.9377 C   0  0  2  0  0  0  0  0  0  0  0  0
   21.5686  -20.4448  -15.9308 N   0  0  0  0  0  0  0  0  0  0  0  0
   22.5620  -21.0636  -15.0808 C   0  0  0  0  0  0  0  0  0  0  0  0
   20.4909  -19.9040  -15.0762 O   0  0  0  0  0  0  0  0  0  0  0  0
   20.5221  -20.1065  -13.8440 O   0  0  0  0  0  0  0  0  0  0  0  0
  1  2  1  0
  2  3  1  0
  3  4  2  0
  3 13  1  0
  6  7  2  0
  6  5  1  0
  8  6  1  0
  9  8  1  0
 10  9  1  0
 11 10  1  0
 12 11  1  1
 12 14  1  0
 13 12  1  0
 14 15  2  0
 17 16  1  6
 17 19  1  0
 18 17  1  0
 20 19  1  6
 20 22  1  0
 21 14  1  0
 21 20  1  0
 22 24  1  0
 23 22  2  0
M  END
$$$$
