GRL.pdb
     RDKit          3D

 24 23  0  0  1  0  0  0  0  0999 V2000
   22.8267  -13.1697  -18.0853 N   0  0  0  0  0  0  0  0  0  0  0  0
   23.2764  -13.4876  -16.7695 C   0  0  0  0  0  0  0  0  0  0  0  0
   23.5835  -14.9305  -16.5923 C   0  0  0  0  0  0  0  0  0  0  0  0
   22.9068  -15.7904  -17.2139 O   0  0  0  0  0  0  0  0  0  0  0  0
   27.4014  -21.7553  -15.4483 N   0  0  0  0  0  0  0  0  0  0  0  0
   26.8699  -20.9393  -16.5025 C   0  0  0  0  0  0  0  0  0  0  0  0
   26.2229  -21.5780  -17.4272 N   0  0  0  0  0  0  0  0  0  0  0  0
   27.0345  -19.5478  -16.5373 N   0  0  0  0  0  0  0  0  0  0  0  0
   27.5327  -18.8732  -15.3529 C   0  0  0  0  0  0  0  0  0  0  0  0
   26.3762  -18.4970  -14.4233 C   0  0  0  0  0  0  0  0  0  0  0  0
   26.0970  -17.0312  -14.6517 C   0  0  0  0  0  0  0  0  0  0  0  0
   24.8801  -16.7991  -15.5012 C   0  0  2  0  0  0  0  0  0  0  0  0
   24.6149  -15.4046  -15.7469 N   0  0  0  0  0  0  0  0  0  0  0  0
   23.7074  -17.3263  -14.7153 C   0  0  0  0  0  0  0  0  0  0  0  0
   23.5381  -16.8372  -13.5787 O   0  0  0  0  0  0  0  0  0  0  0  0
   25.7898  -21.1126  -18.2315 C   0  0  0  0  0  0  0  0  0  0  0  0
   18.7740  -17.9228  -13.3072 C   0  0  2  0  0  0  0  0  0  0  0  0
   19.1674  -18.7008  -14.5001 C   0  0  0  0  0  0  0  0  0  0  0  0
   18.0867  -18.5723  -15.5846 C   0  0  0  0  0  0  0  0  0  0  0  0
   20.4583  -18.3080  -15.1342 C   0  0  1  0  0  0  0  0  0  0  0  0
   21.6983  -18.7529  -14.4448 N   0  0  0  0  0  0  0  0  0  0  0  0
   22.8426  -18.3088  -15.2101 C   0  0  0  0  0  0  0  0  0  0  0  0
   21.7993  -20.2151  -14.2551 O   0  0  0  0  0  0  0  0  0  0  0  0
   21.1008  -20.7724  -13.3823 O   0  0  0  0  0  0  0  0  0  0  0  0
  1  2  1  0
  2  3  1  0
  3  4  2  0
  3 13  1  0
  6  7  2  0
  6  5  1  0
  8  6  1  0
  9  8  1  0
 10  9  1  0
 11 10  1  0
 12 11  1  1
 12 14  1  0
 13 12  1  0
 14 15  2  0
 17 16  1  1
 17 19  1  0
 18 17  1  0
 20 19  1  1
 20 22  1  0
 21 14  1  0
 21 20  1  0
 22 24  1  0
 23 22  2  0
M  END
$$$$
