GRL.pdb
     RDKit          3D

 24 23  0  0  1  0  0  0  0  0999 V2000
   21.6238  -29.2493  -15.1111 N   0  0  0  0  0  0  0  0  0  0  0  0
   21.8559  -28.6639  -13.8311 C   0  0  0  0  0  0  0  0  0  0  0  0
   20.7026  -27.8677  -13.3377 C   0  0  0  0  0  0  0  0  0  0  0  0
   19.7204  -27.6611  -14.0969 O   0  0  0  0  0  0  0  0  0  0  0  0
   18.2249  -25.6019   -5.0964 N   0  0  0  0  0  0  0  0  0  0  0  0
   17.1172  -25.2613   -5.9428 C   0  0  0  0  0  0  0  0  0  0  0  0
   16.0432  -24.8782   -5.3252 N   0  0  0  0  0  0  0  0  0  0  0  0
   17.1836  -25.3350   -7.3409 N   0  0  0  0  0  0  0  0  0  0  0  0
   18.4088  -25.8080   -7.9584 C   0  0  0  0  0  0  0  0  0  0  0  0
   18.2741  -25.8128   -9.4831 C   0  0  0  0  0  0  0  0  0  0  0  0
   19.5443  -26.4201  -10.0275 C   0  0  0  0  0  0  0  0  0  0  0  0
   19.5144  -26.5837  -11.5204 C   0  0  2  0  0  0  0  0  0  0  0  0
   20.6427  -27.3162  -12.0356 N   0  0  0  0  0  0  0  0  0  0  0  0
   19.6031  -25.1959  -12.1010 C   0  0  0  0  0  0  0  0  0  0  0  0
   20.7335  -24.8271  -12.4828 O   0  0  0  0  0  0  0  0  0  0  0  0
   15.1813  -24.6119   -5.8125 C   0  0  0  0  0  0  0  0  0  0  0  0
   17.3185  -22.8375  -16.3623 C   0  0  2  0  0  0  0  0  0  0  0  0
   18.6395  -23.1552  -15.7818 C   0  0  0  0  0  0  0  0  0  0  0  0
   19.3536  -21.8577  -15.3727 C   0  0  0  0  0  0  0  0  0  0  0  0
   18.6247  -24.0332  -14.5770 C   0  0  2  0  0  0  0  0  0  0  0  0
   18.4151  -23.3598  -13.2681 N   0  0  0  0  0  0  0  0  0  0  0  0
   18.4949  -24.3494  -12.2161 C   0  0  0  0  0  0  0  0  0  0  0  0
   17.1247  -22.6496  -13.1475 O   0  0  0  0  0  0  0  0  0  0  0  0
   16.1096  -23.2758  -12.7765 O   0  0  0  0  0  0  0  0  0  0  0  0
  1  2  1  0
  2  3  1  0
  3  4  2  0
  3 13  1  0
  6  7  2  0
  6  5  1  0
  8  6  1  0
  9  8  1  0
 10  9  1  0
 11 10  1  0
 12 11  1  1
 12 14  1  0
 13 12  1  0
 14 15  2  0
 17 16  1  6
 17 19  1  0
 18 17  1  0
 20 19  1  1
 20 22  1  0
 21 14  1  0
 21 20  1  0
 22 24  1  0
 23 22  2  0
M  END
$$$$
