GRL.pdb
     RDKit          3D

 24 23  0  0  1  0  0  0  0  0999 V2000
   27.9086  -19.7792  -14.0189 N   0  0  0  0  0  0  0  0  0  0  0  0
   27.6944  -18.3825  -14.2146 C   0  0  0  0  0  0  0  0  0  0  0  0
   26.5764  -18.0906  -15.1486 C   0  0  0  0  0  0  0  0  0  0  0  0
   26.3761  -18.8479  -16.1335 O   0  0  0  0  0  0  0  0  0  0  0  0
   19.3856  -16.8428  -17.1840 N   0  0  0  0  0  0  0  0  0  0  0  0
   19.2976  -18.1713  -16.6482 C   0  0  0  0  0  0  0  0  0  0  0  0
   18.5880  -19.0049  -17.3433 N   0  0  0  0  0  0  0  0  0  0  0  0
   19.9319  -18.5493  -15.4569 N   0  0  0  0  0  0  0  0  0  0  0  0
   20.9488  -17.6769  -14.8993 C   0  0  0  0  0  0  0  0  0  0  0  0
   22.2265  -17.7363  -15.7401 C   0  0  0  0  0  0  0  0  0  0  0  0
   23.2492  -16.8798  -15.0336 C   0  0  0  0  0  0  0  0  0  0  0  0
   24.5347  -16.7608  -15.8016 C   0  0  2  0  0  0  0  0  0  0  0  0
   25.7045  -16.9867  -14.9919 N   0  0  0  0  0  0  0  0  0  0  0  0
   24.6130  -15.3336  -16.2790 C   0  0  0  0  0  0  0  0  0  0  0  0
   24.9672  -14.4858  -15.4331 O   0  0  0  0  0  0  0  0  0  0  0  0
   18.3876  -19.9623  -17.0361 C   0  0  0  0  0  0  0  0  0  0  0  0
   27.2737  -13.7635  -20.5268 C   0  0  1  0  0  0  0  0  0  0  0  0
   26.5554  -13.8254  -19.2372 C   0  0  0  0  0  0  0  0  0  0  0  0
   27.2097  -12.8664  -18.2307 C   0  0  0  0  0  0  0  0  0  0  0  0
   25.1073  -13.4738  -19.2834 C   0  0  2  0  0  0  0  0  0  0  0  0
   24.3606  -13.5686  -18.0012 N   0  0  0  0  0  0  0  0  0  0  0  0
   24.3107  -14.9550  -17.5917 C   0  0  0  0  0  0  0  0  0  0  0  0
   22.9792  -13.0466  -18.0601 O   0  0  0  0  0  0  0  0  0  0  0  0
   22.0181  -13.8441  -18.0357 O   0  0  0  0  0  0  0  0  0  0  0  0
  1  2  1  0
  2  3  1  0
  3  4  2  0
  3 13  1  0
  6  7  2  0
  6  5  1  0
  8  6  1  0
  9  8  1  0
 10  9  1  0
 11 10  1  0
 12 11  1  1
 12 14  1  0
 13 12  1  0
 14 15  2  0
 17 16  1  1
 17 19  1  0
 18 17  1  0
 20 19  1  1
 20 22  1  0
 21 14  1  0
 21 20  1  0
 22 24  1  0
 23 22  2  0
M  END
$$$$
