GRL.pdb
     RDKit          3D

 24 23  0  0  1  0  0  0  0  0999 V2000
   28.5741  -18.6987  -16.1779 N   0  0  0  0  0  0  0  0  0  0  0  0
   28.7216  -19.4801  -14.9936 C   0  0  0  0  0  0  0  0  0  0  0  0
   27.5534  -19.3797  -14.0810 C   0  0  0  0  0  0  0  0  0  0  0  0
   27.2910  -18.2809  -13.5266 O   0  0  0  0  0  0  0  0  0  0  0  0
   19.6688  -19.6679  -11.6910 N   0  0  0  0  0  0  0  0  0  0  0  0
   20.0032  -20.8062  -12.4984 C   0  0  0  0  0  0  0  0  0  0  0  0
   19.2878  -21.8669  -12.2869 N   0  0  0  0  0  0  0  0  0  0  0  0
   21.0304  -20.7811  -13.4517 N   0  0  0  0  0  0  0  0  0  0  0  0
   22.2964  -20.1658  -13.0988 C   0  0  0  0  0  0  0  0  0  0  0  0
   23.2253  -21.1890  -12.4405 C   0  0  0  0  0  0  0  0  0  0  0  0
   24.4360  -21.3116  -13.3339 C   0  0  0  0  0  0  0  0  0  0  0  0
   25.5513  -20.3912  -12.9270 C   0  0  2  0  0  0  0  0  0  0  0  0
   26.6999  -20.4714  -13.7927 N   0  0  0  0  0  0  0  0  0  0  0  0
   26.0069  -20.8525  -11.5666 C   0  0  0  0  0  0  0  0  0  0  0  0
   26.6594  -21.9168  -11.5330 O   0  0  0  0  0  0  0  0  0  0  0  0
   19.4157  -22.7418  -12.8059 C   0  0  0  0  0  0  0  0  0  0  0  0
   28.4497  -20.6857   -6.7868 C   0  0  2  0  0  0  0  0  0  0  0  0
   27.2052  -19.9045   -6.9410 C   0  0  0  0  0  0  0  0  0  0  0  0
   27.3380  -18.5634   -6.2031 C   0  0  0  0  0  0  0  0  0  0  0  0
   26.8095  -19.5841   -8.3422 C   0  0  1  0  0  0  0  0  0  0  0  0
   26.1145  -20.6598   -9.0976 N   0  0  0  0  0  0  0  0  0  0  0  0
   25.7266  -20.1448  -10.3924 C   0  0  0  0  0  0  0  0  0  0  0  0
   24.9122  -21.1969   -8.4266 O   0  0  0  0  0  0  0  0  0  0  0  0
   23.7927  -20.7058   -8.6835 O   0  0  0  0  0  0  0  0  0  0  0  0
  1  2  1  0
  2  3  1  0
  3  4  2  0
  3 13  1  0
  6  7  2  0
  6  5  1  0
  8  6  1  0
  9  8  1  0
 10  9  1  0
 11 10  1  0
 12 11  1  6
 12 14  1  0
 13 12  1  0
 14 15  2  0
 17 16  1  1
 17 19  1  0
 18 17  1  0
 20 19  1  6
 20 22  1  0
 21 14  1  0
 21 20  1  0
 22 24  1  0
 23 22  2  0
M  END
$$$$
