GRL.pdb
     RDKit          3D

 24 23  0  0  1  0  0  0  0  0999 V2000
   28.7474  -21.4905  -18.5752 N   0  0  0  0  0  0  0  0  0  0  0  0
   28.3057  -20.4558  -17.6983 C   0  0  0  0  0  0  0  0  0  0  0  0
   27.3269  -20.9296  -16.6859 C   0  0  0  0  0  0  0  0  0  0  0  0
   26.3551  -21.6426  -17.0477 O   0  0  0  0  0  0  0  0  0  0  0  0
   23.7068  -19.7542  -10.3172 N   0  0  0  0  0  0  0  0  0  0  0  0
   24.2606  -20.6501   -9.3424 C   0  0  0  0  0  0  0  0  0  0  0  0
   23.4822  -20.9366   -8.3455 N   0  0  0  0  0  0  0  0  0  0  0  0
   25.5523  -21.1826   -9.4530 N   0  0  0  0  0  0  0  0  0  0  0  0
   26.4148  -20.7086  -10.5194 C   0  0  0  0  0  0  0  0  0  0  0  0
   25.8980  -21.1848  -11.8793 C   0  0  0  0  0  0  0  0  0  0  0  0
   26.8744  -20.6800  -12.9139 C   0  0  0  0  0  0  0  0  0  0  0  0
   26.4732  -21.0442  -14.3149 C   0  0  2  0  0  0  0  0  0  0  0  0
   27.4257  -20.6191  -15.3085 N   0  0  0  0  0  0  0  0  0  0  0  0
   25.1958  -20.2966  -14.5983 C   0  0  0  0  0  0  0  0  0  0  0  0
   25.2660  -19.0501  -14.5686 O   0  0  0  0  0  0  0  0  0  0  0  0
   23.7322  -21.6112   -7.6151 C   0  0  0  0  0  0  0  0  0  0  0  0
   21.5724  -18.0666  -17.6372 C   0  0  1  0  0  0  0  0  0  0  0  0
   21.3561  -19.4290  -17.1081 C   0  0  0  0  0  0  0  0  0  0  0  0
   20.7255  -20.3146  -18.1938 C   0  0  0  0  0  0  0  0  0  0  0  0
   22.5759  -20.1410  -16.6308 C   0  0  1  0  0  0  0  0  0  0  0  0
   22.7837  -20.1871  -15.1593 N   0  0  0  0  0  0  0  0  0  0  0  0
   23.9865  -20.9411  -14.8813 C   0  0  0  0  0  0  0  0  0  0  0  0
   21.6661  -20.7911  -14.4042 O   0  0  0  0  0  0  0  0  0  0  0  0
   21.6641  -22.0210  -14.1861 O   0  0  0  0  0  0  0  0  0  0  0  0
  1  2  1  0
  2  3  1  0
  3  4  2  0
  3 13  1  0
  6  7  2  0
  6  5  1  0
  8  6  1  0
  9  8  1  0
 10  9  1  0
 11 10  1  0
 12 11  1  1
 12 14  1  0
 13 12  1  0
 14 15  2  0
 17 16  1  1
 17 19  1  0
 18 17  1  0
 20 19  1  6
 20 22  1  0
 21 14  1  0
 21 20  1  0
 22 24  1  0
 23 22  2  0
M  END
$$$$
