GRL.pdb
     RDKit          3D

 24 23  0  0  1  0  0  0  0  0999 V2000
   28.2182  -22.6725  -16.5091 N   0  0  0  0  0  0  0  0  0  0  0  0
   28.1251  -21.6976  -15.4720 C   0  0  0  0  0  0  0  0  0  0  0  0
   26.8141  -21.7150  -14.7731 C   0  0  0  0  0  0  0  0  0  0  0  0
   25.8189  -22.2442  -15.3328 O   0  0  0  0  0  0  0  0  0  0  0  0
   21.5271  -20.5944   -9.2323 N   0  0  0  0  0  0  0  0  0  0  0  0
   22.4136  -21.2493   -8.3133 C   0  0  0  0  0  0  0  0  0  0  0  0
   21.8381  -21.9935   -7.4207 N   0  0  0  0  0  0  0  0  0  0  0  0
   23.8060  -21.0999   -8.3699 N   0  0  0  0  0  0  0  0  0  0  0  0
   24.3668  -20.1119   -9.2729 C   0  0  0  0  0  0  0  0  0  0  0  0
   24.0970  -20.5011  -10.7286 C   0  0  0  0  0  0  0  0  0  0  0  0
   25.4422  -20.7549  -11.3647 C   0  0  0  0  0  0  0  0  0  0  0  0
   25.3374  -21.0962  -12.8239 C   0  0  2  0  0  0  0  0  0  0  0  0
   26.6148  -21.1590  -13.4869 N   0  0  0  0  0  0  0  0  0  0  0  0
   24.5745  -19.9683  -13.4695 C   0  0  0  0  0  0  0  0  0  0  0  0
   25.2023  -18.9025  -13.6411 O   0  0  0  0  0  0  0  0  0  0  0  0
   22.3549  -22.4919   -6.6888 C   0  0  0  0  0  0  0  0  0  0  0  0
   23.5319  -17.2297  -17.5293 C   0  0  2  0  0  0  0  0  0  0  0  0
   22.7600  -18.4507  -17.2191 C   0  0  0  0  0  0  0  0  0  0  0  0
   22.6863  -19.3496  -18.4629 C   0  0  0  0  0  0  0  0  0  0  0  0
   23.2967  -19.2942  -16.1131 C   0  0  1  0  0  0  0  0  0  0  0  0
   22.6434  -19.1424  -14.7862 N   0  0  0  0  0  0  0  0  0  0  0  0
   23.2369  -20.0850  -13.8633 C   0  0  0  0  0  0  0  0  0  0  0  0
   21.1810  -19.3551  -14.7987 O   0  0  0  0  0  0  0  0  0  0  0  0
   20.7282  -20.5192  -14.8045 O   0  0  0  0  0  0  0  0  0  0  0  0
  1  2  1  0
  2  3  1  0
  3  4  2  0
  3 13  1  0
  6  7  2  0
  6  5  1  0
  8  6  1  0
  9  8  1  0
 10  9  1  0
 11 10  1  0
 12 11  1  1
 12 14  1  0
 13 12  1  0
 14 15  2  0
 17 16  1  6
 17 19  1  0
 18 17  1  0
 20 19  1  1
 20 22  1  0
 21 14  1  0
 21 20  1  0
 22 24  1  0
 23 22  2  0
M  END
$$$$
