GRL.pdb
     RDKit          3D

 24 23  0  0  1  0  0  0  0  0999 V2000
   25.7789  -23.7903  -15.2704 N   0  0  0  0  0  0  0  0  0  0  0  0
   25.2599  -22.8258  -14.3566 C   0  0  0  0  0  0  0  0  0  0  0  0
   23.9338  -22.2934  -14.7636 C   0  0  0  0  0  0  0  0  0  0  0  0
   23.5797  -22.3638  -15.9692 O   0  0  0  0  0  0  0  0  0  0  0  0
   17.4985  -23.9045   -9.9403 N   0  0  0  0  0  0  0  0  0  0  0  0
   18.9236  -23.8391   -9.7846 C   0  0  0  0  0  0  0  0  0  0  0  0
   19.3618  -24.0547   -8.5833 N   0  0  0  0  0  0  0  0  0  0  0  0
   19.7885  -23.5620  -10.8521 N   0  0  0  0  0  0  0  0  0  0  0  0
   19.2278  -23.3906  -12.1796 C   0  0  0  0  0  0  0  0  0  0  0  0
   20.3398  -23.1620  -13.2064 C   0  0  0  0  0  0  0  0  0  0  0  0
   20.6653  -21.6884  -13.1705 C   0  0  0  0  0  0  0  0  0  0  0  0
   21.6866  -21.2958  -14.1997 C   0  0  2  0  0  0  0  0  0  0  0  0
   23.0260  -21.6987  -13.8550 N   0  0  0  0  0  0  0  0  0  0  0  0
   21.6894  -19.7894  -14.2412 C   0  0  0  0  0  0  0  0  0  0  0  0
   22.0354  -19.2076  -13.1918 O   0  0  0  0  0  0  0  0  0  0  0  0
   20.3582  -24.0550   -8.3419 C   0  0  0  0  0  0  0  0  0  0  0  0
   24.3548  -17.2638  -17.7776 C   0  0  1  0  0  0  0  0  0  0  0  0
   23.6098  -17.5401  -16.5319 C   0  0  0  0  0  0  0  0  0  0  0  0
   24.2629  -16.7932  -15.3587 C   0  0  0  0  0  0  0  0  0  0  0  0
   22.1702  -17.1525  -16.5373 C   0  0  2  0  0  0  0  0  0  0  0  0
   21.3546  -17.6150  -15.3834 N   0  0  0  0  0  0  0  0  0  0  0  0
   21.3285  -19.0612  -15.3803 C   0  0  0  0  0  0  0  0  0  0  0  0
   19.9619  -17.1204  -15.3840 O   0  0  0  0  0  0  0  0  0  0  0  0
   19.0221  -17.9273  -15.5448 O   0  0  0  0  0  0  0  0  0  0  0  0
  1  2  1  0
  2  3  1  0
  3  4  2  0
  3 13  1  0
  6  7  2  0
  6  5  1  0
  8  6  1  0
  9  8  1  0
 10  9  1  0
 11 10  1  0
 12 11  1  1
 12 14  1  0
 13 12  1  0
 14 15  2  0
 17 16  1  1
 17 19  1  0
 18 17  1  0
 20 19  1  1
 20 22  1  0
 21 14  1  0
 21 20  1  0
 22 24  1  0
 23 22  2  0
M  END
$$$$
