GRL.pdb
     RDKit          3D

 24 23  0  0  1  0  0  0  0  0999 V2000
   25.5907  -23.5730  -14.6402 N   0  0  0  0  0  0  0  0  0  0  0  0
   25.4890  -22.3550  -13.9047 C   0  0  0  0  0  0  0  0  0  0  0  0
   24.0891  -21.8796  -13.7572 C   0  0  0  0  0  0  0  0  0  0  0  0
   23.1910  -22.3524  -14.5013 O   0  0  0  0  0  0  0  0  0  0  0  0
   22.4425  -21.9132   -7.4344 N   0  0  0  0  0  0  0  0  0  0  0  0
   21.0311  -21.6674   -7.5179 C   0  0  0  0  0  0  0  0  0  0  0  0
   20.2735  -22.6250   -7.0810 N   0  0  0  0  0  0  0  0  0  0  0  0
   20.5004  -20.4775   -8.0345 N   0  0  0  0  0  0  0  0  0  0  0  0
   21.2549  -19.7553   -9.0420 C   0  0  0  0  0  0  0  0  0  0  0  0
   21.4333  -20.6138  -10.2967 C   0  0  0  0  0  0  0  0  0  0  0  0
   22.1222  -19.7448  -11.3209 C   0  0  0  0  0  0  0  0  0  0  0  0
   22.3424  -20.4531  -12.6271 C   0  0  2  0  0  0  0  0  0  0  0  0
   23.6981  -20.9051  -12.8082 N   0  0  0  0  0  0  0  0  0  0  0  0
   22.0810  -19.4376  -13.7095 C   0  0  0  0  0  0  0  0  0  0  0  0
   23.0769  -18.8195  -14.1405 O   0  0  0  0  0  0  0  0  0  0  0  0
   19.2537  -22.6253   -7.1866 C   0  0  0  0  0  0  0  0  0  0  0  0
   21.6906  -18.2631  -18.4420 C   0  0  2  0  0  0  0  0  0  0  0  0
   21.2337  -19.5744  -17.9375 C   0  0  0  0  0  0  0  0  0  0  0  0
   22.0448  -20.6983  -18.6005 C   0  0  0  0  0  0  0  0  0  0  0  0
   21.3457  -19.7779  -16.4648 C   0  0  1  0  0  0  0  0  0  0  0  0
   20.6089  -18.8150  -15.6043 N   0  0  0  0  0  0  0  0  0  0  0  0
   20.8028  -19.1840  -14.2192 C   0  0  0  0  0  0  0  0  0  0  0  0
   19.1573  -18.7445  -15.8725 O   0  0  0  0  0  0  0  0  0  0  0  0
   18.7182  -17.8808  -16.6609 O   0  0  0  0  0  0  0  0  0  0  0  0
  1  2  1  0
  2  3  1  0
  3  4  2  0
  3 13  1  0
  6  7  2  0
  6  5  1  0
  8  6  1  0
  9  8  1  0
 10  9  1  0
 11 10  1  0
 12 11  1  1
 12 14  1  0
 13 12  1  0
 14 15  2  0
 17 16  1  6
 17 19  1  0
 18 17  1  0
 20 19  1  1
 20 22  1  0
 21 14  1  0
 21 20  1  0
 22 24  1  0
 23 22  2  0
M  END
$$$$
