GRL.pdb
     RDKit          3D

 24 23  0  0  1  0  0  0  0  0999 V2000
   29.2174  -20.4679  -14.7959 N   0  0  0  0  0  0  0  0  0  0  0  0
   28.3054  -19.3778  -14.9168 C   0  0  0  0  0  0  0  0  0  0  0  0
   26.8840  -19.8093  -14.9493 C   0  0  0  0  0  0  0  0  0  0  0  0
   26.4819  -20.5533  -15.8812 O   0  0  0  0  0  0  0  0  0  0  0  0
   22.9154  -24.7990  -13.3754 N   0  0  0  0  0  0  0  0  0  0  0  0
   24.2028  -24.2953  -13.7605 C   0  0  0  0  0  0  0  0  0  0  0  0
   24.8532  -25.0258  -14.6121 N   0  0  0  0  0  0  0  0  0  0  0  0
   24.7277  -23.0978  -13.2558 N   0  0  0  0  0  0  0  0  0  0  0  0
   24.0826  -22.4789  -12.1126 C   0  0  0  0  0  0  0  0  0  0  0  0
   24.7739  -21.1609  -11.7548 C   0  0  0  0  0  0  0  0  0  0  0  0
   24.0597  -20.0754  -12.5231 C   0  0  0  0  0  0  0  0  0  0  0  0
   24.5825  -19.9166  -13.9224 C   0  0  2  0  0  0  0  0  0  0  0  0
   25.9352  -19.4241  -13.9722 N   0  0  0  0  0  0  0  0  0  0  0  0
   23.7208  -18.8702  -14.5808 C   0  0  0  0  0  0  0  0  0  0  0  0
   23.8109  -17.7115  -14.1237 O   0  0  0  0  0  0  0  0  0  0  0  0
   25.7937  -24.7925  -14.9472 C   0  0  0  0  0  0  0  0  0  0  0  0
   23.9508  -18.4597  -19.5757 C   0  0  1  0  0  0  0  0  0  0  0  0
   23.6709  -17.9816  -18.2061 C   0  0  0  0  0  0  0  0  0  0  0  0
   23.9842  -16.4808  -18.1048 C   0  0  0  0  0  0  0  0  0  0  0  0
   22.2690  -18.1587  -17.7308 C   0  0  2  0  0  0  0  0  0  0  0  0
   22.0578  -18.1212  -16.2595 N   0  0  0  0  0  0  0  0  0  0  0  0
   22.8603  -19.1567  -15.6463 C   0  0  0  0  0  0  0  0  0  0  0  0
   20.6527  -18.3061  -15.8403 O   0  0  0  0  0  0  0  0  0  0  0  0
   20.3526  -19.2659  -15.0993 O   0  0  0  0  0  0  0  0  0  0  0  0
  1  2  1  0
  2  3  1  0
  3  4  2  0
  3 13  1  0
  6  7  2  0
  6  5  1  0
  8  6  1  0
  9  8  1  0
 10  9  1  0
 11 10  1  0
 12 11  1  1
 12 14  1  0
 13 12  1  0
 14 15  2  0
 17 16  1  1
 17 19  1  0
 18 17  1  0
 20 19  1  1
 20 22  1  0
 21 14  1  0
 21 20  1  0
 22 24  1  0
 23 22  2  0
M  END
$$$$
