GRL.pdb
     RDKit          3D

 24 23  0  0  1  0  0  0  0  0999 V2000
   15.7457  -21.0656    1.0506 N   0  0  0  0  0  0  0  0  0  0  0  0
   15.2437  -20.2922    2.1391 C   0  0  0  0  0  0  0  0  0  0  0  0
   16.3062  -19.5458    2.8612 C   0  0  0  0  0  0  0  0  0  0  0  0
   17.5097  -19.6986    2.5263 O   0  0  0  0  0  0  0  0  0  0  0  0
   18.6201  -12.1539    3.8213 N   0  0  0  0  0  0  0  0  0  0  0  0
   19.2383  -12.6020    5.0364 C   0  0  0  0  0  0  0  0  0  0  0  0
   20.2293  -11.8781    5.4555 N   0  0  0  0  0  0  0  0  0  0  0  0
   18.8068  -13.7421    5.7281 N   0  0  0  0  0  0  0  0  0  0  0  0
   17.8237  -14.6079    5.1037 C   0  0  0  0  0  0  0  0  0  0  0  0
   17.5697  -15.8438    5.9704 C   0  0  0  0  0  0  0  0  0  0  0  0
   16.5009  -16.6493    5.2722 C   0  0  0  0  0  0  0  0  0  0  0  0
   17.0464  -17.8791    4.6040 C   0  0  2  0  0  0  0  0  0  0  0  0
   16.0382  -18.6537    3.9269 N   0  0  0  0  0  0  0  0  0  0  0  0
   17.5914  -18.7531    5.7040 C   0  0  0  0  0  0  0  0  0  0  0  0
   16.7510  -19.3938    6.3695 O   0  0  0  0  0  0  0  0  0  0  0  0
   20.7479  -12.0822    6.3160 C   0  0  0  0  0  0  0  0  0  0  0  0
   21.1414  -22.8498    5.7402 C   0  0  2  0  0  0  0  0  0  0  0  0
   20.0866  -21.8327    5.9286 C   0  0  0  0  0  0  0  0  0  0  0  0
   18.9584  -22.4081    6.7986 C   0  0  0  0  0  0  0  0  0  0  0  0
   20.5193  -20.5612    6.5758 C   0  0  2  0  0  0  0  0  0  0  0  0
   19.4391  -19.6714    7.0779 N   0  0  0  0  0  0  0  0  0  0  0  0
   18.9586  -18.8572    5.9832 C   0  0  0  0  0  0  0  0  0  0  0  0
   19.8485  -18.7788    8.1824 O   0  0  0  0  0  0  0  0  0  0  0  0
   20.0417  -17.5660    7.9543 O   0  0  0  0  0  0  0  0  0  0  0  0
  1  2  1  0
  2  3  1  0
  3  4  2  0
  3 13  1  0
  6  7  2  0
  6  5  1  0
  8  6  1  0
  9  8  1  0
 10  9  1  0
 11 10  1  0
 12 11  1  1
 12 14  1  0
 13 12  1  0
 14 15  2  0
 17 16  1  6
 17 19  1  0
 18 17  1  0
 20 19  1  6
 20 22  1  0
 21 14  1  0
 21 20  1  0
 22 24  1  0
 23 22  2  0
M  END
$$$$
