MEY.pdb
     RDKit          3D

 30 30  0  0  1  0  0  0  0  0999 V2000
    7.6315  -11.4381   20.9905 C   0  0  0  0  0  0  0  0  0  0  0  0
    6.3794  -12.6536   21.4560 S   0  0  0  0  0  0  0  0  0  0  0  0
    6.8649  -14.3093   20.8515 C   0  0  0  0  0  0  0  0  0  0  0  0
    7.7695  -14.9186   21.8688 C   0  0  0  0  0  0  0  0  0  0  0  0
    8.2732  -16.2689   21.4208 C   0  0  2  0  0  0  0  0  0  0  0  0
    7.0712  -17.1418   21.4666 N   0  0  0  0  0  0  0  0  0  0  0  0
    9.2125  -16.8199   22.4260 C   0  0  0  0  0  0  0  0  0  0  0  0
    8.8273  -17.7402   23.1760 O   0  0  0  0  0  0  0  0  0  0  0  0
   10.5444  -16.3465   22.5791 N   0  0  0  0  0  0  0  0  0  0  0  0
   11.4967  -16.8814   23.5505 C   0  0  1  0  0  0  0  0  0  0  0  0
   12.8274  -16.2344   23.4397 C   0  0  0  0  0  0  0  0  0  0  0  0
   13.9170  -16.7147   24.3102 C   0  0  0  0  0  0  0  0  0  0  0  0
   15.2430  -16.1190   24.2054 C   0  0  0  0  0  0  0  0  0  0  0  0
   15.8060  -15.4294   25.0689 O   0  0  0  0  0  0  0  0  0  0  0  0
   10.9832  -17.0767   24.8866 C   0  0  0  0  0  0  0  0  0  0  0  0
   10.5963  -18.1728   25.3737 O   0  0  0  0  0  0  0  0  0  0  0  0
   15.9242  -16.3764   22.9804 O   0  0  0  0  0  0  0  0  0  0  0  0
    6.2877  -11.5849   25.1742 O   0  0  0  0  0  0  0  0  0  0  0  0
    6.9358  -12.7323   25.6398 C   0  0  0  0  0  0  0  0  0  0  0  0
    8.1122  -12.6572   26.3530 C   0  0  0  0  0  0  0  0  0  0  0  0
    8.7455  -13.7866   26.8085 C   0  0  0  0  0  0  0  0  0  0  0  0
    8.2240  -15.0635   26.5679 C   0  0  0  0  0  0  0  0  0  0  0  0
    8.9260  -16.2729   27.0741 C   0  0  0  0  0  0  0  0  0  0  0  0
   10.4470  -16.0596   27.1252 C   0  0  2  0  0  0  0  0  0  0  0  0
   10.9030  -15.9307   25.7587 N   0  0  0  0  0  0  0  0  0  0  0  0
   11.0447  -17.2830   27.7097 C   0  0  0  0  0  0  0  0  0  0  0  0
   11.7578  -18.0809   27.0460 O   0  0  0  0  0  0  0  0  0  0  0  0
    7.0493  -15.1508   25.8567 C   0  0  0  0  0  0  0  0  0  0  0  0
    6.4335  -13.9852   25.4099 C   0  0  0  0  0  0  0  0  0  0  0  0
   10.8415  -17.6108   29.0427 O   0  0  0  0  0  0  0  0  0  0  0  0
  2  1  1  0
  2  3  1  0
  4  3  1  0
  5  4  1  0
  5  6  1  1
  7  8  2  0
  7  5  1  0
  9  7  1  0
 10  9  1  0
 10 11  1  1
 11 12  1  0
 13 17  1  0
 13 12  1  0
 14 13  2  0
 15 16  2  0
 15 10  1  0
 18 19  1  0
 19 20  2  0
 20 21  1  0
 22 23  1  0
 22 21  2  0
 24 23  1  6
 24 25  1  0
 25 15  1  0
 26 24  1  0
 27 26  2  0
 28 22  1  0
 29 28  2  0
 29 19  1  0
 30 26  1  0
M  END
$$$$
