MEY.pdb
     RDKit          3D

 30 30  0  0  1  0  0  0  0  0999 V2000
    8.4680  -12.0732   20.8298 C   0  0  0  0  0  0  0  0  0  0  0  0
    7.1927  -12.3978   22.0668 S   0  0  0  0  0  0  0  0  0  0  0  0
    7.1609  -14.1797   22.4745 C   0  0  0  0  0  0  0  0  0  0  0  0
    7.2999  -14.9413   21.1997 C   0  0  0  0  0  0  0  0  0  0  0  0
    7.3487  -16.4291   21.4485 C   0  0  2  0  0  0  0  0  0  0  0  0
    5.9967  -16.7575   21.9713 N   0  0  0  0  0  0  0  0  0  0  0  0
    8.2929  -16.7292   22.5506 C   0  0  0  0  0  0  0  0  0  0  0  0
    7.8406  -17.1019   23.6526 O   0  0  0  0  0  0  0  0  0  0  0  0
    9.7031  -16.6122   22.4123 N   0  0  0  0  0  0  0  0  0  0  0  0
   10.6606  -16.9698   23.4573 C   0  0  1  0  0  0  0  0  0  0  0  0
   12.0138  -17.2301   22.9069 C   0  0  0  0  0  0  0  0  0  0  0  0
   13.0609  -17.7242   23.8206 C   0  0  0  0  0  0  0  0  0  0  0  0
   13.3157  -19.1556   23.9229 C   0  0  0  0  0  0  0  0  0  0  0  0
   13.6971  -19.8985   23.0060 O   0  0  0  0  0  0  0  0  0  0  0  0
   10.5957  -16.1758   24.6625 C   0  0  0  0  0  0  0  0  0  0  0  0
   10.8617  -14.9470   24.7497 O   0  0  0  0  0  0  0  0  0  0  0  0
   13.0942  -19.7164   25.2141 O   0  0  0  0  0  0  0  0  0  0  0  0
    6.2476  -11.6092   25.4471 O   0  0  0  0  0  0  0  0  0  0  0  0
    6.9253  -12.6858   26.0256 C   0  0  0  0  0  0  0  0  0  0  0  0
    6.5986  -13.9900   25.7241 C   0  0  0  0  0  0  0  0  0  0  0  0
    7.2667  -15.0447   26.2946 C   0  0  0  0  0  0  0  0  0  0  0  0
    8.3085  -14.8412   27.2076 C   0  0  0  0  0  0  0  0  0  0  0  0
    9.0205  -15.9993   27.8105 C   0  0  0  0  0  0  0  0  0  0  0  0
   10.4032  -16.2035   27.1716 C   0  0  2  0  0  0  0  0  0  0  0  0
   10.1872  -16.8254   25.8837 N   0  0  0  0  0  0  0  0  0  0  0  0
   11.1522  -17.1480   28.0332 C   0  0  0  0  0  0  0  0  0  0  0  0
   11.4121  -18.3307   27.6879 O   0  0  0  0  0  0  0  0  0  0  0  0
    8.6438  -13.5428   27.5161 C   0  0  0  0  0  0  0  0  0  0  0  0
    7.9456  -12.4971   26.9191 C   0  0  0  0  0  0  0  0  0  0  0  0
   11.6108  -16.7631   29.2851 O   0  0  0  0  0  0  0  0  0  0  0  0
  2  1  1  0
  2  3  1  0
  4  3  1  0
  5  4  1  0
  5  6  1  1
  7  8  2  0
  7  5  1  0
  9  7  1  0
 10  9  1  0
 10 11  1  6
 11 12  1  0
 13 17  1  0
 13 12  1  0
 14 13  2  0
 15 16  2  0
 15 10  1  0
 18 19  1  0
 19 20  2  0
 20 21  1  0
 22 23  1  0
 22 21  2  0
 24 23  1  1
 24 25  1  0
 25 15  1  0
 26 24  1  0
 27 26  2  0
 28 22  1  0
 29 28  2  0
 29 19  1  0
 30 26  1  0
M  END
$$$$
