MEY.pdb
     RDKit          3D

 30 30  0  0  1  0  0  0  0  0999 V2000
    7.8879  -11.1297   20.7649 C   0  0  0  0  0  0  0  0  0  0  0  0
    7.9059  -12.7235   19.9154 S   0  0  0  0  0  0  0  0  0  0  0  0
    6.5592  -13.7831   20.5526 C   0  0  0  0  0  0  0  0  0  0  0  0
    7.1305  -14.6521   21.6218 C   0  0  0  0  0  0  0  0  0  0  0  0
    7.8362  -15.8520   21.0388 C   0  0  2  0  0  0  0  0  0  0  0  0
    6.7375  -16.7031   20.5122 N   0  0  0  0  0  0  0  0  0  0  0  0
    8.4762  -16.6394   22.1190 C   0  0  0  0  0  0  0  0  0  0  0  0
    7.7851  -17.4491   22.7707 O   0  0  0  0  0  0  0  0  0  0  0  0
    9.8529  -16.5162   22.4523 N   0  0  0  0  0  0  0  0  0  0  0  0
   10.5072  -17.2699   23.5202 C   0  0  1  0  0  0  0  0  0  0  0  0
   11.7472  -17.9367   23.0516 C   0  0  0  0  0  0  0  0  0  0  0  0
   12.4953  -17.3259   21.9368 C   0  0  0  0  0  0  0  0  0  0  0  0
   13.7227  -17.9510   21.4604 C   0  0  0  0  0  0  0  0  0  0  0  0
   14.8212  -17.9395   22.0361 O   0  0  0  0  0  0  0  0  0  0  0  0
   10.5757  -16.6066   24.8017 C   0  0  0  0  0  0  0  0  0  0  0  0
   11.1817  -15.5277   25.0407 O   0  0  0  0  0  0  0  0  0  0  0  0
   13.6084  -18.6293   20.2124 O   0  0  0  0  0  0  0  0  0  0  0  0
    6.5542  -11.5819   25.1724 O   0  0  0  0  0  0  0  0  0  0  0  0
    7.0326  -12.7447   25.7825 C   0  0  0  0  0  0  0  0  0  0  0  0
    8.1995  -12.7475   26.5149 C   0  0  0  0  0  0  0  0  0  0  0  0
    8.6660  -13.8919   27.1125 C   0  0  0  0  0  0  0  0  0  0  0  0
    7.9766  -15.1056   27.0034 C   0  0  0  0  0  0  0  0  0  0  0  0
    8.4993  -16.3321   27.6622 C   0  0  0  0  0  0  0  0  0  0  0  0
    9.9476  -16.6238   27.2386 C   0  0  2  0  0  0  0  0  0  0  0  0
    9.8926  -17.2120   25.9184 N   0  0  0  0  0  0  0  0  0  0  0  0
   10.4892  -17.6296   28.1823 C   0  0  0  0  0  0  0  0  0  0  0  0
   10.7350  -18.8186   27.8487 O   0  0  0  0  0  0  0  0  0  0  0  0
    6.8096  -15.1148   26.2744 C   0  0  0  0  0  0  0  0  0  0  0  0
    6.3654  -13.9363   25.6818 C   0  0  0  0  0  0  0  0  0  0  0  0
   10.7559  -17.2989   29.5034 O   0  0  0  0  0  0  0  0  0  0  0  0
  2  1  1  0
  2  3  1  0
  4  3  1  0
  5  4  1  0
  5  6  1  1
  7  8  2  0
  7  5  1  0
  9  7  1  0
 10  9  1  0
 10 11  1  6
 11 12  1  0
 13 17  1  0
 13 12  1  0
 14 13  2  0
 15 16  2  0
 15 10  1  0
 18 19  1  0
 19 20  2  0
 20 21  1  0
 22 23  1  0
 22 21  2  0
 24 23  1  1
 24 25  1  0
 25 15  1  0
 26 24  1  0
 27 26  2  0
 28 22  1  0
 29 28  2  0
 29 19  1  0
 30 26  1  0
M  END
$$$$
