MEY.pdb
     RDKit          3D

 30 30  0  0  1  0  0  0  0  0999 V2000
    9.4174  -12.3253   19.6490 C   0  0  0  0  0  0  0  0  0  0  0  0
    7.8715  -13.0887   19.1109 S   0  0  0  0  0  0  0  0  0  0  0  0
    8.0092  -14.9091   19.2099 C   0  0  0  0  0  0  0  0  0  0  0  0
    9.2178  -15.3172   18.4371 C   0  0  0  0  0  0  0  0  0  0  0  0
    9.5056  -16.7897   18.6005 C   0  0  2  0  0  0  0  0  0  0  0  0
    8.2533  -17.4586   18.1612 N   0  0  0  0  0  0  0  0  0  0  0  0
    9.6594  -17.1210   20.0368 C   0  0  0  0  0  0  0  0  0  0  0  0
    8.6376  -17.2904   20.7332 O   0  0  0  0  0  0  0  0  0  0  0  0
   10.9270  -17.2567   20.6663 N   0  0  0  0  0  0  0  0  0  0  0  0
   11.1085  -17.5283   22.0910 C   0  0  1  0  0  0  0  0  0  0  0  0
   12.4074  -18.1891   22.3707 C   0  0  0  0  0  0  0  0  0  0  0  0
   12.6775  -18.6549   23.7438 C   0  0  0  0  0  0  0  0  0  0  0  0
   13.9806  -19.2183   24.0737 C   0  0  0  0  0  0  0  0  0  0  0  0
   14.6614  -19.9608   23.3502 O   0  0  0  0  0  0  0  0  0  0  0  0
   10.7216  -16.4612   22.9848 C   0  0  0  0  0  0  0  0  0  0  0  0
   11.2735  -15.3311   23.0644 O   0  0  0  0  0  0  0  0  0  0  0  0
   14.4854  -18.8586   25.3568 O   0  0  0  0  0  0  0  0  0  0  0  0
    5.8419  -10.9803   27.6845 O   0  0  0  0  0  0  0  0  0  0  0  0
    6.3370  -11.9863   26.8501 C   0  0  0  0  0  0  0  0  0  0  0  0
    5.7146  -13.2113   26.7493 C   0  0  0  0  0  0  0  0  0  0  0  0
    6.2042  -14.1967   25.9285 C   0  0  0  0  0  0  0  0  0  0  0  0
    7.3570  -13.9999   25.1587 C   0  0  0  0  0  0  0  0  0  0  0  0
    7.8671  -15.0809   24.2739 C   0  0  0  0  0  0  0  0  0  0  0  0
    9.1792  -15.6743   24.8110 C   0  0  2  0  0  0  0  0  0  0  0  0
    9.6039  -16.6857   23.8683 N   0  0  0  0  0  0  0  0  0  0  0  0
    8.8700  -16.3315   26.1024 C   0  0  0  0  0  0  0  0  0  0  0  0
    8.4793  -17.5256   26.1866 O   0  0  0  0  0  0  0  0  0  0  0  0
    7.9870  -12.7800   25.2511 C   0  0  0  0  0  0  0  0  0  0  0  0
    7.4633  -11.8032   26.0932 C   0  0  0  0  0  0  0  0  0  0  0  0
    9.0007  -15.6463   27.3021 O   0  0  0  0  0  0  0  0  0  0  0  0
  2  1  1  0
  2  3  1  0
  4  3  1  0
  5  4  1  0
  5  6  1  1
  7  8  2  0
  7  5  1  0
  9  7  1  0
 10  9  1  0
 10 11  1  6
 11 12  1  0
 13 17  1  0
 13 12  1  0
 14 13  2  0
 15 16  2  0
 15 10  1  0
 18 19  1  0
 19 20  2  0
 20 21  1  0
 22 23  1  0
 22 21  2  0
 24 23  1  6
 24 25  1  0
 25 15  1  0
 26 24  1  0
 27 26  2  0
 28 22  1  0
 29 28  2  0
 29 19  1  0
 30 26  1  0
M  END
$$$$
