MEY.pdb
     RDKit          3D

 30 30  0  0  1  0  0  0  0  0999 V2000
    6.8171  -11.6375   19.1338 C   0  0  0  0  0  0  0  0  0  0  0  0
    7.7179  -12.9385   20.0045 S   0  0  0  0  0  0  0  0  0  0  0  0
    6.7841  -14.5078   19.9159 C   0  0  0  0  0  0  0  0  0  0  0  0
    7.5518  -15.5382   20.6731 C   0  0  0  0  0  0  0  0  0  0  0  0
    9.0381  -15.3856   20.4602 C   0  0  2  0  0  0  0  0  0  0  0  0
    9.2619  -15.8756   19.0751 N   0  0  0  0  0  0  0  0  0  0  0  0
    9.7763  -16.3184   21.3441 C   0  0  0  0  0  0  0  0  0  0  0  0
    9.6826  -16.1841   22.5814 O   0  0  0  0  0  0  0  0  0  0  0  0
   10.5943  -17.3694   20.8461 N   0  0  0  0  0  0  0  0  0  0  0  0
   11.3969  -18.2522   21.6905 C   0  0  1  0  0  0  0  0  0  0  0  0
   12.4752  -18.9255   20.9252 C   0  0  0  0  0  0  0  0  0  0  0  0
   12.2657  -19.1743   19.4865 C   0  0  0  0  0  0  0  0  0  0  0  0
   13.3866  -19.5914   18.6535 C   0  0  0  0  0  0  0  0  0  0  0  0
   14.5581  -19.7495   19.0283 O   0  0  0  0  0  0  0  0  0  0  0  0
   11.7588  -17.7205   22.9841 C   0  0  0  0  0  0  0  0  0  0  0  0
   12.5413  -16.7542   23.1902 O   0  0  0  0  0  0  0  0  0  0  0  0
   13.0650  -19.8300   17.2859 O   0  0  0  0  0  0  0  0  0  0  0  0
   10.2932  -13.8326   30.5025 O   0  0  0  0  0  0  0  0  0  0  0  0
   10.3594  -14.4540   29.2524 C   0  0  0  0  0  0  0  0  0  0  0  0
    9.5730  -14.0415   28.1990 C   0  0  0  0  0  0  0  0  0  0  0  0
    9.6412  -14.6546   26.9728 C   0  0  0  0  0  0  0  0  0  0  0  0
   10.5122  -15.7256   26.7394 C   0  0  0  0  0  0  0  0  0  0  0  0
   10.5714  -16.3723   25.4015 C   0  0  0  0  0  0  0  0  0  0  0  0
   11.3102  -17.7186   25.4604 C   0  0  2  0  0  0  0  0  0  0  0  0
   11.1806  -18.3305   24.1562 N   0  0  0  0  0  0  0  0  0  0  0  0
   10.6061  -18.5652   26.4519 C   0  0  0  0  0  0  0  0  0  0  0  0
    9.5489  -19.1955   26.1861 O   0  0  0  0  0  0  0  0  0  0  0  0
   11.3028  -16.1461   27.7841 C   0  0  0  0  0  0  0  0  0  0  0  0
   11.2082  -15.5018   29.0143 C   0  0  0  0  0  0  0  0  0  0  0  0
   11.0909  -18.7047   27.7447 O   0  0  0  0  0  0  0  0  0  0  0  0
  2  1  1  0
  2  3  1  0
  4  3  1  0
  5  4  1  0
  5  6  1  6
  7  8  2  0
  7  5  1  0
  9  7  1  0
 10  9  1  0
 10 11  1  6
 11 12  1  0
 13 17  1  0
 13 12  1  0
 14 13  2  0
 15 16  2  0
 15 10  1  0
 18 19  1  0
 19 20  2  0
 20 21  1  0
 22 23  1  0
 22 21  2  0
 24 23  1  6
 24 25  1  0
 25 15  1  0
 26 24  1  0
 27 26  2  0
 28 22  1  0
 29 28  2  0
 29 19  1  0
 30 26  1  0
M  END
$$$$
