MEY.pdb
     RDKit          3D

 30 30  0  0  1  0  0  0  0  0999 V2000
    7.5375  -12.3204   27.0904 C   0  0  0  0  0  0  0  0  0  0  0  0
    6.2901  -11.9047   25.8521 S   0  0  0  0  0  0  0  0  0  0  0  0
    5.7592  -13.4168   24.9722 C   0  0  0  0  0  0  0  0  0  0  0  0
    6.9837  -14.1905   24.6164 C   0  0  0  0  0  0  0  0  0  0  0  0
    6.6473  -15.4026   23.7825 C   0  0  2  0  0  0  0  0  0  0  0  0
    5.8169  -16.2464   24.6810 N   0  0  0  0  0  0  0  0  0  0  0  0
    7.8741  -16.1876   23.5091 C   0  0  0  0  0  0  0  0  0  0  0  0
    8.3521  -16.9013   24.4147 O   0  0  0  0  0  0  0  0  0  0  0  0
    8.5398  -16.1672   22.2530 N   0  0  0  0  0  0  0  0  0  0  0  0
    9.8820  -16.7011   22.0290 C   0  0  1  0  0  0  0  0  0  0  0  0
   10.2740  -16.6397   20.5992 C   0  0  0  0  0  0  0  0  0  0  0  0
   11.5940  -17.1698   20.2091 C   0  0  0  0  0  0  0  0  0  0  0  0
   11.9807  -17.1866   18.8039 C   0  0  0  0  0  0  0  0  0  0  0  0
   11.3536  -17.7239   17.8786 O   0  0  0  0  0  0  0  0  0  0  0  0
   10.8827  -16.2995   22.9905 C   0  0  0  0  0  0  0  0  0  0  0  0
   11.3431  -15.1347   23.1310 O   0  0  0  0  0  0  0  0  0  0  0  0
   13.1998  -16.5114   18.5063 O   0  0  0  0  0  0  0  0  0  0  0  0
   11.5399  -15.1710   31.4061 O   0  0  0  0  0  0  0  0  0  0  0  0
   11.2866  -15.4943   30.0703 C   0  0  0  0  0  0  0  0  0  0  0  0
   11.2355  -14.5265   29.0909 C   0  0  0  0  0  0  0  0  0  0  0  0
   10.9863  -14.8484   27.7800 C   0  0  0  0  0  0  0  0  0  0  0  0
   10.7731  -16.1734   27.3812 C   0  0  0  0  0  0  0  0  0  0  0  0
   10.5082  -16.4987   25.9545 C   0  0  0  0  0  0  0  0  0  0  0  0
   11.7828  -16.9763   25.2410 C   0  0  2  0  0  0  0  0  0  0  0  0
   11.4107  -17.3028   23.8820 N   0  0  0  0  0  0  0  0  0  0  0  0
   12.2302  -18.2153   25.9195 C   0  0  0  0  0  0  0  0  0  0  0  0
   11.7962  -19.3575   25.6149 O   0  0  0  0  0  0  0  0  0  0  0  0
   10.8220  -17.1486   28.3508 C   0  0  0  0  0  0  0  0  0  0  0  0
   11.0771  -16.7871   29.6705 C   0  0  0  0  0  0  0  0  0  0  0  0
   13.1676  -18.1715   26.9418 O   0  0  0  0  0  0  0  0  0  0  0  0
  2  1  1  0
  2  3  1  0
  4  3  1  0
  5  4  1  0
  5  6  1  1
  7  8  2  0
  7  5  1  0
  9  7  1  0
 10  9  1  0
 10 11  1  6
 11 12  1  0
 13 17  1  0
 13 12  1  0
 14 13  2  0
 15 16  2  0
 15 10  1  0
 18 19  1  0
 19 20  2  0
 20 21  1  0
 22 23  1  0
 22 21  2  0
 24 23  1  1
 24 25  1  0
 25 15  1  0
 26 24  1  0
 27 26  2  0
 28 22  1  0
 29 28  2  0
 29 19  1  0
 30 26  1  0
M  END
$$$$
