MEY.pdb
     RDKit          3D

 30 30  0  0  1  0  0  0  0  0999 V2000
    6.6197  -13.1067   26.1821 C   0  0  0  0  0  0  0  0  0  0  0  0
    6.5845  -12.0136   24.7447 S   0  0  0  0  0  0  0  0  0  0  0  0
    6.4963  -13.0053   23.2113 C   0  0  0  0  0  0  0  0  0  0  0  0
    7.5317  -14.0751   23.3004 C   0  0  0  0  0  0  0  0  0  0  0  0
    7.4845  -14.9896   22.1007 C   0  0  2  0  0  0  0  0  0  0  0  0
    6.1879  -15.7034   22.2352 N   0  0  0  0  0  0  0  0  0  0  0  0
    8.5334  -16.0303   22.2136 C   0  0  0  0  0  0  0  0  0  0  0  0
    8.4215  -16.9121   23.0899 O   0  0  0  0  0  0  0  0  0  0  0  0
    9.6725  -16.0737   21.3638 N   0  0  0  0  0  0  0  0  0  0  0  0
   10.8655  -16.8739   21.6342 C   0  0  1  0  0  0  0  0  0  0  0  0
   11.7229  -17.0185   20.4318 C   0  0  0  0  0  0  0  0  0  0  0  0
   12.9859  -17.7703   20.5557 C   0  0  0  0  0  0  0  0  0  0  0  0
   13.8533  -17.9242   19.3946 C   0  0  0  0  0  0  0  0  0  0  0  0
   13.5216  -18.3744   18.2876 O   0  0  0  0  0  0  0  0  0  0  0  0
   11.5415  -16.5870   22.8783 C   0  0  0  0  0  0  0  0  0  0  0  0
   12.1597  -15.5234   23.1521 O   0  0  0  0  0  0  0  0  0  0  0  0
   15.2018  -17.5070   19.5903 O   0  0  0  0  0  0  0  0  0  0  0  0
   10.9480  -14.9951   31.2577 O   0  0  0  0  0  0  0  0  0  0  0  0
   10.8682  -15.3095   29.8983 C   0  0  0  0  0  0  0  0  0  0  0  0
   11.0509  -16.5972   29.4436 C   0  0  0  0  0  0  0  0  0  0  0  0
   10.9717  -16.9017   28.1075 C   0  0  0  0  0  0  0  0  0  0  0  0
   10.7023  -15.9173   27.1490 C   0  0  0  0  0  0  0  0  0  0  0  0
   10.6179  -16.2713   25.7070 C   0  0  0  0  0  0  0  0  0  0  0  0
   11.7377  -17.2421   25.3003 C   0  0  2  0  0  0  0  0  0  0  0  0
   11.5140  -17.5901   23.9143 N   0  0  0  0  0  0  0  0  0  0  0  0
   11.5842  -18.4632   26.1252 C   0  0  0  0  0  0  0  0  0  0  0  0
   10.8292  -19.4176   25.8015 O   0  0  0  0  0  0  0  0  0  0  0  0
   10.5177  -14.6276   27.5915 C   0  0  0  0  0  0  0  0  0  0  0  0
   10.6048  -14.3540   28.9535 C   0  0  0  0  0  0  0  0  0  0  0  0
   12.2806  -18.6132   27.3161 O   0  0  0  0  0  0  0  0  0  0  0  0
  2  1  1  0
  2  3  1  0
  4  3  1  0
  5  4  1  0
  5  6  1  1
  7  8  2  0
  7  5  1  0
  9  7  1  0
 10  9  1  0
 10 11  1  6
 11 12  1  0
 13 17  1  0
 13 12  1  0
 14 13  2  0
 15 16  2  0
 15 10  1  0
 18 19  1  0
 19 20  2  0
 20 21  1  0
 22 23  1  0
 22 21  2  0
 24 23  1  1
 24 25  1  0
 25 15  1  0
 26 24  1  0
 27 26  2  0
 28 22  1  0
 29 28  2  0
 29 19  1  0
 30 26  1  0
M  END
$$$$
