MEY.pdb
     RDKit          3D

 30 30  0  0  1  0  0  0  0  0999 V2000
    7.1896  -11.7288   21.5480 C   0  0  0  0  0  0  0  0  0  0  0  0
    7.5973  -12.4008   19.9219 S   0  0  0  0  0  0  0  0  0  0  0  0
    7.5449  -14.2276   19.9729 C   0  0  0  0  0  0  0  0  0  0  0  0
    8.0191  -14.7341   18.6526 C   0  0  0  0  0  0  0  0  0  0  0  0
    8.0050  -16.2424   18.6031 C   0  0  2  0  0  0  0  0  0  0  0  0
    6.5638  -16.5978   18.6771 N   0  0  0  0  0  0  0  0  0  0  0  0
    8.6224  -16.7969   19.8310 C   0  0  0  0  0  0  0  0  0  0  0  0
    7.9081  -16.9865   20.8368 O   0  0  0  0  0  0  0  0  0  0  0  0
   10.0025  -17.1268   19.9198 N   0  0  0  0  0  0  0  0  0  0  0  0
   10.6224  -17.7465   21.0895 C   0  0  1  0  0  0  0  0  0  0  0  0
   11.7160  -18.6760   20.7130 C   0  0  0  0  0  0  0  0  0  0  0  0
   12.4054  -19.4204   21.7837 C   0  0  0  0  0  0  0  0  0  0  0  0
   13.5588  -20.2508   21.4607 C   0  0  0  0  0  0  0  0  0  0  0  0
   14.2690  -20.1554   20.4485 O   0  0  0  0  0  0  0  0  0  0  0  0
   10.8816  -16.8617   22.2018 C   0  0  0  0  0  0  0  0  0  0  0  0
   11.6079  -15.8322   22.1698 O   0  0  0  0  0  0  0  0  0  0  0  0
   13.8667  -21.2552   22.4236 O   0  0  0  0  0  0  0  0  0  0  0  0
   10.4223  -13.9880   30.6093 O   0  0  0  0  0  0  0  0  0  0  0  0
   10.1842  -14.6491   29.4012 C   0  0  0  0  0  0  0  0  0  0  0  0
    9.6080  -14.0054   28.3279 C   0  0  0  0  0  0  0  0  0  0  0  0
    9.3759  -14.6584   27.1430 C   0  0  0  0  0  0  0  0  0  0  0  0
    9.7140  -16.0065   26.9738 C   0  0  0  0  0  0  0  0  0  0  0  0
    9.4561  -16.6924   25.6798 C   0  0  0  0  0  0  0  0  0  0  0  0
   10.5538  -16.3810   24.6502 C   0  0  2  0  0  0  0  0  0  0  0  0
   10.2596  -17.1610   23.4682 N   0  0  0  0  0  0  0  0  0  0  0  0
   11.8385  -16.8511   25.2192 C   0  0  0  0  0  0  0  0  0  0  0  0
   12.7362  -16.0660   25.6237 O   0  0  0  0  0  0  0  0  0  0  0  0
   10.2904  -16.6596   28.0390 C   0  0  0  0  0  0  0  0  0  0  0  0
   10.5117  -15.9670   29.2259 C   0  0  0  0  0  0  0  0  0  0  0  0
   12.1155  -18.2059   25.3350 O   0  0  0  0  0  0  0  0  0  0  0  0
  2  1  1  0
  2  3  1  0
  4  3  1  0
  5  4  1  0
  5  6  1  1
  7  8  2  0
  7  5  1  0
  9  7  1  0
 10  9  1  0
 10 11  1  6
 11 12  1  0
 13 17  1  0
 13 12  1  0
 14 13  2  0
 15 16  2  0
 15 10  1  0
 18 19  1  0
 19 20  2  0
 20 21  1  0
 22 23  1  0
 22 21  2  0
 24 23  1  1
 24 25  1  0
 25 15  1  0
 26 24  1  0
 27 26  2  0
 28 22  1  0
 29 28  2  0
 29 19  1  0
 30 26  1  0
M  END
$$$$
