MEY.pdb
     RDKit          3D

 30 30  0  0  1  0  0  0  0  0999 V2000
    6.7784  -12.8578   18.2090 C   0  0  0  0  0  0  0  0  0  0  0  0
    7.9339  -12.4442   19.5340 S   0  0  0  0  0  0  0  0  0  0  0  0
    7.8964  -13.7432   20.8200 C   0  0  0  0  0  0  0  0  0  0  0  0
    7.0345  -14.8535   20.3210 C   0  0  0  0  0  0  0  0  0  0  0  0
    7.8498  -15.9118   19.6189 C   0  0  2  0  0  0  0  0  0  0  0  0
    6.8474  -16.9219   19.1902 N   0  0  0  0  0  0  0  0  0  0  0  0
    8.7306  -16.6023   20.5904 C   0  0  0  0  0  0  0  0  0  0  0  0
    8.2806  -16.8920   21.7180 O   0  0  0  0  0  0  0  0  0  0  0  0
   10.0766  -16.9545   20.2975 N   0  0  0  0  0  0  0  0  0  0  0  0
   10.9769  -17.6071   21.2461 C   0  0  1  0  0  0  0  0  0  0  0  0
   12.1840  -18.1562   20.5803 C   0  0  0  0  0  0  0  0  0  0  0  0
   13.2370  -18.7580   21.4197 C   0  0  0  0  0  0  0  0  0  0  0  0
   14.4724  -19.2273   20.8050 C   0  0  0  0  0  0  0  0  0  0  0  0
   15.4646  -19.6711   21.4023 O   0  0  0  0  0  0  0  0  0  0  0  0
   11.1893  -16.9048   22.4906 C   0  0  0  0  0  0  0  0  0  0  0  0
   11.6993  -15.7586   22.6113 O   0  0  0  0  0  0  0  0  0  0  0  0
   14.5037  -19.1531   19.3822 O   0  0  0  0  0  0  0  0  0  0  0  0
   10.5294  -14.0545   30.6812 O   0  0  0  0  0  0  0  0  0  0  0  0
   10.3939  -14.5299   29.3740 C   0  0  0  0  0  0  0  0  0  0  0  0
   11.1426  -15.5895   28.9103 C   0  0  0  0  0  0  0  0  0  0  0  0
   11.0064  -16.0533   27.6255 C   0  0  0  0  0  0  0  0  0  0  0  0
   10.1014  -15.4697   26.7307 C   0  0  0  0  0  0  0  0  0  0  0  0
    9.9685  -15.9913   25.3444 C   0  0  0  0  0  0  0  0  0  0  0  0
   11.0971  -16.9774   25.0044 C   0  0  2  0  0  0  0  0  0  0  0  0
   10.7839  -17.5515   23.7143 N   0  0  0  0  0  0  0  0  0  0  0  0
   11.0636  -18.0541   26.0219 C   0  0  0  0  0  0  0  0  0  0  0  0
   10.3796  -19.1026   25.8867 O   0  0  0  0  0  0  0  0  0  0  0  0
    9.3479  -14.4108   27.1829 C   0  0  0  0  0  0  0  0  0  0  0  0
    9.5114  -13.9661   28.4917 C   0  0  0  0  0  0  0  0  0  0  0  0
   11.8005  -17.9532   27.1934 O   0  0  0  0  0  0  0  0  0  0  0  0
  2  1  1  0
  2  3  1  0
  4  3  1  0
  5  4  1  0
  5  6  1  1
  7  8  2  0
  7  5  1  0
  9  7  1  0
 10  9  1  0
 10 11  1  6
 11 12  1  0
 13 17  1  0
 13 12  1  0
 14 13  2  0
 15 16  2  0
 15 10  1  0
 18 19  1  0
 19 20  2  0
 20 21  1  0
 22 23  1  0
 22 21  2  0
 24 23  1  1
 24 25  1  0
 25 15  1  0
 26 24  1  0
 27 26  2  0
 28 22  1  0
 29 28  2  0
 29 19  1  0
 30 26  1  0
M  END
$$$$
