MEY.pdb
     RDKit          3D

 30 30  0  0  1  0  0  0  0  0999 V2000
    7.6461  -10.5984   20.4490 C   0  0  0  0  0  0  0  0  0  0  0  0
    7.9919  -11.8115   21.7416 S   0  0  0  0  0  0  0  0  0  0  0  0
    7.5332  -13.4842   21.1635 C   0  0  0  0  0  0  0  0  0  0  0  0
    7.9557  -14.4596   22.2097 C   0  0  0  0  0  0  0  0  0  0  0  0
    8.1106  -15.8481   21.6390 C   0  0  2  0  0  0  0  0  0  0  0  0
    6.7174  -16.3508   21.5154 N   0  0  0  0  0  0  0  0  0  0  0  0
    8.7741  -16.7321   22.6261 C   0  0  0  0  0  0  0  0  0  0  0  0
    8.0918  -17.5818   23.2347 O   0  0  0  0  0  0  0  0  0  0  0  0
   10.1640  -16.6587   22.9166 N   0  0  0  0  0  0  0  0  0  0  0  0
   10.9114  -17.7053   23.6112 C   0  0  1  0  0  0  0  0  0  0  0  0
   12.1830  -18.0331   22.9203 C   0  0  0  0  0  0  0  0  0  0  0  0
   13.0127  -19.1279   23.4575 C   0  0  0  0  0  0  0  0  0  0  0  0
   14.2722  -19.4675   22.8073 C   0  0  0  0  0  0  0  0  0  0  0  0
   14.4454  -19.6382   21.5912 O   0  0  0  0  0  0  0  0  0  0  0  0
   10.9718  -17.5805   25.0492 C   0  0  0  0  0  0  0  0  0  0  0  0
   11.3657  -18.4708   25.8496 O   0  0  0  0  0  0  0  0  0  0  0  0
   15.3853  -19.6077   23.6860 O   0  0  0  0  0  0  0  0  0  0  0  0
    6.1491  -11.6430   25.3057 O   0  0  0  0  0  0  0  0  0  0  0  0
    6.7883  -12.7935   25.7758 C   0  0  0  0  0  0  0  0  0  0  0  0
    7.9573  -12.7239   26.5017 C   0  0  0  0  0  0  0  0  0  0  0  0
    8.5820  -13.8564   26.9615 C   0  0  0  0  0  0  0  0  0  0  0  0
    8.0588  -15.1310   26.7127 C   0  0  0  0  0  0  0  0  0  0  0  0
    8.7512  -16.3438   27.2238 C   0  0  0  0  0  0  0  0  0  0  0  0
   10.2750  -16.2330   27.0572 C   0  0  2  0  0  0  0  0  0  0  0  0
   10.5549  -16.3333   25.6417 N   0  0  0  0  0  0  0  0  0  0  0  0
   10.8796  -17.3993   27.7426 C   0  0  0  0  0  0  0  0  0  0  0  0
   11.5511  -18.2763   27.1380 O   0  0  0  0  0  0  0  0  0  0  0  0
    6.8914  -15.2128   25.9889 C   0  0  0  0  0  0  0  0  0  0  0  0
    6.2843  -14.0443   25.5379 C   0  0  0  0  0  0  0  0  0  0  0  0
   10.7303  -17.5806   29.1103 O   0  0  0  0  0  0  0  0  0  0  0  0
  2  1  1  0
  2  3  1  0
  4  3  1  0
  5  4  1  0
  5  6  1  1
  7  8  2  0
  7  5  1  0
  9  7  1  0
 10  9  1  0
 10 11  1  6
 11 12  1  0
 13 17  1  0
 13 12  1  0
 14 13  2  0
 15 16  2  0
 15 10  1  0
 18 19  1  0
 19 20  2  0
 20 21  1  0
 22 23  1  0
 22 21  2  0
 24 23  1  6
 24 25  1  0
 25 15  1  0
 26 24  1  0
 27 26  2  0
 28 22  1  0
 29 28  2  0
 29 19  1  0
 30 26  1  0
M  END
$$$$
