MEY.pdb
     RDKit          3D

 30 30  0  0  1  0  0  0  0  0999 V2000
    6.9831  -11.3844   25.1494 C   0  0  0  0  0  0  0  0  0  0  0  0
    6.6458  -12.1468   26.7517 S   0  0  0  0  0  0  0  0  0  0  0  0
    5.8668  -13.7830   26.5102 C   0  0  0  0  0  0  0  0  0  0  0  0
    6.9563  -14.7800   26.3016 C   0  0  0  0  0  0  0  0  0  0  0  0
    7.0591  -15.1896   24.8527 C   0  0  2  0  0  0  0  0  0  0  0  0
    5.8828  -16.0721   24.6373 N   0  0  0  0  0  0  0  0  0  0  0  0
    8.2510  -16.0467   24.6504 C   0  0  0  0  0  0  0  0  0  0  0  0
    8.8530  -16.4942   25.6480 O   0  0  0  0  0  0  0  0  0  0  0  0
    8.7470  -16.3877   23.3623 N   0  0  0  0  0  0  0  0  0  0  0  0
   10.0856  -16.9204   23.1152 C   0  0  1  0  0  0  0  0  0  0  0  0
   10.2267  -17.4541   21.7378 C   0  0  0  0  0  0  0  0  0  0  0  0
   11.5370  -17.9888   21.3223 C   0  0  0  0  0  0  0  0  0  0  0  0
   11.7337  -18.4360   19.9491 C   0  0  0  0  0  0  0  0  0  0  0  0
   11.8243  -19.6129   19.5684 O   0  0  0  0  0  0  0  0  0  0  0  0
   11.1791  -16.1174   23.6115 C   0  0  0  0  0  0  0  0  0  0  0  0
   11.6463  -15.0865   23.0570 O   0  0  0  0  0  0  0  0  0  0  0  0
   11.8255  -17.3927   18.9828 O   0  0  0  0  0  0  0  0  0  0  0  0
    9.9103  -18.0358   30.5280 O   0  0  0  0  0  0  0  0  0  0  0  0
   10.5712  -17.2910   29.5473 C   0  0  0  0  0  0  0  0  0  0  0  0
    9.9094  -16.3528   28.7856 C   0  0  0  0  0  0  0  0  0  0  0  0
   10.5622  -15.6234   27.8234 C   0  0  0  0  0  0  0  0  0  0  0  0
   11.9284  -15.8012   27.5739 C   0  0  0  0  0  0  0  0  0  0  0  0
   12.6154  -14.9970   26.5285 C   0  0  0  0  0  0  0  0  0  0  0  0
   13.0082  -15.8631   25.3212 C   0  0  2  0  0  0  0  0  0  0  0  0
   11.8017  -16.5085   24.8523 N   0  0  0  0  0  0  0  0  0  0  0  0
   13.9420  -16.9043   25.8103 C   0  0  0  0  0  0  0  0  0  0  0  0
   15.0842  -16.6386   26.2690 O   0  0  0  0  0  0  0  0  0  0  0  0
   12.5999  -16.7353   28.3288 C   0  0  0  0  0  0  0  0  0  0  0  0
   11.9070  -17.4574   29.2962 C   0  0  0  0  0  0  0  0  0  0  0  0
   13.5920  -18.2469   25.7849 O   0  0  0  0  0  0  0  0  0  0  0  0
  2  1  1  0
  2  3  1  0
  4  3  1  0
  5  4  1  0
  5  6  1  1
  7  8  2  0
  7  5  1  0
  9  7  1  0
 10  9  1  0
 10 11  1  6
 11 12  1  0
 13 17  1  0
 13 12  1  0
 14 13  2  0
 15 16  2  0
 15 10  1  0
 18 19  1  0
 19 20  2  0
 20 21  1  0
 22 23  1  0
 22 21  2  0
 24 23  1  1
 24 25  1  0
 25 15  1  0
 26 24  1  0
 27 26  2  0
 28 22  1  0
 29 28  2  0
 29 19  1  0
 30 26  1  0
M  END
$$$$
