MEY.pdb
     RDKit          3D

 30 30  0  0  1  0  0  0  0  0999 V2000
    6.7385  -12.6896   26.2183 C   0  0  0  0  0  0  0  0  0  0  0  0
    6.8287  -12.4954   24.4249 S   0  0  0  0  0  0  0  0  0  0  0  0
    6.8946  -14.1375   23.6240 C   0  0  0  0  0  0  0  0  0  0  0  0
    7.0729  -13.9231   22.1588 C   0  0  0  0  0  0  0  0  0  0  0  0
    7.1200  -15.2333   21.4113 C   0  0  2  0  0  0  0  0  0  0  0  0
    5.9460  -15.9885   21.9216 N   0  0  0  0  0  0  0  0  0  0  0  0
    8.3122  -16.0109   21.8237 C   0  0  0  0  0  0  0  0  0  0  0  0
    8.2250  -16.7828   22.8007 O   0  0  0  0  0  0  0  0  0  0  0  0
    9.5630  -15.9197   21.1539 N   0  0  0  0  0  0  0  0  0  0  0  0
   10.7714  -16.6251   21.5768 C   0  0  1  0  0  0  0  0  0  0  0  0
   11.7090  -16.8486   20.4486 C   0  0  0  0  0  0  0  0  0  0  0  0
   11.4686  -17.9944   19.5515 C   0  0  0  0  0  0  0  0  0  0  0  0
   12.3612  -18.2304   18.4237 C   0  0  0  0  0  0  0  0  0  0  0  0
   12.8081  -19.3291   18.0613 O   0  0  0  0  0  0  0  0  0  0  0  0
   11.3535  -16.1769   22.8207 C   0  0  0  0  0  0  0  0  0  0  0  0
   11.5700  -14.9778   23.1424 O   0  0  0  0  0  0  0  0  0  0  0  0
   12.7321  -17.0637   17.6943 O   0  0  0  0  0  0  0  0  0  0  0  0
   10.9757  -14.8226   31.2204 O   0  0  0  0  0  0  0  0  0  0  0  0
   10.8825  -15.1751   29.8713 C   0  0  0  0  0  0  0  0  0  0  0  0
   10.9489  -14.2288   28.8721 C   0  0  0  0  0  0  0  0  0  0  0  0
   10.8569  -14.5793   27.5481 C   0  0  0  0  0  0  0  0  0  0  0  0
   10.6913  -15.9130   27.1556 C   0  0  0  0  0  0  0  0  0  0  0  0
   10.5974  -16.2695   25.7149 C   0  0  0  0  0  0  0  0  0  0  0  0
   11.9305  -16.8202   25.1843 C   0  0  2  0  0  0  0  0  0  0  0  0
   11.7212  -17.1727   23.7972 N   0  0  0  0  0  0  0  0  0  0  0  0
   12.2320  -18.0551   25.9457 C   0  0  0  0  0  0  0  0  0  0  0  0
   13.1359  -18.1167   26.8202 O   0  0  0  0  0  0  0  0  0  0  0  0
   10.6240  -16.8669   28.1450 C   0  0  0  0  0  0  0  0  0  0  0  0
   10.7209  -16.4766   29.4775 C   0  0  0  0  0  0  0  0  0  0  0  0
   11.5161  -19.2232   25.7249 O   0  0  0  0  0  0  0  0  0  0  0  0
  2  1  1  0
  2  3  1  0
  4  3  1  0
  5  4  1  0
  5  6  1  1
  7  8  2  0
  7  5  1  0
  9  7  1  0
 10  9  1  0
 10 11  1  6
 11 12  1  0
 13 17  1  0
 13 12  1  0
 14 13  2  0
 15 16  2  0
 15 10  1  0
 18 19  1  0
 19 20  2  0
 20 21  1  0
 22 23  1  0
 22 21  2  0
 24 23  1  1
 24 25  1  0
 25 15  1  0
 26 24  1  0
 27 26  2  0
 28 22  1  0
 29 28  2  0
 29 19  1  0
 30 26  1  0
M  END
$$$$
