YKH.pdb
     RDKit          3D

 32 33  0  0  1  0  0  0  0  0999 V2000
   16.5762  -17.1295  -23.8815 O   0  0  0  0  0  0  0  0  0  0  0  0
   17.3122  -16.3890  -22.9651 C   0  0  0  0  0  0  0  0  0  0  0  0
   17.9901  -16.9804  -21.9180 C   0  0  0  0  0  0  0  0  0  0  0  0
   18.7154  -16.1993  -21.0230 C   0  0  0  0  0  0  0  0  0  0  0  0
   18.7791  -14.8385  -21.1506 C   0  0  0  0  0  0  0  0  0  0  0  0
   19.5614  -14.0285  -20.1809 C   0  0  0  0  0  0  0  0  0  0  0  0
   20.9184  -13.7587  -20.7969 C   0  0  2  0  0  0  0  0  0  0  0  0
   21.6705  -14.9889  -20.7351 N   0  0  0  0  0  0  0  0  0  0  0  0
   21.6700  -12.7129  -20.0693 C   0  0  0  0  0  0  0  0  0  0  0  0
   22.1756  -12.9588  -18.9591 O   0  0  0  0  0  0  0  0  0  0  0  0
   18.1005  -14.2546  -22.1974 C   0  0  0  0  0  0  0  0  0  0  0  0
   17.3735  -15.0213  -23.0970 C   0  0  0  0  0  0  0  0  0  0  0  0
   21.8507  -11.3830  -20.5995 N   0  0  0  0  0  0  0  0  0  0  0  0
   22.5690  -10.3670  -19.9349 C   0  0  1  0  0  0  0  0  0  0  0  0
   22.9939   -9.2394  -20.7915 C   0  0  0  0  0  0  0  0  0  0  0  0
   23.7369   -8.1437  -20.1590 C   0  0  0  0  0  0  0  0  0  0  0  0
   24.0640   -6.9578  -20.9965 C   0  0  0  0  0  0  0  0  0  0  0  0
   24.9232   -5.9581  -20.1954 C   0  0  0  0  0  0  0  0  0  0  0  0
   25.0269   -4.7110  -20.9183 N   0  0  0  0  0  0  0  0  0  0  0  0
   21.8756   -9.8507  -18.7230 C   0  0  0  0  0  0  0  0  0  0  0  0
   20.6517   -9.5436  -18.8063 O   0  0  0  0  0  0  0  0  0  0  0  0
   22.4747   -9.6708  -17.4674 N   0  0  0  0  0  0  0  0  0  0  0  0
   21.7683   -9.2581  -16.2525 C   0  0  1  0  0  0  0  0  0  0  0  0
   22.4646   -9.6880  -15.0273 C   0  0  0  0  0  0  0  0  0  0  0  0
   21.8066   -9.1539  -13.8231 C   0  0  0  0  0  0  0  0  0  0  0  0
   20.6365   -8.3568  -13.8058 C   0  0  0  0  0  0  0  0  0  0  0  0
   20.3114   -8.0451  -12.5543 N   0  0  0  0  0  0  0  0  0  0  0  0
   21.2289   -8.6110  -11.7503 C   0  0  0  0  0  0  0  0  0  0  0  0
   22.0971   -9.2571  -12.5197 N   0  0  0  0  0  0  0  0  0  0  0  0
   21.7413   -7.7763  -16.3230 C   0  0  0  0  0  0  0  0  0  0  0  0
   22.7383   -7.1782  -16.8121 O   0  0  0  0  0  0  0  0  0  0  0  0
   20.6787   -7.0466  -15.8790 O   0  0  0  0  0  0  0  0  0  0  0  0
  1  2  1  0
  2  3  2  0
  3  4  1  0
  5  6  1  0
  5  4  2  0
  6  7  1  0
  7  8  1  1
  9  7  1  0
 10  9  2  0
 11  5  1  0
 12 11  2  0
 12  2  1  0
 13  9  1  0
 14 20  1  0
 14 13  1  0
 14 15  1  6
 16 15  1  0
 17 16  1  0
 18 17  1  0
 19 18  1  0
 20 22  1  0
 21 20  2  0
 22 23  1  0
 23 30  1  0
 23 24  1  1
 25 24  1  0
 26 25  2  0
 27 26  1  0
 28 27  1  0
 28 29  2  0
 29 25  1  0
 30 31  2  0
 30 32  1  0
M  END
$$$$
