YKH.pdb
     RDKit          3D

 32 33  0  0  1  0  0  0  0  0999 V2000
   23.7921  -21.6972   -9.7135 O   0  0  0  0  0  0  0  0  0  0  0  0
   24.4248  -21.0288  -10.7541 C   0  0  0  0  0  0  0  0  0  0  0  0
   24.0597  -21.2098  -12.0730 C   0  0  0  0  0  0  0  0  0  0  0  0
   24.7214  -20.5191  -13.0841 C   0  0  0  0  0  0  0  0  0  0  0  0
   25.7413  -19.6501  -12.8070 C   0  0  0  0  0  0  0  0  0  0  0  0
   26.4305  -18.9252  -13.9059 C   0  0  0  0  0  0  0  0  0  0  0  0
   27.3378  -19.9129  -14.6096 C   0  0  2  0  0  0  0  0  0  0  0  0
   28.3899  -20.2632  -13.6861 N   0  0  0  0  0  0  0  0  0  0  0  0
   27.9540  -19.3433  -15.8279 C   0  0  0  0  0  0  0  0  0  0  0  0
   28.7250  -18.3699  -15.7467 O   0  0  0  0  0  0  0  0  0  0  0  0
   26.1007  -19.4740  -11.4889 C   0  0  0  0  0  0  0  0  0  0  0  0
   25.4496  -20.1563  -10.4711 C   0  0  0  0  0  0  0  0  0  0  0  0
   27.6970  -19.8770  -17.1438 N   0  0  0  0  0  0  0  0  0  0  0  0
   27.9735  -19.1793  -18.3383 C   0  0  1  0  0  0  0  0  0  0  0  0
   28.3598  -20.0304  -19.4838 C   0  0  0  0  0  0  0  0  0  0  0  0
   29.6046  -20.7994  -19.3738 C   0  0  0  0  0  0  0  0  0  0  0  0
   29.9973  -21.6465  -20.5327 C   0  0  0  0  0  0  0  0  0  0  0  0
   31.3308  -22.3652  -20.2420 C   0  0  0  0  0  0  0  0  0  0  0  0
   32.3707  -21.3909  -20.0009 N   0  0  0  0  0  0  0  0  0  0  0  0
   26.8853  -18.2474  -18.7424 C   0  0  0  0  0  0  0  0  0  0  0  0
   25.7307  -18.7163  -18.9570 O   0  0  0  0  0  0  0  0  0  0  0  0
   27.0318  -16.8624  -18.9100 N   0  0  0  0  0  0  0  0  0  0  0  0
   25.9462  -15.9390  -19.2478 C   0  0  1  0  0  0  0  0  0  0  0  0
   25.3570  -15.3078  -18.0539 C   0  0  0  0  0  0  0  0  0  0  0  0
   24.3523  -16.1832  -17.4272 C   0  0  0  0  0  0  0  0  0  0  0  0
   23.8043  -16.0167  -16.1323 C   0  0  0  0  0  0  0  0  0  0  0  0
   22.9251  -16.9820  -15.8779 N   0  0  0  0  0  0  0  0  0  0  0  0
   22.8784  -17.7757  -16.9625 C   0  0  0  0  0  0  0  0  0  0  0  0
   23.7260  -17.2854  -17.8593 N   0  0  0  0  0  0  0  0  0  0  0  0
   26.5872  -14.9066  -20.0990 C   0  0  0  0  0  0  0  0  0  0  0  0
   27.8457  -14.8902  -20.1815 O   0  0  0  0  0  0  0  0  0  0  0  0
   25.8622  -13.9820  -20.7905 O   0  0  0  0  0  0  0  0  0  0  0  0
  1  2  1  0
  2  3  2  0
  3  4  1  0
  5  6  1  0
  5  4  2  0
  6  7  1  0
  7  8  1  1
  9  7  1  0
 10  9  2  0
 11  5  1  0
 12 11  2  0
 12  2  1  0
 13  9  1  0
 14 20  1  0
 14 13  1  0
 14 15  1  6
 16 15  1  0
 17 16  1  0
 18 17  1  0
 19 18  1  0
 20 22  1  0
 21 20  2  0
 22 23  1  0
 23 30  1  0
 23 24  1  1
 25 24  1  0
 26 25  2  0
 27 26  1  0
 28 27  1  0
 28 29  2  0
 29 25  1  0
 30 31  2  0
 30 32  1  0
M  END
$$$$
