YKH.pdb
     RDKit          3D

 32 33  0  0  1  0  0  0  0  0999 V2000
   23.1587  -26.9420  -12.9342 O   0  0  0  0  0  0  0  0  0  0  0  0
   23.2396  -25.5626  -13.0770 C   0  0  0  0  0  0  0  0  0  0  0  0
   22.1544  -24.7368  -12.8617 C   0  0  0  0  0  0  0  0  0  0  0  0
   22.2809  -23.3594  -13.0163 C   0  0  0  0  0  0  0  0  0  0  0  0
   23.4687  -22.7871  -13.3816 C   0  0  0  0  0  0  0  0  0  0  0  0
   23.5760  -21.3134  -13.5392 C   0  0  0  0  0  0  0  0  0  0  0  0
   22.7487  -20.9188  -14.7449 C   0  0  2  0  0  0  0  0  0  0  0  0
   23.0945  -21.8209  -15.8169 N   0  0  0  0  0  0  0  0  0  0  0  0
   23.0244  -19.5351  -15.1894 C   0  0  0  0  0  0  0  0  0  0  0  0
   22.7921  -18.5736  -14.4343 O   0  0  0  0  0  0  0  0  0  0  0  0
   24.5476  -23.6165  -13.5948 C   0  0  0  0  0  0  0  0  0  0  0  0
   24.4356  -24.9914  -13.4443 C   0  0  0  0  0  0  0  0  0  0  0  0
   23.5652  -19.2374  -16.4938 N   0  0  0  0  0  0  0  0  0  0  0  0
   23.6685  -17.9320  -17.0182 C   0  0  1  0  0  0  0  0  0  0  0  0
   24.9238  -17.6484  -17.7460 C   0  0  0  0  0  0  0  0  0  0  0  0
   25.9900  -18.6547  -17.6859 C   0  0  0  0  0  0  0  0  0  0  0  0
   27.2217  -18.4036  -18.4824 C   0  0  0  0  0  0  0  0  0  0  0  0
   28.1723  -19.6151  -18.3930 C   0  0  0  0  0  0  0  0  0  0  0  0
   29.3344  -19.3889  -19.2220 N   0  0  0  0  0  0  0  0  0  0  0  0
   22.4990  -17.5363  -17.8499 C   0  0  0  0  0  0  0  0  0  0  0  0
   22.0570  -18.3541  -18.7072 O   0  0  0  0  0  0  0  0  0  0  0  0
   21.8286  -16.3071  -17.7642 N   0  0  0  0  0  0  0  0  0  0  0  0
   20.6135  -16.0671  -16.9822 C   0  0  1  0  0  0  0  0  0  0  0  0
   20.5551  -16.9017  -15.7694 C   0  0  0  0  0  0  0  0  0  0  0  0
   19.3060  -16.6740  -15.0235 C   0  0  0  0  0  0  0  0  0  0  0  0
   18.2019  -15.9109  -15.4746 C   0  0  0  0  0  0  0  0  0  0  0  0
   17.2393  -15.9085  -14.5566 N   0  0  0  0  0  0  0  0  0  0  0  0
   17.6752  -16.6443  -13.5188 C   0  0  0  0  0  0  0  0  0  0  0  0
   18.8923  -17.0832  -13.8172 N   0  0  0  0  0  0  0  0  0  0  0  0
   20.6911  -14.6344  -16.6045 C   0  0  0  0  0  0  0  0  0  0  0  0
   19.7765  -13.8582  -16.9943 O   0  0  0  0  0  0  0  0  0  0  0  0
   21.7134  -14.1349  -15.8534 O   0  0  0  0  0  0  0  0  0  0  0  0
  1  2  1  0
  2  3  2  0
  3  4  1  0
  5  6  1  0
  5  4  2  0
  6  7  1  0
  7  8  1  6
  9  7  1  0
 10  9  2  0
 11  5  1  0
 12 11  2  0
 12  2  1  0
 13  9  1  0
 14 20  1  0
 14 13  1  0
 14 15  1  6
 16 15  1  0
 17 16  1  0
 18 17  1  0
 19 18  1  0
 20 22  1  0
 21 20  2  0
 22 23  1  0
 23 30  1  0
 23 24  1  1
 25 24  1  0
 26 25  2  0
 27 26  1  0
 28 27  1  0
 28 29  2  0
 29 25  1  0
 30 31  2  0
 30 32  1  0
M  END
$$$$
