YKH.pdb
     RDKit          3D

 32 33  0  0  1  0  0  0  0  0999 V2000
   13.9019  -16.8027  -26.1764 O   0  0  0  0  0  0  0  0  0  0  0  0
   14.4131  -15.7823  -25.3844 C   0  0  0  0  0  0  0  0  0  0  0  0
   15.7188  -15.3485  -25.4976 C   0  0  0  0  0  0  0  0  0  0  0  0
   16.1891  -14.3225  -24.6832 C   0  0  0  0  0  0  0  0  0  0  0  0
   15.3833  -13.7189  -23.7568 C   0  0  0  0  0  0  0  0  0  0  0  0
   15.9111  -12.6252  -22.9002 C   0  0  0  0  0  0  0  0  0  0  0  0
   16.7682  -13.2577  -21.8237 C   0  0  2  0  0  0  0  0  0  0  0  0
   15.8835  -13.9703  -20.9337 N   0  0  0  0  0  0  0  0  0  0  0  0
   17.5161  -12.2535  -21.0360 C   0  0  0  0  0  0  0  0  0  0  0  0
   16.9901  -11.7102  -20.0477 O   0  0  0  0  0  0  0  0  0  0  0  0
   14.0816  -14.1563  -23.6488 C   0  0  0  0  0  0  0  0  0  0  0  0
   13.5997  -15.1782  -24.4544 C   0  0  0  0  0  0  0  0  0  0  0  0
   18.8649  -11.8620  -21.3675 N   0  0  0  0  0  0  0  0  0  0  0  0
   19.6100  -10.9200  -20.6276 C   0  0  1  0  0  0  0  0  0  0  0  0
   21.0776  -11.0740  -20.7182 C   0  0  0  0  0  0  0  0  0  0  0  0
   21.6712  -12.2967  -20.1655 C   0  0  0  0  0  0  0  0  0  0  0  0
   23.1260  -12.5188  -20.3867 C   0  0  0  0  0  0  0  0  0  0  0  0
   23.5480  -13.8933  -19.8282 C   0  0  0  0  0  0  0  0  0  0  0  0
   24.9408  -14.1375  -20.1267 N   0  0  0  0  0  0  0  0  0  0  0  0
   19.2288   -9.5099  -20.9145 C   0  0  0  0  0  0  0  0  0  0  0  0
   19.1450   -9.1350  -22.1192 O   0  0  0  0  0  0  0  0  0  0  0  0
   18.9479   -8.5378  -19.9429 N   0  0  0  0  0  0  0  0  0  0  0  0
   18.5642   -7.1533  -20.2281 C   0  0  1  0  0  0  0  0  0  0  0  0
   17.6658   -6.5989  -19.2003 C   0  0  0  0  0  0  0  0  0  0  0  0
   17.2718   -5.2173  -19.5236 C   0  0  0  0  0  0  0  0  0  0  0  0
   17.6078   -4.5184  -20.7083 C   0  0  0  0  0  0  0  0  0  0  0  0
   17.0932   -3.2921  -20.6798 N   0  0  0  0  0  0  0  0  0  0  0  0
   16.4312   -3.1636  -19.5164 C   0  0  0  0  0  0  0  0  0  0  0  0
   16.5508   -4.3085  -18.8544 N   0  0  0  0  0  0  0  0  0  0  0  0
   19.8458   -6.4057  -20.2333 C   0  0  0  0  0  0  0  0  0  0  0  0
   19.8193   -5.1664  -20.4663 O   0  0  0  0  0  0  0  0  0  0  0  0
   21.0428   -7.0133  -19.9949 O   0  0  0  0  0  0  0  0  0  0  0  0
  1  2  1  0
  2  3  2  0
  3  4  1  0
  5  6  1  0
  5  4  2  0
  6  7  1  0
  7  8  1  1
  9  7  1  0
 10  9  2  0
 11  5  1  0
 12 11  2  0
 12  2  1  0
 13  9  1  0
 14 20  1  0
 14 13  1  0
 14 15  1  6
 16 15  1  0
 17 16  1  0
 18 17  1  0
 19 18  1  0
 20 22  1  0
 21 20  2  0
 22 23  1  0
 23 30  1  0
 23 24  1  1
 25 24  1  0
 26 25  2  0
 27 26  1  0
 28 27  1  0
 28 29  2  0
 29 25  1  0
 30 31  2  0
 30 32  1  0
M  END
$$$$
