YKH.pdb
     RDKit          3D

 32 33  0  0  1  0  0  0  0  0999 V2000
   29.7732  -20.1430   -3.3382 O   0  0  0  0  0  0  0  0  0  0  0  0
   28.9492  -19.9907   -4.4462 C   0  0  0  0  0  0  0  0  0  0  0  0
   27.7386  -20.6448   -4.5568 C   0  0  0  0  0  0  0  0  0  0  0  0
   26.9447  -20.4627   -5.6854 C   0  0  0  0  0  0  0  0  0  0  0  0
   27.3333  -19.6407   -6.7077 C   0  0  0  0  0  0  0  0  0  0  0  0
   26.4659  -19.4641   -7.9013 C   0  0  0  0  0  0  0  0  0  0  0  0
   26.7833  -20.5844   -8.8697 C   0  0  2  0  0  0  0  0  0  0  0  0
   28.2177  -20.7410   -8.8903 N   0  0  0  0  0  0  0  0  0  0  0  0
   26.3244  -20.2883  -10.2445 C   0  0  0  0  0  0  0  0  0  0  0  0
   26.2720  -19.1132  -10.6508 O   0  0  0  0  0  0  0  0  0  0  0  0
   28.5423  -18.9909   -6.5912 C   0  0  0  0  0  0  0  0  0  0  0  0
   29.3437  -19.1634   -5.4716 C   0  0  0  0  0  0  0  0  0  0  0  0
   25.9231  -21.3256  -11.1639 N   0  0  0  0  0  0  0  0  0  0  0  0
   25.5353  -21.0811  -12.4980 C   0  0  1  0  0  0  0  0  0  0  0  0
   26.3098  -21.8184  -13.5189 C   0  0  0  0  0  0  0  0  0  0  0  0
   26.0155  -21.5430  -14.9297 C   0  0  0  0  0  0  0  0  0  0  0  0
   26.7431  -22.3395  -15.9548 C   0  0  0  0  0  0  0  0  0  0  0  0
   26.4231  -21.8115  -17.3684 C   0  0  0  0  0  0  0  0  0  0  0  0
   27.2782  -22.4570  -18.3383 N   0  0  0  0  0  0  0  0  0  0  0  0
   24.0775  -21.2697  -12.7324 C   0  0  0  0  0  0  0  0  0  0  0  0
   23.4967  -22.2552  -12.1933 O   0  0  0  0  0  0  0  0  0  0  0  0
   23.2726  -20.4307  -13.5172 N   0  0  0  0  0  0  0  0  0  0  0  0
   21.8165  -20.3195  -13.4042 C   0  0  1  0  0  0  0  0  0  0  0  0
   21.3805  -18.9386  -13.1325 C   0  0  0  0  0  0  0  0  0  0  0  0
   19.9163  -18.8121  -13.2260 C   0  0  0  0  0  0  0  0  0  0  0  0
   19.0148  -19.8594  -13.5346 C   0  0  0  0  0  0  0  0  0  0  0  0
   17.7651  -19.4039  -13.5373 N   0  0  0  0  0  0  0  0  0  0  0  0
   17.8169  -18.0932  -13.2410 C   0  0  0  0  0  0  0  0  0  0  0  0
   19.0921  -17.7691  -13.0624 N   0  0  0  0  0  0  0  0  0  0  0  0
   21.3061  -20.7579  -14.7265 C   0  0  0  0  0  0  0  0  0  0  0  0
   20.0631  -20.9172  -14.8699 O   0  0  0  0  0  0  0  0  0  0  0  0
   22.1340  -20.9916  -15.7842 O   0  0  0  0  0  0  0  0  0  0  0  0
  1  2  1  0
  2  3  2  0
  3  4  1  0
  5  6  1  0
  5  4  2  0
  6  7  1  0
  7  8  1  6
  9  7  1  0
 10  9  2  0
 11  5  1  0
 12 11  2  0
 12  2  1  0
 13  9  1  0
 14 20  1  0
 14 13  1  0
 14 15  1  6
 16 15  1  0
 17 16  1  0
 18 17  1  0
 19 18  1  0
 20 22  1  0
 21 20  2  0
 22 23  1  0
 23 30  1  0
 23 24  1  6
 25 24  1  0
 26 25  2  0
 27 26  1  0
 28 27  1  0
 28 29  2  0
 29 25  1  0
 30 31  2  0
 30 32  1  0
M  END
$$$$
