YKH.pdb
     RDKit          3D

 32 33  0  0  1  0  0  0  0  0999 V2000
   14.1600  -17.8632  -18.6845 O   0  0  0  0  0  0  0  0  0  0  0  0
   14.9074  -16.8008  -18.1920 C   0  0  0  0  0  0  0  0  0  0  0  0
   15.9208  -16.2141  -18.9231 C   0  0  0  0  0  0  0  0  0  0  0  0
   16.6442  -15.1513  -18.3900 C   0  0  0  0  0  0  0  0  0  0  0  0
   16.3778  -14.6603  -17.1411 C   0  0  0  0  0  0  0  0  0  0  0  0
   17.1656  -13.5241  -16.5962 C   0  0  0  0  0  0  0  0  0  0  0  0
   18.5873  -14.0055  -16.3949 C   0  0  2  0  0  0  0  0  0  0  0  0
   18.5545  -15.0286  -15.3776 N   0  0  0  0  0  0  0  0  0  0  0  0
   19.4901  -12.9242  -15.9432 C   0  0  0  0  0  0  0  0  0  0  0  0
   19.2487  -12.3004  -14.8938 O   0  0  0  0  0  0  0  0  0  0  0  0
   15.3654  -15.2500  -16.4167 C   0  0  0  0  0  0  0  0  0  0  0  0
   14.6362  -16.3103  -16.9360 C   0  0  0  0  0  0  0  0  0  0  0  0
   20.6711  -12.5467  -16.6815 N   0  0  0  0  0  0  0  0  0  0  0  0
   21.5379  -11.5046  -16.2907 C   0  0  1  0  0  0  0  0  0  0  0  0
   22.9783  -11.8293  -16.3645 C   0  0  0  0  0  0  0  0  0  0  0  0
   23.3982  -13.1708  -15.9438 C   0  0  0  0  0  0  0  0  0  0  0  0
   24.8250  -13.5425  -16.1458 C   0  0  0  0  0  0  0  0  0  0  0  0
   25.0936  -14.9553  -15.5879 C   0  0  0  0  0  0  0  0  0  0  0  0
   26.4785  -15.3107  -15.7984 N   0  0  0  0  0  0  0  0  0  0  0  0
   21.2703  -10.2201  -16.9937 C   0  0  0  0  0  0  0  0  0  0  0  0
   20.8277  -10.2547  -18.1777 O   0  0  0  0  0  0  0  0  0  0  0  0
   21.4708   -8.9446  -16.4451 N   0  0  0  0  0  0  0  0  0  0  0  0
   20.6142   -7.7821  -16.6901 C   0  0  1  0  0  0  0  0  0  0  0  0
   19.2158   -8.0245  -16.2945 C   0  0  0  0  0  0  0  0  0  0  0  0
   18.4217   -6.7857  -16.3517 C   0  0  0  0  0  0  0  0  0  0  0  0
   18.8981   -5.5173  -16.7628 C   0  0  0  0  0  0  0  0  0  0  0  0
   17.9222   -4.6160  -16.6952 N   0  0  0  0  0  0  0  0  0  0  0  0
   16.8220   -5.2507  -16.2535 C   0  0  0  0  0  0  0  0  0  0  0  0
   17.1410   -6.5249  -16.0588 N   0  0  0  0  0  0  0  0  0  0  0  0
   21.1965   -6.7071  -15.8495 C   0  0  0  0  0  0  0  0  0  0  0  0
   21.4330   -5.5880  -16.3811 O   0  0  0  0  0  0  0  0  0  0  0  0
   21.4810   -6.8906  -14.5288 O   0  0  0  0  0  0  0  0  0  0  0  0
  1  2  1  0
  2  3  2  0
  3  4  1  0
  5  6  1  0
  5  4  2  0
  6  7  1  0
  7  8  1  1
  9  7  1  0
 10  9  2  0
 11  5  1  0
 12 11  2  0
 12  2  1  0
 13  9  1  0
 14 20  1  0
 14 13  1  0
 14 15  1  6
 16 15  1  0
 17 16  1  0
 18 17  1  0
 19 18  1  0
 20 22  1  0
 21 20  2  0
 22 23  1  0
 23 30  1  0
 23 24  1  1
 25 24  1  0
 26 25  2  0
 27 26  1  0
 28 27  1  0
 28 29  2  0
 29 25  1  0
 30 31  2  0
 30 32  1  0
M  END
$$$$
