YKH.pdb
     RDKit          3D

 32 33  0  0  1  0  0  0  0  0999 V2000
   28.9974  -20.2531   -3.4244 O   0  0  0  0  0  0  0  0  0  0  0  0
   28.4465  -20.1417   -4.6948 C   0  0  0  0  0  0  0  0  0  0  0  0
   27.2878  -20.8007   -5.0535 C   0  0  0  0  0  0  0  0  0  0  0  0
   26.7711  -20.6601   -6.3383 C   0  0  0  0  0  0  0  0  0  0  0  0
   27.3867  -19.8748   -7.2743 C   0  0  0  0  0  0  0  0  0  0  0  0
   26.8131  -19.7421   -8.6388 C   0  0  0  0  0  0  0  0  0  0  0  0
   26.9905  -21.0712   -9.3430 C   0  0  2  0  0  0  0  0  0  0  0  0
   28.4089  -21.2978   -9.4820 N   0  0  0  0  0  0  0  0  0  0  0  0
   26.3800  -21.0812  -10.6904 C   0  0  0  0  0  0  0  0  0  0  0  0
   26.8045  -20.3204  -11.5790 O   0  0  0  0  0  0  0  0  0  0  0  0
   28.5425  -19.2199   -6.9101 C   0  0  0  0  0  0  0  0  0  0  0  0
   29.0686  -19.3512   -5.6328 C   0  0  0  0  0  0  0  0  0  0  0  0
   25.2848  -21.9555  -11.0344 N   0  0  0  0  0  0  0  0  0  0  0  0
   24.6057  -21.9094  -12.2700 C   0  0  1  0  0  0  0  0  0  0  0  0
   24.3098  -23.2279  -12.8699 C   0  0  0  0  0  0  0  0  0  0  0  0
   23.7098  -23.2496  -14.2087 C   0  0  0  0  0  0  0  0  0  0  0  0
   24.4263  -24.0023  -15.2740 C   0  0  0  0  0  0  0  0  0  0  0  0
   23.7378  -23.7854  -16.6372 C   0  0  0  0  0  0  0  0  0  0  0  0
   24.4224  -24.5447  -17.6588 N   0  0  0  0  0  0  0  0  0  0  0  0
   23.3705  -21.0794  -12.2334 C   0  0  0  0  0  0  0  0  0  0  0  0
   22.5725  -21.2178  -11.2623 O   0  0  0  0  0  0  0  0  0  0  0  0
   23.0054  -20.1353  -13.2046 N   0  0  0  0  0  0  0  0  0  0  0  0
   21.8117  -19.2887  -13.1443 C   0  0  1  0  0  0  0  0  0  0  0  0
   21.7958  -18.2678  -14.2065 C   0  0  0  0  0  0  0  0  0  0  0  0
   20.5819  -17.4376  -14.1319 C   0  0  0  0  0  0  0  0  0  0  0  0
   19.5630  -17.5500  -13.1552 C   0  0  0  0  0  0  0  0  0  0  0  0
   18.6103  -16.6491  -13.3793 N   0  0  0  0  0  0  0  0  0  0  0  0
   18.9704  -15.9498  -14.4700 C   0  0  0  0  0  0  0  0  0  0  0  0
   20.1326  -16.4320  -14.8940 N   0  0  0  0  0  0  0  0  0  0  0  0
   20.6792  -20.2286  -13.3321 C   0  0  0  0  0  0  0  0  0  0  0  0
   19.7250  -20.1947  -12.5078 O   0  0  0  0  0  0  0  0  0  0  0  0
   20.6383  -21.1212  -14.3618 O   0  0  0  0  0  0  0  0  0  0  0  0
  1  2  1  0
  2  3  2  0
  3  4  1  0
  5  6  1  0
  5  4  2  0
  6  7  1  0
  7  8  1  6
  9  7  1  0
 10  9  2  0
 11  5  1  0
 12 11  2  0
 12  2  1  0
 13  9  1  0
 14 20  1  0
 14 13  1  0
 14 15  1  1
 16 15  1  0
 17 16  1  0
 18 17  1  0
 19 18  1  0
 20 22  1  0
 21 20  2  0
 22 23  1  0
 23 30  1  0
 23 24  1  6
 25 24  1  0
 26 25  2  0
 27 26  1  0
 28 27  1  0
 28 29  2  0
 29 25  1  0
 30 31  2  0
 30 32  1  0
M  END
$$$$
