YKH.pdb
     RDKit          3D

 32 33  0  0  1  0  0  0  0  0999 V2000
   21.0606  -13.6068  -19.8067 O   0  0  0  0  0  0  0  0  0  0  0  0
   22.0272  -13.9497  -18.8697 C   0  0  0  0  0  0  0  0  0  0  0  0
   23.3441  -13.5550  -18.9945 C   0  0  0  0  0  0  0  0  0  0  0  0
   24.2795  -13.9216  -18.0312 C   0  0  0  0  0  0  0  0  0  0  0  0
   23.9285  -14.6748  -16.9442 C   0  0  0  0  0  0  0  0  0  0  0  0
   24.9475  -15.0518  -15.9304 C   0  0  0  0  0  0  0  0  0  0  0  0
   25.6926  -16.2613  -16.4556 C   0  0  2  0  0  0  0  0  0  0  0  0
   26.0929  -15.9645  -17.8100 N   0  0  0  0  0  0  0  0  0  0  0  0
   24.8518  -17.4783  -16.4715 C   0  0  0  0  0  0  0  0  0  0  0  0
   24.2458  -17.8108  -17.5063 O   0  0  0  0  0  0  0  0  0  0  0  0
   22.6129  -15.0654  -16.8256 C   0  0  0  0  0  0  0  0  0  0  0  0
   21.6701  -14.7070  -17.7785 C   0  0  0  0  0  0  0  0  0  0  0  0
   24.6957  -18.3230  -15.3120 N   0  0  0  0  0  0  0  0  0  0  0  0
   23.9005  -19.4881  -15.2945 C   0  0  1  0  0  0  0  0  0  0  0  0
   24.4986  -20.6423  -14.5905 C   0  0  0  0  0  0  0  0  0  0  0  0
   23.8290  -21.9416  -14.7181 C   0  0  0  0  0  0  0  0  0  0  0  0
   24.4696  -23.1155  -14.0651 C   0  0  0  0  0  0  0  0  0  0  0  0
   23.7646  -24.4179  -14.4963 C   0  0  0  0  0  0  0  0  0  0  0  0
   24.3893  -25.5504  -13.8513 N   0  0  0  0  0  0  0  0  0  0  0  0
   22.5177  -19.2508  -14.7970 C   0  0  0  0  0  0  0  0  0  0  0  0
   22.3622  -18.6702  -13.6844 O   0  0  0  0  0  0  0  0  0  0  0  0
   21.3445  -19.6238  -15.4696 N   0  0  0  0  0  0  0  0  0  0  0  0
   19.9849  -19.3372  -15.0063 C   0  0  1  0  0  0  0  0  0  0  0  0
   19.3056  -18.3381  -15.8495 C   0  0  0  0  0  0  0  0  0  0  0  0
   17.9458  -18.0595  -15.3579 C   0  0  0  0  0  0  0  0  0  0  0  0
   17.3605  -18.6084  -14.1913 C   0  0  0  0  0  0  0  0  0  0  0  0
   16.1218  -18.1484  -14.0387 N   0  0  0  0  0  0  0  0  0  0  0  0
   15.8752  -17.3164  -15.0660 C   0  0  0  0  0  0  0  0  0  0  0  0
   16.9624  -17.2808  -15.8275 N   0  0  0  0  0  0  0  0  0  0  0  0
   19.2783  -20.6385  -15.0988 C   0  0  0  0  0  0  0  0  0  0  0  0
   19.8328  -21.5819  -15.7263 O   0  0  0  0  0  0  0  0  0  0  0  0
   18.0567  -20.8446  -14.5296 O   0  0  0  0  0  0  0  0  0  0  0  0
  1  2  1  0
  2  3  2  0
  3  4  1  0
  5  6  1  0
  5  4  2  0
  6  7  1  0
  7  8  1  6
  9  7  1  0
 10  9  2  0
 11  5  1  0
 12 11  2  0
 12  2  1  0
 13  9  1  0
 14 20  1  0
 14 13  1  0
 14 15  1  1
 16 15  1  0
 17 16  1  0
 18 17  1  0
 19 18  1  0
 20 22  1  0
 21 20  2  0
 22 23  1  0
 23 30  1  0
 23 24  1  6
 25 24  1  0
 26 25  2  0
 27 26  1  0
 28 27  1  0
 28 29  2  0
 29 25  1  0
 30 31  2  0
 30 32  1  0
M  END
$$$$
