YKH.pdb
     RDKit          3D

 32 33  0  0  1  0  0  0  0  0999 V2000
   20.8860  -10.2920  -18.5955 O   0  0  0  0  0  0  0  0  0  0  0  0
   20.7239  -11.5850  -18.1141 C   0  0  0  0  0  0  0  0  0  0  0  0
   21.5644  -12.1249  -17.1613 C   0  0  0  0  0  0  0  0  0  0  0  0
   21.3648  -13.4254  -16.7074 C   0  0  0  0  0  0  0  0  0  0  0  0
   20.3429  -14.2001  -17.1844 C   0  0  0  0  0  0  0  0  0  0  0  0
   20.1523  -15.5856  -16.6820 C   0  0  0  0  0  0  0  0  0  0  0  0
   21.1885  -16.4638  -17.3519 C   0  0  2  0  0  0  0  0  0  0  0  0
   20.8526  -16.5316  -18.7538 N   0  0  0  0  0  0  0  0  0  0  0  0
   21.2004  -17.8386  -16.8059 C   0  0  0  0  0  0  0  0  0  0  0  0
   20.2956  -18.6405  -17.1009 O   0  0  0  0  0  0  0  0  0  0  0  0
   19.5079  -13.6555  -18.1350 C   0  0  0  0  0  0  0  0  0  0  0  0
   19.6954  -12.3604  -18.5964 C   0  0  0  0  0  0  0  0  0  0  0  0
   22.2401  -18.3086  -15.9225 N   0  0  0  0  0  0  0  0  0  0  0  0
   22.2728  -19.6082  -15.3749 C   0  0  1  0  0  0  0  0  0  0  0  0
   23.5934  -20.0405  -14.8699 C   0  0  0  0  0  0  0  0  0  0  0  0
   24.6384  -20.3357  -15.8567 C   0  0  0  0  0  0  0  0  0  0  0  0
   25.9317  -20.8726  -15.3528 C   0  0  0  0  0  0  0  0  0  0  0  0
   26.9921  -20.8515  -16.4728 C   0  0  0  0  0  0  0  0  0  0  0  0
   28.2678  -21.2833  -15.9486 N   0  0  0  0  0  0  0  0  0  0  0  0
   21.2321  -19.8366  -14.3354 C   0  0  0  0  0  0  0  0  0  0  0  0
   20.9907  -18.9158  -13.5030 O   0  0  0  0  0  0  0  0  0  0  0  0
   20.4781  -21.0112  -14.1947 N   0  0  0  0  0  0  0  0  0  0  0  0
   19.2303  -21.1210  -13.4356 C   0  0  1  0  0  0  0  0  0  0  0  0
   18.2835  -20.0385  -13.7562 C   0  0  0  0  0  0  0  0  0  0  0  0
   16.9965  -20.2326  -13.0673 C   0  0  0  0  0  0  0  0  0  0  0  0
   16.8243  -20.8097  -11.7859 C   0  0  0  0  0  0  0  0  0  0  0  0
   15.5342  -20.8344  -11.4628 N   0  0  0  0  0  0  0  0  0  0  0  0
   14.8548  -20.2930  -12.4894 C   0  0  0  0  0  0  0  0  0  0  0  0
   15.7364  -19.9471  -13.4201 N   0  0  0  0  0  0  0  0  0  0  0  0
   18.6592  -22.4275  -13.8454 C   0  0  0  0  0  0  0  0  0  0  0  0
   19.2937  -23.1266  -14.6819 O   0  0  0  0  0  0  0  0  0  0  0  0
   17.4780  -22.8927  -13.3482 O   0  0  0  0  0  0  0  0  0  0  0  0
  1  2  1  0
  2  3  2  0
  3  4  1  0
  5  6  1  0
  5  4  2  0
  6  7  1  0
  7  8  1  6
  9  7  1  0
 10  9  2  0
 11  5  1  0
 12 11  2  0
 12  2  1  0
 13  9  1  0
 14 20  1  0
 14 13  1  0
 14 15  1  1
 16 15  1  0
 17 16  1  0
 18 17  1  0
 19 18  1  0
 20 22  1  0
 21 20  2  0
 22 23  1  0
 23 30  1  0
 23 24  1  6
 25 24  1  0
 26 25  2  0
 27 26  1  0
 28 27  1  0
 28 29  2  0
 29 25  1  0
 30 31  2  0
 30 32  1  0
M  END
$$$$
