YKH.pdb
     RDKit          3D

 32 33  0  0  1  0  0  0  0  0999 V2000
   30.0024  -19.2472   -4.2125 O   0  0  0  0  0  0  0  0  0  0  0  0
   29.2509  -19.6916   -5.2930 C   0  0  0  0  0  0  0  0  0  0  0  0
   29.8314  -20.0551   -6.4917 C   0  0  0  0  0  0  0  0  0  0  0  0
   29.0395  -20.4949   -7.5484 C   0  0  0  0  0  0  0  0  0  0  0  0
   27.6787  -20.5800   -7.4348 C   0  0  0  0  0  0  0  0  0  0  0  0
   26.8571  -21.0534   -8.5790 C   0  0  0  0  0  0  0  0  0  0  0  0
   26.6005  -19.8655   -9.4829 C   0  0  2  0  0  0  0  0  0  0  0  0
   25.9144  -18.8682   -8.6973 N   0  0  0  0  0  0  0  0  0  0  0  0
   25.7519  -20.2132  -10.6436 C   0  0  0  0  0  0  0  0  0  0  0  0
   24.5124  -20.1383  -10.5616 O   0  0  0  0  0  0  0  0  0  0  0  0
   27.1057  -20.2158   -6.2363 C   0  0  0  0  0  0  0  0  0  0  0  0
   27.8832  -19.7756   -5.1746 C   0  0  0  0  0  0  0  0  0  0  0  0
   26.3075  -20.6475  -11.9026 N   0  0  0  0  0  0  0  0  0  0  0  0
   25.5638  -20.7308  -13.0984 C   0  0  1  0  0  0  0  0  0  0  0  0
   26.3728  -20.7971  -14.3340 C   0  0  0  0  0  0  0  0  0  0  0  0
   27.1023  -19.5897  -14.7380 C   0  0  0  0  0  0  0  0  0  0  0  0
   27.9816  -19.6827  -15.9350 C   0  0  0  0  0  0  0  0  0  0  0  0
   28.6519  -18.3215  -16.2130 C   0  0  0  0  0  0  0  0  0  0  0  0
   29.5460  -18.4366  -17.3426 N   0  0  0  0  0  0  0  0  0  0  0  0
   24.5567  -21.8270  -13.0915 C   0  0  0  0  0  0  0  0  0  0  0  0
   24.7459  -22.8227  -12.3352 O   0  0  0  0  0  0  0  0  0  0  0  0
   23.3891  -21.8532  -13.8686 N   0  0  0  0  0  0  0  0  0  0  0  0
   22.0359  -22.0471  -13.3427 C   0  0  1  0  0  0  0  0  0  0  0  0
   21.6800  -21.0390  -12.3289 C   0  0  0  0  0  0  0  0  0  0  0  0
   20.3298  -21.2754  -11.7909 C   0  0  0  0  0  0  0  0  0  0  0  0
   19.4445  -22.3010  -12.2024 C   0  0  0  0  0  0  0  0  0  0  0  0
   18.3085  -22.2308  -11.5141 N   0  0  0  0  0  0  0  0  0  0  0  0
   18.4191  -21.1937  -10.6652 C   0  0  0  0  0  0  0  0  0  0  0  0
   19.6160  -20.6483  -10.8469 N   0  0  0  0  0  0  0  0  0  0  0  0
   21.1528  -21.9046  -14.5264 C   0  0  0  0  0  0  0  0  0  0  0  0
   21.4167  -21.0049  -15.3701 O   0  0  0  0  0  0  0  0  0  0  0  0
   20.0726  -22.7114  -14.7289 O   0  0  0  0  0  0  0  0  0  0  0  0
  1  2  1  0
  2  3  2  0
  3  4  1  0
  5  6  1  0
  5  4  2  0
  6  7  1  0
  7  8  1  1
  9  7  1  0
 10  9  2  0
 11  5  1  0
 12 11  2  0
 12  2  1  0
 13  9  1  0
 14 20  1  0
 14 13  1  0
 14 15  1  6
 16 15  1  0
 17 16  1  0
 18 17  1  0
 19 18  1  0
 20 22  1  0
 21 20  2  0
 22 23  1  0
 23 30  1  0
 23 24  1  1
 25 24  1  0
 26 25  2  0
 27 26  1  0
 28 27  1  0
 28 29  2  0
 29 25  1  0
 30 31  2  0
 30 32  1  0
M  END
$$$$
