KGQ.pdb
     RDKit          3D

 23 22  0  0  1  0  0  0  0  0999 V2000
    8.3567  -13.8969   17.6822 N   0  0  0  0  0  0  0  0  0  0  0  0
    8.4168  -15.1064   16.9217 C   0  0  1  0  0  0  0  0  0  0  0  0
    8.8233  -14.8895   15.4814 C   0  0  0  0  0  0  0  0  0  0  0  0
    7.9517  -13.8446   14.8120 C   0  0  0  0  0  0  0  0  0  0  0  0
    7.4914  -14.2813   13.4586 C   0  0  0  0  0  0  0  0  0  0  0  0
    6.6416  -13.2392   12.7660 C   0  0  0  0  0  0  0  0  0  0  0  0
    6.2485  -13.6102   11.4419 N   0  0  0  0  0  0  0  0  0  0  0  0
    9.2303  -16.1601   17.5640 C   0  0  0  0  0  0  0  0  0  0  0  0
    9.4199  -17.2267   16.9246 O   0  0  0  0  0  0  0  0  0  0  0  0
    9.7547  -15.9185   18.8635 N   0  0  0  0  0  0  0  0  0  0  0  0
   10.5251  -16.9585   19.5120 C   0  0  0  0  0  0  0  0  0  0  0  0
   11.0753  -16.4184   20.7713 C   0  0  0  0  0  0  0  0  0  0  0  0
   11.7211  -15.3491   20.7831 O   0  0  0  0  0  0  0  0  0  0  0  0
    6.8148  -15.6223   24.5302 N   0  0  0  0  0  0  0  0  0  0  0  0
    7.2268  -14.9606   23.2927 C   0  0  0  0  0  0  0  0  0  0  0  0
    6.3919  -14.2356   22.7314 O   0  0  0  0  0  0  0  0  0  0  0  0
    8.6039  -15.2516   22.8737 C   0  0  0  0  0  0  0  0  0  0  0  0
    9.4153  -16.1668   23.6968 C   0  0  0  0  0  0  0  0  0  0  0  0
   10.8145  -16.4466   23.2632 C   0  0  2  0  0  0  0  0  0  0  0  0
   10.8779  -17.1064   21.9838 N   0  0  0  0  0  0  0  0  0  0  0  0
   11.7315  -16.9534   24.2839 C   0  0  0  0  0  0  0  0  0  0  0  0
   12.1152  -18.1396   24.2456 O   0  0  0  0  0  0  0  0  0  0  0  0
   12.1778  -16.1329   25.2903 O   0  0  0  0  0  0  0  0  0  0  0  0
  2  1  1  1
  3  2  1  0
  4  3  1  0
  5  4  1  0
  6  5  1  0
  7  6  1  0
  8  2  1  0
  8 10  1  0
  9  8  2  0
 11 10  1  0
 12 11  1  0
 13 12  2  0
 15 14  1  0
 16 15  2  0
 17 15  1  0
 18 17  1  0
 19 18  1  1
 19 20  1  0
 20 12  1  0
 21 23  1  0
 21 19  1  0
 22 21  2  0
M  END
$$$$
