KGQ.pdb
     RDKit          3D

 23 22  0  0  1  0  0  0  0  0999 V2000
    8.6764  -16.1439   17.5927 N   0  0  0  0  0  0  0  0  0  0  0  0
    8.6400  -15.1315   18.6020 C   0  0  1  0  0  0  0  0  0  0  0  0
    8.2006  -13.7814   18.0815 C   0  0  0  0  0  0  0  0  0  0  0  0
    7.5191  -13.9036   16.7324 C   0  0  0  0  0  0  0  0  0  0  0  0
    8.4911  -13.8020   15.6015 C   0  0  0  0  0  0  0  0  0  0  0  0
    7.8333  -13.9650   14.2492 C   0  0  0  0  0  0  0  0  0  0  0  0
    8.7622  -14.0002   13.1623 N   0  0  0  0  0  0  0  0  0  0  0  0
    7.8717  -15.5291   19.8004 C   0  0  0  0  0  0  0  0  0  0  0  0
    6.7539  -16.0787   19.6253 O   0  0  0  0  0  0  0  0  0  0  0  0
    8.4297  -15.2729   21.0831 N   0  0  0  0  0  0  0  0  0  0  0  0
    7.6587  -15.6084   22.2615 C   0  0  0  0  0  0  0  0  0  0  0  0
    8.4549  -15.2642   23.4565 C   0  0  0  0  0  0  0  0  0  0  0  0
    9.6175  -14.8201   23.3471 O   0  0  0  0  0  0  0  0  0  0  0  0
    6.3305  -12.2263   28.2162 N   0  0  0  0  0  0  0  0  0  0  0  0
    6.2636  -12.0587   26.7648 C   0  0  0  0  0  0  0  0  0  0  0  0
    5.5621  -11.1323   26.3319 O   0  0  0  0  0  0  0  0  0  0  0  0
    7.0537  -13.0324   26.0005 C   0  0  0  0  0  0  0  0  0  0  0  0
    7.8571  -14.0254   26.7368 C   0  0  0  0  0  0  0  0  0  0  0  0
    8.6015  -15.0494   25.9486 C   0  0  2  0  0  0  0  0  0  0  0  0
    7.9104  -15.4331   24.7438 N   0  0  0  0  0  0  0  0  0  0  0  0
    9.2160  -16.1421   26.7023 C   0  0  0  0  0  0  0  0  0  0  0  0
    8.8667  -17.3207   26.4910 O   0  0  0  0  0  0  0  0  0  0  0  0
   10.1793  -15.8836   27.6459 O   0  0  0  0  0  0  0  0  0  0  0  0
  2  1  1  6
  3  2  1  0
  4  3  1  0
  5  4  1  0
  6  5  1  0
  7  6  1  0
  8  2  1  0
  8 10  1  0
  9  8  2  0
 11 10  1  0
 12 11  1  0
 13 12  2  0
 15 14  1  0
 16 15  2  0
 17 15  1  0
 18 17  1  0
 19 18  1  1
 19 20  1  0
 20 12  1  0
 21 23  1  0
 21 19  1  0
 22 21  2  0
M  END
$$$$
