KGQ.pdb
     RDKit          3D

 23 22  0  0  1  0  0  0  0  0999 V2000
    6.9057  -20.5014   21.2291 N   0  0  0  0  0  0  0  0  0  0  0  0
    6.2907  -19.2608   20.8721 C   0  0  1  0  0  0  0  0  0  0  0  0
    5.0689  -19.4272   19.9968 C   0  0  0  0  0  0  0  0  0  0  0  0
    5.4349  -19.9908   18.6374 C   0  0  0  0  0  0  0  0  0  0  0  0
    6.4444  -19.1437   17.9320 C   0  0  0  0  0  0  0  0  0  0  0  0
    6.7529  -19.6414   16.5374 C   0  0  0  0  0  0  0  0  0  0  0  0
    7.5957  -18.7606   15.7896 N   0  0  0  0  0  0  0  0  0  0  0  0
    6.0132  -18.3909   22.0344 C   0  0  0  0  0  0  0  0  0  0  0  0
    5.5044  -17.2618   21.8143 O   0  0  0  0  0  0  0  0  0  0  0  0
    6.3325  -18.8695   23.3349 N   0  0  0  0  0  0  0  0  0  0  0  0
    6.0332  -18.0364   24.4803 C   0  0  0  0  0  0  0  0  0  0  0  0
    7.2000  -17.1725   24.7495 C   0  0  0  0  0  0  0  0  0  0  0  0
    8.2432  -17.2724   24.0694 O   0  0  0  0  0  0  0  0  0  0  0  0
    5.4597  -11.1072   25.2815 N   0  0  0  0  0  0  0  0  0  0  0  0
    6.2222  -11.9046   26.2416 C   0  0  0  0  0  0  0  0  0  0  0  0
    6.2837  -11.4844   27.4067 O   0  0  0  0  0  0  0  0  0  0  0  0
    6.8250  -13.1215   25.6827 C   0  0  0  0  0  0  0  0  0  0  0  0
    7.6646  -13.9607   26.5569 C   0  0  0  0  0  0  0  0  0  0  0  0
    8.1894  -15.2430   26.0052 C   0  0  2  0  0  0  0  0  0  0  0  0
    7.1519  -16.2181   25.7835 N   0  0  0  0  0  0  0  0  0  0  0  0
    9.4262  -15.7562   26.5938 C   0  0  0  0  0  0  0  0  0  0  0  0
   10.5013  -15.1489   26.4170 O   0  0  0  0  0  0  0  0  0  0  0  0
    9.4174  -16.9063   27.3437 O   0  0  0  0  0  0  0  0  0  0  0  0
  2  1  1  1
  3  2  1  0
  4  3  1  0
  5  4  1  0
  6  5  1  0
  7  6  1  0
  8  2  1  0
  8 10  1  0
  9  8  2  0
 11 10  1  0
 12 11  1  0
 13 12  2  0
 15 14  1  0
 16 15  2  0
 17 15  1  0
 18 17  1  0
 19 18  1  1
 19 20  1  0
 20 12  1  0
 21 23  1  0
 21 19  1  0
 22 21  2  0
M  END
$$$$
