KGQ.pdb
     RDKit          3D

 23 22  0  0  1  0  0  0  0  0999 V2000
    6.4734  -17.1442   19.5883 N   0  0  0  0  0  0  0  0  0  0  0  0
    5.8075  -16.2451   20.4789 C   0  0  1  0  0  0  0  0  0  0  0  0
    4.3703  -16.6271   20.7529 C   0  0  0  0  0  0  0  0  0  0  0  0
    4.0758  -18.0409   20.2903 C   0  0  0  0  0  0  0  0  0  0  0  0
    2.6575  -18.4331   20.5527 C   0  0  0  0  0  0  0  0  0  0  0  0
    2.3440  -19.8378   20.0874 C   0  0  0  0  0  0  0  0  0  0  0  0
    0.9902  -20.2310   20.3284 N   0  0  0  0  0  0  0  0  0  0  0  0
    6.5547  -16.0037   21.7312 C   0  0  0  0  0  0  0  0  0  0  0  0
    7.0079  -14.8473   21.9305 O   0  0  0  0  0  0  0  0  0  0  0  0
    6.7234  -17.0823   22.6424 N   0  0  0  0  0  0  0  0  0  0  0  0
    7.9947  -17.7735   22.6813 C   0  0  0  0  0  0  0  0  0  0  0  0
    8.9605  -16.9375   23.4220 C   0  0  0  0  0  0  0  0  0  0  0  0
    9.6437  -16.0723   22.8343 O   0  0  0  0  0  0  0  0  0  0  0  0
   10.3798  -14.1505   29.9198 N   0  0  0  0  0  0  0  0  0  0  0  0
    9.8561  -13.9378   28.5709 C   0  0  0  0  0  0  0  0  0  0  0  0
    8.9973  -13.0547   28.4279 O   0  0  0  0  0  0  0  0  0  0  0  0
   10.4311  -14.8189   27.5465 C   0  0  0  0  0  0  0  0  0  0  0  0
    9.5187  -15.5366   26.6376 C   0  0  0  0  0  0  0  0  0  0  0  0
   10.1181  -16.3976   25.5777 C   0  0  2  0  0  0  0  0  0  0  0  0
    9.1252  -17.1057   24.8101 N   0  0  0  0  0  0  0  0  0  0  0  0
   11.3026  -17.1712   25.9491 C   0  0  0  0  0  0  0  0  0  0  0  0
   12.4394  -16.6741   25.8199 O   0  0  0  0  0  0  0  0  0  0  0  0
   11.1769  -18.4467   26.4416 O   0  0  0  0  0  0  0  0  0  0  0  0
  2  1  1  1
  3  2  1  0
  4  3  1  0
  5  4  1  0
  6  5  1  0
  7  6  1  0
  8  2  1  0
  8 10  1  0
  9  8  2  0
 11 10  1  0
 12 11  1  0
 13 12  2  0
 15 14  1  0
 16 15  2  0
 17 15  1  0
 18 17  1  0
 19 18  1  1
 19 20  1  0
 20 12  1  0
 21 23  1  0
 21 19  1  0
 22 21  2  0
M  END
$$$$
