KGQ.pdb
     RDKit          3D

 23 22  0  0  1  0  0  0  0  0999 V2000
   11.8473  -24.8032   23.5206 N   0  0  0  0  0  0  0  0  0  0  0  0
   12.9567  -23.9143   23.6755 C   0  0  1  0  0  0  0  0  0  0  0  0
   12.6507  -22.4944   23.2548 C   0  0  0  0  0  0  0  0  0  0  0  0
   11.1688  -22.1921   23.3644 C   0  0  0  0  0  0  0  0  0  0  0  0
   10.8146  -20.8846   22.7325 C   0  0  0  0  0  0  0  0  0  0  0  0
    9.3245  -20.6254   22.7218 C   0  0  0  0  0  0  0  0  0  0  0  0
    8.9623  -19.3991   22.0812 N   0  0  0  0  0  0  0  0  0  0  0  0
   13.5613  -23.9644   25.0233 C   0  0  0  0  0  0  0  0  0  0  0  0
   14.6241  -23.3190   25.2142 O   0  0  0  0  0  0  0  0  0  0  0  0
   12.9170  -24.7340   26.0306 N   0  0  0  0  0  0  0  0  0  0  0  0
   13.4106  -24.6619   27.3896 C   0  0  0  0  0  0  0  0  0  0  0  0
   12.7083  -23.5655   28.0860 C   0  0  0  0  0  0  0  0  0  0  0  0
   11.7920  -22.9302   27.5226 O   0  0  0  0  0  0  0  0  0  0  0  0
    8.8957  -23.6531   30.3108 N   0  0  0  0  0  0  0  0  0  0  0  0
    9.8323  -23.9022   31.4062 C   0  0  0  0  0  0  0  0  0  0  0  0
    9.9005  -25.0611   31.8424 O   0  0  0  0  0  0  0  0  0  0  0  0
   10.5809  -22.7196   31.8506 C   0  0  0  0  0  0  0  0  0  0  0  0
   12.0162  -22.6279   31.5263 C   0  0  0  0  0  0  0  0  0  0  0  0
   12.3986  -22.1856   30.1544 C   0  0  2  0  0  0  0  0  0  0  0  0
   13.0649  -23.2192   29.4033 N   0  0  0  0  0  0  0  0  0  0  0  0
   12.9682  -20.8441   30.0297 C   0  0  0  0  0  0  0  0  0  0  0  0
   14.1088  -20.6919   29.5480 O   0  0  0  0  0  0  0  0  0  0  0  0
   12.2573  -19.7433   30.4395 O   0  0  0  0  0  0  0  0  0  0  0  0
  2  1  1  1
  3  2  1  0
  4  3  1  0
  5  4  1  0
  6  5  1  0
  7  6  1  0
  8  2  1  0
  8 10  1  0
  9  8  2  0
 11 10  1  0
 12 11  1  0
 13 12  2  0
 15 14  1  0
 16 15  2  0
 17 15  1  0
 18 17  1  0
 19 18  1  1
 19 20  1  0
 20 12  1  0
 21 23  1  0
 21 19  1  0
 22 21  2  0
M  END
$$$$
