KGQ.pdb
     RDKit          3D

 23 22  0  0  1  0  0  0  0  0999 V2000
   10.3005  -15.7277   19.6090 N   0  0  0  0  0  0  0  0  0  0  0  0
    9.3905  -14.9370   20.3781 C   0  0  1  0  0  0  0  0  0  0  0  0
    8.1309  -14.5706   19.6259 C   0  0  0  0  0  0  0  0  0  0  0  0
    8.4430  -14.1113   18.2148 C   0  0  0  0  0  0  0  0  0  0  0  0
    7.2150  -13.6766   17.4818 C   0  0  0  0  0  0  0  0  0  0  0  0
    7.5082  -13.2198   16.0700 C   0  0  0  0  0  0  0  0  0  0  0  0
    6.3389  -12.8483   15.3350 N   0  0  0  0  0  0  0  0  0  0  0  0
    9.0842  -15.5205   21.7011 C   0  0  0  0  0  0  0  0  0  0  0  0
    8.3894  -14.8377   22.4970 O   0  0  0  0  0  0  0  0  0  0  0  0
    9.5862  -16.8153   22.0071 N   0  0  0  0  0  0  0  0  0  0  0  0
    9.2279  -17.4243   23.2707 C   0  0  0  0  0  0  0  0  0  0  0  0
   10.2292  -17.0300   24.2818 C   0  0  0  0  0  0  0  0  0  0  0  0
   11.3158  -16.5155   23.9424 O   0  0  0  0  0  0  0  0  0  0  0  0
    9.7780  -13.2757   29.2578 N   0  0  0  0  0  0  0  0  0  0  0  0
    9.1786  -13.5825   27.9595 C   0  0  0  0  0  0  0  0  0  0  0  0
    8.5886  -12.6618   27.3747 O   0  0  0  0  0  0  0  0  0  0  0  0
    9.3608  -14.9704   27.5154 C   0  0  0  0  0  0  0  0  0  0  0  0
   10.7057  -15.4097   27.1009 C   0  0  0  0  0  0  0  0  0  0  0  0
   10.8840  -16.8329   26.6923 C   0  0  2  0  0  0  0  0  0  0  0  0
    9.9705  -17.2303   25.6512 N   0  0  0  0  0  0  0  0  0  0  0  0
   11.0840  -17.8062   27.7657 C   0  0  0  0  0  0  0  0  0  0  0  0
   10.3658  -18.8242   27.8279 O   0  0  0  0  0  0  0  0  0  0  0  0
   12.0595  -17.6110   28.7119 O   0  0  0  0  0  0  0  0  0  0  0  0
  2  1  1  6
  3  2  1  0
  4  3  1  0
  5  4  1  0
  6  5  1  0
  7  6  1  0
  8  2  1  0
  8 10  1  0
  9  8  2  0
 11 10  1  0
 12 11  1  0
 13 12  2  0
 15 14  1  0
 16 15  2  0
 17 15  1  0
 18 17  1  0
 19 18  1  1
 19 20  1  0
 20 12  1  0
 21 23  1  0
 21 19  1  0
 22 21  2  0
M  END
$$$$
