KGQ.pdb
     RDKit          3D

 23 22  0  0  1  0  0  0  0  0999 V2000
    8.3094  -18.9376   21.8852 N   0  0  0  0  0  0  0  0  0  0  0  0
    8.4438  -17.9353   20.8742 C   0  0  1  0  0  0  0  0  0  0  0  0
    7.5249  -18.1487   19.6924 C   0  0  0  0  0  0  0  0  0  0  0  0
    6.2009  -18.7498   20.1224 C   0  0  0  0  0  0  0  0  0  0  0  0
    5.3095  -19.0356   18.9571 C   0  0  0  0  0  0  0  0  0  0  0  0
    4.0351  -19.7457   19.3565 C   0  0  0  0  0  0  0  0  0  0  0  0
    3.1695  -20.0299   18.2540 N   0  0  0  0  0  0  0  0  0  0  0  0
    8.3426  -16.5579   21.4006 C   0  0  0  0  0  0  0  0  0  0  0  0
    8.9149  -15.6404   20.7578 O   0  0  0  0  0  0  0  0  0  0  0  0
    7.6089  -16.3388   22.5989 N   0  0  0  0  0  0  0  0  0  0  0  0
    7.3862  -14.9797   23.0447 C   0  0  0  0  0  0  0  0  0  0  0  0
    8.4073  -14.6452   24.0576 C   0  0  0  0  0  0  0  0  0  0  0  0
    8.2363  -13.6968   24.8525 O   0  0  0  0  0  0  0  0  0  0  0  0
    9.4754  -13.4286   29.7614 N   0  0  0  0  0  0  0  0  0  0  0  0
    9.6364  -14.6277   28.9395 C   0  0  0  0  0  0  0  0  0  0  0  0
    9.7459  -15.7116   29.5319 O   0  0  0  0  0  0  0  0  0  0  0  0
    9.6472  -14.3792   27.4922 C   0  0  0  0  0  0  0  0  0  0  0  0
    9.6827  -15.5340   26.5764 C   0  0  0  0  0  0  0  0  0  0  0  0
   10.4473  -15.3968   25.3034 C   0  0  2  0  0  0  0  0  0  0  0  0
    9.5953  -15.3962   24.1413 N   0  0  0  0  0  0  0  0  0  0  0  0
   11.6781  -16.1785   25.1867 C   0  0  0  0  0  0  0  0  0  0  0  0
   12.5953  -16.0278   26.0186 O   0  0  0  0  0  0  0  0  0  0  0  0
   11.8365  -17.0823   24.1653 O   0  0  0  0  0  0  0  0  0  0  0  0
  2  1  1  1
  3  2  1  0
  4  3  1  0
  5  4  1  0
  6  5  1  0
  7  6  1  0
  8  2  1  0
  8 10  1  0
  9  8  2  0
 11 10  1  0
 12 11  1  0
 13 12  2  0
 15 14  1  0
 16 15  2  0
 17 15  1  0
 18 17  1  0
 19 18  1  1
 19 20  1  0
 20 12  1  0
 21 23  1  0
 21 19  1  0
 22 21  2  0
M  END
$$$$
