KGQ.pdb
     RDKit          3D

 23 22  0  0  1  0  0  0  0  0999 V2000
    9.8916  -15.2447   20.6560 N   0  0  0  0  0  0  0  0  0  0  0  0
    8.9849  -14.8719   21.6970 C   0  0  1  0  0  0  0  0  0  0  0  0
    7.5452  -14.7981   21.2402 C   0  0  0  0  0  0  0  0  0  0  0  0
    7.3694  -13.7839   20.1267 C   0  0  0  0  0  0  0  0  0  0  0  0
    7.7432  -14.3450   18.7926 C   0  0  0  0  0  0  0  0  0  0  0  0
    7.6256  -13.3294   17.6779 C   0  0  0  0  0  0  0  0  0  0  0  0
    7.8671  -13.8764   16.3786 N   0  0  0  0  0  0  0  0  0  0  0  0
    9.1273  -15.6936   22.9173 C   0  0  0  0  0  0  0  0  0  0  0  0
    8.2648  -15.5546   23.8224 O   0  0  0  0  0  0  0  0  0  0  0  0
   10.2241  -16.5942   23.0078 N   0  0  0  0  0  0  0  0  0  0  0  0
   10.4137  -17.3456   24.2305 C   0  0  0  0  0  0  0  0  0  0  0  0
   10.9541  -16.4363   25.2608 C   0  0  0  0  0  0  0  0  0  0  0  0
   11.6524  -15.4501   24.9439 O   0  0  0  0  0  0  0  0  0  0  0  0
    8.8961  -12.3427   25.9624 N   0  0  0  0  0  0  0  0  0  0  0  0
    8.2666  -12.8763   27.1699 C   0  0  0  0  0  0  0  0  0  0  0  0
    7.1871  -12.3740   27.5169 O   0  0  0  0  0  0  0  0  0  0  0  0
    9.0154  -13.9583   27.8219 C   0  0  0  0  0  0  0  0  0  0  0  0
   10.3261  -14.3447   27.2686 C   0  0  0  0  0  0  0  0  0  0  0  0
   10.8827  -15.6755   27.6470 C   0  0  2  0  0  0  0  0  0  0  0  0
   10.6876  -16.6706   26.6233 N   0  0  0  0  0  0  0  0  0  0  0  0
   10.6450  -16.1228   29.0193 C   0  0  0  0  0  0  0  0  0  0  0  0
   10.0005  -17.1693   29.2326 O   0  0  0  0  0  0  0  0  0  0  0  0
   11.1261  -15.3992   30.0824 O   0  0  0  0  0  0  0  0  0  0  0  0
  2  1  1  6
  3  2  1  0
  4  3  1  0
  5  4  1  0
  6  5  1  0
  7  6  1  0
  8  2  1  0
  8 10  1  0
  9  8  2  0
 11 10  1  0
 12 11  1  0
 13 12  2  0
 15 14  1  0
 16 15  2  0
 17 15  1  0
 18 17  1  0
 19 18  1  6
 19 20  1  0
 20 12  1  0
 21 23  1  0
 21 19  1  0
 22 21  2  0
M  END
$$$$
