KGQ.pdb
     RDKit          3D

 23 22  0  0  1  0  0  0  0  0999 V2000
    4.9105  -18.6217   23.3267 N   0  0  0  0  0  0  0  0  0  0  0  0
    4.7382  -18.4200   21.9216 C   0  0  1  0  0  0  0  0  0  0  0  0
    3.3674  -17.8976   21.5545 C   0  0  0  0  0  0  0  0  0  0  0  0
    2.6004  -18.8996   20.7136 C   0  0  0  0  0  0  0  0  0  0  0  0
    1.7982  -19.8400   21.5541 C   0  0  0  0  0  0  0  0  0  0  0  0
    0.8885  -20.7266   20.7331 C   0  0  0  0  0  0  0  0  0  0  0  0
    0.0884  -21.6114   21.5221 N   0  0  0  0  0  0  0  0  0  0  0  0
    5.8117  -17.6069   21.3125 C   0  0  0  0  0  0  0  0  0  0  0  0
    5.8872  -17.5802   20.0571 O   0  0  0  0  0  0  0  0  0  0  0  0
    6.6999  -16.9000   22.1689 N   0  0  0  0  0  0  0  0  0  0  0  0
    7.6692  -15.9989   21.5822 C   0  0  0  0  0  0  0  0  0  0  0  0
    8.4511  -15.3782   22.6701 C   0  0  0  0  0  0  0  0  0  0  0  0
    9.3972  -14.6021   22.4185 O   0  0  0  0  0  0  0  0  0  0  0  0
    5.8124  -11.3650   25.6156 N   0  0  0  0  0  0  0  0  0  0  0  0
    6.5304  -12.4283   26.3177 C   0  0  0  0  0  0  0  0  0  0  0  0
    6.4841  -12.4223   27.5569 O   0  0  0  0  0  0  0  0  0  0  0  0
    7.2244  -13.3794   25.4400 C   0  0  0  0  0  0  0  0  0  0  0  0
    8.2323  -14.2798   26.0290 C   0  0  0  0  0  0  0  0  0  0  0  0
    8.9529  -15.2167   25.1197 C   0  0  2  0  0  0  0  0  0  0  0  0
    8.1384  -15.6548   24.0147 N   0  0  0  0  0  0  0  0  0  0  0  0
    9.7710  -16.2507   25.7531 C   0  0  0  0  0  0  0  0  0  0  0  0
   10.5573  -15.9488   26.6733 O   0  0  0  0  0  0  0  0  0  0  0  0
    9.6830  -17.5583   25.3439 O   0  0  0  0  0  0  0  0  0  0  0  0
  2  1  1  1
  3  2  1  0
  4  3  1  0
  5  4  1  0
  6  5  1  0
  7  6  1  0
  8  2  1  0
  8 10  1  0
  9  8  2  0
 11 10  1  0
 12 11  1  0
 13 12  2  0
 15 14  1  0
 16 15  2  0
 17 15  1  0
 18 17  1  0
 19 18  1  1
 19 20  1  0
 20 12  1  0
 21 23  1  0
 21 19  1  0
 22 21  2  0
M  END
$$$$
