KGQ.pdb
     RDKit          3D

 23 22  0  0  1  0  0  0  0  0999 V2000
    7.8418  -20.2123   17.9214 N   0  0  0  0  0  0  0  0  0  0  0  0
    7.3352  -18.8865   18.0959 C   0  0  1  0  0  0  0  0  0  0  0  0
    6.2038  -18.8037   19.0958 C   0  0  0  0  0  0  0  0  0  0  0  0
    6.4375  -19.7296   20.2737 C   0  0  0  0  0  0  0  0  0  0  0  0
    5.3685  -19.5996   21.3103 C   0  0  0  0  0  0  0  0  0  0  0  0
    5.5100  -20.6114   22.4257 C   0  0  0  0  0  0  0  0  0  0  0  0
    4.5204  -20.4757   23.4494 N   0  0  0  0  0  0  0  0  0  0  0  0
    8.3898  -17.8917   18.3836 C   0  0  0  0  0  0  0  0  0  0  0  0
    8.0894  -16.6738   18.2889 O   0  0  0  0  0  0  0  0  0  0  0  0
    9.6827  -18.3565   18.7506 N   0  0  0  0  0  0  0  0  0  0  0  0
   10.6838  -17.3928   19.1564 C   0  0  0  0  0  0  0  0  0  0  0  0
   10.8160  -17.4447   20.6262 C   0  0  0  0  0  0  0  0  0  0  0  0
   11.8525  -17.0370   21.1921 O   0  0  0  0  0  0  0  0  0  0  0  0
    6.6896  -16.4255   26.5981 N   0  0  0  0  0  0  0  0  0  0  0  0
    6.9177  -16.3506   25.1554 C   0  0  0  0  0  0  0  0  0  0  0  0
    6.0230  -15.8404   24.4648 O   0  0  0  0  0  0  0  0  0  0  0  0
    8.2040  -16.9025   24.7110 C   0  0  0  0  0  0  0  0  0  0  0  0
    8.4154  -17.1316   23.2700 C   0  0  0  0  0  0  0  0  0  0  0  0
    9.6919  -17.7725   22.8414 C   0  0  2  0  0  0  0  0  0  0  0  0
    9.7684  -17.9579   21.4145 N   0  0  0  0  0  0  0  0  0  0  0  0
   10.1724  -18.8909   23.6526 C   0  0  0  0  0  0  0  0  0  0  0  0
   10.2803  -20.0270   23.1490 O   0  0  0  0  0  0  0  0  0  0  0  0
   10.5080  -18.7033   24.9707 O   0  0  0  0  0  0  0  0  0  0  0  0
  2  1  1  1
  3  2  1  0
  4  3  1  0
  5  4  1  0
  6  5  1  0
  7  6  1  0
  8  2  1  0
  8 10  1  0
  9  8  2  0
 11 10  1  0
 12 11  1  0
 13 12  2  0
 15 14  1  0
 16 15  2  0
 17 15  1  0
 18 17  1  0
 19 18  1  1
 19 20  1  0
 20 12  1  0
 21 23  1  0
 21 19  1  0
 22 21  2  0
M  END
$$$$
