KGQ.pdb
     RDKit          3D

 23 22  0  0  1  0  0  0  0  0999 V2000
    5.4366  -16.2602   20.9121 N   0  0  0  0  0  0  0  0  0  0  0  0
    6.7031  -16.9241   20.9015 C   0  0  1  0  0  0  0  0  0  0  0  0
    7.7907  -16.1302   20.2135 C   0  0  0  0  0  0  0  0  0  0  0  0
    7.2961  -14.7579   19.7992 C   0  0  0  0  0  0  0  0  0  0  0  0
    8.0030  -14.2499   18.5841 C   0  0  0  0  0  0  0  0  0  0  0  0
    7.5128  -12.8864   18.1502 C   0  0  0  0  0  0  0  0  0  0  0  0
    8.2355  -12.3456   17.0408 N   0  0  0  0  0  0  0  0  0  0  0  0
    7.1304  -17.3877   22.2384 C   0  0  0  0  0  0  0  0  0  0  0  0
    8.1441  -18.1295   22.3060 O   0  0  0  0  0  0  0  0  0  0  0  0
    6.3804  -16.9756   23.3740 N   0  0  0  0  0  0  0  0  0  0  0  0
    6.7241  -17.5143   24.6730 C   0  0  0  0  0  0  0  0  0  0  0  0
    8.0305  -16.9594   25.0800 C   0  0  0  0  0  0  0  0  0  0  0  0
    8.6994  -16.2521   24.2972 O   0  0  0  0  0  0  0  0  0  0  0  0
    9.5406  -13.3315   29.3720 N   0  0  0  0  0  0  0  0  0  0  0  0
    8.8369  -13.2158   28.0951 C   0  0  0  0  0  0  0  0  0  0  0  0
    8.2321  -12.1560   27.8740 O   0  0  0  0  0  0  0  0  0  0  0  0
    8.9443  -14.3971   27.2294 C   0  0  0  0  0  0  0  0  0  0  0  0
    9.7175  -15.5574   27.7085 C   0  0  0  0  0  0  0  0  0  0  0  0
    9.8265  -16.7457   26.8141 C   0  0  2  0  0  0  0  0  0  0  0  0
    8.5430  -17.2221   26.3648 N   0  0  0  0  0  0  0  0  0  0  0  0
   10.7847  -17.7792   27.2057 C   0  0  0  0  0  0  0  0  0  0  0  0
   10.3796  -18.9029   27.5652 O   0  0  0  0  0  0  0  0  0  0  0  0
   12.1337  -17.5250   27.1821 O   0  0  0  0  0  0  0  0  0  0  0  0
  2  1  1  1
  3  2  1  0
  4  3  1  0
  5  4  1  0
  6  5  1  0
  7  6  1  0
  8  2  1  0
  8 10  1  0
  9  8  2  0
 11 10  1  0
 12 11  1  0
 13 12  2  0
 15 14  1  0
 16 15  2  0
 17 15  1  0
 18 17  1  0
 19 18  1  1
 19 20  1  0
 20 12  1  0
 21 23  1  0
 21 19  1  0
 22 21  2  0
M  END
$$$$
