KGQ.pdb
     RDKit          3D

 23 22  0  0  1  0  0  0  0  0999 V2000
    6.8343  -19.3899   21.6634 N   0  0  0  0  0  0  0  0  0  0  0  0
    6.2846  -18.2313   21.0307 C   0  0  1  0  0  0  0  0  0  0  0  0
    4.9059  -17.8695   21.5356 C   0  0  0  0  0  0  0  0  0  0  0  0
    4.0250  -19.0968   21.6665 C   0  0  0  0  0  0  0  0  0  0  0  0
    2.5943  -18.7375   21.9078 C   0  0  0  0  0  0  0  0  0  0  0  0
    1.6986  -19.9508   22.0239 C   0  0  0  0  0  0  0  0  0  0  0  0
    0.3367  -19.6297   22.3199 N   0  0  0  0  0  0  0  0  0  0  0  0
    7.1950  -17.0670   21.0522 C   0  0  0  0  0  0  0  0  0  0  0  0
    7.0137  -16.1643   20.1951 O   0  0  0  0  0  0  0  0  0  0  0  0
    8.2235  -17.0248   22.0332 N   0  0  0  0  0  0  0  0  0  0  0  0
    8.9863  -15.8051   22.1956 C   0  0  0  0  0  0  0  0  0  0  0  0
    9.9137  -15.9797   23.3313 C   0  0  0  0  0  0  0  0  0  0  0  0
   11.1448  -16.0814   23.1448 O   0  0  0  0  0  0  0  0  0  0  0  0
    8.9013  -13.6338   29.0302 N   0  0  0  0  0  0  0  0  0  0  0  0
    9.9967  -14.5463   29.3566 C   0  0  0  0  0  0  0  0  0  0  0  0
   10.3804  -14.5742   30.5355 O   0  0  0  0  0  0  0  0  0  0  0  0
   10.5048  -15.3224   28.2181 C   0  0  0  0  0  0  0  0  0  0  0  0
    9.7290  -15.3300   26.9645 C   0  0  0  0  0  0  0  0  0  0  0  0
   10.2715  -16.1000   25.8083 C   0  0  2  0  0  0  0  0  0  0  0  0
    9.4191  -16.0342   24.6483 N   0  0  0  0  0  0  0  0  0  0  0  0
   10.8422  -17.4144   26.1018 C   0  0  0  0  0  0  0  0  0  0  0  0
   10.2387  -18.4493   25.7545 O   0  0  0  0  0  0  0  0  0  0  0  0
   12.0425  -17.5229   26.7597 O   0  0  0  0  0  0  0  0  0  0  0  0
  2  1  1  1
  3  2  1  0
  4  3  1  0
  5  4  1  0
  6  5  1  0
  7  6  1  0
  8  2  1  0
  8 10  1  0
  9  8  2  0
 11 10  1  0
 12 11  1  0
 13 12  2  0
 15 14  1  0
 16 15  2  0
 17 15  1  0
 18 17  1  0
 19 18  1  1
 19 20  1  0
 20 12  1  0
 21 23  1  0
 21 19  1  0
 22 21  2  0
M  END
$$$$
