TPD.pdb
     RDKit          3D

 23 23  0  0  1  0  0  0  0  0999 V2000
   28.6374   -9.3912  -17.3471 C   0  0  0  0  0  0  0  0  0  0  0  0
   27.2308   -8.9736  -17.0654 C   0  0  1  0  0  0  0  0  0  0  0  0
   26.8622   -7.7861  -17.7146 O   0  0  0  0  0  0  0  0  0  0  0  0
   26.2547  -10.0974  -17.4566 C   0  0  2  0  0  0  0  0  0  0  0  0
   26.4599  -10.3003  -18.8862 N   0  0  0  0  0  0  0  0  0  0  0  0
   24.8557   -9.6512  -17.1978 C   0  0  0  0  0  0  0  0  0  0  0  0
   24.4848   -8.6998  -17.9374 O   0  0  0  0  0  0  0  0  0  0  0  0
   24.0344  -10.2392  -16.2214 N   0  0  0  0  0  0  0  0  0  0  0  0
   24.1354  -11.6773  -15.8665 C   0  0  0  0  0  0  0  0  0  0  0  0
   24.2803  -11.5427  -14.3697 C   0  0  0  0  0  0  0  0  0  0  0  0
   23.5884  -10.2343  -14.0073 C   0  0  0  0  0  0  0  0  0  0  0  0
   22.9797   -9.8516  -15.3567 C   0  0  1  0  0  0  0  0  0  0  0  0
   22.4679   -8.5099  -15.3865 C   0  0  0  0  0  0  0  0  0  0  0  0
   23.1017   -7.5025  -15.0360 O   0  0  0  0  0  0  0  0  0  0  0  0
   21.1320   -8.2629  -15.8466 N   0  0  0  0  0  0  0  0  0  0  0  0
   20.5834   -6.8976  -15.8460 C   0  0  1  0  0  0  0  0  0  0  0  0
   20.4905   -6.4913  -17.2977 C   0  0  0  0  0  0  0  0  0  0  0  0
   20.0219   -5.1017  -17.4869 C   0  0  0  0  0  0  0  0  0  0  0  0
   19.7062   -4.3150  -16.5563 O   0  0  0  0  0  0  0  0  0  0  0  0
   19.2554   -6.8493  -15.2340 C   0  0  0  0  0  0  0  0  0  0  0  0
   18.7762   -5.6209  -14.8031 O   0  0  0  0  0  0  0  0  0  0  0  0
   19.8980   -4.5586  -18.7797 O   0  0  0  0  0  0  0  0  0  0  0  0
   18.5189   -7.8664  -15.0746 O   0  0  0  0  0  0  0  0  0  0  0  0
  2  1  1  6
  3  2  1  0
  4  6  1  0
  4  2  1  0
  4  5  1  6
  6  7  2  0
  8 12  1  0
  8  6  1  0
  9  8  1  0
 10  9  1  0
 10 11  1  0
 11 12  1  0
 13 14  2  0
 12 13  1  1
 15 13  1  0
 16 15  1  0
 16 20  1  0
 16 17  1  6
 18 17  1  0
 18 22  1  0
 19 18  2  0
 20 21  1  0
 23 20  2  0
M  END
$$$$
