TPD.pdb
     RDKit          3D

 23 23  0  0  1  0  0  0  0  0999 V2000
   17.8192  -10.1184  -18.2019 C   0  0  0  0  0  0  0  0  0  0  0  0
   17.5995  -11.1807  -17.1746 C   0  0  1  0  0  0  0  0  0  0  0  0
   17.0173  -12.3460  -17.6947 O   0  0  0  0  0  0  0  0  0  0  0  0
   18.9286  -11.5346  -16.4838 C   0  0  2  0  0  0  0  0  0  0  0  0
   18.6064  -12.6283  -15.5745 N   0  0  0  0  0  0  0  0  0  0  0  0
   19.4167  -10.3546  -15.7140 C   0  0  0  0  0  0  0  0  0  0  0  0
   18.5034   -9.5434  -15.4015 O   0  0  0  0  0  0  0  0  0  0  0  0
   20.7669  -10.1703  -15.3725 N   0  0  0  0  0  0  0  0  0  0  0  0
   21.6356  -11.2980  -14.9506 C   0  0  0  0  0  0  0  0  0  0  0  0
   22.7839  -11.0838  -15.9071 C   0  0  0  0  0  0  0  0  0  0  0  0
   22.7754   -9.5946  -16.2301 C   0  0  0  0  0  0  0  0  0  0  0  0
   21.6930   -9.1017  -15.2693 C   0  0  1  0  0  0  0  0  0  0  0  0
   21.2795   -7.7507  -15.5278 C   0  0  0  0  0  0  0  0  0  0  0  0
   20.8370   -7.3409  -16.6122 O   0  0  0  0  0  0  0  0  0  0  0  0
   21.3644   -6.7645  -14.4896 N   0  0  0  0  0  0  0  0  0  0  0  0
   21.0862   -5.3493  -14.7808 C   0  0  1  0  0  0  0  0  0  0  0  0
   19.7820   -5.0356  -14.0865 C   0  0  0  0  0  0  0  0  0  0  0  0
   19.3478   -3.6333  -14.2643 C   0  0  0  0  0  0  0  0  0  0  0  0
   18.8541   -3.1607  -15.3214 O   0  0  0  0  0  0  0  0  0  0  0  0
   22.1410   -4.4748  -14.2682 C   0  0  0  0  0  0  0  0  0  0  0  0
   23.1070   -5.0279  -13.4404 O   0  0  0  0  0  0  0  0  0  0  0  0
   19.4693   -2.7080  -13.2104 O   0  0  0  0  0  0  0  0  0  0  0  0
   22.2213   -3.2404  -14.5369 O   0  0  0  0  0  0  0  0  0  0  0  0
  2  1  1  6
  3  2  1  0
  4  6  1  0
  4  2  1  0
  4  5  1  1
  6  7  2  0
  8 12  1  0
  8  6  1  0
  9  8  1  0
 10  9  1  0
 10 11  1  0
 11 12  1  0
 13 14  2  0
 12 13  1  6
 15 13  1  0
 16 15  1  0
 16 20  1  0
 16 17  1  1
 18 17  1  0
 18 22  1  0
 19 18  2  0
 20 21  1  0
 23 20  2  0
M  END
$$$$
