TPD.pdb
     RDKit          3D

 23 23  0  0  1  0  0  0  0  0999 V2000
   19.3336   -9.5565  -19.0449 C   0  0  0  0  0  0  0  0  0  0  0  0
   18.5929  -10.5887  -18.2588 C   0  0  1  0  0  0  0  0  0  0  0  0
   18.1461  -11.6666  -19.0373 O   0  0  0  0  0  0  0  0  0  0  0  0
   19.4726  -11.1143  -17.1104 C   0  0  2  0  0  0  0  0  0  0  0  0
   18.6758  -12.1500  -16.4629 N   0  0  0  0  0  0  0  0  0  0  0  0
   19.7503  -10.0065  -16.1518 C   0  0  0  0  0  0  0  0  0  0  0  0
   18.9248   -9.0562  -16.2264 O   0  0  0  0  0  0  0  0  0  0  0  0
   20.8303  -10.0259  -15.2536 N   0  0  0  0  0  0  0  0  0  0  0  0
   21.2508  -11.2645  -14.5512 C   0  0  0  0  0  0  0  0  0  0  0  0
   22.7177  -11.2534  -14.9083 C   0  0  0  0  0  0  0  0  0  0  0  0
   23.0731   -9.7889  -15.1340 C   0  0  0  0  0  0  0  0  0  0  0  0
   21.7690   -9.1117  -14.7119 C   0  0  1  0  0  0  0  0  0  0  0  0
   21.7158   -7.7194  -15.0604 C   0  0  0  0  0  0  0  0  0  0  0  0
   21.9064   -7.2671  -16.2000 O   0  0  0  0  0  0  0  0  0  0  0  0
   21.4248   -6.7396  -14.0540 N   0  0  0  0  0  0  0  0  0  0  0  0
   21.4919   -5.3039  -14.3693 C   0  0  1  0  0  0  0  0  0  0  0  0
   20.0901   -4.7751  -14.1777 C   0  0  0  0  0  0  0  0  0  0  0  0
   19.1831   -5.1042  -15.2983 C   0  0  0  0  0  0  0  0  0  0  0  0
   19.5134   -5.1154  -16.5129 O   0  0  0  0  0  0  0  0  0  0  0  0
   22.4119   -4.5975  -13.4778 C   0  0  0  0  0  0  0  0  0  0  0  0
   22.8917   -5.2702  -12.3636 O   0  0  0  0  0  0  0  0  0  0  0  0
   17.8376   -5.4385  -15.0546 O   0  0  0  0  0  0  0  0  0  0  0  0
   22.7943   -3.4055  -13.6656 O   0  0  0  0  0  0  0  0  0  0  0  0
  2  1  1  6
  3  2  1  0
  4  6  1  0
  4  2  1  0
  4  5  1  1
  6  7  2  0
  8 12  1  0
  8  6  1  0
  9  8  1  0
 10  9  1  0
 10 11  1  0
 11 12  1  0
 13 14  2  0
 12 13  1  6
 15 13  1  0
 16 15  1  0
 16 20  1  0
 16 17  1  1
 18 17  1  0
 18 22  1  0
 19 18  2  0
 20 21  1  0
 23 20  2  0
M  END
$$$$
