TPD.pdb
     RDKit          3D

 23 23  0  0  1  0  0  0  0  0999 V2000
   20.7197  -10.3451  -19.6904 C   0  0  0  0  0  0  0  0  0  0  0  0
   20.0566  -11.3833  -18.8452 C   0  0  1  0  0  0  0  0  0  0  0  0
   19.6426  -12.5103  -19.5705 O   0  0  0  0  0  0  0  0  0  0  0  0
   20.9958  -11.8212  -17.7072 C   0  0  2  0  0  0  0  0  0  0  0  0
   20.3334  -12.9611  -17.0834 N   0  0  0  0  0  0  0  0  0  0  0  0
   21.1360  -10.7087  -16.7244 C   0  0  0  0  0  0  0  0  0  0  0  0
   20.0838  -10.0296  -16.5779 O   0  0  0  0  0  0  0  0  0  0  0  0
   22.3295  -10.4477  -16.0309 N   0  0  0  0  0  0  0  0  0  0  0  0
   23.1327  -11.5292  -15.4066 C   0  0  0  0  0  0  0  0  0  0  0  0
   24.4760  -11.2097  -16.0172 C   0  0  0  0  0  0  0  0  0  0  0  0
   24.4474   -9.7147  -16.3106 C   0  0  0  0  0  0  0  0  0  0  0  0
   23.1156   -9.3246  -15.6687 C   0  0  1  0  0  0  0  0  0  0  0  0
   22.6904   -7.9960  -16.0104 C   0  0  0  0  0  0  0  0  0  0  0  0
   22.4885   -7.5925  -17.1663 O   0  0  0  0  0  0  0  0  0  0  0  0
   22.4689   -7.0266  -14.9766 N   0  0  0  0  0  0  0  0  0  0  0  0
   22.0785   -5.6493  -15.3168 C   0  0  1  0  0  0  0  0  0  0  0  0
   20.6369   -5.7285  -15.7604 C   0  0  0  0  0  0  0  0  0  0  0  0
   19.6879   -5.8880  -14.6378 C   0  0  0  0  0  0  0  0  0  0  0  0
   19.9933   -6.3050  -13.4900 O   0  0  0  0  0  0  0  0  0  0  0  0
   22.1919   -4.7554  -14.1642 C   0  0  0  0  0  0  0  0  0  0  0  0
   22.4864   -5.3126  -12.9285 O   0  0  0  0  0  0  0  0  0  0  0  0
   18.3271   -5.5666  -14.8007 O   0  0  0  0  0  0  0  0  0  0  0  0
   22.0351   -3.5010  -14.2311 O   0  0  0  0  0  0  0  0  0  0  0  0
  2  1  1  6
  3  2  1  0
  4  6  1  0
  4  2  1  0
  4  5  1  1
  6  7  2  0
  8 12  1  0
  8  6  1  0
  9  8  1  0
 10  9  1  0
 10 11  1  0
 11 12  1  0
 13 14  2  0
 12 13  1  6
 15 13  1  0
 16 15  1  0
 16 20  1  0
 16 17  1  1
 18 17  1  0
 18 22  1  0
 19 18  2  0
 20 21  1  0
 23 20  2  0
M  END
$$$$
