TPD.pdb
     RDKit          3D

 23 23  0  0  1  0  0  0  0  0999 V2000
   14.1228  -18.1503    3.1226 C   0  0  0  0  0  0  0  0  0  0  0  0
   13.9973  -19.5209    2.5417 C   0  0  1  0  0  0  0  0  0  0  0  0
   12.8546  -19.6853    1.7450 O   0  0  0  0  0  0  0  0  0  0  0  0
   15.2513  -19.8660    1.7187 C   0  0  2  0  0  0  0  0  0  0  0  0
   14.9406  -21.1308    1.0625 N   0  0  0  0  0  0  0  0  0  0  0  0
   16.4147  -20.0362    2.6357 C   0  0  0  0  0  0  0  0  0  0  0  0
   16.1607  -20.7466    3.6460 O   0  0  0  0  0  0  0  0  0  0  0  0
   17.6713  -19.4578    2.3913 N   0  0  0  0  0  0  0  0  0  0  0  0
   18.2741  -19.4229    1.0350 C   0  0  0  0  0  0  0  0  0  0  0  0
   18.5839  -17.9477    0.9508 C   0  0  0  0  0  0  0  0  0  0  0  0
   18.7729  -17.4861    2.3907 C   0  0  0  0  0  0  0  0  0  0  0  0
   18.7024  -18.8230    3.1292 C   0  0  1  0  0  0  0  0  0  0  0  0
   18.5961  -18.6775    4.5541 C   0  0  0  0  0  0  0  0  0  0  0  0
   17.6544  -18.1218    5.1407 O   0  0  0  0  0  0  0  0  0  0  0  0
   19.6275  -19.1951    5.4060 N   0  0  0  0  0  0  0  0  0  0  0  0
   19.5748  -18.9742    6.8598 C   0  0  1  0  0  0  0  0  0  0  0  0
   19.4269  -20.3442    7.4785 C   0  0  0  0  0  0  0  0  0  0  0  0
   19.2111  -20.3048    8.9408 C   0  0  0  0  0  0  0  0  0  0  0  0
   19.0381  -19.2562    9.6154 O   0  0  0  0  0  0  0  0  0  0  0  0
   20.7962  -18.3386    7.3543 C   0  0  0  0  0  0  0  0  0  0  0  0
   20.6896  -17.4466    8.4112 O   0  0  0  0  0  0  0  0  0  0  0  0
   19.1866  -21.4949    9.6922 O   0  0  0  0  0  0  0  0  0  0  0  0
   21.9456  -18.5563    6.8707 O   0  0  0  0  0  0  0  0  0  0  0  0
  2  1  1  6
  3  2  1  0
  4  6  1  0
  4  2  1  0
  4  5  1  1
  6  7  2  0
  8 12  1  0
  8  6  1  0
  9  8  1  0
 10  9  1  0
 10 11  1  0
 11 12  1  0
 13 14  2  0
 12 13  1  1
 15 13  1  0
 16 15  1  0
 16 20  1  0
 16 17  1  1
 18 17  1  0
 18 22  1  0
 19 18  2  0
 20 21  1  0
 23 20  2  0
M  END
$$$$
