TPD.pdb
     RDKit          3D

 23 23  0  0  1  0  0  0  0  0999 V2000
   16.8102  -10.8297  -17.9128 C   0  0  0  0  0  0  0  0  0  0  0  0
   16.8104  -12.0387  -17.0350 C   0  0  1  0  0  0  0  0  0  0  0  0
   15.9277  -13.0399  -17.4663 O   0  0  0  0  0  0  0  0  0  0  0  0
   18.2324  -12.6181  -16.9294 C   0  0  2  0  0  0  0  0  0  0  0  0
   18.0891  -13.8399  -16.1460 N   0  0  0  0  0  0  0  0  0  0  0  0
   19.1104  -11.6494  -16.2125 C   0  0  0  0  0  0  0  0  0  0  0  0
   18.5098  -10.9865  -15.3238 O   0  0  0  0  0  0  0  0  0  0  0  0
   20.4759  -11.4950  -16.5042 N   0  0  0  0  0  0  0  0  0  0  0  0
   21.3446  -12.6482  -16.8505 C   0  0  0  0  0  0  0  0  0  0  0  0
   21.9356  -12.1224  -18.1364 C   0  0  0  0  0  0  0  0  0  0  0  0
   21.9024  -10.6040  -18.0116 C   0  0  0  0  0  0  0  0  0  0  0  0
   21.4301  -10.4481  -16.5658 C   0  0  1  0  0  0  0  0  0  0  0  0
   21.0575   -9.1012  -16.2344 C   0  0  0  0  0  0  0  0  0  0  0  0
   20.0734   -8.5044  -16.6982 O   0  0  0  0  0  0  0  0  0  0  0  0
   21.8477   -8.3475  -15.3043 N   0  0  0  0  0  0  0  0  0  0  0  0
   21.5427   -6.9322  -15.0418 C   0  0  1  0  0  0  0  0  0  0  0  0
   22.2695   -6.5853  -13.7640 C   0  0  0  0  0  0  0  0  0  0  0  0
   22.1342   -5.1631  -13.3823 C   0  0  0  0  0  0  0  0  0  0  0  0
   21.0529   -4.6022  -13.0651 O   0  0  0  0  0  0  0  0  0  0  0  0
   22.0109   -6.0686  -16.1259 C   0  0  0  0  0  0  0  0  0  0  0  0
   23.1009   -6.4881  -16.8744 O   0  0  0  0  0  0  0  0  0  0  0  0
   23.2615   -4.3206  -13.3521 O   0  0  0  0  0  0  0  0  0  0  0  0
   21.4774   -4.9587  -16.4190 O   0  0  0  0  0  0  0  0  0  0  0  0
  2  1  1  6
  3  2  1  0
  4  6  1  0
  4  2  1  0
  4  5  1  1
  6  7  2  0
  8 12  1  0
  8  6  1  0
  9  8  1  0
 10  9  1  0
 10 11  1  0
 11 12  1  0
 13 14  2  0
 12 13  1  6
 15 13  1  0
 16 15  1  0
 16 20  1  0
 16 17  1  1
 18 17  1  0
 18 22  1  0
 19 18  2  0
 20 21  1  0
 23 20  2  0
M  END
$$$$
