TPD.pdb
     RDKit          3D

 23 23  0  0  1  0  0  0  0  0999 V2000
   16.4791   -8.3224  -17.1484 C   0  0  0  0  0  0  0  0  0  0  0  0
   16.0887   -9.3046  -16.0924 C   0  0  1  0  0  0  0  0  0  0  0  0
   14.9437  -10.0465  -16.4182 O   0  0  0  0  0  0  0  0  0  0  0  0
   17.2567  -10.2637  -15.8012 C   0  0  2  0  0  0  0  0  0  0  0  0
   16.7133  -11.2589  -14.8840 N   0  0  0  0  0  0  0  0  0  0  0  0
   18.3639   -9.5114  -15.1444 C   0  0  0  0  0  0  0  0  0  0  0  0
   17.9643   -8.6109  -14.3574 O   0  0  0  0  0  0  0  0  0  0  0  0
   19.7209   -9.7851  -15.3837 N   0  0  0  0  0  0  0  0  0  0  0  0
   20.2557  -11.1700  -15.4021 C   0  0  0  0  0  0  0  0  0  0  0  0
   20.9580  -11.1354  -16.7381 C   0  0  0  0  0  0  0  0  0  0  0  0
   21.3241   -9.6746  -16.9706 C   0  0  0  0  0  0  0  0  0  0  0  0
   20.9156   -9.0625  -15.6304 C   0  0  1  0  0  0  0  0  0  0  0  0
   20.9101   -7.6263  -15.6424 C   0  0  0  0  0  0  0  0  0  0  0  0
   20.3988   -6.9277  -16.5313 O   0  0  0  0  0  0  0  0  0  0  0  0
   21.5277   -6.8986  -14.5716 N   0  0  0  0  0  0  0  0  0  0  0  0
   21.5234   -5.4272  -14.5700 C   0  0  1  0  0  0  0  0  0  0  0  0
   20.0800   -5.0206  -14.3892 C   0  0  0  0  0  0  0  0  0  0  0  0
   19.8878   -3.5554  -14.3359 C   0  0  0  0  0  0  0  0  0  0  0  0
   20.7544   -2.7029  -14.6625 O   0  0  0  0  0  0  0  0  0  0  0  0
   22.3293   -4.8858  -13.4756 C   0  0  0  0  0  0  0  0  0  0  0  0
   22.7282   -3.5593  -13.5488 O   0  0  0  0  0  0  0  0  0  0  0  0
   18.6670   -3.0100  -13.8959 O   0  0  0  0  0  0  0  0  0  0  0  0
   22.6844   -5.5608  -12.4653 O   0  0  0  0  0  0  0  0  0  0  0  0
  2  1  1  6
  3  2  1  0
  4  6  1  0
  4  2  1  0
  4  5  1  1
  6  7  2  0
  8 12  1  0
  8  6  1  0
  9  8  1  0
 10  9  1  0
 10 11  1  0
 11 12  1  0
 13 14  2  0
 12 13  1  6
 15 13  1  0
 16 15  1  0
 16 20  1  0
 16 17  1  1
 18 17  1  0
 18 22  1  0
 19 18  2  0
 20 21  1  0
 23 20  2  0
M  END
$$$$
