TPD.pdb
     RDKit          3D

 23 23  0  0  1  0  0  0  0  0999 V2000
   20.9277  -10.8042  -19.1013 C   0  0  0  0  0  0  0  0  0  0  0  0
   20.5495  -11.9756  -18.2547 C   0  0  1  0  0  0  0  0  0  0  0  0
   20.3961  -13.1635  -18.9846 O   0  0  0  0  0  0  0  0  0  0  0  0
   21.5930  -12.1866  -17.1431 C   0  0  2  0  0  0  0  0  0  0  0  0
   21.2214  -13.4444  -16.5051 N   0  0  0  0  0  0  0  0  0  0  0  0
   21.5045  -11.0679  -16.1613 C   0  0  0  0  0  0  0  0  0  0  0  0
   20.3347  -10.6234  -16.0073 O   0  0  0  0  0  0  0  0  0  0  0  0
   22.6220  -10.5622  -15.4764 N   0  0  0  0  0  0  0  0  0  0  0  0
   23.6275  -11.4509  -14.8413 C   0  0  0  0  0  0  0  0  0  0  0  0
   24.8780  -10.8760  -15.4617 C   0  0  0  0  0  0  0  0  0  0  0  0
   24.5484   -9.4215  -15.7749 C   0  0  0  0  0  0  0  0  0  0  0  0
   23.1663   -9.2989  -15.1327 C   0  0  1  0  0  0  0  0  0  0  0  0
   22.4816   -8.0880  -15.4902 C   0  0  0  0  0  0  0  0  0  0  0  0
   22.1861   -7.7576  -16.6492 O   0  0  0  0  0  0  0  0  0  0  0  0
   22.0890   -7.1591  -14.4702 N   0  0  0  0  0  0  0  0  0  0  0  0
   21.4812   -5.8684  -14.8307 C   0  0  1  0  0  0  0  0  0  0  0  0
   20.0915   -5.8892  -14.2394 C   0  0  0  0  0  0  0  0  0  0  0  0
   19.3199   -4.6586  -14.5168 C   0  0  0  0  0  0  0  0  0  0  0  0
   19.8162   -3.5701  -14.9083 O   0  0  0  0  0  0  0  0  0  0  0  0
   22.2357   -4.7431  -14.2787 C   0  0  0  0  0  0  0  0  0  0  0  0
   23.1470   -4.9989  -13.2647 O   0  0  0  0  0  0  0  0  0  0  0  0
   17.9223   -4.6381  -14.3497 O   0  0  0  0  0  0  0  0  0  0  0  0
   22.1028   -3.5479  -14.6741 O   0  0  0  0  0  0  0  0  0  0  0  0
  2  1  1  6
  3  2  1  0
  4  6  1  0
  4  2  1  0
  4  5  1  1
  6  7  2  0
  8 12  1  0
  8  6  1  0
  9  8  1  0
 10  9  1  0
 10 11  1  0
 11 12  1  0
 13 14  2  0
 12 13  1  6
 15 13  1  0
 16 15  1  0
 16 20  1  0
 16 17  1  1
 18 17  1  0
 18 22  1  0
 19 18  2  0
 20 21  1  0
 23 20  2  0
M  END
$$$$
