TPD.pdb
     RDKit          3D

 23 23  0  0  1  0  0  0  0  0999 V2000
   19.8150   -9.6977  -19.5877 C   0  0  0  0  0  0  0  0  0  0  0  0
   19.4480  -10.9837  -18.9216 C   0  0  1  0  0  0  0  0  0  0  0  0
   19.1977  -12.0269  -19.8253 O   0  0  0  0  0  0  0  0  0  0  0  0
   20.5551  -11.4085  -17.9405 C   0  0  2  0  0  0  0  0  0  0  0  0
   20.1340  -12.7081  -17.4299 N   0  0  0  0  0  0  0  0  0  0  0  0
   20.6354  -10.4212  -16.8259 C   0  0  0  0  0  0  0  0  0  0  0  0
   19.5784   -9.7521  -16.6679 O   0  0  0  0  0  0  0  0  0  0  0  0
   21.7823  -10.2573  -16.0314 N   0  0  0  0  0  0  0  0  0  0  0  0
   22.5677  -11.4135  -15.5307 C   0  0  0  0  0  0  0  0  0  0  0  0
   23.9379  -10.9929  -16.0053 C   0  0  0  0  0  0  0  0  0  0  0  0
   23.8991   -9.4710  -16.0712 C   0  0  0  0  0  0  0  0  0  0  0  0
   22.5259   -9.1949  -15.4581 C   0  0  1  0  0  0  0  0  0  0  0  0
   22.0970   -7.8338  -15.6203 C   0  0  0  0  0  0  0  0  0  0  0  0
   21.9419   -7.2658  -16.7125 O   0  0  0  0  0  0  0  0  0  0  0  0
   21.8146   -7.0295  -14.4667 N   0  0  0  0  0  0  0  0  0  0  0  0
   21.5556   -5.5879  -14.6079 C   0  0  1  0  0  0  0  0  0  0  0  0
   20.0590   -5.4252  -14.4848 C   0  0  0  0  0  0  0  0  0  0  0  0
   19.6148   -4.0178  -14.5754 C   0  0  0  0  0  0  0  0  0  0  0  0
   20.3446   -3.0530  -14.9231 O   0  0  0  0  0  0  0  0  0  0  0  0
   22.2239   -4.8140  -13.5616 C   0  0  0  0  0  0  0  0  0  0  0  0
   22.2783   -3.4348  -13.6995 O   0  0  0  0  0  0  0  0  0  0  0  0
   18.2884   -3.6651  -14.2625 O   0  0  0  0  0  0  0  0  0  0  0  0
   22.7567   -5.3328  -12.5372 O   0  0  0  0  0  0  0  0  0  0  0  0
  2  1  1  6
  3  2  1  0
  4  6  1  0
  4  2  1  0
  4  5  1  1
  6  7  2  0
  8 12  1  0
  8  6  1  0
  9  8  1  0
 10  9  1  0
 10 11  1  0
 11 12  1  0
 13 14  2  0
 12 13  1  6
 15 13  1  0
 16 15  1  0
 16 20  1  0
 16 17  1  1
 18 17  1  0
 18 22  1  0
 19 18  2  0
 20 21  1  0
 23 20  2  0
M  END
$$$$
