GDD.pdb
     RDKit          3D

 21 20  0  0  1  0  0  0  0  0999 V2000
   17.0160  -10.2390  -10.3702 N   0  0  0  0  0  0  0  0  0  0  0  0
   16.0207   -9.4723  -11.0681 C   0  0  0  0  0  0  0  0  0  0  0  0
   16.5346   -9.0907  -12.4169 C   0  0  0  0  0  0  0  0  0  0  0  0
   17.1822   -9.9234  -13.0742 O   0  0  0  0  0  0  0  0  0  0  0  0
   16.3140   -7.8137  -12.9814 N   0  0  0  0  0  0  0  0  0  0  0  0
   16.6993   -7.5483  -14.3391 C   0  0  1  0  0  0  0  0  0  0  0  0
   15.6136   -6.8509  -15.1356 C   0  0  0  0  0  0  0  0  0  0  0  0
   14.4930   -7.7201  -15.4949 C   0  0  0  0  0  0  0  0  0  0  0  0
   14.5979   -8.7174  -16.2475 O   0  0  0  0  0  0  0  0  0  0  0  0
   17.9519   -6.7577  -14.3230 C   0  0  0  0  0  0  0  0  0  0  0  0
   18.0634   -5.7970  -13.5528 O   0  0  0  0  0  0  0  0  0  0  0  0
   13.2480   -7.4285  -14.9775 O   0  0  0  0  0  0  0  0  0  0  0  0
   19.0660   -7.0450  -15.1642 N   0  0  0  0  0  0  0  0  0  0  0  0
   20.2651   -6.2916  -15.1545 C   0  0  1  0  0  0  0  0  0  0  0  0
   21.4937   -7.0151  -15.6055 C   0  0  0  0  0  0  0  0  0  0  0  0
   21.7844   -8.2322  -14.8188 C   0  0  0  0  0  0  0  0  0  0  0  0
   21.6602   -8.2340  -13.5752 O   0  0  0  0  0  0  0  0  0  0  0  0
   20.1297   -5.0810  -16.0102 C   0  0  0  0  0  0  0  0  0  0  0  0
   21.0930   -4.0950  -16.0145 O   0  0  0  0  0  0  0  0  0  0  0  0
   22.1994   -9.3937  -15.4400 O   0  0  0  0  0  0  0  0  0  0  0  0
   19.1152   -4.9635  -16.7392 O   0  0  0  0  0  0  0  0  0  0  0  0
  1  2  1  0
  3  2  1  0
  3  4  2  0
  5  3  1  0
  6  5  1  0
  6 10  1  0
  6  7  1  1
  8 12  1  0
  8  7  1  0
  9  8  2  0
 10 13  1  0
 11 10  2  0
 13 14  1  0
 14 18  1  0
 14 15  1  6
 16 15  1  0
 17 16  2  0
 18 21  2  0
 18 19  1  0
 20 16  1  0
M  END
$$$$
