GDD.pdb
     RDKit          3D

 21 20  0  0  1  0  0  0  0  0999 V2000
   14.6076   -7.3612   -9.5064 N   0  0  0  0  0  0  0  0  0  0  0  0
   15.9563   -7.4997   -9.0294 C   0  0  0  0  0  0  0  0  0  0  0  0
   16.8210   -8.0443  -10.1177 C   0  0  0  0  0  0  0  0  0  0  0  0
   18.0156   -8.2871   -9.8756 O   0  0  0  0  0  0  0  0  0  0  0  0
   16.3347   -8.2968  -11.4207 N   0  0  0  0  0  0  0  0  0  0  0  0
   17.2065   -8.8412  -12.4236 C   0  0  1  0  0  0  0  0  0  0  0  0
   16.4592   -9.5716  -13.5225 C   0  0  0  0  0  0  0  0  0  0  0  0
   15.8863  -10.8495  -13.0993 C   0  0  0  0  0  0  0  0  0  0  0  0
   16.4349  -11.6214  -12.2775 O   0  0  0  0  0  0  0  0  0  0  0  0
   18.0338   -7.7408  -12.9705 C   0  0  0  0  0  0  0  0  0  0  0  0
   17.5077   -6.6596  -13.2579 O   0  0  0  0  0  0  0  0  0  0  0  0
   14.6727  -11.2303  -13.6331 O   0  0  0  0  0  0  0  0  0  0  0  0
   19.4372   -7.8561  -13.1912 N   0  0  0  0  0  0  0  0  0  0  0  0
   20.2422   -6.7913  -13.6642 C   0  0  1  0  0  0  0  0  0  0  0  0
   20.9051   -5.9584  -12.6140 C   0  0  0  0  0  0  0  0  0  0  0  0
   21.7472   -4.8753  -13.1639 C   0  0  0  0  0  0  0  0  0  0  0  0
   21.2448   -3.9642  -13.8562 O   0  0  0  0  0  0  0  0  0  0  0  0
   21.3152   -7.3041  -14.5597 C   0  0  0  0  0  0  0  0  0  0  0  0
   21.5754   -8.6535  -14.6666 O   0  0  0  0  0  0  0  0  0  0  0  0
   23.1072   -4.8459  -12.9250 O   0  0  0  0  0  0  0  0  0  0  0  0
   21.9915   -6.4847  -15.2272 O   0  0  0  0  0  0  0  0  0  0  0  0
  1  2  1  0
  3  2  1  0
  3  4  2  0
  5  3  1  0
  6  5  1  0
  6 10  1  0
  6  7  1  6
  8 12  1  0
  8  7  1  0
  9  8  2  0
 10 13  1  0
 11 10  2  0
 13 14  1  0
 14 18  1  0
 14 15  1  1
 16 15  1  0
 17 16  2  0
 18 21  2  0
 18 19  1  0
 20 16  1  0
M  END
$$$$
