GDD.pdb
     RDKit          3D

 21 20  0  0  1  0  0  0  0  0999 V2000
   21.7394  -13.0197  -20.1701 N   0  0  0  0  0  0  0  0  0  0  0  0
   21.8102  -11.5848  -20.1268 C   0  0  0  0  0  0  0  0  0  0  0  0
   22.3942  -11.1494  -18.8237 C   0  0  0  0  0  0  0  0  0  0  0  0
   21.7166  -11.2679  -17.7885 O   0  0  0  0  0  0  0  0  0  0  0  0
   23.6941  -10.6044  -18.7172 N   0  0  0  0  0  0  0  0  0  0  0  0
   24.1644  -10.1001  -17.4576 C   0  0  1  0  0  0  0  0  0  0  0  0
   25.6591  -10.2759  -17.2720 C   0  0  0  0  0  0  0  0  0  0  0  0
   26.1431   -9.8680  -15.9530 C   0  0  0  0  0  0  0  0  0  0  0  0
   25.4130   -9.3604  -15.0689 O   0  0  0  0  0  0  0  0  0  0  0  0
   23.7686   -8.6769  -17.3471 C   0  0  0  0  0  0  0  0  0  0  0  0
   23.8026   -7.9494  -18.3461 O   0  0  0  0  0  0  0  0  0  0  0  0
   27.4789  -10.0511  -15.6618 O   0  0  0  0  0  0  0  0  0  0  0  0
   23.3396   -8.0795  -16.1262 N   0  0  0  0  0  0  0  0  0  0  0  0
   22.7800   -6.7810  -16.0480 C   0  0  1  0  0  0  0  0  0  0  0  0
   21.5738   -6.5382  -16.8978 C   0  0  0  0  0  0  0  0  0  0  0  0
   21.0587   -5.1555  -16.8106 C   0  0  0  0  0  0  0  0  0  0  0  0
   21.3149   -4.4396  -15.8187 O   0  0  0  0  0  0  0  0  0  0  0  0
   22.4007   -6.4581  -14.6451 C   0  0  0  0  0  0  0  0  0  0  0  0
   22.3565   -7.4335  -13.6720 O   0  0  0  0  0  0  0  0  0  0  0  0
   20.2834   -4.6242  -17.8225 O   0  0  0  0  0  0  0  0  0  0  0  0
   22.1171   -5.2717  -14.3509 O   0  0  0  0  0  0  0  0  0  0  0  0
  1  2  1  0
  3  2  1  0
  3  4  2  0
  5  3  1  0
  6  5  1  0
  6 10  1  0
  6  7  1  6
  8 12  1  0
  8  7  1  0
  9  8  2  0
 10 13  1  0
 11 10  2  0
 13 14  1  0
 14 18  1  0
 14 15  1  6
 16 15  1  0
 17 16  2  0
 18 21  2  0
 18 19  1  0
 20 16  1  0
M  END
$$$$
