GDD.pdb
     RDKit          3D

 21 20  0  0  1  0  0  0  0  0999 V2000
   27.8024  -10.9755  -16.3022 N   0  0  0  0  0  0  0  0  0  0  0  0
   26.5294  -11.3484  -15.7488 C   0  0  0  0  0  0  0  0  0  0  0  0
   25.4695  -10.4318  -16.2638 C   0  0  0  0  0  0  0  0  0  0  0  0
   25.7661   -9.5921  -17.1307 O   0  0  0  0  0  0  0  0  0  0  0  0
   24.1338  -10.4793  -15.8035 N   0  0  0  0  0  0  0  0  0  0  0  0
   23.1266   -9.6667  -16.4258 C   0  0  1  0  0  0  0  0  0  0  0  0
   21.9242  -10.4670  -16.8876 C   0  0  0  0  0  0  0  0  0  0  0  0
   22.2240  -11.4222  -17.9544 C   0  0  0  0  0  0  0  0  0  0  0  0
   22.3345  -12.6579  -17.7729 O   0  0  0  0  0  0  0  0  0  0  0  0
   22.7346   -8.5998  -15.4759 C   0  0  0  0  0  0  0  0  0  0  0  0
   22.6126   -8.8607  -14.2736 O   0  0  0  0  0  0  0  0  0  0  0  0
   22.3956  -10.9389  -19.2349 O   0  0  0  0  0  0  0  0  0  0  0  0
   22.4828   -7.2548  -15.8747 N   0  0  0  0  0  0  0  0  0  0  0  0
   22.1686   -6.2172  -14.9636 C   0  0  1  0  0  0  0  0  0  0  0  0
   22.5417   -4.8349  -15.3951 C   0  0  0  0  0  0  0  0  0  0  0  0
   22.1437   -3.7877  -14.4309 C   0  0  0  0  0  0  0  0  0  0  0  0
   22.7194   -3.6838  -13.3265 O   0  0  0  0  0  0  0  0  0  0  0  0
   20.7099   -6.2054  -14.6664 C   0  0  0  0  0  0  0  0  0  0  0  0
   20.2340   -5.8346  -13.4269 O   0  0  0  0  0  0  0  0  0  0  0  0
   21.1273   -2.9013  -14.7288 O   0  0  0  0  0  0  0  0  0  0  0  0
   19.9042   -6.5412  -15.5678 O   0  0  0  0  0  0  0  0  0  0  0  0
  1  2  1  0
  3  2  1  0
  3  4  2  0
  5  3  1  0
  6  5  1  0
  6 10  1  0
  6  7  1  1
  8 12  1  0
  8  7  1  0
  9  8  2  0
 10 13  1  0
 11 10  2  0
 13 14  1  0
 14 18  1  0
 14 15  1  6
 16 15  1  0
 17 16  2  0
 18 21  2  0
 18 19  1  0
 20 16  1  0
M  END
$$$$
