GDD.pdb
     RDKit          3D

 21 20  0  0  1  0  0  0  0  0999 V2000
   16.3259  -10.2133  -10.6010 N   0  0  0  0  0  0  0  0  0  0  0  0
   15.9939   -9.8574  -11.9534 C   0  0  0  0  0  0  0  0  0  0  0  0
   17.2380   -9.7926  -12.7760 C   0  0  0  0  0  0  0  0  0  0  0  0
   18.3397   -9.9270  -12.2166 O   0  0  0  0  0  0  0  0  0  0  0  0
   17.2153   -9.5833  -14.1738 N   0  0  0  0  0  0  0  0  0  0  0  0
   18.4437   -9.5280  -14.9155 C   0  0  1  0  0  0  0  0  0  0  0  0
   18.2764   -9.9349  -16.3666 C   0  0  0  0  0  0  0  0  0  0  0  0
   17.8775  -11.3309  -16.5470 C   0  0  0  0  0  0  0  0  0  0  0  0
   18.5112  -12.3037  -16.0736 O   0  0  0  0  0  0  0  0  0  0  0  0
   18.9995   -8.1600  -14.7972 C   0  0  0  0  0  0  0  0  0  0  0  0
   18.3482   -7.2785  -14.2252 O   0  0  0  0  0  0  0  0  0  0  0  0
   16.7391  -11.5957  -17.2796 O   0  0  0  0  0  0  0  0  0  0  0  0
   20.2736   -7.7886  -15.3169 N   0  0  0  0  0  0  0  0  0  0  0  0
   20.8893   -6.5406  -15.0541 C   0  0  1  0  0  0  0  0  0  0  0  0
   21.1954   -6.2536  -13.6188 C   0  0  0  0  0  0  0  0  0  0  0  0
   21.7784   -4.9138  -13.3959 C   0  0  0  0  0  0  0  0  0  0  0  0
   22.9708   -4.7864  -13.0437 O   0  0  0  0  0  0  0  0  0  0  0  0
   22.1668   -6.4179  -15.8084 C   0  0  0  0  0  0  0  0  0  0  0  0
   22.7102   -7.4937  -16.4774 O   0  0  0  0  0  0  0  0  0  0  0  0
   21.0191   -3.7736  -13.5717 O   0  0  0  0  0  0  0  0  0  0  0  0
   22.7544   -5.3095  -15.8305 O   0  0  0  0  0  0  0  0  0  0  0  0
  1  2  1  0
  3  2  1  0
  3  4  2  0
  5  3  1  0
  6  5  1  0
  6 10  1  0
  6  7  1  6
  8 12  1  0
  8  7  1  0
  9  8  2  0
 10 13  1  0
 11 10  2  0
 13 14  1  0
 14 18  1  0
 14 15  1  1
 16 15  1  0
 17 16  2  0
 18 21  2  0
 18 19  1  0
 20 16  1  0
M  END
$$$$
