GDD.pdb
     RDKit          3D

 21 20  0  0  1  0  0  0  0  0999 V2000
   15.6039   -9.6169  -15.5899 N   0  0  0  0  0  0  0  0  0  0  0  0
   16.6511   -9.9636  -16.5113 C   0  0  0  0  0  0  0  0  0  0  0  0
   17.9800   -9.7006  -15.8840 C   0  0  0  0  0  0  0  0  0  0  0  0
   18.5826  -10.6363  -15.3308 O   0  0  0  0  0  0  0  0  0  0  0  0
   18.5856   -8.4233  -15.8929 N   0  0  0  0  0  0  0  0  0  0  0  0
   19.8954   -8.2416  -15.3329 C   0  0  1  0  0  0  0  0  0  0  0  0
   20.9419   -9.1295  -15.9778 C   0  0  0  0  0  0  0  0  0  0  0  0
   22.2762   -8.9906  -15.3940 C   0  0  0  0  0  0  0  0  0  0  0  0
   23.2547   -8.4951  -16.0014 O   0  0  0  0  0  0  0  0  0  0  0  0
   20.2567   -6.8094  -15.4450 C   0  0  0  0  0  0  0  0  0  0  0  0
   20.3906   -6.2940  -16.5607 O   0  0  0  0  0  0  0  0  0  0  0  0
   22.4724   -9.4291  -14.1009 O   0  0  0  0  0  0  0  0  0  0  0  0
   20.4648   -5.9670  -14.3142 N   0  0  0  0  0  0  0  0  0  0  0  0
   20.7917   -4.5928  -14.4153 C   0  0  1  0  0  0  0  0  0  0  0  0
   19.8072   -3.6421  -13.8129 C   0  0  0  0  0  0  0  0  0  0  0  0
   18.8786   -3.0503  -14.7990 C   0  0  0  0  0  0  0  0  0  0  0  0
   19.0885   -3.1684  -16.0253 O   0  0  0  0  0  0  0  0  0  0  0  0
   22.1102   -4.3203  -13.7800 C   0  0  0  0  0  0  0  0  0  0  0  0
   22.7490   -5.2742  -13.0170 O   0  0  0  0  0  0  0  0  0  0  0  0
   17.7591   -2.3540  -14.3874 O   0  0  0  0  0  0  0  0  0  0  0  0
   22.6439   -3.1971  -13.9475 O   0  0  0  0  0  0  0  0  0  0  0  0
  1  2  1  0
  3  2  1  0
  3  4  2  0
  5  3  1  0
  6  5  1  0
  6 10  1  0
  6  7  1  6
  8 12  1  0
  8  7  1  0
  9  8  2  0
 10 13  1  0
 11 10  2  0
 13 14  1  0
 14 18  1  0
 14 15  1  1
 16 15  1  0
 17 16  2  0
 18 21  2  0
 18 19  1  0
 20 16  1  0
M  END
$$$$
