GDD.pdb
     RDKit          3D

 21 20  0  0  1  0  0  0  0  0999 V2000
   16.9579   -7.5055  -14.0089 N   0  0  0  0  0  0  0  0  0  0  0  0
   17.2578   -8.7527  -14.6572 C   0  0  0  0  0  0  0  0  0  0  0  0
   18.7374   -8.9194  -14.7663 C   0  0  0  0  0  0  0  0  0  0  0  0
   19.3515   -9.4819  -13.8437 O   0  0  0  0  0  0  0  0  0  0  0  0
   19.4739   -8.4611  -15.8824 N   0  0  0  0  0  0  0  0  0  0  0  0
   20.8849   -8.7135  -15.9690 C   0  0  1  0  0  0  0  0  0  0  0  0
   21.3046   -9.2652  -17.3177 C   0  0  0  0  0  0  0  0  0  0  0  0
   22.7271   -9.5956  -17.4047 C   0  0  0  0  0  0  0  0  0  0  0  0
   23.6017   -8.8046  -17.8309 O   0  0  0  0  0  0  0  0  0  0  0  0
   21.6043   -7.4585  -15.6497 C   0  0  0  0  0  0  0  0  0  0  0  0
   22.8401   -7.4343  -15.6740 O   0  0  0  0  0  0  0  0  0  0  0  0
   23.1330  -10.8486  -16.9950 O   0  0  0  0  0  0  0  0  0  0  0  0
   20.9402   -6.2448  -15.3069 N   0  0  0  0  0  0  0  0  0  0  0  0
   21.6224   -5.0612  -14.9338 C   0  0  1  0  0  0  0  0  0  0  0  0
   21.1683   -3.8063  -15.6083 C   0  0  0  0  0  0  0  0  0  0  0  0
   21.8977   -2.6000  -15.1638 C   0  0  0  0  0  0  0  0  0  0  0  0
   21.4329   -1.8676  -14.2641 O   0  0  0  0  0  0  0  0  0  0  0  0
   21.5137   -4.8348  -13.4664 C   0  0  0  0  0  0  0  0  0  0  0  0
   22.3921   -4.0059  -12.8021 O   0  0  0  0  0  0  0  0  0  0  0  0
   23.1082   -2.2555  -15.7324 O   0  0  0  0  0  0  0  0  0  0  0  0
   20.6011   -5.4140  -12.8290 O   0  0  0  0  0  0  0  0  0  0  0  0
  1  2  1  0
  3  2  1  0
  3  4  2  0
  5  3  1  0
  6  5  1  0
  6 10  1  0
  6  7  1  6
  8 12  1  0
  8  7  1  0
  9  8  2  0
 10 13  1  0
 11 10  2  0
 13 14  1  0
 14 18  1  0
 14 15  1  6
 16 15  1  0
 17 16  2  0
 18 21  2  0
 18 19  1  0
 20 16  1  0
M  END
$$$$
