GDD.pdb
     RDKit          3D

 21 20  0  0  1  0  0  0  0  0999 V2000
   12.8613  -11.1810   -9.9044 N   0  0  0  0  0  0  0  0  0  0  0  0
   13.2988  -10.4100   -8.7730 C   0  0  0  0  0  0  0  0  0  0  0  0
   13.7729   -9.0704   -9.2307 C   0  0  0  0  0  0  0  0  0  0  0  0
   13.1943   -8.5174  -10.1815 O   0  0  0  0  0  0  0  0  0  0  0  0
   14.8596   -8.4003   -8.6238 N   0  0  0  0  0  0  0  0  0  0  0  0
   15.2881   -7.1229   -9.1205 C   0  0  1  0  0  0  0  0  0  0  0  0
   15.4826   -6.0967   -8.0211 C   0  0  0  0  0  0  0  0  0  0  0  0
   15.8427   -4.7662   -8.5113 C   0  0  0  0  0  0  0  0  0  0  0  0
   15.1286   -3.7478   -8.3520 O   0  0  0  0  0  0  0  0  0  0  0  0
   16.5299   -7.3191   -9.9041 C   0  0  0  0  0  0  0  0  0  0  0  0
   17.4192   -8.0615   -9.4722 O   0  0  0  0  0  0  0  0  0  0  0  0
   17.0356   -4.6199   -9.1882 O   0  0  0  0  0  0  0  0  0  0  0  0
   16.7678   -6.6870  -11.1591 N   0  0  0  0  0  0  0  0  0  0  0  0
   17.7443   -7.1317  -12.0835 C   0  0  1  0  0  0  0  0  0  0  0  0
   17.6722   -8.5759  -12.4642 C   0  0  0  0  0  0  0  0  0  0  0  0
   18.6342   -8.9569  -13.5197 C   0  0  0  0  0  0  0  0  0  0  0  0
   19.8301   -8.5999  -13.4534 O   0  0  0  0  0  0  0  0  0  0  0  0
   17.6710   -6.3415  -13.3430 C   0  0  0  0  0  0  0  0  0  0  0  0
   18.6526   -6.4357  -14.3063 O   0  0  0  0  0  0  0  0  0  0  0  0
   18.2334   -9.7154  -14.6021 O   0  0  0  0  0  0  0  0  0  0  0  0
   16.6929   -5.5766  -13.5235 O   0  0  0  0  0  0  0  0  0  0  0  0
  1  2  1  0
  3  2  1  0
  3  4  2  0
  5  3  1  0
  6  5  1  0
  6 10  1  0
  6  7  1  1
  8 12  1  0
  8  7  1  0
  9  8  2  0
 10 13  1  0
 11 10  2  0
 13 14  1  0
 14 18  1  0
 14 15  1  6
 16 15  1  0
 17 16  2  0
 18 21  2  0
 18 19  1  0
 20 16  1  0
M  END
$$$$
