GDD.pdb
     RDKit          3D

 21 20  0  0  1  0  0  0  0  0999 V2000
   14.9832  -11.7065  -10.7371 N   0  0  0  0  0  0  0  0  0  0  0  0
   14.5278  -10.8136   -9.7070 C   0  0  0  0  0  0  0  0  0  0  0  0
   14.8458   -9.4050  -10.0861 C   0  0  0  0  0  0  0  0  0  0  0  0
   14.5605   -9.0079  -11.2287 O   0  0  0  0  0  0  0  0  0  0  0  0
   15.4620   -8.4981   -9.1938 N   0  0  0  0  0  0  0  0  0  0  0  0
   15.7176   -7.1453   -9.6019 C   0  0  1  0  0  0  0  0  0  0  0  0
   15.4930   -6.1401   -8.4889 C   0  0  0  0  0  0  0  0  0  0  0  0
   15.7100   -4.7512   -8.8939 C   0  0  0  0  0  0  0  0  0  0  0  0
   16.0183   -4.4048  -10.0589 O   0  0  0  0  0  0  0  0  0  0  0  0
   17.0999   -7.0697  -10.1290 C   0  0  0  0  0  0  0  0  0  0  0  0
   18.0596   -7.1737   -9.3565 O   0  0  0  0  0  0  0  0  0  0  0  0
   15.5680   -3.7632   -7.9419 O   0  0  0  0  0  0  0  0  0  0  0  0
   17.3986   -6.8793  -11.5095 N   0  0  0  0  0  0  0  0  0  0  0  0
   18.7178   -6.7959  -12.0177 C   0  0  1  0  0  0  0  0  0  0  0  0
   19.3394   -8.0906  -12.4343 C   0  0  0  0  0  0  0  0  0  0  0  0
   20.7201   -7.9463  -12.9419 C   0  0  0  0  0  0  0  0  0  0  0  0
   21.4303   -6.9781  -12.5954 O   0  0  0  0  0  0  0  0  0  0  0  0
   18.7690   -5.8857  -13.1946 C   0  0  0  0  0  0  0  0  0  0  0  0
   19.9689   -5.4246  -13.6924 O   0  0  0  0  0  0  0  0  0  0  0  0
   21.2557   -8.8776  -13.8098 O   0  0  0  0  0  0  0  0  0  0  0  0
   17.6936   -5.5360  -13.7385 O   0  0  0  0  0  0  0  0  0  0  0  0
  1  2  1  0
  3  2  1  0
  3  4  2  0
  5  3  1  0
  6  5  1  0
  6 10  1  0
  6  7  1  1
  8 12  1  0
  8  7  1  0
  9  8  2  0
 10 13  1  0
 11 10  2  0
 13 14  1  0
 14 18  1  0
 14 15  1  6
 16 15  1  0
 17 16  2  0
 18 21  2  0
 18 19  1  0
 20 16  1  0
M  END
$$$$
