GDD.pdb
     RDKit          3D

 21 20  0  0  1  0  0  0  0  0999 V2000
   15.9485   -9.3751  -10.2202 N   0  0  0  0  0  0  0  0  0  0  0  0
   15.7211   -9.2453  -11.6335 C   0  0  0  0  0  0  0  0  0  0  0  0
   17.0124   -9.3999  -12.3666 C   0  0  0  0  0  0  0  0  0  0  0  0
   18.0546   -9.5981  -11.7191 O   0  0  0  0  0  0  0  0  0  0  0  0
   17.0999   -9.3297  -13.7757 N   0  0  0  0  0  0  0  0  0  0  0  0
   18.3771   -9.4243  -14.4252 C   0  0  1  0  0  0  0  0  0  0  0  0
   18.3320  -10.2437  -15.7003 C   0  0  0  0  0  0  0  0  0  0  0  0
   17.9964  -11.6516  -15.4868 C   0  0  0  0  0  0  0  0  0  0  0  0
   18.8284  -12.5209  -15.1345 O   0  0  0  0  0  0  0  0  0  0  0  0
   18.8740   -8.0523  -14.6804 C   0  0  0  0  0  0  0  0  0  0  0  0
   18.0880   -7.1715  -15.0478 O   0  0  0  0  0  0  0  0  0  0  0  0
   16.6902  -12.0490  -15.6835 O   0  0  0  0  0  0  0  0  0  0  0  0
   20.2398   -7.6761  -14.5239 N   0  0  0  0  0  0  0  0  0  0  0  0
   20.7134   -6.3570  -14.7271 C   0  0  1  0  0  0  0  0  0  0  0  0
   20.3732   -5.3696  -13.6570 C   0  0  0  0  0  0  0  0  0  0  0  0
   20.8364   -3.9971  -13.9510 C   0  0  0  0  0  0  0  0  0  0  0  0
   21.9617   -3.6076  -13.5718 O   0  0  0  0  0  0  0  0  0  0  0  0
   22.1947   -6.3498  -14.8760 C   0  0  0  0  0  0  0  0  0  0  0  0
   22.8629   -5.2370  -15.3399 O   0  0  0  0  0  0  0  0  0  0  0  0
   20.0366   -3.1152  -14.6510 O   0  0  0  0  0  0  0  0  0  0  0  0
   22.8402   -7.3816  -14.5710 O   0  0  0  0  0  0  0  0  0  0  0  0
  1  2  1  0
  3  2  1  0
  3  4  2  0
  5  3  1  0
  6  5  1  0
  6 10  1  0
  6  7  1  6
  8 12  1  0
  8  7  1  0
  9  8  2  0
 10 13  1  0
 11 10  2  0
 13 14  1  0
 14 18  1  0
 14 15  1  1
 16 15  1  0
 17 16  2  0
 18 21  2  0
 18 19  1  0
 20 16  1  0
M  END
$$$$
