GDD.pdb
     RDKit          3D

 21 20  0  0  1  0  0  0  0  0999 V2000
   16.9082  -10.5306  -18.7191 N   0  0  0  0  0  0  0  0  0  0  0  0
   16.5517   -9.6327  -17.6549 C   0  0  0  0  0  0  0  0  0  0  0  0
   17.7095   -9.4683  -16.7268 C   0  0  0  0  0  0  0  0  0  0  0  0
   17.5297   -9.6122  -15.5055 O   0  0  0  0  0  0  0  0  0  0  0  0
   19.0102   -9.1537  -17.1821 N   0  0  0  0  0  0  0  0  0  0  0  0
   20.0978   -9.0577  -16.2494 C   0  0  1  0  0  0  0  0  0  0  0  0
   21.1839  -10.0858  -16.5006 C   0  0  0  0  0  0  0  0  0  0  0  0
   21.0357  -11.3076  -15.7098 C   0  0  0  0  0  0  0  0  0  0  0  0
   20.8410  -12.4414  -16.2086 O   0  0  0  0  0  0  0  0  0  0  0  0
   20.6358   -7.6784  -16.2996 C   0  0  0  0  0  0  0  0  0  0  0  0
   21.1441   -7.2538  -17.3435 O   0  0  0  0  0  0  0  0  0  0  0  0
   21.1141  -11.2104  -14.3361 O   0  0  0  0  0  0  0  0  0  0  0  0
   20.6018   -6.7874  -15.1877 N   0  0  0  0  0  0  0  0  0  0  0  0
   21.1352   -5.4759  -15.2228 C   0  0  1  0  0  0  0  0  0  0  0  0
   20.1351   -4.3644  -15.2079 C   0  0  0  0  0  0  0  0  0  0  0  0
   20.7470   -3.0192  -15.2354 C   0  0  0  0  0  0  0  0  0  0  0  0
   21.8221   -2.8185  -15.8403 O   0  0  0  0  0  0  0  0  0  0  0  0
   22.0552   -5.2540  -14.0737 C   0  0  0  0  0  0  0  0  0  0  0  0
   23.0940   -4.3513  -14.1513 O   0  0  0  0  0  0  0  0  0  0  0  0
   20.1447   -1.9547  -14.5938 O   0  0  0  0  0  0  0  0  0  0  0  0
   21.8744   -5.9059  -13.0169 O   0  0  0  0  0  0  0  0  0  0  0  0
  1  2  1  0
  3  2  1  0
  3  4  2  0
  5  3  1  0
  6  5  1  0
  6 10  1  0
  6  7  1  6
  8 12  1  0
  8  7  1  0
  9  8  2  0
 10 13  1  0
 11 10  2  0
 13 14  1  0
 14 18  1  0
 14 15  1  1
 16 15  1  0
 17 16  2  0
 18 21  2  0
 18 19  1  0
 20 16  1  0
M  END
$$$$
