GDD.pdb
     RDKit          3D

 21 20  0  0  1  0  0  0  0  0999 V2000
   28.2109  -12.1137  -16.4217 N   0  0  0  0  0  0  0  0  0  0  0  0
   27.1686  -11.8146  -15.4784 C   0  0  0  0  0  0  0  0  0  0  0  0
   26.1047  -11.0063  -16.1445 C   0  0  0  0  0  0  0  0  0  0  0  0
   26.3946  -10.3400  -17.1528 O   0  0  0  0  0  0  0  0  0  0  0  0
   24.7726  -10.9668  -15.6731 N   0  0  0  0  0  0  0  0  0  0  0  0
   23.7846  -10.1884  -16.3660 C   0  0  1  0  0  0  0  0  0  0  0  0
   22.6048  -11.0161  -16.8376 C   0  0  0  0  0  0  0  0  0  0  0  0
   22.9596  -12.0528  -17.8070 C   0  0  0  0  0  0  0  0  0  0  0  0
   23.1346  -13.2575  -17.5065 O   0  0  0  0  0  0  0  0  0  0  0  0
   23.3515   -9.0853  -15.4772 C   0  0  0  0  0  0  0  0  0  0  0  0
   23.1928   -9.2947  -14.2691 O   0  0  0  0  0  0  0  0  0  0  0  0
   23.1112  -11.6874  -19.1284 O   0  0  0  0  0  0  0  0  0  0  0  0
   23.0999   -7.7620  -15.9428 N   0  0  0  0  0  0  0  0  0  0  0  0
   22.6344   -6.7169  -15.1080 C   0  0  1  0  0  0  0  0  0  0  0  0
   22.9139   -5.3275  -15.5849 C   0  0  0  0  0  0  0  0  0  0  0  0
   22.3632   -4.2782  -14.7015 C   0  0  0  0  0  0  0  0  0  0  0  0
   21.3629   -3.6129  -15.0462 O   0  0  0  0  0  0  0  0  0  0  0  0
   21.1634   -6.8241  -14.9061 C   0  0  0  0  0  0  0  0  0  0  0  0
   20.5845   -6.5385  -13.6881 O   0  0  0  0  0  0  0  0  0  0  0  0
   22.9413   -4.0096  -13.4764 O   0  0  0  0  0  0  0  0  0  0  0  0
   20.4432   -7.1824  -15.8691 O   0  0  0  0  0  0  0  0  0  0  0  0
  1  2  1  0
  3  2  1  0
  3  4  2  0
  5  3  1  0
  6  5  1  0
  6 10  1  0
  6  7  1  1
  8 12  1  0
  8  7  1  0
  9  8  2  0
 10 13  1  0
 11 10  2  0
 13 14  1  0
 14 18  1  0
 14 15  1  6
 16 15  1  0
 17 16  2  0
 18 21  2  0
 18 19  1  0
 20 16  1  0
M  END
$$$$
