GDD.pdb
     RDKit          3D

 21 20  0  0  1  0  0  0  0  0999 V2000
   14.2649  -11.1825  -10.9993 N   0  0  0  0  0  0  0  0  0  0  0  0
   14.6641  -10.5196   -9.7881 C   0  0  0  0  0  0  0  0  0  0  0  0
   14.9090   -9.0730  -10.0641 C   0  0  0  0  0  0  0  0  0  0  0  0
   14.5773   -8.6038  -11.1661 O   0  0  0  0  0  0  0  0  0  0  0  0
   15.5064   -8.2090   -9.1181 N   0  0  0  0  0  0  0  0  0  0  0  0
   15.7867   -6.8437   -9.4637 C   0  0  1  0  0  0  0  0  0  0  0  0
   15.5509   -5.8831   -8.3142 C   0  0  0  0  0  0  0  0  0  0  0  0
   14.1372   -5.6299   -8.0358 C   0  0  0  0  0  0  0  0  0  0  0  0
   13.4948   -6.1960   -7.1197 O   0  0  0  0  0  0  0  0  0  0  0  0
   17.1805   -6.7639   -9.9588 C   0  0  0  0  0  0  0  0  0  0  0  0
   18.1211   -6.7936   -9.1570 O   0  0  0  0  0  0  0  0  0  0  0  0
   13.4694   -4.7163   -8.8245 O   0  0  0  0  0  0  0  0  0  0  0  0
   17.5118   -6.6520  -11.3405 N   0  0  0  0  0  0  0  0  0  0  0  0
   18.8428   -6.6210  -11.8232 C   0  0  1  0  0  0  0  0  0  0  0  0
   19.4587   -7.9499  -12.1243 C   0  0  0  0  0  0  0  0  0  0  0  0
   20.8483   -7.8581  -12.6195 C   0  0  0  0  0  0  0  0  0  0  0  0
   21.5765   -6.8925  -12.3044 O   0  0  0  0  0  0  0  0  0  0  0  0
   18.9303   -5.8052  -13.0654 C   0  0  0  0  0  0  0  0  0  0  0  0
   20.1007   -5.1727  -13.4265 O   0  0  0  0  0  0  0  0  0  0  0  0
   21.3728   -8.8367  -13.4410 O   0  0  0  0  0  0  0  0  0  0  0  0
   17.9137   -5.6962  -13.7927 O   0  0  0  0  0  0  0  0  0  0  0  0
  1  2  1  0
  3  2  1  0
  3  4  2  0
  5  3  1  0
  6  5  1  0
  6 10  1  0
  6  7  1  1
  8 12  1  0
  8  7  1  0
  9  8  2  0
 10 13  1  0
 11 10  2  0
 13 14  1  0
 14 18  1  0
 14 15  1  6
 16 15  1  0
 17 16  2  0
 18 21  2  0
 18 19  1  0
 20 16  1  0
M  END
$$$$
