GDD.pdb
     RDKit          3D

 21 20  0  0  1  0  0  0  0  0999 V2000
   19.7279  -13.1057  -16.1695 N   0  0  0  0  0  0  0  0  0  0  0  0
   20.0780  -12.2581  -17.2762 C   0  0  0  0  0  0  0  0  0  0  0  0
   19.4832  -10.9030  -17.0794 C   0  0  0  0  0  0  0  0  0  0  0  0
   19.8463   -9.9710  -17.8171 O   0  0  0  0  0  0  0  0  0  0  0  0
   18.5179  -10.6339  -16.0825 N   0  0  0  0  0  0  0  0  0  0  0  0
   17.9140   -9.3340  -15.9947 C   0  0  1  0  0  0  0  0  0  0  0  0
   16.5322   -9.3655  -15.3709 C   0  0  0  0  0  0  0  0  0  0  0  0
   15.8800   -8.0573  -15.3122 C   0  0  0  0  0  0  0  0  0  0  0  0
   16.2283   -7.0730  -16.0064 O   0  0  0  0  0  0  0  0  0  0  0  0
   18.8280   -8.4442  -15.2416 C   0  0  0  0  0  0  0  0  0  0  0  0
   19.2602   -8.7975  -14.1385 O   0  0  0  0  0  0  0  0  0  0  0  0
   14.8204   -7.8938  -14.4441 O   0  0  0  0  0  0  0  0  0  0  0  0
   19.2505   -7.1716  -15.7245 N   0  0  0  0  0  0  0  0  0  0  0  0
   20.1492   -6.3308  -15.0238 C   0  0  1  0  0  0  0  0  0  0  0  0
   21.5363   -6.2535  -15.5771 C   0  0  0  0  0  0  0  0  0  0  0  0
   22.4584   -5.4485  -14.7486 C   0  0  0  0  0  0  0  0  0  0  0  0
   22.0898   -4.9863  -13.6475 O   0  0  0  0  0  0  0  0  0  0  0  0
   19.6235   -4.9394  -14.9610 C   0  0  0  0  0  0  0  0  0  0  0  0
   19.5370   -4.2593  -13.7652 O   0  0  0  0  0  0  0  0  0  0  0  0
   23.7471   -5.1893  -15.1725 O   0  0  0  0  0  0  0  0  0  0  0  0
   19.2539   -4.3819  -16.0226 O   0  0  0  0  0  0  0  0  0  0  0  0
  1  2  1  0
  3  2  1  0
  3  4  2  0
  5  3  1  0
  6  5  1  0
  6 10  1  0
  6  7  1  1
  8 12  1  0
  8  7  1  0
  9  8  2  0
 10 13  1  0
 11 10  2  0
 13 14  1  0
 14 18  1  0
 14 15  1  6
 16 15  1  0
 17 16  2  0
 18 21  2  0
 18 19  1  0
 20 16  1  0
M  END
$$$$
