GDD.pdb
     RDKit          3D

 21 20  0  0  1  0  0  0  0  0999 V2000
   15.0012  -13.9928  -11.8551 N   0  0  0  0  0  0  0  0  0  0  0  0
   14.6955  -13.0163  -12.8644 C   0  0  0  0  0  0  0  0  0  0  0  0
   14.3953  -11.7038  -12.2194 C   0  0  0  0  0  0  0  0  0  0  0  0
   14.1624  -10.7168  -12.9380 O   0  0  0  0  0  0  0  0  0  0  0  0
   14.3647  -11.5355  -10.8162 N   0  0  0  0  0  0  0  0  0  0  0  0
   13.9555  -10.2816  -10.2483 C   0  0  1  0  0  0  0  0  0  0  0  0
   13.0993  -10.4464   -9.0077 C   0  0  0  0  0  0  0  0  0  0  0  0
   11.7360  -10.8984   -9.2860 C   0  0  0  0  0  0  0  0  0  0  0  0
   10.9475  -10.3016  -10.0569 O   0  0  0  0  0  0  0  0  0  0  0  0
   15.1681   -9.4786   -9.9668 C   0  0  0  0  0  0  0  0  0  0  0  0
   16.1187   -9.9901   -9.3641 O   0  0  0  0  0  0  0  0  0  0  0  0
   11.2891  -12.0469   -8.6662 O   0  0  0  0  0  0  0  0  0  0  0  0
   15.3089   -8.1156  -10.3590 N   0  0  0  0  0  0  0  0  0  0  0  0
   16.5147   -7.3855  -10.2224 C   0  0  1  0  0  0  0  0  0  0  0  0
   17.2092   -7.0285  -11.4976 C   0  0  0  0  0  0  0  0  0  0  0  0
   18.4242   -6.2105  -11.2992 C   0  0  0  0  0  0  0  0  0  0  0  0
   19.2353   -6.4817  -10.3878 O   0  0  0  0  0  0  0  0  0  0  0  0
   16.2770   -6.1162   -9.4817 C   0  0  0  0  0  0  0  0  0  0  0  0
   15.0148   -5.5716   -9.3795 O   0  0  0  0  0  0  0  0  0  0  0  0
   18.6901   -5.1289  -12.1159 O   0  0  0  0  0  0  0  0  0  0  0  0
   17.2507   -5.5367   -8.9427 O   0  0  0  0  0  0  0  0  0  0  0  0
  1  2  1  0
  3  2  1  0
  3  4  2  0
  5  3  1  0
  6  5  1  0
  6 10  1  0
  6  7  1  1
  8 12  1  0
  8  7  1  0
  9  8  2  0
 10 13  1  0
 11 10  2  0
 13 14  1  0
 14 18  1  0
 14 15  1  6
 16 15  1  0
 17 16  2  0
 18 21  2  0
 18 19  1  0
 20 16  1  0
M  END
$$$$
