LII.pdb
     RDKit          3D

 25 24  0  0  1  0  0  0  0  0999 V2000
    5.6162  -16.8303   20.1177 C   0  0  0  0  0  0  0  0  0  0  0  0
    6.9729  -17.4530   20.2826 C   0  0  2  0  0  0  0  0  0  0  0  0
    6.9506  -18.9478   20.0993 C   0  0  0  0  0  0  0  0  0  0  0  0
    7.5919  -17.0740   21.6331 C   0  0  0  0  0  0  0  0  0  0  0  0
    7.6512  -15.5550   21.6378 C   0  0  2  0  0  0  0  0  0  0  0  0
    8.2217  -15.1406   20.3814 N   0  0  0  0  0  0  0  0  0  0  0  0
    8.4466  -15.0652   22.8144 C   0  0  0  0  0  0  0  0  0  0  0  0
    9.6634  -14.9626   22.6257 O   0  0  0  0  0  0  0  0  0  0  0  0
    5.6372  -11.8887   26.3085 C   0  0  0  0  0  0  0  0  0  0  0  0
    6.7955  -12.4449   25.5164 C   0  0  0  0  0  0  0  0  0  0  0  0
    7.3053  -13.7385   26.1338 C   0  0  2  0  0  0  0  0  0  0  0  0
    7.9014  -13.3819   27.5037 C   0  0  0  0  0  0  0  0  0  0  0  0
    8.3325  -14.3954   25.2531 C   0  0  2  0  0  0  0  0  0  0  0  0
    7.7521  -14.7827   23.9709 N   0  0  0  0  0  0  0  0  0  0  0  0
    9.0252  -15.5167   25.8735 C   0  0  0  0  0  0  0  0  0  0  0  0
    8.3458  -16.5706   26.2242 O   0  0  0  0  0  0  0  0  0  0  0  0
   13.7409  -16.9026   24.1110 C   0  0  0  0  0  0  0  0  0  0  0  0
   12.3471  -16.8232   24.6736 C   0  0  0  0  0  0  0  0  0  0  0  0
   12.3806  -17.0092   26.1676 C   0  0  2  0  0  0  0  0  0  0  0  0
   13.0042  -18.3199   26.5205 C   0  0  0  0  0  0  0  0  0  0  0  0
   10.9887  -16.8514   26.7408 C   0  0  2  0  0  0  0  0  0  0  0  0
   10.4072  -15.6338   26.1597 N   0  0  0  0  0  0  0  0  0  0  0  0
   10.9877  -16.8216   28.2107 C   0  0  0  0  0  0  0  0  0  0  0  0
   10.8874  -17.9813   28.9668 O   0  0  0  0  0  0  0  0  0  0  0  0
   11.0768  -15.7512   28.8655 O   0  0  0  0  0  0  0  0  0  0  0  0
  2  1  1  1
  2  3  1  0
  4  5  1  0
  4  2  1  0
  5  6  1  6
  7  5  1  0
  7  8  2  0
 10  9  1  0
 11 10  1  0
 11 13  1  0
 11 12  1  1
 13 14  1  6
 14  7  1  0
 15 13  1  0
 16 15  2  0
 17 18  1  0
 18 19  1  0
 19 21  1  0
 19 20  1  6
 21 22  1  6
 21 23  1  0
 22 15  1  0
 23 24  1  0
 25 23  2  0
M  END
$$$$
