LII.pdb
     RDKit          3D

 25 24  0  0  1  0  0  0  0  0999 V2000
    8.9711  -14.4477   18.4072 C   0  0  0  0  0  0  0  0  0  0  0  0
    7.6855  -13.7798   18.8031 C   0  0  2  0  0  0  0  0  0  0  0  0
    7.3737  -12.5746   17.9555 C   0  0  0  0  0  0  0  0  0  0  0  0
    7.6896  -13.4179   20.2929 C   0  0  0  0  0  0  0  0  0  0  0  0
    8.1265  -14.6825   21.0144 C   0  0  2  0  0  0  0  0  0  0  0  0
    6.9760  -15.5443   21.1119 N   0  0  0  0  0  0  0  0  0  0  0  0
    8.7023  -14.3457   22.3604 C   0  0  0  0  0  0  0  0  0  0  0  0
    9.7898  -13.7595   22.3398 O   0  0  0  0  0  0  0  0  0  0  0  0
    5.1969  -12.1649   25.6002 C   0  0  0  0  0  0  0  0  0  0  0  0
    6.4804  -12.5960   24.9327 C   0  0  0  0  0  0  0  0  0  0  0  0
    7.0113  -13.8798   25.5526 C   0  0  2  0  0  0  0  0  0  0  0  0
    7.2898  -13.5854   27.0342 C   0  0  0  0  0  0  0  0  0  0  0  0
    8.2571  -14.3490   24.8525 C   0  0  2  0  0  0  0  0  0  0  0  0
    7.9728  -14.7177   23.4690 N   0  0  0  0  0  0  0  0  0  0  0  0
    8.9666  -15.4175   25.5431 C   0  0  0  0  0  0  0  0  0  0  0  0
    9.1822  -16.5430   24.9249 O   0  0  0  0  0  0  0  0  0  0  0  0
   10.6412  -14.0259   30.1311 C   0  0  0  0  0  0  0  0  0  0  0  0
   11.1374  -14.6155   28.8381 C   0  0  0  0  0  0  0  0  0  0  0  0
   10.7879  -16.0785   28.7685 C   0  0  2  0  0  0  0  0  0  0  0  0
   11.9106  -16.9130   29.2926 C   0  0  0  0  0  0  0  0  0  0  0  0
   10.3939  -16.4506   27.3554 C   0  0  2  0  0  0  0  0  0  0  0  0
    9.4891  -15.4048   26.8593 N   0  0  0  0  0  0  0  0  0  0  0  0
    9.7930  -17.7900   27.2750 C   0  0  0  0  0  0  0  0  0  0  0  0
   10.5195  -18.8947   26.8525 O   0  0  0  0  0  0  0  0  0  0  0  0
    8.5936  -18.0127   27.5821 O   0  0  0  0  0  0  0  0  0  0  0  0
  2  1  1  6
  2  3  1  0
  4  5  1  0
  4  2  1  0
  5  6  1  1
  7  5  1  0
  7  8  2  0
 10  9  1  0
 11 10  1  0
 11 13  1  0
 11 12  1  1
 13 14  1  6
 14  7  1  0
 15 13  1  0
 16 15  2  0
 17 18  1  0
 18 19  1  0
 19 21  1  0
 19 20  1  6
 21 22  1  1
 21 23  1  0
 22 15  1  0
 23 24  1  0
 25 23  2  0
M  END
$$$$
