LII.pdb
     RDKit          3D

 25 24  0  0  1  0  0  0  0  0999 V2000
    4.9197  -20.0987   24.3880 C   0  0  0  0  0  0  0  0  0  0  0  0
    6.2311  -20.4556   23.7488 C   0  0  2  0  0  0  0  0  0  0  0  0
    6.7958  -21.7511   24.2694 C   0  0  0  0  0  0  0  0  0  0  0  0
    7.2444  -19.3149   23.8980 C   0  0  0  0  0  0  0  0  0  0  0  0
    6.5674  -18.0926   23.2994 C   0  0  2  0  0  0  0  0  0  0  0  0
    6.2638  -18.3965   21.9241 N   0  0  0  0  0  0  0  0  0  0  0  0
    7.4507  -16.8850   23.4350 C   0  0  0  0  0  0  0  0  0  0  0  0
    8.3684  -16.8047   22.6116 O   0  0  0  0  0  0  0  0  0  0  0  0
    4.8719  -12.8110   26.0449 C   0  0  0  0  0  0  0  0  0  0  0  0
    5.7844  -13.4682   25.0380 C   0  0  0  0  0  0  0  0  0  0  0  0
    7.0932  -13.8937   25.6863 C   0  0  2  0  0  0  0  0  0  0  0  0
    7.8680  -12.6115   26.0253 C   0  0  0  0  0  0  0  0  0  0  0  0
    7.8921  -14.7806   24.7713 C   0  0  2  0  0  0  0  0  0  0  0  0
    7.1556  -15.9990   24.4486 N   0  0  0  0  0  0  0  0  0  0  0  0
    9.2303  -15.0915   25.2555 C   0  0  0  0  0  0  0  0  0  0  0  0
   10.1495  -14.1697   25.2253 O   0  0  0  0  0  0  0  0  0  0  0  0
   10.7108  -13.1335   28.7181 C   0  0  0  0  0  0  0  0  0  0  0  0
   10.9420  -14.0482   27.5453 C   0  0  0  0  0  0  0  0  0  0  0  0
   10.4981  -15.4467   27.8842 C   0  0  2  0  0  0  0  0  0  0  0  0
   11.1000  -15.8908   29.1773 C   0  0  0  0  0  0  0  0  0  0  0  0
   10.8173  -16.3836   26.7392 C   0  0  2  0  0  0  0  0  0  0  0  0
    9.6987  -16.3169   25.7891 N   0  0  0  0  0  0  0  0  0  0  0  0
   11.0794  -17.7567   27.1945 C   0  0  0  0  0  0  0  0  0  0  0  0
   12.3620  -18.1992   27.4873 O   0  0  0  0  0  0  0  0  0  0  0  0
   10.1635  -18.6058   27.3445 O   0  0  0  0  0  0  0  0  0  0  0  0
  2  1  1  1
  2  3  1  0
  4  5  1  0
  4  2  1  0
  5  6  1  6
  7  5  1  0
  7  8  2  0
 10  9  1  0
 11 10  1  0
 11 13  1  0
 11 12  1  6
 13 14  1  1
 14  7  1  0
 15 13  1  0
 16 15  2  0
 17 18  1  0
 18 19  1  0
 19 21  1  0
 19 20  1  1
 21 22  1  6
 21 23  1  0
 22 15  1  0
 23 24  1  0
 25 23  2  0
M  END
$$$$
