LII.pdb
     RDKit          3D

 25 24  0  0  1  0  0  0  0  0999 V2000
   13.0470  -18.1329   18.7898 C   0  0  0  0  0  0  0  0  0  0  0  0
   14.1857  -17.4731   19.5134 C   0  0  2  0  0  0  0  0  0  0  0  0
   15.1930  -18.4641   20.0345 C   0  0  0  0  0  0  0  0  0  0  0  0
   13.6716  -16.5682   20.6392 C   0  0  0  0  0  0  0  0  0  0  0  0
   12.6757  -15.6286   19.9789 C   0  0  2  0  0  0  0  0  0  0  0  0
   13.4228  -14.7273   19.1391 N   0  0  0  0  0  0  0  0  0  0  0  0
   11.8704  -14.9032   21.0192 C   0  0  0  0  0  0  0  0  0  0  0  0
   12.4652  -13.9979   21.6136 O   0  0  0  0  0  0  0  0  0  0  0  0
    6.8206  -13.6811   19.8404 C   0  0  0  0  0  0  0  0  0  0  0  0
    8.1745  -13.6635   20.5076 C   0  0  0  0  0  0  0  0  0  0  0  0
    8.2426  -14.6912   21.6272 C   0  0  2  0  0  0  0  0  0  0  0  0
    7.2362  -14.2560   22.7028 C   0  0  0  0  0  0  0  0  0  0  0  0
    9.6318  -14.7872   22.1957 C   0  0  2  0  0  0  0  0  0  0  0  0
   10.5675  -15.3120   21.2057 N   0  0  0  0  0  0  0  0  0  0  0  0
    9.7185  -15.5331   23.4439 C   0  0  0  0  0  0  0  0  0  0  0  0
    9.7959  -16.8323   23.4063 O   0  0  0  0  0  0  0  0  0  0  0  0
   10.9191  -12.9189   28.0649 C   0  0  0  0  0  0  0  0  0  0  0  0
   10.9339  -13.8928   26.9175 C   0  0  0  0  0  0  0  0  0  0  0  0
    9.9366  -14.9945   27.1607 C   0  0  2  0  0  0  0  0  0  0  0  0
   10.2778  -15.7476   28.4049 C   0  0  0  0  0  0  0  0  0  0  0  0
    9.8451  -15.8890   25.9432 C   0  0  2  0  0  0  0  0  0  0  0  0
    9.7381  -15.0197   24.7637 N   0  0  0  0  0  0  0  0  0  0  0  0
    8.7321  -16.8453   26.0323 C   0  0  0  0  0  0  0  0  0  0  0  0
    8.9223  -18.1533   26.4561 O   0  0  0  0  0  0  0  0  0  0  0  0
    7.5500  -16.5372   25.7318 O   0  0  0  0  0  0  0  0  0  0  0  0
  2  1  1  1
  2  3  1  0
  4  5  1  0
  4  2  1  0
  5  6  1  1
  7  5  1  0
  7  8  2  0
 10  9  1  0
 11 10  1  0
 11 13  1  0
 11 12  1  1
 13 14  1  6
 14  7  1  0
 15 13  1  0
 16 15  2  0
 17 18  1  0
 18 19  1  0
 19 21  1  0
 19 20  1  1
 21 22  1  6
 21 23  1  0
 22 15  1  0
 23 24  1  0
 25 23  2  0
M  END
$$$$
