LII.pdb
     RDKit          3D

 25 24  0  0  1  0  0  0  0  0999 V2000
    5.5781  -16.9727   20.6452 C   0  0  0  0  0  0  0  0  0  0  0  0
    6.9038  -17.6668   20.5168 C   0  0  2  0  0  0  0  0  0  0  0  0
    6.7678  -19.1642   20.4299 C   0  0  0  0  0  0  0  0  0  0  0  0
    7.8475  -17.2657   21.6565 C   0  0  0  0  0  0  0  0  0  0  0  0
    7.8344  -15.7458   21.6756 C   0  0  2  0  0  0  0  0  0  0  0  0
    8.4067  -15.2927   20.4334 N   0  0  0  0  0  0  0  0  0  0  0  0
    8.5844  -15.2301   22.8707 C   0  0  0  0  0  0  0  0  0  0  0  0
    9.8088  -15.1419   22.7302 O   0  0  0  0  0  0  0  0  0  0  0  0
    5.6783  -11.8868   26.0751 C   0  0  0  0  0  0  0  0  0  0  0  0
    6.8596  -12.5033   25.3658 C   0  0  0  0  0  0  0  0  0  0  0  0
    7.3280  -13.7612   26.0818 C   0  0  2  0  0  0  0  0  0  0  0  0
    7.8820  -13.3253   27.4464 C   0  0  0  0  0  0  0  0  0  0  0  0
    8.3749  -14.4865   25.2815 C   0  0  2  0  0  0  0  0  0  0  0  0
    7.8451  -14.9109   23.9892 N   0  0  0  0  0  0  0  0  0  0  0  0
    8.9997  -15.6006   25.9817 C   0  0  0  0  0  0  0  0  0  0  0  0
    8.2730  -16.6240   26.3282 O   0  0  0  0  0  0  0  0  0  0  0  0
   13.5755  -17.4341   24.3864 C   0  0  0  0  0  0  0  0  0  0  0  0
   12.1919  -17.2555   24.9515 C   0  0  0  0  0  0  0  0  0  0  0  0
   12.2469  -17.2274   26.4561 C   0  0  2  0  0  0  0  0  0  0  0  0
   12.8387  -18.4931   26.9845 C   0  0  0  0  0  0  0  0  0  0  0  0
   10.8707  -16.9462   27.0198 C   0  0  2  0  0  0  0  0  0  0  0  0
   10.3588  -15.7406   26.3544 N   0  0  0  0  0  0  0  0  0  0  0  0
   10.8812  -16.8116   28.4838 C   0  0  0  0  0  0  0  0  0  0  0  0
   10.9118  -15.5708   29.1051 O   0  0  0  0  0  0  0  0  0  0  0  0
   10.8634  -17.8057   29.2545 O   0  0  0  0  0  0  0  0  0  0  0  0
  2  1  1  1
  2  3  1  0
  4  5  1  0
  4  2  1  0
  5  6  1  6
  7  5  1  0
  7  8  2  0
 10  9  1  0
 11 10  1  0
 11 13  1  0
 11 12  1  1
 13 14  1  6
 14  7  1  0
 15 13  1  0
 16 15  2  0
 17 18  1  0
 18 19  1  0
 19 21  1  0
 19 20  1  1
 21 22  1  6
 21 23  1  0
 22 15  1  0
 23 24  1  0
 25 23  2  0
M  END
$$$$
