LII.pdb
     RDKit          3D

 25 24  0  0  1  0  0  0  0  0999 V2000
    4.1179  -17.3348   21.6091 C   0  0  0  0  0  0  0  0  0  0  0  0
    5.3656  -18.1640   21.5036 C   0  0  2  0  0  0  0  0  0  0  0  0
    5.1038  -19.6332   21.7064 C   0  0  0  0  0  0  0  0  0  0  0  0
    6.4448  -17.6596   22.4687 C   0  0  0  0  0  0  0  0  0  0  0  0
    6.7142  -16.2213   22.0569 C   0  0  2  0  0  0  0  0  0  0  0  0
    6.9965  -16.2216   20.6441 N   0  0  0  0  0  0  0  0  0  0  0  0
    7.8441  -15.6479   22.8640 C   0  0  0  0  0  0  0  0  0  0  0  0
    8.9754  -15.8506   22.4105 O   0  0  0  0  0  0  0  0  0  0  0  0
    6.1370  -12.6558   27.4741 C   0  0  0  0  0  0  0  0  0  0  0  0
    6.5800  -13.7108   26.4895 C   0  0  0  0  0  0  0  0  0  0  0  0
    7.8306  -13.2687   25.7446 C   0  0  2  0  0  0  0  0  0  0  0  0
    7.4134  -12.1405   24.7895 C   0  0  0  0  0  0  0  0  0  0  0  0
    8.4491  -14.4132   24.9897 C   0  0  2  0  0  0  0  0  0  0  0  0
    7.5134  -14.9627   24.0133 N   0  0  0  0  0  0  0  0  0  0  0  0
    8.9974  -15.4636   25.8370 C   0  0  0  0  0  0  0  0  0  0  0  0
    8.1972  -16.3582   26.3419 O   0  0  0  0  0  0  0  0  0  0  0  0
   13.2540  -17.9156   24.3726 C   0  0  0  0  0  0  0  0  0  0  0  0
   11.9258  -17.5444   24.9754 C   0  0  0  0  0  0  0  0  0  0  0  0
   12.0733  -17.3249   26.4578 C   0  0  2  0  0  0  0  0  0  0  0  0
   12.5406  -18.5741   27.1306 C   0  0  0  0  0  0  0  0  0  0  0  0
   10.7766  -16.8003   27.0357 C   0  0  2  0  0  0  0  0  0  0  0  0
   10.3498  -15.6661   26.2051 N   0  0  0  0  0  0  0  0  0  0  0  0
   10.9021  -16.4348   28.4542 C   0  0  0  0  0  0  0  0  0  0  0  0
   10.7564  -17.3719   29.4678 O   0  0  0  0  0  0  0  0  0  0  0  0
   11.1470  -15.2597   28.8307 O   0  0  0  0  0  0  0  0  0  0  0  0
  2  1  1  1
  2  3  1  0
  4  5  1  0
  4  2  1  0
  5  6  1  6
  7  5  1  0
  7  8  2  0
 10  9  1  0
 11 10  1  0
 11 13  1  0
 11 12  1  6
 13 14  1  6
 14  7  1  0
 15 13  1  0
 16 15  2  0
 17 18  1  0
 18 19  1  0
 19 21  1  0
 19 20  1  1
 21 22  1  6
 21 23  1  0
 22 15  1  0
 23 24  1  0
 25 23  2  0
M  END
$$$$
