LII.pdb
     RDKit          3D

 25 24  0  0  1  0  0  0  0  0999 V2000
    4.6640  -16.2695   20.3404 C   0  0  0  0  0  0  0  0  0  0  0  0
    5.9365  -17.0279   20.0925 C   0  0  2  0  0  0  0  0  0  0  0  0
    5.7060  -18.5064   19.9219 C   0  0  0  0  0  0  0  0  0  0  0  0
    6.9635  -16.7555   21.1977 C   0  0  0  0  0  0  0  0  0  0  0  0
    7.0812  -15.2420   21.2754 C   0  0  2  0  0  0  0  0  0  0  0  0
    7.5888  -14.7820   20.0079 N   0  0  0  0  0  0  0  0  0  0  0  0
    7.9655  -14.8432   22.4225 C   0  0  0  0  0  0  0  0  0  0  0  0
    9.1691  -14.7545   22.1576 O   0  0  0  0  0  0  0  0  0  0  0  0
    5.7386  -11.6546   26.2947 C   0  0  0  0  0  0  0  0  0  0  0  0
    6.7571  -12.2999   25.3865 C   0  0  0  0  0  0  0  0  0  0  0  0
    7.1289  -13.6880   25.8859 C   0  0  2  0  0  0  0  0  0  0  0  0
    7.8168  -13.5098   27.2475 C   0  0  0  0  0  0  0  0  0  0  0  0
    8.0332  -14.3936   24.9129 C   0  0  2  0  0  0  0  0  0  0  0  0
    7.3574  -14.6189   23.6388 N   0  0  0  0  0  0  0  0  0  0  0  0
    8.6145  -15.6285   25.4219 C   0  0  0  0  0  0  0  0  0  0  0  0
    7.8292  -16.5665   25.8677 O   0  0  0  0  0  0  0  0  0  0  0  0
   12.7588  -17.7972   23.0189 C   0  0  0  0  0  0  0  0  0  0  0  0
   11.4786  -17.5208   23.7607 C   0  0  0  0  0  0  0  0  0  0  0  0
   11.7044  -17.6392   25.2449 C   0  0  2  0  0  0  0  0  0  0  0  0
   12.2175  -18.9984   25.5921 C   0  0  0  0  0  0  0  0  0  0  0  0
   10.4366  -17.2850   25.9918 C   0  0  2  0  0  0  0  0  0  0  0  0
    9.9851  -15.9764   25.4999 N   0  0  0  0  0  0  0  0  0  0  0  0
   10.6231  -17.2970   27.4501 C   0  0  0  0  0  0  0  0  0  0  0  0
   11.0040  -16.1600   28.1492 O   0  0  0  0  0  0  0  0  0  0  0  0
   10.4499  -18.3308   28.1456 O   0  0  0  0  0  0  0  0  0  0  0  0
  2  1  1  1
  2  3  1  0
  4  5  1  0
  4  2  1  0
  5  6  1  6
  7  5  1  0
  7  8  2  0
 10  9  1  0
 11 10  1  0
 11 13  1  0
 11 12  1  1
 13 14  1  6
 14  7  1  0
 15 13  1  0
 16 15  2  0
 17 18  1  0
 18 19  1  0
 19 21  1  0
 19 20  1  6
 21 22  1  6
 21 23  1  0
 22 15  1  0
 23 24  1  0
 25 23  2  0
M  END
$$$$
