LII.pdb
     RDKit          3D

 25 24  0  0  1  0  0  0  0  0999 V2000
    9.5458  -14.7090   18.6938 C   0  0  0  0  0  0  0  0  0  0  0  0
    8.1209  -14.3574   18.3746 C   0  0  2  0  0  0  0  0  0  0  0  0
    7.9563  -12.9157   17.9712 C   0  0  0  0  0  0  0  0  0  0  0  0
    7.1921  -14.7111   19.5419 C   0  0  0  0  0  0  0  0  0  0  0  0
    7.3688  -16.2051   19.7600 C   0  0  2  0  0  0  0  0  0  0  0  0
    6.7668  -16.8801   18.6385 N   0  0  0  0  0  0  0  0  0  0  0  0
    6.7593  -16.6194   21.0691 C   0  0  0  0  0  0  0  0  0  0  0  0
    5.5246  -16.6602   21.0893 O   0  0  0  0  0  0  0  0  0  0  0  0
    7.0328  -20.9144   23.5992 C   0  0  0  0  0  0  0  0  0  0  0  0
    6.7006  -19.5014   23.1848 C   0  0  0  0  0  0  0  0  0  0  0  0
    7.5403  -18.4960   23.9584 C   0  0  2  0  0  0  0  0  0  0  0  0
    7.2018  -18.6732   25.4461 C   0  0  0  0  0  0  0  0  0  0  0  0
    7.2610  -17.0891   23.5056 C   0  0  2  0  0  0  0  0  0  0  0  0
    7.6234  -16.9088   22.1030 N   0  0  0  0  0  0  0  0  0  0  0  0
    7.8676  -16.0596   24.3387 C   0  0  0  0  0  0  0  0  0  0  0  0
    9.1644  -16.0063   24.4435 O   0  0  0  0  0  0  0  0  0  0  0  0
    7.0187  -10.4714   26.7308 C   0  0  0  0  0  0  0  0  0  0  0  0
    7.8263  -11.7415   26.7317 C   0  0  0  0  0  0  0  0  0  0  0  0
    7.0866  -12.8259   25.9939 C   0  0  2  0  0  0  0  0  0  0  0  0
    5.7690  -13.0990   26.6427 C   0  0  0  0  0  0  0  0  0  0  0  0
    7.9521  -14.0628   25.8863 C   0  0  2  0  0  0  0  0  0  0  0  0
    7.2142  -15.0500   25.0866 N   0  0  0  0  0  0  0  0  0  0  0  0
    8.3410  -14.5914   27.2019 C   0  0  0  0  0  0  0  0  0  0  0  0
    7.6911  -15.6745   27.7774 O   0  0  0  0  0  0  0  0  0  0  0  0
    9.2786  -14.0969   27.8792 O   0  0  0  0  0  0  0  0  0  0  0  0
  2  1  1  1
  2  3  1  0
  4  5  1  0
  4  2  1  0
  5  6  1  6
  7  5  1  0
  7  8  2  0
 10  9  1  0
 11 10  1  0
 11 13  1  0
 11 12  1  1
 13 14  1  6
 14  7  1  0
 15 13  1  0
 16 15  2  0
 17 18  1  0
 18 19  1  0
 19 21  1  0
 19 20  1  1
 21 22  1  1
 21 23  1  0
 22 15  1  0
 23 24  1  0
 25 23  2  0
M  END
$$$$
