LII.pdb
     RDKit          3D

 25 24  0  0  1  0  0  0  0  0999 V2000
   12.9030  -20.8763   20.6882 C   0  0  0  0  0  0  0  0  0  0  0  0
   12.4694  -19.5796   20.0669 C   0  0  2  0  0  0  0  0  0  0  0  0
   13.3600  -19.1560   18.9286 C   0  0  0  0  0  0  0  0  0  0  0  0
   12.3620  -18.4726   21.1222 C   0  0  0  0  0  0  0  0  0  0  0  0
   11.6556  -17.3198   20.4275 C   0  0  2  0  0  0  0  0  0  0  0  0
   12.6080  -16.6994   19.5421 N   0  0  0  0  0  0  0  0  0  0  0  0
   11.1059  -16.3555   21.4398 C   0  0  0  0  0  0  0  0  0  0  0  0
   11.8851  -15.4686   21.8045 O   0  0  0  0  0  0  0  0  0  0  0  0
    7.7777  -13.6070   21.1231 C   0  0  0  0  0  0  0  0  0  0  0  0
    7.3676  -15.0598   21.1251 C   0  0  0  0  0  0  0  0  0  0  0  0
    7.6092  -15.6913   22.4879 C   0  0  2  0  0  0  0  0  0  0  0  0
    6.8357  -14.8545   23.5179 C   0  0  0  0  0  0  0  0  0  0  0  0
    9.0760  -15.7316   22.8181 C   0  0  2  0  0  0  0  0  0  0  0  0
    9.8068  -16.5513   21.8562 N   0  0  0  0  0  0  0  0  0  0  0  0
    9.3720  -16.1402   24.1846 C   0  0  0  0  0  0  0  0  0  0  0  0
    9.4469  -17.4087   24.4687 O   0  0  0  0  0  0  0  0  0  0  0  0
   10.0225  -12.3158   28.0299 C   0  0  0  0  0  0  0  0  0  0  0  0
   10.2835  -13.4516   27.0774 C   0  0  0  0  0  0  0  0  0  0  0  0
    9.7340  -14.7357   27.6401 C   0  0  2  0  0  0  0  0  0  0  0  0
   10.3597  -15.0411   28.9617 C   0  0  0  0  0  0  0  0  0  0  0  0
    9.9081  -15.8569   26.6384 C   0  0  2  0  0  0  0  0  0  0  0  0
    9.6089  -15.3108   25.3078 N   0  0  0  0  0  0  0  0  0  0  0  0
    9.0792  -17.0283   26.9582 C   0  0  0  0  0  0  0  0  0  0  0  0
    9.6101  -18.1573   27.5667 O   0  0  0  0  0  0  0  0  0  0  0  0
    7.8487  -17.0766   26.7011 O   0  0  0  0  0  0  0  0  0  0  0  0
  2  1  1  1
  2  3  1  0
  4  5  1  0
  4  2  1  0
  5  6  1  6
  7  5  1  0
  7  8  2  0
 10  9  1  0
 11 10  1  0
 11 13  1  0
 11 12  1  1
 13 14  1  6
 14  7  1  0
 15 13  1  0
 16 15  2  0
 17 18  1  0
 18 19  1  0
 19 21  1  0
 19 20  1  1
 21 22  1  6
 21 23  1  0
 22 15  1  0
 23 24  1  0
 25 23  2  0
M  END
$$$$
