LII.pdb
     RDKit          3D

 25 24  0  0  1  0  0  0  0  0999 V2000
    9.3225  -14.0803   19.3395 C   0  0  0  0  0  0  0  0  0  0  0  0
    7.9085  -13.8089   18.9122 C   0  0  2  0  0  0  0  0  0  0  0  0
    7.6513  -12.3474   18.6549 C   0  0  0  0  0  0  0  0  0  0  0  0
    6.9087  -14.3724   19.9288 C   0  0  0  0  0  0  0  0  0  0  0  0
    7.6212  -15.5406   20.5908 C   0  0  2  0  0  0  0  0  0  0  0  0
    7.3742  -16.7100   19.7863 N   0  0  0  0  0  0  0  0  0  0  0  0
    7.1457  -15.7108   22.0056 C   0  0  0  0  0  0  0  0  0  0  0  0
    6.4107  -14.8125   22.4293 O   0  0  0  0  0  0  0  0  0  0  0  0
    6.3346  -20.8591   23.6612 C   0  0  0  0  0  0  0  0  0  0  0  0
    6.2316  -19.3616   23.5008 C   0  0  0  0  0  0  0  0  0  0  0  0
    7.3199  -18.6536   24.2936 C   0  0  2  0  0  0  0  0  0  0  0  0
    7.0977  -18.9974   25.7740 C   0  0  0  0  0  0  0  0  0  0  0  0
    7.2756  -17.1664   24.0729 C   0  0  2  0  0  0  0  0  0  0  0  0
    7.5690  -16.8347   22.6819 N   0  0  0  0  0  0  0  0  0  0  0  0
    8.1172  -16.4000   24.9818 C   0  0  0  0  0  0  0  0  0  0  0  0
    9.4118  -16.5142   24.9012 O   0  0  0  0  0  0  0  0  0  0  0  0
    6.6389  -11.5646   26.4859 C   0  0  0  0  0  0  0  0  0  0  0  0
    7.4559  -12.7512   26.0503 C   0  0  0  0  0  0  0  0  0  0  0  0
    8.0077  -13.4695   27.2533 C   0  0  2  0  0  0  0  0  0  0  0  0
    8.9277  -12.5782   28.0218 C   0  0  0  0  0  0  0  0  0  0  0  0
    8.6685  -14.7626   26.8269 C   0  0  2  0  0  0  0  0  0  0  0  0
    7.7074  -15.4949   25.9910 N   0  0  0  0  0  0  0  0  0  0  0  0
    9.1307  -15.5604   27.9720 C   0  0  0  0  0  0  0  0  0  0  0  0
   10.4255  -15.4573   28.4616 O   0  0  0  0  0  0  0  0  0  0  0  0
    8.3858  -16.3778   28.5716 O   0  0  0  0  0  0  0  0  0  0  0  0
  2  1  1  1
  2  3  1  0
  4  5  1  0
  4  2  1  0
  5  6  1  6
  7  5  1  0
  7  8  2  0
 10  9  1  0
 11 10  1  0
 11 13  1  0
 11 12  1  1
 13 14  1  6
 14  7  1  0
 15 13  1  0
 16 15  2  0
 17 18  1  0
 18 19  1  0
 19 21  1  0
 19 20  1  6
 21 22  1  1
 21 23  1  0
 22 15  1  0
 23 24  1  0
 25 23  2  0
M  END
$$$$
