LII.pdb
     RDKit          3D

 25 24  0  0  1  0  0  0  0  0999 V2000
    6.1173  -17.9656   20.8141 C   0  0  0  0  0  0  0  0  0  0  0  0
    7.5714  -18.3018   20.6461 C   0  0  2  0  0  0  0  0  0  0  0  0
    7.8210  -19.7864   20.5987 C   0  0  0  0  0  0  0  0  0  0  0  0
    8.4195  -17.6363   21.7361 C   0  0  0  0  0  0  0  0  0  0  0  0
    8.0563  -16.1611   21.6858 C   0  0  2  0  0  0  0  0  0  0  0  0
    8.4258  -15.6689   20.3831 N   0  0  0  0  0  0  0  0  0  0  0  0
    8.7431  -15.4142   22.7936 C   0  0  0  0  0  0  0  0  0  0  0  0
    9.8892  -15.0277   22.5410 O   0  0  0  0  0  0  0  0  0  0  0  0
    5.6172  -12.1942   25.7314 C   0  0  0  0  0  0  0  0  0  0  0  0
    6.8225  -12.8013   25.0553 C   0  0  0  0  0  0  0  0  0  0  0  0
    7.4353  -13.8958   25.9162 C   0  0  2  0  0  0  0  0  0  0  0  0
    7.9646  -13.2246   27.1924 C   0  0  0  0  0  0  0  0  0  0  0  0
    8.5386  -14.6108   25.1856 C   0  0  2  0  0  0  0  0  0  0  0  0
    8.0388  -15.2359   23.9648 N   0  0  0  0  0  0  0  0  0  0  0  0
    9.2743  -15.5687   25.9999 C   0  0  0  0  0  0  0  0  0  0  0  0
    8.6346  -16.5576   26.5552 O   0  0  0  0  0  0  0  0  0  0  0  0
   14.4311  -16.2390   24.8710 C   0  0  0  0  0  0  0  0  0  0  0  0
   12.9706  -16.4260   25.1834 C   0  0  0  0  0  0  0  0  0  0  0  0
   12.7822  -16.6545   26.6598 C   0  0  2  0  0  0  0  0  0  0  0  0
   13.5076  -17.8845   27.0985 C   0  0  0  0  0  0  0  0  0  0  0  0
   11.3065  -16.6965   26.9936 C   0  0  2  0  0  0  0  0  0  0  0  0
   10.6616  -15.5831   26.2846 N   0  0  0  0  0  0  0  0  0  0  0  0
   11.0577  -16.6523   28.4419 C   0  0  0  0  0  0  0  0  0  0  0  0
   10.7843  -15.4624   29.1022 O   0  0  0  0  0  0  0  0  0  0  0  0
   11.0779  -17.6827   29.1633 O   0  0  0  0  0  0  0  0  0  0  0  0
  2  1  1  1
  2  3  1  0
  4  5  1  0
  4  2  1  0
  5  6  1  6
  7  5  1  0
  7  8  2  0
 10  9  1  0
 11 10  1  0
 11 13  1  0
 11 12  1  1
 13 14  1  6
 14  7  1  0
 15 13  1  0
 16 15  2  0
 17 18  1  0
 18 19  1  0
 19 21  1  0
 19 20  1  6
 21 22  1  6
 21 23  1  0
 22 15  1  0
 23 24  1  0
 25 23  2  0
M  END
$$$$
