NLH.pdb
     RDKit          3D

 27 27  0  0  1  0  0  0  0  0999 V2000
    8.9926  -16.5259   13.7925 N   0  0  0  0  0  0  0  0  0  0  0  0
    9.5717  -17.4397   14.7049 C   0  0  0  0  0  0  0  0  0  0  0  0
    9.6341  -18.6347   14.3652 O   0  0  0  0  0  0  0  0  0  0  0  0
   10.0623  -16.9384   15.9877 C   0  0  0  0  0  0  0  0  0  0  0  0
    9.6590  -17.7144   17.2067 C   0  0  2  0  0  0  0  0  0  0  0  0
    8.1893  -17.8471   17.1062 N   0  0  0  0  0  0  0  0  0  0  0  0
   10.0187  -16.9560   18.4238 C   0  0  0  0  0  0  0  0  0  0  0  0
   11.1868  -16.7579   18.7738 O   0  0  0  0  0  0  0  0  0  0  0  0
    8.7022  -12.7889   19.3676 C   0  0  0  0  0  0  0  0  0  0  0  0
    7.6543  -13.7148   19.9257 C   0  0  2  0  0  0  0  0  0  0  0  0
    6.4348  -12.9680   20.4114 C   0  0  0  0  0  0  0  0  0  0  0  0
    8.1584  -14.7319   20.8764 C   0  0  0  0  0  0  0  0  0  0  0  0
    9.2683  -15.6096   20.4419 C   0  0  2  0  0  0  0  0  0  0  0  0
    8.9805  -16.4007   19.2756 N   0  0  0  0  0  0  0  0  0  0  0  0
    9.9028  -16.3961   21.5258 C   0  0  0  0  0  0  0  0  0  0  0  0
    9.3734  -17.4762   21.8648 O   0  0  0  0  0  0  0  0  0  0  0  0
   11.0662  -15.9517   22.1632 N   0  0  0  0  0  0  0  0  0  0  0  0
   11.5795  -16.7193   23.2969 C   0  0  1  0  0  0  0  0  0  0  0  0
   13.0884  -16.5403   23.3505 C   0  0  0  0  0  0  0  0  0  0  0  0
   13.7345  -17.2382   22.2325 C   0  0  0  0  0  0  0  0  0  0  0  0
   13.4358  -18.5153   21.8166 C   0  0  0  0  0  0  0  0  0  0  0  0
   14.2217  -18.8104   20.7803 N   0  0  0  0  0  0  0  0  0  0  0  0
   15.0069  -17.7354   20.5433 C   0  0  0  0  0  0  0  0  0  0  0  0
   14.6939  -16.7878   21.4399 N   0  0  0  0  0  0  0  0  0  0  0  0
   10.9312  -16.1971   24.5178 C   0  0  0  0  0  0  0  0  0  0  0  0
   11.2494  -16.6474   25.6357 O   0  0  0  0  0  0  0  0  0  0  0  0
    9.9733  -15.2104   24.4249 O   0  0  0  0  0  0  0  0  0  0  0  0
  1  2  1  0
  2  3  2  0
  4  2  1  0
  5  7  1  0
  5  4  1  0
  5  6  1  6
  7  8  2  0
 10  9  1  1
 10 11  1  0
 13 12  1  1
 12 10  1  0
 14 13  1  0
 14  7  1  0
 15 16  2  0
 15 13  1  0
 17 15  1  0
 18 25  1  0
 18 17  1  0
 18 19  1  1
 20 19  1  0
 21 20  2  0
 22 23  1  0
 22 21  1  0
 23 24  2  0
 24 20  1  0
 25 27  1  0
 26 25  2  0
M  END
$$$$
