NLH.pdb
     RDKit          3D

 27 27  0  0  1  0  0  0  0  0999 V2000
    7.6692  -16.1259   17.8103 N   0  0  0  0  0  0  0  0  0  0  0  0
    8.3999  -14.9490   18.0998 C   0  0  0  0  0  0  0  0  0  0  0  0
    8.6869  -14.1984   17.1504 O   0  0  0  0  0  0  0  0  0  0  0  0
    8.7768  -14.6775   19.4861 C   0  0  0  0  0  0  0  0  0  0  0  0
    8.3558  -15.6954   20.5046 C   0  0  2  0  0  0  0  0  0  0  0  0
    6.8865  -15.7913   20.3642 N   0  0  0  0  0  0  0  0  0  0  0  0
    8.7068  -15.2210   21.8602 C   0  0  0  0  0  0  0  0  0  0  0  0
    9.8665  -15.1922   22.2848 O   0  0  0  0  0  0  0  0  0  0  0  0
    5.9663  -12.3162   26.7107 C   0  0  0  0  0  0  0  0  0  0  0  0
    7.1866  -12.9325   26.0796 C   0  0  2  0  0  0  0  0  0  0  0  0
    8.4333  -12.1208   26.3390 C   0  0  0  0  0  0  0  0  0  0  0  0
    7.0198  -13.3499   24.6688 C   0  0  0  0  0  0  0  0  0  0  0  0
    7.9356  -14.3798   24.1288 C   0  0  2  0  0  0  0  0  0  0  0  0
    7.6696  -14.7584   22.7668 N   0  0  0  0  0  0  0  0  0  0  0  0
    8.1548  -15.5466   25.0157 C   0  0  0  0  0  0  0  0  0  0  0  0
    7.1833  -16.2900   25.2713 O   0  0  0  0  0  0  0  0  0  0  0  0
    9.4137  -15.8208   25.5611 N   0  0  0  0  0  0  0  0  0  0  0  0
    9.7037  -17.1849   26.0003 C   0  0  1  0  0  0  0  0  0  0  0  0
   10.5573  -17.8574   24.9368 C   0  0  0  0  0  0  0  0  0  0  0  0
   10.9182  -19.2201   25.3454 C   0  0  0  0  0  0  0  0  0  0  0  0
   10.5625  -19.8110   26.5360 C   0  0  0  0  0  0  0  0  0  0  0  0
   11.0672  -21.0453   26.5555 N   0  0  0  0  0  0  0  0  0  0  0  0
   11.7330  -21.2335   25.3937 C   0  0  0  0  0  0  0  0  0  0  0  0
   11.6299  -20.1085   24.6702 N   0  0  0  0  0  0  0  0  0  0  0  0
   10.4208  -17.0944   27.2891 C   0  0  0  0  0  0  0  0  0  0  0  0
   10.8685  -15.9985   27.6795 O   0  0  0  0  0  0  0  0  0  0  0  0
   10.5965  -18.2206   28.0641 O   0  0  0  0  0  0  0  0  0  0  0  0
  1  2  1  0
  2  3  2  0
  4  2  1  0
  5  7  1  0
  5  4  1  0
  5  6  1  1
  7  8  2  0
 10  9  1  6
 10 11  1  0
 13 12  1  1
 12 10  1  0
 14 13  1  0
 14  7  1  0
 15 16  2  0
 15 13  1  0
 17 15  1  0
 18 25  1  0
 18 17  1  0
 18 19  1  6
 20 19  1  0
 21 20  2  0
 22 23  1  0
 22 21  1  0
 23 24  2  0
 24 20  1  0
 25 27  1  0
 26 25  2  0
M  END
$$$$
