NLH.pdb
     RDKit          3D

 27 27  0  0  1  0  0  0  0  0999 V2000
    7.8949  -17.1986   18.2853 N   0  0  0  0  0  0  0  0  0  0  0  0
    8.9691  -17.5942   19.1175 C   0  0  0  0  0  0  0  0  0  0  0  0
    9.8425  -18.3295   18.6237 O   0  0  0  0  0  0  0  0  0  0  0  0
    8.9979  -17.1235   20.5014 C   0  0  0  0  0  0  0  0  0  0  0  0
    8.5796  -15.7014   20.7323 C   0  0  2  0  0  0  0  0  0  0  0  0
    9.3815  -14.9073   19.7761 N   0  0  0  0  0  0  0  0  0  0  0  0
    8.9027  -15.3042   22.1193 C   0  0  0  0  0  0  0  0  0  0  0  0
   10.0323  -15.4161   22.6065 O   0  0  0  0  0  0  0  0  0  0  0  0
    5.9476  -12.6596   27.0298 C   0  0  0  0  0  0  0  0  0  0  0  0
    7.2214  -13.0950   26.3551 C   0  0  2  0  0  0  0  0  0  0  0  0
    8.3547  -12.1272   26.5994 C   0  0  0  0  0  0  0  0  0  0  0  0
    7.0726  -13.5068   24.9406 C   0  0  0  0  0  0  0  0  0  0  0  0
    8.1218  -14.3647   24.3455 C   0  0  2  0  0  0  0  0  0  0  0  0
    7.8726  -14.7519   22.9828 N   0  0  0  0  0  0  0  0  0  0  0  0
    8.5550  -15.4999   25.1940 C   0  0  0  0  0  0  0  0  0  0  0  0
    7.7553  -16.4420   25.3802 O   0  0  0  0  0  0  0  0  0  0  0  0
    9.8255  -15.5288   25.7790 N   0  0  0  0  0  0  0  0  0  0  0  0
   10.2399  -16.7360   26.4922 C   0  0  1  0  0  0  0  0  0  0  0  0
   11.6927  -17.0202   26.1456 C   0  0  0  0  0  0  0  0  0  0  0  0
   11.7851  -17.8883   24.9656 C   0  0  0  0  0  0  0  0  0  0  0  0
   10.7126  -18.4071   24.2774 C   0  0  0  0  0  0  0  0  0  0  0  0
   11.1815  -19.1445   23.2700 N   0  0  0  0  0  0  0  0  0  0  0  0
   12.5318  -19.0933   23.3194 C   0  0  0  0  0  0  0  0  0  0  0  0
   12.8794  -18.3222   24.3607 N   0  0  0  0  0  0  0  0  0  0  0  0
   10.0711  -16.4789   27.9376 C   0  0  0  0  0  0  0  0  0  0  0  0
    9.8926  -15.3157   28.3487 O   0  0  0  0  0  0  0  0  0  0  0  0
   10.1097  -17.5237   28.8357 O   0  0  0  0  0  0  0  0  0  0  0  0
  1  2  1  0
  2  3  2  0
  4  2  1  0
  5  7  1  0
  5  4  1  0
  5  6  1  6
  7  8  2  0
 10  9  1  6
 10 11  1  0
 13 12  1  1
 12 10  1  0
 14 13  1  0
 14  7  1  0
 15 16  2  0
 15 13  1  0
 17 15  1  0
 18 25  1  0
 18 17  1  0
 18 19  1  1
 20 19  1  0
 21 20  2  0
 22 23  1  0
 22 21  1  0
 23 24  2  0
 24 20  1  0
 25 27  1  0
 26 25  2  0
M  END
$$$$
