NLH.pdb
     RDKit          3D

 27 27  0  0  1  0  0  0  0  0999 V2000
    9.6048  -19.8009   14.6589 N   0  0  0  0  0  0  0  0  0  0  0  0
   10.7588  -18.9816   14.6612 C   0  0  0  0  0  0  0  0  0  0  0  0
   11.5127  -19.0422   13.6737 O   0  0  0  0  0  0  0  0  0  0  0  0
   11.0041  -18.1142   15.8122 C   0  0  0  0  0  0  0  0  0  0  0  0
   10.1458  -18.3482   17.0202 C   0  0  2  0  0  0  0  0  0  0  0  0
    8.7636  -18.4205   16.4985 N   0  0  0  0  0  0  0  0  0  0  0  0
   10.2773  -17.2103   17.9550 C   0  0  0  0  0  0  0  0  0  0  0  0
   11.3624  -16.8337   18.4097 O   0  0  0  0  0  0  0  0  0  0  0  0
    6.6240  -12.8811   20.6507 C   0  0  0  0  0  0  0  0  0  0  0  0
    8.0073  -13.3825   20.3312 C   0  0  2  0  0  0  0  0  0  0  0  0
    8.9846  -12.2532   20.1070 C   0  0  0  0  0  0  0  0  0  0  0  0
    8.0668  -14.4463   19.3030 C   0  0  0  0  0  0  0  0  0  0  0  0
    9.1436  -15.4572   19.4006 C   0  0  2  0  0  0  0  0  0  0  0  0
    9.1004  -16.4737   18.3838 N   0  0  0  0  0  0  0  0  0  0  0  0
    9.3567  -16.0126   20.7578 C   0  0  0  0  0  0  0  0  0  0  0  0
    8.4688  -16.7431   21.2475 O   0  0  0  0  0  0  0  0  0  0  0  0
   10.5190  -15.7337   21.4849 N   0  0  0  0  0  0  0  0  0  0  0  0
   10.9700  -16.7034   22.4820 C   0  0  1  0  0  0  0  0  0  0  0  0
   11.2129  -18.0306   21.7811 C   0  0  0  0  0  0  0  0  0  0  0  0
   11.6408  -19.0547   22.7416 C   0  0  0  0  0  0  0  0  0  0  0  0
   11.7841  -18.8603   24.0962 C   0  0  0  0  0  0  0  0  0  0  0  0
   12.1868  -20.0088   24.6414 N   0  0  0  0  0  0  0  0  0  0  0  0
   12.2970  -20.9177   23.6463 C   0  0  0  0  0  0  0  0  0  0  0  0
   11.9595  -20.3155   22.4959 N   0  0  0  0  0  0  0  0  0  0  0  0
   12.2123  -16.1769   23.0845 C   0  0  0  0  0  0  0  0  0  0  0  0
   12.8109  -15.2232   22.5496 O   0  0  0  0  0  0  0  0  0  0  0  0
   12.7131  -16.7377   24.2397 O   0  0  0  0  0  0  0  0  0  0  0  0
  1  2  1  0
  2  3  2  0
  4  2  1  0
  5  7  1  0
  5  4  1  0
  5  6  1  6
  7  8  2  0
 10  9  1  6
 10 11  1  0
 13 12  1  1
 12 10  1  0
 14 13  1  0
 14  7  1  0
 15 16  2  0
 15 13  1  0
 17 15  1  0
 18 25  1  0
 18 17  1  0
 18 19  1  6
 20 19  1  0
 21 20  2  0
 22 23  1  0
 22 21  1  0
 23 24  2  0
 24 20  1  0
 25 27  1  0
 26 25  2  0
M  END
$$$$
