NLH.pdb
     RDKit          3D

 27 27  0  0  1  0  0  0  0  0999 V2000
   12.0084  -19.9512   15.1722 N   0  0  0  0  0  0  0  0  0  0  0  0
   10.8782  -19.2054   15.5835 C   0  0  0  0  0  0  0  0  0  0  0  0
    9.8478  -19.2883   14.8916 O   0  0  0  0  0  0  0  0  0  0  0  0
   10.9774  -18.3835   16.7886 C   0  0  0  0  0  0  0  0  0  0  0  0
   10.7183  -16.9156   16.6194 C   0  0  2  0  0  0  0  0  0  0  0  0
   11.7681  -16.4471   15.6886 N   0  0  0  0  0  0  0  0  0  0  0  0
   10.8523  -16.2307   17.9228 C   0  0  0  0  0  0  0  0  0  0  0  0
   11.9441  -15.9377   18.4210 O   0  0  0  0  0  0  0  0  0  0  0  0
    8.7668  -12.3571   19.0877 C   0  0  0  0  0  0  0  0  0  0  0  0
    7.8722  -13.5171   19.4357 C   0  0  2  0  0  0  0  0  0  0  0  0
    6.4871  -13.0679   19.8362 C   0  0  0  0  0  0  0  0  0  0  0  0
    8.4701  -14.5185   20.3480 C   0  0  0  0  0  0  0  0  0  0  0  0
    9.7354  -15.1705   19.9420 C   0  0  2  0  0  0  0  0  0  0  0  0
    9.6699  -15.8675   18.6855 N   0  0  0  0  0  0  0  0  0  0  0  0
   10.3971  -15.9642   21.0041 C   0  0  0  0  0  0  0  0  0  0  0  0
   10.1156  -17.1779   21.1020 O   0  0  0  0  0  0  0  0  0  0  0  0
   11.3163  -15.3816   21.8833 N   0  0  0  0  0  0  0  0  0  0  0  0
   11.9574  -16.2290   22.8877 C   0  0  1  0  0  0  0  0  0  0  0  0
   13.2224  -15.5322   23.3629 C   0  0  0  0  0  0  0  0  0  0  0  0
   14.2307  -15.5018   22.2967 C   0  0  0  0  0  0  0  0  0  0  0  0
   14.2227  -16.2991   21.1753 C   0  0  0  0  0  0  0  0  0  0  0  0
   15.2904  -15.9912   20.4378 N   0  0  0  0  0  0  0  0  0  0  0  0
   15.9649  -15.0128   21.0829 C   0  0  0  0  0  0  0  0  0  0  0  0
   15.3020  -14.7290   22.2142 N   0  0  0  0  0  0  0  0  0  0  0  0
   10.9954  -16.4130   23.9942 C   0  0  0  0  0  0  0  0  0  0  0  0
    9.8787  -15.8609   23.9497 O   0  0  0  0  0  0  0  0  0  0  0  0
   11.3290  -17.1959   25.0785 O   0  0  0  0  0  0  0  0  0  0  0  0
  1  2  1  0
  2  3  2  0
  4  2  1  0
  5  7  1  0
  5  4  1  0
  5  6  1  6
  7  8  2  0
 10  9  1  1
 10 11  1  0
 13 12  1  1
 12 10  1  0
 14 13  1  0
 14  7  1  0
 15 16  2  0
 15 13  1  0
 17 15  1  0
 18 25  1  0
 18 17  1  0
 18 19  1  1
 20 19  1  0
 21 20  2  0
 22 23  1  0
 22 21  1  0
 23 24  2  0
 24 20  1  0
 25 27  1  0
 26 25  2  0
M  END
$$$$
