NLH.pdb
     RDKit          3D

 27 27  0  0  1  0  0  0  0  0999 V2000
   10.7907  -17.7660   14.1679 N   0  0  0  0  0  0  0  0  0  0  0  0
   10.6559  -16.3573   14.1545 C   0  0  0  0  0  0  0  0  0  0  0  0
   10.6822  -15.7844   13.0507 O   0  0  0  0  0  0  0  0  0  0  0  0
   10.4942  -15.6534   15.4258 C   0  0  0  0  0  0  0  0  0  0  0  0
   10.6766  -16.4712   16.6702 C   0  0  2  0  0  0  0  0  0  0  0  0
    9.4478  -17.2880   16.7742 N   0  0  0  0  0  0  0  0  0  0  0  0
   10.7939  -15.5782   17.8426 C   0  0  0  0  0  0  0  0  0  0  0  0
   11.7372  -14.7968   18.0028 O   0  0  0  0  0  0  0  0  0  0  0  0
    8.2816  -12.1964   19.0944 C   0  0  0  0  0  0  0  0  0  0  0  0
    7.6533  -13.4725   19.5883 C   0  0  2  0  0  0  0  0  0  0  0  0
    6.2400  -13.2598   20.0759 C   0  0  0  0  0  0  0  0  0  0  0  0
    8.4959  -14.2715   20.5071 C   0  0  0  0  0  0  0  0  0  0  0  0
    9.8204  -14.7264   20.0279 C   0  0  2  0  0  0  0  0  0  0  0  0
    9.7738  -15.5886   18.8775 N   0  0  0  0  0  0  0  0  0  0  0  0
   10.7271  -15.2308   21.0859 C   0  0  0  0  0  0  0  0  0  0  0  0
   10.9075  -14.5243   22.1009 O   0  0  0  0  0  0  0  0  0  0  0  0
   11.3727  -16.4660   20.9642 N   0  0  0  0  0  0  0  0  0  0  0  0
   12.3889  -16.8246   21.9525 C   0  0  1  0  0  0  0  0  0  0  0  0
   13.3943  -15.6871   22.0374 C   0  0  0  0  0  0  0  0  0  0  0  0
   14.0503  -15.4756   20.7416 C   0  0  0  0  0  0  0  0  0  0  0  0
   14.6624  -16.4552   19.9939 C   0  0  0  0  0  0  0  0  0  0  0  0
   15.1437  -15.8926   18.8846 N   0  0  0  0  0  0  0  0  0  0  0  0
   14.8407  -14.5756   18.9291 C   0  0  0  0  0  0  0  0  0  0  0  0
   14.1740  -14.3421   20.0696 N   0  0  0  0  0  0  0  0  0  0  0  0
   11.7004  -17.0328   23.2432 C   0  0  0  0  0  0  0  0  0  0  0  0
   10.4632  -16.9006   23.3201 O   0  0  0  0  0  0  0  0  0  0  0  0
   12.4231  -17.3743   24.3661 O   0  0  0  0  0  0  0  0  0  0  0  0
  1  2  1  0
  2  3  2  0
  4  2  1  0
  5  7  1  0
  5  4  1  0
  5  6  1  1
  7  8  2  0
 10  9  1  1
 10 11  1  0
 13 12  1  1
 12 10  1  0
 14 13  1  0
 14  7  1  0
 15 16  2  0
 15 13  1  0
 17 15  1  0
 18 25  1  0
 18 17  1  0
 18 19  1  1
 20 19  1  0
 21 20  2  0
 22 23  1  0
 22 21  1  0
 23 24  2  0
 24 20  1  0
 25 27  1  0
 26 25  2  0
M  END
$$$$
