NLH.pdb
     RDKit          3D

 27 27  0  0  1  0  0  0  0  0999 V2000
    7.9682  -15.7889   18.5030 N   0  0  0  0  0  0  0  0  0  0  0  0
    8.1763  -14.4907   19.0265 C   0  0  0  0  0  0  0  0  0  0  0  0
    8.1761  -13.5379   18.2267 O   0  0  0  0  0  0  0  0  0  0  0  0
    8.3790  -14.3362   20.4662 C   0  0  0  0  0  0  0  0  0  0  0  0
    8.3338  -15.5919   21.2858 C   0  0  2  0  0  0  0  0  0  0  0  0
    6.9023  -15.9600   21.3423 N   0  0  0  0  0  0  0  0  0  0  0  0
    8.8424  -15.3190   22.6470 C   0  0  0  0  0  0  0  0  0  0  0  0
   10.0329  -15.0948   22.8892 O   0  0  0  0  0  0  0  0  0  0  0  0
    8.4401  -12.1091   25.7297 C   0  0  0  0  0  0  0  0  0  0  0  0
    7.2052  -12.9705   25.7304 C   0  0  2  0  0  0  0  0  0  0  0  0
    6.0860  -12.3606   26.5403 C   0  0  0  0  0  0  0  0  0  0  0  0
    7.4416  -14.4051   26.0105 C   0  0  0  0  0  0  0  0  0  0  0  0
    8.3810  -15.1449   25.1381 C   0  0  2  0  0  0  0  0  0  0  0  0
    7.9332  -15.3044   23.7805 N   0  0  0  0  0  0  0  0  0  0  0  0
    8.9131  -16.4008   25.7175 C   0  0  0  0  0  0  0  0  0  0  0  0
    8.1182  -17.3416   25.9291 O   0  0  0  0  0  0  0  0  0  0  0  0
   10.2704  -16.5432   26.0255 N   0  0  0  0  0  0  0  0  0  0  0  0
   10.7450  -17.8373   26.5134 C   0  0  1  0  0  0  0  0  0  0  0  0
   12.2113  -17.9804   26.1377 C   0  0  0  0  0  0  0  0  0  0  0  0
   12.3848  -17.9030   24.6823 C   0  0  0  0  0  0  0  0  0  0  0  0
   11.4771  -18.3522   23.7509 C   0  0  0  0  0  0  0  0  0  0  0  0
   11.9747  -18.1153   22.5365 N   0  0  0  0  0  0  0  0  0  0  0  0
   13.1804  -17.5245   22.6965 C   0  0  0  0  0  0  0  0  0  0  0  0
   13.4115  -17.4042   24.0125 N   0  0  0  0  0  0  0  0  0  0  0  0
   10.5600  -17.8551   27.9793 C   0  0  0  0  0  0  0  0  0  0  0  0
   10.9125  -18.8505   28.6416 O   0  0  0  0  0  0  0  0  0  0  0  0
    9.9979  -16.7714   28.6193 O   0  0  0  0  0  0  0  0  0  0  0  0
  1  2  1  0
  2  3  2  0
  4  2  1  0
  5  7  1  0
  5  4  1  0
  5  6  1  1
  7  8  2  0
 10  9  1  1
 10 11  1  0
 13 12  1  1
 12 10  1  0
 14 13  1  0
 14  7  1  0
 15 16  2  0
 15 13  1  0
 17 15  1  0
 18 25  1  0
 18 17  1  0
 18 19  1  1
 20 19  1  0
 21 20  2  0
 22 23  1  0
 22 21  1  0
 23 24  2  0
 24 20  1  0
 25 27  1  0
 26 25  2  0
M  END
$$$$
