NLH.pdb
     RDKit          3D

 27 27  0  0  1  0  0  0  0  0999 V2000
    6.4743  -20.5507   18.0392 N   0  0  0  0  0  0  0  0  0  0  0  0
    6.1440  -20.4041   19.4075 C   0  0  0  0  0  0  0  0  0  0  0  0
    5.2918  -21.1759   19.8824 O   0  0  0  0  0  0  0  0  0  0  0  0
    6.8140  -19.3636   20.1860 C   0  0  0  0  0  0  0  0  0  0  0  0
    7.5859  -18.3394   19.4076 C   0  0  2  0  0  0  0  0  0  0  0  0
    8.6373  -19.1065   18.7047 N   0  0  0  0  0  0  0  0  0  0  0  0
    8.2011  -17.3660   20.3349 C   0  0  0  0  0  0  0  0  0  0  0  0
    9.2162  -17.6123   20.9944 O   0  0  0  0  0  0  0  0  0  0  0  0
    9.4415  -12.9394   19.6622 C   0  0  0  0  0  0  0  0  0  0  0  0
    7.9704  -13.0531   19.9627 C   0  0  2  0  0  0  0  0  0  0  0  0
    7.2392  -11.7527   19.7284 C   0  0  0  0  0  0  0  0  0  0  0  0
    7.6420  -13.7077   21.2496 C   0  0  0  0  0  0  0  0  0  0  0  0
    8.1062  -15.0960   21.4692 C   0  0  2  0  0  0  0  0  0  0  0  0
    7.6161  -16.0471   20.5079 N   0  0  0  0  0  0  0  0  0  0  0  0
    7.9889  -15.5795   22.8651 C   0  0  0  0  0  0  0  0  0  0  0  0
    6.8578  -15.8972   23.2912 O   0  0  0  0  0  0  0  0  0  0  0  0
    9.1090  -15.6823   23.6970 N   0  0  0  0  0  0  0  0  0  0  0  0
    8.9825  -16.4210   24.9524 C   0  0  1  0  0  0  0  0  0  0  0  0
    8.5570  -17.8442   24.6279 C   0  0  0  0  0  0  0  0  0  0  0  0
    8.5132  -18.6637   25.8449 C   0  0  0  0  0  0  0  0  0  0  0  0
    8.7450  -18.2019   27.1201 C   0  0  0  0  0  0  0  0  0  0  0  0
    8.6189  -19.2272   27.9636 N   0  0  0  0  0  0  0  0  0  0  0  0
    8.3116  -20.3227   27.2329 C   0  0  0  0  0  0  0  0  0  0  0  0
    8.2520  -19.9574   25.9435 N   0  0  0  0  0  0  0  0  0  0  0  0
   10.3002  -16.3917   25.6206 C   0  0  0  0  0  0  0  0  0  0  0  0
   11.3235  -16.0990   24.9718 O   0  0  0  0  0  0  0  0  0  0  0  0
   10.4023  -16.6870   26.9631 O   0  0  0  0  0  0  0  0  0  0  0  0
  1  2  1  0
  2  3  2  0
  4  2  1  0
  5  7  1  0
  5  4  1  0
  5  6  1  1
  7  8  2  0
 10  9  1  1
 10 11  1  0
 13 12  1  1
 12 10  1  0
 14 13  1  0
 14  7  1  0
 15 16  2  0
 15 13  1  0
 17 15  1  0
 18 25  1  0
 18 17  1  0
 18 19  1  6
 20 19  1  0
 21 20  2  0
 22 23  1  0
 22 21  1  0
 23 24  2  0
 24 20  1  0
 25 27  1  0
 26 25  2  0
M  END
$$$$
