NLH.pdb
     RDKit          3D

 27 27  0  0  1  0  0  0  0  0999 V2000
    7.3021  -18.9214   19.3758 N   0  0  0  0  0  0  0  0  0  0  0  0
    6.7833  -17.7384   19.9541 C   0  0  0  0  0  0  0  0  0  0  0  0
    5.8498  -17.1672   19.3630 O   0  0  0  0  0  0  0  0  0  0  0  0
    7.3648  -17.2523   21.2044 C   0  0  0  0  0  0  0  0  0  0  0  0
    7.4711  -15.7637   21.3575 C   0  0  2  0  0  0  0  0  0  0  0  0
    8.3583  -15.3288   20.2568 N   0  0  0  0  0  0  0  0  0  0  0  0
    8.0838  -15.4379   22.6630 C   0  0  0  0  0  0  0  0  0  0  0  0
    9.2875  -15.5857   22.8981 O   0  0  0  0  0  0  0  0  0  0  0  0
    8.0100  -11.6701   25.4255 C   0  0  0  0  0  0  0  0  0  0  0  0
    6.7351  -12.4574   25.5740 C   0  0  2  0  0  0  0  0  0  0  0  0
    5.7102  -11.7290   26.4105 C   0  0  0  0  0  0  0  0  0  0  0  0
    6.9159  -13.8799   25.9430 C   0  0  0  0  0  0  0  0  0  0  0  0
    7.7713  -14.7254   25.0803 C   0  0  2  0  0  0  0  0  0  0  0  0
    7.2677  -14.9169   23.7466 N   0  0  0  0  0  0  0  0  0  0  0  0
    8.2339  -15.9871   25.7051 C   0  0  0  0  0  0  0  0  0  0  0  0
    7.4233  -16.9330   25.8053 O   0  0  0  0  0  0  0  0  0  0  0  0
    9.5436  -16.1293   26.1761 N   0  0  0  0  0  0  0  0  0  0  0  0
    9.9791  -17.4436   26.6460 C   0  0  1  0  0  0  0  0  0  0  0  0
   11.1012  -17.9264   25.7408 C   0  0  0  0  0  0  0  0  0  0  0  0
   11.6221  -19.2184   26.2030 C   0  0  0  0  0  0  0  0  0  0  0  0
   11.1036  -19.9561   27.2423 C   0  0  0  0  0  0  0  0  0  0  0  0
   11.8334  -21.0649   27.3708 N   0  0  0  0  0  0  0  0  0  0  0  0
   12.8004  -21.0299   26.4263 C   0  0  0  0  0  0  0  0  0  0  0  0
   12.6538  -19.8957   25.7250 N   0  0  0  0  0  0  0  0  0  0  0  0
   10.4415  -17.2866   28.0407 C   0  0  0  0  0  0  0  0  0  0  0  0
   10.5243  -16.1508   28.5475 O   0  0  0  0  0  0  0  0  0  0  0  0
   10.7823  -18.3949   28.7859 O   0  0  0  0  0  0  0  0  0  0  0  0
  1  2  1  0
  2  3  2  0
  4  2  1  0
  5  7  1  0
  5  4  1  0
  5  6  1  6
  7  8  2  0
 10  9  1  1
 10 11  1  0
 13 12  1  1
 12 10  1  0
 14 13  1  0
 14  7  1  0
 15 16  2  0
 15 13  1  0
 17 15  1  0
 18 25  1  0
 18 17  1  0
 18 19  1  6
 20 19  1  0
 21 20  2  0
 22 23  1  0
 22 21  1  0
 23 24  2  0
 24 20  1  0
 25 27  1  0
 26 25  2  0
M  END
$$$$
