NLH.pdb
     RDKit          3D

 27 27  0  0  1  0  0  0  0  0999 V2000
   10.2861  -18.6516   14.5854 N   0  0  0  0  0  0  0  0  0  0  0  0
   11.0953  -17.4940   14.6755 C   0  0  0  0  0  0  0  0  0  0  0  0
   11.7910  -17.1967   13.6881 O   0  0  0  0  0  0  0  0  0  0  0  0
   11.0732  -16.7140   15.9118 C   0  0  0  0  0  0  0  0  0  0  0  0
   10.3737  -17.3381   17.0832 C   0  0  2  0  0  0  0  0  0  0  0  0
    8.9469  -17.3840   16.6959 N   0  0  0  0  0  0  0  0  0  0  0  0
   10.5482  -16.4883   18.2804 C   0  0  0  0  0  0  0  0  0  0  0  0
   11.6552  -16.1409   18.7046 O   0  0  0  0  0  0  0  0  0  0  0  0
    8.8095  -12.4611   19.5127 C   0  0  0  0  0  0  0  0  0  0  0  0
    7.7999  -13.5357   19.8175 C   0  0  2  0  0  0  0  0  0  0  0  0
    6.4612  -12.9625   20.2175 C   0  0  0  0  0  0  0  0  0  0  0  0
    8.2839  -14.6171   20.7057 C   0  0  0  0  0  0  0  0  0  0  0  0
    9.4928  -15.3693   20.3009 C   0  0  2  0  0  0  0  0  0  0  0  0
    9.3899  -16.0184   19.0214 N   0  0  0  0  0  0  0  0  0  0  0  0
   10.0578  -16.2525   21.3481 C   0  0  0  0  0  0  0  0  0  0  0  0
    9.5989  -17.4094   21.4612 O   0  0  0  0  0  0  0  0  0  0  0  0
   11.0801  -15.8145   22.1969 N   0  0  0  0  0  0  0  0  0  0  0  0
   11.6878  -16.7770   23.1146 C   0  0  1  0  0  0  0  0  0  0  0  0
   13.1824  -16.5038   23.1719 C   0  0  0  0  0  0  0  0  0  0  0  0
   13.8463  -17.4368   24.0900 C   0  0  0  0  0  0  0  0  0  0  0  0
   13.2276  -18.1161   25.1142 C   0  0  0  0  0  0  0  0  0  0  0  0
   14.1430  -18.8659   25.7294 N   0  0  0  0  0  0  0  0  0  0  0  0
   15.3246  -18.6643   25.1038 C   0  0  0  0  0  0  0  0  0  0  0  0
   15.1218  -17.7894   24.1071 N   0  0  0  0  0  0  0  0  0  0  0  0
   11.0550  -16.5916   24.4370 C   0  0  0  0  0  0  0  0  0  0  0  0
   11.4298  -17.2741   25.4104 O   0  0  0  0  0  0  0  0  0  0  0  0
   10.0490  -15.6633   24.5989 O   0  0  0  0  0  0  0  0  0  0  0  0
  1  2  1  0
  2  3  2  0
  4  2  1  0
  5  7  1  0
  5  4  1  0
  5  6  1  6
  7  8  2  0
 10  9  1  1
 10 11  1  0
 13 12  1  1
 12 10  1  0
 14 13  1  0
 14  7  1  0
 15 16  2  0
 15 13  1  0
 17 15  1  0
 18 25  1  0
 18 17  1  0
 18 19  1  1
 20 19  1  0
 21 20  2  0
 22 23  1  0
 22 21  1  0
 23 24  2  0
 24 20  1  0
 25 27  1  0
 26 25  2  0
M  END
$$$$
