NLH.pdb
     RDKit          3D

 27 27  0  0  1  0  0  0  0  0999 V2000
   11.0406  -19.2372   16.6763 N   0  0  0  0  0  0  0  0  0  0  0  0
   10.9171  -17.8498   16.4260 C   0  0  0  0  0  0  0  0  0  0  0  0
   10.9707  -17.4687   15.2431 O   0  0  0  0  0  0  0  0  0  0  0  0
   10.7346  -16.9435   17.5587 C   0  0  0  0  0  0  0  0  0  0  0  0
   10.7503  -17.5675   18.9229 C   0  0  2  0  0  0  0  0  0  0  0  0
    9.5561  -18.4396   18.9579 N   0  0  0  0  0  0  0  0  0  0  0  0
   10.6413  -16.5149   19.9554 C   0  0  0  0  0  0  0  0  0  0  0  0
   11.6228  -15.9437   20.4416 O   0  0  0  0  0  0  0  0  0  0  0  0
    8.7119  -12.6995   19.5761 C   0  0  0  0  0  0  0  0  0  0  0  0
    7.6608  -13.6628   20.0600 C   0  0  2  0  0  0  0  0  0  0  0  0
    6.2680  -13.0900   19.9467 C   0  0  0  0  0  0  0  0  0  0  0  0
    7.9477  -14.3004   21.3652 C   0  0  0  0  0  0  0  0  0  0  0  0
    9.1706  -15.1251   21.4896 C   0  0  2  0  0  0  0  0  0  0  0  0
    9.3378  -16.1034   20.4485 N   0  0  0  0  0  0  0  0  0  0  0  0
    9.4140  -15.6798   22.8420 C   0  0  0  0  0  0  0  0  0  0  0  0
    9.3507  -14.9068   23.8220 O   0  0  0  0  0  0  0  0  0  0  0  0
    9.7092  -17.0341   23.0316 N   0  0  0  0  0  0  0  0  0  0  0  0
    9.9236  -17.5192   24.3942 C   0  0  1  0  0  0  0  0  0  0  0  0
    9.2954  -18.8986   24.5141 C   0  0  0  0  0  0  0  0  0  0  0  0
    7.8427  -18.8269   24.3173 C   0  0  0  0  0  0  0  0  0  0  0  0
    7.0340  -17.8010   24.7495 C   0  0  0  0  0  0  0  0  0  0  0  0
    5.7799  -18.0805   24.3924 N   0  0  0  0  0  0  0  0  0  0  0  0
    5.7941  -19.2666   23.7433 C   0  0  0  0  0  0  0  0  0  0  0  0
    7.0615  -19.7048   23.7084 N   0  0  0  0  0  0  0  0  0  0  0  0
   11.3824  -17.5696   24.6241 C   0  0  0  0  0  0  0  0  0  0  0  0
   12.1704  -17.2624   23.7083 O   0  0  0  0  0  0  0  0  0  0  0  0
   11.8769  -17.9557   25.8514 O   0  0  0  0  0  0  0  0  0  0  0  0
  1  2  1  0
  2  3  2  0
  4  2  1  0
  5  7  1  0
  5  4  1  0
  5  6  1  6
  7  8  2  0
 10  9  1  1
 10 11  1  0
 13 12  1  1
 12 10  1  0
 14 13  1  0
 14  7  1  0
 15 16  2  0
 15 13  1  0
 17 15  1  0
 18 25  1  0
 18 17  1  0
 18 19  1  6
 20 19  1  0
 21 20  2  0
 22 23  1  0
 22 21  1  0
 23 24  2  0
 24 20  1  0
 25 27  1  0
 26 25  2  0
M  END
$$$$
