NLH.pdb
     RDKit          3D

 27 27  0  0  1  0  0  0  0  0999 V2000
   10.3249  -18.1888   19.3811 N   0  0  0  0  0  0  0  0  0  0  0  0
   10.4578  -16.7860   19.2494 C   0  0  0  0  0  0  0  0  0  0  0  0
   10.6999  -16.3321   18.1169 O   0  0  0  0  0  0  0  0  0  0  0  0
   10.3054  -15.9496   20.4388 C   0  0  0  0  0  0  0  0  0  0  0  0
    9.9737  -16.6605   21.7176 C   0  0  2  0  0  0  0  0  0  0  0  0
    8.6400  -17.2575   21.4879 N   0  0  0  0  0  0  0  0  0  0  0  0
    9.9102  -15.6872   22.8287 C   0  0  0  0  0  0  0  0  0  0  0  0
   10.8676  -14.9810   23.1614 O   0  0  0  0  0  0  0  0  0  0  0  0
    5.7739  -13.0557   26.7571 C   0  0  0  0  0  0  0  0  0  0  0  0
    7.1886  -13.2962   26.3010 C   0  0  2  0  0  0  0  0  0  0  0  0
    7.9993  -12.0226   26.2640 C   0  0  0  0  0  0  0  0  0  0  0  0
    7.3222  -14.1331   25.0868 C   0  0  0  0  0  0  0  0  0  0  0  0
    8.6244  -14.7862   24.8246 C   0  0  2  0  0  0  0  0  0  0  0  0
    8.6836  -15.5225   23.5904 N   0  0  0  0  0  0  0  0  0  0  0  0
    9.1857  -15.5408   25.9698 C   0  0  0  0  0  0  0  0  0  0  0  0
    9.2832  -14.9616   27.0729 O   0  0  0  0  0  0  0  0  0  0  0  0
    9.6008  -16.8699   25.8333 N   0  0  0  0  0  0  0  0  0  0  0  0
   10.1191  -17.5652   27.0105 C   0  0  1  0  0  0  0  0  0  0  0  0
    9.7877  -19.0430   26.8762 C   0  0  0  0  0  0  0  0  0  0  0  0
    8.3383  -19.2417   26.7571 C   0  0  0  0  0  0  0  0  0  0  0  0
    7.4763  -19.4410   27.8109 C   0  0  0  0  0  0  0  0  0  0  0  0
    6.2443  -19.5823   27.3202 N   0  0  0  0  0  0  0  0  0  0  0  0
    6.3249  -19.4740   25.9748 C   0  0  0  0  0  0  0  0  0  0  0  0
    7.6104  -19.2667   25.6520 N   0  0  0  0  0  0  0  0  0  0  0  0
   11.5792  -17.3420   27.0522 C   0  0  0  0  0  0  0  0  0  0  0  0
   12.1383  -16.6934   26.1464 O   0  0  0  0  0  0  0  0  0  0  0  0
   12.3276  -17.8494   28.0925 O   0  0  0  0  0  0  0  0  0  0  0  0
  1  2  1  0
  2  3  2  0
  4  2  1  0
  5  7  1  0
  5  4  1  0
  5  6  1  6
  7  8  2  0
 10  9  1  6
 10 11  1  0
 13 12  1  1
 12 10  1  0
 14 13  1  0
 14  7  1  0
 15 16  2  0
 15 13  1  0
 17 15  1  0
 18 25  1  0
 18 17  1  0
 18 19  1  6
 20 19  1  0
 21 20  2  0
 22 23  1  0
 22 21  1  0
 23 24  2  0
 24 20  1  0
 25 27  1  0
 26 25  2  0
M  END
$$$$
