NLH.pdb
     RDKit          3D

 27 27  0  0  1  0  0  0  0  0999 V2000
   11.3154  -18.5346   14.9175 N   0  0  0  0  0  0  0  0  0  0  0  0
   11.6396  -17.1603   15.0127 C   0  0  0  0  0  0  0  0  0  0  0  0
   12.2679  -16.6479   14.0693 O   0  0  0  0  0  0  0  0  0  0  0  0
   11.2240  -16.4197   16.2028 C   0  0  0  0  0  0  0  0  0  0  0  0
   10.5189  -17.2071   17.2674 C   0  0  2  0  0  0  0  0  0  0  0  0
    9.1196  -17.3140   16.7999 N   0  0  0  0  0  0  0  0  0  0  0  0
   10.5715  -16.4730   18.5497 C   0  0  0  0  0  0  0  0  0  0  0  0
   11.6244  -16.2523   19.1571 O   0  0  0  0  0  0  0  0  0  0  0  0
    8.8362  -12.4423   19.2828 C   0  0  0  0  0  0  0  0  0  0  0  0
    7.7577  -13.4389   19.6157 C   0  0  2  0  0  0  0  0  0  0  0  0
    6.4233  -12.7744   19.8576 C   0  0  0  0  0  0  0  0  0  0  0  0
    8.1267  -14.4438   20.6387 C   0  0  0  0  0  0  0  0  0  0  0  0
    9.3370  -15.2650   20.4112 C   0  0  2  0  0  0  0  0  0  0  0  0
    9.3511  -15.9707   19.1580 N   0  0  0  0  0  0  0  0  0  0  0  0
    9.7354  -16.1192   21.5547 C   0  0  0  0  0  0  0  0  0  0  0  0
    9.1815  -17.2316   21.6872 O   0  0  0  0  0  0  0  0  0  0  0  0
   10.7064  -15.7026   22.4717 N   0  0  0  0  0  0  0  0  0  0  0  0
   11.0149  -16.5711   23.6068 C   0  0  1  0  0  0  0  0  0  0  0  0
   12.5123  -16.5080   23.8629 C   0  0  0  0  0  0  0  0  0  0  0  0
   13.2515  -17.1889   22.7932 C   0  0  0  0  0  0  0  0  0  0  0  0
   12.6795  -17.8304   21.7187 C   0  0  0  0  0  0  0  0  0  0  0  0
   13.6581  -18.3278   20.9614 N   0  0  0  0  0  0  0  0  0  0  0  0
   14.8331  -18.0059   21.5479 C   0  0  0  0  0  0  0  0  0  0  0  0
   14.5629  -17.3116   22.6636 N   0  0  0  0  0  0  0  0  0  0  0  0
   10.2482  -16.0745   24.7683 C   0  0  0  0  0  0  0  0  0  0  0  0
    9.5502  -15.0471   24.6633 O   0  0  0  0  0  0  0  0  0  0  0  0
   10.3016  -16.7454   25.9711 O   0  0  0  0  0  0  0  0  0  0  0  0
  1  2  1  0
  2  3  2  0
  4  2  1  0
  5  7  1  0
  5  4  1  0
  5  6  1  6
  7  8  2  0
 10  9  1  1
 10 11  1  0
 13 12  1  1
 12 10  1  0
 14 13  1  0
 14  7  1  0
 15 16  2  0
 15 13  1  0
 17 15  1  0
 18 25  1  0
 18 17  1  0
 18 19  1  1
 20 19  1  0
 21 20  2  0
 22 23  1  0
 22 21  1  0
 23 24  2  0
 24 20  1  0
 25 27  1  0
 26 25  2  0
M  END
$$$$
