FSL.pdb
     RDKit          3D

 26 26  0  0  1  0  0  0  0  0999 V2000
   26.4609  -18.5219   -7.7785 N   0  0  0  0  0  0  0  0  0  0  0  0
   26.9931  -19.6903   -8.4496 C   0  0  1  0  0  0  0  0  0  0  0  0
   26.9451  -20.8121   -7.4405 C   0  0  0  0  0  0  0  0  0  0  0  0
   27.8958  -20.4266   -6.3563 C   0  0  0  0  0  0  0  0  0  0  0  0
   29.2674  -20.4954   -6.4804 C   0  0  0  0  0  0  0  0  0  0  0  0
   30.1273  -20.1288   -5.4599 C   0  0  0  0  0  0  0  0  0  0  0  0
   29.6223  -19.6728   -4.2590 C   0  0  0  0  0  0  0  0  0  0  0  0
   28.2595  -19.5950   -4.1099 C   0  0  0  0  0  0  0  0  0  0  0  0
   27.4302  -19.9597   -5.1241 C   0  0  0  0  0  0  0  0  0  0  0  0
   26.3133  -19.9824   -9.7058 C   0  0  0  0  0  0  0  0  0  0  0  0
   25.1088  -19.5934   -9.8862 O   0  0  0  0  0  0  0  0  0  0  0  0
   28.1107  -21.9064  -13.2582 O   0  0  0  0  0  0  0  0  0  0  0  0
   27.5721  -20.6715  -13.1776 C   0  0  0  0  0  0  0  0  0  0  0  0
   26.4604  -20.4844  -12.1749 C   0  0  2  0  0  0  0  0  0  0  0  0
   26.8721  -20.6927  -10.8167 N   0  0  0  0  0  0  0  0  0  0  0  0
   25.2414  -21.2359  -12.5402 C   0  0  0  0  0  0  0  0  0  0  0  0
   25.1267  -22.4460  -12.1483 O   0  0  0  0  0  0  0  0  0  0  0  0
   19.8613  -20.8065  -15.4505 C   0  0  0  0  0  0  0  0  0  0  0  0
   20.5741  -21.5243  -14.3236 C   0  0  2  0  0  0  0  0  0  0  0  0
   19.6295  -21.6474  -13.1590 C   0  0  0  0  0  0  0  0  0  0  0  0
   21.8157  -20.7403  -14.0133 C   0  0  0  0  0  0  0  0  0  0  0  0
   23.0089  -21.5926  -13.6500 C   0  0  2  0  0  0  0  0  0  0  0  0
   24.1571  -20.7367  -13.3014 N   0  0  0  0  0  0  0  0  0  0  0  0
   23.3857  -22.5764  -14.6822 C   0  0  0  0  0  0  0  0  0  0  0  0
   24.2221  -22.2263  -15.7307 O   0  0  0  0  0  0  0  0  0  0  0  0
   22.9595  -23.7491  -14.6357 O   0  0  0  0  0  0  0  0  0  0  0  0
  2  1  1  1
  2 10  1  0
  3  2  1  0
  3  4  1  0
  4  9  2  0
  5  4  1  0
  5  6  2  0
  6  7  1  0
  7  8  2  0
  9  8  1  0
 10 11  2  0
 12 13  1  0
 14 13  1  6
 14 16  1  0
 15 14  1  0
 15 10  1  0
 16 23  1  0
 16 17  2  0
 19 18  1  6
 19 20  1  0
 21 19  1  0
 22 21  1  6
 22 24  1  0
 23 22  1  0
 24 26  2  0
 24 25  1  0
M  END
$$$$
