FSL.pdb
     RDKit          3D

 26 26  0  0  1  0  0  0  0  0999 V2000
   19.2331  -10.9447  -18.9567 N   0  0  0  0  0  0  0  0  0  0  0  0
   20.3982  -10.1556  -18.6124 C   0  0  1  0  0  0  0  0  0  0  0  0
   21.0162   -9.7267  -19.9213 C   0  0  0  0  0  0  0  0  0  0  0  0
   21.5169  -10.9768  -20.5652 C   0  0  0  0  0  0  0  0  0  0  0  0
   22.5124  -11.7675  -20.0310 C   0  0  0  0  0  0  0  0  0  0  0  0
   22.9566  -12.9242  -20.6473 C   0  0  0  0  0  0  0  0  0  0  0  0
   22.4011  -13.3282  -21.8445 C   0  0  0  0  0  0  0  0  0  0  0  0
   21.4079  -12.5580  -22.3976 C   0  0  0  0  0  0  0  0  0  0  0  0
   20.9844  -11.4244  -21.7772 C   0  0  0  0  0  0  0  0  0  0  0  0
   20.0919   -9.0573  -17.7039 C   0  0  0  0  0  0  0  0  0  0  0  0
   19.0267   -8.3697  -17.8686 O   0  0  0  0  0  0  0  0  0  0  0  0
   22.3399   -7.8808  -14.1302 O   0  0  0  0  0  0  0  0  0  0  0  0
   21.0136   -7.7111  -14.3143 C   0  0  0  0  0  0  0  0  0  0  0  0
   20.5465   -7.5403  -15.7387 C   0  0  2  0  0  0  0  0  0  0  0  0
   20.8916   -8.6411  -16.5912 N   0  0  0  0  0  0  0  0  0  0  0  0
   20.9200   -6.2248  -16.2990 C   0  0  0  0  0  0  0  0  0  0  0  0
   22.0322   -6.1152  -16.9174 O   0  0  0  0  0  0  0  0  0  0  0  0
   18.6948   -0.5704  -17.4875 C   0  0  0  0  0  0  0  0  0  0  0  0
   19.9138   -1.4684  -17.5178 C   0  0  2  0  0  0  0  0  0  0  0  0
   20.3971   -1.5743  -18.9387 C   0  0  0  0  0  0  0  0  0  0  0  0
   19.5108   -2.7837  -16.9178 C   0  0  0  0  0  0  0  0  0  0  0  0
   20.6497   -3.7630  -16.7565 C   0  0  2  0  0  0  0  0  0  0  0  0
   20.1487   -5.0404  -16.2183 N   0  0  0  0  0  0  0  0  0  0  0  0
   21.7707   -3.2575  -15.9421 C   0  0  0  0  0  0  0  0  0  0  0  0
   21.7842   -3.4214  -14.5657 O   0  0  0  0  0  0  0  0  0  0  0  0
   22.7350   -2.6693  -16.4742 O   0  0  0  0  0  0  0  0  0  0  0  0
  2  1  1  6
  2 10  1  0
  3  2  1  0
  3  4  1  0
  4  9  2  0
  5  4  1  0
  5  6  2  0
  6  7  1  0
  7  8  2  0
  9  8  1  0
 10 11  2  0
 12 13  1  0
 14 13  1  1
 14 16  1  0
 15 14  1  0
 15 10  1  0
 16 23  1  0
 16 17  2  0
 19 18  1  6
 19 20  1  0
 21 19  1  0
 22 21  1  1
 22 24  1  0
 23 22  1  0
 24 26  2  0
 24 25  1  0
M  END
$$$$
