FSL.pdb
     RDKit          3D

 26 26  0  0  1  0  0  0  0  0999 V2000
   24.6033  -17.4151  -15.8586 N   0  0  0  0  0  0  0  0  0  0  0  0
   25.9578  -17.6466  -15.4000 C   0  0  1  0  0  0  0  0  0  0  0  0
   26.3360  -16.4364  -14.5806 C   0  0  0  0  0  0  0  0  0  0  0  0
   26.4712  -15.3116  -15.5526 C   0  0  0  0  0  0  0  0  0  0  0  0
   27.2989  -15.3476  -16.6549 C   0  0  0  0  0  0  0  0  0  0  0  0
   27.4037  -14.2913  -17.5429 C   0  0  0  0  0  0  0  0  0  0  0  0
   26.6637  -13.1433  -17.3438 C   0  0  0  0  0  0  0  0  0  0  0  0
   25.8318  -13.0822  -16.2531 C   0  0  0  0  0  0  0  0  0  0  0  0
   25.7420  -14.1305  -15.3915 C   0  0  0  0  0  0  0  0  0  0  0  0
   26.1116  -18.9171  -14.7017 C   0  0  0  0  0  0  0  0  0  0  0  0
   25.2187  -19.3023  -13.8715 O   0  0  0  0  0  0  0  0  0  0  0  0
   28.6102  -21.9853  -16.0127 O   0  0  0  0  0  0  0  0  0  0  0  0
   28.3899  -21.9813  -14.6811 C   0  0  0  0  0  0  0  0  0  0  0  0
   27.2720  -21.0979  -14.1847 C   0  0  2  0  0  0  0  0  0  0  0  0
   27.2065  -19.8283  -14.8489 N   0  0  0  0  0  0  0  0  0  0  0  0
   27.2524  -20.9907  -12.7109 C   0  0  0  0  0  0  0  0  0  0  0  0
   28.2692  -20.4939  -12.1187 O   0  0  0  0  0  0  0  0  0  0  0  0
   27.0780  -18.4422   -8.1517 C   0  0  0  0  0  0  0  0  0  0  0  0
   26.9203  -19.9214   -8.4349 C   0  0  2  0  0  0  0  0  0  0  0  0
   28.0300  -20.6641   -7.7416 C   0  0  0  0  0  0  0  0  0  0  0  0
   26.9208  -20.0901   -9.9262 C   0  0  0  0  0  0  0  0  0  0  0  0
   26.3434  -21.4036  -10.3987 C   0  0  2  0  0  0  0  0  0  0  0  0
   26.1913  -21.3935  -11.8647 N   0  0  0  0  0  0  0  0  0  0  0  0
   25.0748  -21.7761   -9.7451 C   0  0  0  0  0  0  0  0  0  0  0  0
   24.5927  -23.0742   -9.8093 O   0  0  0  0  0  0  0  0  0  0  0  0
   24.4044  -20.9298   -9.1180 O   0  0  0  0  0  0  0  0  0  0  0  0
  2  1  1  1
  2 10  1  0
  3  2  1  0
  3  4  1  0
  4  9  2  0
  5  4  1  0
  5  6  2  0
  6  7  1  0
  7  8  2  0
  9  8  1  0
 10 11  2  0
 12 13  1  0
 14 13  1  1
 14 16  1  0
 15 14  1  0
 15 10  1  0
 16 23  1  0
 16 17  2  0
 19 18  1  6
 19 20  1  0
 21 19  1  0
 22 21  1  1
 22 24  1  0
 23 22  1  0
 24 26  2  0
 24 25  1  0
M  END
$$$$
