FSL.pdb
     RDKit          3D

 26 26  0  0  1  0  0  0  0  0999 V2000
   18.6461  -13.0758  -15.5775 N   0  0  0  0  0  0  0  0  0  0  0  0
   18.2150  -11.8896  -16.2888 C   0  0  1  0  0  0  0  0  0  0  0  0
   16.7827  -12.1405  -16.6940 C   0  0  0  0  0  0  0  0  0  0  0  0
   16.8430  -13.1112  -17.8264 C   0  0  0  0  0  0  0  0  0  0  0  0
   16.4319  -14.4241  -17.7322 C   0  0  0  0  0  0  0  0  0  0  0  0
   16.4958  -15.3033  -18.7989 C   0  0  0  0  0  0  0  0  0  0  0  0
   16.9857  -14.8791  -20.0176 C   0  0  0  0  0  0  0  0  0  0  0  0
   17.4019  -13.5760  -20.1375 C   0  0  0  0  0  0  0  0  0  0  0  0
   17.3314  -12.7266  -19.0779 C   0  0  0  0  0  0  0  0  0  0  0  0
   18.4177  -10.6645  -15.5248 C   0  0  0  0  0  0  0  0  0  0  0  0
   17.9541  -10.5678  -14.3372 O   0  0  0  0  0  0  0  0  0  0  0  0
   21.7804   -8.3797  -15.3709 O   0  0  0  0  0  0  0  0  0  0  0  0
   20.7298   -8.3426  -14.5245 C   0  0  0  0  0  0  0  0  0  0  0  0
   19.3575   -8.3521  -15.1515 C   0  0  2  0  0  0  0  0  0  0  0  0
   19.1130   -9.4978  -15.9791 N   0  0  0  0  0  0  0  0  0  0  0  0
   19.0327   -7.0709  -15.8127 C   0  0  0  0  0  0  0  0  0  0  0  0
   19.3985   -6.8958  -17.0237 O   0  0  0  0  0  0  0  0  0  0  0  0
   15.2544   -4.7938  -16.8576 C   0  0  0  0  0  0  0  0  0  0  0  0
   15.6575   -4.6940  -15.4013 C   0  0  2  0  0  0  0  0  0  0  0  0
   14.5537   -4.0080  -14.6433 C   0  0  0  0  0  0  0  0  0  0  0  0
   16.9676   -3.9634  -15.3528 C   0  0  0  0  0  0  0  0  0  0  0  0
   18.1226   -4.7269  -15.9571 C   0  0  2  0  0  0  0  0  0  0  0  0
   18.3372   -5.9874  -15.2239 N   0  0  0  0  0  0  0  0  0  0  0  0
   19.3764   -3.9554  -16.0466 C   0  0  0  0  0  0  0  0  0  0  0  0
   19.5100   -2.9123  -16.9497 O   0  0  0  0  0  0  0  0  0  0  0  0
   20.3481   -4.2242  -15.3101 O   0  0  0  0  0  0  0  0  0  0  0  0
  2  1  1  1
  2 10  1  0
  3  2  1  0
  3  4  1  0
  4  9  2  0
  5  4  1  0
  5  6  2  0
  6  7  1  0
  7  8  2  0
  9  8  1  0
 10 11  2  0
 12 13  1  0
 14 13  1  6
 14 16  1  0
 15 14  1  0
 15 10  1  0
 16 23  1  0
 16 17  2  0
 19 18  1  6
 19 20  1  0
 21 19  1  0
 22 21  1  1
 22 24  1  0
 23 22  1  0
 24 26  2  0
 24 25  1  0
M  END
$$$$
