FSL.pdb
     RDKit          3D

 26 26  0  0  1  0  0  0  0  0999 V2000
   15.8501  -11.3934  -13.9117 N   0  0  0  0  0  0  0  0  0  0  0  0
   16.0398  -10.0928  -14.5211 C   0  0  1  0  0  0  0  0  0  0  0  0
   14.7315   -9.7485  -15.1910 C   0  0  0  0  0  0  0  0  0  0  0  0
   14.6089  -10.6806  -16.3504 C   0  0  0  0  0  0  0  0  0  0  0  0
   13.6625  -11.6801  -16.4325 C   0  0  0  0  0  0  0  0  0  0  0  0
   13.5683  -12.5296  -17.5209 C   0  0  0  0  0  0  0  0  0  0  0  0
   14.4420  -12.3962  -18.5811 C   0  0  0  0  0  0  0  0  0  0  0  0
   15.3941  -11.4085  -18.5237 C   0  0  0  0  0  0  0  0  0  0  0  0
   15.4712  -10.5831  -17.4457 C   0  0  0  0  0  0  0  0  0  0  0  0
   16.5149   -9.0877  -13.5780 C   0  0  0  0  0  0  0  0  0  0  0  0
   16.2898   -9.2278  -12.3273 O   0  0  0  0  0  0  0  0  0  0  0  0
   18.3488   -5.2489  -14.5551 O   0  0  0  0  0  0  0  0  0  0  0  0
   18.7028   -5.9680  -13.4692 C   0  0  0  0  0  0  0  0  0  0  0  0
   17.6776   -6.9403  -12.9402 C   0  0  2  0  0  0  0  0  0  0  0  0
   17.2425   -7.9005  -13.9129 N   0  0  0  0  0  0  0  0  0  0  0  0
   16.5630   -6.2605  -12.2476 C   0  0  0  0  0  0  0  0  0  0  0  0
   15.4694   -6.0754  -12.8808 O   0  0  0  0  0  0  0  0  0  0  0  0
   14.4064   -4.5799   -6.7599 C   0  0  0  0  0  0  0  0  0  0  0  0
   14.2325   -4.4102   -8.2546 C   0  0  2  0  0  0  0  0  0  0  0  0
   12.8138   -4.7576   -8.6156 C   0  0  0  0  0  0  0  0  0  0  0  0
   15.2558   -5.2817   -8.9222 C   0  0  0  0  0  0  0  0  0  0  0  0
   15.4834   -4.9600  -10.3805 C   0  0  2  0  0  0  0  0  0  0  0  0
   16.5845   -5.7806  -10.9159 N   0  0  0  0  0  0  0  0  0  0  0  0
   15.7176   -3.5298  -10.6545 C   0  0  0  0  0  0  0  0  0  0  0  0
   14.6605   -2.6676  -10.9012 O   0  0  0  0  0  0  0  0  0  0  0  0
   16.8749   -3.0616  -10.6709 O   0  0  0  0  0  0  0  0  0  0  0  0
  2  1  1  1
  2 10  1  0
  3  2  1  0
  3  4  1  0
  4  9  2  0
  5  4  1  0
  5  6  2  0
  6  7  1  0
  7  8  2  0
  9  8  1  0
 10 11  2  0
 12 13  1  0
 14 13  1  6
 14 16  1  0
 15 14  1  0
 15 10  1  0
 16 23  1  0
 16 17  2  0
 19 18  1  1
 19 20  1  0
 21 19  1  0
 22 21  1  1
 22 24  1  0
 23 22  1  0
 24 26  2  0
 24 25  1  0
M  END
$$$$
