FSL.pdb
     RDKit          3D

 26 26  0  0  1  0  0  0  0  0999 V2000
   21.6679  -27.1936  -11.3629 N   0  0  0  0  0  0  0  0  0  0  0  0
   20.4734  -26.5753  -11.9013 C   0  0  1  0  0  0  0  0  0  0  0  0
   19.6507  -27.6952  -12.4912 C   0  0  0  0  0  0  0  0  0  0  0  0
   20.3419  -28.0873  -13.7548 C   0  0  0  0  0  0  0  0  0  0  0  0
   20.0841  -27.5090  -14.9798 C   0  0  0  0  0  0  0  0  0  0  0  0
   20.7417  -27.8893  -16.1366 C   0  0  0  0  0  0  0  0  0  0  0  0
   21.6979  -28.8838  -16.0945 C   0  0  0  0  0  0  0  0  0  0  0  0
   21.9731  -29.4759  -14.8866 C   0  0  0  0  0  0  0  0  0  0  0  0
   21.3166  -29.0887  -13.7604 C   0  0  0  0  0  0  0  0  0  0  0  0
   19.7648  -25.7607  -10.9216 C   0  0  0  0  0  0  0  0  0  0  0  0
   19.8072  -26.0708   -9.6820 O   0  0  0  0  0  0  0  0  0  0  0  0
   17.4980  -22.1956  -11.8144 O   0  0  0  0  0  0  0  0  0  0  0  0
   18.1387  -22.3522  -10.6369 C   0  0  0  0  0  0  0  0  0  0  0  0
   18.3947  -23.7708  -10.1915 C   0  0  2  0  0  0  0  0  0  0  0  0
   18.9869  -24.5927  -11.2070 N   0  0  0  0  0  0  0  0  0  0  0  0
   17.2084  -24.3840   -9.5583 C   0  0  0  0  0  0  0  0  0  0  0  0
   16.3587  -24.9834  -10.2999 O   0  0  0  0  0  0  0  0  0  0  0  0
   16.5326  -27.4093   -6.3242 C   0  0  0  0  0  0  0  0  0  0  0  0
   16.8309  -26.0472   -5.7334 C   0  0  2  0  0  0  0  0  0  0  0  0
   16.9509  -26.1872   -4.2402 C   0  0  0  0  0  0  0  0  0  0  0  0
   15.7290  -25.1248   -6.1665 C   0  0  0  0  0  0  0  0  0  0  0  0
   15.6428  -24.9260   -7.6615 C   0  0  2  0  0  0  0  0  0  0  0  0
   16.9099  -24.3750   -8.1745 N   0  0  0  0  0  0  0  0  0  0  0  0
   14.5006  -24.1004   -8.0966 C   0  0  0  0  0  0  0  0  0  0  0  0
   14.6741  -22.7714   -8.4505 O   0  0  0  0  0  0  0  0  0  0  0  0
   13.3493  -24.5797   -8.1562 O   0  0  0  0  0  0  0  0  0  0  0  0
  2  1  1  1
  2 10  1  0
  3  2  1  0
  3  4  1  0
  4  9  2  0
  5  4  1  0
  5  6  2  0
  6  7  1  0
  7  8  2  0
  9  8  1  0
 10 11  2  0
 12 13  1  0
 14 13  1  6
 14 16  1  0
 15 14  1  0
 15 10  1  0
 16 23  1  0
 16 17  2  0
 19 18  1  6
 19 20  1  0
 21 19  1  0
 22 21  1  1
 22 24  1  0
 23 22  1  0
 24 26  2  0
 24 25  1  0
M  END
$$$$
