FSL.pdb
     RDKit          3D

 26 26  0  0  1  0  0  0  0  0999 V2000
   14.7069  -12.8254  -12.1049 N   0  0  0  0  0  0  0  0  0  0  0  0
   14.0924  -11.5136  -12.0863 C   0  0  1  0  0  0  0  0  0  0  0  0
   13.1495  -11.5087  -10.9074 C   0  0  0  0  0  0  0  0  0  0  0  0
   11.9280  -12.2382  -11.3588 C   0  0  0  0  0  0  0  0  0  0  0  0
   11.5494  -13.4717  -10.8724 C   0  0  0  0  0  0  0  0  0  0  0  0
   10.4095  -14.1259  -11.3059 C   0  0  0  0  0  0  0  0  0  0  0  0
    9.5998  -13.5464  -12.2619 C   0  0  0  0  0  0  0  0  0  0  0  0
    9.9550  -12.3182  -12.7626 C   0  0  0  0  0  0  0  0  0  0  0  0
   11.0789  -11.6906  -12.3242 C   0  0  0  0  0  0  0  0  0  0  0  0
   15.0675  -10.4298  -12.0806 C   0  0  0  0  0  0  0  0  0  0  0  0
   16.0985  -10.5016  -11.3279 O   0  0  0  0  0  0  0  0  0  0  0  0
   17.4439   -6.7642  -14.0817 O   0  0  0  0  0  0  0  0  0  0  0  0
   16.5715   -7.7939  -14.0929 C   0  0  0  0  0  0  0  0  0  0  0  0
   15.9533   -8.1689  -12.7686 C   0  0  2  0  0  0  0  0  0  0  0  0
   14.9960   -9.2328  -12.8635 N   0  0  0  0  0  0  0  0  0  0  0  0
   15.4510   -6.9919  -12.0293 C   0  0  0  0  0  0  0  0  0  0  0  0
   14.2878   -6.5438  -12.3074 O   0  0  0  0  0  0  0  0  0  0  0  0
   13.4124   -5.1228   -8.4276 C   0  0  0  0  0  0  0  0  0  0  0  0
   14.7134   -5.8392   -8.1317 C   0  0  2  0  0  0  0  0  0  0  0  0
   14.9275   -5.8505   -6.6425 C   0  0  0  0  0  0  0  0  0  0  0  0
   15.7944   -5.1275   -8.8915 C   0  0  0  0  0  0  0  0  0  0  0  0
   15.5747   -5.0878  -10.3855 C   0  0  2  0  0  0  0  0  0  0  0  0
   16.1473   -6.2911  -11.0153 N   0  0  0  0  0  0  0  0  0  0  0  0
   16.0808   -3.8660  -11.0387 C   0  0  0  0  0  0  0  0  0  0  0  0
   17.2213   -3.8974  -11.8259 O   0  0  0  0  0  0  0  0  0  0  0  0
   15.4931   -2.7735  -10.8975 O   0  0  0  0  0  0  0  0  0  0  0  0
  2  1  1  1
  2 10  1  0
  3  2  1  0
  3  4  1  0
  4  9  2  0
  5  4  1  0
  5  6  2  0
  6  7  1  0
  7  8  2  0
  9  8  1  0
 10 11  2  0
 12 13  1  0
 14 13  1  6
 14 16  1  0
 15 14  1  0
 15 10  1  0
 16 23  1  0
 16 17  2  0
 19 18  1  1
 19 20  1  0
 21 19  1  0
 22 21  1  1
 22 24  1  0
 23 22  1  0
 24 26  2  0
 24 25  1  0
M  END
$$$$
