FSL.pdb
     RDKit          3D

 26 26  0  0  1  0  0  0  0  0999 V2000
   19.6603  -11.4157  -15.0989 N   0  0  0  0  0  0  0  0  0  0  0  0
   18.5423  -10.5061  -15.2452 C   0  0  1  0  0  0  0  0  0  0  0  0
   17.3076  -11.3699  -15.3360 C   0  0  0  0  0  0  0  0  0  0  0  0
   17.2074  -11.7896  -16.7650 C   0  0  0  0  0  0  0  0  0  0  0  0
   16.8614  -10.9360  -17.7912 C   0  0  0  0  0  0  0  0  0  0  0  0
   16.7786  -11.3501  -19.1091 C   0  0  0  0  0  0  0  0  0  0  0  0
   17.0466  -12.6629  -19.4406 C   0  0  0  0  0  0  0  0  0  0  0  0
   17.3933  -13.5333  -18.4368 C   0  0  0  0  0  0  0  0  0  0  0  0
   17.4696  -13.1078  -17.1474 C   0  0  0  0  0  0  0  0  0  0  0  0
   18.4923   -9.4946  -14.1965 C   0  0  0  0  0  0  0  0  0  0  0  0
   18.6173   -9.8376  -12.9712 O   0  0  0  0  0  0  0  0  0  0  0  0
   17.8336   -5.1834  -14.7050 O   0  0  0  0  0  0  0  0  0  0  0  0
   18.6049   -5.7321  -13.7430 C   0  0  0  0  0  0  0  0  0  0  0  0
   18.2589   -7.1388  -13.3213 C   0  0  2  0  0  0  0  0  0  0  0  0
   18.3093   -8.0882  -14.3953 N   0  0  0  0  0  0  0  0  0  0  0  0
   17.0042   -7.1998  -12.5427 C   0  0  0  0  0  0  0  0  0  0  0  0
   15.9291   -7.5461  -13.1388 O   0  0  0  0  0  0  0  0  0  0  0  0
   14.6579   -6.9459   -6.8599 C   0  0  0  0  0  0  0  0  0  0  0  0
   14.3318   -7.1013   -8.3306 C   0  0  2  0  0  0  0  0  0  0  0  0
   13.4638   -8.3178   -8.5042 C   0  0  0  0  0  0  0  0  0  0  0  0
   15.6364   -7.1804   -9.0683 C   0  0  0  0  0  0  0  0  0  0  0  0
   15.5424   -6.8087  -10.5295 C   0  0  2  0  0  0  0  0  0  0  0  0
   16.8689   -6.9056  -11.1645 N   0  0  0  0  0  0  0  0  0  0  0  0
   14.9397   -5.4859  -10.7792 C   0  0  0  0  0  0  0  0  0  0  0  0
   13.6016   -5.3637  -11.1198 O   0  0  0  0  0  0  0  0  0  0  0  0
   15.6217   -4.4439  -10.6897 O   0  0  0  0  0  0  0  0  0  0  0  0
  2  1  1  1
  2 10  1  0
  3  2  1  0
  3  4  1  0
  4  9  2  0
  5  4  1  0
  5  6  2  0
  6  7  1  0
  7  8  2  0
  9  8  1  0
 10 11  2  0
 12 13  1  0
 14 13  1  6
 14 16  1  0
 15 14  1  0
 15 10  1  0
 16 23  1  0
 16 17  2  0
 19 18  1  1
 19 20  1  0
 21 19  1  0
 22 21  1  1
 22 24  1  0
 23 22  1  0
 24 26  2  0
 24 25  1  0
M  END
$$$$
