FSL.pdb
     RDKit          3D

 26 26  0  0  1  0  0  0  0  0999 V2000
   22.1616  -23.9640  -17.9941 N   0  0  0  0  0  0  0  0  0  0  0  0
   21.0761  -23.0418  -18.2586 C   0  0  1  0  0  0  0  0  0  0  0  0
   20.3122  -23.6167  -19.4269 C   0  0  0  0  0  0  0  0  0  0  0  0
   21.0583  -23.1955  -20.6492 C   0  0  0  0  0  0  0  0  0  0  0  0
   20.9352  -21.9513  -21.2307 C   0  0  0  0  0  0  0  0  0  0  0  0
   21.6412  -21.5847  -22.3631 C   0  0  0  0  0  0  0  0  0  0  0  0
   22.5101  -22.4779  -22.9568 C   0  0  0  0  0  0  0  0  0  0  0  0
   22.6507  -23.7239  -22.3971 C   0  0  0  0  0  0  0  0  0  0  0  0
   21.9484  -24.0660  -21.2840 C   0  0  0  0  0  0  0  0  0  0  0  0
   20.2600  -22.7727  -17.0809 C   0  0  0  0  0  0  0  0  0  0  0  0
   20.0388  -23.7016  -16.2306 O   0  0  0  0  0  0  0  0  0  0  0  0
   18.7034  -18.8622  -15.5385 O   0  0  0  0  0  0  0  0  0  0  0  0
   19.2335  -19.9353  -14.9147 C   0  0  0  0  0  0  0  0  0  0  0  0
   18.9425  -21.2834  -15.5265 C   0  0  2  0  0  0  0  0  0  0  0  0
   19.6469  -21.5206  -16.7532 N   0  0  0  0  0  0  0  0  0  0  0  0
   17.4932  -21.5573  -15.6198 C   0  0  0  0  0  0  0  0  0  0  0  0
   16.8607  -21.1648  -16.6577 O   0  0  0  0  0  0  0  0  0  0  0  0
   14.8772  -25.1190  -15.7925 C   0  0  0  0  0  0  0  0  0  0  0  0
   15.2900  -24.8830  -14.3547 C   0  0  2  0  0  0  0  0  0  0  0  0
   14.7625  -26.0123  -13.5120 C   0  0  0  0  0  0  0  0  0  0  0  0
   14.7619  -23.5356  -13.9570 C   0  0  0  0  0  0  0  0  0  0  0  0
   15.2585  -22.3992  -14.8197 C   0  0  2  0  0  0  0  0  0  0  0  0
   16.7127  -22.2299  -14.6490 N   0  0  0  0  0  0  0  0  0  0  0  0
   14.5551  -21.1216  -14.6000 C   0  0  0  0  0  0  0  0  0  0  0  0
   15.2182  -20.0220  -14.0779 O   0  0  0  0  0  0  0  0  0  0  0  0
   13.3442  -21.0005  -14.8795 O   0  0  0  0  0  0  0  0  0  0  0  0
  2  1  1  1
  2 10  1  0
  3  2  1  0
  3  4  1  0
  4  9  2  0
  5  4  1  0
  5  6  2  0
  6  7  1  0
  7  8  2  0
  9  8  1  0
 10 11  2  0
 12 13  1  0
 14 13  1  6
 14 16  1  0
 15 14  1  0
 15 10  1  0
 16 23  1  0
 16 17  2  0
 19 18  1  6
 19 20  1  0
 21 19  1  0
 22 21  1  1
 22 24  1  0
 23 22  1  0
 24 26  2  0
 24 25  1  0
M  END
$$$$
