FSL.pdb
     RDKit          3D

 26 26  0  0  1  0  0  0  0  0999 V2000
   16.7489  -22.0859   -9.8173 N   0  0  0  0  0  0  0  0  0  0  0  0
   18.0239  -22.5830  -10.2926 C   0  0  1  0  0  0  0  0  0  0  0  0
   17.9356  -24.0889  -10.2336 C   0  0  0  0  0  0  0  0  0  0  0  0
   17.9092  -24.4396   -8.7829 C   0  0  0  0  0  0  0  0  0  0  0  0
   16.8002  -24.9443   -8.1373 C   0  0  0  0  0  0  0  0  0  0  0  0
   16.8031  -25.2644   -6.7909 C   0  0  0  0  0  0  0  0  0  0  0  0
   17.9456  -25.0819   -6.0382 C   0  0  0  0  0  0  0  0  0  0  0  0
   19.0637  -24.5803   -6.6576 C   0  0  0  0  0  0  0  0  0  0  0  0
   19.0419  -24.2717   -7.9818 C   0  0  0  0  0  0  0  0  0  0  0  0
   18.3879  -22.0531  -11.6011 C   0  0  0  0  0  0  0  0  0  0  0  0
   17.4785  -21.6368  -12.3975 O   0  0  0  0  0  0  0  0  0  0  0  0
   22.3325  -22.1670  -13.2633 O   0  0  0  0  0  0  0  0  0  0  0  0
   21.4816  -21.2024  -13.6721 C   0  0  0  0  0  0  0  0  0  0  0  0
   20.0127  -21.4546  -13.4373 C   0  0  2  0  0  0  0  0  0  0  0  0
   19.7177  -21.9413  -12.1207 N   0  0  0  0  0  0  0  0  0  0  0  0
   19.4024  -22.2644  -14.5125 C   0  0  0  0  0  0  0  0  0  0  0  0
   19.1896  -23.5056  -14.2997 O   0  0  0  0  0  0  0  0  0  0  0  0
   15.3156  -22.3533  -18.8996 C   0  0  0  0  0  0  0  0  0  0  0  0
   16.4517  -23.1263  -18.2633 C   0  0  2  0  0  0  0  0  0  0  0  0
   15.8856  -24.3507  -17.5969 C   0  0  0  0  0  0  0  0  0  0  0  0
   17.1490  -22.1924  -17.3178 C   0  0  0  0  0  0  0  0  0  0  0  0
   18.4782  -22.7035  -16.8138 C   0  0  2  0  0  0  0  0  0  0  0  0
   19.0183  -21.7909  -15.7902 N   0  0  0  0  0  0  0  0  0  0  0  0
   19.4740  -22.9460  -17.8744 C   0  0  0  0  0  0  0  0  0  0  0  0
   20.2342  -21.9082  -18.3908 O   0  0  0  0  0  0  0  0  0  0  0  0
   19.6557  -24.0931  -18.3327 O   0  0  0  0  0  0  0  0  0  0  0  0
  2  1  1  6
  2 10  1  0
  3  2  1  0
  3  4  1  0
  4  9  2  0
  5  4  1  0
  5  6  2  0
  6  7  1  0
  7  8  2  0
  9  8  1  0
 10 11  2  0
 12 13  1  0
 14 13  1  6
 14 16  1  0
 15 14  1  0
 15 10  1  0
 16 23  1  0
 16 17  2  0
 19 18  1  1
 19 20  1  0
 21 19  1  0
 22 21  1  6
 22 24  1  0
 23 22  1  0
 24 26  2  0
 24 25  1  0
M  END
$$$$
