FSL.pdb
     RDKit          3D

 26 26  0  0  1  0  0  0  0  0999 V2000
   26.6156  -18.6001   -8.0526 N   0  0  0  0  0  0  0  0  0  0  0  0
   27.0028  -19.8935   -8.5779 C   0  0  1  0  0  0  0  0  0  0  0  0
   26.8433  -20.8732   -7.4405 C   0  0  0  0  0  0  0  0  0  0  0  0
   27.8327  -20.4584   -6.4028 C   0  0  0  0  0  0  0  0  0  0  0  0
   27.5304  -19.6254   -5.3462 C   0  0  0  0  0  0  0  0  0  0  0  0
   28.4663  -19.2582   -4.3952 C   0  0  0  0  0  0  0  0  0  0  0  0
   29.7615  -19.7276   -4.4810 C   0  0  0  0  0  0  0  0  0  0  0  0
   30.0883  -20.5587   -5.5240 C   0  0  0  0  0  0  0  0  0  0  0  0
   29.1548  -20.9086   -6.4489 C   0  0  0  0  0  0  0  0  0  0  0  0
   26.2763  -20.2552   -9.7890 C   0  0  0  0  0  0  0  0  0  0  0  0
   25.0564  -19.9004   -9.9325 O   0  0  0  0  0  0  0  0  0  0  0  0
   28.6383  -20.7116  -13.1384 O   0  0  0  0  0  0  0  0  0  0  0  0
   27.4030  -21.2394  -13.2684 C   0  0  0  0  0  0  0  0  0  0  0  0
   26.3762  -20.8130  -12.2484 C   0  0  2  0  0  0  0  0  0  0  0  0
   26.8029  -21.0015  -10.8920 N   0  0  0  0  0  0  0  0  0  0  0  0
   25.0392  -21.3778  -12.5267 C   0  0  0  0  0  0  0  0  0  0  0  0
   24.7971  -22.5818  -12.1762 O   0  0  0  0  0  0  0  0  0  0  0  0
   19.2480  -19.9464  -12.3604 C   0  0  0  0  0  0  0  0  0  0  0  0
   20.2009  -21.0608  -12.7391 C   0  0  2  0  0  0  0  0  0  0  0  0
   19.9211  -22.2508  -11.8620 C   0  0  0  0  0  0  0  0  0  0  0  0
   21.5940  -20.5207  -12.5973 C   0  0  0  0  0  0  0  0  0  0  0  0
   22.6468  -21.3341  -13.3127 C   0  0  2  0  0  0  0  0  0  0  0  0
   23.9689  -20.7008  -13.1595 N   0  0  0  0  0  0  0  0  0  0  0  0
   22.3515  -21.5876  -14.7354 C   0  0  0  0  0  0  0  0  0  0  0  0
   21.6056  -22.6894  -15.1244 O   0  0  0  0  0  0  0  0  0  0  0  0
   22.7671  -20.8149  -15.6237 O   0  0  0  0  0  0  0  0  0  0  0  0
  2  1  1  1
  2 10  1  0
  3  2  1  0
  3  4  1  0
  4  9  2  0
  5  4  1  0
  5  6  2  0
  6  7  1  0
  7  8  2  0
  9  8  1  0
 10 11  2  0
 12 13  1  0
 14 13  1  6
 14 16  1  0
 15 14  1  0
 15 10  1  0
 16 23  1  0
 16 17  2  0
 19 18  1  1
 19 20  1  0
 21 19  1  0
 22 21  1  6
 22 24  1  0
 23 22  1  0
 24 26  2  0
 24 25  1  0
M  END
$$$$
