FSL.pdb
     RDKit          3D

 26 26  0  0  1  0  0  0  0  0999 V2000
   17.7282  -11.7537  -14.8051 N   0  0  0  0  0  0  0  0  0  0  0  0
   16.6076  -10.9018  -14.4625 C   0  0  1  0  0  0  0  0  0  0  0  0
   15.5613  -11.8072  -13.8590 C   0  0  0  0  0  0  0  0  0  0  0  0
   14.9709  -12.5663  -15.0006 C   0  0  0  0  0  0  0  0  0  0  0  0
   14.1259  -12.0075  -15.9362 C   0  0  0  0  0  0  0  0  0  0  0  0
   13.5940  -12.7333  -16.9876 C   0  0  0  0  0  0  0  0  0  0  0  0
   13.9027  -14.0709  -17.1319 C   0  0  0  0  0  0  0  0  0  0  0  0
   14.7420  -14.6512  -16.2131 C   0  0  0  0  0  0  0  0  0  0  0  0
   15.2550  -13.9218  -15.1864 C   0  0  0  0  0  0  0  0  0  0  0  0
   16.9878   -9.7759  -13.6179 C   0  0  0  0  0  0  0  0  0  0  0  0
   17.2868   -9.9703  -12.3901 O   0  0  0  0  0  0  0  0  0  0  0  0
   16.8177   -5.5617  -14.7310 O   0  0  0  0  0  0  0  0  0  0  0  0
   17.6858   -6.0333  -13.8115 C   0  0  0  0  0  0  0  0  0  0  0  0
   17.3065   -7.3215  -13.1237 C   0  0  2  0  0  0  0  0  0  0  0  0
   17.0675   -8.4069  -14.0305 N   0  0  0  0  0  0  0  0  0  0  0  0
   16.2239   -7.1335  -12.1355 C   0  0  0  0  0  0  0  0  0  0  0  0
   15.0199   -7.3641  -12.4937 O   0  0  0  0  0  0  0  0  0  0  0  0
   14.9074   -6.5727   -6.1882 C   0  0  0  0  0  0  0  0  0  0  0  0
   14.3631   -6.3836   -7.5887 C   0  0  2  0  0  0  0  0  0  0  0  0
   13.0826   -7.1632   -7.7156 C   0  0  0  0  0  0  0  0  0  0  0  0
   15.4342   -6.8225   -8.5440 C   0  0  0  0  0  0  0  0  0  0  0  0
   15.2336   -6.3380   -9.9607 C   0  0  2  0  0  0  0  0  0  0  0  0
   16.3902   -6.7125  -10.7941 N   0  0  0  0  0  0  0  0  0  0  0  0
   14.9561   -4.8937  -10.0720 C   0  0  0  0  0  0  0  0  0  0  0  0
   15.9887   -3.9725  -10.1535 O   0  0  0  0  0  0  0  0  0  0  0  0
   13.7831   -4.4666  -10.0952 O   0  0  0  0  0  0  0  0  0  0  0  0
  2  1  1  1
  2 10  1  0
  3  2  1  0
  3  4  1  0
  4  9  2  0
  5  4  1  0
  5  6  2  0
  6  7  1  0
  7  8  2  0
  9  8  1  0
 10 11  2  0
 12 13  1  0
 14 13  1  6
 14 16  1  0
 15 14  1  0
 15 10  1  0
 16 23  1  0
 16 17  2  0
 19 18  1  1
 19 20  1  0
 21 19  1  0
 22 21  1  1
 22 24  1  0
 23 22  1  0
 24 26  2  0
 24 25  1  0
M  END
$$$$
