FSL.pdb
     RDKit          3D

 26 26  0  0  1  0  0  0  0  0999 V2000
   24.7686  -17.4066  -15.7531 N   0  0  0  0  0  0  0  0  0  0  0  0
   25.9575  -17.7808  -15.0146 C   0  0  1  0  0  0  0  0  0  0  0  0
   26.5053  -16.5032  -14.4259 C   0  0  0  0  0  0  0  0  0  0  0  0
   27.0090  -15.7044  -15.5819 C   0  0  0  0  0  0  0  0  0  0  0  0
   26.5589  -14.4383  -15.8919 C   0  0  0  0  0  0  0  0  0  0  0  0
   27.0451  -13.7174  -16.9685 C   0  0  0  0  0  0  0  0  0  0  0  0
   28.0187  -14.2602  -17.7825 C   0  0  0  0  0  0  0  0  0  0  0  0
   28.4838  -15.5199  -17.4953 C   0  0  0  0  0  0  0  0  0  0  0  0
   27.9939  -16.2131  -16.4328 C   0  0  0  0  0  0  0  0  0  0  0  0
   25.7112  -18.8351  -14.0383 C   0  0  0  0  0  0  0  0  0  0  0  0
   24.9120  -18.6282  -13.0620 O   0  0  0  0  0  0  0  0  0  0  0  0
   27.9781  -22.5032  -13.6970 O   0  0  0  0  0  0  0  0  0  0  0  0
   26.6872  -22.4571  -13.3058 C   0  0  0  0  0  0  0  0  0  0  0  0
   26.1265  -21.0926  -12.9890 C   0  0  2  0  0  0  0  0  0  0  0  0
   26.2940  -20.1432  -14.0510 N   0  0  0  0  0  0  0  0  0  0  0  0
   26.5801  -20.5896  -11.6754 C   0  0  0  0  0  0  0  0  0  0  0  0
   27.8193  -20.3259  -11.5144 O   0  0  0  0  0  0  0  0  0  0  0  0
   28.0420  -18.8517   -6.5863 C   0  0  0  0  0  0  0  0  0  0  0  0
   27.5330  -20.1453   -7.1870 C   0  0  2  0  0  0  0  0  0  0  0  0
   28.5938  -21.2000   -7.0255 C   0  0  0  0  0  0  0  0  0  0  0  0
   27.1777  -19.8607   -8.6171 C   0  0  0  0  0  0  0  0  0  0  0  0
   26.1621  -20.8139   -9.2019 C   0  0  2  0  0  0  0  0  0  0  0  0
   25.7574  -20.3633  -10.5457 N   0  0  0  0  0  0  0  0  0  0  0  0
   24.9801  -21.0363   -8.3482 C   0  0  0  0  0  0  0  0  0  0  0  0
   25.1130  -21.5269   -7.0585 O   0  0  0  0  0  0  0  0  0  0  0  0
   23.8307  -20.7879   -8.7678 O   0  0  0  0  0  0  0  0  0  0  0  0
  2  1  1  1
  2 10  1  0
  3  2  1  0
  3  4  1  0
  4  9  2  0
  5  4  1  0
  5  6  2  0
  6  7  1  0
  7  8  2  0
  9  8  1  0
 10 11  2  0
 12 13  1  0
 14 13  1  6
 14 16  1  0
 15 14  1  0
 15 10  1  0
 16 23  1  0
 16 17  2  0
 19 18  1  6
 19 20  1  0
 21 19  1  0
 22 21  1  1
 22 24  1  0
 23 22  1  0
 24 26  2  0
 24 25  1  0
M  END
$$$$
