FSL.pdb
     RDKit          3D

 26 26  0  0  1  0  0  0  0  0999 V2000
   27.0688  -18.6470   -8.4247 N   0  0  0  0  0  0  0  0  0  0  0  0
   26.8007  -20.0341   -8.7451 C   0  0  1  0  0  0  0  0  0  0  0  0
   26.2768  -20.6640   -7.4772 C   0  0  0  0  0  0  0  0  0  0  0  0
   27.3274  -20.4327   -6.4423 C   0  0  0  0  0  0  0  0  0  0  0  0
   27.1130  -20.5776   -5.0879 C   0  0  0  0  0  0  0  0  0  0  0  0
   28.1058  -20.3597   -4.1487 C   0  0  0  0  0  0  0  0  0  0  0  0
   29.3702  -19.9813   -4.5527 C   0  0  0  0  0  0  0  0  0  0  0  0
   29.6096  -19.8299   -5.8963 C   0  0  0  0  0  0  0  0  0  0  0  0
   28.6213  -20.0486   -6.8045 C   0  0  0  0  0  0  0  0  0  0  0  0
   25.9253  -20.1911   -9.9003 C   0  0  0  0  0  0  0  0  0  0  0  0
   24.9673  -19.3666  -10.0930 O   0  0  0  0  0  0  0  0  0  0  0  0
   27.3186  -21.8157  -13.5051 O   0  0  0  0  0  0  0  0  0  0  0  0
   26.0188  -22.0364  -13.2164 C   0  0  0  0  0  0  0  0  0  0  0  0
   25.3951  -21.1338  -12.1807 C   0  0  2  0  0  0  0  0  0  0  0  0
   26.0233  -21.2177  -10.8940 N   0  0  0  0  0  0  0  0  0  0  0  0
   23.9248  -21.2731  -12.1258 C   0  0  0  0  0  0  0  0  0  0  0  0
   23.4141  -22.0399  -11.2413 O   0  0  0  0  0  0  0  0  0  0  0  0
   20.4005  -18.9451  -10.9865 C   0  0  0  0  0  0  0  0  0  0  0  0
   20.9401  -18.5168  -12.3351 C   0  0  2  0  0  0  0  0  0  0  0  0
   20.2161  -17.2711  -12.7685 C   0  0  0  0  0  0  0  0  0  0  0  0
   20.7621  -19.6754  -13.2724 C   0  0  0  0  0  0  0  0  0  0  0  0
   21.5540  -20.9042  -12.8917 C   0  0  2  0  0  0  0  0  0  0  0  0
   22.9986  -20.6243  -12.9776 N   0  0  0  0  0  0  0  0  0  0  0  0
   21.2091  -22.1100  -13.6678 C   0  0  0  0  0  0  0  0  0  0  0  0
   22.1090  -22.6629  -14.5657 O   0  0  0  0  0  0  0  0  0  0  0  0
   20.0970  -22.6616  -13.5343 O   0  0  0  0  0  0  0  0  0  0  0  0
  2  1  1  1
  2 10  1  0
  3  2  1  0
  3  4  1  0
  4  9  2  0
  5  4  1  0
  5  6  2  0
  6  7  1  0
  7  8  2  0
  9  8  1  0
 10 11  2  0
 12 13  1  0
 14 13  1  6
 14 16  1  0
 15 14  1  0
 15 10  1  0
 16 23  1  0
 16 17  2  0
 19 18  1  1
 19 20  1  0
 21 19  1  0
 22 21  1  6
 22 24  1  0
 23 22  1  0
 24 26  2  0
 24 25  1  0
M  END
$$$$
