GGK.pdb
     RDKit          3D

 18 17  0  0  1  0  0  0  0  0999 V2000
   12.4605  -11.3059  -15.3201 N   0  0  0  0  0  0  0  0  0  0  0  0
   13.7597  -11.3699  -15.9170 C   0  0  0  0  0  0  0  0  0  0  0  0
   14.4808  -10.0715  -15.8007 C   0  0  0  0  0  0  0  0  0  0  0  0
   13.9490   -8.9789  -16.1118 O   0  0  0  0  0  0  0  0  0  0  0  0
   15.8123  -10.0937  -15.3200 N   0  0  0  0  0  0  0  0  0  0  0  0
   16.5890   -8.8561  -15.2589 C   0  0  0  0  0  0  0  0  0  0  0  0
   17.9540   -9.1807  -14.7632 C   0  0  0  0  0  0  0  0  0  0  0  0
   18.3028  -10.3618  -14.4602 O   0  0  0  0  0  0  0  0  0  0  0  0
   18.9303   -8.1617  -14.6095 N   0  0  0  0  0  0  0  0  0  0  0  0
   20.2852   -8.4834  -14.1676 C   0  0  1  0  0  0  0  0  0  0  0  0
   20.9384   -9.3728  -15.1724 C   0  0  0  0  0  0  0  0  0  0  0  0
   22.3248   -9.8037  -14.8212 C   0  0  0  0  0  0  0  0  0  0  0  0
   22.8617  -10.7714  -15.8826 C   0  0  0  0  0  0  0  0  0  0  0  0
   24.2295  -11.2212  -15.4589 C   0  0  0  0  0  0  0  0  0  0  0  0
   24.8026  -12.1597  -16.3932 N   0  0  0  0  0  0  0  0  0  0  0  0
   20.9887   -7.2167  -13.9116 C   0  0  0  0  0  0  0  0  0  0  0  0
   20.7403   -6.1504  -14.5375 O   0  0  0  0  0  0  0  0  0  0  0  0
   21.9976   -7.1298  -12.9326 O   0  0  0  0  0  0  0  0  0  0  0  0
  1  2  1  0
  3  2  1  0
  3  5  1  0
  4  3  2  0
  6  5  1  0
  7  9  1  0
  7  6  1  0
  8  7  2  0
 10  9  1  0
 10 16  1  0
 10 11  1  6
 12 11  1  0
 13 14  1  0
 13 12  1  0
 14 15  1  0
 16 17  2  0
 16 18  1  0
M  END
$$$$
