GGK.pdb
     RDKit          3D

 18 17  0  0  1  0  0  0  0  0999 V2000
   26.6934  -21.2158  -15.9569 N   0  0  0  0  0  0  0  0  0  0  0  0
   25.8015  -22.0995  -15.2699 C   0  0  0  0  0  0  0  0  0  0  0  0
   24.4866  -21.4523  -15.0028 C   0  0  0  0  0  0  0  0  0  0  0  0
   23.7299  -21.0652  -15.9254 O   0  0  0  0  0  0  0  0  0  0  0  0
   24.0961  -21.2773  -13.6532 N   0  0  0  0  0  0  0  0  0  0  0  0
   22.8056  -20.6656  -13.3382 C   0  0  0  0  0  0  0  0  0  0  0  0
   21.8122  -21.7507  -13.1145 C   0  0  0  0  0  0  0  0  0  0  0  0
   21.8398  -22.8402  -13.7631 O   0  0  0  0  0  0  0  0  0  0  0  0
   20.7811  -21.6014  -12.1503 N   0  0  0  0  0  0  0  0  0  0  0  0
   19.8673  -22.7023  -11.8547 C   0  0  1  0  0  0  0  0  0  0  0  0
   19.7591  -22.8761  -10.3764 C   0  0  0  0  0  0  0  0  0  0  0  0
   18.8722  -23.9959   -9.9398 C   0  0  0  0  0  0  0  0  0  0  0  0
   18.8164  -24.0591   -8.4088 C   0  0  0  0  0  0  0  0  0  0  0  0
   17.7864  -25.0786   -8.0181 C   0  0  0  0  0  0  0  0  0  0  0  0
   17.7008  -25.2382   -6.5866 N   0  0  0  0  0  0  0  0  0  0  0  0
   18.5947  -22.4287  -12.5410 C   0  0  0  0  0  0  0  0  0  0  0  0
   17.7748  -23.3320  -12.8605 O   0  0  0  0  0  0  0  0  0  0  0  0
   18.2204  -21.1147  -12.8829 O   0  0  0  0  0  0  0  0  0  0  0  0
  1  2  1  0
  3  2  1  0
  3  5  1  0
  4  3  2  0
  6  5  1  0
  7  9  1  0
  7  6  1  0
  8  7  2  0
 10  9  1  0
 10 16  1  0
 10 11  1  1
 12 11  1  0
 13 14  1  0
 13 12  1  0
 14 15  1  0
 16 17  2  0
 16 18  1  0
M  END
$$$$
