GGK.pdb
     RDKit          3D

 18 17  0  0  1  0  0  0  0  0999 V2000
   19.6204  -10.3072  -15.0094 N   0  0  0  0  0  0  0  0  0  0  0  0
   18.7530  -10.3889  -13.8739 C   0  0  0  0  0  0  0  0  0  0  0  0
   17.6491   -9.3918  -13.9548 C   0  0  0  0  0  0  0  0  0  0  0  0
   16.4547   -9.7273  -14.1404 O   0  0  0  0  0  0  0  0  0  0  0  0
   17.9811   -8.0227  -13.8146 N   0  0  0  0  0  0  0  0  0  0  0  0
   16.9705   -6.9953  -14.0635 C   0  0  0  0  0  0  0  0  0  0  0  0
   16.3789   -6.5910  -12.7593 C   0  0  0  0  0  0  0  0  0  0  0  0
   15.5699   -5.6201  -12.6530 O   0  0  0  0  0  0  0  0  0  0  0  0
   16.7053   -7.2903  -11.5678 N   0  0  0  0  0  0  0  0  0  0  0  0
   16.1636   -6.8668  -10.2788 C   0  0  1  0  0  0  0  0  0  0  0  0
   15.3889   -7.9887   -9.6716 C   0  0  0  0  0  0  0  0  0  0  0  0
   13.9517   -7.6843   -9.4014 C   0  0  0  0  0  0  0  0  0  0  0  0
   13.2595   -8.9068   -8.7869 C   0  0  0  0  0  0  0  0  0  0  0  0
   11.8169   -8.5629   -8.5559 C   0  0  0  0  0  0  0  0  0  0  0  0
   11.0921   -9.6541   -7.9511 N   0  0  0  0  0  0  0  0  0  0  0  0
   17.2819   -6.3722   -9.4603 C   0  0  0  0  0  0  0  0  0  0  0  0
   18.4721   -6.3246   -9.8743 O   0  0  0  0  0  0  0  0  0  0  0  0
   17.0740   -5.9168   -8.1437 O   0  0  0  0  0  0  0  0  0  0  0  0
  1  2  1  0
  3  2  1  0
  3  5  1  0
  4  3  2  0
  6  5  1  0
  7  9  1  0
  7  6  1  0
  8  7  2  0
 10  9  1  0
 10 16  1  0
 10 11  1  1
 12 11  1  0
 13 14  1  0
 13 12  1  0
 14 15  1  0
 16 17  2  0
 16 18  1  0
M  END
$$$$
