GGK.pdb
     RDKit          3D

 18 17  0  0  1  0  0  0  0  0999 V2000
   13.1122  -11.3757  -15.5338 N   0  0  0  0  0  0  0  0  0  0  0  0
   14.2523  -10.8699  -14.8320 C   0  0  0  0  0  0  0  0  0  0  0  0
   15.2536  -10.2816  -15.7650 C   0  0  0  0  0  0  0  0  0  0  0  0
   15.0375  -10.1669  -16.9953 O   0  0  0  0  0  0  0  0  0  0  0  0
   16.4861   -9.8427  -15.2238 N   0  0  0  0  0  0  0  0  0  0  0  0
   17.5002   -9.2529  -16.0970 C   0  0  0  0  0  0  0  0  0  0  0  0
   18.6953   -8.9222  -15.2744 C   0  0  0  0  0  0  0  0  0  0  0  0
   18.7218   -9.0909  -14.0177 O   0  0  0  0  0  0  0  0  0  0  0  0
   19.8677   -8.3971  -15.8784 N   0  0  0  0  0  0  0  0  0  0  0  0
   21.0734   -8.1571  -15.0891 C   0  0  1  0  0  0  0  0  0  0  0  0
   22.2773   -8.4945  -15.9041 C   0  0  0  0  0  0  0  0  0  0  0  0
   22.3453   -9.9138  -16.3646 C   0  0  0  0  0  0  0  0  0  0  0  0
   23.5975  -10.1311  -17.2226 C   0  0  0  0  0  0  0  0  0  0  0  0
   23.5864  -11.5475  -17.7192 C   0  0  0  0  0  0  0  0  0  0  0  0
   24.7719  -11.8622  -18.4791 N   0  0  0  0  0  0  0  0  0  0  0  0
   21.0246   -6.7697  -14.6015 C   0  0  0  0  0  0  0  0  0  0  0  0
   20.4026   -5.8496  -15.1989 O   0  0  0  0  0  0  0  0  0  0  0  0
   21.6849   -6.3915  -13.4163 O   0  0  0  0  0  0  0  0  0  0  0  0
  1  2  1  0
  3  2  1  0
  3  5  1  0
  4  3  2  0
  6  5  1  0
  7  9  1  0
  7  6  1  0
  8  7  2  0
 10  9  1  0
 10 16  1  0
 10 11  1  6
 12 11  1  0
 13 14  1  0
 13 12  1  0
 14 15  1  0
 16 17  2  0
 16 18  1  0
M  END
$$$$
