GGK.pdb
     RDKit          3D

 18 17  0  0  1  0  0  0  0  0999 V2000
   25.8976  -22.5090  -15.9956 N   0  0  0  0  0  0  0  0  0  0  0  0
   24.7376  -21.6759  -15.9017 C   0  0  0  0  0  0  0  0  0  0  0  0
   24.3174  -21.4792  -14.4860 C   0  0  0  0  0  0  0  0  0  0  0  0
   24.9970  -21.9016  -13.5199 O   0  0  0  0  0  0  0  0  0  0  0  0
   23.1053  -20.7887  -14.2443 N   0  0  0  0  0  0  0  0  0  0  0  0
   22.5909  -20.6684  -12.8806 C   0  0  0  0  0  0  0  0  0  0  0  0
   21.6462  -21.7911  -12.6328 C   0  0  0  0  0  0  0  0  0  0  0  0
   22.0357  -22.9924  -12.5161 O   0  0  0  0  0  0  0  0  0  0  0  0
   20.2518  -21.5522  -12.5165 N   0  0  0  0  0  0  0  0  0  0  0  0
   19.3226  -22.6506  -12.2620 C   0  0  1  0  0  0  0  0  0  0  0  0
   19.0023  -22.7042  -10.8054 C   0  0  0  0  0  0  0  0  0  0  0  0
   18.9023  -24.0813  -10.2355 C   0  0  0  0  0  0  0  0  0  0  0  0
   18.4458  -24.0157   -8.7731 C   0  0  0  0  0  0  0  0  0  0  0  0
   18.1754  -25.4150   -8.3024 C   0  0  0  0  0  0  0  0  0  0  0  0
   17.8181  -25.4548   -6.9050 N   0  0  0  0  0  0  0  0  0  0  0  0
   18.1598  -22.4715  -13.1457 C   0  0  0  0  0  0  0  0  0  0  0  0
   17.6893  -21.3409  -13.4468 O   0  0  0  0  0  0  0  0  0  0  0  0
   17.4993  -23.5790  -13.7122 O   0  0  0  0  0  0  0  0  0  0  0  0
  1  2  1  0
  3  2  1  0
  3  5  1  0
  4  3  2  0
  6  5  1  0
  7  9  1  0
  7  6  1  0
  8  7  2  0
 10  9  1  0
 10 16  1  0
 10 11  1  1
 12 11  1  0
 13 14  1  0
 13 12  1  0
 14 15  1  0
 16 17  2  0
 16 18  1  0
M  END
$$$$
