GGK.pdb
     RDKit          3D

 18 17  0  0  1  0  0  0  0  0999 V2000
   16.7943  -13.9478  -15.5793 N   0  0  0  0  0  0  0  0  0  0  0  0
   16.9289  -12.6125  -16.0765 C   0  0  0  0  0  0  0  0  0  0  0  0
   17.1809  -11.6407  -14.9758 C   0  0  0  0  0  0  0  0  0  0  0  0
   16.6675  -11.7679  -13.8383 O   0  0  0  0  0  0  0  0  0  0  0  0
   18.0328  -10.5421  -15.2438 N   0  0  0  0  0  0  0  0  0  0  0  0
   18.3687   -9.5994  -14.1774 C   0  0  0  0  0  0  0  0  0  0  0  0
   19.2531   -8.5445  -14.7427 C   0  0  0  0  0  0  0  0  0  0  0  0
   19.7998   -8.6560  -15.8816 O   0  0  0  0  0  0  0  0  0  0  0  0
   19.5203   -7.3560  -14.0139 N   0  0  0  0  0  0  0  0  0  0  0  0
   20.3580   -6.3021  -14.5813 C   0  0  1  0  0  0  0  0  0  0  0  0
   19.5157   -5.1100  -14.8923 C   0  0  0  0  0  0  0  0  0  0  0  0
   18.4411   -5.3475  -15.9022 C   0  0  0  0  0  0  0  0  0  0  0  0
   17.6184   -4.0700  -16.1082 C   0  0  0  0  0  0  0  0  0  0  0  0
   16.5814   -4.3435  -17.1583 C   0  0  0  0  0  0  0  0  0  0  0  0
   15.7570   -3.1878  -17.4167 N   0  0  0  0  0  0  0  0  0  0  0  0
   21.4641   -6.0514  -13.6439 C   0  0  0  0  0  0  0  0  0  0  0  0
   22.3952   -5.2336  -13.8778 O   0  0  0  0  0  0  0  0  0  0  0  0
   21.5399   -6.7275  -12.4107 O   0  0  0  0  0  0  0  0  0  0  0  0
  1  2  1  0
  3  2  1  0
  3  5  1  0
  4  3  2  0
  6  5  1  0
  7  9  1  0
  7  6  1  0
  8  7  2  0
 10  9  1  0
 10 16  1  0
 10 11  1  1
 12 11  1  0
 13 14  1  0
 13 12  1  0
 14 15  1  0
 16 17  2  0
 16 18  1  0
M  END
$$$$
