GGK.pdb
     RDKit          3D

 18 17  0  0  1  0  0  0  0  0999 V2000
   19.1415  -24.2691   -8.1206 N   0  0  0  0  0  0  0  0  0  0  0  0
   18.8792  -23.5671   -9.3399 C   0  0  0  0  0  0  0  0  0  0  0  0
   19.7771  -22.3889   -9.4979 C   0  0  0  0  0  0  0  0  0  0  0  0
   20.9145  -22.3372   -8.9714 O   0  0  0  0  0  0  0  0  0  0  0  0
   19.3112  -21.2999  -10.2735 N   0  0  0  0  0  0  0  0  0  0  0  0
   20.2153  -20.2002  -10.6082 C   0  0  0  0  0  0  0  0  0  0  0  0
   20.1727  -19.9870  -12.0804 C   0  0  0  0  0  0  0  0  0  0  0  0
   19.6136  -20.8080  -12.8690 O   0  0  0  0  0  0  0  0  0  0  0  0
   20.7668  -18.8371  -12.6633 N   0  0  0  0  0  0  0  0  0  0  0  0
   20.7081  -18.6138  -14.1059 C   0  0  1  0  0  0  0  0  0  0  0  0
   21.1082  -17.2082  -14.4087 C   0  0  0  0  0  0  0  0  0  0  0  0
   21.0694  -16.8431  -15.8565 C   0  0  0  0  0  0  0  0  0  0  0  0
   19.6247  -16.5746  -16.2949 C   0  0  0  0  0  0  0  0  0  0  0  0
   19.6291  -16.2676  -17.7641 C   0  0  0  0  0  0  0  0  0  0  0  0
   18.2926  -16.1477  -18.2944 N   0  0  0  0  0  0  0  0  0  0  0  0
   21.5313  -19.6457  -14.7559 C   0  0  0  0  0  0  0  0  0  0  0  0
   22.6305  -20.0484  -14.2870 O   0  0  0  0  0  0  0  0  0  0  0  0
   21.1233  -20.2490  -15.9615 O   0  0  0  0  0  0  0  0  0  0  0  0
  1  2  1  0
  3  2  1  0
  3  5  1  0
  4  3  2  0
  6  5  1  0
  7  9  1  0
  7  6  1  0
  8  7  2  0
 10  9  1  0
 10 16  1  0
 10 11  1  1
 12 11  1  0
 13 14  1  0
 13 12  1  0
 14 15  1  0
 16 17  2  0
 16 18  1  0
M  END
$$$$
