GGK.pdb
     RDKit          3D

 18 17  0  0  1  0  0  0  0  0999 V2000
   14.1222  -13.2078  -14.5435 N   0  0  0  0  0  0  0  0  0  0  0  0
   15.2009  -12.4070  -14.0497 C   0  0  0  0  0  0  0  0  0  0  0  0
   16.0979  -11.9571  -15.1507 C   0  0  0  0  0  0  0  0  0  0  0  0
   15.7745  -12.0491  -16.3592 O   0  0  0  0  0  0  0  0  0  0  0  0
   17.3553  -11.4095  -14.7991 N   0  0  0  0  0  0  0  0  0  0  0  0
   18.2371  -10.8760  -15.8367 C   0  0  0  0  0  0  0  0  0  0  0  0
   19.4764  -10.3696  -15.1869 C   0  0  0  0  0  0  0  0  0  0  0  0
   19.5749  -10.2292  -13.9303 O   0  0  0  0  0  0  0  0  0  0  0  0
   20.6112  -10.0200  -15.9647 N   0  0  0  0  0  0  0  0  0  0  0  0
   21.8642   -9.6254  -15.3256 C   0  0  1  0  0  0  0  0  0  0  0  0
   23.0022  -10.3348  -15.9807 C   0  0  0  0  0  0  0  0  0  0  0  0
   24.3463  -10.0300  -15.4048 C   0  0  0  0  0  0  0  0  0  0  0  0
   25.4344  -10.7902  -16.1726 C   0  0  0  0  0  0  0  0  0  0  0  0
   26.7341  -10.6143  -15.4427 C   0  0  0  0  0  0  0  0  0  0  0  0
   27.8034  -11.3638  -16.0564 N   0  0  0  0  0  0  0  0  0  0  0  0
   21.9463   -8.1567  -15.3625 C   0  0  0  0  0  0  0  0  0  0  0  0
   21.4961   -7.4639  -16.3152 O   0  0  0  0  0  0  0  0  0  0  0  0
   22.5455   -7.4350  -14.3118 O   0  0  0  0  0  0  0  0  0  0  0  0
  1  2  1  0
  3  2  1  0
  3  5  1  0
  4  3  2  0
  6  5  1  0
  7  9  1  0
  7  6  1  0
  8  7  2  0
 10  9  1  0
 10 16  1  0
 10 11  1  6
 12 11  1  0
 13 14  1  0
 13 12  1  0
 14 15  1  0
 16 17  2  0
 16 18  1  0
M  END
$$$$
