GGK.pdb
     RDKit          3D

 18 17  0  0  1  0  0  0  0  0999 V2000
   15.7045  -20.3205    1.9067 N   0  0  0  0  0  0  0  0  0  0  0  0
   16.2186  -20.4385    3.2372 C   0  0  0  0  0  0  0  0  0  0  0  0
   16.7613  -19.1424    3.7319 C   0  0  0  0  0  0  0  0  0  0  0  0
   16.6219  -18.0704    3.0956 O   0  0  0  0  0  0  0  0  0  0  0  0
   17.4556  -19.1424    4.9658 N   0  0  0  0  0  0  0  0  0  0  0  0
   17.9249  -17.8826    5.5415 C   0  0  0  0  0  0  0  0  0  0  0  0
   18.7272  -18.1900    6.7565 C   0  0  0  0  0  0  0  0  0  0  0  0
   18.8176  -19.3625    7.2312 O   0  0  0  0  0  0  0  0  0  0  0  0
   19.4317  -17.1633    7.4383 N   0  0  0  0  0  0  0  0  0  0  0  0
   20.1892  -17.4546    8.6530 C   0  0  1  0  0  0  0  0  0  0  0  0
   21.4010  -16.5849    8.7046 C   0  0  0  0  0  0  0  0  0  0  0  0
   22.2284  -16.7346    9.9391 C   0  0  0  0  0  0  0  0  0  0  0  0
   23.6712  -16.2940    9.6644 C   0  0  0  0  0  0  0  0  0  0  0  0
   24.4762  -16.5187   10.9111 C   0  0  0  0  0  0  0  0  0  0  0  0
   25.8623  -16.1608   10.7303 N   0  0  0  0  0  0  0  0  0  0  0  0
   19.2764  -17.3134    9.7985 C   0  0  0  0  0  0  0  0  0  0  0  0
   19.4836  -17.8572   10.9173 O   0  0  0  0  0  0  0  0  0  0  0  0
   18.0991  -16.5465    9.7003 O   0  0  0  0  0  0  0  0  0  0  0  0
  1  2  1  0
  3  2  1  0
  3  5  1  0
  4  3  2  0
  6  5  1  0
  7  9  1  0
  7  6  1  0
  8  7  2  0
 10  9  1  0
 10 16  1  0
 10 11  1  1
 12 11  1  0
 13 14  1  0
 13 12  1  0
 14 15  1  0
 16 17  2  0
 16 18  1  0
M  END
$$$$
