GGK.pdb
     RDKit          3D

 18 17  0  0  1  0  0  0  0  0999 V2000
   26.9093  -13.2338  -18.1362 N   0  0  0  0  0  0  0  0  0  0  0  0
   27.9243  -12.7918  -17.2291 C   0  0  0  0  0  0  0  0  0  0  0  0
   27.5953  -11.4618  -16.6444 C   0  0  0  0  0  0  0  0  0  0  0  0
   28.0688  -10.3932  -17.0999 O   0  0  0  0  0  0  0  0  0  0  0  0
   26.7153  -11.4246  -15.5359 N   0  0  0  0  0  0  0  0  0  0  0  0
   26.3137  -10.1403  -14.9631 C   0  0  0  0  0  0  0  0  0  0  0  0
   25.0285   -9.7267  -15.5889 C   0  0  0  0  0  0  0  0  0  0  0  0
   24.7520   -9.9784  -16.8007 O   0  0  0  0  0  0  0  0  0  0  0  0
   24.0503   -9.0237  -14.8379 N   0  0  0  0  0  0  0  0  0  0  0  0
   22.7727   -8.6478  -15.4386 C   0  0  1  0  0  0  0  0  0  0  0  0
   21.9781   -9.8774  -15.7285 C   0  0  0  0  0  0  0  0  0  0  0  0
   20.6216   -9.6269  -16.3016 C   0  0  0  0  0  0  0  0  0  0  0  0
   19.8818  -10.9543  -16.5070 C   0  0  0  0  0  0  0  0  0  0  0  0
   18.4934  -10.6484  -16.9880 C   0  0  0  0  0  0  0  0  0  0  0  0
   17.7356  -11.8486  -17.2477 N   0  0  0  0  0  0  0  0  0  0  0  0
   22.1176   -7.6847  -14.5396 C   0  0  0  0  0  0  0  0  0  0  0  0
   22.4137   -7.5679  -13.3193 O   0  0  0  0  0  0  0  0  0  0  0  0
   21.1043   -6.8257  -15.0077 O   0  0  0  0  0  0  0  0  0  0  0  0
  1  2  1  0
  3  2  1  0
  3  5  1  0
  4  3  2  0
  6  5  1  0
  7  9  1  0
  7  6  1  0
  8  7  2  0
 10  9  1  0
 10 16  1  0
 10 11  1  1
 12 11  1  0
 13 14  1  0
 13 12  1  0
 14 15  1  0
 16 17  2  0
 16 18  1  0
M  END
$$$$
