GGK.pdb
     RDKit          3D

 18 17  0  0  1  0  0  0  0  0999 V2000
   19.0294  -19.8094  -15.5716 N   0  0  0  0  0  0  0  0  0  0  0  0
   20.3727  -19.7409  -15.0823 C   0  0  0  0  0  0  0  0  0  0  0  0
   20.5961  -20.6944  -13.9596 C   0  0  0  0  0  0  0  0  0  0  0  0
   19.9076  -21.7328  -13.8146 O   0  0  0  0  0  0  0  0  0  0  0  0
   21.6268  -20.3994  -13.0349 N   0  0  0  0  0  0  0  0  0  0  0  0
   22.6495  -21.4008  -12.7349 C   0  0  0  0  0  0  0  0  0  0  0  0
   23.8806  -20.6964  -12.2846 C   0  0  0  0  0  0  0  0  0  0  0  0
   24.3309  -19.6704  -12.8786 O   0  0  0  0  0  0  0  0  0  0  0  0
   24.6063  -21.1567  -11.1547 N   0  0  0  0  0  0  0  0  0  0  0  0
   25.8247  -20.4777  -10.7201 C   0  0  1  0  0  0  0  0  0  0  0  0
   25.9204  -20.5314   -9.2317 C   0  0  0  0  0  0  0  0  0  0  0  0
   27.1255  -19.8624   -8.6562 C   0  0  0  0  0  0  0  0  0  0  0  0
   27.1411  -20.0233   -7.1313 C   0  0  0  0  0  0  0  0  0  0  0  0
   28.3651  -19.3366   -6.5992 C   0  0  0  0  0  0  0  0  0  0  0  0
   28.4672  -19.4506   -5.1644 N   0  0  0  0  0  0  0  0  0  0  0  0
   26.9585  -21.0836  -11.4359 C   0  0  0  0  0  0  0  0  0  0  0  0
   28.0791  -20.5181  -11.5583 O   0  0  0  0  0  0  0  0  0  0  0  0
   26.8463  -22.3540  -12.0336 O   0  0  0  0  0  0  0  0  0  0  0  0
  1  2  1  0
  3  2  1  0
  3  5  1  0
  4  3  2  0
  6  5  1  0
  7  9  1  0
  7  6  1  0
  8  7  2  0
 10  9  1  0
 10 16  1  0
 10 11  1  1
 12 11  1  0
 13 14  1  0
 13 12  1  0
 14 15  1  0
 16 17  2  0
 16 18  1  0
M  END
$$$$
