GGK.pdb
     RDKit          3D

 18 17  0  0  1  0  0  0  0  0999 V2000
   27.1154  -12.6843  -17.0877 N   0  0  0  0  0  0  0  0  0  0  0  0
   27.5820  -11.3357  -17.1971 C   0  0  0  0  0  0  0  0  0  0  0  0
   26.8257  -10.4196  -16.2982 C   0  0  0  0  0  0  0  0  0  0  0  0
   27.1524   -9.2195  -16.1350 O   0  0  0  0  0  0  0  0  0  0  0  0
   25.7018  -10.9416  -15.6135 N   0  0  0  0  0  0  0  0  0  0  0  0
   24.9614  -10.1001  -14.6741 C   0  0  0  0  0  0  0  0  0  0  0  0
   23.9390   -9.3319  -15.4349 C   0  0  0  0  0  0  0  0  0  0  0  0
   23.8084   -9.4363  -16.6920 O   0  0  0  0  0  0  0  0  0  0  0  0
   23.0587   -8.4399  -14.7681 N   0  0  0  0  0  0  0  0  0  0  0  0
   21.9618   -7.7946  -15.4855 C   0  0  1  0  0  0  0  0  0  0  0  0
   21.0792   -8.8369  -16.0871 C   0  0  0  0  0  0  0  0  0  0  0  0
   19.8933   -8.3056  -16.8237 C   0  0  0  0  0  0  0  0  0  0  0  0
   19.0749   -9.4618  -17.4108 C   0  0  0  0  0  0  0  0  0  0  0  0
   17.9320   -8.8797  -18.1904 C   0  0  0  0  0  0  0  0  0  0  0  0
   17.1622   -9.8987  -18.8619 N   0  0  0  0  0  0  0  0  0  0  0  0
   21.2896   -6.8778  -14.5513 C   0  0  0  0  0  0  0  0  0  0  0  0
   21.2965   -7.0392  -13.3006 O   0  0  0  0  0  0  0  0  0  0  0  0
   20.5890   -5.7485  -15.0180 O   0  0  0  0  0  0  0  0  0  0  0  0
  1  2  1  0
  3  2  1  0
  3  5  1  0
  4  3  2  0
  6  5  1  0
  7  9  1  0
  7  6  1  0
  8  7  2  0
 10  9  1  0
 10 16  1  0
 10 11  1  1
 12 11  1  0
 13 14  1  0
 13 12  1  0
 14 15  1  0
 16 17  2  0
 16 18  1  0
M  END
$$$$
