RAV.pdb
     RDKit          3D

 24 23  0  0  1  0  0  0  0  0999 V2000
    6.8579  -13.6495   14.5730 N   0  0  0  0  0  0  0  0  0  0  0  0
    8.1036  -14.3571   14.6144 C   0  0  0  0  0  0  0  0  0  0  0  0
    8.5830  -14.9028   13.5417 N   0  0  0  0  0  0  0  0  0  0  0  0
    8.8544  -14.4977   15.8123 N   0  0  0  0  0  0  0  0  0  0  0  0
    8.3124  -15.0508   17.0329 C   0  0  0  0  0  0  0  0  0  0  0  0
    7.4887  -14.0501   17.7887 C   0  0  0  0  0  0  0  0  0  0  0  0
    8.2262  -13.3338   18.8575 C   0  0  0  0  0  0  0  0  0  0  0  0
    9.0480  -14.1625   19.7808 C   0  0  2  0  0  0  0  0  0  0  0  0
    9.6365  -15.3410   19.2161 N   0  0  0  0  0  0  0  0  0  0  0  0
    8.4049  -14.5060   21.0650 C   0  0  0  0  0  0  0  0  0  0  0  0
    7.7012  -13.6199   21.6336 O   0  0  0  0  0  0  0  0  0  0  0  0
    9.5018  -15.3682   13.5388 C   0  0  0  0  0  0  0  0  0  0  0  0
    8.0952  -17.5467   23.3301 C   0  0  2  0  0  0  0  0  0  0  0  0
    7.9978  -16.1237   22.9322 N   0  0  0  0  0  0  0  0  0  0  0  0
    8.5632  -15.7873   21.6557 C   0  0  0  0  0  0  0  0  0  0  0  0
    8.5322  -15.2272   24.0146 O   0  0  0  0  0  0  0  0  0  0  0  0
    9.7544  -14.8942   24.0525 C   0  0  0  0  0  0  0  0  0  0  0  0
    5.9786  -13.1915   26.8776 C   0  0  2  0  0  0  0  0  0  0  0  0
    7.2804  -12.6837   26.3312 C   0  0  0  0  0  0  0  0  0  0  0  0
    7.8913  -11.6755   27.2633 C   0  0  1  0  0  0  0  0  0  0  0  0
    8.2445  -13.8454   26.1141 N   0  0  0  0  0  0  0  0  0  0  0  0
    7.7171  -14.6980   25.0500 C   0  0  0  0  0  0  0  0  0  0  0  0
    8.5759  -14.5557   27.3397 O   0  0  0  0  0  0  0  0  0  0  0  0
    9.4583  -14.0545   28.2928 O   0  0  0  0  0  0  0  0  0  0  0  0
  2  1  1  0
  2  3  2  0
  4  2  1  0
  5  4  1  0
  6  5  1  0
  7  6  1  0
  8 10  1  0
  8  7  1  0
  8  9  1  6
 10 11  2  0
 13 12  1  6
 14 10  1  0
 14 13  1  0
 15 21  1  0
 15 13  1  0
 16 15  2  0
 18 20  1  0
 18 17  1  6
 19 18  1  0
 20 22  1  0
 20 21  1  6
 22 23  1  0
 24 22  2  0
M  END
$$$$
