RAV.pdb
     RDKit          3D

 24 23  0  0  1  0  0  0  0  0999 V2000
    8.3576  -14.2520   15.8988 N   0  0  0  0  0  0  0  0  0  0  0  0
    7.6503  -13.4626   16.8636 C   0  0  0  0  0  0  0  0  0  0  0  0
    7.2309  -12.2756   16.5580 N   0  0  0  0  0  0  0  0  0  0  0  0
    7.3867  -13.9319   18.1784 N   0  0  0  0  0  0  0  0  0  0  0  0
    7.7693  -15.2443   18.6482 C   0  0  0  0  0  0  0  0  0  0  0  0
    8.1838  -15.2288   20.0901 C   0  0  0  0  0  0  0  0  0  0  0  0
    9.6014  -15.5971   20.3226 C   0  0  0  0  0  0  0  0  0  0  0  0
    9.8612  -16.7054   21.2810 C   0  0  2  0  0  0  0  0  0  0  0  0
    9.3551  -17.9935   20.9082 N   0  0  0  0  0  0  0  0  0  0  0  0
    9.4979  -16.4265   22.6849 C   0  0  0  0  0  0  0  0  0  0  0  0
    9.8500  -15.3158   23.1809 O   0  0  0  0  0  0  0  0  0  0  0  0
    6.7138  -11.6964   17.2348 C   0  0  0  0  0  0  0  0  0  0  0  0
    7.3699  -18.0510   25.3826 C   0  0  2  0  0  0  0  0  0  0  0  0
    8.3142  -17.0739   24.7941 N   0  0  0  0  0  0  0  0  0  0  0  0
    8.7762  -17.3668   23.4663 C   0  0  0  0  0  0  0  0  0  0  0  0
    9.4671  -16.8162   25.7243 O   0  0  0  0  0  0  0  0  0  0  0  0
   10.5906  -17.3774   25.5545 C   0  0  0  0  0  0  0  0  0  0  0  0
   10.2029  -13.3062   27.3556 C   0  0  2  0  0  0  0  0  0  0  0  0
   10.3293  -14.3597   28.4164 C   0  0  0  0  0  0  0  0  0  0  0  0
    9.1307  -14.3482   29.3229 C   0  0  2  0  0  0  0  0  0  0  0  0
   10.4836  -15.7336   27.7725 N   0  0  0  0  0  0  0  0  0  0  0  0
    9.3789  -15.9383   26.8369 C   0  0  0  0  0  0  0  0  0  0  0  0
   10.6541  -16.8071   28.7394 O   0  0  0  0  0  0  0  0  0  0  0  0
    9.6862  -17.7804   28.9718 O   0  0  0  0  0  0  0  0  0  0  0  0
  2  1  1  0
  2  3  2  0
  4  2  1  0
  5  4  1  0
  6  5  1  0
  7  6  1  0
  8 10  1  0
  8  7  1  0
  8  9  1  6
 10 11  2  0
 13 12  1  6
 14 10  1  0
 14 13  1  0
 15 21  1  0
 15 13  1  0
 16 15  2  0
 18 20  1  0
 18 17  1  1
 19 18  1  0
 20 22  1  0
 20 21  1  1
 22 23  1  0
 24 22  2  0
M  END
$$$$
