RAV.pdb
     RDKit          3D

 24 23  0  0  1  0  0  0  0  0999 V2000
    7.5687  -13.0915   18.8053 N   0  0  0  0  0  0  0  0  0  0  0  0
    8.0622  -13.6346   17.5741 C   0  0  0  0  0  0  0  0  0  0  0  0
    8.3097  -12.8573   16.5678 N   0  0  0  0  0  0  0  0  0  0  0  0
    8.2921  -15.0257   17.3991 N   0  0  0  0  0  0  0  0  0  0  0  0
    8.1105  -16.0022   18.4493 C   0  0  0  0  0  0  0  0  0  0  0  0
    8.8713  -15.6431   19.6915 C   0  0  0  0  0  0  0  0  0  0  0  0
    8.8612  -16.6925   20.7394 C   0  0  0  0  0  0  0  0  0  0  0  0
    7.8317  -16.5692   21.8067 C   0  0  2  0  0  0  0  0  0  0  0  0
    6.5387  -16.1152   21.3867 N   0  0  0  0  0  0  0  0  0  0  0  0
    8.2488  -15.8125   23.0042 C   0  0  0  0  0  0  0  0  0  0  0  0
    9.4736  -15.8350   23.3252 O   0  0  0  0  0  0  0  0  0  0  0  0
    8.6270  -13.2328   15.6626 C   0  0  0  0  0  0  0  0  0  0  0  0
    6.6135  -13.5960   25.6334 C   0  0  2  0  0  0  0  0  0  0  0  0
    7.6935  -14.3564   24.9640 N   0  0  0  0  0  0  0  0  0  0  0  0
    7.3149  -15.0782   23.7816 C   0  0  0  0  0  0  0  0  0  0  0  0
    8.4032  -15.2519   25.9414 O   0  0  0  0  0  0  0  0  0  0  0  0
    8.0900  -16.4737   26.0651 C   0  0  0  0  0  0  0  0  0  0  0  0
   12.2514  -14.6541   26.8856 C   0  0  2  0  0  0  0  0  0  0  0  0
   11.4713  -15.0185   28.1143 C   0  0  0  0  0  0  0  0  0  0  0  0
   11.2094  -13.8029   28.9581 C   0  0  2  0  0  0  0  0  0  0  0  0
   10.1520  -15.6744   27.7200 N   0  0  0  0  0  0  0  0  0  0  0  0
    9.4580  -14.7987   26.7770 C   0  0  0  0  0  0  0  0  0  0  0  0
    9.3469  -16.0806   28.8615 O   0  0  0  0  0  0  0  0  0  0  0  0
    9.6500  -17.1882   29.6487 O   0  0  0  0  0  0  0  0  0  0  0  0
  2  1  1  0
  2  3  2  0
  4  2  1  0
  5  4  1  0
  6  5  1  0
  7  6  1  0
  8 10  1  0
  8  7  1  0
  8  9  1  6
 10 11  2  0
 13 12  1  6
 14 10  1  0
 14 13  1  0
 15 21  1  0
 15 13  1  0
 16 15  2  0
 18 20  1  0
 18 17  1  1
 19 18  1  0
 20 22  1  0
 20 21  1  1
 22 23  1  0
 24 22  2  0
M  END
$$$$
