RAV.pdb
     RDKit          3D

 24 23  0  0  1  0  0  0  0  0999 V2000
    7.7865  -14.8619   16.3055 N   0  0  0  0  0  0  0  0  0  0  0  0
    7.6230  -13.8997   17.3552 C   0  0  0  0  0  0  0  0  0  0  0  0
    6.8855  -12.8504   17.1730 N   0  0  0  0  0  0  0  0  0  0  0  0
    8.2559  -14.0439   18.6189 N   0  0  0  0  0  0  0  0  0  0  0  0
    8.3181  -15.2943   19.3416 C   0  0  0  0  0  0  0  0  0  0  0  0
    9.5719  -16.0600   19.0374 C   0  0  0  0  0  0  0  0  0  0  0  0
   10.6198  -15.9567   20.0818 C   0  0  0  0  0  0  0  0  0  0  0  0
   10.5532  -16.9338   21.2022 C   0  0  2  0  0  0  0  0  0  0  0  0
   10.0486  -18.2349   20.8755 N   0  0  0  0  0  0  0  0  0  0  0  0
    9.8891  -16.4469   22.4280 C   0  0  0  0  0  0  0  0  0  0  0  0
   10.1381  -15.2656   22.8102 O   0  0  0  0  0  0  0  0  0  0  0  0
    6.7696  -12.1393   17.9091 C   0  0  0  0  0  0  0  0  0  0  0  0
    7.1779  -17.6393   24.8005 C   0  0  2  0  0  0  0  0  0  0  0  0
    8.3082  -16.8027   24.3368 N   0  0  0  0  0  0  0  0  0  0  0  0
    8.9965  -17.2684   23.1656 C   0  0  0  0  0  0  0  0  0  0  0  0
    9.2711  -16.5332   25.4597 O   0  0  0  0  0  0  0  0  0  0  0  0
   10.3357  -17.2078   25.5929 C   0  0  0  0  0  0  0  0  0  0  0  0
   10.6289  -13.7619   29.3364 C   0  0  2  0  0  0  0  0  0  0  0  0
    9.6013  -14.0441   28.2802 C   0  0  0  0  0  0  0  0  0  0  0  0
    9.6140  -12.9733   27.2260 C   0  0  1  0  0  0  0  0  0  0  0  0
    9.8654  -15.4053   27.6449 N   0  0  0  0  0  0  0  0  0  0  0  0
    9.0591  -15.5188   26.4305 C   0  0  0  0  0  0  0  0  0  0  0  0
    9.7072  -16.5145   28.5728 O   0  0  0  0  0  0  0  0  0  0  0  0
   10.7695  -17.0685   29.2820 O   0  0  0  0  0  0  0  0  0  0  0  0
  2  1  1  0
  2  3  2  0
  4  2  1  0
  5  4  1  0
  6  5  1  0
  7  6  1  0
  8 10  1  0
  8  7  1  0
  8  9  1  6
 10 11  2  0
 13 12  1  6
 14 10  1  0
 14 13  1  0
 15 21  1  0
 15 13  1  0
 16 15  2  0
 18 20  1  0
 18 17  1  1
 19 18  1  0
 20 22  1  0
 20 21  1  1
 22 23  1  0
 24 22  2  0
M  END
$$$$
