RAV.pdb
     RDKit          3D

 24 23  0  0  1  0  0  0  0  0999 V2000
    8.3431  -12.1078   18.5043 N   0  0  0  0  0  0  0  0  0  0  0  0
    8.3367  -13.3104   17.7246 C   0  0  0  0  0  0  0  0  0  0  0  0
    7.9747  -13.2830   16.4811 N   0  0  0  0  0  0  0  0  0  0  0  0
    8.7126  -14.5674   18.2697 N   0  0  0  0  0  0  0  0  0  0  0  0
    8.3902  -14.9810   19.6167 C   0  0  0  0  0  0  0  0  0  0  0  0
    6.9092  -15.0387   19.8500 C   0  0  0  0  0  0  0  0  0  0  0  0
    6.5222  -15.3926   21.2372 C   0  0  0  0  0  0  0  0  0  0  0  0
    6.7327  -16.8049   21.6561 C   0  0  2  0  0  0  0  0  0  0  0  0
    5.7489  -17.7479   21.2122 N   0  0  0  0  0  0  0  0  0  0  0  0
    6.9864  -17.0067   23.0968 C   0  0  0  0  0  0  0  0  0  0  0  0
    6.0649  -16.7042   23.9111 O   0  0  0  0  0  0  0  0  0  0  0  0
    8.0182  -14.1248   15.8890 C   0  0  0  0  0  0  0  0  0  0  0  0
    9.3351  -18.8234   25.3538 C   0  0  1  0  0  0  0  0  0  0  0  0
    8.5231  -17.6471   24.9670 N   0  0  0  0  0  0  0  0  0  0  0  0
    8.2220  -17.5231   23.5683 C   0  0  0  0  0  0  0  0  0  0  0  0
    9.1259  -16.3795   25.5058 O   0  0  0  0  0  0  0  0  0  0  0  0
   10.1089  -15.8206   24.9335 C   0  0  0  0  0  0  0  0  0  0  0  0
    8.7658  -12.2638   28.1084 C   0  0  2  0  0  0  0  0  0  0  0  0
    8.1649  -13.5082   27.5241 C   0  0  0  0  0  0  0  0  0  0  0  0
    7.3973  -13.1909   26.2717 C   0  0  1  0  0  0  0  0  0  0  0  0
    9.2607  -14.5249   27.2212 N   0  0  0  0  0  0  0  0  0  0  0  0
    8.6414  -15.7301   26.6719 C   0  0  0  0  0  0  0  0  0  0  0  0
   10.1470  -14.7695   28.3486 O   0  0  0  0  0  0  0  0  0  0  0  0
   11.1883  -13.9130   28.6955 O   0  0  0  0  0  0  0  0  0  0  0  0
  2  1  1  0
  2  3  2  0
  4  2  1  0
  5  4  1  0
  6  5  1  0
  7  6  1  0
  8 10  1  0
  8  7  1  0
  8  9  1  1
 10 11  2  0
 13 12  1  1
 14 10  1  0
 14 13  1  0
 15 21  1  0
 15 13  1  0
 16 15  2  0
 18 20  1  0
 18 17  1  1
 19 18  1  0
 20 22  1  0
 20 21  1  1
 22 23  1  0
 24 22  2  0
M  END
$$$$
