RAV.pdb
     RDKit          3D

 24 23  0  0  1  0  0  0  0  0999 V2000
    9.4121  -13.3243   15.7223 N   0  0  0  0  0  0  0  0  0  0  0  0
    8.0769  -13.6369   16.1394 C   0  0  0  0  0  0  0  0  0  0  0  0
    7.2666  -14.2510   15.3366 N   0  0  0  0  0  0  0  0  0  0  0  0
    7.5850  -13.2884   17.4259 N   0  0  0  0  0  0  0  0  0  0  0  0
    7.8276  -14.0769   18.6129 C   0  0  0  0  0  0  0  0  0  0  0  0
    8.2549  -15.4768   18.2828 C   0  0  0  0  0  0  0  0  0  0  0  0
    7.9520  -16.4733   19.3385 C   0  0  0  0  0  0  0  0  0  0  0  0
    8.8317  -16.4721   20.5387 C   0  0  2  0  0  0  0  0  0  0  0  0
    9.7684  -17.5526   20.6355 N   0  0  0  0  0  0  0  0  0  0  0  0
    8.1376  -16.3112   21.8321 C   0  0  0  0  0  0  0  0  0  0  0  0
    7.3965  -15.2961   21.9872 O   0  0  0  0  0  0  0  0  0  0  0  0
    6.2870  -14.4343   15.5966 C   0  0  0  0  0  0  0  0  0  0  0  0
    7.7748  -18.2360   25.0922 C   0  0  2  0  0  0  0  0  0  0  0  0
    7.6999  -17.0750   24.1761 N   0  0  0  0  0  0  0  0  0  0  0  0
    8.2883  -17.2583   22.8790 C   0  0  0  0  0  0  0  0  0  0  0  0
    8.2283  -15.8339   24.8401 O   0  0  0  0  0  0  0  0  0  0  0  0
    9.4670  -15.5662   24.8491 C   0  0  0  0  0  0  0  0  0  0  0  0
    7.2921  -11.4881   27.0700 C   0  0  2  0  0  0  0  0  0  0  0  0
    6.7677  -12.7483   26.4469 C   0  0  0  0  0  0  0  0  0  0  0  0
    6.0629  -12.4490   25.1538 C   0  0  1  0  0  0  0  0  0  0  0  0
    7.9125  -13.7262   26.2033 N   0  0  0  0  0  0  0  0  0  0  0  0
    7.3894  -14.8899   25.4894 C   0  0  0  0  0  0  0  0  0  0  0  0
    8.6591  -14.0508   27.4089 O   0  0  0  0  0  0  0  0  0  0  0  0
    9.7434  -13.3005   27.8556 O   0  0  0  0  0  0  0  0  0  0  0  0
  2  1  1  0
  2  3  2  0
  4  2  1  0
  5  4  1  0
  6  5  1  0
  7  6  1  0
  8 10  1  0
  8  7  1  0
  8  9  1  1
 10 11  2  0
 13 12  1  6
 14 10  1  0
 14 13  1  0
 15 21  1  0
 15 13  1  0
 16 15  2  0
 18 20  1  0
 18 17  1  1
 19 18  1  0
 20 22  1  0
 20 21  1  1
 22 23  1  0
 24 22  2  0
M  END
$$$$
