RAV.pdb
     RDKit          3D

 24 23  0  0  1  0  0  0  0  0999 V2000
   12.3141  -14.1527   18.2826 N   0  0  0  0  0  0  0  0  0  0  0  0
   11.9749  -15.4296   18.8383 C   0  0  0  0  0  0  0  0  0  0  0  0
   12.6632  -15.9206   19.8198 N   0  0  0  0  0  0  0  0  0  0  0  0
   10.8930  -16.2066   18.3440 N   0  0  0  0  0  0  0  0  0  0  0  0
    9.9283  -15.7129   17.3874 C   0  0  0  0  0  0  0  0  0  0  0  0
    9.8397  -14.2152   17.3971 C   0  0  0  0  0  0  0  0  0  0  0  0
    8.5015  -13.6844   17.7535 C   0  0  0  0  0  0  0  0  0  0  0  0
    8.3102  -13.2258   19.1562 C   0  0  2  0  0  0  0  0  0  0  0  0
    9.3971  -12.4915   19.7337 N   0  0  0  0  0  0  0  0  0  0  0  0
    7.8640  -14.2643   20.1064 C   0  0  0  0  0  0  0  0  0  0  0  0
    7.1481  -15.2094   19.6616 O   0  0  0  0  0  0  0  0  0  0  0  0
   12.4861  -16.8692   20.1802 C   0  0  0  0  0  0  0  0  0  0  0  0
    8.0180  -16.6150   22.0496 C   0  0  1  0  0  0  0  0  0  0  0  0
    7.7789  -15.2029   22.4261 N   0  0  0  0  0  0  0  0  0  0  0  0
    8.2196  -14.2165   21.4801 C   0  0  0  0  0  0  0  0  0  0  0  0
    8.3193  -14.9159   23.7995 O   0  0  0  0  0  0  0  0  0  0  0  0
    9.5660  -14.8789   24.0240 C   0  0  0  0  0  0  0  0  0  0  0  0
    7.4301  -12.2082   27.7550 C   0  0  2  0  0  0  0  0  0  0  0  0
    6.9264  -12.9741   26.5673 C   0  0  0  0  0  0  0  0  0  0  0  0
    6.6161  -12.0449   25.4277 C   0  0  1  0  0  0  0  0  0  0  0  0
    7.9630  -14.0051   26.1327 N   0  0  0  0  0  0  0  0  0  0  0  0
    7.4839  -14.6675   24.9206 C   0  0  0  0  0  0  0  0  0  0  0  0
    8.3505  -14.9166   27.1982 O   0  0  0  0  0  0  0  0  0  0  0  0
    9.3319  -14.6129   28.1377 O   0  0  0  0  0  0  0  0  0  0  0  0
  2  1  1  0
  2  3  2  0
  4  2  1  0
  5  4  1  0
  6  5  1  0
  7  6  1  0
  8 10  1  0
  8  7  1  0
  8  9  1  1
 10 11  2  0
 13 12  1  6
 14 10  1  0
 14 13  1  0
 15 21  1  0
 15 13  1  0
 16 15  2  0
 18 20  1  0
 18 17  1  1
 19 18  1  0
 20 22  1  0
 20 21  1  1
 22 23  1  0
 24 22  2  0
M  END
$$$$
