RAV.pdb
     RDKit          3D

 24 23  0  0  1  0  0  0  0  0999 V2000
    9.7081  -14.2557   19.7159 N   0  0  0  0  0  0  0  0  0  0  0  0
    9.0290  -13.1944   19.0327 C   0  0  0  0  0  0  0  0  0  0  0  0
    9.7027  -12.2726   18.4206 N   0  0  0  0  0  0  0  0  0  0  0  0
    7.6118  -13.1000   19.0008 N   0  0  0  0  0  0  0  0  0  0  0  0
    6.7349  -14.0415   19.6597 C   0  0  0  0  0  0  0  0  0  0  0  0
    7.0819  -15.4630   19.3283 C   0  0  0  0  0  0  0  0  0  0  0  0
    7.6432  -16.2357   20.4629 C   0  0  0  0  0  0  0  0  0  0  0  0
    6.7765  -17.2911   21.0539 C   0  0  2  0  0  0  0  0  0  0  0  0
    5.5038  -17.4877   20.4247 N   0  0  0  0  0  0  0  0  0  0  0  0
    6.5901  -17.2114   22.5166 C   0  0  0  0  0  0  0  0  0  0  0  0
    5.5473  -16.6408   22.9531 O   0  0  0  0  0  0  0  0  0  0  0  0
    9.2329  -11.5166   17.9023 C   0  0  0  0  0  0  0  0  0  0  0  0
    7.9154  -18.7313   25.6591 C   0  0  1  0  0  0  0  0  0  0  0  0
    7.4400  -17.5924   24.8408 N   0  0  0  0  0  0  0  0  0  0  0  0
    7.5440  -17.7538   23.4176 C   0  0  0  0  0  0  0  0  0  0  0  0
    8.0797  -16.3074   25.2884 O   0  0  0  0  0  0  0  0  0  0  0  0
    9.1887  -15.9210   24.8121 C   0  0  0  0  0  0  0  0  0  0  0  0
    5.9637  -13.4577   27.6428 C   0  0  2  0  0  0  0  0  0  0  0  0
    7.0910  -13.1023   26.7186 C   0  0  0  0  0  0  0  0  0  0  0  0
    7.7283  -11.8054   27.1310 C   0  0  1  0  0  0  0  0  0  0  0  0
    8.1322  -14.2168   26.7121 N   0  0  0  0  0  0  0  0  0  0  0  0
    7.4934  -15.4508   26.2574 C   0  0  0  0  0  0  0  0  0  0  0  0
    8.8478  -14.3438   27.9723 O   0  0  0  0  0  0  0  0  0  0  0  0
    9.8548  -13.4665   28.3653 O   0  0  0  0  0  0  0  0  0  0  0  0
  2  1  1  0
  2  3  2  0
  4  2  1  0
  5  4  1  0
  6  5  1  0
  7  6  1  0
  8 10  1  0
  8  7  1  0
  8  9  1  6
 10 11  2  0
 13 12  1  6
 14 10  1  0
 14 13  1  0
 15 21  1  0
 15 13  1  0
 16 15  2  0
 18 20  1  0
 18 17  1  6
 19 18  1  0
 20 22  1  0
 20 21  1  6
 22 23  1  0
 24 22  2  0
M  END
$$$$
