RAV.pdb
     RDKit          3D

 24 23  0  0  1  0  0  0  0  0999 V2000
    7.3002  -13.3921   17.2996 N   0  0  0  0  0  0  0  0  0  0  0  0
    7.9394  -12.8368   18.4561 C   0  0  0  0  0  0  0  0  0  0  0  0
    7.7114  -11.6102   18.8050 N   0  0  0  0  0  0  0  0  0  0  0  0
    8.8421  -13.5881   19.2555 N   0  0  0  0  0  0  0  0  0  0  0  0
    9.1082  -14.9941   19.0509 C   0  0  0  0  0  0  0  0  0  0  0  0
    8.0251  -15.8621   19.6206 C   0  0  0  0  0  0  0  0  0  0  0  0
    7.8849  -15.7764   21.0945 C   0  0  0  0  0  0  0  0  0  0  0  0
    8.4099  -16.9198   21.8890 C   0  0  2  0  0  0  0  0  0  0  0  0
    7.9607  -18.2221   21.4933 N   0  0  0  0  0  0  0  0  0  0  0  0
    8.2823  -16.7843   23.3539 C   0  0  0  0  0  0  0  0  0  0  0  0
    8.5359  -15.6566   23.8713 O   0  0  0  0  0  0  0  0  0  0  0  0
    8.2037  -11.1758   19.5987 C   0  0  0  0  0  0  0  0  0  0  0  0
    7.0855  -18.9211   26.2635 C   0  0  2  0  0  0  0  0  0  0  0  0
    7.6907  -17.7514   25.5864 N   0  0  0  0  0  0  0  0  0  0  0  0
    7.8885  -17.8776   24.1696 C   0  0  0  0  0  0  0  0  0  0  0  0
    8.9594  -17.3311   26.2752 O   0  0  0  0  0  0  0  0  0  0  0  0
   10.0878  -17.7783   25.9110 C   0  0  0  0  0  0  0  0  0  0  0  0
    9.4523  -13.6633   27.4657 C   0  0  2  0  0  0  0  0  0  0  0  0
   10.0014  -14.5563   28.5391 C   0  0  0  0  0  0  0  0  0  0  0  0
    9.0707  -14.6055   29.7179 C   0  0  2  0  0  0  0  0  0  0  0  0
   10.2206  -15.9615   27.9880 N   0  0  0  0  0  0  0  0  0  0  0  0
    8.9806  -16.4166   27.3614 C   0  0  0  0  0  0  0  0  0  0  0  0
   10.7686  -16.8858   28.9687 O   0  0  0  0  0  0  0  0  0  0  0  0
   12.1036  -16.8705   29.3633 O   0  0  0  0  0  0  0  0  0  0  0  0
  2  1  1  0
  2  3  2  0
  4  2  1  0
  5  4  1  0
  6  5  1  0
  7  6  1  0
  8 10  1  0
  8  7  1  0
  8  9  1  6
 10 11  2  0
 13 12  1  6
 14 10  1  0
 14 13  1  0
 15 21  1  0
 15 13  1  0
 16 15  2  0
 18 20  1  0
 18 17  1  1
 19 18  1  0
 20 22  1  0
 20 21  1  1
 22 23  1  0
 24 22  2  0
M  END
$$$$
