RAV.pdb
     RDKit          3D

 24 23  0  0  1  0  0  0  0  0999 V2000
    7.7314  -11.9163   19.2932 N   0  0  0  0  0  0  0  0  0  0  0  0
    7.7319  -13.1304   18.5315 C   0  0  0  0  0  0  0  0  0  0  0  0
    7.0329  -13.2222   17.4447 N   0  0  0  0  0  0  0  0  0  0  0  0
    8.4788  -14.2721   18.9281 N   0  0  0  0  0  0  0  0  0  0  0  0
    8.6039  -14.7055   20.3014 C   0  0  0  0  0  0  0  0  0  0  0  0
    7.3229  -15.2795   20.8309 C   0  0  0  0  0  0  0  0  0  0  0  0
    7.4189  -15.8212   22.2081 C   0  0  0  0  0  0  0  0  0  0  0  0
    8.7692  -15.8373   22.8333 C   0  0  2  0  0  0  0  0  0  0  0  0
    9.8743  -16.0383   21.9430 N   0  0  0  0  0  0  0  0  0  0  0  0
    8.9154  -16.7291   24.0011 C   0  0  0  0  0  0  0  0  0  0  0  0
    7.9815  -16.7473   24.8562 O   0  0  0  0  0  0  0  0  0  0  0  0
    7.0475  -14.0737   16.8653 C   0  0  0  0  0  0  0  0  0  0  0  0
   11.0800  -19.6456   24.9959 C   0  0  2  0  0  0  0  0  0  0  0  0
   10.1832  -18.4939   25.2450 N   0  0  0  0  0  0  0  0  0  0  0  0
   10.0637  -17.5463   24.1726 C   0  0  0  0  0  0  0  0  0  0  0  0
   10.5370  -17.8091   26.5361 O   0  0  0  0  0  0  0  0  0  0  0  0
   10.9267  -18.4666   27.5470 C   0  0  0  0  0  0  0  0  0  0  0  0
   10.3585  -13.6907   29.2982 C   0  0  2  0  0  0  0  0  0  0  0  0
    9.9413  -14.4758   28.0896 C   0  0  0  0  0  0  0  0  0  0  0  0
   10.0793  -13.6474   26.8435 C   0  0  1  0  0  0  0  0  0  0  0  0
   10.7852  -15.7408   27.9717 N   0  0  0  0  0  0  0  0  0  0  0  0
   10.4632  -16.4015   26.7077 C   0  0  0  0  0  0  0  0  0  0  0  0
   10.6932  -16.6054   29.1380 O   0  0  0  0  0  0  0  0  0  0  0  0
    9.7314  -17.6034   29.2693 O   0  0  0  0  0  0  0  0  0  0  0  0
  2  1  1  0
  2  3  2  0
  4  2  1  0
  5  4  1  0
  6  5  1  0
  7  6  1  0
  8 10  1  0
  8  7  1  0
  8  9  1  6
 10 11  2  0
 13 12  1  6
 14 10  1  0
 14 13  1  0
 15 21  1  0
 15 13  1  0
 16 15  2  0
 18 20  1  0
 18 17  1  1
 19 18  1  0
 20 22  1  0
 20 21  1  1
 22 23  1  0
 24 22  2  0
M  END
$$$$
