RAV.pdb
     RDKit          3D

 24 23  0  0  1  0  0  0  0  0999 V2000
    8.2745  -16.0241   16.0140 N   0  0  0  0  0  0  0  0  0  0  0  0
    8.4042  -14.7120   15.4519 C   0  0  0  0  0  0  0  0  0  0  0  0
    8.5750  -14.5595   14.1769 N   0  0  0  0  0  0  0  0  0  0  0  0
    8.3600  -13.5386   16.2517 N   0  0  0  0  0  0  0  0  0  0  0  0
    8.4708  -13.5512   17.6929 C   0  0  0  0  0  0  0  0  0  0  0  0
    7.1280  -13.5763   18.3618 C   0  0  0  0  0  0  0  0  0  0  0  0
    7.1836  -13.6026   19.8436 C   0  0  0  0  0  0  0  0  0  0  0  0
    8.1240  -14.5738   20.4655 C   0  0  2  0  0  0  0  0  0  0  0  0
    8.3332  -15.7971   19.7485 N   0  0  0  0  0  0  0  0  0  0  0  0
    7.8693  -14.8796   21.8876 C   0  0  0  0  0  0  0  0  0  0  0  0
    7.3031  -13.9943   22.5942 O   0  0  0  0  0  0  0  0  0  0  0  0
    8.7362  -13.6303   13.7625 C   0  0  0  0  0  0  0  0  0  0  0  0
    8.2915  -17.8472   24.2326 C   0  0  2  0  0  0  0  0  0  0  0  0
    7.9658  -16.4609   23.8265 N   0  0  0  0  0  0  0  0  0  0  0  0
    8.2433  -16.1247   22.4582 C   0  0  0  0  0  0  0  0  0  0  0  0
    8.5901  -15.4668   24.7660 O   0  0  0  0  0  0  0  0  0  0  0  0
    9.8181  -15.1639   24.6860 C   0  0  0  0  0  0  0  0  0  0  0  0
    7.3862  -12.0021   25.4709 C   0  0  2  0  0  0  0  0  0  0  0  0
    7.5677  -12.6303   26.8212 C   0  0  0  0  0  0  0  0  0  0  0  0
    6.2411  -13.0228   27.4080 C   0  0  2  0  0  0  0  0  0  0  0  0
    8.4721  -13.8534   26.7111 N   0  0  0  0  0  0  0  0  0  0  0  0
    7.8583  -14.8073   25.7886 C   0  0  0  0  0  0  0  0  0  0  0  0
    8.8355  -14.4192   28.0011 O   0  0  0  0  0  0  0  0  0  0  0  0
    9.7188  -13.7990   28.8805 O   0  0  0  0  0  0  0  0  0  0  0  0
  2  1  1  0
  2  3  2  0
  4  2  1  0
  5  4  1  0
  6  5  1  0
  7  6  1  0
  8 10  1  0
  8  7  1  0
  8  9  1  6
 10 11  2  0
 13 12  1  6
 14 10  1  0
 14 13  1  0
 15 21  1  0
 15 13  1  0
 16 15  2  0
 18 20  1  0
 18 17  1  1
 19 18  1  0
 20 22  1  0
 20 21  1  1
 22 23  1  0
 24 22  2  0
M  END
$$$$
