RAV.pdb
     RDKit          3D

 24 23  0  0  1  0  0  0  0  0999 V2000
    8.8761  -13.6637   16.5990 N   0  0  0  0  0  0  0  0  0  0  0  0
    9.7171  -13.4280   17.7355 C   0  0  0  0  0  0  0  0  0  0  0  0
   10.9671  -13.7669   17.7070 N   0  0  0  0  0  0  0  0  0  0  0  0
    9.2278  -12.8299   18.9276 N   0  0  0  0  0  0  0  0  0  0  0  0
    7.8238  -12.7520   19.2626 C   0  0  0  0  0  0  0  0  0  0  0  0
    7.1479  -14.0886   19.1756 C   0  0  0  0  0  0  0  0  0  0  0  0
    7.1017  -14.8347   20.4564 C   0  0  0  0  0  0  0  0  0  0  0  0
    8.0217  -14.3809   21.5344 C   0  0  2  0  0  0  0  0  0  0  0  0
    9.3204  -13.9448   21.1132 N   0  0  0  0  0  0  0  0  0  0  0  0
    8.1647  -15.3067   22.6759 C   0  0  0  0  0  0  0  0  0  0  0  0
    7.1100  -15.7243   23.2388 O   0  0  0  0  0  0  0  0  0  0  0  0
   11.5729  -13.6603   18.5332 C   0  0  0  0  0  0  0  0  0  0  0  0
   10.6826  -17.6022   24.1615 C   0  0  1  0  0  0  0  0  0  0  0  0
    9.6046  -16.5929   24.2702 N   0  0  0  0  0  0  0  0  0  0  0  0
    9.4405  -15.7235   23.1390 C   0  0  0  0  0  0  0  0  0  0  0  0
    9.7348  -15.8052   25.5443 O   0  0  0  0  0  0  0  0  0  0  0  0
   10.6799  -16.0215   26.3606 C   0  0  0  0  0  0  0  0  0  0  0  0
    7.8905  -12.1295   25.9434 C   0  0  2  0  0  0  0  0  0  0  0  0
    7.8541  -12.9598   27.1925 C   0  0  0  0  0  0  0  0  0  0  0  0
    6.5147  -13.6222   27.3521 C   0  0  2  0  0  0  0  0  0  0  0  0
    8.9560  -14.0136   27.1517 N   0  0  0  0  0  0  0  0  0  0  0  0
    8.8248  -14.7795   25.9132 C   0  0  0  0  0  0  0  0  0  0  0  0
    9.0180  -14.8291   28.3547 O   0  0  0  0  0  0  0  0  0  0  0  0
    9.6299  -14.4028   29.5303 O   0  0  0  0  0  0  0  0  0  0  0  0
  2  1  1  0
  2  3  2  0
  4  2  1  0
  5  4  1  0
  6  5  1  0
  7  6  1  0
  8 10  1  0
  8  7  1  0
  8  9  1  6
 10 11  2  0
 13 12  1  6
 14 10  1  0
 14 13  1  0
 15 21  1  0
 15 13  1  0
 16 15  2  0
 18 20  1  0
 18 17  1  1
 19 18  1  0
 20 22  1  0
 20 21  1  1
 22 23  1  0
 24 22  2  0
M  END
$$$$
