RAV.pdb
     RDKit          3D

 24 23  0  0  1  0  0  0  0  0999 V2000
    9.3035  -21.6097   21.7097 N   0  0  0  0  0  0  0  0  0  0  0  0
    9.4552  -21.4754   20.2908 C   0  0  0  0  0  0  0  0  0  0  0  0
   10.2343  -22.2772   19.6365 N   0  0  0  0  0  0  0  0  0  0  0  0
    8.7772  -20.4710   19.5491 N   0  0  0  0  0  0  0  0  0  0  0  0
    7.9773  -19.4327   20.1588 C   0  0  0  0  0  0  0  0  0  0  0  0
    8.8041  -18.5022   20.9965 C   0  0  0  0  0  0  0  0  0  0  0  0
    8.0431  -17.3780   21.5936 C   0  0  0  0  0  0  0  0  0  0  0  0
    8.6577  -16.0257   21.5047 C   0  0  2  0  0  0  0  0  0  0  0  0
    9.8947  -15.9410   20.7857 N   0  0  0  0  0  0  0  0  0  0  0  0
    8.7885  -15.3044   22.7866 C   0  0  0  0  0  0  0  0  0  0  0  0
    9.9521  -14.9947   23.1789 O   0  0  0  0  0  0  0  0  0  0  0  0
   10.3161  -22.2307   18.6107 C   0  0  0  0  0  0  0  0  0  0  0  0
    6.4748  -13.8132   25.4128 C   0  0  1  0  0  0  0  0  0  0  0  0
    7.7543  -14.2485   24.8077 N   0  0  0  0  0  0  0  0  0  0  0  0
    7.6520  -14.9626   23.5659 C   0  0  0  0  0  0  0  0  0  0  0  0
    8.5862  -15.0089   25.8029 O   0  0  0  0  0  0  0  0  0  0  0  0
    8.8316  -16.2431   25.6524 C   0  0  0  0  0  0  0  0  0  0  0  0
   11.4104  -14.8555   29.9174 C   0  0  2  0  0  0  0  0  0  0  0  0
   10.4032  -14.1916   29.0252 C   0  0  0  0  0  0  0  0  0  0  0  0
   10.9512  -12.9086   28.4669 C   0  0  1  0  0  0  0  0  0  0  0  0
   10.0127  -15.1308   27.8887 N   0  0  0  0  0  0  0  0  0  0  0  0
    9.1477  -14.4058   26.9594 C   0  0  0  0  0  0  0  0  0  0  0  0
    9.4650  -16.3970   28.3503 O   0  0  0  0  0  0  0  0  0  0  0  0
   10.2547  -17.5090   28.6298 O   0  0  0  0  0  0  0  0  0  0  0  0
  2  1  1  0
  2  3  2  0
  4  2  1  0
  5  4  1  0
  6  5  1  0
  7  6  1  0
  8 10  1  0
  8  7  1  0
  8  9  1  1
 10 11  2  0
 13 12  1  6
 14 10  1  0
 14 13  1  0
 15 21  1  0
 15 13  1  0
 16 15  2  0
 18 20  1  0
 18 17  1  1
 19 18  1  0
 20 22  1  0
 20 21  1  1
 22 23  1  0
 24 22  2  0
M  END
$$$$
