RAV.pdb
     RDKit          3D

 24 23  0  0  1  0  0  0  0  0999 V2000
    9.0165  -21.4641   17.5492 N   0  0  0  0  0  0  0  0  0  0  0  0
    7.8324  -20.6675   17.4157 C   0  0  0  0  0  0  0  0  0  0  0  0
    6.6976  -21.2235   17.1307 N   0  0  0  0  0  0  0  0  0  0  0  0
    7.8475  -19.2563   17.5789 N   0  0  0  0  0  0  0  0  0  0  0  0
    9.0615  -18.4752   17.6537 C   0  0  0  0  0  0  0  0  0  0  0  0
    9.9831  -18.9665   18.7308 C   0  0  0  0  0  0  0  0  0  0  0  0
   10.5741  -17.8932   19.5663 C   0  0  0  0  0  0  0  0  0  0  0  0
    9.8834  -17.5778   20.8461 C   0  0  2  0  0  0  0  0  0  0  0  0
    8.7051  -18.3421   21.1320 N   0  0  0  0  0  0  0  0  0  0  0  0
    9.6047  -16.1465   21.0790 C   0  0  0  0  0  0  0  0  0  0  0  0
   10.5743  -15.3342   21.0187 O   0  0  0  0  0  0  0  0  0  0  0  0
    5.8346  -20.6689   17.0374 C   0  0  0  0  0  0  0  0  0  0  0  0
    6.6465  -13.8450   21.5399 C   0  0  2  0  0  0  0  0  0  0  0  0
    8.0255  -14.3316   21.7729 N   0  0  0  0  0  0  0  0  0  0  0  0
    8.2936  -15.6817   21.3634 C   0  0  0  0  0  0  0  0  0  0  0  0
    8.4387  -14.1064   23.2009 O   0  0  0  0  0  0  0  0  0  0  0  0
    9.5668  -13.6069   23.4908 C   0  0  0  0  0  0  0  0  0  0  0  0
    7.0855  -12.6908   27.5911 C   0  0  2  0  0  0  0  0  0  0  0  0
    6.7927  -13.1314   26.1871 C   0  0  0  0  0  0  0  0  0  0  0  0
    6.6263  -11.9443   25.2808 C   0  0  1  0  0  0  0  0  0  0  0  0
    7.9171  -14.0256   25.6751 N   0  0  0  0  0  0  0  0  0  0  0  0
    7.6061  -14.4295   24.3048 C   0  0  0  0  0  0  0  0  0  0  0  0
    8.2257  -15.1316   26.5684 O   0  0  0  0  0  0  0  0  0  0  0  0
    9.2170  -15.0660   27.5436 O   0  0  0  0  0  0  0  0  0  0  0  0
  2  1  1  0
  2  3  2  0
  4  2  1  0
  5  4  1  0
  6  5  1  0
  7  6  1  0
  8 10  1  0
  8  7  1  0
  8  9  1  6
 10 11  2  0
 13 12  1  6
 14 10  1  0
 14 13  1  0
 15 21  1  0
 15 13  1  0
 16 15  2  0
 18 20  1  0
 18 17  1  1
 19 18  1  0
 20 22  1  0
 20 21  1  1
 22 23  1  0
 24 22  2  0
M  END
$$$$
