RAV.pdb
     RDKit          3D

 24 23  0  0  1  0  0  0  0  0999 V2000
    8.6195  -15.9254   16.3306 N   0  0  0  0  0  0  0  0  0  0  0  0
    8.4832  -14.5459   15.9661 C   0  0  0  0  0  0  0  0  0  0  0  0
    8.3617  -14.2060   14.7219 N   0  0  0  0  0  0  0  0  0  0  0  0
    8.4822  -13.5045   16.9325 N   0  0  0  0  0  0  0  0  0  0  0  0
    8.6572  -13.7314   18.3494 C   0  0  0  0  0  0  0  0  0  0  0  0
    7.3787  -13.5467   19.1125 C   0  0  0  0  0  0  0  0  0  0  0  0
    7.4266  -14.0337   20.5124 C   0  0  0  0  0  0  0  0  0  0  0  0
    7.5808  -15.5004   20.7108 C   0  0  2  0  0  0  0  0  0  0  0  0
    6.6140  -16.3308   20.0552 N   0  0  0  0  0  0  0  0  0  0  0  0
    7.7276  -15.9374   22.1137 C   0  0  0  0  0  0  0  0  0  0  0  0
    6.7467  -15.7653   22.8960 O   0  0  0  0  0  0  0  0  0  0  0  0
    8.2902  -13.2184   14.4381 C   0  0  0  0  0  0  0  0  0  0  0  0
   10.1085  -17.9850   24.2017 C   0  0  1  0  0  0  0  0  0  0  0  0
    9.1107  -16.9188   23.9557 N   0  0  0  0  0  0  0  0  0  0  0  0
    8.9270  -16.5335   22.5845 C   0  0  0  0  0  0  0  0  0  0  0  0
    9.3819  -15.7211   24.8233 O   0  0  0  0  0  0  0  0  0  0  0  0
   10.3373  -14.9270   24.5728 C   0  0  0  0  0  0  0  0  0  0  0  0
    7.8798  -12.2381   27.8540 C   0  0  2  0  0  0  0  0  0  0  0  0
    7.6104  -13.4384   26.9950 C   0  0  0  0  0  0  0  0  0  0  0  0
    7.0838  -13.0228   25.6503 C   0  0  1  0  0  0  0  0  0  0  0  0
    8.8863  -14.2566   26.8258 N   0  0  0  0  0  0  0  0  0  0  0  0
    8.5971  -15.4006   25.9625 C   0  0  0  0  0  0  0  0  0  0  0  0
    9.5182  -14.6061   28.0887 O   0  0  0  0  0  0  0  0  0  0  0  0
   10.3195  -13.7226   28.8068 O   0  0  0  0  0  0  0  0  0  0  0  0
  2  1  1  0
  2  3  2  0
  4  2  1  0
  5  4  1  0
  6  5  1  0
  7  6  1  0
  8 10  1  0
  8  7  1  0
  8  9  1  1
 10 11  2  0
 13 12  1  6
 14 10  1  0
 14 13  1  0
 15 21  1  0
 15 13  1  0
 16 15  2  0
 18 20  1  0
 18 17  1  1
 19 18  1  0
 20 22  1  0
 20 21  1  1
 22 23  1  0
 24 22  2  0
M  END
$$$$
