RAV.pdb
     RDKit          3D

 24 23  0  0  1  0  0  0  0  0999 V2000
    7.5245  -14.6448   15.4160 N   0  0  0  0  0  0  0  0  0  0  0  0
    8.8027  -14.6416   16.0643 C   0  0  0  0  0  0  0  0  0  0  0  0
    9.7083  -15.5060   15.7314 N   0  0  0  0  0  0  0  0  0  0  0  0
    9.1291  -13.7129   17.0888 N   0  0  0  0  0  0  0  0  0  0  0  0
    8.1394  -12.9793   17.8449 C   0  0  0  0  0  0  0  0  0  0  0  0
    7.2713  -13.8858   18.6669 C   0  0  0  0  0  0  0  0  0  0  0  0
    7.5847  -13.8831   20.1165 C   0  0  0  0  0  0  0  0  0  0  0  0
    8.0902  -15.1557   20.6990 C   0  0  2  0  0  0  0  0  0  0  0  0
    7.6670  -16.3599   20.0470 N   0  0  0  0  0  0  0  0  0  0  0  0
    7.9080  -15.3008   22.1572 C   0  0  0  0  0  0  0  0  0  0  0  0
    8.2848  -14.3481   22.9014 O   0  0  0  0  0  0  0  0  0  0  0  0
   10.6398  -15.5064   16.1710 C   0  0  0  0  0  0  0  0  0  0  0  0
    7.4471  -18.0545   24.6153 C   0  0  1  0  0  0  0  0  0  0  0  0
    7.2247  -16.6701   24.1389 N   0  0  0  0  0  0  0  0  0  0  0  0
    7.3295  -16.4684   22.7209 C   0  0  0  0  0  0  0  0  0  0  0  0
    8.0932  -15.6993   24.8899 O   0  0  0  0  0  0  0  0  0  0  0  0
    9.3315  -15.5928   24.6420 C   0  0  0  0  0  0  0  0  0  0  0  0
    7.3062  -12.0094   25.4988 C   0  0  2  0  0  0  0  0  0  0  0  0
    7.6620  -12.6022   26.8304 C   0  0  0  0  0  0  0  0  0  0  0  0
    6.4259  -12.8619   27.6444 C   0  0  2  0  0  0  0  0  0  0  0  0
    8.4396  -13.8995   26.6337 N   0  0  0  0  0  0  0  0  0  0  0  0
    7.5934  -14.8466   25.9094 C   0  0  0  0  0  0  0  0  0  0  0  0
    9.0045  -14.4251   27.8669 O   0  0  0  0  0  0  0  0  0  0  0  0
   10.0308  -13.7917   28.5624 O   0  0  0  0  0  0  0  0  0  0  0  0
  2  1  1  0
  2  3  2  0
  4  2  1  0
  5  4  1  0
  6  5  1  0
  7  6  1  0
  8 10  1  0
  8  7  1  0
  8  9  1  6
 10 11  2  0
 13 12  1  6
 14 10  1  0
 14 13  1  0
 15 21  1  0
 15 13  1  0
 16 15  2  0
 18 20  1  0
 18 17  1  1
 19 18  1  0
 20 22  1  0
 20 21  1  1
 22 23  1  0
 24 22  2  0
M  END
$$$$
