RAV.pdb
     RDKit          3D

 24 23  0  0  1  0  0  0  0  0999 V2000
   14.3557  -16.9692   21.4263 N   0  0  0  0  0  0  0  0  0  0  0  0
   14.4291  -17.9091   20.3467 C   0  0  0  0  0  0  0  0  0  0  0  0
   15.4194  -17.8724   19.5123 N   0  0  0  0  0  0  0  0  0  0  0  0
   13.4345  -18.9022   20.1393 N   0  0  0  0  0  0  0  0  0  0  0  0
   12.2911  -19.0788   21.0057 C   0  0  0  0  0  0  0  0  0  0  0  0
   11.1616  -18.1600   20.6437 C   0  0  0  0  0  0  0  0  0  0  0  0
    9.9566  -18.3076   21.4955 C   0  0  0  0  0  0  0  0  0  0  0  0
    8.7685  -17.4895   21.1299 C   0  0  2  0  0  0  0  0  0  0  0  0
    8.9444  -16.5725   20.0425 N   0  0  0  0  0  0  0  0  0  0  0  0
    8.1094  -16.7933   22.2530 C   0  0  0  0  0  0  0  0  0  0  0  0
    8.0477  -15.5290   22.2151 O   0  0  0  0  0  0  0  0  0  0  0  0
   15.5011  -18.5527   18.7433 C   0  0  0  0  0  0  0  0  0  0  0  0
    6.1168  -17.7680   25.3423 C   0  0  1  0  0  0  0  0  0  0  0  0
    6.7934  -16.8667   24.3818 N   0  0  0  0  0  0  0  0  0  0  0  0
    7.5578  -17.5078   23.3489 C   0  0  0  0  0  0  0  0  0  0  0  0
    7.6157  -15.8352   25.1034 O   0  0  0  0  0  0  0  0  0  0  0  0
    8.8704  -15.9614   25.2297 C   0  0  0  0  0  0  0  0  0  0  0  0
    6.7251  -11.9033   25.2273 C   0  0  2  0  0  0  0  0  0  0  0  0
    7.0586  -12.4187   26.5963 C   0  0  0  0  0  0  0  0  0  0  0  0
    5.8096  -12.6253   27.4059 C   0  0  2  0  0  0  0  0  0  0  0  0
    7.8325  -13.7285   26.4872 N   0  0  0  0  0  0  0  0  0  0  0  0
    7.0530  -14.6663   25.6808 C   0  0  0  0  0  0  0  0  0  0  0  0
    8.2559  -14.2564   27.7750 O   0  0  0  0  0  0  0  0  0  0  0  0
    9.2950  -13.7027   28.5180 O   0  0  0  0  0  0  0  0  0  0  0  0
  2  1  1  0
  2  3  2  0
  4  2  1  0
  5  4  1  0
  6  5  1  0
  7  6  1  0
  8 10  1  0
  8  7  1  0
  8  9  1  6
 10 11  2  0
 13 12  1  6
 14 10  1  0
 14 13  1  0
 15 21  1  0
 15 13  1  0
 16 15  2  0
 18 20  1  0
 18 17  1  1
 19 18  1  0
 20 22  1  0
 20 21  1  1
 22 23  1  0
 24 22  2  0
M  END
$$$$
