CPK.pdb
     RDKit          3D

 23 23  0  0  1  0  0  0  0  0999 V2000
31841.9844-179221.73441181267.7500 N   0  0  0  0  0  0  0  0  0  0  0  0
31842.2617-179222.89061181268.1250 C   0  0  1  0  0  0  0  0  0  0  0  0
31841.2500-179223.18751181269.5000 C   0  0  0  0  0  0  0  0  0  0  0  0
31842.4336-179222.79691181271.1250 S   0  0  0  0  0  0  0  0  0  0  0  0
31842.2930-179224.03121181267.8750 C   0  0  0  0  0  0  0  0  0  0  0  0
31843.3945-179224.57811181268.1250 O   0  0  0  0  0  0  0  0  0  0  0  0
31841.2031-179224.82811181266.6250 N   0  0  0  0  0  0  0  0  0  0  0  0
31840.8828-179224.59381181265.6250 C   0  0  0  0  0  0  0  0  0  0  0  0
31839.8203-179225.60941181265.5000 C   0  0  0  0  0  0  0  0  0  0  0  0
31839.9688-179226.53121181266.2500 C   0  0  0  0  0  0  0  0  0  0  0  0
31840.5742-179225.95311181267.3750 C   0  0  1  0  0  0  0  0  0  0  0  0
31841.4844-179227.12501181268.3750 C   0  0  0  0  0  0  0  0  0  0  0  0
31842.5625-179227.18751181268.2500 O   0  0  0  0  0  0  0  0  0  0  0  0
31840.6719-179227.87501181269.1250 N   0  0  0  0  0  0  0  0  0  0  0  0
31841.1758-179228.87501181269.8750 C   0  0  1  0  0  0  0  0  0  0  0  0
31840.7422-179228.90621181271.2500 C   0  0  0  0  0  0  0  0  0  0  0  0
31840.0469-179230.14061181271.6250 C   0  0  0  0  0  0  0  0  0  0  0  0
31838.9805-179229.67191181272.8750 C   0  0  0  0  0  0  0  0  0  0  0  0
31838.6914-179231.06251181273.5000 C   0  0  0  0  0  0  0  0  0  0  0  0
31837.8906-179230.70311181274.5000 N   0  0  0  0  0  0  0  0  0  0  0  0
31841.0078-179230.20311181269.2500 C   0  0  0  0  0  0  0  0  0  0  0  0
31842.1016-179231.54691181270.0000 O   0  0  0  0  0  0  0  0  0  0  0  0
31840.3711-179230.45311181268.0000 O   0  0  0  0  0  0  0  0  0  0  0  0
  2  5  1  0
  2  3  1  0
  2  1  1  6
  3  4  1  0
  5  6  2  0
  7 11  1  0
  7  5  1  0
  8  7  1  0
  9 10  1  0
  9  8  1  0
 10 11  1  0
 11 12  1  6
 12 13  2  0
 12 14  1  0
 14 15  1  0
 15 21  1  0
 16 17  1  0
 15 16  1  1
 18 19  1  0
 18 17  1  0
 20 19  1  0
 21 23  2  0
 21 22  1  0
M  END
$$$$
