CPK.pdb
     RDKit          3D

 23 23  0  0  1  0  0  0  0  0999 V2000
   22.9269  -13.8986  -17.7769 N   0  0  0  0  0  0  0  0  0  0  0  0
   23.7932  -12.7875  -18.0013 C   0  0  1  0  0  0  0  0  0  0  0  0
   23.5457  -12.2261  -19.4054 C   0  0  0  0  0  0  0  0  0  0  0  0
   23.9822  -13.4583  -20.6561 S   0  0  0  0  0  0  0  0  0  0  0  0
   23.7313  -11.7118  -17.0155 C   0  0  0  0  0  0  0  0  0  0  0  0
   22.6057  -11.2841  -16.6831 O   0  0  0  0  0  0  0  0  0  0  0  0
   24.8819  -11.1016  -16.3923 N   0  0  0  0  0  0  0  0  0  0  0  0
   26.1972  -11.7017  -16.4502 C   0  0  0  0  0  0  0  0  0  0  0  0
   27.0739  -10.8523  -15.5575 C   0  0  0  0  0  0  0  0  0  0  0  0
   26.3868   -9.5056  -15.5593 C   0  0  0  0  0  0  0  0  0  0  0  0
   24.9370   -9.9022  -15.6285 C   0  0  1  0  0  0  0  0  0  0  0  0
   24.1137   -8.7819  -16.1645 C   0  0  0  0  0  0  0  0  0  0  0  0
   24.0059   -8.4555  -17.3469 O   0  0  0  0  0  0  0  0  0  0  0  0
   23.3832   -8.0195  -15.2065 N   0  0  0  0  0  0  0  0  0  0  0  0
   22.4958   -6.9453  -15.5446 C   0  0  1  0  0  0  0  0  0  0  0  0
   21.1025   -7.3738  -15.8681 C   0  0  0  0  0  0  0  0  0  0  0  0
   20.1576   -6.3134  -16.2915 C   0  0  0  0  0  0  0  0  0  0  0  0
   18.7606   -6.8195  -16.5498 C   0  0  0  0  0  0  0  0  0  0  0  0
   17.9035   -5.6784  -17.0899 C   0  0  0  0  0  0  0  0  0  0  0  0
   16.5603   -6.1589  -17.3739 N   0  0  0  0  0  0  0  0  0  0  0  0
   22.5804   -5.8123  -14.5909 C   0  0  0  0  0  0  0  0  0  0  0  0
   22.4177   -4.5023  -15.0377 O   0  0  0  0  0  0  0  0  0  0  0  0
   22.7961   -5.9775  -13.3647 O   0  0  0  0  0  0  0  0  0  0  0  0
  2  5  1  0
  2  3  1  0
  2  1  1  1
  3  4  1  0
  5  6  2  0
  7 11  1  0
  7  5  1  0
  8  7  1  0
  9 10  1  0
  9  8  1  0
 10 11  1  0
 11 12  1  6
 12 13  2  0
 12 14  1  0
 14 15  1  0
 15 21  1  0
 16 17  1  0
 15 16  1  1
 18 19  1  0
 18 17  1  0
 20 19  1  0
 21 23  2  0
 21 22  1  0
M  END
$$$$
