CPK.pdb
     RDKit          3D

 23 23  0  0  1  0  0  0  0  0999 V2000
   18.5367  -10.6690  -14.9881 N   0  0  0  0  0  0  0  0  0  0  0  0
   18.9829   -9.3189  -14.8720 C   0  0  1  0  0  0  0  0  0  0  0  0
   18.2663   -8.4557  -15.9156 C   0  0  0  0  0  0  0  0  0  0  0  0
   16.4751   -8.5473  -15.6777 S   0  0  0  0  0  0  0  0  0  0  0  0
   18.8591   -8.7101  -13.5503 C   0  0  0  0  0  0  0  0  0  0  0  0
   17.8801   -9.0326  -12.8447 O   0  0  0  0  0  0  0  0  0  0  0  0
   19.7901   -7.7565  -12.9949 N   0  0  0  0  0  0  0  0  0  0  0  0
   21.0936   -7.5241  -13.5781 C   0  0  0  0  0  0  0  0  0  0  0  0
   21.8071   -6.5904  -12.6261 C   0  0  0  0  0  0  0  0  0  0  0  0
   20.6803   -5.8691  -11.9221 C   0  0  0  0  0  0  0  0  0  0  0  0
   19.6344   -6.9471  -11.8347 C   0  0  1  0  0  0  0  0  0  0  0  0
   18.2800   -6.3491  -11.6675 C   0  0  0  0  0  0  0  0  0  0  0  0
   17.5558   -5.9186  -12.5654 O   0  0  0  0  0  0  0  0  0  0  0  0
   17.7831   -6.2725  -10.3333 N   0  0  0  0  0  0  0  0  0  0  0  0
   16.5571   -5.6238   -9.9702 C   0  0  1  0  0  0  0  0  0  0  0  0
   15.6604   -6.4408   -9.0998 C   0  0  0  0  0  0  0  0  0  0  0  0
   15.0492   -7.6446   -9.7114 C   0  0  0  0  0  0  0  0  0  0  0  0
   14.1184   -8.3849   -8.7841 C   0  0  0  0  0  0  0  0  0  0  0  0
   13.5469   -9.6000   -9.5090 C   0  0  0  0  0  0  0  0  0  0  0  0
   12.7138  -10.3724   -8.6007 N   0  0  0  0  0  0  0  0  0  0  0  0
   16.7645   -4.2328   -9.4985 C   0  0  0  0  0  0  0  0  0  0  0  0
   15.7384   -3.2949   -9.5991 O   0  0  0  0  0  0  0  0  0  0  0  0
   17.8486   -3.8452   -8.9968 O   0  0  0  0  0  0  0  0  0  0  0  0
  2  5  1  0
  2  3  1  0
  2  1  1  1
  3  4  1  0
  5  6  2  0
  7 11  1  0
  7  5  1  0
  8  7  1  0
  9 10  1  0
  9  8  1  0
 10 11  1  0
 11 12  1  6
 12 13  2  0
 12 14  1  0
 14 15  1  0
 15 21  1  0
 16 17  1  0
 15 16  1  1
 18 19  1  0
 18 17  1  0
 20 19  1  0
 21 23  2  0
 21 22  1  0
M  END
$$$$
