CPK.pdb
     RDKit          3D

 23 23  0  0  1  0  0  0  0  0999 V2000
   26.7321  -25.1217  -15.7214 N   0  0  0  0  0  0  0  0  0  0  0  0
   25.7461  -24.2757  -16.3108 C   0  0  1  0  0  0  0  0  0  0  0  0
   25.2141  -24.9304  -17.5899 C   0  0  0  0  0  0  0  0  0  0  0  0
   24.2347  -23.7414  -18.5387 S   0  0  0  0  0  0  0  0  0  0  0  0
   24.6330  -23.8853  -15.4496 C   0  0  0  0  0  0  0  0  0  0  0  0
   23.8253  -24.7704  -15.0968 O   0  0  0  0  0  0  0  0  0  0  0  0
   24.3950  -22.5436  -14.9727 N   0  0  0  0  0  0  0  0  0  0  0  0
   25.3358  -21.4679  -15.1994 C   0  0  0  0  0  0  0  0  0  0  0  0
   24.8029  -20.2872  -14.4191 C   0  0  0  0  0  0  0  0  0  0  0  0
   23.3190  -20.5611  -14.3262 C   0  0  0  0  0  0  0  0  0  0  0  0
   23.2914  -22.0613  -14.2146 C   0  0  1  0  0  0  0  0  0  0  0  0
   21.9645  -22.5925  -14.6358 C   0  0  0  0  0  0  0  0  0  0  0  0
   21.6068  -22.8328  -15.7892 O   0  0  0  0  0  0  0  0  0  0  0  0
   21.0244  -22.8437  -13.5938 N   0  0  0  0  0  0  0  0  0  0  0  0
   19.6787  -23.2851  -13.8172 C   0  0  1  0  0  0  0  0  0  0  0  0
   19.0338  -23.9246  -12.6320 C   0  0  0  0  0  0  0  0  0  0  0  0
   17.6715  -24.4748  -12.8271 C   0  0  0  0  0  0  0  0  0  0  0  0
   17.0445  -24.9952  -11.5581 C   0  0  0  0  0  0  0  0  0  0  0  0
   15.6420  -25.5125  -11.8646 C   0  0  0  0  0  0  0  0  0  0  0  0
   15.4365  -26.7998  -11.2194 N   0  0  0  0  0  0  0  0  0  0  0  0
   18.8439  -22.2578  -14.4865 C   0  0  0  0  0  0  0  0  0  0  0  0
   18.9610  -20.9150  -14.1318 O   0  0  0  0  0  0  0  0  0  0  0  0
   18.0133  -22.5436  -15.3840 O   0  0  0  0  0  0  0  0  0  0  0  0
  2  5  1  0
  2  3  1  0
  2  1  1  1
  3  4  1  0
  5  6  2  0
  7 11  1  0
  7  5  1  0
  8  7  1  0
  9 10  1  0
  9  8  1  0
 10 11  1  0
 11 12  1  6
 12 13  2  0
 12 14  1  0
 14 15  1  0
 15 21  1  0
 16 17  1  0
 15 16  1  1
 18 19  1  0
 18 17  1  0
 20 19  1  0
 21 23  2  0
 21 22  1  0
M  END
$$$$
