CPK.pdb
     RDKit          3D

 23 23  0  0  1  0  0  0  0  0999 V2000
   23.5692  -16.6063  -15.0631 N   0  0  0  0  0  0  0  0  0  0  0  0
   24.1711  -15.5810  -15.8517 C   0  0  1  0  0  0  0  0  0  0  0  0
   23.7132  -15.7247  -17.3069 C   0  0  0  0  0  0  0  0  0  0  0  0
   24.3797  -17.2463  -18.0235 S   0  0  0  0  0  0  0  0  0  0  0  0
   23.9615  -14.2096  -15.3955 C   0  0  0  0  0  0  0  0  0  0  0  0
   22.8088  -13.8759  -15.0485 O   0  0  0  0  0  0  0  0  0  0  0  0
   24.9942  -13.2038  -15.3154 N   0  0  0  0  0  0  0  0  0  0  0  0
   26.3950  -13.5238  -15.4850 C   0  0  0  0  0  0  0  0  0  0  0  0
   27.1464  -12.2487  -15.1741 C   0  0  0  0  0  0  0  0  0  0  0  0
   26.1379  -11.1604  -15.4642 C   0  0  0  0  0  0  0  0  0  0  0  0
   24.8512  -11.8149  -15.0402 C   0  0  1  0  0  0  0  0  0  0  0  0
   23.6888  -11.1626  -15.7062 C   0  0  0  0  0  0  0  0  0  0  0  0
   23.2873  -11.3778  -16.8501 O   0  0  0  0  0  0  0  0  0  0  0  0
   22.9786  -10.1965  -14.9347 N   0  0  0  0  0  0  0  0  0  0  0  0
   21.8527   -9.4532  -15.4201 C   0  0  1  0  0  0  0  0  0  0  0  0
   20.5436  -10.1592  -15.2887 C   0  0  0  0  0  0  0  0  0  0  0  0
   19.3553   -9.4757  -15.8519 C   0  0  0  0  0  0  0  0  0  0  0  0
   18.0649  -10.2207  -15.6186 C   0  0  0  0  0  0  0  0  0  0  0  0
   16.9303   -9.5014  -16.3422 C   0  0  0  0  0  0  0  0  0  0  0  0
   15.6509  -10.0680  -15.9447 N   0  0  0  0  0  0  0  0  0  0  0  0
   21.8418   -8.0511  -14.9359 C   0  0  0  0  0  0  0  0  0  0  0  0
   21.2204   -7.0528  -15.6840 O   0  0  0  0  0  0  0  0  0  0  0  0
   22.3781   -7.7071  -13.8537 O   0  0  0  0  0  0  0  0  0  0  0  0
  2  5  1  0
  2  3  1  0
  2  1  1  1
  3  4  1  0
  5  6  2  0
  7 11  1  0
  7  5  1  0
  8  7  1  0
  9 10  1  0
  9  8  1  0
 10 11  1  0
 11 12  1  6
 12 13  2  0
 12 14  1  0
 14 15  1  0
 15 21  1  0
 16 17  1  0
 15 16  1  1
 18 19  1  0
 18 17  1  0
 20 19  1  0
 21 23  2  0
 21 22  1  0
M  END
$$$$
