CPK.pdb
     RDKit          3D

 23 23  0  0  1  0  0  0  0  0999 V2000
   23.1325  -20.0952  -15.0562 N   0  0  0  0  0  0  0  0  0  0  0  0
   23.9002  -19.1875  -15.8447 C   0  0  1  0  0  0  0  0  0  0  0  0
   23.5840  -19.4098  -17.3274 C   0  0  0  0  0  0  0  0  0  0  0  0
   24.2929  -20.9769  -17.8885 S   0  0  0  0  0  0  0  0  0  0  0  0
   23.7661  -17.7716  -15.5125 C   0  0  0  0  0  0  0  0  0  0  0  0
   22.6194  -17.3251  -15.2979 O   0  0  0  0  0  0  0  0  0  0  0  0
   24.8674  -16.8433  -15.4133 N   0  0  0  0  0  0  0  0  0  0  0  0
   26.2389  -17.2868  -15.2886 C   0  0  0  0  0  0  0  0  0  0  0  0
   27.0540  -16.0346  -15.0548 C   0  0  0  0  0  0  0  0  0  0  0  0
   26.2162  -14.9417  -15.6785 C   0  0  0  0  0  0  0  0  0  0  0  0
   24.8205  -15.4213  -15.3853 C   0  0  1  0  0  0  0  0  0  0  0  0
   23.8475  -14.8096  -16.3335 C   0  0  0  0  0  0  0  0  0  0  0  0
   23.4328  -15.3109  -17.3789 O   0  0  0  0  0  0  0  0  0  0  0  0
   23.3546  -13.5173  -15.9874 N   0  0  0  0  0  0  0  0  0  0  0  0
   22.2826  -12.8576  -16.6740 C   0  0  1  0  0  0  0  0  0  0  0  0
   20.9348  -13.4524  -16.4306 C   0  0  0  0  0  0  0  0  0  0  0  0
   19.8049  -12.8897  -17.2073 C   0  0  0  0  0  0  0  0  0  0  0  0
   18.4836  -13.5565  -16.9176 C   0  0  0  0  0  0  0  0  0  0  0  0
   17.4199  -12.9956  -17.8570 C   0  0  0  0  0  0  0  0  0  0  0  0
   16.1511  -13.6688  -17.6274 N   0  0  0  0  0  0  0  0  0  0  0  0
   22.3340  -11.3821  -16.5302 C   0  0  0  0  0  0  0  0  0  0  0  0
   22.0125  -10.5582  -17.6073 O   0  0  0  0  0  0  0  0  0  0  0  0
   22.6605  -10.8201  -15.4556 O   0  0  0  0  0  0  0  0  0  0  0  0
  2  5  1  0
  2  3  1  0
  2  1  1  1
  3  4  1  0
  5  6  2  0
  7 11  1  0
  7  5  1  0
  8  7  1  0
  9 10  1  0
  9  8  1  0
 10 11  1  0
 11 12  1  6
 12 13  2  0
 12 14  1  0
 14 15  1  0
 15 21  1  0
 16 17  1  0
 15 16  1  1
 18 19  1  0
 18 17  1  0
 20 19  1  0
 21 23  2  0
 21 22  1  0
M  END
$$$$
