CPK.pdb
     RDKit          3D

 23 23  0  0  1  0  0  0  0  0999 V2000
   28.2909  -21.4140  -15.6050 N   0  0  0  0  0  0  0  0  0  0  0  0
   27.6699  -20.4887  -14.7142 C   0  0  1  0  0  0  0  0  0  0  0  0
   27.5111  -19.1361  -15.4164 C   0  0  0  0  0  0  0  0  0  0  0  0
   27.3139  -17.8175  -14.1935 S   0  0  0  0  0  0  0  0  0  0  0  0
   26.3941  -20.9050  -14.1381 C   0  0  0  0  0  0  0  0  0  0  0  0
   25.4978  -21.2945  -14.9161 O   0  0  0  0  0  0  0  0  0  0  0  0
   26.0894  -20.8995  -12.7268 N   0  0  0  0  0  0  0  0  0  0  0  0
   27.0984  -20.6404  -11.7226 C   0  0  0  0  0  0  0  0  0  0  0  0
   26.4217  -20.8800  -10.3916 C   0  0  0  0  0  0  0  0  0  0  0  0
   24.9582  -20.6421  -10.6872 C   0  0  0  0  0  0  0  0  0  0  0  0
   24.8420  -21.1623  -12.0943 C   0  0  1  0  0  0  0  0  0  0  0  0
   23.6584  -20.5666  -12.7757 C   0  0  0  0  0  0  0  0  0  0  0  0
   23.5218  -19.3880  -13.1050 O   0  0  0  0  0  0  0  0  0  0  0  0
   22.5845  -21.4568  -13.0709 N   0  0  0  0  0  0  0  0  0  0  0  0
   21.3564  -21.0537  -13.6913 C   0  0  1  0  0  0  0  0  0  0  0  0
   20.7353  -22.0936  -14.5644 C   0  0  0  0  0  0  0  0  0  0  0  0
   19.5257  -21.6953  -15.3227 C   0  0  0  0  0  0  0  0  0  0  0  0
   18.9356  -22.8128  -16.1456 C   0  0  0  0  0  0  0  0  0  0  0  0
   17.7635  -22.2734  -16.9604 C   0  0  0  0  0  0  0  0  0  0  0  0
   17.0585  -23.3721  -17.6020 N   0  0  0  0  0  0  0  0  0  0  0  0
   20.4163  -20.4164  -12.7371 C   0  0  0  0  0  0  0  0  0  0  0  0
   19.6901  -19.2875  -13.1121 O   0  0  0  0  0  0  0  0  0  0  0  0
   20.2343  -20.8554  -11.5746 O   0  0  0  0  0  0  0  0  0  0  0  0
  2  5  1  0
  2  3  1  0
  2  1  1  6
  3  4  1  0
  5  6  2  0
  7 11  1  0
  7  5  1  0
  8  7  1  0
  9 10  1  0
  9  8  1  0
 10 11  1  0
 11 12  1  6
 12 13  2  0
 12 14  1  0
 14 15  1  0
 15 21  1  0
 16 17  1  0
 15 16  1  1
 18 19  1  0
 18 17  1  0
 20 19  1  0
 21 23  2  0
 21 22  1  0
M  END
$$$$
