CPK.pdb
     RDKit          3D

 23 23  0  0  1  0  0  0  0  0999 V2000
   16.0124  -10.8819  -10.6571 N   0  0  0  0  0  0  0  0  0  0  0  0
   15.8780   -9.8059  -11.5841 C   0  0  1  0  0  0  0  0  0  0  0  0
   14.4637   -9.8168  -12.1735 C   0  0  0  0  0  0  0  0  0  0  0  0
   14.2070  -11.3168  -13.1519 S   0  0  0  0  0  0  0  0  0  0  0  0
   16.1972   -8.4740  -11.0770 C   0  0  0  0  0  0  0  0  0  0  0  0
   15.8012   -8.1714   -9.9316 O   0  0  0  0  0  0  0  0  0  0  0  0
   16.9411   -7.4741  -11.8059 N   0  0  0  0  0  0  0  0  0  0  0  0
   17.6996   -7.7945  -12.9957 C   0  0  0  0  0  0  0  0  0  0  0  0
   18.4469   -6.5304  -13.3571 C   0  0  0  0  0  0  0  0  0  0  0  0
   17.6028   -5.4315  -12.7523 C   0  0  0  0  0  0  0  0  0  0  0  0
   17.0915   -6.0922  -11.5010 C   0  0  1  0  0  0  0  0  0  0  0  0
   15.8506   -5.4192  -11.0242 C   0  0  0  0  0  0  0  0  0  0  0  0
   14.7453   -5.4570  -11.5653 O   0  0  0  0  0  0  0  0  0  0  0  0
   15.9651   -4.6597   -9.8230 N   0  0  0  0  0  0  0  0  0  0  0  0
   14.9069   -3.8632   -9.2740 C   0  0  1  0  0  0  0  0  0  0  0  0
   14.4880   -4.2577   -7.8962 C   0  0  0  0  0  0  0  0  0  0  0  0
   13.4425   -3.4284   -7.2514 C   0  0  0  0  0  0  0  0  0  0  0  0
   13.1410   -3.8362   -5.8311 C   0  0  0  0  0  0  0  0  0  0  0  0
   12.1712   -2.8326   -5.2141 C   0  0  0  0  0  0  0  0  0  0  0  0
   11.9029   -3.1893   -3.8297 N   0  0  0  0  0  0  0  0  0  0  0  0
   15.1366   -2.4082   -9.4494 C   0  0  0  0  0  0  0  0  0  0  0  0
   14.0611   -1.5447   -9.6497 O   0  0  0  0  0  0  0  0  0  0  0  0
   16.2842   -1.8988   -9.4244 O   0  0  0  0  0  0  0  0  0  0  0  0
  2  5  1  0
  2  3  1  0
  2  1  1  1
  3  4  1  0
  5  6  2  0
  7 11  1  0
  7  5  1  0
  8  7  1  0
  9 10  1  0
  9  8  1  0
 10 11  1  0
 11 12  1  6
 12 13  2  0
 12 14  1  0
 14 15  1  0
 15 21  1  0
 16 17  1  0
 15 16  1  1
 18 19  1  0
 18 17  1  0
 20 19  1  0
 21 23  2  0
 21 22  1  0
M  END
$$$$
