CPK.pdb
     RDKit          3D

 23 23  0  0  1  0  0  0  0  0999 V2000
   28.8799  -21.8934  -16.1508 N   0  0  0  0  0  0  0  0  0  0  0  0
   28.0503  -20.8552  -16.6695 C   0  0  1  0  0  0  0  0  0  0  0  0
   27.5125  -21.2729  -18.0421 C   0  0  0  0  0  0  0  0  0  0  0  0
   28.6078  -20.6720  -19.3507 S   0  0  0  0  0  0  0  0  0  0  0  0
   26.9499  -20.4204  -15.8134 C   0  0  0  0  0  0  0  0  0  0  0  0
   26.2775  -21.2972  -15.2307 O   0  0  0  0  0  0  0  0  0  0  0  0
   26.5786  -19.0433  -15.5890 N   0  0  0  0  0  0  0  0  0  0  0  0
   27.4137  -17.9416  -16.0158 C   0  0  0  0  0  0  0  0  0  0  0  0
   26.7612  -16.6950  -15.4615 C   0  0  0  0  0  0  0  0  0  0  0  0
   25.3097  -17.0895  -15.3094 C   0  0  0  0  0  0  0  0  0  0  0  0
   25.4255  -18.5394  -14.9244 C   0  0  1  0  0  0  0  0  0  0  0  0
   24.1606  -19.2645  -15.2316 C   0  0  0  0  0  0  0  0  0  0  0  0
   23.8297  -19.7248  -16.3246 O   0  0  0  0  0  0  0  0  0  0  0  0
   23.2513  -19.4368  -14.1470 N   0  0  0  0  0  0  0  0  0  0  0  0
   21.9611  -20.0495  -14.2720 C   0  0  1  0  0  0  0  0  0  0  0  0
   21.5666  -20.9006  -13.1104 C   0  0  0  0  0  0  0  0  0  0  0  0
   20.2528  -21.5813  -13.1952 C   0  0  0  0  0  0  0  0  0  0  0  0
   19.9622  -22.4787  -12.0185 C   0  0  0  0  0  0  0  0  0  0  0  0
   18.5997  -23.1379  -12.2123 C   0  0  0  0  0  0  0  0  0  0  0  0
   18.3339  -24.0580  -11.1175 N   0  0  0  0  0  0  0  0  0  0  0  0
   20.9151  -19.0945  -14.7126 C   0  0  0  0  0  0  0  0  0  0  0  0
   19.9229  -19.4989  -15.6040 O   0  0  0  0  0  0  0  0  0  0  0  0
   20.8751  -17.9053  -14.3108 O   0  0  0  0  0  0  0  0  0  0  0  0
  2  5  1  0
  2  3  1  0
  2  1  1  1
  3  4  1  0
  5  6  2  0
  7 11  1  0
  7  5  1  0
  8  7  1  0
  9 10  1  0
  9  8  1  0
 10 11  1  0
 11 12  1  6
 12 13  2  0
 12 14  1  0
 14 15  1  0
 15 21  1  0
 16 17  1  0
 15 16  1  1
 18 19  1  0
 18 17  1  0
 20 19  1  0
 21 23  2  0
 21 22  1  0
M  END
$$$$
