CPK.pdb
     RDKit          3D

 23 23  0  0  1  0  0  0  0  0999 V2000
   17.9488  -26.5005   -3.0283 N   0  0  0  0  0  0  0  0  0  0  0  0
   16.5706  -26.3058   -2.7153 C   0  0  1  0  0  0  0  0  0  0  0  0
   16.1029  -27.4163   -1.7688 C   0  0  0  0  0  0  0  0  0  0  0  0
   16.1459  -29.0155   -2.6137 S   0  0  0  0  0  0  0  0  0  0  0  0
   16.2116  -24.9999   -2.1687 C   0  0  0  0  0  0  0  0  0  0  0  0
   16.8924  -24.5524   -1.2219 O   0  0  0  0  0  0  0  0  0  0  0  0
   15.1207  -24.1823   -2.6442 N   0  0  0  0  0  0  0  0  0  0  0  0
   14.4267  -24.4686   -3.8811 C   0  0  0  0  0  0  0  0  0  0  0  0
   13.4792  -23.3096   -4.0961 C   0  0  0  0  0  0  0  0  0  0  0  0
   13.2398  -22.7806   -2.7003 C   0  0  0  0  0  0  0  0  0  0  0  0
   14.5797  -23.0059   -2.0539 C   0  0  1  0  0  0  0  0  0  0  0  0
   14.4426  -23.0575   -0.5711 C   0  0  0  0  0  0  0  0  0  0  0  0
   14.3971  -24.0734    0.1232 O   0  0  0  0  0  0  0  0  0  0  0  0
   14.3567  -21.8024    0.0999 N   0  0  0  0  0  0  0  0  0  0  0  0
   14.2676  -21.6588    1.5237 C   0  0  1  0  0  0  0  0  0  0  0  0
   15.3551  -20.8350    2.1304 C   0  0  0  0  0  0  0  0  0  0  0  0
   15.2946  -20.6216    3.5959 C   0  0  0  0  0  0  0  0  0  0  0  0
   16.3461  -19.6707    4.1101 C   0  0  0  0  0  0  0  0  0  0  0  0
   16.2018  -19.5305    5.6227 C   0  0  0  0  0  0  0  0  0  0  0  0
   17.2097  -18.6148    6.1340 N   0  0  0  0  0  0  0  0  0  0  0  0
   12.9023  -21.2976    1.9774 C   0  0  0  0  0  0  0  0  0  0  0  0
   12.0150  -20.6671    1.1069 O   0  0  0  0  0  0  0  0  0  0  0  0
   12.4917  -21.5389    3.1394 O   0  0  0  0  0  0  0  0  0  0  0  0
  2  5  1  0
  2  3  1  0
  2  1  1  1
  3  4  1  0
  5  6  2  0
  7 11  1  0
  7  5  1  0
  8  7  1  0
  9 10  1  0
  9  8  1  0
 10 11  1  0
 11 12  1  1
 12 13  2  0
 12 14  1  0
 14 15  1  0
 15 21  1  0
 16 17  1  0
 15 16  1  6
 18 19  1  0
 18 17  1  0
 20 19  1  0
 21 23  2  0
 21 22  1  0
M  END
$$$$
