CPK.pdb
     RDKit          3D

 23 23  0  0  1  0  0  0  0  0999 V2000
   14.6316  -11.4740  -15.5923 N   0  0  0  0  0  0  0  0  0  0  0  0
   15.3396  -10.2390  -15.4995 C   0  0  1  0  0  0  0  0  0  0  0  0
   14.4864   -9.1179  -16.1020 C   0  0  0  0  0  0  0  0  0  0  0  0
   14.4962   -9.2279  -17.9078 S   0  0  0  0  0  0  0  0  0  0  0  0
   15.7975   -9.8564  -14.1665 C   0  0  0  0  0  0  0  0  0  0  0  0
   14.9830   -9.9304  -13.2223 O   0  0  0  0  0  0  0  0  0  0  0  0
   17.1302   -9.3956  -13.8566 N   0  0  0  0  0  0  0  0  0  0  0  0
   18.2146   -9.4788  -14.8109 C   0  0  0  0  0  0  0  0  0  0  0  0
   19.4548   -9.0502  -14.0591 C   0  0  0  0  0  0  0  0  0  0  0  0
   18.9161   -8.1701  -12.9541 C   0  0  0  0  0  0  0  0  0  0  0  0
   17.6097   -8.8450  -12.6351 C   0  0  1  0  0  0  0  0  0  0  0  0
   16.6771   -7.8913  -11.9712 C   0  0  0  0  0  0  0  0  0  0  0  0
   16.1047   -6.9397  -12.5032 O   0  0  0  0  0  0  0  0  0  0  0  0
   16.4300   -8.1107  -10.5843 N   0  0  0  0  0  0  0  0  0  0  0  0
   15.5447   -7.3091   -9.7909 C   0  0  1  0  0  0  0  0  0  0  0  0
   14.3436   -8.0352   -9.2816 C   0  0  0  0  0  0  0  0  0  0  0  0
   13.3314   -7.2296   -8.5583 C   0  0  0  0  0  0  0  0  0  0  0  0
   12.1040   -8.0140   -8.1679 C   0  0  0  0  0  0  0  0  0  0  0  0
   11.0952   -7.0765   -7.5108 C   0  0  0  0  0  0  0  0  0  0  0  0
    9.8422   -7.7788   -7.2813 N   0  0  0  0  0  0  0  0  0  0  0  0
   16.2600   -6.5150   -8.7622 C   0  0  0  0  0  0  0  0  0  0  0  0
   15.7546   -5.2849   -8.3451 O   0  0  0  0  0  0  0  0  0  0  0  0
   17.3285   -6.9061   -8.2307 O   0  0  0  0  0  0  0  0  0  0  0  0
  2  5  1  0
  2  3  1  0
  2  1  1  1
  3  4  1  0
  5  6  2  0
  7 11  1  0
  7  5  1  0
  8  7  1  0
  9 10  1  0
  9  8  1  0
 10 11  1  0
 11 12  1  6
 12 13  2  0
 12 14  1  0
 14 15  1  0
 15 21  1  0
 16 17  1  0
 15 16  1  1
 18 19  1  0
 18 17  1  0
 20 19  1  0
 21 23  2  0
 21 22  1  0
M  END
$$$$
