VDA.pdb
     RDKit          3D

 21 20  0  0  1  0  0  0  0  0999 V2000
    8.3264  -12.8310   19.0692 C   0  0  0  0  0  0  0  0  0  0  0  0
    7.8768  -13.3302   20.4148 C   0  0  1  0  0  0  0  0  0  0  0  0
    6.5526  -14.0302   20.3194 C   0  0  0  0  0  0  0  0  0  0  0  0
    8.9360  -14.1502   21.1092 C   0  0  2  0  0  0  0  0  0  0  0  0
    9.3274  -15.2209   20.2440 N   0  0  0  0  0  0  0  0  0  0  0  0
    8.5557  -14.5667   22.4614 C   0  0  0  0  0  0  0  0  0  0  0  0
    8.1561  -13.6991   23.2657 O   0  0  0  0  0  0  0  0  0  0  0  0
    8.6033  -15.9018   22.9483 N   0  0  0  0  0  0  0  0  0  0  0  0
    8.2291  -16.3143   24.2498 C   0  0  1  0  0  0  0  0  0  0  0  0
    7.8851  -17.7622   24.3960 C   0  0  0  0  0  0  0  0  0  0  0  0
    7.4767  -18.1544   25.7466 C   0  0  0  0  0  0  0  0  0  0  0  0
    6.6340  -17.4470   26.3486 O   0  0  0  0  0  0  0  0  0  0  0  0
    9.2485  -15.8995   25.2253 C   0  0  0  0  0  0  0  0  0  0  0  0
   10.4383  -16.2630   25.0599 O   0  0  0  0  0  0  0  0  0  0  0  0
    7.9887  -19.2775   26.3797 O   0  0  0  0  0  0  0  0  0  0  0  0
    9.4894  -13.5010   28.1200 C   0  0  0  0  0  0  0  0  0  0  0  0
    9.9546  -14.7486   27.3613 C   0  0  2  0  0  0  0  0  0  0  0  0
    8.9743  -15.0983   26.3675 N   0  0  0  0  0  0  0  0  0  0  0  0
   10.1588  -15.8335   28.3528 C   0  0  0  0  0  0  0  0  0  0  0  0
   11.1278  -15.7943   29.3300 O   0  0  0  0  0  0  0  0  0  0  0  0
    9.4081  -16.8395   28.2966 O   0  0  0  0  0  0  0  0  0  0  0  0
  2  1  1  6
  2  4  1  0
  3  2  1  0
  4  5  1  6
  4  6  1  0
  6  8  1  0
  7  6  2  0
  8  9  1  0
  9 10  1  6
  9 13  1  0
 10 11  1  0
 11 15  1  0
 12 11  2  0
 13 18  1  0
 13 14  2  0
 17 16  1  1
 18 17  1  0
 19 17  1  0
 19 20  1  0
 21 19  2  0
M  END
$$$$
