VDA.pdb
     RDKit          3D

 21 20  0  0  1  0  0  0  0  0999 V2000
    7.3759  -13.2085   19.9300 C   0  0  0  0  0  0  0  0  0  0  0  0
    8.4099  -12.8453   18.9001 C   0  0  1  0  0  0  0  0  0  0  0  0
    9.5989  -12.1844   19.5342 C   0  0  0  0  0  0  0  0  0  0  0  0
    8.7772  -14.0111   18.0154 C   0  0  2  0  0  0  0  0  0  0  0  0
    7.5957  -14.4753   17.3546 N   0  0  0  0  0  0  0  0  0  0  0  0
    9.5362  -15.0532   18.7115 C   0  0  0  0  0  0  0  0  0  0  0  0
    8.9106  -15.9255   19.3495 O   0  0  0  0  0  0  0  0  0  0  0  0
   10.9541  -15.1601   18.7241 N   0  0  0  0  0  0  0  0  0  0  0  0
   11.6964  -16.1450   19.4189 C   0  0  1  0  0  0  0  0  0  0  0  0
   13.0126  -16.5118   18.8113 C   0  0  0  0  0  0  0  0  0  0  0  0
   12.9130  -17.2768   17.5665 C   0  0  0  0  0  0  0  0  0  0  0  0
   13.4730  -16.8271   16.5384 O   0  0  0  0  0  0  0  0  0  0  0  0
   11.8402  -15.7672   20.8329 C   0  0  0  0  0  0  0  0  0  0  0  0
   12.5018  -14.7426   21.1289 O   0  0  0  0  0  0  0  0  0  0  0  0
   12.2226  -18.4775   17.4869 O   0  0  0  0  0  0  0  0  0  0  0  0
   10.0175  -16.3520   23.9847 C   0  0  0  0  0  0  0  0  0  0  0  0
   11.3610  -16.1005   23.2915 C   0  0  2  0  0  0  0  0  0  0  0  0
   11.2698  -16.4975   21.9114 N   0  0  0  0  0  0  0  0  0  0  0  0
   12.4009  -16.8625   24.0262 C   0  0  0  0  0  0  0  0  0  0  0  0
   12.8666  -16.5025   25.2707 O   0  0  0  0  0  0  0  0  0  0  0  0
   12.8805  -17.8892   23.4834 O   0  0  0  0  0  0  0  0  0  0  0  0
  2  1  1  1
  2  4  1  0
  3  2  1  0
  4  5  1  1
  4  6  1  0
  6  8  1  0
  7  6  2  0
  8  9  1  0
  9 10  1  6
  9 13  1  0
 10 11  1  0
 11 15  1  0
 12 11  2  0
 13 18  1  0
 13 14  2  0
 17 16  1  1
 18 17  1  0
 19 17  1  0
 19 20  1  0
 21 19  2  0
M  END
$$$$
