VDA.pdb
     RDKit          3D

 21 20  0  0  1  0  0  0  0  0999 V2000
    7.7866  -12.8374   19.9216 C   0  0  0  0  0  0  0  0  0  0  0  0
    8.1628  -13.4804   21.2281 C   0  0  1  0  0  0  0  0  0  0  0  0
    7.3187  -12.9574   22.3535 C   0  0  0  0  0  0  0  0  0  0  0  0
    8.1796  -14.9870   21.1458 C   0  0  2  0  0  0  0  0  0  0  0  0
    6.8893  -15.4374   20.7211 N   0  0  0  0  0  0  0  0  0  0  0  0
    8.6801  -15.6305   22.3631 C   0  0  0  0  0  0  0  0  0  0  0  0
    7.8560  -16.0365   23.2089 O   0  0  0  0  0  0  0  0  0  0  0  0
   10.0526  -15.8375   22.6722 N   0  0  0  0  0  0  0  0  0  0  0  0
   10.5433  -16.5101   23.8170 C   0  0  1  0  0  0  0  0  0  0  0  0
   11.7661  -17.3439   23.6031 C   0  0  0  0  0  0  0  0  0  0  0  0
   11.5717  -18.4854   22.7066 C   0  0  0  0  0  0  0  0  0  0  0  0
   10.5594  -19.2084   22.8652 O   0  0  0  0  0  0  0  0  0  0  0  0
   10.7240  -15.5595   24.9245 C   0  0  0  0  0  0  0  0  0  0  0  0
   11.7037  -14.7754   24.9049 O   0  0  0  0  0  0  0  0  0  0  0  0
   12.4665  -18.7925   21.6918 O   0  0  0  0  0  0  0  0  0  0  0  0
    8.7994  -13.7597   27.4118 C   0  0  0  0  0  0  0  0  0  0  0  0
   10.0626  -14.5907   27.1627 C   0  0  2  0  0  0  0  0  0  0  0  0
    9.8474  -15.4648   26.0400 N   0  0  0  0  0  0  0  0  0  0  0  0
   10.3658  -15.3407   28.4066 C   0  0  0  0  0  0  0  0  0  0  0  0
   10.7743  -14.7372   29.5747 O   0  0  0  0  0  0  0  0  0  0  0  0
   10.2429  -16.5911   28.3921 O   0  0  0  0  0  0  0  0  0  0  0  0
  2  1  1  6
  2  4  1  0
  3  2  1  0
  4  5  1  1
  4  6  1  0
  6  8  1  0
  7  6  2  0
  8  9  1  0
  9 10  1  6
  9 13  1  0
 10 11  1  0
 11 15  1  0
 12 11  2  0
 13 18  1  0
 13 14  2  0
 17 16  1  1
 18 17  1  0
 19 17  1  0
 19 20  1  0
 21 19  2  0
M  END
$$$$
