VDA.pdb
     RDKit          3D

 21 20  0  0  1  0  0  0  0  0999 V2000
    8.8379  -12.8195   20.5608 C   0  0  0  0  0  0  0  0  0  0  0  0
    7.9192  -13.5225   19.5996 C   0  0  1  0  0  0  0  0  0  0  0  0
    7.3683  -12.5693   18.5796 C   0  0  0  0  0  0  0  0  0  0  0  0
    8.5518  -14.7489   18.9892 C   0  0  2  0  0  0  0  0  0  0  0  0
    7.5863  -15.3951   18.1537 N   0  0  0  0  0  0  0  0  0  0  0  0
    9.1902  -15.6256   19.9742 C   0  0  0  0  0  0  0  0  0  0  0  0
    8.4669  -16.3447   20.6946 O   0  0  0  0  0  0  0  0  0  0  0  0
   10.5924  -15.7311   20.1860 N   0  0  0  0  0  0  0  0  0  0  0  0
   11.2150  -16.5320   21.1733 C   0  0  1  0  0  0  0  0  0  0  0  0
   12.6643  -16.8247   20.9499 C   0  0  0  0  0  0  0  0  0  0  0  0
   13.2886  -17.6307   22.0012 C   0  0  0  0  0  0  0  0  0  0  0  0
   12.6324  -18.5732   22.5052 O   0  0  0  0  0  0  0  0  0  0  0  0
   10.9776  -15.9649   22.5093 C   0  0  0  0  0  0  0  0  0  0  0  0
   11.6801  -15.0006   22.8990 O   0  0  0  0  0  0  0  0  0  0  0  0
   14.5763  -17.3874   22.4565 O   0  0  0  0  0  0  0  0  0  0  0  0
    8.2940  -15.6077   24.9347 C   0  0  0  0  0  0  0  0  0  0  0  0
    9.7809  -15.9200   24.7345 C   0  0  2  0  0  0  0  0  0  0  0  0
    9.9865  -16.4431   23.4098 N   0  0  0  0  0  0  0  0  0  0  0  0
   10.1885  -16.8834   25.7868 C   0  0  0  0  0  0  0  0  0  0  0  0
   10.6467  -18.1530   25.5153 O   0  0  0  0  0  0  0  0  0  0  0  0
   10.1111  -16.5208   26.9873 O   0  0  0  0  0  0  0  0  0  0  0  0
  2  1  1  6
  2  4  1  0
  3  2  1  0
  4  5  1  1
  4  6  1  0
  6  8  1  0
  7  6  2  0
  8  9  1  0
  9 10  1  6
  9 13  1  0
 10 11  1  0
 11 15  1  0
 12 11  2  0
 13 18  1  0
 13 14  2  0
 17 16  1  1
 18 17  1  0
 19 17  1  0
 19 20  1  0
 21 19  2  0
M  END
$$$$
