VDA.pdb
     RDKit          3D

 21 20  0  0  1  0  0  0  0  0999 V2000
    7.9025  -12.4039   19.1809 C   0  0  0  0  0  0  0  0  0  0  0  0
    8.3714  -13.3955   20.2098 C   0  0  1  0  0  0  0  0  0  0  0  0
    7.4730  -13.3963   21.4121 C   0  0  0  0  0  0  0  0  0  0  0  0
    8.5901  -14.7705   19.6282 C   0  0  2  0  0  0  0  0  0  0  0  0
    7.3921  -15.1826   18.9625 N   0  0  0  0  0  0  0  0  0  0  0  0
    9.1119  -15.7364   20.5984 C   0  0  0  0  0  0  0  0  0  0  0  0
    8.3195  -16.5459   21.1239 O   0  0  0  0  0  0  0  0  0  0  0  0
   10.4717  -15.8343   21.0026 N   0  0  0  0  0  0  0  0  0  0  0  0
   10.9823  -16.7565   21.9474 C   0  0  1  0  0  0  0  0  0  0  0  0
   12.4057  -17.1684   21.7459 C   0  0  0  0  0  0  0  0  0  0  0  0
   12.8749  -18.1999   22.6735 C   0  0  0  0  0  0  0  0  0  0  0  0
   13.6086  -17.8577   23.6314 O   0  0  0  0  0  0  0  0  0  0  0  0
   10.7505  -16.2632   23.3133 C   0  0  0  0  0  0  0  0  0  0  0  0
   11.4361  -15.3036   23.7425 O   0  0  0  0  0  0  0  0  0  0  0  0
   12.5365  -19.5374   22.5285 O   0  0  0  0  0  0  0  0  0  0  0  0
    8.1137  -16.1433   25.8311 C   0  0  0  0  0  0  0  0  0  0  0  0
    9.6039  -16.3788   25.5622 C   0  0  2  0  0  0  0  0  0  0  0  0
    9.7829  -16.8091   24.2007 N   0  0  0  0  0  0  0  0  0  0  0  0
   10.0875  -17.3877   26.5368 C   0  0  0  0  0  0  0  0  0  0  0  0
   10.1587  -17.1584   27.8925 O   0  0  0  0  0  0  0  0  0  0  0  0
   10.4506  -18.5090   26.1013 O   0  0  0  0  0  0  0  0  0  0  0  0
  2  1  1  6
  2  4  1  0
  3  2  1  0
  4  5  1  1
  4  6  1  0
  6  8  1  0
  7  6  2  0
  8  9  1  0
  9 10  1  6
  9 13  1  0
 10 11  1  0
 11 15  1  0
 12 11  2  0
 13 18  1  0
 13 14  2  0
 17 16  1  1
 18 17  1  0
 19 17  1  0
 19 20  1  0
 21 19  2  0
M  END
$$$$
