VDA.pdb
     RDKit          3D

 21 20  0  0  1  0  0  0  0  0999 V2000
    7.9105  -12.2423   25.8558 C   0  0  0  0  0  0  0  0  0  0  0  0
    6.6268  -12.8867   26.3016 C   0  0  1  0  0  0  0  0  0  0  0  0
    5.5153  -11.8817   26.3851 C   0  0  0  0  0  0  0  0  0  0  0  0
    6.2733  -14.0995   25.4764 C   0  0  2  0  0  0  0  0  0  0  0  0
    5.0799  -14.6837   26.0081 N   0  0  0  0  0  0  0  0  0  0  0  0
    7.3885  -15.0349   25.3096 C   0  0  0  0  0  0  0  0  0  0  0  0
    7.4505  -16.0332   26.0571 O   0  0  0  0  0  0  0  0  0  0  0  0
    8.4291  -14.9020   24.3496 N   0  0  0  0  0  0  0  0  0  0  0  0
    9.4995  -15.8105   24.1690 C   0  0  1  0  0  0  0  0  0  0  0  0
   10.2777  -15.6502   22.9022 C   0  0  0  0  0  0  0  0  0  0  0  0
   11.3175  -16.6610   22.6980 C   0  0  0  0  0  0  0  0  0  0  0  0
   11.1606  -17.7959   23.2082 O   0  0  0  0  0  0  0  0  0  0  0  0
   10.3781  -15.7991   25.3484 C   0  0  0  0  0  0  0  0  0  0  0  0
   11.5166  -16.3212   25.2690 O   0  0  0  0  0  0  0  0  0  0  0  0
   12.4656  -16.4062   21.9622 O   0  0  0  0  0  0  0  0  0  0  0  0
   10.4963  -14.0397   28.6619 C   0  0  0  0  0  0  0  0  0  0  0  0
   10.8750  -15.2168   27.7566 C   0  0  2  0  0  0  0  0  0  0  0  0
   10.0200  -15.2255   26.5992 N   0  0  0  0  0  0  0  0  0  0  0  0
   10.7510  -16.4618   28.5542 C   0  0  0  0  0  0  0  0  0  0  0  0
   11.5297  -16.7366   29.6558 O   0  0  0  0  0  0  0  0  0  0  0  0
    9.8905  -17.3083   28.2054 O   0  0  0  0  0  0  0  0  0  0  0  0
  2  1  1  6
  2  4  1  0
  3  2  1  0
  4  5  1  1
  4  6  1  0
  6  8  1  0
  7  6  2  0
  8  9  1  0
  9 10  1  6
  9 13  1  0
 10 11  1  0
 11 15  1  0
 12 11  2  0
 13 18  1  0
 13 14  2  0
 17 16  1  1
 18 17  1  0
 19 17  1  0
 19 20  1  0
 21 19  2  0
M  END
$$$$
