VDA.pdb
     RDKit          3D

 21 20  0  0  1  0  0  0  0  0999 V2000
    7.9705  -12.3693   18.0729 C   0  0  0  0  0  0  0  0  0  0  0  0
    8.3877  -13.3533   19.1310 C   0  0  1  0  0  0  0  0  0  0  0  0
    7.4750  -13.2905   20.3208 C   0  0  0  0  0  0  0  0  0  0  0  0
    8.5601  -14.7493   18.5849 C   0  0  2  0  0  0  0  0  0  0  0  0
    7.3395  -15.1485   17.9534 N   0  0  0  0  0  0  0  0  0  0  0  0
    9.0755  -15.7008   19.5726 C   0  0  0  0  0  0  0  0  0  0  0  0
    8.2611  -16.3693   20.2428 O   0  0  0  0  0  0  0  0  0  0  0  0
   10.4524  -15.9345   19.8403 N   0  0  0  0  0  0  0  0  0  0  0  0
   10.9591  -16.8588   20.7851 C   0  0  1  0  0  0  0  0  0  0  0  0
   12.2636  -17.4977   20.4301 C   0  0  0  0  0  0  0  0  0  0  0  0
   12.2194  -18.3407   19.2334 C   0  0  0  0  0  0  0  0  0  0  0  0
   11.2886  -19.1733   19.1190 O   0  0  0  0  0  0  0  0  0  0  0  0
   11.0035  -16.2449   22.1208 C   0  0  0  0  0  0  0  0  0  0  0  0
   11.8778  -15.3791   22.3682 O   0  0  0  0  0  0  0  0  0  0  0  0
   13.1691  -18.2494   18.2262 O   0  0  0  0  0  0  0  0  0  0  0  0
    8.7855  -15.8549   25.0800 C   0  0  0  0  0  0  0  0  0  0  0  0
   10.1951  -16.0317   24.5054 C   0  0  2  0  0  0  0  0  0  0  0  0
   10.1058  -16.5708   23.1742 N   0  0  0  0  0  0  0  0  0  0  0  0
   10.9505  -16.9222   25.4210 C   0  0  0  0  0  0  0  0  0  0  0  0
   11.4091  -16.5252   26.6568 O   0  0  0  0  0  0  0  0  0  0  0  0
   11.1830  -18.0994   25.0480 O   0  0  0  0  0  0  0  0  0  0  0  0
  2  1  1  6
  2  4  1  0
  3  2  1  0
  4  5  1  1
  4  6  1  0
  6  8  1  0
  7  6  2  0
  8  9  1  0
  9 10  1  6
  9 13  1  0
 10 11  1  0
 11 15  1  0
 12 11  2  0
 13 18  1  0
 13 14  2  0
 17 16  1  1
 18 17  1  0
 19 17  1  0
 19 20  1  0
 21 19  2  0
M  END
$$$$
