VDA.pdb
     RDKit          3D

 21 20  0  0  1  0  0  0  0  0999 V2000
    8.2173  -12.2850   18.6725 C   0  0  0  0  0  0  0  0  0  0  0  0
    8.4040  -13.3376   19.7303 C   0  0  1  0  0  0  0  0  0  0  0  0
    7.3267  -13.2574   20.7722 C   0  0  0  0  0  0  0  0  0  0  0  0
    8.5672  -14.7195   19.1466 C   0  0  2  0  0  0  0  0  0  0  0  0
    7.4503  -14.9920   18.2944 N   0  0  0  0  0  0  0  0  0  0  0  0
    8.8309  -15.7494   20.1547 C   0  0  0  0  0  0  0  0  0  0  0  0
    7.8682  -16.3976   20.6154 O   0  0  0  0  0  0  0  0  0  0  0  0
   10.1156  -16.0823   20.6652 N   0  0  0  0  0  0  0  0  0  0  0  0
   10.3711  -17.0148   21.6991 C   0  0  1  0  0  0  0  0  0  0  0  0
   11.5590  -17.8996   21.4937 C   0  0  0  0  0  0  0  0  0  0  0  0
   11.4440  -18.8134   20.3552 C   0  0  0  0  0  0  0  0  0  0  0  0
   10.7367  -19.8416   20.4791 O   0  0  0  0  0  0  0  0  0  0  0  0
   10.4266  -16.3281   22.9984 C   0  0  0  0  0  0  0  0  0  0  0  0
   11.3476  -15.5039   23.2167 O   0  0  0  0  0  0  0  0  0  0  0  0
   12.0889  -18.5808   19.1491 O   0  0  0  0  0  0  0  0  0  0  0  0
    8.1673  -15.3253   25.6815 C   0  0  0  0  0  0  0  0  0  0  0  0
    9.5509  -15.8802   25.3261 C   0  0  2  0  0  0  0  0  0  0  0  0
    9.4896  -16.5372   24.0473 N   0  0  0  0  0  0  0  0  0  0  0  0
    9.9623  -16.8044   26.4116 C   0  0  0  0  0  0  0  0  0  0  0  0
   10.2948  -16.3836   27.6796 O   0  0  0  0  0  0  0  0  0  0  0  0
   10.0093  -18.0345   26.1595 O   0  0  0  0  0  0  0  0  0  0  0  0
  2  1  1  6
  2  4  1  0
  3  2  1  0
  4  5  1  1
  4  6  1  0
  6  8  1  0
  7  6  2  0
  8  9  1  0
  9 10  1  6
  9 13  1  0
 10 11  1  0
 11 15  1  0
 12 11  2  0
 13 18  1  0
 13 14  2  0
 17 16  1  1
 18 17  1  0
 19 17  1  0
 19 20  1  0
 21 19  2  0
M  END
$$$$
