VDA.pdb
     RDKit          3D

 21 20  0  0  1  0  0  0  0  0999 V2000
    7.9842  -12.6156   19.6632 C   0  0  0  0  0  0  0  0  0  0  0  0
    8.2507  -13.3084   20.9712 C   0  0  1  0  0  0  0  0  0  0  0  0
    7.3070  -12.8356   22.0381 C   0  0  0  0  0  0  0  0  0  0  0  0
    8.2884  -14.8103   20.8314 C   0  0  2  0  0  0  0  0  0  0  0  0
    7.0617  -15.2463   20.2371 N   0  0  0  0  0  0  0  0  0  0  0  0
    8.6441  -15.5015   22.0732 C   0  0  0  0  0  0  0  0  0  0  0  0
    7.7279  -15.8749   22.8351 O   0  0  0  0  0  0  0  0  0  0  0  0
    9.9708  -15.7904   22.4957 N   0  0  0  0  0  0  0  0  0  0  0  0
   10.3221  -16.4889   23.6757 C   0  0  1  0  0  0  0  0  0  0  0  0
   11.5042  -17.3978   23.5622 C   0  0  0  0  0  0  0  0  0  0  0  0
   11.3656  -18.4483   22.5513 C   0  0  0  0  0  0  0  0  0  0  0  0
   12.2497  -18.5524   21.6679 O   0  0  0  0  0  0  0  0  0  0  0  0
   10.4692  -15.5482   24.7965 C   0  0  0  0  0  0  0  0  0  0  0  0
   11.5572  -14.9413   24.9480 O   0  0  0  0  0  0  0  0  0  0  0  0
   10.2934  -19.3285   22.5382 O   0  0  0  0  0  0  0  0  0  0  0  0
    8.2151  -13.7254   27.1509 C   0  0  0  0  0  0  0  0  0  0  0  0
    9.5800  -14.3458   26.8335 C   0  0  2  0  0  0  0  0  0  0  0  0
    9.4427  -15.2723   25.7409 N   0  0  0  0  0  0  0  0  0  0  0  0
   10.0779  -15.0038   28.0667 C   0  0  0  0  0  0  0  0  0  0  0  0
   10.2801  -16.3615   28.1724 O   0  0  0  0  0  0  0  0  0  0  0  0
   10.3275  -14.2836   29.0657 O   0  0  0  0  0  0  0  0  0  0  0  0
  2  1  1  6
  2  4  1  0
  3  2  1  0
  4  5  1  1
  4  6  1  0
  6  8  1  0
  7  6  2  0
  8  9  1  0
  9 10  1  6
  9 13  1  0
 10 11  1  0
 11 15  1  0
 12 11  2  0
 13 18  1  0
 13 14  2  0
 17 16  1  1
 18 17  1  0
 19 17  1  0
 19 20  1  0
 21 19  2  0
M  END
$$$$
