VDA.pdb
     RDKit          3D

 21 20  0  0  1  0  0  0  0  0999 V2000
    7.9556  -12.4873   18.8332 C   0  0  0  0  0  0  0  0  0  0  0  0
    8.3141  -13.4570   19.9255 C   0  0  1  0  0  0  0  0  0  0  0  0
    7.3029  -13.4241   21.0340 C   0  0  0  0  0  0  0  0  0  0  0  0
    8.5773  -14.8467   19.3997 C   0  0  2  0  0  0  0  0  0  0  0  0
    7.4238  -15.2898   18.6778 N   0  0  0  0  0  0  0  0  0  0  0  0
    9.0486  -15.7781   20.4277 C   0  0  0  0  0  0  0  0  0  0  0  0
    8.2091  -16.4730   21.0373 O   0  0  0  0  0  0  0  0  0  0  0  0
   10.4084  -15.9637   20.7998 N   0  0  0  0  0  0  0  0  0  0  0  0
   10.8679  -16.8222   21.8272 C   0  0  1  0  0  0  0  0  0  0  0  0
   12.2871  -17.2773   21.7039 C   0  0  0  0  0  0  0  0  0  0  0  0
   12.5633  -18.0838   20.5132 C   0  0  0  0  0  0  0  0  0  0  0  0
   11.8039  -19.0467   20.2503 O   0  0  0  0  0  0  0  0  0  0  0  0
   10.6050  -16.2224   23.1440 C   0  0  0  0  0  0  0  0  0  0  0  0
   11.3550  -15.3064   23.5606 O   0  0  0  0  0  0  0  0  0  0  0  0
   13.6326  -17.8195   19.6698 O   0  0  0  0  0  0  0  0  0  0  0  0
    7.7792  -15.7684   25.4379 C   0  0  0  0  0  0  0  0  0  0  0  0
    9.2806  -16.0360   25.2880 C   0  0  2  0  0  0  0  0  0  0  0  0
    9.5373  -16.6163   23.9965 N   0  0  0  0  0  0  0  0  0  0  0  0
    9.6956  -16.9307   26.3967 C   0  0  0  0  0  0  0  0  0  0  0  0
    9.7232  -16.5392   27.7163 O   0  0  0  0  0  0  0  0  0  0  0  0
   10.0393  -18.1061   26.1155 O   0  0  0  0  0  0  0  0  0  0  0  0
  2  1  1  6
  2  4  1  0
  3  2  1  0
  4  5  1  1
  4  6  1  0
  6  8  1  0
  7  6  2  0
  8  9  1  0
  9 10  1  6
  9 13  1  0
 10 11  1  0
 11 15  1  0
 12 11  2  0
 13 18  1  0
 13 14  2  0
 17 16  1  1
 18 17  1  0
 19 17  1  0
 19 20  1  0
 21 19  2  0
M  END
$$$$
