EFN.pdb
     RDKit          3D

 29 29  0  0  1  0  0  0  0  0999 V2000
   10.6342  -16.9121   20.0698 N   0  0  0  0  0  0  0  0  0  0  0  0
    9.6892  -17.2540   21.1034 C   0  0  1  0  0  0  0  0  0  0  0  0
    9.8482  -18.6657   21.5807 C   0  0  0  0  0  0  0  0  0  0  0  0
   10.1636  -19.6480   20.4970 C   0  0  0  0  0  0  0  0  0  0  0  0
   11.4515  -20.3012   20.8059 C   0  0  0  0  0  0  0  0  0  0  0  0
   11.4916  -21.3013   21.5856 O   0  0  0  0  0  0  0  0  0  0  0  0
    9.7531  -16.2345   22.1721 C   0  0  0  0  0  0  0  0  0  0  0  0
   10.8417  -15.6729   22.4511 O   0  0  0  0  0  0  0  0  0  0  0  0
   12.6212  -19.8342   20.2526 O   0  0  0  0  0  0  0  0  0  0  0  0
    8.6104  -15.8673   22.8963 N   0  0  0  0  0  0  0  0  0  0  0  0
    8.5374  -14.8837   23.9530 C   0  0  1  0  0  0  0  0  0  0  0  0
    7.1328  -14.3214   23.9049 C   0  0  0  0  0  0  0  0  0  0  0  0
    6.8070  -13.3920   24.9837 C   0  0  0  0  0  0  0  0  0  0  0  0
    5.7542  -13.5675   25.8509 C   0  0  0  0  0  0  0  0  0  0  0  0
    5.5428  -12.6342   26.8330 C   0  0  0  0  0  0  0  0  0  0  0  0
    6.3455  -11.5224   26.9890 C   0  0  0  0  0  0  0  0  0  0  0  0
    7.4142  -11.3268   26.1236 C   0  0  0  0  0  0  0  0  0  0  0  0
    7.6144  -12.2665   25.1463 C   0  0  0  0  0  0  0  0  0  0  0  0
    8.6296  -15.6068   25.2523 C   0  0  0  0  0  0  0  0  0  0  0  0
    8.5238  -15.0650   26.3665 O   0  0  0  0  0  0  0  0  0  0  0  0
    6.1891  -17.9564   25.8495 N   0  0  0  0  0  0  0  0  0  0  0  0
    7.0942  -19.0043   25.4529 C   0  0  0  0  0  0  0  0  0  0  0  0
    6.7478  -19.6871   24.4578 O   0  0  0  0  0  0  0  0  0  0  0  0
    8.3490  -19.2057   26.2218 C   0  0  0  0  0  0  0  0  0  0  0  0
    8.9761  -17.8430   26.3746 C   0  0  2  0  0  0  0  0  0  0  0  0
    8.8575  -17.0186   25.2181 N   0  0  0  0  0  0  0  0  0  0  0  0
   10.4132  -18.0939   26.6226 C   0  0  0  0  0  0  0  0  0  0  0  0
   11.2757  -17.7154   25.8106 O   0  0  0  0  0  0  0  0  0  0  0  0
   10.7991  -18.7536   27.7651 O   0  0  0  0  0  0  0  0  0  0  0  0
  2  1  1  6
  2  7  1  0
  2  3  1  0
  3  4  1  0
  4  5  1  0
  5  6  2  0
  5  9  1  0
  7  8  2  0
  7 10  1  0
 10 11  1  0
 11 12  1  1
 12 13  1  0
 13 14  2  0
 13 18  1  0
 14 15  1  0
 15 16  2  0
 17 16  1  0
 18 17  2  0
 19 26  1  0
 19 11  1  0
 20 19  2  0
 21 22  1  0
 22 23  2  0
 22 24  1  0
 25 24  1  6
 25 26  1  0
 25 27  1  0
 27 29  1  0
 28 27  2  0
M  END
$$$$
