EFN.pdb
     RDKit          3D

 29 29  0  0  1  0  0  0  0  0999 V2000
   10.1301  -16.3622   16.5449 N   0  0  0  0  0  0  0  0  0  0  0  0
   10.3906  -17.4257   17.4826 C   0  0  1  0  0  0  0  0  0  0  0  0
   11.4015  -18.4063   16.9701 C   0  0  0  0  0  0  0  0  0  0  0  0
   11.5973  -18.3673   15.4872 C   0  0  0  0  0  0  0  0  0  0  0  0
   12.5648  -19.4161   15.1065 C   0  0  0  0  0  0  0  0  0  0  0  0
   13.7267  -19.4310   15.6158 O   0  0  0  0  0  0  0  0  0  0  0  0
   10.7185  -16.8387   18.7993 C   0  0  0  0  0  0  0  0  0  0  0  0
   11.8230  -16.2695   18.9847 O   0  0  0  0  0  0  0  0  0  0  0  0
   12.2182  -20.3881   14.1968 O   0  0  0  0  0  0  0  0  0  0  0  0
    9.8131  -16.8982   19.8678 N   0  0  0  0  0  0  0  0  0  0  0  0
    9.9999  -16.3426   21.1891 C   0  0  1  0  0  0  0  0  0  0  0  0
    8.7177  -15.6090   21.5196 C   0  0  0  0  0  0  0  0  0  0  0  0
    8.4878  -14.3947   20.7408 C   0  0  0  0  0  0  0  0  0  0  0  0
    9.4335  -13.8212   19.9234 C   0  0  0  0  0  0  0  0  0  0  0  0
    9.1082  -12.6826   19.2320 C   0  0  0  0  0  0  0  0  0  0  0  0
    7.8669  -12.0860   19.3215 C   0  0  0  0  0  0  0  0  0  0  0  0
    6.8976  -12.6496   20.1415 C   0  0  0  0  0  0  0  0  0  0  0  0
    7.2354  -13.7870   20.8273 C   0  0  0  0  0  0  0  0  0  0  0  0
   10.0660  -17.4770   22.1526 C   0  0  0  0  0  0  0  0  0  0  0  0
    9.6442  -18.6230   21.9182 O   0  0  0  0  0  0  0  0  0  0  0  0
   15.1202  -18.3603   24.4731 N   0  0  0  0  0  0  0  0  0  0  0  0
   13.9392  -18.8842   23.8363 C   0  0  0  0  0  0  0  0  0  0  0  0
   13.7917  -20.1302   23.8839 O   0  0  0  0  0  0  0  0  0  0  0  0
   12.9923  -17.9444   23.1832 C   0  0  0  0  0  0  0  0  0  0  0  0
   11.7197  -17.9956   23.9902 C   0  0  2  0  0  0  0  0  0  0  0  0
   10.6514  -17.2330   23.4348 N   0  0  0  0  0  0  0  0  0  0  0  0
   12.0644  -17.4224   25.3102 C   0  0  0  0  0  0  0  0  0  0  0  0
   11.9366  -16.2050   25.5294 O   0  0  0  0  0  0  0  0  0  0  0  0
   12.5314  -18.2464   26.3063 O   0  0  0  0  0  0  0  0  0  0  0  0
  2  1  1  6
  2  7  1  0
  2  3  1  0
  3  4  1  0
  4  5  1  0
  5  6  2  0
  5  9  1  0
  7  8  2  0
  7 10  1  0
 10 11  1  0
 11 12  1  1
 12 13  1  0
 13 14  2  0
 13 18  1  0
 14 15  1  0
 15 16  2  0
 17 16  1  0
 18 17  2  0
 19 26  1  0
 19 11  1  0
 20 19  2  0
 21 22  1  0
 22 23  2  0
 22 24  1  0
 25 24  1  6
 25 26  1  0
 25 27  1  0
 27 29  1  0
 28 27  2  0
M  END
$$$$
