EFN.pdb
     RDKit          3D

 29 29  0  0  1  0  0  0  0  0999 V2000
    9.2895  -16.5983   18.6781 N   0  0  0  0  0  0  0  0  0  0  0  0
    8.4600  -16.9761   19.7950 C   0  0  1  0  0  0  0  0  0  0  0  0
    8.3683  -18.4625   19.9632 C   0  0  0  0  0  0  0  0  0  0  0  0
    9.6896  -19.1435   20.1338 C   0  0  0  0  0  0  0  0  0  0  0  0
    9.4696  -20.6026   20.1935 C   0  0  0  0  0  0  0  0  0  0  0  0
   10.2231  -21.3353   20.9042 O   0  0  0  0  0  0  0  0  0  0  0  0
    8.9129  -16.2494   21.0001 C   0  0  0  0  0  0  0  0  0  0  0  0
   10.1284  -15.9731   21.1570 O   0  0  0  0  0  0  0  0  0  0  0  0
    8.4465  -21.1838   19.4807 O   0  0  0  0  0  0  0  0  0  0  0  0
    8.0064  -15.8495   21.9918 N   0  0  0  0  0  0  0  0  0  0  0  0
    8.3152  -15.1141   23.1973 C   0  0  1  0  0  0  0  0  0  0  0  0
    6.9906  -14.6142   23.7332 C   0  0  0  0  0  0  0  0  0  0  0  0
    7.0768  -13.8788   24.9923 C   0  0  0  0  0  0  0  0  0  0  0  0
    6.7292  -14.4100   26.2123 C   0  0  0  0  0  0  0  0  0  0  0  0
    6.8554  -13.6310   27.3338 C   0  0  0  0  0  0  0  0  0  0  0  0
    7.3190  -12.3318   27.2897 C   0  0  0  0  0  0  0  0  0  0  0  0
    7.6754  -11.7766   26.0674 C   0  0  0  0  0  0  0  0  0  0  0  0
    7.5442  -12.5653   24.9543 C   0  0  0  0  0  0  0  0  0  0  0  0
    8.8085  -16.0896   24.2095 C   0  0  0  0  0  0  0  0  0  0  0  0
    8.2418  -17.1612   24.4865 O   0  0  0  0  0  0  0  0  0  0  0  0
   13.4213  -18.5604   26.0146 N   0  0  0  0  0  0  0  0  0  0  0  0
   12.8292  -17.4199   26.6652 C   0  0  0  0  0  0  0  0  0  0  0  0
   12.8759  -17.4128   27.9198 O   0  0  0  0  0  0  0  0  0  0  0  0
   12.2192  -16.3497   25.8351 C   0  0  0  0  0  0  0  0  0  0  0  0
   10.7616  -16.7061   25.6878 C   0  0  2  0  0  0  0  0  0  0  0  0
   10.0133  -15.7731   24.9127 N   0  0  0  0  0  0  0  0  0  0  0  0
   10.2149  -16.7138   27.0629 C   0  0  0  0  0  0  0  0  0  0  0  0
    9.4070  -15.8438   27.4326 O   0  0  0  0  0  0  0  0  0  0  0  0
   10.6052  -17.6956   27.9423 O   0  0  0  0  0  0  0  0  0  0  0  0
  2  1  1  6
  2  7  1  0
  2  3  1  0
  3  4  1  0
  4  5  1  0
  5  6  2  0
  5  9  1  0
  7  8  2  0
  7 10  1  0
 10 11  1  0
 11 12  1  1
 12 13  1  0
 13 14  2  0
 13 18  1  0
 14 15  1  0
 15 16  2  0
 17 16  1  0
 18 17  2  0
 19 26  1  0
 19 11  1  0
 20 19  2  0
 21 22  1  0
 22 23  2  0
 22 24  1  0
 25 24  1  1
 25 26  1  0
 25 27  1  0
 27 29  1  0
 28 27  2  0
M  END
$$$$
