EFN.pdb
     RDKit          3D

 29 29  0  0  1  0  0  0  0  0999 V2000
    9.2609  -16.1717   18.8214 N   0  0  0  0  0  0  0  0  0  0  0  0
    8.4077  -16.5685   19.9136 C   0  0  1  0  0  0  0  0  0  0  0  0
    8.3399  -18.0569   20.0758 C   0  0  0  0  0  0  0  0  0  0  0  0
    9.6714  -18.7162   20.2526 C   0  0  0  0  0  0  0  0  0  0  0  0
    9.4701  -20.1753   20.3602 C   0  0  0  0  0  0  0  0  0  0  0  0
    9.9399  -20.8153   21.3498 O   0  0  0  0  0  0  0  0  0  0  0  0
    8.8124  -15.8366   21.1327 C   0  0  0  0  0  0  0  0  0  0  0  0
   10.0210  -15.5613   21.3375 O   0  0  0  0  0  0  0  0  0  0  0  0
    8.7718  -20.8568   19.3905 O   0  0  0  0  0  0  0  0  0  0  0  0
    7.8671  -15.4307   22.0848 N   0  0  0  0  0  0  0  0  0  0  0  0
    8.1301  -14.7061   23.3076 C   0  0  1  0  0  0  0  0  0  0  0  0
    6.7877  -14.2009   23.7915 C   0  0  0  0  0  0  0  0  0  0  0  0
    6.8291  -13.4575   25.0483 C   0  0  0  0  0  0  0  0  0  0  0  0
    6.3515  -13.9473   26.2413 C   0  0  0  0  0  0  0  0  0  0  0  0
    6.4464  -13.1651   27.3636 C   0  0  0  0  0  0  0  0  0  0  0  0
    7.0037  -11.9026   27.3465 C   0  0  0  0  0  0  0  0  0  0  0  0
    7.4920  -11.3895   26.1516 C   0  0  0  0  0  0  0  0  0  0  0  0
    7.3908  -12.1810   25.0373 C   0  0  0  0  0  0  0  0  0  0  0  0
    8.5743  -15.6923   24.3322 C   0  0  0  0  0  0  0  0  0  0  0  0
    7.9381  -16.7135   24.6462 O   0  0  0  0  0  0  0  0  0  0  0  0
   11.4421  -17.8609   23.8677 N   0  0  0  0  0  0  0  0  0  0  0  0
   12.3338  -16.9231   24.5003 C   0  0  0  0  0  0  0  0  0  0  0  0
   13.3906  -16.6576   23.8764 O   0  0  0  0  0  0  0  0  0  0  0  0
   11.9578  -16.3409   25.8140 C   0  0  0  0  0  0  0  0  0  0  0  0
   10.4517  -16.3754   25.8777 C   0  0  2  0  0  0  0  0  0  0  0  0
    9.8142  -15.4486   25.0027 N   0  0  0  0  0  0  0  0  0  0  0  0
   10.1059  -16.0147   27.2707 C   0  0  0  0  0  0  0  0  0  0  0  0
   10.5155  -16.6970   28.2262 O   0  0  0  0  0  0  0  0  0  0  0  0
    9.3221  -14.9113   27.5107 O   0  0  0  0  0  0  0  0  0  0  0  0
  2  1  1  6
  2  7  1  0
  2  3  1  0
  3  4  1  0
  4  5  1  0
  5  6  2  0
  5  9  1  0
  7  8  2  0
  7 10  1  0
 10 11  1  0
 11 12  1  1
 12 13  1  0
 13 14  2  0
 13 18  1  0
 14 15  1  0
 15 16  2  0
 17 16  1  0
 18 17  2  0
 19 26  1  0
 19 11  1  0
 20 19  2  0
 21 22  1  0
 22 23  2  0
 22 24  1  0
 25 24  1  1
 25 26  1  0
 25 27  1  0
 27 29  1  0
 28 27  2  0
M  END
$$$$
