EFN.pdb
     RDKit          3D

 29 29  0  0  1  0  0  0  0  0999 V2000
    8.5364  -17.7057   20.4960 N   0  0  0  0  0  0  0  0  0  0  0  0
    9.9315  -17.4856   20.7846 C   0  0  1  0  0  0  0  0  0  0  0  0
   10.7186  -17.1207   19.5625 C   0  0  0  0  0  0  0  0  0  0  0  0
   10.6257  -18.1191   18.4519 C   0  0  0  0  0  0  0  0  0  0  0  0
   11.3910  -17.6160   17.2935 C   0  0  0  0  0  0  0  0  0  0  0  0
   12.6525  -17.7457   17.2542 O   0  0  0  0  0  0  0  0  0  0  0  0
   10.0476  -16.5214   21.8992 C   0  0  0  0  0  0  0  0  0  0  0  0
   11.1733  -16.0895   22.2520 O   0  0  0  0  0  0  0  0  0  0  0  0
   10.7465  -17.0021   16.2446 O   0  0  0  0  0  0  0  0  0  0  0  0
    8.9145  -16.0643   22.5863 N   0  0  0  0  0  0  0  0  0  0  0  0
    8.8991  -15.2267   23.7643 C   0  0  1  0  0  0  0  0  0  0  0  0
    7.5898  -14.4682   23.7212 C   0  0  0  0  0  0  0  0  0  0  0  0
    7.3704  -13.5593   24.8435 C   0  0  0  0  0  0  0  0  0  0  0  0
    8.1646  -12.4685   25.1093 C   0  0  0  0  0  0  0  0  0  0  0  0
    7.8635  -11.6774   26.1882 C   0  0  0  0  0  0  0  0  0  0  0  0
    6.7925  -11.9303   27.0212 C   0  0  0  0  0  0  0  0  0  0  0  0
    5.9780  -13.0270   26.7699 C   0  0  0  0  0  0  0  0  0  0  0  0
    6.2899  -13.8097   25.6891 C   0  0  0  0  0  0  0  0  0  0  0  0
    8.8004  -16.1187   24.9534 C   0  0  0  0  0  0  0  0  0  0  0  0
    7.8945  -16.9514   25.1335 O   0  0  0  0  0  0  0  0  0  0  0  0
   11.1238  -20.1034   25.6174 N   0  0  0  0  0  0  0  0  0  0  0  0
   10.8051  -19.2487   26.7320 C   0  0  0  0  0  0  0  0  0  0  0  0
   10.1409  -19.7736   27.6593 O   0  0  0  0  0  0  0  0  0  0  0  0
   11.2716  -17.8386   26.7187 C   0  0  0  0  0  0  0  0  0  0  0  0
   10.0530  -16.9864   26.9680 C   0  0  2  0  0  0  0  0  0  0  0  0
    9.8132  -16.0101   25.9578 N   0  0  0  0  0  0  0  0  0  0  0  0
   10.3159  -16.2827   28.2430 C   0  0  0  0  0  0  0  0  0  0  0  0
   10.7344  -15.1117   28.2502 O   0  0  0  0  0  0  0  0  0  0  0  0
   10.0943  -16.9320   29.4341 O   0  0  0  0  0  0  0  0  0  0  0  0
  2  1  1  6
  2  7  1  0
  2  3  1  0
  3  4  1  0
  4  5  1  0
  5  6  2  0
  5  9  1  0
  7  8  2  0
  7 10  1  0
 10 11  1  0
 11 12  1  6
 12 13  1  0
 13 14  2  0
 13 18  1  0
 14 15  1  0
 15 16  2  0
 17 16  1  0
 18 17  2  0
 19 26  1  0
 19 11  1  0
 20 19  2  0
 21 22  1  0
 22 23  2  0
 22 24  1  0
 25 24  1  6
 25 26  1  0
 25 27  1  0
 27 29  1  0
 28 27  2  0
M  END
$$$$
