EFN.pdb
     RDKit          3D

 29 29  0  0  1  0  0  0  0  0999 V2000
    8.7702  -18.0209   21.2831 N   0  0  0  0  0  0  0  0  0  0  0  0
   10.1094  -17.4881   21.3122 C   0  0  1  0  0  0  0  0  0  0  0  0
   10.6437  -17.2065   19.9406 C   0  0  0  0  0  0  0  0  0  0  0  0
   10.3181  -18.2582   18.9273 C   0  0  0  0  0  0  0  0  0  0  0  0
   10.8280  -17.8255   17.6106 C   0  0  0  0  0  0  0  0  0  0  0  0
   10.6351  -18.5427   16.5820 O   0  0  0  0  0  0  0  0  0  0  0  0
   10.1496  -16.3337   22.2349 C   0  0  0  0  0  0  0  0  0  0  0  0
   11.2219  -15.7066   22.4227 O   0  0  0  0  0  0  0  0  0  0  0  0
   11.5168  -16.6415   17.4838 O   0  0  0  0  0  0  0  0  0  0  0  0
    9.0019  -15.9087   22.9185 N   0  0  0  0  0  0  0  0  0  0  0  0
    8.9163  -14.8239   23.8699 C   0  0  1  0  0  0  0  0  0  0  0  0
    7.4482  -14.4678   23.9673 C   0  0  0  0  0  0  0  0  0  0  0  0
    7.1246  -13.4744   24.9882 C   0  0  0  0  0  0  0  0  0  0  0  0
    7.6569  -12.2067   25.0160 C   0  0  0  0  0  0  0  0  0  0  0  0
    7.2783  -11.3515   26.0189 C   0  0  0  0  0  0  0  0  0  0  0  0
    6.3817  -11.7105   27.0048 C   0  0  0  0  0  0  0  0  0  0  0  0
    5.8325  -12.9863   26.9946 C   0  0  0  0  0  0  0  0  0  0  0  0
    6.2194  -13.8313   25.9873 C   0  0  0  0  0  0  0  0  0  0  0  0
    9.2815  -15.3655   25.2089 C   0  0  0  0  0  0  0  0  0  0  0  0
    9.2950  -14.6968   26.2571 O   0  0  0  0  0  0  0  0  0  0  0  0
   10.3969  -20.4743   28.0176 N   0  0  0  0  0  0  0  0  0  0  0  0
    9.6786  -19.2262   28.0463 C   0  0  0  0  0  0  0  0  0  0  0  0
    9.5346  -18.6967   29.1756 O   0  0  0  0  0  0  0  0  0  0  0  0
    9.1691  -18.6555   26.7731 C   0  0  0  0  0  0  0  0  0  0  0  0
    9.9835  -17.4145   26.5086 C   0  0  2  0  0  0  0  0  0  0  0  0
    9.6434  -16.7467   25.2963 N   0  0  0  0  0  0  0  0  0  0  0  0
   11.3863  -17.8750   26.4093 C   0  0  0  0  0  0  0  0  0  0  0  0
   12.1689  -17.7461   27.3671 O   0  0  0  0  0  0  0  0  0  0  0  0
   11.8293  -18.4528   25.2434 O   0  0  0  0  0  0  0  0  0  0  0  0
  2  1  1  6
  2  7  1  0
  2  3  1  0
  3  4  1  0
  4  5  1  0
  5  6  2  0
  5  9  1  0
  7  8  2  0
  7 10  1  0
 10 11  1  0
 11 12  1  1
 12 13  1  0
 13 14  2  0
 13 18  1  0
 14 15  1  0
 15 16  2  0
 17 16  1  0
 18 17  2  0
 19 26  1  0
 19 11  1  0
 20 19  2  0
 21 22  1  0
 22 23  2  0
 22 24  1  0
 25 24  1  6
 25 26  1  0
 25 27  1  0
 27 29  1  0
 28 27  2  0
M  END
$$$$
