EFN.pdb
     RDKit          3D

 29 29  0  0  1  0  0  0  0  0999 V2000
   10.3029  -16.7616   19.6511 N   0  0  0  0  0  0  0  0  0  0  0  0
    9.1165  -16.8378   20.4666 C   0  0  1  0  0  0  0  0  0  0  0  0
    8.6436  -18.2468   20.6594 C   0  0  0  0  0  0  0  0  0  0  0  0
    9.5968  -19.1158   21.4177 C   0  0  0  0  0  0  0  0  0  0  0  0
    9.0644  -20.4928   21.4495 C   0  0  0  0  0  0  0  0  0  0  0  0
    9.4654  -21.3541   20.6087 O   0  0  0  0  0  0  0  0  0  0  0  0
    9.3448  -16.0905   21.7217 C   0  0  0  0  0  0  0  0  0  0  0  0
   10.5007  -15.9963   22.2046 O   0  0  0  0  0  0  0  0  0  0  0  0
    8.1289  -20.8578   22.3899 O   0  0  0  0  0  0  0  0  0  0  0  0
    8.2874  -15.4694   22.4008 N   0  0  0  0  0  0  0  0  0  0  0  0
    8.3801  -14.6940   23.6172 C   0  0  1  0  0  0  0  0  0  0  0  0
    7.0680  -13.9489   23.7394 C   0  0  0  0  0  0  0  0  0  0  0  0
    6.9805  -13.0447   24.8832 C   0  0  0  0  0  0  0  0  0  0  0  0
    7.8167  -11.9694   25.0723 C   0  0  0  0  0  0  0  0  0  0  0  0
    7.6414  -11.1812   26.1807 C   0  0  0  0  0  0  0  0  0  0  0  0
    6.6570  -11.4220   27.1175 C   0  0  0  0  0  0  0  0  0  0  0  0
    5.8020  -12.5030   26.9450 C   0  0  0  0  0  0  0  0  0  0  0  0
    5.9880  -13.2830   25.8336 C   0  0  0  0  0  0  0  0  0  0  0  0
    8.4016  -15.6473   24.7618 C   0  0  0  0  0  0  0  0  0  0  0  0
    7.3857  -16.1121   25.3079 O   0  0  0  0  0  0  0  0  0  0  0  0
   11.5535  -19.6665   27.0488 N   0  0  0  0  0  0  0  0  0  0  0  0
   10.1666  -19.4061   26.7603 C   0  0  0  0  0  0  0  0  0  0  0  0
    9.3302  -19.9949   27.4885 O   0  0  0  0  0  0  0  0  0  0  0  0
    9.8199  -18.4800   25.6520 C   0  0  0  0  0  0  0  0  0  0  0  0
    9.8647  -17.0890   26.2320 C   0  0  2  0  0  0  0  0  0  0  0  0
    9.6753  -16.0546   25.2700 N   0  0  0  0  0  0  0  0  0  0  0  0
   11.2189  -16.9447   26.8109 C   0  0  0  0  0  0  0  0  0  0  0  0
   11.4266  -17.1822   28.0137 O   0  0  0  0  0  0  0  0  0  0  0  0
   12.2601  -16.5431   26.0083 O   0  0  0  0  0  0  0  0  0  0  0  0
  2  1  1  1
  2  7  1  0
  2  3  1  0
  3  4  1  0
  4  5  1  0
  5  6  2  0
  5  9  1  0
  7  8  2  0
  7 10  1  0
 10 11  1  0
 11 12  1  1
 12 13  1  0
 13 14  2  0
 13 18  1  0
 14 15  1  0
 15 16  2  0
 17 16  1  0
 18 17  2  0
 19 26  1  0
 19 11  1  0
 20 19  2  0
 21 22  1  0
 22 23  2  0
 22 24  1  0
 25 24  1  6
 25 26  1  0
 25 27  1  0
 27 29  1  0
 28 27  2  0
M  END
$$$$
