EFN.pdb
     RDKit          3D

 29 29  0  0  1  0  0  0  0  0999 V2000
    8.8365  -18.3204   21.4293 N   0  0  0  0  0  0  0  0  0  0  0  0
   10.1507  -17.7304   21.3745 C   0  0  1  0  0  0  0  0  0  0  0  0
   10.6183  -17.5031   19.9689 C   0  0  0  0  0  0  0  0  0  0  0  0
    9.5153  -17.4181   18.9614 C   0  0  0  0  0  0  0  0  0  0  0  0
   10.0934  -17.0586   17.6509 C   0  0  0  0  0  0  0  0  0  0  0  0
   10.9707  -17.8005   17.1127 O   0  0  0  0  0  0  0  0  0  0  0  0
   10.1751  -16.5258   22.2313 C   0  0  0  0  0  0  0  0  0  0  0  0
   11.2176  -15.8307   22.3217 O   0  0  0  0  0  0  0  0  0  0  0  0
    9.6881  -15.9171   16.9989 O   0  0  0  0  0  0  0  0  0  0  0  0
    9.0449  -16.1277   22.9587 N   0  0  0  0  0  0  0  0  0  0  0  0
    8.9564  -15.0122   23.8736 C   0  0  1  0  0  0  0  0  0  0  0  0
    7.4941  -14.6232   23.9189 C   0  0  0  0  0  0  0  0  0  0  0  0
    7.1753  -13.5436   24.8497 C   0  0  0  0  0  0  0  0  0  0  0  0
    7.6952  -12.2740   24.7537 C   0  0  0  0  0  0  0  0  0  0  0  0
    7.3226  -11.3342   25.6801 C   0  0  0  0  0  0  0  0  0  0  0  0
    6.4438  -11.6094   26.7081 C   0  0  0  0  0  0  0  0  0  0  0  0
    5.9074  -12.8855   26.8227 C   0  0  0  0  0  0  0  0  0  0  0  0
    6.2881  -13.8156   25.8909 C   0  0  0  0  0  0  0  0  0  0  0  0
    9.2732  -15.5190   25.2382 C   0  0  0  0  0  0  0  0  0  0  0  0
    9.2253  -14.8298   26.2721 O   0  0  0  0  0  0  0  0  0  0  0  0
    9.0598  -20.3682   28.5112 N   0  0  0  0  0  0  0  0  0  0  0  0
    9.1082  -18.9323   28.4084 C   0  0  0  0  0  0  0  0  0  0  0  0
    9.5231  -18.3189   29.4223 O   0  0  0  0  0  0  0  0  0  0  0  0
    8.6793  -18.2829   27.1433 C   0  0  0  0  0  0  0  0  0  0  0  0
    9.8844  -17.5468   26.6148 C   0  0  2  0  0  0  0  0  0  0  0  0
    9.6610  -16.8897   25.3700 N   0  0  0  0  0  0  0  0  0  0  0  0
   10.9242  -18.5808   26.4157 C   0  0  0  0  0  0  0  0  0  0  0  0
   11.2692  -18.9260   25.2719 O   0  0  0  0  0  0  0  0  0  0  0  0
   11.5159  -19.1667   27.5093 O   0  0  0  0  0  0  0  0  0  0  0  0
  2  1  1  6
  2  7  1  0
  2  3  1  0
  3  4  1  0
  4  5  1  0
  5  6  2  0
  5  9  1  0
  7  8  2  0
  7 10  1  0
 10 11  1  0
 11 12  1  1
 12 13  1  0
 13 14  2  0
 13 18  1  0
 14 15  1  0
 15 16  2  0
 17 16  1  0
 18 17  2  0
 19 26  1  0
 19 11  1  0
 20 19  2  0
 21 22  1  0
 22 23  2  0
 22 24  1  0
 25 24  1  6
 25 26  1  0
 25 27  1  0
 27 29  1  0
 28 27  2  0
M  END
$$$$
