EFN.pdb
     RDKit          3D

 29 29  0  0  1  0  0  0  0  0999 V2000
    8.4757  -18.1313   21.4356 N   0  0  0  0  0  0  0  0  0  0  0  0
    9.8067  -17.5805   21.3797 C   0  0  1  0  0  0  0  0  0  0  0  0
   10.2334  -17.2544   19.9805 C   0  0  0  0  0  0  0  0  0  0  0  0
   10.9790  -18.3551   19.2940 C   0  0  0  0  0  0  0  0  0  0  0  0
   11.3598  -17.9014   17.9413 C   0  0  0  0  0  0  0  0  0  0  0  0
   10.5770  -18.0856   16.9600 O   0  0  0  0  0  0  0  0  0  0  0  0
    9.9019  -16.4510   22.3288 C   0  0  0  0  0  0  0  0  0  0  0  0
   10.9989  -15.8680   22.5157 O   0  0  0  0  0  0  0  0  0  0  0  0
   12.5657  -17.2742   17.7293 O   0  0  0  0  0  0  0  0  0  0  0  0
    8.7800  -16.0011   23.0387 N   0  0  0  0  0  0  0  0  0  0  0  0
    8.7415  -14.9186   23.9959 C   0  0  1  0  0  0  0  0  0  0  0  0
    7.3022  -14.4519   24.0420 C   0  0  0  0  0  0  0  0  0  0  0  0
    7.0290  -13.4023   25.0204 C   0  0  0  0  0  0  0  0  0  0  0  0
    7.6633  -12.1821   25.0288 C   0  0  0  0  0  0  0  0  0  0  0  0
    7.3245  -11.2663   25.9914 C   0  0  0  0  0  0  0  0  0  0  0  0
    6.3694  -11.5180   26.9555 C   0  0  0  0  0  0  0  0  0  0  0  0
    5.7170  -12.7442   26.9644 C   0  0  0  0  0  0  0  0  0  0  0  0
    6.0651  -13.6508   25.9974 C   0  0  0  0  0  0  0  0  0  0  0  0
    9.0138  -15.4945   25.3425 C   0  0  0  0  0  0  0  0  0  0  0  0
    9.3838  -14.8323   26.3279 O   0  0  0  0  0  0  0  0  0  0  0  0
    9.2506  -20.5352   25.3846 N   0  0  0  0  0  0  0  0  0  0  0  0
    8.2507  -19.5059   25.5083 C   0  0  0  0  0  0  0  0  0  0  0  0
    7.5942  -19.2449   24.4703 O   0  0  0  0  0  0  0  0  0  0  0  0
    8.0599  -18.8367   26.8206 C   0  0  0  0  0  0  0  0  0  0  0  0
    8.8782  -17.5711   26.7742 C   0  0  2  0  0  0  0  0  0  0  0  0
    8.8411  -16.9040   25.5153 N   0  0  0  0  0  0  0  0  0  0  0  0
   10.2725  -17.9911   27.0380 C   0  0  0  0  0  0  0  0  0  0  0  0
   11.1679  -17.7915   26.1986 O   0  0  0  0  0  0  0  0  0  0  0  0
   10.5810  -18.6096   28.2261 O   0  0  0  0  0  0  0  0  0  0  0  0
  2  1  1  6
  2  7  1  0
  2  3  1  0
  3  4  1  0
  4  5  1  0
  5  6  2  0
  5  9  1  0
  7  8  2  0
  7 10  1  0
 10 11  1  0
 11 12  1  1
 12 13  1  0
 13 14  2  0
 13 18  1  0
 14 15  1  0
 15 16  2  0
 17 16  1  0
 18 17  2  0
 19 26  1  0
 19 11  1  0
 20 19  2  0
 21 22  1  0
 22 23  2  0
 22 24  1  0
 25 24  1  6
 25 26  1  0
 25 27  1  0
 27 29  1  0
 28 27  2  0
M  END
$$$$
