EFN.pdb
     RDKit          3D

 29 29  0  0  1  0  0  0  0  0999 V2000
   10.5244  -16.6664   19.7111 N   0  0  0  0  0  0  0  0  0  0  0  0
    9.5764  -17.0075   20.7421 C   0  0  1  0  0  0  0  0  0  0  0  0
    9.6319  -18.4583   21.1139 C   0  0  0  0  0  0  0  0  0  0  0  0
   10.9614  -18.9087   21.6319 C   0  0  0  0  0  0  0  0  0  0  0  0
   10.8938  -20.3544   21.9255 C   0  0  0  0  0  0  0  0  0  0  0  0
    9.8034  -20.9868   21.7811 O   0  0  0  0  0  0  0  0  0  0  0  0
    9.7432  -16.0765   21.8784 C   0  0  0  0  0  0  0  0  0  0  0  0
   10.8734  -15.5990   22.1487 O   0  0  0  0  0  0  0  0  0  0  0  0
   12.0103  -21.0317   22.3579 O   0  0  0  0  0  0  0  0  0  0  0  0
    8.6542  -15.7018   22.6775 N   0  0  0  0  0  0  0  0  0  0  0  0
    8.6538  -14.7027   23.7221 C   0  0  1  0  0  0  0  0  0  0  0  0
    7.2238  -14.2198   23.8384 C   0  0  0  0  0  0  0  0  0  0  0  0
    7.0016  -13.2024   24.8629 C   0  0  0  0  0  0  0  0  0  0  0  0
    7.6654  -11.9986   24.9003 C   0  0  0  0  0  0  0  0  0  0  0  0
    7.3739  -11.1128   25.9056 C   0  0  0  0  0  0  0  0  0  0  0  0
    6.4383  -11.3791   26.8847 C   0  0  0  0  0  0  0  0  0  0  0  0
    5.7568  -12.5892   26.8648 C   0  0  0  0  0  0  0  0  0  0  0  0
    6.0576  -13.4658   25.8552 C   0  0  0  0  0  0  0  0  0  0  0  0
    8.9439  -15.3932   25.0099 C   0  0  0  0  0  0  0  0  0  0  0  0
    8.9209  -14.8409   26.1237 O   0  0  0  0  0  0  0  0  0  0  0  0
   10.8275  -19.9707   23.9035 N   0  0  0  0  0  0  0  0  0  0  0  0
   10.7293  -19.3793   25.2132 C   0  0  0  0  0  0  0  0  0  0  0  0
   11.8161  -19.1333   25.7918 O   0  0  0  0  0  0  0  0  0  0  0  0
    9.3858  -19.1012   25.7824 C   0  0  0  0  0  0  0  0  0  0  0  0
    9.3599  -17.6294   26.1086 C   0  0  2  0  0  0  0  0  0  0  0  0
    9.2737  -16.7845   24.9641 N   0  0  0  0  0  0  0  0  0  0  0  0
   10.6411  -17.3534   26.7960 C   0  0  0  0  0  0  0  0  0  0  0  0
   11.4818  -16.5871   26.2936 O   0  0  0  0  0  0  0  0  0  0  0  0
   10.9045  -17.9520   28.0050 O   0  0  0  0  0  0  0  0  0  0  0  0
  2  1  1  6
  2  7  1  0
  2  3  1  0
  3  4  1  0
  4  5  1  0
  5  6  2  0
  5  9  1  0
  7  8  2  0
  7 10  1  0
 10 11  1  0
 11 12  1  1
 12 13  1  0
 13 14  2  0
 13 18  1  0
 14 15  1  0
 15 16  2  0
 17 16  1  0
 18 17  2  0
 19 26  1  0
 19 11  1  0
 20 19  2  0
 21 22  1  0
 22 23  2  0
 22 24  1  0
 25 24  1  6
 25 26  1  0
 25 27  1  0
 27 29  1  0
 28 27  2  0
M  END
$$$$
