EFN.pdb
     RDKit          3D

 29 29  0  0  1  0  0  0  0  0999 V2000
    9.3614  -16.0804   19.2238 N   0  0  0  0  0  0  0  0  0  0  0  0
    8.3494  -16.3563   20.2127 C   0  0  1  0  0  0  0  0  0  0  0  0
    7.8803  -17.7791   20.1706 C   0  0  0  0  0  0  0  0  0  0  0  0
    8.7864  -18.7020   19.4183 C   0  0  0  0  0  0  0  0  0  0  0  0
    8.1628  -20.0394   19.3600 C   0  0  0  0  0  0  0  0  0  0  0  0
    8.7722  -21.0067   18.8099 O   0  0  0  0  0  0  0  0  0  0  0  0
    8.8332  -15.9090   21.5361 C   0  0  0  0  0  0  0  0  0  0  0  0
   10.0596  -15.7230   21.7354 O   0  0  0  0  0  0  0  0  0  0  0  0
    6.9160  -20.2522   19.9009 O   0  0  0  0  0  0  0  0  0  0  0  0
    7.9447  -15.6797   22.5958 N   0  0  0  0  0  0  0  0  0  0  0  0
    8.2870  -15.2360   23.9283 C   0  0  1  0  0  0  0  0  0  0  0  0
    6.9898  -14.7855   24.5653 C   0  0  0  0  0  0  0  0  0  0  0  0
    7.1161  -13.6519   25.4779 C   0  0  0  0  0  0  0  0  0  0  0  0
    6.1037  -12.7548   25.7260 C   0  0  0  0  0  0  0  0  0  0  0  0
    6.3293  -11.7289   26.6075 C   0  0  0  0  0  0  0  0  0  0  0  0
    7.5339  -11.5586   27.2592 C   0  0  0  0  0  0  0  0  0  0  0  0
    8.5693  -12.4538   27.0226 C   0  0  0  0  0  0  0  0  0  0  0  0
    8.3310  -13.4742   26.1393 C   0  0  0  0  0  0  0  0  0  0  0  0
    8.7161  -16.4310   24.7076 C   0  0  0  0  0  0  0  0  0  0  0  0
    8.0168  -17.4445   24.8811 O   0  0  0  0  0  0  0  0  0  0  0  0
   13.6399  -17.3551   24.1127 N   0  0  0  0  0  0  0  0  0  0  0  0
   12.4344  -17.9040   24.6783 C   0  0  0  0  0  0  0  0  0  0  0  0
   11.7718  -18.6676   23.9337 O   0  0  0  0  0  0  0  0  0  0  0  0
   12.0604  -17.5459   26.0705 C   0  0  0  0  0  0  0  0  0  0  0  0
   10.5551  -17.4638   26.0975 C   0  0  2  0  0  0  0  0  0  0  0  0
   10.0186  -16.4124   25.2988 N   0  0  0  0  0  0  0  0  0  0  0  0
   10.1978  -17.2046   27.5100 C   0  0  0  0  0  0  0  0  0  0  0  0
    9.8177  -18.1280   28.2511 O   0  0  0  0  0  0  0  0  0  0  0  0
   10.2877  -15.9269   28.0087 O   0  0  0  0  0  0  0  0  0  0  0  0
  2  1  1  6
  2  7  1  0
  2  3  1  0
  3  4  1  0
  4  5  1  0
  5  6  2  0
  5  9  1  0
  7  8  2  0
  7 10  1  0
 10 11  1  0
 11 12  1  1
 12 13  1  0
 13 14  2  0
 13 18  1  0
 14 15  1  0
 15 16  2  0
 17 16  1  0
 18 17  2  0
 19 26  1  0
 19 11  1  0
 20 19  2  0
 21 22  1  0
 22 23  2  0
 22 24  1  0
 25 24  1  1
 25 26  1  0
 25 27  1  0
 27 29  1  0
 28 27  2  0
M  END
$$$$
