EFN.pdb
     RDKit          3D

 29 29  0  0  1  0  0  0  0  0999 V2000
    8.3542  -17.9791   20.4105 N   0  0  0  0  0  0  0  0  0  0  0  0
    9.6920  -17.4421   20.3969 C   0  0  1  0  0  0  0  0  0  0  0  0
   10.1199  -17.0054   19.0285 C   0  0  0  0  0  0  0  0  0  0  0  0
    9.5446  -17.8232   17.9155 C   0  0  0  0  0  0  0  0  0  0  0  0
    9.9824  -17.2496   16.6270 C   0  0  0  0  0  0  0  0  0  0  0  0
    9.1459  -16.6785   15.8630 O   0  0  0  0  0  0  0  0  0  0  0  0
    9.8032  -16.3971   21.4368 C   0  0  0  0  0  0  0  0  0  0  0  0
   10.8607  -15.7297   21.5572 O   0  0  0  0  0  0  0  0  0  0  0  0
   11.3004  -17.3273   16.2405 O   0  0  0  0  0  0  0  0  0  0  0  0
    8.7403  -16.1225   22.3085 N   0  0  0  0  0  0  0  0  0  0  0  0
    8.7833  -15.2824   23.4839 C   0  0  1  0  0  0  0  0  0  0  0  0
    7.4068  -14.6646   23.6071 C   0  0  0  0  0  0  0  0  0  0  0  0
    7.2291  -13.7883   24.7623 C   0  0  0  0  0  0  0  0  0  0  0  0
    7.8854  -12.5901   24.9200 C   0  0  0  0  0  0  0  0  0  0  0  0
    7.6385  -11.8428   26.0429 C   0  0  0  0  0  0  0  0  0  0  0  0
    6.7553  -12.2435   27.0248 C   0  0  0  0  0  0  0  0  0  0  0  0
    6.0822  -13.4504   26.8845 C   0  0  0  0  0  0  0  0  0  0  0  0
    6.3381  -14.1879   25.7580 C   0  0  0  0  0  0  0  0  0  0  0  0
    8.9256  -16.1710   24.6712 C   0  0  0  0  0  0  0  0  0  0  0  0
    8.1238  -17.0718   24.9743 O   0  0  0  0  0  0  0  0  0  0  0  0
   11.1990  -18.5183   24.7948 N   0  0  0  0  0  0  0  0  0  0  0  0
   12.2342  -18.0295   25.6688 C   0  0  0  0  0  0  0  0  0  0  0  0
   13.3952  -18.4494   25.4400 O   0  0  0  0  0  0  0  0  0  0  0  0
   11.8759  -17.0823   26.7554 C   0  0  0  0  0  0  0  0  0  0  0  0
   10.3974  -16.8200   26.6188 C   0  0  2  0  0  0  0  0  0  0  0  0
   10.0586  -15.9750   25.5222 N   0  0  0  0  0  0  0  0  0  0  0  0
    9.9983  -16.1404   27.8713 C   0  0  0  0  0  0  0  0  0  0  0  0
    9.6793  -14.9385   27.8706 O   0  0  0  0  0  0  0  0  0  0  0  0
    9.9801  -16.8472   29.0501 O   0  0  0  0  0  0  0  0  0  0  0  0
  2  1  1  6
  2  7  1  0
  2  3  1  0
  3  4  1  0
  4  5  1  0
  5  6  2  0
  5  9  1  0
  7  8  2  0
  7 10  1  0
 10 11  1  0
 11 12  1  1
 12 13  1  0
 13 14  2  0
 13 18  1  0
 14 15  1  0
 15 16  2  0
 17 16  1  0
 18 17  2  0
 19 26  1  0
 19 11  1  0
 20 19  2  0
 21 22  1  0
 22 23  2  0
 22 24  1  0
 25 24  1  1
 25 26  1  0
 25 27  1  0
 27 29  1  0
 28 27  2  0
M  END
$$$$
