EFN.pdb
     RDKit          3D

 29 29  0  0  1  0  0  0  0  0999 V2000
    8.5162  -15.3074   19.2990 N   0  0  0  0  0  0  0  0  0  0  0  0
    8.4365  -16.2071   20.4226 C   0  0  1  0  0  0  0  0  0  0  0  0
    9.1180  -17.5154   20.1581 C   0  0  0  0  0  0  0  0  0  0  0  0
    8.8869  -18.0610   18.7842 C   0  0  0  0  0  0  0  0  0  0  0  0
    9.4640  -19.4182   18.7070 C   0  0  0  0  0  0  0  0  0  0  0  0
    9.6192  -20.1089   19.7599 O   0  0  0  0  0  0  0  0  0  0  0  0
    8.9055  -15.5058   21.6366 C   0  0  0  0  0  0  0  0  0  0  0  0
    9.9227  -14.7698   21.5930 O   0  0  0  0  0  0  0  0  0  0  0  0
    9.8394  -19.9490   17.4947 O   0  0  0  0  0  0  0  0  0  0  0  0
    8.2328  -15.6393   22.8592 N   0  0  0  0  0  0  0  0  0  0  0  0
    8.5799  -15.0017   24.1092 C   0  0  1  0  0  0  0  0  0  0  0  0
    7.2724  -14.7611   24.8332 C   0  0  0  0  0  0  0  0  0  0  0  0
    7.1421  -13.4391   25.4409 C   0  0  0  0  0  0  0  0  0  0  0  0
    8.1415  -12.4944   25.4356 C   0  0  0  0  0  0  0  0  0  0  0  0
    7.9092  -11.2815   26.0315 C   0  0  0  0  0  0  0  0  0  0  0  0
    6.7098  -10.9673   26.6379 C   0  0  0  0  0  0  0  0  0  0  0  0
    5.6875  -11.9075   26.6540 C   0  0  0  0  0  0  0  0  0  0  0  0
    5.9327  -13.1158   26.0555 C   0  0  0  0  0  0  0  0  0  0  0  0
    9.3133  -15.9987   24.9382 C   0  0  0  0  0  0  0  0  0  0  0  0
    9.5894  -15.8450   26.1409 O   0  0  0  0  0  0  0  0  0  0  0  0
   10.5126  -21.5969   23.8474 N   0  0  0  0  0  0  0  0  0  0  0  0
   11.0954  -20.5139   24.5970 C   0  0  0  0  0  0  0  0  0  0  0  0
   11.4978  -20.7948   25.7527 O   0  0  0  0  0  0  0  0  0  0  0  0
   11.1855  -19.1688   23.9734 C   0  0  0  0  0  0  0  0  0  0  0  0
   10.5346  -18.2098   24.9378 C   0  0  2  0  0  0  0  0  0  0  0  0
    9.7311  -17.2141   24.3100 N   0  0  0  0  0  0  0  0  0  0  0  0
   11.6497  -17.5350   25.6386 C   0  0  0  0  0  0  0  0  0  0  0  0
   12.1181  -18.0039   26.6909 O   0  0  0  0  0  0  0  0  0  0  0  0
   12.1742  -16.3754   25.1193 O   0  0  0  0  0  0  0  0  0  0  0  0
  2  1  1  6
  2  7  1  0
  2  3  1  0
  3  4  1  0
  4  5  1  0
  5  6  2  0
  5  9  1  0
  7  8  2  0
  7 10  1  0
 10 11  1  0
 11 12  1  1
 12 13  1  0
 13 14  2  0
 13 18  1  0
 14 15  1  0
 15 16  2  0
 17 16  1  0
 18 17  2  0
 19 26  1  0
 19 11  1  0
 20 19  2  0
 21 22  1  0
 22 23  2  0
 22 24  1  0
 25 24  1  6
 25 26  1  0
 25 27  1  0
 27 29  1  0
 28 27  2  0
M  END
$$$$
