EFN.pdb
     RDKit          3D

 29 29  0  0  1  0  0  0  0  0999 V2000
    8.3880  -17.9740   20.4831 N   0  0  0  0  0  0  0  0  0  0  0  0
    9.7317  -17.4525   20.4539 C   0  0  1  0  0  0  0  0  0  0  0  0
   10.1445  -17.0095   19.0830 C   0  0  0  0  0  0  0  0  0  0  0  0
    9.1873  -17.3948   17.9994 C   0  0  0  0  0  0  0  0  0  0  0  0
    9.6662  -16.8352   16.7194 C   0  0  0  0  0  0  0  0  0  0  0  0
    9.4572  -15.6165   16.4351 O   0  0  0  0  0  0  0  0  0  0  0  0
    9.8705  -16.4177   21.5005 C   0  0  0  0  0  0  0  0  0  0  0  0
   10.9554  -15.8009   21.6452 O   0  0  0  0  0  0  0  0  0  0  0  0
   10.3437  -17.6272   15.8215 O   0  0  0  0  0  0  0  0  0  0  0  0
    8.8042  -16.0967   22.3519 N   0  0  0  0  0  0  0  0  0  0  0  0
    8.8782  -15.3354   23.5785 C   0  0  1  0  0  0  0  0  0  0  0  0
    7.5805  -14.5613   23.6693 C   0  0  0  0  0  0  0  0  0  0  0  0
    7.4706  -13.6827   24.8311 C   0  0  0  0  0  0  0  0  0  0  0  0
    8.4475  -12.7920   25.2101 C   0  0  0  0  0  0  0  0  0  0  0  0
    8.2371  -12.0097   26.3165 C   0  0  0  0  0  0  0  0  0  0  0  0
    7.0816  -12.0783   27.0681 C   0  0  0  0  0  0  0  0  0  0  0  0
    6.0826  -12.9713   26.7021 C   0  0  0  0  0  0  0  0  0  0  0  0
    6.3055  -13.7475   25.5948 C   0  0  0  0  0  0  0  0  0  0  0  0
    8.8435  -16.3000   24.7133 C   0  0  0  0  0  0  0  0  0  0  0  0
    7.8641  -17.0096   25.0022 O   0  0  0  0  0  0  0  0  0  0  0  0
   12.4160  -18.7755   24.1053 N   0  0  0  0  0  0  0  0  0  0  0  0
   11.5161  -19.0063   25.2059 C   0  0  0  0  0  0  0  0  0  0  0  0
   10.7278  -19.9756   25.0819 O   0  0  0  0  0  0  0  0  0  0  0  0
   11.5760  -18.1104   26.3892 C   0  0  0  0  0  0  0  0  0  0  0  0
   10.2249  -17.4486   26.4889 C   0  0  2  0  0  0  0  0  0  0  0  0
   10.0134  -16.4174   25.5281 N   0  0  0  0  0  0  0  0  0  0  0  0
   10.1786  -16.8442   27.8389 C   0  0  0  0  0  0  0  0  0  0  0  0
   10.2148  -17.5564   28.8577 O   0  0  0  0  0  0  0  0  0  0  0  0
   10.0946  -15.4783   27.9678 O   0  0  0  0  0  0  0  0  0  0  0  0
  2  1  1  6
  2  7  1  0
  2  3  1  0
  3  4  1  0
  4  5  1  0
  5  6  2  0
  5  9  1  0
  7  8  2  0
  7 10  1  0
 10 11  1  0
 11 12  1  1
 12 13  1  0
 13 14  2  0
 13 18  1  0
 14 15  1  0
 15 16  2  0
 17 16  1  0
 18 17  2  0
 19 26  1  0
 19 11  1  0
 20 19  2  0
 21 22  1  0
 22 23  2  0
 22 24  1  0
 25 24  1  6
 25 26  1  0
 25 27  1  0
 27 29  1  0
 28 27  2  0
M  END
$$$$
