EFN.pdb
     RDKit          3D

 29 29  0  0  1  0  0  0  0  0999 V2000
    7.9013  -13.6383   19.1070 N   0  0  0  0  0  0  0  0  0  0  0  0
    7.2276  -14.4647   20.0773 C   0  0  1  0  0  0  0  0  0  0  0  0
    6.9204  -15.8333   19.5494 C   0  0  0  0  0  0  0  0  0  0  0  0
    8.1160  -16.7236   19.4196 C   0  0  0  0  0  0  0  0  0  0  0  0
    7.6897  -18.0121   18.8373 C   0  0  0  0  0  0  0  0  0  0  0  0
    7.9156  -18.2686   17.6155 O   0  0  0  0  0  0  0  0  0  0  0  0
    7.9978  -14.4529   21.3392 C   0  0  0  0  0  0  0  0  0  0  0  0
    9.2014  -14.0927   21.3464 O   0  0  0  0  0  0  0  0  0  0  0  0
    7.0440  -18.9482   19.6114 O   0  0  0  0  0  0  0  0  0  0  0  0
    7.4113  -14.8376   22.5529 N   0  0  0  0  0  0  0  0  0  0  0  0
    8.0137  -14.7620   23.8647 C   0  0  1  0  0  0  0  0  0  0  0  0
    6.8684  -14.6111   24.8429 C   0  0  0  0  0  0  0  0  0  0  0  0
    6.9342  -13.4194   25.6851 C   0  0  0  0  0  0  0  0  0  0  0  0
    7.9555  -12.5001   25.6290 C   0  0  0  0  0  0  0  0  0  0  0  0
    7.9137  -11.4123   26.4628 C   0  0  0  0  0  0  0  0  0  0  0  0
    6.8856  -11.2000   27.3589 C   0  0  0  0  0  0  0  0  0  0  0  0
    5.8445  -12.1166   27.4311 C   0  0  0  0  0  0  0  0  0  0  0  0
    5.8984  -13.1994   26.5927 C   0  0  0  0  0  0  0  0  0  0  0  0
    8.6168  -16.0910   24.1637 C   0  0  0  0  0  0  0  0  0  0  0  0
    7.9840  -17.1613   24.1818 O   0  0  0  0  0  0  0  0  0  0  0  0
   12.9447  -16.0113   22.4568 N   0  0  0  0  0  0  0  0  0  0  0  0
   12.3410  -17.1817   23.0400 C   0  0  0  0  0  0  0  0  0  0  0  0
   11.9674  -18.0704   22.2356 O   0  0  0  0  0  0  0  0  0  0  0  0
   12.2038  -17.2651   24.5167 C   0  0  0  0  0  0  0  0  0  0  0  0
   10.7246  -17.3278   24.8023 C   0  0  2  0  0  0  0  0  0  0  0  0
   10.0170  -16.1412   24.4521 N   0  0  0  0  0  0  0  0  0  0  0  0
   10.6116  -17.5232   26.2648 C   0  0  0  0  0  0  0  0  0  0  0  0
   10.0328  -16.6842   26.9771 O   0  0  0  0  0  0  0  0  0  0  0  0
   11.1533  -18.6466   26.8426 O   0  0  0  0  0  0  0  0  0  0  0  0
  2  1  1  6
  2  7  1  0
  2  3  1  0
  3  4  1  0
  4  5  1  0
  5  6  2  0
  5  9  1  0
  7  8  2  0
  7 10  1  0
 10 11  1  0
 11 12  1  1
 12 13  1  0
 13 14  2  0
 13 18  1  0
 14 15  1  0
 15 16  2  0
 17 16  1  0
 18 17  2  0
 19 26  1  0
 19 11  1  0
 20 19  2  0
 21 22  1  0
 22 23  2  0
 22 24  1  0
 25 24  1  1
 25 26  1  0
 25 27  1  0
 27 29  1  0
 28 27  2  0
M  END
$$$$
