EFN.pdb
     RDKit          3D

 29 29  0  0  1  0  0  0  0  0999 V2000
   10.2805  -16.8712   19.8313 N   0  0  0  0  0  0  0  0  0  0  0  0
    9.1185  -17.0842   20.6575 C   0  0  1  0  0  0  0  0  0  0  0  0
    8.7402  -18.5313   20.7517 C   0  0  0  0  0  0  0  0  0  0  0  0
    8.6304  -19.2242   19.4301 C   0  0  0  0  0  0  0  0  0  0  0  0
    7.2047  -19.3125   19.0552 C   0  0  0  0  0  0  0  0  0  0  0  0
    6.3711  -19.8680   19.8337 O   0  0  0  0  0  0  0  0  0  0  0  0
    9.3245  -16.4181   21.9612 C   0  0  0  0  0  0  0  0  0  0  0  0
   10.4564  -16.4232   22.5061 O   0  0  0  0  0  0  0  0  0  0  0  0
    6.7642  -18.7940   17.8596 O   0  0  0  0  0  0  0  0  0  0  0  0
    8.2724  -15.7659   22.6189 N   0  0  0  0  0  0  0  0  0  0  0  0
    8.3373  -15.0976   23.8991 C   0  0  1  0  0  0  0  0  0  0  0  0
    7.3416  -13.9595   23.8278 C   0  0  0  0  0  0  0  0  0  0  0  0
    7.2243  -13.1699   25.0511 C   0  0  0  0  0  0  0  0  0  0  0  0
    8.2309  -12.3742   25.5459 C   0  0  0  0  0  0  0  0  0  0  0  0
    8.0105  -11.6698   26.7016 C   0  0  0  0  0  0  0  0  0  0  0  0
    6.8164  -11.7254   27.3913 C   0  0  0  0  0  0  0  0  0  0  0  0
    5.7869  -12.5230   26.9082 C   0  0  0  0  0  0  0  0  0  0  0  0
    6.0201  -13.2221   25.7527 C   0  0  0  0  0  0  0  0  0  0  0  0
    7.7970  -16.0320   24.9259 C   0  0  0  0  0  0  0  0  0  0  0  0
    6.7162  -16.6384   24.8244 O   0  0  0  0  0  0  0  0  0  0  0  0
    7.0310  -19.3222   26.0641 N   0  0  0  0  0  0  0  0  0  0  0  0
    8.3164  -19.5093   25.4419 C   0  0  0  0  0  0  0  0  0  0  0  0
    8.4303  -20.5154   24.6993 O   0  0  0  0  0  0  0  0  0  0  0  0
    9.3981  -18.5262   25.7065 C   0  0  0  0  0  0  0  0  0  0  0  0
    8.8318  -17.5249   26.6812 C   0  0  2  0  0  0  0  0  0  0  0  0
    8.5708  -16.2454   26.1101 N   0  0  0  0  0  0  0  0  0  0  0  0
    9.8641  -17.3653   27.7295 C   0  0  0  0  0  0  0  0  0  0  0  0
    9.6580  -17.7567   28.8917 O   0  0  0  0  0  0  0  0  0  0  0  0
   11.0657  -16.7771   27.4140 O   0  0  0  0  0  0  0  0  0  0  0  0
  2  1  1  6
  2  7  1  0
  2  3  1  0
  3  4  1  0
  4  5  1  0
  5  6  2  0
  5  9  1  0
  7  8  2  0
  7 10  1  0
 10 11  1  0
 11 12  1  6
 12 13  1  0
 13 14  2  0
 13 18  1  0
 14 15  1  0
 15 16  2  0
 17 16  1  0
 18 17  2  0
 19 26  1  0
 19 11  1  0
 20 19  2  0
 21 22  1  0
 22 23  2  0
 22 24  1  0
 25 24  1  6
 25 26  1  0
 25 27  1  0
 27 29  1  0
 28 27  2  0
M  END
$$$$
