FSR.pdb
     RDKit          3D

 29 29  0  0  1  0  0  0  0  0999 V2000
   23.4772  -10.1299  -14.5920 N   0  0  0  0  0  0  0  0  0  0  0  0
   22.4806   -9.2809  -15.2205 C   0  0  1  0  0  0  0  0  0  0  0  0
   21.3740  -10.1752  -15.6860 C   0  0  0  0  0  0  0  0  0  0  0  0
   21.7611  -10.9897  -16.8655 C   0  0  0  0  0  0  0  0  0  0  0  0
   21.8428  -10.4511  -18.1368 C   0  0  0  0  0  0  0  0  0  0  0  0
   22.2065  -11.2278  -19.2346 C   0  0  0  0  0  0  0  0  0  0  0  0
   22.4921  -12.5486  -19.0751 C   0  0  0  0  0  0  0  0  0  0  0  0
   22.4206  -13.1114  -17.8318 C   0  0  0  0  0  0  0  0  0  0  0  0
   22.0631  -12.3436  -16.7584 C   0  0  0  0  0  0  0  0  0  0  0  0
   22.0979   -8.2484  -14.2826 C   0  0  0  0  0  0  0  0  0  0  0  0
   21.6951   -8.5457  -13.1297 O   0  0  0  0  0  0  0  0  0  0  0  0
   22.0183   -4.1253  -15.4860 O   0  0  0  0  0  0  0  0  0  0  0  0
   22.3026   -4.4630  -14.1663 C   0  0  0  0  0  0  0  0  0  0  0  0
   21.7427   -5.8091  -13.7697 C   0  0  2  0  0  0  0  0  0  0  0  0
   22.1696   -6.8647  -14.6479 N   0  0  0  0  0  0  0  0  0  0  0  0
   20.2486   -5.6805  -13.7595 C   0  0  0  0  0  0  0  0  0  0  0  0
   19.6276   -5.9434  -14.8006 O   0  0  0  0  0  0  0  0  0  0  0  0
   14.3711   -7.3080   -7.4205 N   0  0  0  0  0  0  0  0  0  0  0  0
   13.6493   -6.8948   -8.5686 C   0  0  0  0  0  0  0  0  0  0  0  0
   12.3525   -7.0270   -8.5563 N   0  0  0  0  0  0  0  0  0  0  0  0
   14.2745   -6.3478   -9.7216 N   0  0  0  0  0  0  0  0  0  0  0  0
   15.7229   -6.2890   -9.7894 C   0  0  0  0  0  0  0  0  0  0  0  0
   16.1638   -5.6474  -11.1010 C   0  0  0  0  0  0  0  0  0  0  0  0
   17.6517   -5.6870  -11.2435 C   0  0  0  0  0  0  0  0  0  0  0  0
   18.2049   -5.0411  -12.4549 C   0  0  2  0  0  0  0  0  0  0  0  0
   19.6176   -5.2696  -12.5741 N   0  0  0  0  0  0  0  0  0  0  0  0
   17.7824   -3.6399  -12.6948 C   0  0  0  0  0  0  0  0  0  0  0  0
   16.6230   -3.4003  -13.4087 O   0  0  0  0  0  0  0  0  0  0  0  0
   18.4024   -2.6335  -12.2910 O   0  0  0  0  0  0  0  0  0  0  0  0
  2  1  1  1
  2 10  1  0
  3  2  1  0
  4  3  1  0
  4  9  2  0
  5  4  1  0
  6  5  2  0
  6  7  1  0
  7  8  2  0
  8  9  1  0
 10 11  2  0
 13 12  1  0
 14 13  1  6
 14 16  1  0
 15 14  1  0
 15 10  1  0
 16 26  1  0
 16 17  2  0
 18 19  1  0
 19 21  1  0
 19 20  2  0
 21 22  1  0
 22 23  1  0
 23 24  1  0
 25 24  1  1
 25 27  1  0
 26 25  1  0
 27 29  2  0
 27 28  1  0
M  END
$$$$
