FSR.pdb
     RDKit          3D

 29 29  0  0  1  0  0  0  0  0999 V2000
   27.7801  -21.3765  -16.5384 N   0  0  0  0  0  0  0  0  0  0  0  0
   27.2801  -20.4797  -15.5113 C   0  0  1  0  0  0  0  0  0  0  0  0
   26.7875  -19.2489  -16.2066 C   0  0  0  0  0  0  0  0  0  0  0  0
   27.8788  -18.5059  -16.8859 C   0  0  0  0  0  0  0  0  0  0  0  0
   28.9791  -18.0245  -16.1999 C   0  0  0  0  0  0  0  0  0  0  0  0
   29.9953  -17.3282  -16.8504 C   0  0  0  0  0  0  0  0  0  0  0  0
   29.9239  -17.1053  -18.1908 C   0  0  0  0  0  0  0  0  0  0  0  0
   28.8497  -17.5680  -18.8978 C   0  0  0  0  0  0  0  0  0  0  0  0
   27.8557  -18.2508  -18.2534 C   0  0  0  0  0  0  0  0  0  0  0  0
   26.2970  -21.1876  -14.7210 C   0  0  0  0  0  0  0  0  0  0  0  0
   25.6397  -22.1382  -15.2151 O   0  0  0  0  0  0  0  0  0  0  0  0
   25.1072  -19.7232  -10.8782 O   0  0  0  0  0  0  0  0  0  0  0  0
   25.1684  -21.0977  -11.0862 C   0  0  0  0  0  0  0  0  0  0  0  0
   25.0640  -21.4773  -12.5449 C   0  0  2  0  0  0  0  0  0  0  0  0
   26.0512  -20.8200  -13.3580 N   0  0  0  0  0  0  0  0  0  0  0  0
   23.6743  -21.1344  -12.9923 C   0  0  0  0  0  0  0  0  0  0  0  0
   23.4685  -20.0048  -13.4617 O   0  0  0  0  0  0  0  0  0  0  0  0
   16.3400  -23.3924  -11.8745 N   0  0  0  0  0  0  0  0  0  0  0  0
   16.0569  -23.7699  -13.2113 C   0  0  0  0  0  0  0  0  0  0  0  0
   14.8326  -23.6360  -13.6386 N   0  0  0  0  0  0  0  0  0  0  0  0
   17.0426  -24.2835  -14.0968 N   0  0  0  0  0  0  0  0  0  0  0  0
   18.4166  -24.4028  -13.6453 C   0  0  0  0  0  0  0  0  0  0  0  0
   19.0951  -23.0369  -13.6543 C   0  0  0  0  0  0  0  0  0  0  0  0
   20.5286  -23.1478  -13.2440 C   0  0  0  0  0  0  0  0  0  0  0  0
   21.2879  -21.8785  -13.1891 C   0  0  2  0  0  0  0  0  0  0  0  0
   22.6677  -22.1048  -12.8620 N   0  0  0  0  0  0  0  0  0  0  0  0
   20.6481  -20.7703  -12.4394 C   0  0  0  0  0  0  0  0  0  0  0  0
   19.7483  -19.9485  -13.0924 O   0  0  0  0  0  0  0  0  0  0  0  0
   20.8584  -20.5150  -11.2348 O   0  0  0  0  0  0  0  0  0  0  0  0
  2  1  1  6
  2 10  1  0
  3  2  1  0
  4  3  1  0
  4  9  2  0
  5  4  1  0
  6  5  2  0
  6  7  1  0
  7  8  2  0
  8  9  1  0
 10 11  2  0
 13 12  1  0
 14 13  1  1
 14 16  1  0
 15 14  1  0
 15 10  1  0
 16 26  1  0
 16 17  2  0
 18 19  1  0
 19 21  1  0
 19 20  2  0
 21 22  1  0
 22 23  1  0
 23 24  1  0
 25 24  1  1
 25 27  1  0
 26 25  1  0
 27 29  2  0
 27 28  1  0
M  END
$$$$
