FSR.pdb
     RDKit          3D

 29 29  0  0  1  0  0  0  0  0999 V2000
   23.6780  -20.5161  -14.5541 N   0  0  0  0  0  0  0  0  0  0  0  0
   22.4438  -19.8000  -14.8243 C   0  0  1  0  0  0  0  0  0  0  0  0
   22.0667  -20.0970  -16.2423 C   0  0  0  0  0  0  0  0  0  0  0  0
   23.0084  -19.4926  -17.2182 C   0  0  0  0  0  0  0  0  0  0  0  0
   23.9069  -20.2546  -17.9426 C   0  0  0  0  0  0  0  0  0  0  0  0
   24.7854  -19.6735  -18.8544 C   0  0  0  0  0  0  0  0  0  0  0  0
   24.7761  -18.3273  -19.0523 C   0  0  0  0  0  0  0  0  0  0  0  0
   23.9004  -17.5460  -18.3521 C   0  0  0  0  0  0  0  0  0  0  0  0
   23.0407  -18.1226  -17.4586 C   0  0  0  0  0  0  0  0  0  0  0  0
   21.4666  -20.1740  -13.8257 C   0  0  0  0  0  0  0  0  0  0  0  0
   21.4755  -21.3236  -13.3176 O   0  0  0  0  0  0  0  0  0  0  0  0
   18.4091  -17.4916  -13.1379 O   0  0  0  0  0  0  0  0  0  0  0  0
   18.5347  -18.4314  -12.1194 C   0  0  0  0  0  0  0  0  0  0  0  0
   19.3957  -19.6102  -12.5093 C   0  0  2  0  0  0  0  0  0  0  0  0
   20.4673  -19.2419  -13.3946 N   0  0  0  0  0  0  0  0  0  0  0  0
   18.4925  -20.6269  -13.1415 C   0  0  0  0  0  0  0  0  0  0  0  0
   18.9536  -21.3465  -14.0405 O   0  0  0  0  0  0  0  0  0  0  0  0
   19.2724  -24.3227   -7.3532 N   0  0  0  0  0  0  0  0  0  0  0  0
   17.9098  -24.7133   -7.3314 C   0  0  0  0  0  0  0  0  0  0  0  0
   17.3549  -24.9333   -6.1725 N   0  0  0  0  0  0  0  0  0  0  0  0
   17.1307  -24.8738   -8.5090 N   0  0  0  0  0  0  0  0  0  0  0  0
   17.6723  -24.4515   -9.7875 C   0  0  0  0  0  0  0  0  0  0  0  0
   16.7128  -23.4843  -10.4731 C   0  0  0  0  0  0  0  0  0  0  0  0
   17.3176  -22.9230  -11.7200 C   0  0  0  0  0  0  0  0  0  0  0  0
   16.4790  -21.9635  -12.4729 C   0  0  2  0  0  0  0  0  0  0  0  0
   17.1664  -20.7214  -12.6892 N   0  0  0  0  0  0  0  0  0  0  0  0
   15.0773  -21.8224  -12.0096 C   0  0  0  0  0  0  0  0  0  0  0  0
   14.0823  -22.5369  -12.6506 O   0  0  0  0  0  0  0  0  0  0  0  0
   14.7139  -21.0954  -11.0610 O   0  0  0  0  0  0  0  0  0  0  0  0
  2  1  1  1
  2 10  1  0
  3  2  1  0
  4  3  1  0
  4  9  2  0
  5  4  1  0
  6  5  2  0
  6  7  1  0
  7  8  2  0
  8  9  1  0
 10 11  2  0
 13 12  1  0
 14 13  1  6
 14 16  1  0
 15 14  1  0
 15 10  1  0
 16 26  1  0
 16 17  2  0
 18 19  1  0
 19 21  1  0
 19 20  2  0
 21 22  1  0
 22 23  1  0
 23 24  1  0
 25 24  1  1
 25 27  1  0
 26 25  1  0
 27 29  2  0
 27 28  1  0
M  END
$$$$
