FSR.pdb
     RDKit          3D

 29 29  0  0  1  0  0  0  0  0999 V2000
   27.3000  -19.9920   -9.3475 N   0  0  0  0  0  0  0  0  0  0  0  0
   28.0293  -20.3522  -10.5506 C   0  0  1  0  0  0  0  0  0  0  0  0
   28.5051  -21.7600  -10.3693 C   0  0  0  0  0  0  0  0  0  0  0  0
   29.6467  -21.8557   -9.4249 C   0  0  0  0  0  0  0  0  0  0  0  0
   29.4723  -21.8157   -8.0534 C   0  0  0  0  0  0  0  0  0  0  0  0
   30.5531  -21.9057   -7.1790 C   0  0  0  0  0  0  0  0  0  0  0  0
   31.8177  -22.0365   -7.6640 C   0  0  0  0  0  0  0  0  0  0  0  0
   32.0240  -22.0793   -9.0143 C   0  0  0  0  0  0  0  0  0  0  0  0
   30.9589  -21.9904   -9.8671 C   0  0  0  0  0  0  0  0  0  0  0  0
   27.1731  -20.1236  -11.6937 C   0  0  0  0  0  0  0  0  0  0  0  0
   25.9247  -20.0658  -11.5594 O   0  0  0  0  0  0  0  0  0  0  0  0
   28.6801  -18.0067  -15.1841 O   0  0  0  0  0  0  0  0  0  0  0  0
   27.8570  -19.1220  -15.3064 C   0  0  0  0  0  0  0  0  0  0  0  0
   26.9983  -19.3563  -14.0854 C   0  0  2  0  0  0  0  0  0  0  0  0
   27.7298  -19.9585  -13.0037 N   0  0  0  0  0  0  0  0  0  0  0  0
   25.8491  -20.2199  -14.5126 C   0  0  0  0  0  0  0  0  0  0  0  0
   26.0291  -21.4449  -14.5882 O   0  0  0  0  0  0  0  0  0  0  0  0
   19.4692  -21.7791  -11.0647 N   0  0  0  0  0  0  0  0  0  0  0  0
   18.9995  -20.6017  -11.6993 C   0  0  0  0  0  0  0  0  0  0  0  0
   18.0684  -19.9136  -11.1002 N   0  0  0  0  0  0  0  0  0  0  0  0
   19.4965  -20.1444  -12.9497 N   0  0  0  0  0  0  0  0  0  0  0  0
   20.5738  -20.8685  -13.5988 C   0  0  0  0  0  0  0  0  0  0  0  0
   20.9058  -20.2271  -14.9422 C   0  0  0  0  0  0  0  0  0  0  0  0
   22.2138  -19.5051  -14.8827 C   0  0  0  0  0  0  0  0  0  0  0  0
   23.4203  -20.3271  -15.1265 C   0  0  2  0  0  0  0  0  0  0  0  0
   24.6208  -19.6065  -14.8074 N   0  0  0  0  0  0  0  0  0  0  0  0
   23.4605  -21.0553  -16.4178 C   0  0  0  0  0  0  0  0  0  0  0  0
   24.1584  -20.5065  -17.4776 O   0  0  0  0  0  0  0  0  0  0  0  0
   22.9045  -22.1536  -16.6300 O   0  0  0  0  0  0  0  0  0  0  0  0
  2  1  1  1
  2 10  1  0
  3  2  1  0
  4  3  1  0
  4  9  2  0
  5  4  1  0
  6  5  2  0
  6  7  1  0
  7  8  2  0
  8  9  1  0
 10 11  2  0
 13 12  1  0
 14 13  1  6
 14 16  1  0
 15 14  1  0
 15 10  1  0
 16 26  1  0
 16 17  2  0
 18 19  1  0
 19 21  1  0
 19 20  2  0
 21 22  1  0
 22 23  1  0
 23 24  1  0
 25 24  1  6
 25 27  1  0
 26 25  1  0
 27 29  2  0
 27 28  1  0
M  END
$$$$
