FSR.pdb
     RDKit          3D

 29 29  0  0  1  0  0  0  0  0999 V2000
   22.2561   -9.3372  -14.7418 N   0  0  0  0  0  0  0  0  0  0  0  0
   20.9411   -8.8719  -15.1458 C   0  0  1  0  0  0  0  0  0  0  0  0
   20.0009  -10.0263  -14.9890 C   0  0  0  0  0  0  0  0  0  0  0  0
   20.1961  -11.0627  -16.0341 C   0  0  0  0  0  0  0  0  0  0  0  0
   19.7659  -10.8847  -17.3364 C   0  0  0  0  0  0  0  0  0  0  0  0
   19.9551  -11.8665  -18.3064 C   0  0  0  0  0  0  0  0  0  0  0  0
   20.5750  -13.0349  -17.9869 C   0  0  0  0  0  0  0  0  0  0  0  0
   21.0120  -13.2420  -16.7088 C   0  0  0  0  0  0  0  0  0  0  0  0
   20.8232  -12.2743  -15.7614 C   0  0  0  0  0  0  0  0  0  0  0  0
   20.6147   -7.6906  -14.3775 C   0  0  0  0  0  0  0  0  0  0  0  0
   20.7789   -7.6695  -13.1316 O   0  0  0  0  0  0  0  0  0  0  0  0
   18.9375   -4.3130  -16.3455 O   0  0  0  0  0  0  0  0  0  0  0  0
   19.5965   -4.1205  -15.1351 C   0  0  0  0  0  0  0  0  0  0  0  0
   19.6438   -5.3694  -14.2859 C   0  0  2  0  0  0  0  0  0  0  0  0
   20.0970   -6.5194  -15.0205 N   0  0  0  0  0  0  0  0  0  0  0  0
   18.2645   -5.5829  -13.7372 C   0  0  0  0  0  0  0  0  0  0  0  0
   17.4916   -6.3270  -14.3597 O   0  0  0  0  0  0  0  0  0  0  0  0
   13.0700   -6.7263   -7.9282 N   0  0  0  0  0  0  0  0  0  0  0  0
   13.8243   -7.9185   -8.0679 C   0  0  0  0  0  0  0  0  0  0  0  0
   13.1782   -9.0500   -8.1077 N   0  0  0  0  0  0  0  0  0  0  0  0
   15.2419   -7.9316   -8.1653 N   0  0  0  0  0  0  0  0  0  0  0  0
   15.9426   -6.7231   -8.5589 C   0  0  0  0  0  0  0  0  0  0  0  0
   15.8845   -6.5493  -10.0730 C   0  0  0  0  0  0  0  0  0  0  0  0
   16.6934   -5.3696  -10.5085 C   0  0  0  0  0  0  0  0  0  0  0  0
   16.6063   -5.0172  -11.9434 C   0  0  2  0  0  0  0  0  0  0  0  0
   17.9079   -4.9335  -12.5442 N   0  0  0  0  0  0  0  0  0  0  0  0
   15.6947   -3.8980  -12.2836 C   0  0  0  0  0  0  0  0  0  0  0  0
   14.3413   -4.1490  -12.4129 O   0  0  0  0  0  0  0  0  0  0  0  0
   16.0587   -2.7167  -12.4635 O   0  0  0  0  0  0  0  0  0  0  0  0
  2  1  1  1
  2 10  1  0
  3  2  1  0
  4  3  1  0
  4  9  2  0
  5  4  1  0
  6  5  2  0
  6  7  1  0
  7  8  2  0
  8  9  1  0
 10 11  2  0
 13 12  1  0
 14 13  1  6
 14 16  1  0
 15 14  1  0
 15 10  1  0
 16 26  1  0
 16 17  2  0
 18 19  1  0
 19 21  1  0
 19 20  2  0
 21 22  1  0
 22 23  1  0
 23 24  1  0
 25 24  1  1
 25 27  1  0
 26 25  1  0
 27 29  2  0
 27 28  1  0
M  END
$$$$
