FSR.pdb
     RDKit          3D

 29 29  0  0  1  0  0  0  0  0999 V2000
   28.4703  -35.9533   -5.0069 N   0  0  0  0  0  0  0  0  0  0  0  0
   29.4964  -35.3182   -4.1989 C   0  0  1  0  0  0  0  0  0  0  0  0
   29.4266  -33.8490   -4.4780 C   0  0  0  0  0  0  0  0  0  0  0  0
   28.0696  -33.2919   -4.2486 C   0  0  0  0  0  0  0  0  0  0  0  0
   27.1847  -33.0593   -5.2858 C   0  0  0  0  0  0  0  0  0  0  0  0
   25.9146  -32.5351   -5.0557 C   0  0  0  0  0  0  0  0  0  0  0  0
   25.5151  -32.2382   -3.7894 C   0  0  0  0  0  0  0  0  0  0  0  0
   26.3658  -32.4563   -2.7423 C   0  0  0  0  0  0  0  0  0  0  0  0
   27.6110  -32.9710   -2.9749 C   0  0  0  0  0  0  0  0  0  0  0  0
   29.2991  -35.7028   -2.8186 C   0  0  0  0  0  0  0  0  0  0  0  0
   28.1993  -36.1751   -2.4347 O   0  0  0  0  0  0  0  0  0  0  0  0
   32.2159  -34.7475    0.0699 O   0  0  0  0  0  0  0  0  0  0  0  0
   31.5487  -35.9562    0.2444 C   0  0  0  0  0  0  0  0  0  0  0  0
   30.2372  -36.0176   -0.5034 C   0  0  2  0  0  0  0  0  0  0  0  0
   30.3530  -35.5533   -1.8594 N   0  0  0  0  0  0  0  0  0  0  0  0
   29.2486  -35.1972    0.2703 C   0  0  0  0  0  0  0  0  0  0  0  0
   28.9553  -34.0704   -0.1576 O   0  0  0  0  0  0  0  0  0  0  0  0
   24.3248  -37.9091    7.2929 N   0  0  0  0  0  0  0  0  0  0  0  0
   23.9484  -36.5703    7.0179 C   0  0  0  0  0  0  0  0  0  0  0  0
   22.9947  -36.0436    7.7337 N   0  0  0  0  0  0  0  0  0  0  0  0
   24.5614  -35.7857    6.0039 N   0  0  0  0  0  0  0  0  0  0  0  0
   25.6548  -36.3447    5.2305 C   0  0  0  0  0  0  0  0  0  0  0  0
   26.0880  -35.3647    4.1452 C   0  0  0  0  0  0  0  0  0  0  0  0
   27.1670  -35.9516    3.2927 C   0  0  0  0  0  0  0  0  0  0  0  0
   27.7606  -35.0468    2.2829 C   0  0  2  0  0  0  0  0  0  0  0  0
   28.6978  -35.7386    1.4431 N   0  0  0  0  0  0  0  0  0  0  0  0
   28.2317  -33.7331    2.7844 C   0  0  0  0  0  0  0  0  0  0  0  0
   27.3141  -32.7156    2.9688 O   0  0  0  0  0  0  0  0  0  0  0  0
   29.4193  -33.4655    3.0644 O   0  0  0  0  0  0  0  0  0  0  0  0
  2  1  1  6
  2 10  1  0
  3  2  1  0
  4  3  1  0
  4  9  2  0
  5  4  1  0
  6  5  2  0
  6  7  1  0
  7  8  2  0
  8  9  1  0
 10 11  2  0
 13 12  1  0
 14 13  1  1
 14 16  1  0
 15 14  1  0
 15 10  1  0
 16 26  1  0
 16 17  2  0
 18 19  1  0
 19 21  1  0
 19 20  2  0
 21 22  1  0
 22 23  1  0
 23 24  1  0
 25 24  1  1
 25 27  1  0
 26 25  1  0
 27 29  2  0
 27 28  1  0
M  END
$$$$
