FSR.pdb
     RDKit          3D

 29 29  0  0  1  0  0  0  0  0999 V2000
   26.4210  -18.6758  -20.1226 N   0  0  0  0  0  0  0  0  0  0  0  0
   26.1207  -18.1168  -18.8163 C   0  0  1  0  0  0  0  0  0  0  0  0
   25.0108  -17.1303  -19.0068 C   0  0  0  0  0  0  0  0  0  0  0  0
   25.4345  -15.9448  -19.7938 C   0  0  0  0  0  0  0  0  0  0  0  0
   24.6798  -15.4490  -20.8414 C   0  0  0  0  0  0  0  0  0  0  0  0
   25.0904  -14.3360  -21.5718 C   0  0  0  0  0  0  0  0  0  0  0  0
   26.2571  -13.7070  -21.2644 C   0  0  0  0  0  0  0  0  0  0  0  0
   27.0261  -14.1720  -20.2347 C   0  0  0  0  0  0  0  0  0  0  0  0
   26.6175  -15.2648  -19.5218 C   0  0  0  0  0  0  0  0  0  0  0  0
   25.8419  -19.2035  -17.9035 C   0  0  0  0  0  0  0  0  0  0  0  0
   24.9404  -20.0412  -18.1590 O   0  0  0  0  0  0  0  0  0  0  0  0
   27.8921  -19.4748  -14.1543 O   0  0  0  0  0  0  0  0  0  0  0  0
   27.5378  -20.6381  -14.8308 C   0  0  0  0  0  0  0  0  0  0  0  0
   26.3755  -20.4386  -15.7753 C   0  0  2  0  0  0  0  0  0  0  0  0
   26.5875  -19.3482  -16.6884 N   0  0  0  0  0  0  0  0  0  0  0  0
   25.1553  -20.2139  -14.9330 C   0  0  0  0  0  0  0  0  0  0  0  0
   24.7372  -19.0538  -14.7995 O   0  0  0  0  0  0  0  0  0  0  0  0
   24.7461  -21.2821   -7.2231 N   0  0  0  0  0  0  0  0  0  0  0  0
   23.3422  -21.2459   -7.4173 C   0  0  0  0  0  0  0  0  0  0  0  0
   22.5797  -21.1957   -6.3612 N   0  0  0  0  0  0  0  0  0  0  0  0
   22.7372  -21.2620   -8.7030 N   0  0  0  0  0  0  0  0  0  0  0  0
   23.5435  -21.5734   -9.8687 C   0  0  0  0  0  0  0  0  0  0  0  0
   23.6027  -20.3712  -10.8054 C   0  0  0  0  0  0  0  0  0  0  0  0
   24.4278  -20.6743  -12.0150 C   0  0  0  0  0  0  0  0  0  0  0  0
   23.7000  -21.2451  -13.1705 C   0  0  2  0  0  0  0  0  0  0  0  0
   24.5388  -21.3241  -14.3333 N   0  0  0  0  0  0  0  0  0  0  0  0
   22.3453  -20.6962  -13.4210 C   0  0  0  0  0  0  0  0  0  0  0  0
   22.1377  -19.8991  -14.5314 O   0  0  0  0  0  0  0  0  0  0  0  0
   21.3507  -20.9037  -12.6943 O   0  0  0  0  0  0  0  0  0  0  0  0
  2  1  1  6
  2 10  1  0
  3  2  1  0
  4  3  1  0
  4  9  2  0
  5  4  1  0
  6  5  2  0
  6  7  1  0
  7  8  2  0
  8  9  1  0
 10 11  2  0
 13 12  1  0
 14 13  1  1
 14 16  1  0
 15 14  1  0
 15 10  1  0
 16 26  1  0
 16 17  2  0
 18 19  1  0
 19 21  1  0
 19 20  2  0
 21 22  1  0
 22 23  1  0
 23 24  1  0
 25 24  1  1
 25 27  1  0
 26 25  1  0
 27 29  2  0
 27 28  1  0
M  END
$$$$
