FSR.pdb
     RDKit          3D

 29 29  0  0  1  0  0  0  0  0999 V2000
   26.1115  -18.6714   -7.9989 N   0  0  0  0  0  0  0  0  0  0  0  0
   26.8617  -19.7456   -8.6253 C   0  0  1  0  0  0  0  0  0  0  0  0
   26.9228  -20.8702   -7.6391 C   0  0  0  0  0  0  0  0  0  0  0  0
   27.6695  -20.5056   -6.4087 C   0  0  0  0  0  0  0  0  0  0  0  0
   27.1149  -20.6287   -5.1477 C   0  0  0  0  0  0  0  0  0  0  0  0
   27.8272  -20.2818   -4.0018 C   0  0  0  0  0  0  0  0  0  0  0  0
   29.0991  -19.8090   -4.1026 C   0  0  0  0  0  0  0  0  0  0  0  0
   29.6762  -19.6754   -5.3342 C   0  0  0  0  0  0  0  0  0  0  0  0
   28.9716  -20.0176   -6.4550 C   0  0  0  0  0  0  0  0  0  0  0  0
   26.2432  -20.0596   -9.8946 C   0  0  0  0  0  0  0  0  0  0  0  0
   24.9982  -20.2084   -9.9827 O   0  0  0  0  0  0  0  0  0  0  0  0
   28.3996  -20.8457  -13.6301 O   0  0  0  0  0  0  0  0  0  0  0  0
   27.6047  -19.7239  -13.4154 C   0  0  0  0  0  0  0  0  0  0  0  0
   26.5153  -19.9611  -12.3957 C   0  0  2  0  0  0  0  0  0  0  0  0
   27.0366  -20.2080  -11.0785 N   0  0  0  0  0  0  0  0  0  0  0  0
   25.6983  -21.1202  -12.8837 C   0  0  0  0  0  0  0  0  0  0  0  0
   25.8356  -22.2165  -12.3199 O   0  0  0  0  0  0  0  0  0  0  0  0
   18.4140  -20.0705  -12.7181 N   0  0  0  0  0  0  0  0  0  0  0  0
   18.4025  -21.3167  -12.0425 C   0  0  0  0  0  0  0  0  0  0  0  0
   17.4209  -22.1379  -12.2902 N   0  0  0  0  0  0  0  0  0  0  0  0
   19.4070  -21.7046  -11.1151 N   0  0  0  0  0  0  0  0  0  0  0  0
   20.7460  -21.1597  -11.2421 C   0  0  0  0  0  0  0  0  0  0  0  0
   21.3763  -21.6102  -12.5558 C   0  0  0  0  0  0  0  0  0  0  0  0
   22.7763  -21.1005  -12.6813 C   0  0  0  0  0  0  0  0  0  0  0  0
   23.4523  -21.3708  -13.9700 C   0  0  2  0  0  0  0  0  0  0  0  0
   24.8140  -20.9153  -13.9552 N   0  0  0  0  0  0  0  0  0  0  0  0
   22.6921  -21.0093  -15.1910 C   0  0  0  0  0  0  0  0  0  0  0  0
   21.9078  -21.9691  -15.8033 O   0  0  0  0  0  0  0  0  0  0  0  0
   22.7000  -19.8788  -15.7223 O   0  0  0  0  0  0  0  0  0  0  0  0
  2  1  1  1
  2 10  1  0
  3  2  1  0
  4  3  1  0
  4  9  2  0
  5  4  1  0
  6  5  2  0
  6  7  1  0
  7  8  2  0
  8  9  1  0
 10 11  2  0
 13 12  1  0
 14 13  1  6
 14 16  1  0
 15 14  1  0
 15 10  1  0
 16 26  1  0
 16 17  2  0
 18 19  1  0
 19 21  1  0
 19 20  2  0
 21 22  1  0
 22 23  1  0
 23 24  1  0
 25 24  1  1
 25 27  1  0
 26 25  1  0
 27 29  2  0
 27 28  1  0
M  END
$$$$
