FSR.pdb
     RDKit          3D

 29 29  0  0  1  0  0  0  0  0999 V2000
   27.8656  -20.0921  -18.2431 N   0  0  0  0  0  0  0  0  0  0  0  0
   28.0304  -19.3025  -17.0354 C   0  0  1  0  0  0  0  0  0  0  0  0
   27.2043  -18.0656  -17.2048 C   0  0  0  0  0  0  0  0  0  0  0  0
   27.6899  -17.2067  -18.3142 C   0  0  0  0  0  0  0  0  0  0  0  0
   28.8678  -16.4872  -18.2262 C   0  0  0  0  0  0  0  0  0  0  0  0
   29.3108  -15.6844  -19.2751 C   0  0  0  0  0  0  0  0  0  0  0  0
   28.5834  -15.5916  -20.4213 C   0  0  0  0  0  0  0  0  0  0  0  0
   27.4147  -16.2900  -20.5400 C   0  0  0  0  0  0  0  0  0  0  0  0
   26.9855  -17.0761  -19.5069 C   0  0  0  0  0  0  0  0  0  0  0  0
   27.6943  -20.1281  -15.8963 C   0  0  0  0  0  0  0  0  0  0  0  0
   26.6995  -20.8955  -15.9309 O   0  0  0  0  0  0  0  0  0  0  0  0
   29.7714  -19.7100  -12.1280 O   0  0  0  0  0  0  0  0  0  0  0  0
   29.3123  -20.9504  -12.5603 C   0  0  0  0  0  0  0  0  0  0  0  0
   28.1562  -20.8455  -13.5275 C   0  0  2  0  0  0  0  0  0  0  0  0
   28.4882  -20.0885  -14.7041 N   0  0  0  0  0  0  0  0  0  0  0  0
   27.0131  -20.2219  -12.7835 C   0  0  0  0  0  0  0  0  0  0  0  0
   26.9291  -18.9845  -12.7624 O   0  0  0  0  0  0  0  0  0  0  0  0
   18.6660  -20.1448  -12.3328 N   0  0  0  0  0  0  0  0  0  0  0  0
   19.6978  -20.3554  -13.2819 C   0  0  0  0  0  0  0  0  0  0  0  0
   19.4609  -20.0375  -14.5236 N   0  0  0  0  0  0  0  0  0  0  0  0
   20.9675  -20.8938  -12.9394 N   0  0  0  0  0  0  0  0  0  0  0  0
   21.2323  -21.2833  -11.5667 C   0  0  0  0  0  0  0  0  0  0  0  0
   22.4997  -20.6025  -11.0605 C   0  0  0  0  0  0  0  0  0  0  0  0
   23.7002  -21.0749  -11.8163 C   0  0  0  0  0  0  0  0  0  0  0  0
   25.0093  -20.5922  -11.3223 C   0  0  2  0  0  0  0  0  0  0  0  0
   26.0880  -21.0635  -12.1448 N   0  0  0  0  0  0  0  0  0  0  0  0
   25.2415  -20.7220   -9.8633 C   0  0  0  0  0  0  0  0  0  0  0  0
   24.8630  -19.6875   -9.0278 O   0  0  0  0  0  0  0  0  0  0  0  0
   25.7605  -21.7164   -9.3137 O   0  0  0  0  0  0  0  0  0  0  0  0
  2  1  1  6
  2 10  1  0
  3  2  1  0
  4  3  1  0
  4  9  2  0
  5  4  1  0
  6  5  2  0
  6  7  1  0
  7  8  2  0
  8  9  1  0
 10 11  2  0
 13 12  1  0
 14 13  1  1
 14 16  1  0
 15 14  1  0
 15 10  1  0
 16 26  1  0
 16 17  2  0
 18 19  1  0
 19 21  1  0
 19 20  2  0
 21 22  1  0
 22 23  1  0
 23 24  1  0
 25 24  1  6
 25 27  1  0
 26 25  1  0
 27 29  2  0
 27 28  1  0
M  END
$$$$
