FSR.pdb
     RDKit          3D

 29 29  0  0  1  0  0  0  0  0999 V2000
   23.9239  -21.2683  -16.1040 N   0  0  0  0  0  0  0  0  0  0  0  0
   23.0915  -20.3722  -15.3210 C   0  0  1  0  0  0  0  0  0  0  0  0
   22.1138  -19.7452  -16.2656 C   0  0  0  0  0  0  0  0  0  0  0  0
   22.7780  -18.9075  -17.2959 C   0  0  0  0  0  0  0  0  0  0  0  0
   22.7598  -19.2401  -18.6383 C   0  0  0  0  0  0  0  0  0  0  0  0
   23.3883  -18.4449  -19.5941 C   0  0  0  0  0  0  0  0  0  0  0  0
   24.0406  -17.3108  -19.2203 C   0  0  0  0  0  0  0  0  0  0  0  0
   24.0771  -16.9541  -17.9015 C   0  0  0  0  0  0  0  0  0  0  0  0
   23.4582  -17.7389  -16.9684 C   0  0  0  0  0  0  0  0  0  0  0  0
   22.5124  -21.1201  -14.2268 C   0  0  0  0  0  0  0  0  0  0  0  0
   22.2858  -22.3513  -14.3397 O   0  0  0  0  0  0  0  0  0  0  0  0
   21.0626  -19.0054  -10.8815 O   0  0  0  0  0  0  0  0  0  0  0  0
   21.4419  -20.3253  -10.6575 C   0  0  0  0  0  0  0  0  0  0  0  0
   21.4924  -21.1462  -11.9250 C   0  0  2  0  0  0  0  0  0  0  0  0
   22.1846  -20.4734  -12.9908 N   0  0  0  0  0  0  0  0  0  0  0  0
   20.0757  -21.4569  -12.3067 C   0  0  0  0  0  0  0  0  0  0  0  0
   19.5573  -20.8060  -13.2267 O   0  0  0  0  0  0  0  0  0  0  0  0
   18.8847  -24.4726   -6.1846 N   0  0  0  0  0  0  0  0  0  0  0  0
   17.9968  -25.4836   -6.6311 C   0  0  0  0  0  0  0  0  0  0  0  0
   17.3154  -26.1392   -5.7338 N   0  0  0  0  0  0  0  0  0  0  0  0
   17.8203  -25.8092   -8.0031 N   0  0  0  0  0  0  0  0  0  0  0  0
   18.5171  -25.0384   -9.0162 C   0  0  0  0  0  0  0  0  0  0  0  0
   17.5759  -24.0120   -9.6379 C   0  0  0  0  0  0  0  0  0  0  0  0
   17.6467  -24.0549  -11.1309 C   0  0  0  0  0  0  0  0  0  0  0  0
   18.0107  -22.7859  -11.8000 C   0  0  2  0  0  0  0  0  0  0  0  0
   19.3984  -22.4698  -11.6087 N   0  0  0  0  0  0  0  0  0  0  0  0
   17.0822  -21.6493  -11.5872 C   0  0  0  0  0  0  0  0  0  0  0  0
   15.8470  -21.6651  -12.2080 O   0  0  0  0  0  0  0  0  0  0  0  0
   17.3299  -20.6558  -10.8717 O   0  0  0  0  0  0  0  0  0  0  0  0
  2  1  1  6
  2 10  1  0
  3  2  1  0
  4  3  1  0
  4  9  2  0
  5  4  1  0
  6  5  2  0
  6  7  1  0
  7  8  2  0
  8  9  1  0
 10 11  2  0
 13 12  1  0
 14 13  1  1
 14 16  1  0
 15 14  1  0
 15 10  1  0
 16 26  1  0
 16 17  2  0
 18 19  1  0
 19 21  1  0
 19 20  2  0
 21 22  1  0
 22 23  1  0
 23 24  1  0
 25 24  1  1
 25 27  1  0
 26 25  1  0
 27 29  2  0
 27 28  1  0
M  END
$$$$
