FSR.pdb
     RDKit          3D

 29 29  0  0  1  0  0  0  0  0999 V2000
   27.2170  -22.4568  -12.7759 N   0  0  0  0  0  0  0  0  0  0  0  0
   26.5619  -21.6579  -11.7553 C   0  0  1  0  0  0  0  0  0  0  0  0
   27.4066  -20.4401  -11.5433 C   0  0  0  0  0  0  0  0  0  0  0  0
   28.7190  -20.7603  -10.9275 C   0  0  0  0  0  0  0  0  0  0  0  0
   29.8804  -20.8465  -11.6735 C   0  0  0  0  0  0  0  0  0  0  0  0
   31.1051  -21.1487  -11.0821 C   0  0  0  0  0  0  0  0  0  0  0  0
   31.1829  -21.3679   -9.7414 C   0  0  0  0  0  0  0  0  0  0  0  0
   30.0535  -21.2903   -8.9759 C   0  0  0  0  0  0  0  0  0  0  0  0
   28.8547  -20.9932   -9.5625 C   0  0  0  0  0  0  0  0  0  0  0  0
   25.1987  -21.4092  -12.1698 C   0  0  0  0  0  0  0  0  0  0  0  0
   24.8890  -21.4035  -13.3880 O   0  0  0  0  0  0  0  0  0  0  0  0
   22.2021  -19.7544   -9.6115 O   0  0  0  0  0  0  0  0  0  0  0  0
   21.8887  -20.8941  -10.3459 C   0  0  0  0  0  0  0  0  0  0  0  0
   22.7802  -21.0809  -11.5514 C   0  0  2  0  0  0  0  0  0  0  0  0
   24.1723  -21.1638  -11.2006 N   0  0  0  0  0  0  0  0  0  0  0  0
   22.5195  -19.9295  -12.4763 C   0  0  0  0  0  0  0  0  0  0  0  0
   23.4274  -19.1045  -12.6601 O   0  0  0  0  0  0  0  0  0  0  0  0
   22.6376  -25.4625  -14.7808 N   0  0  0  0  0  0  0  0  0  0  0  0
   21.7720  -25.2984  -15.8915 C   0  0  0  0  0  0  0  0  0  0  0  0
   20.8732  -26.2175  -16.1077 N   0  0  0  0  0  0  0  0  0  0  0  0
   21.8426  -24.1844  -16.7710 N   0  0  0  0  0  0  0  0  0  0  0  0
   22.4448  -22.9470  -16.3103 C   0  0  0  0  0  0  0  0  0  0  0  0
   21.3854  -22.0461  -15.6840 C   0  0  0  0  0  0  0  0  0  0  0  0
   21.9894  -20.7694  -15.1935 C   0  0  0  0  0  0  0  0  0  0  0  0
   21.0651  -19.8323  -14.5164 C   0  0  2  0  0  0  0  0  0  0  0  0
   21.2620  -19.8352  -13.0940 N   0  0  0  0  0  0  0  0  0  0  0  0
   19.6467  -19.8953  -14.9448 C   0  0  0  0  0  0  0  0  0  0  0  0
   18.7686  -20.7026  -14.2458 O   0  0  0  0  0  0  0  0  0  0  0  0
   19.1679  -19.2594  -15.9075 O   0  0  0  0  0  0  0  0  0  0  0  0
  2  1  1  6
  2 10  1  0
  3  2  1  0
  4  3  1  0
  4  9  2  0
  5  4  1  0
  6  5  2  0
  6  7  1  0
  7  8  2  0
  8  9  1  0
 10 11  2  0
 13 12  1  0
 14 13  1  1
 14 16  1  0
 15 14  1  0
 15 10  1  0
 16 26  1  0
 16 17  2  0
 18 19  1  0
 19 21  1  0
 19 20  2  0
 21 22  1  0
 22 23  1  0
 23 24  1  0
 25 24  1  6
 25 27  1  0
 26 25  1  0
 27 29  2  0
 27 28  1  0
M  END
$$$$
