FSR.pdb
     RDKit          3D

 29 29  0  0  1  0  0  0  0  0999 V2000
   24.0293  -19.6408  -13.4245 N   0  0  0  0  0  0  0  0  0  0  0  0
   25.0864  -20.6013  -13.1619 C   0  0  1  0  0  0  0  0  0  0  0  0
   24.5633  -21.5589  -12.1369 C   0  0  0  0  0  0  0  0  0  0  0  0
   24.8635  -21.1244  -10.7493 C   0  0  0  0  0  0  0  0  0  0  0  0
   24.3132  -21.7519   -9.6465 C   0  0  0  0  0  0  0  0  0  0  0  0
   24.6032  -21.3327   -8.3500 C   0  0  0  0  0  0  0  0  0  0  0  0
   25.4446  -20.2838   -8.1411 C   0  0  0  0  0  0  0  0  0  0  0  0
   26.0050  -19.6422   -9.2097 C   0  0  0  0  0  0  0  0  0  0  0  0
   25.7162  -20.0586  -10.4796 C   0  0  0  0  0  0  0  0  0  0  0  0
   25.4950  -21.1909  -14.4179 C   0  0  0  0  0  0  0  0  0  0  0  0
   24.6699  -21.3446  -15.3535 O   0  0  0  0  0  0  0  0  0  0  0  0
   29.2900  -22.7465  -17.1415 O   0  0  0  0  0  0  0  0  0  0  0  0
   28.8277  -22.2085  -15.9443 C   0  0  0  0  0  0  0  0  0  0  0  0
   27.3207  -22.1180  -15.8831 C   0  0  2  0  0  0  0  0  0  0  0  0
   26.8492  -21.6127  -14.6221 N   0  0  0  0  0  0  0  0  0  0  0  0
   26.7842  -23.4920  -16.1539 C   0  0  0  0  0  0  0  0  0  0  0  0
   26.7106  -24.2923  -15.2091 O   0  0  0  0  0  0  0  0  0  0  0  0
   22.1306  -25.0353  -14.1995 N   0  0  0  0  0  0  0  0  0  0  0  0
   21.8655  -26.3950  -14.5008 C   0  0  0  0  0  0  0  0  0  0  0  0
   21.6496  -27.2108  -13.5074 N   0  0  0  0  0  0  0  0  0  0  0  0
   21.8259  -26.9011  -15.8282 N   0  0  0  0  0  0  0  0  0  0  0  0
   22.0396  -25.9982  -16.9441 C   0  0  0  0  0  0  0  0  0  0  0  0
   23.4451  -26.1800  -17.5078 C   0  0  0  0  0  0  0  0  0  0  0  0
   24.3002  -24.9902  -17.2095 C   0  0  0  0  0  0  0  0  0  0  0  0
   25.6527  -24.9961  -17.8106 C   0  0  2  0  0  0  0  0  0  0  0  0
   26.3881  -23.8129  -17.4624 N   0  0  0  0  0  0  0  0  0  0  0  0
   25.7254  -25.3704  -19.2437 C   0  0  0  0  0  0  0  0  0  0  0  0
   25.8473  -26.7047  -19.5847 O   0  0  0  0  0  0  0  0  0  0  0  0
   25.6805  -24.5583  -20.1918 O   0  0  0  0  0  0  0  0  0  0  0  0
  2  1  1  6
  2 10  1  0
  3  2  1  0
  4  3  1  0
  4  9  2  0
  5  4  1  0
  6  5  2  0
  6  7  1  0
  7  8  2  0
  8  9  1  0
 10 11  2  0
 13 12  1  0
 14 13  1  1
 14 16  1  0
 15 14  1  0
 15 10  1  0
 16 26  1  0
 16 17  2  0
 18 19  1  0
 19 21  1  0
 19 20  2  0
 21 22  1  0
 22 23  1  0
 23 24  1  0
 25 24  1  6
 25 27  1  0
 26 25  1  0
 27 29  2  0
 27 28  1  0
M  END
$$$$
