FSR.pdb
     RDKit          3D

 29 29  0  0  1  0  0  0  0  0999 V2000
   31.4903  -23.5400  -18.2898 N   0  0  0  0  0  0  0  0  0  0  0  0
   30.9880  -24.8116  -17.8001 C   0  0  1  0  0  0  0  0  0  0  0  0
   31.8803  -25.2302  -16.6732 C   0  0  0  0  0  0  0  0  0  0  0  0
   33.1882  -25.7484  -17.1478 C   0  0  0  0  0  0  0  0  0  0  0  0
   33.3099  -26.9754  -17.7743 C   0  0  0  0  0  0  0  0  0  0  0  0
   34.5441  -27.4494  -18.2136 C   0  0  0  0  0  0  0  0  0  0  0  0
   35.6682  -26.7044  -18.0324 C   0  0  0  0  0  0  0  0  0  0  0  0
   35.5819  -25.4874  -17.4167 C   0  0  0  0  0  0  0  0  0  0  0  0
   34.3676  -25.0279  -16.9879 C   0  0  0  0  0  0  0  0  0  0  0  0
   29.5893  -24.6561  -17.4659 C   0  0  0  0  0  0  0  0  0  0  0  0
   29.2016  -23.6923  -16.7585 O   0  0  0  0  0  0  0  0  0  0  0  0
   25.1479  -24.5252  -18.5738 O   0  0  0  0  0  0  0  0  0  0  0  0
   26.4973  -24.7469  -18.8311 C   0  0  0  0  0  0  0  0  0  0  0  0
   27.2074  -25.4402  -17.6918 C   0  0  2  0  0  0  0  0  0  0  0  0
   28.6160  -25.5979  -17.9340 N   0  0  0  0  0  0  0  0  0  0  0  0
   26.5370  -26.7673  -17.4957 C   0  0  0  0  0  0  0  0  0  0  0  0
   26.9238  -27.7291  -18.1769 O   0  0  0  0  0  0  0  0  0  0  0  0
   20.4643  -27.5794  -11.5007 N   0  0  0  0  0  0  0  0  0  0  0  0
   21.0199  -26.7855  -12.5354 C   0  0  0  0  0  0  0  0  0  0  0  0
   20.7113  -25.5194  -12.5678 N   0  0  0  0  0  0  0  0  0  0  0  0
   21.8910  -27.3073  -13.5296 N   0  0  0  0  0  0  0  0  0  0  0  0
   21.9733  -28.7428  -13.7259 C   0  0  0  0  0  0  0  0  0  0  0  0
   22.9406  -29.0653  -14.8602 C   0  0  0  0  0  0  0  0  0  0  0  0
   23.7565  -27.8669  -15.2258 C   0  0  0  0  0  0  0  0  0  0  0  0
   24.7593  -28.0665  -16.2959 C   0  0  2  0  0  0  0  0  0  0  0  0
   25.5028  -26.8646  -16.5508 N   0  0  0  0  0  0  0  0  0  0  0  0
   24.2812  -28.7678  -17.5121 C   0  0  0  0  0  0  0  0  0  0  0  0
   24.5267  -30.1216  -17.6476 O   0  0  0  0  0  0  0  0  0  0  0  0
   23.6557  -28.2220  -18.4455 O   0  0  0  0  0  0  0  0  0  0  0  0
  2  1  1  1
  2 10  1  0
  3  2  1  0
  4  3  1  0
  4  9  2  0
  5  4  1  0
  6  5  2  0
  6  7  1  0
  7  8  2  0
  8  9  1  0
 10 11  2  0
 13 12  1  0
 14 13  1  6
 14 16  1  0
 15 14  1  0
 15 10  1  0
 16 26  1  0
 16 17  2  0
 18 19  1  0
 19 21  1  0
 19 20  2  0
 21 22  1  0
 22 23  1  0
 23 24  1  0
 25 24  1  1
 25 27  1  0
 26 25  1  0
 27 29  2  0
 27 28  1  0
M  END
$$$$
