FDE.pdb
     RDKit          3D

 29 29  0  0  1  0  0  0  0  0999 V2000
    6.1124  -16.6922   25.0961 N   0  0  0  0  0  0  0  0  0  0  0  0
    7.2363  -15.9081   24.6913 C   0  0  1  0  0  0  0  0  0  0  0  0
    7.9107  -15.2299   25.8612 C   0  0  0  0  0  0  0  0  0  0  0  0
    7.3562  -13.8506   25.9289 C   0  0  0  0  0  0  0  0  0  0  0  0
    7.9085  -12.8284   25.1629 C   0  0  0  0  0  0  0  0  0  0  0  0
    7.4165  -11.5444   25.2063 C   0  0  0  0  0  0  0  0  0  0  0  0
    6.3481  -11.2177   26.0172 C   0  0  0  0  0  0  0  0  0  0  0  0
    5.7920  -12.2163   26.7794 C   0  0  0  0  0  0  0  0  0  0  0  0
    6.2865  -13.5015   26.7343 C   0  0  0  0  0  0  0  0  0  0  0  0
    8.1611  -16.7057   23.8742 C   0  0  0  0  0  0  0  0  0  0  0  0
    8.4538  -17.8605   24.2804 O   0  0  0  0  0  0  0  0  0  0  0  0
    8.7371  -16.2432   22.6580 N   0  0  0  0  0  0  0  0  0  0  0  0
    9.9305  -16.8503   22.1661 C   0  0  1  0  0  0  0  0  0  0  0  0
   10.2545  -16.4149   20.7436 C   0  0  0  0  0  0  0  0  0  0  0  0
   11.4239  -17.1401   20.2536 C   0  0  0  0  0  0  0  0  0  0  0  0
   11.7382  -18.3005   20.6140 O   0  0  0  0  0  0  0  0  0  0  0  0
   11.0915  -16.7049   23.0595 C   0  0  0  0  0  0  0  0  0  0  0  0
   11.5129  -15.5597   23.3345 O   0  0  0  0  0  0  0  0  0  0  0  0
   12.2514  -16.5138   19.3262 O   0  0  0  0  0  0  0  0  0  0  0  0
   11.7214  -17.8393   23.5994 N   0  0  0  0  0  0  0  0  0  0  0  0
   12.8328  -17.7833   24.5417 C   0  0  1  0  0  0  0  0  0  0  0  0
   12.3723  -17.9814   25.9449 C   0  0  0  0  0  0  0  0  0  0  0  0
   11.6646  -19.2758   26.2202 C   0  0  0  0  0  0  0  0  0  0  0  0
   11.2467  -19.4649   27.6158 C   0  0  0  0  0  0  0  0  0  0  0  0
   12.0891  -19.4009   28.5739 O   0  0  0  0  0  0  0  0  0  0  0  0
   13.9266  -18.6913   24.1295 C   0  0  0  0  0  0  0  0  0  0  0  0
   15.1527  -18.6856   24.7221 O   0  0  0  0  0  0  0  0  0  0  0  0
    9.9453  -19.7219   28.0078 O   0  0  0  0  0  0  0  0  0  0  0  0
   13.7004  -19.4951   23.1909 O   0  0  0  0  0  0  0  0  0  0  0  0
  2  1  1  1
  2 10  1  0
  3  2  1  0
  3  4  1  0
  4  9  2  0
  5  6  2  0
  5  4  1  0
  6  7  1  0
  7  8  2  0
  9  8  1  0
 10 12  1  0
 10 11  2  0
 12 13  1  0
 13 17  1  0
 13 14  1  6
 14 15  1  0
 15 19  1  0
 16 15  2  0
 17 18  2  0
 20 21  1  0
 20 17  1  0
 22 23  1  0
 21 22  1  1
 23 24  1  0
 24 25  2  0
 24 28  1  0
 26 21  1  0
 27 26  1  0
 29 26  2  0
M  END
$$$$
