FDE.pdb
     RDKit          3D

 29 29  0  0  1  0  0  0  0  0999 V2000
    6.1798  -16.5137   25.0445 N   0  0  0  0  0  0  0  0  0  0  0  0
    7.2545  -15.6770   24.6125 C   0  0  1  0  0  0  0  0  0  0  0  0
    7.8766  -14.9101   25.7563 C   0  0  0  0  0  0  0  0  0  0  0  0
    7.2311  -13.5693   25.7686 C   0  0  0  0  0  0  0  0  0  0  0  0
    6.2167  -13.2815   26.6768 C   0  0  0  0  0  0  0  0  0  0  0  0
    5.6023  -12.0511   26.7099 C   0  0  0  0  0  0  0  0  0  0  0  0
    5.9706  -11.0468   25.8372 C   0  0  0  0  0  0  0  0  0  0  0  0
    6.9708  -11.3160   24.9346 C   0  0  0  0  0  0  0  0  0  0  0  0
    7.5847  -12.5490   24.9033 C   0  0  0  0  0  0  0  0  0  0  0  0
    8.2335  -16.4469   23.8328 C   0  0  0  0  0  0  0  0  0  0  0  0
    8.5791  -17.5731   24.2761 O   0  0  0  0  0  0  0  0  0  0  0  0
    8.8052  -15.9883   22.6131 N   0  0  0  0  0  0  0  0  0  0  0  0
   10.0076  -16.5839   22.1289 C   0  0  1  0  0  0  0  0  0  0  0  0
   10.3733  -16.0923   20.7351 C   0  0  0  0  0  0  0  0  0  0  0  0
    9.3770  -16.5462   19.7682 C   0  0  0  0  0  0  0  0  0  0  0  0
    8.8649  -15.8160   18.8852 O   0  0  0  0  0  0  0  0  0  0  0  0
   11.1445  -16.4848   23.0588 C   0  0  0  0  0  0  0  0  0  0  0  0
   11.4968  -15.3600   23.4777 O   0  0  0  0  0  0  0  0  0  0  0  0
    8.9602  -17.8732   19.8195 O   0  0  0  0  0  0  0  0  0  0  0  0
   11.8284  -17.6404   23.4734 N   0  0  0  0  0  0  0  0  0  0  0  0
   12.8211  -17.6608   24.5413 C   0  0  1  0  0  0  0  0  0  0  0  0
   12.4008  -18.5462   25.6637 C   0  0  0  0  0  0  0  0  0  0  0  0
   13.3986  -18.7081   26.7728 C   0  0  0  0  0  0  0  0  0  0  0  0
   12.9674  -19.5901   27.8657 C   0  0  0  0  0  0  0  0  0  0  0  0
   12.3111  -20.6609   27.6328 O   0  0  0  0  0  0  0  0  0  0  0  0
   14.1700  -17.9572   24.0089 C   0  0  0  0  0  0  0  0  0  0  0  0
   14.3780  -18.7788   22.9429 O   0  0  0  0  0  0  0  0  0  0  0  0
   13.2234  -19.3495   29.2035 O   0  0  0  0  0  0  0  0  0  0  0  0
   15.1556  -17.4221   24.5751 O   0  0  0  0  0  0  0  0  0  0  0  0
  2  1  1  1
  2 10  1  0
  3  2  1  0
  3  4  1  0
  4  9  2  0
  5  6  2  0
  5  4  1  0
  6  7  1  0
  7  8  2  0
  9  8  1  0
 10 12  1  0
 10 11  2  0
 12 13  1  0
 13 17  1  0
 13 14  1  6
 14 15  1  0
 15 19  1  0
 16 15  2  0
 17 18  2  0
 20 21  1  0
 20 17  1  0
 22 23  1  0
 21 22  1  1
 23 24  1  0
 24 25  2  0
 24 28  1  0
 26 21  1  0
 27 26  1  0
 29 26  2  0
M  END
$$$$
