FDE.pdb
     RDKit          3D

 29 29  0  0  1  0  0  0  0  0999 V2000
    9.2568  -13.9927   22.9013 N   0  0  0  0  0  0  0  0  0  0  0  0
    8.8496  -14.9317   23.8984 C   0  0  1  0  0  0  0  0  0  0  0  0
    7.3500  -14.9539   24.0836 C   0  0  0  0  0  0  0  0  0  0  0  0
    6.9812  -13.6562   24.7118 C   0  0  0  0  0  0  0  0  0  0  0  0
    6.5936  -13.6023   26.0472 C   0  0  0  0  0  0  0  0  0  0  0  0
    6.2468  -12.4169   26.6531 C   0  0  0  0  0  0  0  0  0  0  0  0
    6.2700  -11.2261   25.9549 C   0  0  0  0  0  0  0  0  0  0  0  0
    6.6507  -11.2634   24.6354 C   0  0  0  0  0  0  0  0  0  0  0  0
    6.9975  -12.4518   24.0307 C   0  0  0  0  0  0  0  0  0  0  0  0
    9.4180  -16.2592   23.6272 C   0  0  0  0  0  0  0  0  0  0  0  0
    9.0644  -17.2105   24.3717 O   0  0  0  0  0  0  0  0  0  0  0  0
   10.3393  -16.5217   22.5749 N   0  0  0  0  0  0  0  0  0  0  0  0
   10.9885  -17.7900   22.5048 C   0  0  1  0  0  0  0  0  0  0  0  0
   11.6285  -18.0353   21.1452 C   0  0  0  0  0  0  0  0  0  0  0  0
   10.6242  -17.9138   20.0916 C   0  0  0  0  0  0  0  0  0  0  0  0
    9.5584  -18.5752   20.0512 O   0  0  0  0  0  0  0  0  0  0  0  0
   11.9315  -18.0446   23.6062 C   0  0  0  0  0  0  0  0  0  0  0  0
   12.9555  -17.3341   23.7122 O   0  0  0  0  0  0  0  0  0  0  0  0
   10.8529  -17.0086   19.0593 O   0  0  0  0  0  0  0  0  0  0  0  0
   11.6859  -19.0744   24.5306 N   0  0  0  0  0  0  0  0  0  0  0  0
   12.5493  -19.3721   25.6673 C   0  0  1  0  0  0  0  0  0  0  0  0
   11.8064  -20.0757   26.7504 C   0  0  0  0  0  0  0  0  0  0  0  0
   12.6125  -20.4356   27.9639 C   0  0  0  0  0  0  0  0  0  0  0  0
   11.8610  -20.4318   29.2263 C   0  0  0  0  0  0  0  0  0  0  0  0
   10.9835  -21.3254   29.4773 O   0  0  0  0  0  0  0  0  0  0  0  0
   13.7835  -20.0634   25.2318 C   0  0  0  0  0  0  0  0  0  0  0  0
   15.0143  -19.7578   25.7280 O   0  0  0  0  0  0  0  0  0  0  0  0
   12.0286  -19.4906   30.2260 O   0  0  0  0  0  0  0  0  0  0  0  0
   13.6760  -20.9675   24.3662 O   0  0  0  0  0  0  0  0  0  0  0  0
  2  1  1  6
  2 10  1  0
  3  2  1  0
  3  4  1  0
  4  9  2  0
  5  6  2  0
  5  4  1  0
  6  7  1  0
  7  8  2  0
  9  8  1  0
 10 12  1  0
 10 11  2  0
 12 13  1  0
 13 17  1  0
 13 14  1  6
 14 15  1  0
 15 19  1  0
 16 15  2  0
 17 18  2  0
 20 21  1  0
 20 17  1  0
 22 23  1  0
 21 22  1  1
 23 24  1  0
 24 25  2  0
 24 28  1  0
 26 21  1  0
 27 26  1  0
 29 26  2  0
M  END
$$$$
