FDE.pdb
     RDKit          3D

 29 29  0  0  1  0  0  0  0  0999 V2000
    6.8953  -16.0679   25.7136 N   0  0  0  0  0  0  0  0  0  0  0  0
    6.4337  -15.9208   24.3694 C   0  0  1  0  0  0  0  0  0  0  0  0
    5.8290  -14.5588   24.1189 C   0  0  0  0  0  0  0  0  0  0  0  0
    6.5464  -13.6062   25.0090 C   0  0  0  0  0  0  0  0  0  0  0  0
    5.9791  -13.1996   26.2129 C   0  0  0  0  0  0  0  0  0  0  0  0
    6.6196  -12.3198   27.0545 C   0  0  0  0  0  0  0  0  0  0  0  0
    7.8589  -11.8023   26.7351 C   0  0  0  0  0  0  0  0  0  0  0  0
    8.4320  -12.1944   25.5496 C   0  0  0  0  0  0  0  0  0  0  0  0
    7.7886  -13.0756   24.7084 C   0  0  0  0  0  0  0  0  0  0  0  0
    7.4945  -16.2667   23.4132 C   0  0  0  0  0  0  0  0  0  0  0  0
    7.2080  -16.2438   22.1878 O   0  0  0  0  0  0  0  0  0  0  0  0
    8.8172  -16.6228   23.7988 N   0  0  0  0  0  0  0  0  0  0  0  0
    9.7855  -16.9314   22.7979 C   0  0  1  0  0  0  0  0  0  0  0  0
    9.9125  -15.8259   21.7587 C   0  0  0  0  0  0  0  0  0  0  0  0
   10.9101  -16.1942   20.7574 C   0  0  0  0  0  0  0  0  0  0  0  0
   11.0373  -17.3466   20.2768 O   0  0  0  0  0  0  0  0  0  0  0  0
   11.0974  -17.3310   23.3332 C   0  0  0  0  0  0  0  0  0  0  0  0
   11.9522  -17.8166   22.5599 O   0  0  0  0  0  0  0  0  0  0  0  0
   11.7824  -15.2116   20.2983 O   0  0  0  0  0  0  0  0  0  0  0  0
   11.3888  -17.1693   24.6986 N   0  0  0  0  0  0  0  0  0  0  0  0
   12.3606  -17.9775   25.4256 C   0  0  1  0  0  0  0  0  0  0  0  0
   13.6866  -17.3022   25.5032 C   0  0  0  0  0  0  0  0  0  0  0  0
   14.1959  -16.7202   24.2172 C   0  0  0  0  0  0  0  0  0  0  0  0
   15.6383  -16.4421   24.1952 C   0  0  0  0  0  0  0  0  0  0  0  0
   16.0869  -15.2972   23.8495 O   0  0  0  0  0  0  0  0  0  0  0  0
   11.8223  -18.4068   26.7359 C   0  0  0  0  0  0  0  0  0  0  0  0
   12.4878  -19.2598   27.5630 O   0  0  0  0  0  0  0  0  0  0  0  0
   16.6114  -17.3646   24.5349 O   0  0  0  0  0  0  0  0  0  0  0  0
   10.7023  -17.9583   27.0861 O   0  0  0  0  0  0  0  0  0  0  0  0
  2  1  1  1
  2 10  1  0
  3  2  1  0
  3  4  1  0
  4  9  2  0
  5  6  2  0
  5  4  1  0
  6  7  1  0
  7  8  2  0
  9  8  1  0
 10 12  1  0
 10 11  2  0
 12 13  1  0
 13 17  1  0
 13 14  1  6
 14 15  1  0
 15 19  1  0
 16 15  2  0
 17 18  2  0
 20 21  1  0
 20 17  1  0
 22 23  1  0
 21 22  1  1
 23 24  1  0
 24 25  2  0
 24 28  1  0
 26 21  1  0
 27 26  1  0
 29 26  2  0
M  END
$$$$
