FDE.pdb
     RDKit          3D

 29 29  0  0  1  0  0  0  0  0999 V2000
    5.7993  -16.9616   25.7302 N   0  0  0  0  0  0  0  0  0  0  0  0
    6.5542  -15.9027   25.1384 C   0  0  1  0  0  0  0  0  0  0  0  0
    7.3837  -15.1545   26.1560 C   0  0  0  0  0  0  0  0  0  0  0  0
    6.8580  -13.7628   26.1910 C   0  0  0  0  0  0  0  0  0  0  0  0
    5.8517  -13.4096   27.0850 C   0  0  0  0  0  0  0  0  0  0  0  0
    5.3468  -12.1310   27.1384 C   0  0  0  0  0  0  0  0  0  0  0  0
    5.8221  -11.1415   26.3013 C   0  0  0  0  0  0  0  0  0  0  0  0
    6.8157  -11.4750   25.4130 C   0  0  0  0  0  0  0  0  0  0  0  0
    7.3198  -12.7562   25.3613 C   0  0  0  0  0  0  0  0  0  0  0  0
    7.3426  -16.3970   24.0012 C   0  0  0  0  0  0  0  0  0  0  0  0
    7.8789  -17.5305   24.1096 O   0  0  0  0  0  0  0  0  0  0  0  0
    7.5286  -15.6662   22.7944 N   0  0  0  0  0  0  0  0  0  0  0  0
    8.4068  -16.1722   21.7907 C   0  0  1  0  0  0  0  0  0  0  0  0
    8.1129  -15.5833   20.4178 C   0  0  0  0  0  0  0  0  0  0  0  0
    8.9313  -16.2452   19.4050 C   0  0  0  0  0  0  0  0  0  0  0  0
    9.5070  -15.6501   18.4618 O   0  0  0  0  0  0  0  0  0  0  0  0
    9.8347  -16.0705   22.1342 C   0  0  0  0  0  0  0  0  0  0  0  0
   10.3738  -14.9429   22.1839 O   0  0  0  0  0  0  0  0  0  0  0  0
    9.0906  -17.6258   19.4803 O   0  0  0  0  0  0  0  0  0  0  0  0
   10.5864  -17.2269   22.4044 N   0  0  0  0  0  0  0  0  0  0  0  0
   11.9853  -17.2117   22.8158 C   0  0  1  0  0  0  0  0  0  0  0  0
   12.2374  -18.1610   23.9363 C   0  0  0  0  0  0  0  0  0  0  0  0
   11.3741  -17.9780   25.1501 C   0  0  0  0  0  0  0  0  0  0  0  0
   11.6800  -18.8831   26.2661 C   0  0  0  0  0  0  0  0  0  0  0  0
   11.2301  -20.0783   26.2919 O   0  0  0  0  0  0  0  0  0  0  0  0
   12.8840  -17.3941   21.6540 C   0  0  0  0  0  0  0  0  0  0  0  0
   14.2331  -17.2255   21.7315 O   0  0  0  0  0  0  0  0  0  0  0  0
   12.4574  -18.5354   27.3561 O   0  0  0  0  0  0  0  0  0  0  0  0
   12.3662  -17.7170   20.5559 O   0  0  0  0  0  0  0  0  0  0  0  0
  2  1  1  1
  2 10  1  0
  3  2  1  0
  3  4  1  0
  4  9  2  0
  5  6  2  0
  5  4  1  0
  6  7  1  0
  7  8  2  0
  9  8  1  0
 10 12  1  0
 10 11  2  0
 12 13  1  0
 13 17  1  0
 13 14  1  6
 14 15  1  0
 15 19  1  0
 16 15  2  0
 17 18  2  0
 20 21  1  0
 20 17  1  0
 22 23  1  0
 21 22  1  1
 23 24  1  0
 24 25  2  0
 24 28  1  0
 26 21  1  0
 27 26  1  0
 29 26  2  0
M  END
$$$$
