FDE.pdb
     RDKit          3D

 29 29  0  0  1  0  0  0  0  0999 V2000
    7.1079  -16.0974   22.3370 N   0  0  0  0  0  0  0  0  0  0  0  0
    8.4716  -15.8261   22.6665 C   0  0  1  0  0  0  0  0  0  0  0  0
    8.6238  -15.2881   24.0704 C   0  0  0  0  0  0  0  0  0  0  0  0
    7.7401  -14.0945   24.1651 C   0  0  0  0  0  0  0  0  0  0  0  0
    7.6753  -13.1783   23.1196 C   0  0  0  0  0  0  0  0  0  0  0  0
    6.8678  -12.0662   23.1807 C   0  0  0  0  0  0  0  0  0  0  0  0
    6.0848  -11.8140   24.2893 C   0  0  0  0  0  0  0  0  0  0  0  0
    6.1380  -12.7096   25.3297 C   0  0  0  0  0  0  0  0  0  0  0  0
    6.9476  -13.8227   25.2663 C   0  0  0  0  0  0  0  0  0  0  0  0
    9.3150  -17.0001   22.4030 C   0  0  0  0  0  0  0  0  0  0  0  0
    8.9325  -17.8084   21.5173 O   0  0  0  0  0  0  0  0  0  0  0  0
   10.5312  -17.2670   23.0919 N   0  0  0  0  0  0  0  0  0  0  0  0
   11.7435  -17.4114   22.3541 C   0  0  1  0  0  0  0  0  0  0  0  0
   11.8320  -16.4299   21.1935 C   0  0  0  0  0  0  0  0  0  0  0  0
   11.8353  -17.1552   19.9256 C   0  0  0  0  0  0  0  0  0  0  0  0
   12.2403  -16.6764   18.8384 O   0  0  0  0  0  0  0  0  0  0  0  0
   12.9591  -17.3867   23.1842 C   0  0  0  0  0  0  0  0  0  0  0  0
   14.0756  -17.5327   22.6395 O   0  0  0  0  0  0  0  0  0  0  0  0
   11.3607  -18.4634   19.9092 O   0  0  0  0  0  0  0  0  0  0  0  0
   12.8688  -17.2008   24.5743 N   0  0  0  0  0  0  0  0  0  0  0  0
   13.6286  -17.9725   25.5507 C   0  0  1  0  0  0  0  0  0  0  0  0
   12.7320  -18.7343   26.4650 C   0  0  0  0  0  0  0  0  0  0  0  0
   11.3440  -18.1853   26.6207 C   0  0  0  0  0  0  0  0  0  0  0  0
   10.4387  -19.0177   27.4242 C   0  0  0  0  0  0  0  0  0  0  0  0
   10.8832  -19.9729   28.1464 O   0  0  0  0  0  0  0  0  0  0  0  0
   14.6619  -18.7996   24.8881 C   0  0  0  0  0  0  0  0  0  0  0  0
   15.9962  -18.5719   25.0369 O   0  0  0  0  0  0  0  0  0  0  0  0
    9.0665  -18.8497   27.4704 O   0  0  0  0  0  0  0  0  0  0  0  0
   14.2768  -19.7478   24.1594 O   0  0  0  0  0  0  0  0  0  0  0  0
  2  1  1  1
  2 10  1  0
  3  2  1  0
  3  4  1  0
  4  9  2  0
  5  6  2  0
  5  4  1  0
  6  7  1  0
  7  8  2  0
  9  8  1  0
 10 12  1  0
 10 11  2  0
 12 13  1  0
 13 17  1  0
 13 14  1  6
 14 15  1  0
 15 19  1  0
 16 15  2  0
 17 18  2  0
 20 21  1  0
 20 17  1  0
 22 23  1  0
 21 22  1  6
 23 24  1  0
 24 25  2  0
 24 28  1  0
 26 21  1  0
 27 26  1  0
 29 26  2  0
M  END
$$$$
