FDE.pdb
     RDKit          3D

 29 29  0  0  1  0  0  0  0  0999 V2000
    5.9535  -16.6474   24.8572 N   0  0  0  0  0  0  0  0  0  0  0  0
    7.0787  -15.7964   24.6300 C   0  0  1  0  0  0  0  0  0  0  0  0
    7.6202  -15.2108   25.9134 C   0  0  0  0  0  0  0  0  0  0  0  0
    7.0731  -13.8305   26.0136 C   0  0  0  0  0  0  0  0  0  0  0  0
    7.6499  -12.7877   25.2949 C   0  0  0  0  0  0  0  0  0  0  0  0
    7.1652  -11.5023   25.3692 C   0  0  0  0  0  0  0  0  0  0  0  0
    6.0800  -11.1947   26.1651 C   0  0  0  0  0  0  0  0  0  0  0  0
    5.4997  -12.2139   26.8807 C   0  0  0  0  0  0  0  0  0  0  0  0
    5.9869  -13.5004   26.8048 C   0  0  0  0  0  0  0  0  0  0  0  0
    8.1019  -16.4870   23.8329 C   0  0  0  0  0  0  0  0  0  0  0  0
    8.4647  -17.6313   24.2113 O   0  0  0  0  0  0  0  0  0  0  0  0
    8.6977  -15.9329   22.6655 N   0  0  0  0  0  0  0  0  0  0  0  0
    9.9029  -16.4975   22.1520 C   0  0  1  0  0  0  0  0  0  0  0  0
   10.2876  -15.9052   20.8032 C   0  0  0  0  0  0  0  0  0  0  0  0
    9.3462  -16.3466   19.7773 C   0  0  0  0  0  0  0  0  0  0  0  0
    8.9393  -17.5273   19.6523 O   0  0  0  0  0  0  0  0  0  0  0  0
   11.0292  -16.4747   23.0997 C   0  0  0  0  0  0  0  0  0  0  0  0
   11.3935  -15.3839   23.5917 O   0  0  0  0  0  0  0  0  0  0  0  0
    8.8616  -15.4057   18.8735 O   0  0  0  0  0  0  0  0  0  0  0  0
   11.6896  -17.6648   23.4499 N   0  0  0  0  0  0  0  0  0  0  0  0
   12.7310  -17.7498   24.4671 C   0  0  1  0  0  0  0  0  0  0  0  0
   12.2883  -18.5575   25.6384 C   0  0  0  0  0  0  0  0  0  0  0  0
   13.3492  -18.8651   26.6543 C   0  0  0  0  0  0  0  0  0  0  0  0
   12.8935  -19.6671   27.7977 C   0  0  0  0  0  0  0  0  0  0  0  0
   11.7375  -19.4906   28.3117 O   0  0  0  0  0  0  0  0  0  0  0  0
   14.0156  -18.1905   23.8785 C   0  0  0  0  0  0  0  0  0  0  0  0
   15.2241  -17.7881   24.3602 O   0  0  0  0  0  0  0  0  0  0  0  0
   13.6498  -20.6543   28.4033 O   0  0  0  0  0  0  0  0  0  0  0  0
   13.9738  -18.9676   22.8923 O   0  0  0  0  0  0  0  0  0  0  0  0
  2  1  1  1
  2 10  1  0
  3  2  1  0
  3  4  1  0
  4  9  2  0
  5  6  2  0
  5  4  1  0
  6  7  1  0
  7  8  2  0
  9  8  1  0
 10 12  1  0
 10 11  2  0
 12 13  1  0
 13 17  1  0
 13 14  1  6
 14 15  1  0
 15 19  1  0
 16 15  2  0
 17 18  2  0
 20 21  1  0
 20 17  1  0
 22 23  1  0
 21 22  1  1
 23 24  1  0
 24 25  2  0
 24 28  1  0
 26 21  1  0
 27 26  1  0
 29 26  2  0
M  END
$$$$
