FDE.pdb
     RDKit          3D

 29 29  0  0  1  0  0  0  0  0999 V2000
    6.2759  -16.9124   25.2686 N   0  0  0  0  0  0  0  0  0  0  0  0
    7.2848  -15.9489   24.9594 C   0  0  1  0  0  0  0  0  0  0  0  0
    7.7698  -15.2153   26.1883 C   0  0  0  0  0  0  0  0  0  0  0  0
    7.1696  -13.8546   26.1342 C   0  0  0  0  0  0  0  0  0  0  0  0
    7.5008  -12.9763   25.1069 C   0  0  0  0  0  0  0  0  0  0  0  0
    6.9617  -11.7128   25.0327 C   0  0  0  0  0  0  0  0  0  0  0  0
    6.0648  -11.2638   25.9812 C   0  0  0  0  0  0  0  0  0  0  0  0
    5.7280  -12.1197   27.0018 C   0  0  0  0  0  0  0  0  0  0  0  0
    6.2692  -13.3846   27.0740 C   0  0  0  0  0  0  0  0  0  0  0  0
    8.3728  -16.5633   24.1862 C   0  0  0  0  0  0  0  0  0  0  0  0
    8.8363  -17.6589   24.5970 O   0  0  0  0  0  0  0  0  0  0  0  0
    8.9237  -15.9878   23.0071 N   0  0  0  0  0  0  0  0  0  0  0  0
   10.1000  -16.5514   22.4295 C   0  0  1  0  0  0  0  0  0  0  0  0
   10.2891  -16.1286   20.9791 C   0  0  0  0  0  0  0  0  0  0  0  0
   11.4218  -16.8421   20.3948 C   0  0  0  0  0  0  0  0  0  0  0  0
   11.6714  -18.0558   20.5937 O   0  0  0  0  0  0  0  0  0  0  0  0
   11.3211  -16.3392   23.2239 C   0  0  0  0  0  0  0  0  0  0  0  0
   11.8080  -15.1898   23.3032 O   0  0  0  0  0  0  0  0  0  0  0  0
   12.2881  -16.1408   19.5611 O   0  0  0  0  0  0  0  0  0  0  0  0
   11.9350  -17.4153   23.8876 N   0  0  0  0  0  0  0  0  0  0  0  0
   13.0942  -17.2790   24.7617 C   0  0  1  0  0  0  0  0  0  0  0  0
   13.1453  -18.3676   25.7779 C   0  0  0  0  0  0  0  0  0  0  0  0
   12.0044  -18.4016   26.7521 C   0  0  0  0  0  0  0  0  0  0  0  0
   12.0016  -19.5584   27.6577 C   0  0  0  0  0  0  0  0  0  0  0  0
   12.8414  -19.6516   28.6156 O   0  0  0  0  0  0  0  0  0  0  0  0
   14.3389  -17.1258   23.9754 C   0  0  0  0  0  0  0  0  0  0  0  0
   15.3126  -16.2318   24.3027 O   0  0  0  0  0  0  0  0  0  0  0  0
   11.1188  -20.6187   27.5589 O   0  0  0  0  0  0  0  0  0  0  0  0
   14.4892  -17.8573   22.9652 O   0  0  0  0  0  0  0  0  0  0  0  0
  2  1  1  1
  2 10  1  0
  3  2  1  0
  3  4  1  0
  4  9  2  0
  5  6  2  0
  5  4  1  0
  6  7  1  0
  7  8  2  0
  9  8  1  0
 10 12  1  0
 10 11  2  0
 12 13  1  0
 13 17  1  0
 13 14  1  6
 14 15  1  0
 15 19  1  0
 16 15  2  0
 17 18  2  0
 20 21  1  0
 20 17  1  0
 22 23  1  0
 21 22  1  6
 23 24  1  0
 24 25  2  0
 24 28  1  0
 26 21  1  0
 27 26  1  0
 29 26  2  0
M  END
$$$$
