FDE.pdb
     RDKit          3D

 29 29  0  0  1  0  0  0  0  0999 V2000
    6.5683  -17.7493   20.9024 N   0  0  0  0  0  0  0  0  0  0  0  0
    7.7093  -16.9024   21.0532 C   0  0  1  0  0  0  0  0  0  0  0  0
    7.4782  -15.8083   22.0695 C   0  0  0  0  0  0  0  0  0  0  0  0
    7.6043  -14.5178   21.3392 C   0  0  0  0  0  0  0  0  0  0  0  0
    7.5640  -13.3092   22.0279 C   0  0  0  0  0  0  0  0  0  0  0  0
    7.6775  -12.1018   21.3783 C   0  0  0  0  0  0  0  0  0  0  0  0
    7.8369  -12.0417   20.0084 C   0  0  0  0  0  0  0  0  0  0  0  0
    7.8786  -13.2268   19.3146 C   0  0  0  0  0  0  0  0  0  0  0  0
    7.7648  -14.4348   19.9674 C   0  0  0  0  0  0  0  0  0  0  0  0
    8.9157  -17.6966   21.3233 C   0  0  0  0  0  0  0  0  0  0  0  0
    8.8453  -18.5836   22.2135 O   0  0  0  0  0  0  0  0  0  0  0  0
   10.1483  -17.5157   20.6355 N   0  0  0  0  0  0  0  0  0  0  0  0
   11.3067  -18.2302   21.0626 C   0  0  1  0  0  0  0  0  0  0  0  0
   12.4296  -18.1735   20.0360 C   0  0  0  0  0  0  0  0  0  0  0  0
   11.9904  -18.7793   18.7816 C   0  0  0  0  0  0  0  0  0  0  0  0
   11.2436  -19.7852   18.7057 O   0  0  0  0  0  0  0  0  0  0  0  0
   11.7777  -17.8629   22.4081 C   0  0  0  0  0  0  0  0  0  0  0  0
   12.2395  -16.7170   22.6037 O   0  0  0  0  0  0  0  0  0  0  0  0
   12.4215  -18.2131   17.5855 O   0  0  0  0  0  0  0  0  0  0  0  0
   11.7099  -18.7883   23.4638 N   0  0  0  0  0  0  0  0  0  0  0  0
   12.1484  -18.5049   24.8252 C   0  0  1  0  0  0  0  0  0  0  0  0
   11.4882  -19.4049   25.8123 C   0  0  0  0  0  0  0  0  0  0  0  0
   11.9897  -19.3020   27.2229 C   0  0  0  0  0  0  0  0  0  0  0  0
   11.2921  -20.1613   28.1891 C   0  0  0  0  0  0  0  0  0  0  0  0
   10.7951  -19.6818   29.2637 O   0  0  0  0  0  0  0  0  0  0  0  0
   13.6257  -18.4868   24.9159 C   0  0  0  0  0  0  0  0  0  0  0  0
   14.3034  -17.6476   25.7471 O   0  0  0  0  0  0  0  0  0  0  0  0
   11.1160  -21.5239   28.0296 O   0  0  0  0  0  0  0  0  0  0  0  0
   14.2686  -19.2841   24.1884 O   0  0  0  0  0  0  0  0  0  0  0  0
  2  1  1  1
  2 10  1  0
  3  2  1  0
  3  4  1  0
  4  9  2  0
  5  6  2  0
  5  4  1  0
  6  7  1  0
  7  8  2  0
  9  8  1  0
 10 12  1  0
 10 11  2  0
 12 13  1  0
 13 17  1  0
 13 14  1  6
 14 15  1  0
 15 19  1  0
 16 15  2  0
 17 18  2  0
 20 21  1  0
 20 17  1  0
 22 23  1  0
 21 22  1  1
 23 24  1  0
 24 25  2  0
 24 28  1  0
 26 21  1  0
 27 26  1  0
 29 26  2  0
M  END
$$$$
