FDE.pdb
     RDKit          3D

 29 29  0  0  1  0  0  0  0  0999 V2000
    5.4230  -17.6329   23.9802 N   0  0  0  0  0  0  0  0  0  0  0  0
    6.2182  -16.5042   24.3484 C   0  0  1  0  0  0  0  0  0  0  0  0
    6.0322  -16.1232   25.7988 C   0  0  0  0  0  0  0  0  0  0  0  0
    6.7696  -14.8463   25.9996 C   0  0  0  0  0  0  0  0  0  0  0  0
    8.0366  -14.8447   26.5753 C   0  0  0  0  0  0  0  0  0  0  0  0
    8.7403  -13.6794   26.7733 C   0  0  0  0  0  0  0  0  0  0  0  0
    8.2133  -12.4574   26.4060 C   0  0  0  0  0  0  0  0  0  0  0  0
    6.9632  -12.4428   25.8363 C   0  0  0  0  0  0  0  0  0  0  0  0
    6.2603  -13.6113   25.6390 C   0  0  0  0  0  0  0  0  0  0  0  0
    7.6254  -16.7164   23.9825 C   0  0  0  0  0  0  0  0  0  0  0  0
    8.1727  -17.7859   24.3578 O   0  0  0  0  0  0  0  0  0  0  0  0
    8.3936  -15.7829   23.2320 N   0  0  0  0  0  0  0  0  0  0  0  0
    9.7562  -16.0738   22.9261 C   0  0  1  0  0  0  0  0  0  0  0  0
   10.2593  -15.2820   21.7269 C   0  0  0  0  0  0  0  0  0  0  0  0
   11.5617  -15.7902   21.3039 C   0  0  0  0  0  0  0  0  0  0  0  0
   12.6595  -15.3896   21.7617 O   0  0  0  0  0  0  0  0  0  0  0  0
   10.6680  -15.9612   24.0764 C   0  0  0  0  0  0  0  0  0  0  0  0
   10.9211  -14.8309   24.5488 O   0  0  0  0  0  0  0  0  0  0  0  0
   11.6010  -16.7838   20.3300 O   0  0  0  0  0  0  0  0  0  0  0  0
   11.2492  -17.1100   24.6399 N   0  0  0  0  0  0  0  0  0  0  0  0
   12.1344  -17.0908   25.7984 C   0  0  1  0  0  0  0  0  0  0  0  0
   11.3692  -16.9659   27.0709 C   0  0  0  0  0  0  0  0  0  0  0  0
   10.4039  -18.0777   27.3608 C   0  0  0  0  0  0  0  0  0  0  0  0
   10.5238  -18.6637   28.7026 C   0  0  0  0  0  0  0  0  0  0  0  0
   11.3884  -18.2332   29.5384 O   0  0  0  0  0  0  0  0  0  0  0  0
   13.0763  -18.2322   25.7679 C   0  0  0  0  0  0  0  0  0  0  0  0
   14.1674  -18.3100   26.5790 O   0  0  0  0  0  0  0  0  0  0  0  0
    9.7378  -19.7022   29.1685 O   0  0  0  0  0  0  0  0  0  0  0  0
   12.8475  -19.1607   24.9532 O   0  0  0  0  0  0  0  0  0  0  0  0
  2  1  1  1
  2 10  1  0
  3  2  1  0
  3  4  1  0
  4  9  2  0
  5  6  2  0
  5  4  1  0
  6  7  1  0
  7  8  2  0
  9  8  1  0
 10 12  1  0
 10 11  2  0
 12 13  1  0
 13 17  1  0
 13 14  1  6
 14 15  1  0
 15 19  1  0
 16 15  2  0
 17 18  2  0
 20 21  1  0
 20 17  1  0
 22 23  1  0
 21 22  1  1
 23 24  1  0
 24 25  2  0
 24 28  1  0
 26 21  1  0
 27 26  1  0
 29 26  2  0
M  END
$$$$
