FDE.pdb
     RDKit          3D

 29 29  0  0  1  0  0  0  0  0999 V2000
    5.8446  -17.1968   24.9246 N   0  0  0  0  0  0  0  0  0  0  0  0
    6.9504  -16.2930   24.8780 C   0  0  1  0  0  0  0  0  0  0  0  0
    7.3985  -15.8672   26.2569 C   0  0  0  0  0  0  0  0  0  0  0  0
    7.2290  -14.3901   26.3205 C   0  0  0  0  0  0  0  0  0  0  0  0
    6.7273  -13.6886   25.2284 C   0  0  0  0  0  0  0  0  0  0  0  0
    6.5608  -12.3233   25.2594 C   0  0  0  0  0  0  0  0  0  0  0  0
    6.8874  -11.5909   26.3831 C   0  0  0  0  0  0  0  0  0  0  0  0
    7.3839  -12.2696   27.4695 C   0  0  0  0  0  0  0  0  0  0  0  0
    7.5498  -13.6369   27.4361 C   0  0  0  0  0  0  0  0  0  0  0  0
    8.0401  -16.8443   24.0609 C   0  0  0  0  0  0  0  0  0  0  0  0
    8.4060  -18.0258   24.2937 O   0  0  0  0  0  0  0  0  0  0  0  0
    8.6965  -16.1169   23.0289 N   0  0  0  0  0  0  0  0  0  0  0  0
    9.9045  -16.6250   22.4654 C   0  0  1  0  0  0  0  0  0  0  0  0
   10.2091  -16.0109   21.1060 C   0  0  0  0  0  0  0  0  0  0  0  0
   11.4410  -16.5802   20.5657 C   0  0  0  0  0  0  0  0  0  0  0  0
   11.7118  -17.8057   20.5635 O   0  0  0  0  0  0  0  0  0  0  0  0
   11.0650  -16.5556   23.3685 C   0  0  0  0  0  0  0  0  0  0  0  0
   11.5209  -15.4375   23.6950 O   0  0  0  0  0  0  0  0  0  0  0  0
   12.3839  -15.7174   20.0147 O   0  0  0  0  0  0  0  0  0  0  0  0
   11.6562  -17.7320   23.8603 N   0  0  0  0  0  0  0  0  0  0  0  0
   12.7877  -17.7524   24.7800 C   0  0  1  0  0  0  0  0  0  0  0  0
   12.3392  -17.8205   26.1993 C   0  0  0  0  0  0  0  0  0  0  0  0
   11.4645  -18.9886   26.5493 C   0  0  0  0  0  0  0  0  0  0  0  0
   11.2381  -19.1795   27.9883 C   0  0  0  0  0  0  0  0  0  0  0  0
   11.4602  -20.3050   28.5501 O   0  0  0  0  0  0  0  0  0  0  0  0
   13.7622  -18.8003   24.4020 C   0  0  0  0  0  0  0  0  0  0  0  0
   13.5205  -19.7128   23.4204 O   0  0  0  0  0  0  0  0  0  0  0  0
   10.7779  -18.1907   28.8390 O   0  0  0  0  0  0  0  0  0  0  0  0
   14.8540  -18.8383   25.0223 O   0  0  0  0  0  0  0  0  0  0  0  0
  2  1  1  1
  2 10  1  0
  3  2  1  0
  3  4  1  0
  4  9  2  0
  5  6  2  0
  5  4  1  0
  6  7  1  0
  7  8  2  0
  9  8  1  0
 10 12  1  0
 10 11  2  0
 12 13  1  0
 13 17  1  0
 13 14  1  6
 14 15  1  0
 15 19  1  0
 16 15  2  0
 17 18  2  0
 20 21  1  0
 20 17  1  0
 22 23  1  0
 21 22  1  1
 23 24  1  0
 24 25  2  0
 24 28  1  0
 26 21  1  0
 27 26  1  0
 29 26  2  0
M  END
$$$$
