FDE.pdb
     RDKit          3D

 29 29  0  0  1  0  0  0  0  0999 V2000
    6.7750  -16.3531   25.6935 N   0  0  0  0  0  0  0  0  0  0  0  0
    8.0812  -16.0908   25.1771 C   0  0  1  0  0  0  0  0  0  0  0  0
    8.8545  -15.1242   26.0437 C   0  0  0  0  0  0  0  0  0  0  0  0
    8.0247  -13.8935   26.1507 C   0  0  0  0  0  0  0  0  0  0  0  0
    8.2411  -12.8185   25.2939 C   0  0  0  0  0  0  0  0  0  0  0  0
    7.4896  -11.6687   25.3708 C   0  0  0  0  0  0  0  0  0  0  0  0
    6.4843  -11.5357   26.3077 C   0  0  0  0  0  0  0  0  0  0  0  0
    6.2587  -12.5889   27.1606 C   0  0  0  0  0  0  0  0  0  0  0  0
    7.0127  -13.7393   27.0817 C   0  0  0  0  0  0  0  0  0  0  0  0
    8.8034  -17.3453   24.9245 C   0  0  0  0  0  0  0  0  0  0  0  0
    9.4181  -17.8711   25.8888 O   0  0  0  0  0  0  0  0  0  0  0  0
    8.8424  -17.9903   23.6566 N   0  0  0  0  0  0  0  0  0  0  0  0
    9.7485  -17.5276   22.6567 C   0  0  1  0  0  0  0  0  0  0  0  0
    9.5317  -16.0593   22.3176 C   0  0  0  0  0  0  0  0  0  0  0  0
   10.4485  -15.6514   21.2562 C   0  0  0  0  0  0  0  0  0  0  0  0
   10.2805  -15.9087   20.0393 O   0  0  0  0  0  0  0  0  0  0  0  0
   11.1625  -17.8184   22.9455 C   0  0  0  0  0  0  0  0  0  0  0  0
   12.0296  -17.5596   22.0820 O   0  0  0  0  0  0  0  0  0  0  0  0
   11.5865  -14.9297   21.6045 O   0  0  0  0  0  0  0  0  0  0  0  0
   11.5367  -18.3807   24.1780 N   0  0  0  0  0  0  0  0  0  0  0  0
   12.7090  -17.9669   24.9400 C   0  0  1  0  0  0  0  0  0  0  0  0
   13.3353  -16.7448   24.3616 C   0  0  0  0  0  0  0  0  0  0  0  0
   14.4502  -16.9851   23.3863 C   0  0  0  0  0  0  0  0  0  0  0  0
   15.4462  -15.9078   23.3114 C   0  0  0  0  0  0  0  0  0  0  0  0
   16.1513  -15.5860   24.3267 O   0  0  0  0  0  0  0  0  0  0  0  0
   12.3964  -17.8621   26.3829 C   0  0  0  0  0  0  0  0  0  0  0  0
   11.1264  -17.9324   26.8695 O   0  0  0  0  0  0  0  0  0  0  0  0
   15.7031  -15.1667   22.1720 O   0  0  0  0  0  0  0  0  0  0  0  0
   13.3531  -17.7004   27.1809 O   0  0  0  0  0  0  0  0  0  0  0  0
  2  1  1  1
  2 10  1  0
  3  2  1  0
  3  4  1  0
  4  9  2  0
  5  6  2  0
  5  4  1  0
  6  7  1  0
  7  8  2  0
  9  8  1  0
 10 12  1  0
 10 11  2  0
 12 13  1  0
 13 17  1  0
 13 14  1  1
 14 15  1  0
 15 19  1  0
 16 15  2  0
 17 18  2  0
 20 21  1  0
 20 17  1  0
 22 23  1  0
 21 22  1  6
 23 24  1  0
 24 25  2  0
 24 28  1  0
 26 21  1  0
 27 26  1  0
 29 26  2  0
M  END
$$$$
