GCN.pdb
     RDKit          3D

 19 18  0  0  1  0  0  0  0  0999 V2000
    8.3074  -13.4672   17.7023 N   0  0  0  0  0  0  0  0  0  0  0  0
    7.2805  -13.6989   18.6971 C   0  0  0  0  0  0  0  0  0  0  0  0
    7.9397  -13.8410   20.0155 C   0  0  0  0  0  0  0  0  0  0  0  0
    9.1819  -14.0297   20.0538 O   0  0  0  0  0  0  0  0  0  0  0  0
    7.2501  -13.7779   21.2450 N   0  0  0  0  0  0  0  0  0  0  0  0
    7.9477  -13.9106   22.5153 C   0  0  1  0  0  0  0  0  0  0  0  0
    7.1662  -13.3686   23.6774 C   0  0  0  0  0  0  0  0  0  0  0  0
    7.8321  -13.7898   25.2853 S   0  0  0  0  0  0  0  0  0  0  0  0
    8.4347  -15.2919   22.6989 C   0  0  0  0  0  0  0  0  0  0  0  0
    7.6541  -16.2730   22.4846 O   0  0  0  0  0  0  0  0  0  0  0  0
   11.0847  -19.3840   22.1229 N   0  0  0  0  0  0  0  0  0  0  0  0
   11.9568  -18.2701   22.0669 C   0  0  0  0  0  0  0  0  0  0  0  0
   13.0723  -18.4267   21.5241 O   0  0  0  0  0  0  0  0  0  0  0  0
   11.5886  -16.9707   22.6172 C   0  0  0  0  0  0  0  0  0  0  0  0
   10.2530  -16.9292   23.3198 C   0  0  2  0  0  0  0  0  0  0  0  0
    9.7486  -15.5640   23.1068 N   0  0  0  0  0  0  0  0  0  0  0  0
   10.3561  -17.2164   24.7700 C   0  0  0  0  0  0  0  0  0  0  0  0
   10.5324  -16.2843   25.5779 O   0  0  0  0  0  0  0  0  0  0  0  0
   10.2498  -18.5418   25.1844 O   0  0  0  0  0  0  0  0  0  0  0  0
  2  1  1  0
  3  2  1  0
  4  3  2  0
  5  3  1  0
  6  9  1  0
  6  5  1  0
  7  8  1  0
  6  7  1  1
  9 10  2  0
 11 12  1  0
 12 13  2  0
 14 12  1  0
 15 14  1  1
 16 15  1  0
 16  9  1  0
 17 19  1  0
 17 15  1  0
 18 17  2  0
M  END
$$$$
