GCN.pdb
     RDKit          3D

 19 18  0  0  1  0  0  0  0  0999 V2000
    7.3451  -14.2418   20.2962 N   0  0  0  0  0  0  0  0  0  0  0  0
    6.4851  -14.1917   21.4606 C   0  0  0  0  0  0  0  0  0  0  0  0
    7.3429  -14.1984   22.6676 C   0  0  0  0  0  0  0  0  0  0  0  0
    8.5771  -14.3939   22.5319 O   0  0  0  0  0  0  0  0  0  0  0  0
    6.8530  -13.9977   23.9757 N   0  0  0  0  0  0  0  0  0  0  0  0
    7.7335  -14.0500   25.1333 C   0  0  1  0  0  0  0  0  0  0  0  0
    7.1352  -13.4216   26.3589 C   0  0  0  0  0  0  0  0  0  0  0  0
    5.6825  -12.4210   26.0506 S   0  0  0  0  0  0  0  0  0  0  0  0
    8.2430  -15.4202   25.3372 C   0  0  0  0  0  0  0  0  0  0  0  0
    7.4556  -16.4127   25.2240 O   0  0  0  0  0  0  0  0  0  0  0  0
   10.4596  -18.7651   23.5371 N   0  0  0  0  0  0  0  0  0  0  0  0
   11.5738  -18.0380   24.0213 C   0  0  0  0  0  0  0  0  0  0  0  0
   12.6981  -18.3015   23.5416 O   0  0  0  0  0  0  0  0  0  0  0  0
   11.4401  -17.0091   25.0462 C   0  0  0  0  0  0  0  0  0  0  0  0
   10.1340  -17.0264   25.8029 C   0  0  2  0  0  0  0  0  0  0  0  0
    9.5859  -15.6694   25.6553 N   0  0  0  0  0  0  0  0  0  0  0  0
   10.3039  -17.3566   27.2376 C   0  0  0  0  0  0  0  0  0  0  0  0
   10.4422  -18.5436   27.5907 O   0  0  0  0  0  0  0  0  0  0  0  0
   10.3033  -16.3092   28.1554 O   0  0  0  0  0  0  0  0  0  0  0  0
  2  1  1  0
  3  2  1  0
  4  3  2  0
  5  3  1  0
  6  9  1  0
  6  5  1  0
  7  8  1  0
  6  7  1  1
  9 10  2  0
 11 12  1  0
 12 13  2  0
 14 12  1  0
 15 14  1  6
 16 15  1  0
 16  9  1  0
 17 19  1  0
 17 15  1  0
 18 17  2  0
M  END
$$$$
