GCN.pdb
     RDKit          3D

 19 18  0  0  1  0  0  0  0  0999 V2000
    6.9565  -17.8593   18.1633 N   0  0  0  0  0  0  0  0  0  0  0  0
    6.1393  -17.2432   19.1881 C   0  0  0  0  0  0  0  0  0  0  0  0
    7.0362  -16.5287   20.1251 C   0  0  0  0  0  0  0  0  0  0  0  0
    8.2755  -16.7219   20.0425 O   0  0  0  0  0  0  0  0  0  0  0  0
    6.5787  -15.6351   21.1168 N   0  0  0  0  0  0  0  0  0  0  0  0
    7.4964  -15.0070   22.0555 C   0  0  1  0  0  0  0  0  0  0  0  0
    6.9121  -13.8028   22.7362 C   0  0  0  0  0  0  0  0  0  0  0  0
    7.9439  -13.0966   24.0180 S   0  0  0  0  0  0  0  0  0  0  0  0
    8.0667  -16.0108   22.9753 C   0  0  0  0  0  0  0  0  0  0  0  0
    7.3155  -16.9000   23.4879 O   0  0  0  0  0  0  0  0  0  0  0  0
   11.3395  -19.6025   24.7142 N   0  0  0  0  0  0  0  0  0  0  0  0
   10.7603  -19.4865   23.4276 C   0  0  0  0  0  0  0  0  0  0  0  0
   10.8500  -20.4653   22.6547 O   0  0  0  0  0  0  0  0  0  0  0  0
   10.0748  -18.2744   22.9940 C   0  0  0  0  0  0  0  0  0  0  0  0
   10.0776  -17.1452   23.9962 C   0  0  2  0  0  0  0  0  0  0  0  0
    9.4291  -16.0186   23.3078 N   0  0  0  0  0  0  0  0  0  0  0  0
   11.4422  -16.7634   24.4297 C   0  0  0  0  0  0  0  0  0  0  0  0
   12.1508  -16.0479   23.6958 O   0  0  0  0  0  0  0  0  0  0  0  0
   11.8908  -17.2262   25.6642 O   0  0  0  0  0  0  0  0  0  0  0  0
  2  1  1  0
  3  2  1  0
  4  3  2  0
  5  3  1  0
  6  9  1  0
  6  5  1  0
  7  8  1  0
  6  7  1  1
  9 10  2  0
 11 12  1  0
 12 13  2  0
 14 12  1  0
 15 14  1  6
 16 15  1  0
 16  9  1  0
 17 19  1  0
 17 15  1  0
 18 17  2  0
M  END
$$$$
