GCN.pdb
     RDKit          3D

 19 18  0  0  1  0  0  0  0  0999 V2000
    7.0333  -13.6783   20.3549 N   0  0  0  0  0  0  0  0  0  0  0  0
    6.2059  -13.7630   21.5406 C   0  0  0  0  0  0  0  0  0  0  0  0
    7.0974  -13.8242   22.7214 C   0  0  0  0  0  0  0  0  0  0  0  0
    8.3383  -13.9066   22.5391 O   0  0  0  0  0  0  0  0  0  0  0  0
    6.6330  -13.7963   24.0536 N   0  0  0  0  0  0  0  0  0  0  0  0
    7.5528  -13.8455   25.1802 C   0  0  1  0  0  0  0  0  0  0  0  0
    6.9647  -13.2941   26.4471 C   0  0  0  0  0  0  0  0  0  0  0  0
    5.8351  -11.9250   26.2108 S   0  0  0  0  0  0  0  0  0  0  0  0
    8.1372  -15.1943   25.3156 C   0  0  0  0  0  0  0  0  0  0  0  0
    7.3864  -16.2193   25.2555 O   0  0  0  0  0  0  0  0  0  0  0  0
   11.9846  -18.8996   25.4465 N   0  0  0  0  0  0  0  0  0  0  0  0
   12.3065  -17.7146   24.7417 C   0  0  0  0  0  0  0  0  0  0  0  0
   13.3587  -17.7028   24.0662 O   0  0  0  0  0  0  0  0  0  0  0  0
   11.4538  -16.5323   24.7858 C   0  0  0  0  0  0  0  0  0  0  0  0
   10.1410  -16.7175   25.5079 C   0  0  2  0  0  0  0  0  0  0  0  0
    9.5125  -15.3875   25.5101 N   0  0  0  0  0  0  0  0  0  0  0  0
   10.3116  -17.2055   26.8967 C   0  0  0  0  0  0  0  0  0  0  0  0
   10.7626  -18.3484   27.1036 O   0  0  0  0  0  0  0  0  0  0  0  0
    9.9553  -16.3531   27.9389 O   0  0  0  0  0  0  0  0  0  0  0  0
  2  1  1  0
  3  2  1  0
  4  3  2  0
  5  3  1  0
  6  9  1  0
  6  5  1  0
  7  8  1  0
  6  7  1  1
  9 10  2  0
 11 12  1  0
 12 13  2  0
 14 12  1  0
 15 14  1  1
 16 15  1  0
 16  9  1  0
 17 19  1  0
 17 15  1  0
 18 17  2  0
M  END
$$$$
