GCN.pdb
     RDKit          3D

 19 18  0  0  1  0  0  0  0  0999 V2000
    7.9278  -13.1758   19.2826 N   0  0  0  0  0  0  0  0  0  0  0  0
    6.9625  -13.4393   20.3297 C   0  0  0  0  0  0  0  0  0  0  0  0
    7.6995  -13.6180   21.6016 C   0  0  0  0  0  0  0  0  0  0  0  0
    8.9521  -13.7169   21.5665 O   0  0  0  0  0  0  0  0  0  0  0  0
    7.0737  -13.6859   22.8646 N   0  0  0  0  0  0  0  0  0  0  0  0
    7.8472  -13.8253   24.0894 C   0  0  1  0  0  0  0  0  0  0  0  0
    7.2315  -13.1153   25.2606 C   0  0  0  0  0  0  0  0  0  0  0  0
    5.5349  -13.5743   25.6032 S   0  0  0  0  0  0  0  0  0  0  0  0
    8.1746  -15.2429   24.3388 C   0  0  0  0  0  0  0  0  0  0  0  0
    7.2689  -16.1301   24.2362 O   0  0  0  0  0  0  0  0  0  0  0  0
   11.8216  -16.1731   22.0403 N   0  0  0  0  0  0  0  0  0  0  0  0
   11.0313  -17.1152   22.7419 C   0  0  0  0  0  0  0  0  0  0  0  0
   10.2404  -17.8235   22.0813 O   0  0  0  0  0  0  0  0  0  0  0  0
   11.1191  -17.2739   24.1890 C   0  0  0  0  0  0  0  0  0  0  0  0
    9.8249  -17.0576   24.9355 C   0  0  2  0  0  0  0  0  0  0  0  0
    9.4695  -15.6515   24.6895 N   0  0  0  0  0  0  0  0  0  0  0  0
    9.9510  -17.3066   26.3909 C   0  0  0  0  0  0  0  0  0  0  0  0
   10.1846  -18.4576   26.8073 O   0  0  0  0  0  0  0  0  0  0  0  0
    9.8015  -16.2253   27.2559 O   0  0  0  0  0  0  0  0  0  0  0  0
  2  1  1  0
  3  2  1  0
  4  3  2  0
  5  3  1  0
  6  9  1  0
  6  5  1  0
  7  8  1  0
  6  7  1  1
  9 10  2  0
 11 12  1  0
 12 13  2  0
 14 12  1  0
 15 14  1  6
 16 15  1  0
 16  9  1  0
 17 19  1  0
 17 15  1  0
 18 17  2  0
M  END
$$$$
