GCN.pdb
     RDKit          3D

 19 18  0  0  1  0  0  0  0  0999 V2000
    4.2084  -18.5260   22.0086 N   0  0  0  0  0  0  0  0  0  0  0  0
    4.4403  -17.1061   21.8419 C   0  0  0  0  0  0  0  0  0  0  0  0
    5.8555  -16.9129   21.4513 C   0  0  0  0  0  0  0  0  0  0  0  0
    6.5908  -17.9240   21.3211 O   0  0  0  0  0  0  0  0  0  0  0  0
    6.4354  -15.6483   21.2150 N   0  0  0  0  0  0  0  0  0  0  0  0
    7.8468  -15.5085   20.8886 C   0  0  1  0  0  0  0  0  0  0  0  0
    8.1205  -14.3980   19.9155 C   0  0  0  0  0  0  0  0  0  0  0  0
    6.7108  -13.3523   19.5614 S   0  0  0  0  0  0  0  0  0  0  0  0
    8.6619  -15.4568   22.1181 C   0  0  0  0  0  0  0  0  0  0  0  0
    8.1150  -15.1680   23.2296 O   0  0  0  0  0  0  0  0  0  0  0  0
   11.9275  -17.6677   25.4361 N   0  0  0  0  0  0  0  0  0  0  0  0
   10.8121  -18.2071   24.7511 C   0  0  0  0  0  0  0  0  0  0  0  0
   10.4091  -19.3412   25.0904 O   0  0  0  0  0  0  0  0  0  0  0  0
   10.1370  -17.4825   23.6805 C   0  0  0  0  0  0  0  0  0  0  0  0
   10.7796  -16.1732   23.2907 C   0  0  2  0  0  0  0  0  0  0  0  0
   10.0393  -15.7201   22.1031 N   0  0  0  0  0  0  0  0  0  0  0  0
   12.2207  -16.3108   22.9739 C   0  0  0  0  0  0  0  0  0  0  0  0
   13.0500  -15.5469   23.5043 O   0  0  0  0  0  0  0  0  0  0  0  0
   12.6024  -17.3073   22.0790 O   0  0  0  0  0  0  0  0  0  0  0  0
  2  1  1  0
  3  2  1  0
  4  3  2  0
  5  3  1  0
  6  9  1  0
  6  5  1  0
  7  8  1  0
  6  7  1  1
  9 10  2  0
 11 12  1  0
 12 13  2  0
 14 12  1  0
 15 14  1  6
 16 15  1  0
 16  9  1  0
 17 19  1  0
 17 15  1  0
 18 17  2  0
M  END
$$$$
