GCN.pdb
     RDKit          3D

 19 18  0  0  1  0  0  0  0  0999 V2000
    9.0277  -15.5657   14.8979 N   0  0  0  0  0  0  0  0  0  0  0  0
    7.9566  -15.0196   15.7055 C   0  0  0  0  0  0  0  0  0  0  0  0
    8.4962  -14.7339   17.0545 C   0  0  0  0  0  0  0  0  0  0  0  0
    9.6158  -15.2093   17.3716 O   0  0  0  0  0  0  0  0  0  0  0  0
    7.8217  -13.9527   18.0168 N   0  0  0  0  0  0  0  0  0  0  0  0
    8.3591  -13.7659   19.3563 C   0  0  1  0  0  0  0  0  0  0  0  0
    7.6204  -12.7263   20.1491 C   0  0  0  0  0  0  0  0  0  0  0  0
    8.1570  -12.5646   21.8497 S   0  0  0  0  0  0  0  0  0  0  0  0
    8.5077  -15.0644   20.0424 C   0  0  0  0  0  0  0  0  0  0  0  0
    7.8398  -16.0713   19.6451 O   0  0  0  0  0  0  0  0  0  0  0  0
   12.3293  -18.8948   21.0060 N   0  0  0  0  0  0  0  0  0  0  0  0
   10.9458  -18.5943   21.0096 C   0  0  0  0  0  0  0  0  0  0  0  0
   10.1518  -19.4961   21.3560 O   0  0  0  0  0  0  0  0  0  0  0  0
   10.4380  -17.2820   20.6264 C   0  0  0  0  0  0  0  0  0  0  0  0
    9.6907  -16.5440   21.7109 C   0  0  2  0  0  0  0  0  0  0  0  0
    9.3738  -15.2289   21.1330 N   0  0  0  0  0  0  0  0  0  0  0  0
   10.4870  -16.3803   22.9499 C   0  0  0  0  0  0  0  0  0  0  0  0
   10.2915  -17.1377   23.9198 O   0  0  0  0  0  0  0  0  0  0  0  0
   11.4425  -15.3677   22.9855 O   0  0  0  0  0  0  0  0  0  0  0  0
  2  1  1  0
  3  2  1  0
  4  3  2  0
  5  3  1  0
  6  9  1  0
  6  5  1  0
  7  8  1  0
  6  7  1  1
  9 10  2  0
 11 12  1  0
 12 13  2  0
 14 12  1  0
 15 14  1  6
 16 15  1  0
 16  9  1  0
 17 19  1  0
 17 15  1  0
 18 17  2  0
M  END
$$$$
