GCN.pdb
     RDKit          3D

 19 18  0  0  1  0  0  0  0  0999 V2000
    4.5786  -20.1436   22.4325 N   0  0  0  0  0  0  0  0  0  0  0  0
    4.8619  -19.5703   23.7321 C   0  0  0  0  0  0  0  0  0  0  0  0
    5.4264  -18.2170   23.5257 C   0  0  0  0  0  0  0  0  0  0  0  0
    4.8182  -17.4161   22.7715 O   0  0  0  0  0  0  0  0  0  0  0  0
    6.6196  -17.7673   24.1300 N   0  0  0  0  0  0  0  0  0  0  0  0
    7.0967  -16.4045   23.9486 C   0  0  1  0  0  0  0  0  0  0  0  0
    7.3617  -15.6942   25.2448 C   0  0  0  0  0  0  0  0  0  0  0  0
    8.2979  -16.6453   26.4386 S   0  0  0  0  0  0  0  0  0  0  0  0
    8.2216  -16.3705   22.9934 C   0  0  0  0  0  0  0  0  0  0  0  0
    8.9337  -17.4093   22.8155 O   0  0  0  0  0  0  0  0  0  0  0  0
    7.5074  -12.6651   19.4101 N   0  0  0  0  0  0  0  0  0  0  0  0
    8.2258  -13.8579   19.6664 C   0  0  0  0  0  0  0  0  0  0  0  0
    7.8146  -14.9140   19.1381 O   0  0  0  0  0  0  0  0  0  0  0  0
    9.4113  -13.8798   20.5155 C   0  0  0  0  0  0  0  0  0  0  0  0
    9.6276  -15.1645   21.2783 C   0  0  2  0  0  0  0  0  0  0  0  0
    8.5364  -15.2151   22.2635 N   0  0  0  0  0  0  0  0  0  0  0  0
   10.9399  -15.2126   21.9649 C   0  0  0  0  0  0  0  0  0  0  0  0
   10.9962  -15.1228   23.2065 O   0  0  0  0  0  0  0  0  0  0  0  0
   12.0832  -15.3595   21.1833 O   0  0  0  0  0  0  0  0  0  0  0  0
  2  1  1  0
  3  2  1  0
  4  3  2  0
  5  3  1  0
  6  9  1  0
  6  5  1  0
  7  8  1  0
  6  7  1  1
  9 10  2  0
 11 12  1  0
 12 13  2  0
 14 12  1  0
 15 14  1  1
 16 15  1  0
 16  9  1  0
 17 19  1  0
 17 15  1  0
 18 17  2  0
M  END
$$$$
