GCN.pdb
     RDKit          3D

 19 18  0  0  1  0  0  0  0  0999 V2000
    7.6240  -18.1942   17.9983 N   0  0  0  0  0  0  0  0  0  0  0  0
    6.7555  -17.7493   19.0685 C   0  0  0  0  0  0  0  0  0  0  0  0
    7.5579  -16.9247   20.0007 C   0  0  0  0  0  0  0  0  0  0  0  0
    8.8062  -16.8906   19.8573 O   0  0  0  0  0  0  0  0  0  0  0  0
    7.0000  -16.1673   21.0525 N   0  0  0  0  0  0  0  0  0  0  0  0
    7.8385  -15.4313   21.9869 C   0  0  1  0  0  0  0  0  0  0  0  0
    7.1173  -14.3012   22.6635 C   0  0  0  0  0  0  0  0  0  0  0  0
    8.0697  -13.4561   23.9224 S   0  0  0  0  0  0  0  0  0  0  0  0
    8.5244  -16.3567   22.9099 C   0  0  0  0  0  0  0  0  0  0  0  0
    7.8601  -17.2579   23.5136 O   0  0  0  0  0  0  0  0  0  0  0  0
   13.2001  -16.8139   21.5193 N   0  0  0  0  0  0  0  0  0  0  0  0
   12.4627  -17.5659   22.4655 C   0  0  0  0  0  0  0  0  0  0  0  0
   12.1494  -18.7386   22.1653 O   0  0  0  0  0  0  0  0  0  0  0  0
   12.0697  -17.0129   23.7565 C   0  0  0  0  0  0  0  0  0  0  0  0
   10.6053  -17.1563   24.0943 C   0  0  2  0  0  0  0  0  0  0  0  0
    9.9042  -16.2760   23.1471 N   0  0  0  0  0  0  0  0  0  0  0  0
   10.2943  -16.7600   25.4879 C   0  0  0  0  0  0  0  0  0  0  0  0
   10.3771  -15.5641   25.8279 O   0  0  0  0  0  0  0  0  0  0  0  0
    9.9136  -17.7568   26.3829 O   0  0  0  0  0  0  0  0  0  0  0  0
  2  1  1  0
  3  2  1  0
  4  3  2  0
  5  3  1  0
  6  9  1  0
  6  5  1  0
  7  8  1  0
  6  7  1  1
  9 10  2  0
 11 12  1  0
 12 13  2  0
 14 12  1  0
 15 14  1  6
 16 15  1  0
 16  9  1  0
 17 19  1  0
 17 15  1  0
 18 17  2  0
M  END
$$$$
