GCN.pdb
     RDKit          3D

 19 18  0  0  1  0  0  0  0  0999 V2000
    7.8555  -13.0690   19.4499 N   0  0  0  0  0  0  0  0  0  0  0  0
    7.0777  -13.9734   20.2713 C   0  0  0  0  0  0  0  0  0  0  0  0
    7.7362  -14.0768   21.5936 C   0  0  0  0  0  0  0  0  0  0  0  0
    8.9921  -14.0792   21.6457 O   0  0  0  0  0  0  0  0  0  0  0  0
    7.0314  -14.1752   22.8122 N   0  0  0  0  0  0  0  0  0  0  0  0
    7.7269  -14.3043   24.0840 C   0  0  1  0  0  0  0  0  0  0  0  0
    6.8986  -13.8650   25.2570 C   0  0  0  0  0  0  0  0  0  0  0  0
    6.4902  -12.1216   25.2705 S   0  0  0  0  0  0  0  0  0  0  0  0
    8.3126  -15.6522   24.2216 C   0  0  0  0  0  0  0  0  0  0  0  0
    7.5708  -16.6797   24.1136 O   0  0  0  0  0  0  0  0  0  0  0  0
   12.4134  -15.6561   22.1066 N   0  0  0  0  0  0  0  0  0  0  0  0
   11.7299  -16.7786   22.6330 C   0  0  0  0  0  0  0  0  0  0  0  0
   11.1628  -17.5493   21.8280 O   0  0  0  0  0  0  0  0  0  0  0  0
   11.6750  -17.0496   24.0650 C   0  0  0  0  0  0  0  0  0  0  0  0
   10.2844  -17.1721   24.6397 C   0  0  2  0  0  0  0  0  0  0  0  0
    9.6797  -15.8419   24.4701 N   0  0  0  0  0  0  0  0  0  0  0  0
   10.2844  -17.5557   26.0710 C   0  0  0  0  0  0  0  0  0  0  0  0
   10.7088  -18.6757   26.4149 O   0  0  0  0  0  0  0  0  0  0  0  0
    9.8018  -16.6337   26.9964 O   0  0  0  0  0  0  0  0  0  0  0  0
  2  1  1  0
  3  2  1  0
  4  3  2  0
  5  3  1  0
  6  9  1  0
  6  5  1  0
  7  8  1  0
  6  7  1  1
  9 10  2  0
 11 12  1  0
 12 13  2  0
 14 12  1  0
 15 14  1  1
 16 15  1  0
 16  9  1  0
 17 19  1  0
 17 15  1  0
 18 17  2  0
M  END
$$$$
