GCN.pdb
     RDKit          3D

 19 18  0  0  1  0  0  0  0  0999 V2000
    7.8980  -13.3857   19.5431 N   0  0  0  0  0  0  0  0  0  0  0  0
    6.9092  -13.7196   20.5474 C   0  0  0  0  0  0  0  0  0  0  0  0
    7.5608  -13.6540   21.8755 C   0  0  0  0  0  0  0  0  0  0  0  0
    8.8148  -13.5874   21.9317 O   0  0  0  0  0  0  0  0  0  0  0  0
    6.8515  -13.6630   23.0954 N   0  0  0  0  0  0  0  0  0  0  0  0
    7.5396  -13.5831   24.3752 C   0  0  1  0  0  0  0  0  0  0  0  0
    6.8666  -12.6609   25.3508 C   0  0  0  0  0  0  0  0  0  0  0  0
    7.6379  -12.5915   26.9653 S   0  0  0  0  0  0  0  0  0  0  0  0
    7.8145  -14.9339   24.9028 C   0  0  0  0  0  0  0  0  0  0  0  0
    6.8759  -15.7894   24.9748 O   0  0  0  0  0  0  0  0  0  0  0  0
   11.2546  -16.5415   22.7482 N   0  0  0  0  0  0  0  0  0  0  0  0
   10.4716  -17.2623   23.6819 C   0  0  0  0  0  0  0  0  0  0  0  0
    9.6184  -18.0611   23.2373 O   0  0  0  0  0  0  0  0  0  0  0  0
   10.6363  -17.0965   25.1214 C   0  0  0  0  0  0  0  0  0  0  0  0
    9.3966  -16.6526   25.8598 C   0  0  2  0  0  0  0  0  0  0  0  0
    9.0943  -15.3128   25.3331 N   0  0  0  0  0  0  0  0  0  0  0  0
    9.5906  -16.5938   27.3278 C   0  0  0  0  0  0  0  0  0  0  0  0
    9.5163  -15.5011   27.9219 O   0  0  0  0  0  0  0  0  0  0  0  0
    9.8534  -17.7838   28.0019 O   0  0  0  0  0  0  0  0  0  0  0  0
  2  1  1  0
  3  2  1  0
  4  3  2  0
  5  3  1  0
  6  9  1  0
  6  5  1  0
  7  8  1  0
  6  7  1  1
  9 10  2  0
 11 12  1  0
 12 13  2  0
 14 12  1  0
 15 14  1  6
 16 15  1  0
 16  9  1  0
 17 19  1  0
 17 15  1  0
 18 17  2  0
M  END
$$$$
