FRV.pdb
     RDKit          3D

 30 30  0  0  1  0  0  0  0  0999 V2000
    6.4871  -17.4392   21.1798 N   0  0  0  0  0  0  0  0  0  0  0  0
    6.9614  -16.3016   21.9087 C   0  0  1  0  0  0  0  0  0  0  0  0
    6.1366  -15.0617   21.6305 C   0  0  0  0  0  0  0  0  0  0  0  0
    6.8627  -14.2338   20.6405 C   0  0  0  0  0  0  0  0  0  0  0  0
    7.7975  -13.2927   21.0186 C   0  0  0  0  0  0  0  0  0  0  0  0
    8.4825  -12.5143   20.1104 C   0  0  0  0  0  0  0  0  0  0  0  0
    8.2145  -12.6916   18.7678 C   0  0  0  0  0  0  0  0  0  0  0  0
    7.2830  -13.6292   18.3884 C   0  0  0  0  0  0  0  0  0  0  0  0
    6.5981  -14.4081   19.3036 C   0  0  0  0  0  0  0  0  0  0  0  0
    7.0085  -16.6097   23.3473 C   0  0  0  0  0  0  0  0  0  0  0  0
    6.0639  -16.2922   24.1113 O   0  0  0  0  0  0  0  0  0  0  0  0
    4.7434  -22.3795   23.7170 N   0  0  0  0  0  0  0  0  0  0  0  0
    6.0905  -22.4186   23.2999 C   0  0  0  0  0  0  0  0  0  0  0  0
    6.4910  -22.9751   22.1838 N   0  0  0  0  0  0  0  0  0  0  0  0
    7.1328  -21.8347   24.0904 N   0  0  0  0  0  0  0  0  0  0  0  0
    6.9256  -21.1391   25.3160 C   0  0  0  0  0  0  0  0  0  0  0  0
    6.9370  -19.6465   25.1875 C   0  0  0  0  0  0  0  0  0  0  0  0
    8.2612  -19.0394   25.5097 C   0  0  0  0  0  0  0  0  0  0  0  0
    8.2131  -17.5316   25.3043 C   0  0  2  0  0  0  0  0  0  0  0  0
    8.1324  -17.2749   23.8898 N   0  0  0  0  0  0  0  0  0  0  0  0
    9.3515  -16.8435   25.9183 C   0  0  0  0  0  0  0  0  0  0  0  0
   10.4798  -16.8426   25.3532 O   0  0  0  0  0  0  0  0  0  0  0  0
    7.4658  -22.9552   21.8682 C   0  0  0  0  0  0  0  0  0  0  0  0
    9.8460  -13.3056   26.8297 C   0  0  2  0  0  0  0  0  0  0  0  0
   10.2364  -14.0707   28.0707 C   0  0  0  0  0  0  0  0  0  0  0  0
    9.1742  -13.8301   29.1205 C   0  0  2  0  0  0  0  0  0  0  0  0
   10.4040  -15.5518   27.8063 N   0  0  0  0  0  0  0  0  0  0  0  0
    9.2762  -16.1430   27.1636 C   0  0  0  0  0  0  0  0  0  0  0  0
   10.8374  -16.2716   29.0265 O   0  0  0  0  0  0  0  0  0  0  0  0
   10.1781  -17.1895   29.5651 O   0  0  0  0  0  0  0  0  0  0  0  0
  2  1  1  6
  2 10  1  0
  3  2  1  0
  4  3  1  0
  4  9  2  0
  5  4  1  0
  6  5  2  0
  6  7  1  0
  7  8  2  0
  8  9  1  0
 10 11  2  0
 13 12  1  0
 13 15  1  0
 14 13  2  0
 15 16  1  0
 16 17  1  0
 17 18  1  0
 19 18  1  6
 19 21  1  0
 20 19  1  0
 20 10  1  0
 21 22  2  0
 24 23  1  1
 24 26  1  0
 25 24  1  0
 26 28  1  0
 27 21  1  0
 26 27  1  1
 28 29  2  0
 28 30  1  0
M  END
$$$$
