FRV.pdb
     RDKit          3D

 30 30  0  0  1  0  0  0  0  0999 V2000
    5.5741  -17.8672   24.4262 N   0  0  0  0  0  0  0  0  0  0  0  0
    6.0800  -16.5394   24.6032 C   0  0  1  0  0  0  0  0  0  0  0  0
    5.8871  -16.0399   26.0204 C   0  0  0  0  0  0  0  0  0  0  0  0
    6.0191  -14.5650   26.0146 C   0  0  0  0  0  0  0  0  0  0  0  0
    7.2361  -13.9385   26.1845 C   0  0  0  0  0  0  0  0  0  0  0  0
    7.3767  -12.5674   26.1814 C   0  0  0  0  0  0  0  0  0  0  0  0
    6.2456  -11.7971   25.9997 C   0  0  0  0  0  0  0  0  0  0  0  0
    5.0311  -12.4193   25.8301 C   0  0  0  0  0  0  0  0  0  0  0  0
    4.8950  -13.7959   25.8340 C   0  0  0  0  0  0  0  0  0  0  0  0
    7.4932  -16.4809   24.1956 C   0  0  0  0  0  0  0  0  0  0  0  0
    8.2714  -17.4430   24.4084 O   0  0  0  0  0  0  0  0  0  0  0  0
    7.9910  -15.4936   18.8294 N   0  0  0  0  0  0  0  0  0  0  0  0
    8.2368  -14.2548   18.2008 C   0  0  0  0  0  0  0  0  0  0  0  0
    8.2715  -14.0921   16.9015 N   0  0  0  0  0  0  0  0  0  0  0  0
    8.4680  -13.0646   18.9639 N   0  0  0  0  0  0  0  0  0  0  0  0
    8.5528  -13.0184   20.3850 C   0  0  0  0  0  0  0  0  0  0  0  0
    9.4720  -14.0401   20.9815 C   0  0  0  0  0  0  0  0  0  0  0  0
    9.6030  -13.9185   22.4627 C   0  0  0  0  0  0  0  0  0  0  0  0
    9.3683  -15.2693   23.1246 C   0  0  2  0  0  0  0  0  0  0  0  0
    7.9944  -15.3258   23.5518 N   0  0  0  0  0  0  0  0  0  0  0  0
   10.2935  -15.5216   24.2322 C   0  0  0  0  0  0  0  0  0  0  0  0
   11.5388  -15.5556   24.0310 O   0  0  0  0  0  0  0  0  0  0  0  0
    8.5118  -13.2007   16.4565 C   0  0  0  0  0  0  0  0  0  0  0  0
   10.2286  -15.7994   29.1463 C   0  0  2  0  0  0  0  0  0  0  0  0
   10.2729  -14.9758   27.8823 C   0  0  0  0  0  0  0  0  0  0  0  0
   11.1645  -13.7804   28.1355 C   0  0  1  0  0  0  0  0  0  0  0  0
   10.7667  -15.7712   26.6927 N   0  0  0  0  0  0  0  0  0  0  0  0
    9.8727  -15.7417   25.5818 C   0  0  0  0  0  0  0  0  0  0  0  0
   11.1751  -17.1387   27.0906 O   0  0  0  0  0  0  0  0  0  0  0  0
   10.5479  -18.1738   26.7706 O   0  0  0  0  0  0  0  0  0  0  0  0
  2  1  1  1
  2 10  1  0
  3  2  1  0
  4  3  1  0
  4  9  2  0
  5  4  1  0
  6  5  2  0
  6  7  1  0
  7  8  2  0
  8  9  1  0
 10 11  2  0
 13 12  1  0
 13 15  1  0
 14 13  2  0
 15 16  1  0
 16 17  1  0
 17 18  1  0
 19 18  1  1
 19 21  1  0
 20 19  1  0
 20 10  1  0
 21 22  2  0
 24 23  1  1
 24 26  1  0
 25 24  1  0
 26 28  1  0
 27 21  1  0
 26 27  1  1
 28 29  2  0
 28 30  1  0
M  END
$$$$
