FRV.pdb
     RDKit          3D

 30 30  0  0  1  0  0  0  0  0999 V2000
    9.4157  -15.7342   20.8440 N   0  0  0  0  0  0  0  0  0  0  0  0
    8.8541  -15.0121   21.9456 C   0  0  1  0  0  0  0  0  0  0  0  0
    7.4279  -14.5785   21.6755 C   0  0  0  0  0  0  0  0  0  0  0  0
    7.4320  -13.6742   20.5029 C   0  0  0  0  0  0  0  0  0  0  0  0
    7.0684  -14.1062   19.2444 C   0  0  0  0  0  0  0  0  0  0  0  0
    7.0662  -13.2779   18.1426 C   0  0  0  0  0  0  0  0  0  0  0  0
    7.4455  -11.9620   18.3163 C   0  0  0  0  0  0  0  0  0  0  0  0
    7.8084  -11.5289   19.5699 C   0  0  0  0  0  0  0  0  0  0  0  0
    7.8090  -12.3640   20.6728 C   0  0  0  0  0  0  0  0  0  0  0  0
    8.9529  -15.8144   23.1758 C   0  0  0  0  0  0  0  0  0  0  0  0
    8.3812  -15.4544   24.2342 O   0  0  0  0  0  0  0  0  0  0  0  0
    9.7599  -21.8126   27.0882 N   0  0  0  0  0  0  0  0  0  0  0  0
   11.1287  -22.1093   27.2569 C   0  0  0  0  0  0  0  0  0  0  0  0
   11.6150  -22.7325   28.3014 N   0  0  0  0  0  0  0  0  0  0  0  0
   12.0986  -21.7400   26.2695 N   0  0  0  0  0  0  0  0  0  0  0  0
   11.8102  -20.9920   25.0921 C   0  0  0  0  0  0  0  0  0  0  0  0
   10.9610  -19.7798   25.3242 C   0  0  0  0  0  0  0  0  0  0  0  0
   10.6880  -19.0066   24.0777 C   0  0  0  0  0  0  0  0  0  0  0  0
    9.9217  -17.7326   24.4056 C   0  0  2  0  0  0  0  0  0  0  0  0
    9.7021  -17.0138   23.1775 N   0  0  0  0  0  0  0  0  0  0  0  0
   10.6043  -16.9069   25.4050 C   0  0  0  0  0  0  0  0  0  0  0  0
   11.7885  -16.5159   25.2118 O   0  0  0  0  0  0  0  0  0  0  0  0
   12.6176  -22.8952   28.4379 C   0  0  0  0  0  0  0  0  0  0  0  0
    9.8312  -13.5548   26.7326 C   0  0  2  0  0  0  0  0  0  0  0  0
   10.0143  -14.4204   27.9553 C   0  0  0  0  0  0  0  0  0  0  0  0
    8.6525  -14.6499   28.5725 C   0  0  2  0  0  0  0  0  0  0  0  0
   10.6868  -15.7379   27.6338 N   0  0  0  0  0  0  0  0  0  0  0  0
   10.0031  -16.4935   26.6357 C   0  0  0  0  0  0  0  0  0  0  0  0
   10.9802  -16.5081   28.8649 O   0  0  0  0  0  0  0  0  0  0  0  0
   11.7287  -16.0985   29.7811 O   0  0  0  0  0  0  0  0  0  0  0  0
  2  1  1  6
  2 10  1  0
  3  2  1  0
  4  3  1  0
  4  9  2  0
  5  4  1  0
  6  5  2  0
  6  7  1  0
  7  8  2  0
  8  9  1  0
 10 11  2  0
 13 12  1  0
 13 15  1  0
 14 13  2  0
 15 16  1  0
 16 17  1  0
 17 18  1  0
 19 18  1  6
 19 21  1  0
 20 19  1  0
 20 10  1  0
 21 22  2  0
 24 23  1  1
 24 26  1  0
 25 24  1  0
 26 28  1  0
 27 21  1  0
 26 27  1  1
 28 29  2  0
 28 30  1  0
M  END
$$$$
