FRV.pdb
     RDKit          3D

 30 30  0  0  1  0  0  0  0  0999 V2000
    5.1350  -16.7986   25.3129 N   0  0  0  0  0  0  0  0  0  0  0  0
    6.2175  -15.8681   25.2014 C   0  0  1  0  0  0  0  0  0  0  0  0
    6.4359  -15.0910   26.4834 C   0  0  0  0  0  0  0  0  0  0  0  0
    6.2532  -13.6511   26.1902 C   0  0  0  0  0  0  0  0  0  0  0  0
    7.2505  -12.8882   25.6194 C   0  0  0  0  0  0  0  0  0  0  0  0
    7.0970  -11.5474   25.3396 C   0  0  0  0  0  0  0  0  0  0  0  0
    5.8902  -10.9518   25.6473 C   0  0  0  0  0  0  0  0  0  0  0  0
    4.8944  -11.7102   26.2165 C   0  0  0  0  0  0  0  0  0  0  0  0
    5.0532  -13.0558   26.4955 C   0  0  0  0  0  0  0  0  0  0  0  0
    7.4409  -16.5679   24.7767 C   0  0  0  0  0  0  0  0  0  0  0  0
    7.8848  -17.5500   25.4209 O   0  0  0  0  0  0  0  0  0  0  0  0
   12.3532  -18.8992   18.8119 N   0  0  0  0  0  0  0  0  0  0  0  0
   12.9475  -18.8876   20.0913 C   0  0  0  0  0  0  0  0  0  0  0  0
   14.2170  -18.6430   20.3019 N   0  0  0  0  0  0  0  0  0  0  0  0
   12.1794  -19.1472   21.2723 N   0  0  0  0  0  0  0  0  0  0  0  0
   10.9772  -18.4676   21.6212 C   0  0  0  0  0  0  0  0  0  0  0  0
   11.0455  -16.9783   21.4734 C   0  0  0  0  0  0  0  0  0  0  0  0
    9.7913  -16.2884   21.8940 C   0  0  0  0  0  0  0  0  0  0  0  0
    9.4524  -16.6443   23.3349 C   0  0  2  0  0  0  0  0  0  0  0  0
    8.1369  -16.1354   23.6241 N   0  0  0  0  0  0  0  0  0  0  0  0
   10.4495  -16.1477   24.2866 C   0  0  0  0  0  0  0  0  0  0  0  0
   11.1426  -15.1289   24.0144 O   0  0  0  0  0  0  0  0  0  0  0  0
   14.6389  -18.6461   21.2359 C   0  0  0  0  0  0  0  0  0  0  0  0
   10.1730  -14.5982   27.4781 C   0  0  2  0  0  0  0  0  0  0  0  0
   11.1482  -15.7202   27.7386 C   0  0  0  0  0  0  0  0  0  0  0  0
   10.4329  -16.7826   28.5432 C   0  0  2  0  0  0  0  0  0  0  0  0
   11.7113  -16.3033   26.4601 N   0  0  0  0  0  0  0  0  0  0  0  0
   10.7070  -16.7576   25.5549 C   0  0  0  0  0  0  0  0  0  0  0  0
   12.7570  -17.3139   26.7433 O   0  0  0  0  0  0  0  0  0  0  0  0
   12.6756  -18.5153   26.4010 O   0  0  0  0  0  0  0  0  0  0  0  0
  2  1  1  1
  2 10  1  0
  3  2  1  0
  4  3  1  0
  4  9  2  0
  5  4  1  0
  6  5  2  0
  6  7  1  0
  7  8  2  0
  8  9  1  0
 10 11  2  0
 13 12  1  0
 13 15  1  0
 14 13  2  0
 15 16  1  0
 16 17  1  0
 17 18  1  0
 19 18  1  6
 19 21  1  0
 20 19  1  0
 20 10  1  0
 21 22  2  0
 24 23  1  1
 24 26  1  0
 25 24  1  0
 26 28  1  0
 27 21  1  0
 26 27  1  1
 28 29  2  0
 28 30  1  0
M  END
$$$$
