FRV.pdb
     RDKit          3D

 30 30  0  0  1  0  0  0  0  0999 V2000
    5.0430  -16.4316   25.3004 N   0  0  0  0  0  0  0  0  0  0  0  0
    6.2593  -15.6887   25.1625 C   0  0  1  0  0  0  0  0  0  0  0  0
    6.5550  -14.8465   26.3867 C   0  0  0  0  0  0  0  0  0  0  0  0
    6.3917  -13.4212   26.0199 C   0  0  0  0  0  0  0  0  0  0  0  0
    5.3077  -12.6777   26.4377 C   0  0  0  0  0  0  0  0  0  0  0  0
    5.1404  -11.3503   26.1059 C   0  0  0  0  0  0  0  0  0  0  0  0
    6.1042  -10.7486   25.3219 C   0  0  0  0  0  0  0  0  0  0  0  0
    7.1858  -11.4877   24.9040 C   0  0  0  0  0  0  0  0  0  0  0  0
    7.3493  -12.8197   25.2396 C   0  0  0  0  0  0  0  0  0  0  0  0
    7.3724  -16.5995   24.8494 C   0  0  0  0  0  0  0  0  0  0  0  0
    7.5903  -17.6225   25.5442 O   0  0  0  0  0  0  0  0  0  0  0  0
   12.8716  -20.2700   21.4745 N   0  0  0  0  0  0  0  0  0  0  0  0
   13.5940  -19.2516   20.8179 C   0  0  0  0  0  0  0  0  0  0  0  0
   14.8850  -19.2989   20.6011 N   0  0  0  0  0  0  0  0  0  0  0  0
   12.9438  -18.0712   20.3320 N   0  0  0  0  0  0  0  0  0  0  0  0
   11.5572  -17.7874   20.4917 C   0  0  0  0  0  0  0  0  0  0  0  0
   11.0815  -17.8153   21.9121 C   0  0  0  0  0  0  0  0  0  0  0  0
    9.9095  -16.9250   22.1565 C   0  0  0  0  0  0  0  0  0  0  0  0
    9.4787  -17.0102   23.6142 C   0  0  2  0  0  0  0  0  0  0  0  0
    8.2179  -16.3279   23.7489 N   0  0  0  0  0  0  0  0  0  0  0  0
   10.4879  -16.4749   24.5314 C   0  0  0  0  0  0  0  0  0  0  0  0
   11.2896  -15.5785   24.1489 O   0  0  0  0  0  0  0  0  0  0  0  0
   15.4022  -18.5425   20.1422 C   0  0  0  0  0  0  0  0  0  0  0  0
   10.0255  -14.4653   27.3853 C   0  0  2  0  0  0  0  0  0  0  0  0
   10.9369  -15.5485   27.9088 C   0  0  0  0  0  0  0  0  0  0  0  0
   10.1221  -16.4472   28.8124 C   0  0  2  0  0  0  0  0  0  0  0  0
   11.5811  -16.3477   26.7962 N   0  0  0  0  0  0  0  0  0  0  0  0
   10.6390  -16.9112   25.8856 C   0  0  0  0  0  0  0  0  0  0  0  0
   12.5517  -17.3309   27.3311 O   0  0  0  0  0  0  0  0  0  0  0  0
   13.5615  -17.0188   28.0021 O   0  0  0  0  0  0  0  0  0  0  0  0
  2  1  1  1
  2 10  1  0
  3  2  1  0
  4  3  1  0
  4  9  2  0
  5  4  1  0
  6  5  2  0
  6  7  1  0
  7  8  2  0
  8  9  1  0
 10 11  2  0
 13 12  1  0
 13 15  1  0
 14 13  2  0
 15 16  1  0
 16 17  1  0
 17 18  1  0
 19 18  1  6
 19 21  1  0
 20 19  1  0
 20 10  1  0
 21 22  2  0
 24 23  1  1
 24 26  1  0
 25 24  1  0
 26 28  1  0
 27 21  1  0
 26 27  1  1
 28 29  2  0
 28 30  1  0
M  END
$$$$
