FRV.pdb
     RDKit          3D

 30 30  0  0  1  0  0  0  0  0999 V2000
    5.9876  -18.2714   26.0146 N   0  0  0  0  0  0  0  0  0  0  0  0
    6.3452  -16.8958   25.8408 C   0  0  1  0  0  0  0  0  0  0  0  0
    6.9925  -16.3137   27.0807 C   0  0  0  0  0  0  0  0  0  0  0  0
    7.0785  -14.8450   26.9133 C   0  0  0  0  0  0  0  0  0  0  0  0
    8.2866  -14.1936   26.7762 C   0  0  0  0  0  0  0  0  0  0  0  0
    8.3846  -12.8277   26.6191 C   0  0  0  0  0  0  0  0  0  0  0  0
    7.2185  -12.0891   26.5995 C   0  0  0  0  0  0  0  0  0  0  0  0
    6.0129  -12.7362   26.7360 C   0  0  0  0  0  0  0  0  0  0  0  0
    5.9196  -14.1073   26.8933 C   0  0  0  0  0  0  0  0  0  0  0  0
    7.2080  -16.7458   24.6577 C   0  0  0  0  0  0  0  0  0  0  0  0
    8.1739  -17.5221   24.4550 O   0  0  0  0  0  0  0  0  0  0  0  0
    7.8628  -12.5671   17.1110 N   0  0  0  0  0  0  0  0  0  0  0  0
    8.5839  -13.7121   17.5099 C   0  0  0  0  0  0  0  0  0  0  0  0
    9.8881  -13.8119   17.4397 N   0  0  0  0  0  0  0  0  0  0  0  0
    7.9179  -14.8677   18.0327 N   0  0  0  0  0  0  0  0  0  0  0  0
    7.2110  -14.9041   19.2687 C   0  0  0  0  0  0  0  0  0  0  0  0
    7.9652  -14.3274   20.4277 C   0  0  0  0  0  0  0  0  0  0  0  0
    7.2242  -14.4273   21.7187 C   0  0  0  0  0  0  0  0  0  0  0  0
    7.7941  -15.5559   22.5669 C   0  0  2  0  0  0  0  0  0  0  0  0
    6.9541  -15.7129   23.7258 N   0  0  0  0  0  0  0  0  0  0  0  0
    9.1940  -15.3309   22.9357 C   0  0  0  0  0  0  0  0  0  0  0  0
    9.5510  -14.2387   23.4574 O   0  0  0  0  0  0  0  0  0  0  0  0
   10.4061  -14.6215   17.7953 C   0  0  0  0  0  0  0  0  0  0  0  0
   11.5110  -17.3684   25.2277 C   0  0  2  0  0  0  0  0  0  0  0  0
   12.2061  -17.1860   23.9005 C   0  0  0  0  0  0  0  0  0  0  0  0
   12.1385  -18.4998   23.1541 C   0  0  2  0  0  0  0  0  0  0  0  0
   11.5969  -16.0699   23.0790 N   0  0  0  0  0  0  0  0  0  0  0  0
   10.2302  -16.2978   22.7402 C   0  0  0  0  0  0  0  0  0  0  0  0
   12.4488  -15.7301   21.9155 O   0  0  0  0  0  0  0  0  0  0  0  0
   13.5901  -15.2249   22.0116 O   0  0  0  0  0  0  0  0  0  0  0  0
  2  1  1  1
  2 10  1  0
  3  2  1  0
  4  3  1  0
  4  9  2  0
  5  4  1  0
  6  5  2  0
  6  7  1  0
  7  8  2  0
  8  9  1  0
 10 11  2  0
 13 12  1  0
 13 15  1  0
 14 13  2  0
 15 16  1  0
 16 17  1  0
 17 18  1  0
 19 18  1  1
 19 21  1  0
 20 19  1  0
 20 10  1  0
 21 22  2  0
 24 23  1  1
 24 26  1  0
 25 24  1  0
 26 28  1  0
 27 21  1  0
 26 27  1  6
 28 29  2  0
 28 30  1  0
M  END
$$$$
