FRV.pdb
     RDKit          3D

 30 30  0  0  1  0  0  0  0  0999 V2000
   12.3277  -16.4112   26.2293 N   0  0  0  0  0  0  0  0  0  0  0  0
   11.0721  -16.0199   25.6630 C   0  0  1  0  0  0  0  0  0  0  0  0
   10.6981  -14.5991   26.0323 C   0  0  0  0  0  0  0  0  0  0  0  0
   10.4100  -14.5575   27.4842 C   0  0  0  0  0  0  0  0  0  0  0  0
    9.1249  -14.4437   27.9723 C   0  0  0  0  0  0  0  0  0  0  0  0
    8.8392  -14.4039   29.3201 C   0  0  0  0  0  0  0  0  0  0  0  0
    9.8905  -14.4820   30.2113 C   0  0  0  0  0  0  0  0  0  0  0  0
   11.1726  -14.5955   29.7273 C   0  0  0  0  0  0  0  0  0  0  0  0
   11.4544  -14.6350   28.3735 C   0  0  0  0  0  0  0  0  0  0  0  0
   11.0965  -16.2121   24.2039 C   0  0  0  0  0  0  0  0  0  0  0  0
   11.8145  -15.4937   23.4656 O   0  0  0  0  0  0  0  0  0  0  0  0
    7.8303  -19.3100   17.8106 N   0  0  0  0  0  0  0  0  0  0  0  0
    9.0002  -20.0237   17.4761 C   0  0  0  0  0  0  0  0  0  0  0  0
    9.3798  -20.2632   16.2455 N   0  0  0  0  0  0  0  0  0  0  0  0
    9.8711  -20.5436   18.4877 N   0  0  0  0  0  0  0  0  0  0  0  0
    9.6999  -20.3375   19.8867 C   0  0  0  0  0  0  0  0  0  0  0  0
    9.8792  -18.9168   20.3272 C   0  0  0  0  0  0  0  0  0  0  0  0
    9.9864  -18.7703   21.8081 C   0  0  0  0  0  0  0  0  0  0  0  0
   10.1836  -17.3071   22.1794 C   0  0  2  0  0  0  0  0  0  0  0  0
   10.3016  -17.2208   23.6119 N   0  0  0  0  0  0  0  0  0  0  0  0
    9.1127  -16.4476   21.6687 C   0  0  0  0  0  0  0  0  0  0  0  0
    7.9708  -16.4600   22.2057 O   0  0  0  0  0  0  0  0  0  0  0  0
   10.2380  -20.7739   16.0151 C   0  0  0  0  0  0  0  0  0  0  0  0
    7.2047  -12.8028   18.9812 C   0  0  2  0  0  0  0  0  0  0  0  0
    8.4097  -13.4639   19.6048 C   0  0  0  0  0  0  0  0  0  0  0  0
    8.7427  -12.7199   20.8790 C   0  0  1  0  0  0  0  0  0  0  0  0
    8.1804  -14.9336   19.8856 N   0  0  0  0  0  0  0  0  0  0  0  0
    9.2715  -15.5580   20.5595 C   0  0  0  0  0  0  0  0  0  0  0  0
    7.7445  -15.6539   18.6665 O   0  0  0  0  0  0  0  0  0  0  0  0
    6.5880  -15.5843   18.1922 O   0  0  0  0  0  0  0  0  0  0  0  0
  2  1  1  6
  2 10  1  0
  3  2  1  0
  4  3  1  0
  4  9  2  0
  5  4  1  0
  6  5  2  0
  6  7  1  0
  7  8  2  0
  8  9  1  0
 10 11  2  0
 13 12  1  0
 13 15  1  0
 14 13  2  0
 15 16  1  0
 16 17  1  0
 17 18  1  0
 19 18  1  1
 19 21  1  0
 20 19  1  0
 20 10  1  0
 21 22  2  0
 24 23  1  6
 24 26  1  0
 25 24  1  0
 26 28  1  0
 27 21  1  0
 26 27  1  6
 28 29  2  0
 28 30  1  0
M  END
$$$$
