FRV.pdb
     RDKit          3D

 30 30  0  0  1  0  0  0  0  0999 V2000
    5.8627  -16.1982   21.5862 N   0  0  0  0  0  0  0  0  0  0  0  0
    7.1661  -15.8100   22.0343 C   0  0  1  0  0  0  0  0  0  0  0  0
    7.2814  -14.3112   22.2228 C   0  0  0  0  0  0  0  0  0  0  0  0
    7.5559  -13.6974   20.9035 C   0  0  0  0  0  0  0  0  0  0  0  0
    6.5498  -13.4219   20.0010 C   0  0  0  0  0  0  0  0  0  0  0  0
    6.7877  -12.8506   18.7694 C   0  0  0  0  0  0  0  0  0  0  0  0
    8.0915  -12.5447   18.4342 C   0  0  0  0  0  0  0  0  0  0  0  0
    9.0962  -12.8184   19.3322 C   0  0  0  0  0  0  0  0  0  0  0  0
    8.8525  -13.3919   20.5672 C   0  0  0  0  0  0  0  0  0  0  0  0
    7.5130  -16.5393   23.2649 C   0  0  0  0  0  0  0  0  0  0  0  0
    6.8038  -16.4468   24.2970 O   0  0  0  0  0  0  0  0  0  0  0  0
   12.4154  -17.6658   21.7416 N   0  0  0  0  0  0  0  0  0  0  0  0
   13.0151  -18.8691   21.3142 C   0  0  0  0  0  0  0  0  0  0  0  0
   14.0703  -18.9214   20.5399 N   0  0  0  0  0  0  0  0  0  0  0  0
   12.4956  -20.1433   21.7124 N   0  0  0  0  0  0  0  0  0  0  0  0
   11.4553  -20.3304   22.6671 C   0  0  0  0  0  0  0  0  0  0  0  0
   10.7815  -19.0647   23.1011 C   0  0  0  0  0  0  0  0  0  0  0  0
    9.7972  -19.2714   24.2031 C   0  0  0  0  0  0  0  0  0  0  0  0
    9.0936  -17.9622   24.5330 C   0  0  2  0  0  0  0  0  0  0  0  0
    8.6629  -17.3618   23.2971 N   0  0  0  0  0  0  0  0  0  0  0  0
    9.9345  -17.0531   25.3157 C   0  0  0  0  0  0  0  0  0  0  0  0
   10.8550  -16.3934   24.7590 O   0  0  0  0  0  0  0  0  0  0  0  0
   14.4936  -19.8023   20.2316 C   0  0  0  0  0  0  0  0  0  0  0  0
    8.5852  -14.7508   28.3778 C   0  0  2  0  0  0  0  0  0  0  0  0
    9.9458  -14.6166   27.7385 C   0  0  0  0  0  0  0  0  0  0  0  0
   10.8058  -13.7654   28.6462 C   0  0  1  0  0  0  0  0  0  0  0  0
   10.5984  -15.9586   27.4842 N   0  0  0  0  0  0  0  0  0  0  0  0
    9.7838  -16.8490   26.7238 C   0  0  0  0  0  0  0  0  0  0  0  0
   11.1167  -16.5524   28.7387 O   0  0  0  0  0  0  0  0  0  0  0  0
   10.7072  -17.6336   29.2188 O   0  0  0  0  0  0  0  0  0  0  0  0
  2  1  1  1
  2 10  1  0
  3  2  1  0
  4  3  1  0
  4  9  2  0
  5  4  1  0
  6  5  2  0
  6  7  1  0
  7  8  2  0
  8  9  1  0
 10 11  2  0
 13 12  1  0
 13 15  1  0
 14 13  2  0
 15 16  1  0
 16 17  1  0
 17 18  1  0
 19 18  1  6
 19 21  1  0
 20 19  1  0
 20 10  1  0
 21 22  2  0
 24 23  1  6
 24 26  1  0
 25 24  1  0
 26 28  1  0
 27 21  1  0
 26 27  1  6
 28 29  2  0
 28 30  1  0
M  END
$$$$
