FRV.pdb
     RDKit          3D

 30 30  0  0  1  0  0  0  0  0999 V2000
    5.1552  -17.6486   24.5101 N   0  0  0  0  0  0  0  0  0  0  0  0
    5.9241  -16.4962   24.8720 C   0  0  1  0  0  0  0  0  0  0  0  0
    5.8873  -16.2314   26.3632 C   0  0  0  0  0  0  0  0  0  0  0  0
    6.3529  -14.8458   26.6001 C   0  0  0  0  0  0  0  0  0  0  0  0
    5.4949  -13.7670   26.5504 C   0  0  0  0  0  0  0  0  0  0  0  0
    5.9114  -12.4713   26.7688 C   0  0  0  0  0  0  0  0  0  0  0  0
    7.2458  -12.2546   27.0484 C   0  0  0  0  0  0  0  0  0  0  0  0
    8.1032  -13.3285   27.0984 C   0  0  0  0  0  0  0  0  0  0  0  0
    7.6804  -14.6271   26.8786 C   0  0  0  0  0  0  0  0  0  0  0  0
    7.3043  -16.6376   24.3805 C   0  0  0  0  0  0  0  0  0  0  0  0
    7.9475  -17.7031   24.5467 O   0  0  0  0  0  0  0  0  0  0  0  0
    9.7057  -15.3915   18.8561 N   0  0  0  0  0  0  0  0  0  0  0  0
    8.9743  -14.2587   18.4412 C   0  0  0  0  0  0  0  0  0  0  0  0
    8.4774  -14.1140   17.2379 N   0  0  0  0  0  0  0  0  0  0  0  0
    8.7204  -13.1674   19.3338 N   0  0  0  0  0  0  0  0  0  0  0  0
    8.0825  -13.2906   20.6014 C   0  0  0  0  0  0  0  0  0  0  0  0
    8.2720  -14.6227   21.2603 C   0  0  0  0  0  0  0  0  0  0  0  0
    9.4934  -14.6868   22.1147 C   0  0  0  0  0  0  0  0  0  0  0  0
    9.2884  -15.6773   23.2526 C   0  0  2  0  0  0  0  0  0  0  0  0
    7.9272  -15.5611   23.7074 N   0  0  0  0  0  0  0  0  0  0  0  0
   10.2456  -15.4853   24.3450 C   0  0  0  0  0  0  0  0  0  0  0  0
   11.3771  -14.9729   24.1221 O   0  0  0  0  0  0  0  0  0  0  0  0
    7.9861  -13.2672   16.9348 C   0  0  0  0  0  0  0  0  0  0  0  0
    9.9787  -13.3819   27.2426 C   0  0  2  0  0  0  0  0  0  0  0  0
   10.4300  -14.6983   27.8266 C   0  0  0  0  0  0  0  0  0  0  0  0
    9.2709  -15.2877   28.5992 C   0  0  2  0  0  0  0  0  0  0  0  0
   10.9144  -15.6638   26.7660 N   0  0  0  0  0  0  0  0  0  0  0  0
    9.9822  -15.8510   25.7029 C   0  0  0  0  0  0  0  0  0  0  0  0
   11.3915  -16.9308   27.3679 O   0  0  0  0  0  0  0  0  0  0  0  0
   10.8890  -18.0510   27.1230 O   0  0  0  0  0  0  0  0  0  0  0  0
  2  1  1  1
  2 10  1  0
  3  2  1  0
  4  3  1  0
  4  9  2  0
  5  4  1  0
  6  5  2  0
  6  7  1  0
  7  8  2  0
  8  9  1  0
 10 11  2  0
 13 12  1  0
 13 15  1  0
 14 13  2  0
 15 16  1  0
 16 17  1  0
 17 18  1  0
 19 18  1  6
 19 21  1  0
 20 19  1  0
 20 10  1  0
 21 22  2  0
 24 23  1  1
 24 26  1  0
 25 24  1  0
 26 28  1  0
 27 21  1  0
 26 27  1  1
 28 29  2  0
 28 30  1  0
M  END
$$$$
