FRV.pdb
     RDKit          3D

 30 30  0  0  1  0  0  0  0  0999 V2000
    5.4466  -15.5342   25.5377 N   0  0  0  0  0  0  0  0  0  0  0  0
    6.7122  -15.0914   25.0351 C   0  0  1  0  0  0  0  0  0  0  0  0
    7.3312  -14.0218   25.9114 C   0  0  0  0  0  0  0  0  0  0  0  0
    6.5930  -12.7571   25.6914 C   0  0  0  0  0  0  0  0  0  0  0  0
    6.7977  -11.9753   24.5736 C   0  0  0  0  0  0  0  0  0  0  0  0
    6.1191  -10.7960   24.3532 C   0  0  0  0  0  0  0  0  0  0  0  0
    5.1976  -10.3886   25.2969 C   0  0  0  0  0  0  0  0  0  0  0  0
    4.9918  -11.1663   26.4121 C   0  0  0  0  0  0  0  0  0  0  0  0
    5.6753  -12.3492   26.6289 C   0  0  0  0  0  0  0  0  0  0  0  0
    7.6154  -16.2410   24.8633 C   0  0  0  0  0  0  0  0  0  0  0  0
    7.6703  -17.1580   25.7192 O   0  0  0  0  0  0  0  0  0  0  0  0
   14.8785  -17.9354   21.1864 N   0  0  0  0  0  0  0  0  0  0  0  0
   14.2789  -19.1799   20.9003 C   0  0  0  0  0  0  0  0  0  0  0  0
   14.9481  -20.2992   20.7775 N   0  0  0  0  0  0  0  0  0  0  0  0
   12.8625  -19.3017   20.7234 N   0  0  0  0  0  0  0  0  0  0  0  0
   11.9326  -18.2346   20.8825 C   0  0  0  0  0  0  0  0  0  0  0  0
   11.3191  -18.1494   22.2466 C   0  0  0  0  0  0  0  0  0  0  0  0
   10.2225  -17.1416   22.3355 C   0  0  0  0  0  0  0  0  0  0  0  0
    9.6411  -17.1190   23.7424 C   0  0  2  0  0  0  0  0  0  0  0  0
    8.4403  -16.3248   23.7177 N   0  0  0  0  0  0  0  0  0  0  0  0
   10.5972  -16.6293   24.7386 C   0  0  0  0  0  0  0  0  0  0  0  0
   11.4040  -15.7028   24.4504 O   0  0  0  0  0  0  0  0  0  0  0  0
   14.5059  -21.1900   20.5302 C   0  0  0  0  0  0  0  0  0  0  0  0
   10.5570  -14.6364   27.6394 C   0  0  2  0  0  0  0  0  0  0  0  0
   11.2070  -15.9075   28.1288 C   0  0  0  0  0  0  0  0  0  0  0  0
   10.1941  -16.6571   28.9656 C   0  0  2  0  0  0  0  0  0  0  0  0
   11.7101  -16.7724   26.9928 N   0  0  0  0  0  0  0  0  0  0  0  0
   10.6884  -17.1451   26.0700 C   0  0  0  0  0  0  0  0  0  0  0  0
   12.5017  -17.9185   27.4976 O   0  0  0  0  0  0  0  0  0  0  0  0
   12.1725  -19.1160   27.3398 O   0  0  0  0  0  0  0  0  0  0  0  0
  2  1  1  1
  2 10  1  0
  3  2  1  0
  4  3  1  0
  4  9  2  0
  5  4  1  0
  6  5  2  0
  6  7  1  0
  7  8  2  0
  8  9  1  0
 10 11  2  0
 13 12  1  0
 13 15  1  0
 14 13  2  0
 15 16  1  0
 16 17  1  0
 17 18  1  0
 19 18  1  6
 19 21  1  0
 20 19  1  0
 20 10  1  0
 21 22  2  0
 24 23  1  1
 24 26  1  0
 25 24  1  0
 26 28  1  0
 27 21  1  0
 26 27  1  1
 28 29  2  0
 28 30  1  0
M  END
$$$$
