FRV.pdb
     RDKit          3D

 30 30  0  0  1  0  0  0  0  0999 V2000
    5.9001  -13.8817   22.6878 N   0  0  0  0  0  0  0  0  0  0  0  0
    6.9773  -14.8004   22.4734 C   0  0  1  0  0  0  0  0  0  0  0  0
    8.2439  -14.0998   22.0264 C   0  0  0  0  0  0  0  0  0  0  0  0
    8.1084  -13.7682   20.5896 C   0  0  0  0  0  0  0  0  0  0  0  0
    8.3047  -14.7086   19.5998 C   0  0  0  0  0  0  0  0  0  0  0  0
    8.1823  -14.4170   18.2583 C   0  0  0  0  0  0  0  0  0  0  0  0
    7.8485  -13.1263   17.9002 C   0  0  0  0  0  0  0  0  0  0  0  0
    7.6523  -12.1869   18.8850 C   0  0  0  0  0  0  0  0  0  0  0  0
    7.7764  -12.4843   20.2302 C   0  0  0  0  0  0  0  0  0  0  0  0
    7.2017  -15.6044   23.6859 C   0  0  0  0  0  0  0  0  0  0  0  0
    6.7718  -15.2281   24.8041 O   0  0  0  0  0  0  0  0  0  0  0  0
   12.3499  -19.9870   22.8209 N   0  0  0  0  0  0  0  0  0  0  0  0
   11.8508  -19.9623   21.5016 C   0  0  0  0  0  0  0  0  0  0  0  0
   12.6120  -19.9410   20.4358 N   0  0  0  0  0  0  0  0  0  0  0  0
   10.4429  -19.9611   21.2373 N   0  0  0  0  0  0  0  0  0  0  0  0
    9.4314  -19.9598   22.2401 C   0  0  0  0  0  0  0  0  0  0  0  0
    9.6498  -18.9608   23.3350 C   0  0  0  0  0  0  0  0  0  0  0  0
    8.5846  -18.9916   24.3791 C   0  0  0  0  0  0  0  0  0  0  0  0
    8.2125  -17.5746   24.7936 C   0  0  2  0  0  0  0  0  0  0  0  0
    7.9124  -16.8240   23.6020 N   0  0  0  0  0  0  0  0  0  0  0  0
    9.2564  -16.9302   25.5944 C   0  0  0  0  0  0  0  0  0  0  0  0
   10.3160  -16.5142   25.0497 O   0  0  0  0  0  0  0  0  0  0  0  0
   12.2380  -19.8793   19.4836 C   0  0  0  0  0  0  0  0  0  0  0  0
   10.6836  -14.1302   29.3073 C   0  0  2  0  0  0  0  0  0  0  0  0
    9.6223  -14.8212   28.4863 C   0  0  0  0  0  0  0  0  0  0  0  0
    9.0776  -13.8209   27.4910 C   0  0  1  0  0  0  0  0  0  0  0  0
   10.1505  -16.0503   27.7778 N   0  0  0  0  0  0  0  0  0  0  0  0
    9.1601  -16.7289   27.0076 C   0  0  0  0  0  0  0  0  0  0  0  0
   10.8874  -16.9350   28.7101 O   0  0  0  0  0  0  0  0  0  0  0  0
   10.5211  -18.0949   29.0060 O   0  0  0  0  0  0  0  0  0  0  0  0
  2  1  1  1
  2 10  1  0
  3  2  1  0
  4  3  1  0
  4  9  2  0
  5  4  1  0
  6  5  2  0
  6  7  1  0
  7  8  2  0
  8  9  1  0
 10 11  2  0
 13 12  1  0
 13 15  1  0
 14 13  2  0
 15 16  1  0
 16 17  1  0
 17 18  1  0
 19 18  1  6
 19 21  1  0
 20 19  1  0
 20 10  1  0
 21 22  2  0
 24 23  1  1
 24 26  1  0
 25 24  1  0
 26 28  1  0
 27 21  1  0
 26 27  1  1
 28 29  2  0
 28 30  1  0
M  END
$$$$
