FRV.pdb
     RDKit          3D

 30 30  0  0  1  0  0  0  0  0999 V2000
    5.2916  -17.5035   24.2713 N   0  0  0  0  0  0  0  0  0  0  0  0
    6.0267  -16.3190   24.5983 C   0  0  1  0  0  0  0  0  0  0  0  0
    5.8067  -15.8895   26.0343 C   0  0  0  0  0  0  0  0  0  0  0  0
    6.0910  -14.4397   26.1339 C   0  0  0  0  0  0  0  0  0  0  0  0
    7.3779  -13.9504   26.2178 C   0  0  0  0  0  0  0  0  0  0  0  0
    7.6601  -12.6044   26.3106 C   0  0  0  0  0  0  0  0  0  0  0  0
    6.6032  -11.7165   26.3190 C   0  0  0  0  0  0  0  0  0  0  0  0
    5.3193  -12.2018   26.2355 C   0  0  0  0  0  0  0  0  0  0  0  0
    5.0411  -13.5536   26.1425 C   0  0  0  0  0  0  0  0  0  0  0  0
    7.4554  -16.5162   24.3043 C   0  0  0  0  0  0  0  0  0  0  0  0
    8.0458  -17.5755   24.6298 O   0  0  0  0  0  0  0  0  0  0  0  0
    9.3330  -14.7977   17.5824 N   0  0  0  0  0  0  0  0  0  0  0  0
    8.2335  -14.0038   17.9712 C   0  0  0  0  0  0  0  0  0  0  0  0
    7.1592  -13.8403   17.2399 N   0  0  0  0  0  0  0  0  0  0  0  0
    8.2214  -13.3099   19.2244 N   0  0  0  0  0  0  0  0  0  0  0  0
    9.2133  -13.4507   20.2369 C   0  0  0  0  0  0  0  0  0  0  0  0
    8.8934  -14.4830   21.2744 C   0  0  0  0  0  0  0  0  0  0  0  0
    9.9737  -14.6494   22.2899 C   0  0  0  0  0  0  0  0  0  0  0  0
    9.5742  -15.7007   23.3161 C   0  0  2  0  0  0  0  0  0  0  0  0
    8.1863  -15.5016   23.6438 N   0  0  0  0  0  0  0  0  0  0  0  0
   10.4243  -15.6742   24.5089 C   0  0  0  0  0  0  0  0  0  0  0  0
   11.5284  -15.0631   24.4949 O   0  0  0  0  0  0  0  0  0  0  0  0
    6.3704  -13.2536   17.5297 C   0  0  0  0  0  0  0  0  0  0  0  0
   10.7943  -14.9187   29.1870 C   0  0  2  0  0  0  0  0  0  0  0  0
   10.1338  -15.0322   27.8348 C   0  0  0  0  0  0  0  0  0  0  0  0
   10.2051  -13.6774   27.1657 C   0  0  1  0  0  0  0  0  0  0  0  0
   10.7751  -16.0938   26.9669 N   0  0  0  0  0  0  0  0  0  0  0  0
   10.0819  -16.3169   25.7405 C   0  0  0  0  0  0  0  0  0  0  0  0
   11.0364  -17.3331   27.7357 O   0  0  0  0  0  0  0  0  0  0  0  0
   10.5511  -18.4495   27.4435 O   0  0  0  0  0  0  0  0  0  0  0  0
  2  1  1  1
  2 10  1  0
  3  2  1  0
  4  3  1  0
  4  9  2  0
  5  4  1  0
  6  5  2  0
  6  7  1  0
  7  8  2  0
  8  9  1  0
 10 11  2  0
 13 12  1  0
 13 15  1  0
 14 13  2  0
 15 16  1  0
 16 17  1  0
 17 18  1  0
 19 18  1  6
 19 21  1  0
 20 19  1  0
 20 10  1  0
 21 22  2  0
 24 23  1  1
 24 26  1  0
 25 24  1  0
 26 28  1  0
 27 21  1  0
 26 27  1  1
 28 29  2  0
 28 30  1  0
M  END
$$$$
