FRV.pdb
     RDKit          3D

 30 30  0  0  1  0  0  0  0  0999 V2000
    5.7185  -16.6683   25.8261 N   0  0  0  0  0  0  0  0  0  0  0  0
    6.2507  -16.4192   24.5203 C   0  0  1  0  0  0  0  0  0  0  0  0
    5.8332  -15.0656   23.9831 C   0  0  0  0  0  0  0  0  0  0  0  0
    6.2283  -14.0333   24.9684 C   0  0  0  0  0  0  0  0  0  0  0  0
    5.6224  -13.9304   26.2033 C   0  0  0  0  0  0  0  0  0  0  0  0
    5.9781  -12.9761   27.1321 C   0  0  0  0  0  0  0  0  0  0  0  0
    6.9846  -12.0904   26.8030 C   0  0  0  0  0  0  0  0  0  0  0  0
    7.5902  -12.1909   25.5726 C   0  0  0  0  0  0  0  0  0  0  0  0
    7.2297  -13.1504   24.6437 C   0  0  0  0  0  0  0  0  0  0  0  0
    7.7151  -16.5676   24.5371 C   0  0  0  0  0  0  0  0  0  0  0  0
    8.3313  -16.8136   25.6031 O   0  0  0  0  0  0  0  0  0  0  0  0
    8.1100  -14.0308   20.3945 N   0  0  0  0  0  0  0  0  0  0  0  0
    8.9860  -13.7214   19.3329 C   0  0  0  0  0  0  0  0  0  0  0  0
    8.5846  -13.4032   18.1273 N   0  0  0  0  0  0  0  0  0  0  0  0
   10.4073  -13.7339   19.5116 N   0  0  0  0  0  0  0  0  0  0  0  0
   11.1066  -14.6269   20.3732 C   0  0  0  0  0  0  0  0  0  0  0  0
   10.3600  -14.9928   21.6195 C   0  0  0  0  0  0  0  0  0  0  0  0
   10.3751  -16.4572   21.9044 C   0  0  0  0  0  0  0  0  0  0  0  0
    9.8612  -16.7248   23.3123 C   0  0  2  0  0  0  0  0  0  0  0  0
    8.4515  -16.4329   23.3373 N   0  0  0  0  0  0  0  0  0  0  0  0
   10.5921  -15.9675   24.3315 C   0  0  0  0  0  0  0  0  0  0  0  0
   11.2265  -14.9220   24.0201 O   0  0  0  0  0  0  0  0  0  0  0  0
    9.2307  -13.1645   17.3685 C   0  0  0  0  0  0  0  0  0  0  0  0
   10.0761  -13.6160   26.7398 C   0  0  2  0  0  0  0  0  0  0  0  0
   10.7390  -14.7068   27.5451 C   0  0  0  0  0  0  0  0  0  0  0  0
    9.6698  -15.4008   28.3593 C   0  0  2  0  0  0  0  0  0  0  0  0
   11.4783  -15.6991   26.6731 N   0  0  0  0  0  0  0  0  0  0  0  0
   10.6424  -16.3406   25.7118 C   0  0  0  0  0  0  0  0  0  0  0  0
   12.2779  -16.6426   27.4889 O   0  0  0  0  0  0  0  0  0  0  0  0
   12.1392  -17.8862   27.4518 O   0  0  0  0  0  0  0  0  0  0  0  0
  2  1  1  1
  2 10  1  0
  3  2  1  0
  4  3  1  0
  4  9  2  0
  5  4  1  0
  6  5  2  0
  6  7  1  0
  7  8  2  0
  8  9  1  0
 10 11  2  0
 13 12  1  0
 13 15  1  0
 14 13  2  0
 15 16  1  0
 16 17  1  0
 17 18  1  0
 19 18  1  6
 19 21  1  0
 20 19  1  0
 20 10  1  0
 21 22  2  0
 24 23  1  1
 24 26  1  0
 25 24  1  0
 26 28  1  0
 27 21  1  0
 26 27  1  1
 28 29  2  0
 28 30  1  0
M  END
$$$$
