FRV.pdb
     RDKit          3D

 30 30  0  0  1  0  0  0  0  0999 V2000
    5.6960  -17.4584   25.7122 N   0  0  0  0  0  0  0  0  0  0  0  0
    6.2315  -16.1686   25.3961 C   0  0  1  0  0  0  0  0  0  0  0  0
    7.0231  -15.5821   26.5471 C   0  0  0  0  0  0  0  0  0  0  0  0
    6.7951  -14.1192   26.5691 C   0  0  0  0  0  0  0  0  0  0  0  0
    5.5834  -13.5728   26.9378 C   0  0  0  0  0  0  0  0  0  0  0  0
    5.3545  -12.2139   26.9642 C   0  0  0  0  0  0  0  0  0  0  0  0
    6.3880  -11.3722   26.6049 C   0  0  0  0  0  0  0  0  0  0  0  0
    7.5969  -11.9144   26.2370 C   0  0  0  0  0  0  0  0  0  0  0  0
    7.8219  -13.2791   26.2120 C   0  0  0  0  0  0  0  0  0  0  0  0
    7.0383  -16.2461   24.1674 C   0  0  0  0  0  0  0  0  0  0  0  0
    7.8332  -17.1980   23.9707 O   0  0  0  0  0  0  0  0  0  0  0  0
    8.4060  -12.8851   17.3192 N   0  0  0  0  0  0  0  0  0  0  0  0
    8.8332  -14.1924   17.0054 C   0  0  0  0  0  0  0  0  0  0  0  0
    9.7434  -14.4639   16.1034 N   0  0  0  0  0  0  0  0  0  0  0  0
    8.2856  -15.3358   17.6726 N   0  0  0  0  0  0  0  0  0  0  0  0
    7.6613  -15.3037   18.9524 C   0  0  0  0  0  0  0  0  0  0  0  0
    8.0899  -14.1593   19.8192 C   0  0  0  0  0  0  0  0  0  0  0  0
    7.3561  -14.0985   21.1168 C   0  0  0  0  0  0  0  0  0  0  0  0
    7.7048  -15.3062   21.9758 C   0  0  2  0  0  0  0  0  0  0  0  0
    6.9243  -15.2365   23.1838 N   0  0  0  0  0  0  0  0  0  0  0  0
    9.1391  -15.3999   22.2591 C   0  0  0  0  0  0  0  0  0  0  0  0
    9.7504  -14.4345   22.7947 O   0  0  0  0  0  0  0  0  0  0  0  0
   10.1067  -15.4087   15.9433 C   0  0  0  0  0  0  0  0  0  0  0  0
   13.2574  -18.0373   22.9957 C   0  0  2  0  0  0  0  0  0  0  0  0
   11.7571  -17.8947   22.9139 C   0  0  0  0  0  0  0  0  0  0  0  0
   11.2083  -17.9227   24.3231 C   0  0  1  0  0  0  0  0  0  0  0  0
   11.3363  -16.6284   22.1990 N   0  0  0  0  0  0  0  0  0  0  0  0
    9.9320  -16.5529   21.9611 C   0  0  0  0  0  0  0  0  0  0  0  0
   12.1575  -16.3946   20.9882 O   0  0  0  0  0  0  0  0  0  0  0  0
   11.9666  -16.9731   19.8946 O   0  0  0  0  0  0  0  0  0  0  0  0
  2  1  1  1
  2 10  1  0
  3  2  1  0
  4  3  1  0
  4  9  2  0
  5  4  1  0
  6  5  2  0
  6  7  1  0
  7  8  2  0
  8  9  1  0
 10 11  2  0
 13 12  1  0
 13 15  1  0
 14 13  2  0
 15 16  1  0
 16 17  1  0
 17 18  1  0
 19 18  1  6
 19 21  1  0
 20 19  1  0
 20 10  1  0
 21 22  2  0
 24 23  1  6
 24 26  1  0
 25 24  1  0
 26 28  1  0
 27 21  1  0
 26 27  1  6
 28 29  2  0
 28 30  1  0
M  END
$$$$
