PPW.pdb
     RDKit          3D

 29 32  0  0  1  0  0  0  0  0999 V2000
    7.2594  -14.4740   18.5325 N   0  0  0  0  0  0  0  0  0  0  0  0
    7.3240  -13.1593   17.9248 C   0  0  0  0  0  0  0  0  0  0  0  0
    8.0906  -12.2780   18.8637 C   0  0  0  0  0  0  0  0  0  0  0  0
    8.8659  -13.2252   19.7377 C   0  0  0  0  0  0  0  0  0  0  0  0
    8.4591  -14.6215   19.3189 C   0  0  1  0  0  0  0  0  0  0  0  0
    8.2617  -15.5311   20.4849 C   0  0  0  0  0  0  0  0  0  0  0  0
    7.1351  -15.4681   21.0504 O   0  0  0  0  0  0  0  0  0  0  0  0
    9.2549  -16.4111   20.9423 N   0  0  0  0  0  0  0  0  0  0  0  0
   10.5947  -16.5303   20.4473 C   0  0  0  0  0  0  0  0  0  0  0  0
   10.9953  -17.9727   20.7784 C   0  0  0  0  0  0  0  0  0  0  0  0
    9.7254  -18.6065   21.3597 C   0  0  0  0  0  0  0  0  0  0  0  0
    9.0989  -17.3624   22.0059 C   0  0  1  0  0  0  0  0  0  0  0  0
    9.9200  -17.0070   23.1942 C   0  0  0  0  0  0  0  0  0  0  0  0
   11.1453  -16.7042   23.0997 O   0  0  0  0  0  0  0  0  0  0  0  0
    9.3607  -16.9938   24.4718 N   0  0  0  0  0  0  0  0  0  0  0  0
   10.1687  -16.5549   25.6425 C   0  0  1  0  0  0  0  0  0  0  0  0
    9.8278  -15.1575   25.9873 C   0  0  0  0  0  0  0  0  0  0  0  0
    8.4109  -14.9196   26.1825 C   0  0  0  0  0  0  0  0  0  0  0  0
    7.3625  -15.8352   26.1453 C   0  0  0  0  0  0  0  0  0  0  0  0
    6.1929  -15.2229   26.3363 N   0  0  0  0  0  0  0  0  0  0  0  0
    6.4043  -13.9015   26.5065 C   0  0  0  0  0  0  0  0  0  0  0  0
    5.5240  -12.8581   26.7526 C   0  0  0  0  0  0  0  0  0  0  0  0
    5.9750  -11.5691   26.9180 C   0  0  0  0  0  0  0  0  0  0  0  0
    7.3331  -11.3797   26.8260 C   0  0  0  0  0  0  0  0  0  0  0  0
    8.2082  -12.3997   26.5833 C   0  0  0  0  0  0  0  0  0  0  0  0
    7.7797  -13.6933   26.4143 C   0  0  0  0  0  0  0  0  0  0  0  0
    9.9032  -17.5093   26.7071 C   0  0  0  0  0  0  0  0  0  0  0  0
   10.4853  -17.5013   27.8190 O   0  0  0  0  0  0  0  0  0  0  0  0
    8.9525  -18.5425   26.5776 O   0  0  0  0  0  0  0  0  0  0  0  0
  2  1  1  0
  3  2  1  0
  4  3  1  0
  4  5  1  0
  5  6  1  1
  5  1  1  0
  6  7  2  0
  8 12  1  0
  8  6  1  0
  9  8  1  0
 10 11  1  0
 10  9  1  0
 11 12  1  0
 12 13  1  1
 13 15  1  0
 13 14  2  0
 15 16  1  0
 16 27  1  0
 16 17  1  1
 18 17  1  0
 19 18  2  0
 20 21  1  0
 20 19  1  0
 21 26  2  0
 22 23  2  0
 22 21  1  0
 23 24  1  0
 24 25  2  0
 26 18  1  0
 26 25  1  0
 27 28  2  0
 27 29  1  0
M  END
$$$$
