PPW.pdb
     RDKit          3D

 29 32  0  0  1  0  0  0  0  0999 V2000
    7.3450  -14.6320   19.2216 N   0  0  0  0  0  0  0  0  0  0  0  0
    7.1510  -13.3199   18.6362 C   0  0  0  0  0  0  0  0  0  0  0  0
    7.5707  -12.3133   19.6642 C   0  0  0  0  0  0  0  0  0  0  0  0
    8.4546  -13.0749   20.6134 C   0  0  0  0  0  0  0  0  0  0  0  0
    8.4510  -14.5121   20.1392 C   0  0  1  0  0  0  0  0  0  0  0  0
    8.3567  -15.4839   21.2674 C   0  0  0  0  0  0  0  0  0  0  0  0
    7.1908  -15.7554   21.6669 O   0  0  0  0  0  0  0  0  0  0  0  0
    9.4832  -16.0722   21.8631 N   0  0  0  0  0  0  0  0  0  0  0  0
   10.8572  -15.7499   21.6131 C   0  0  0  0  0  0  0  0  0  0  0  0
   11.6180  -17.0356   21.9575 C   0  0  0  0  0  0  0  0  0  0  0  0
   10.5243  -18.0622   22.2772 C   0  0  0  0  0  0  0  0  0  0  0  0
    9.4546  -17.1185   22.8455 C   0  0  1  0  0  0  0  0  0  0  0  0
    9.9274  -16.6460   24.1744 C   0  0  0  0  0  0  0  0  0  0  0  0
   10.8711  -15.8115   24.2956 O   0  0  0  0  0  0  0  0  0  0  0  0
    9.3385  -17.1118   25.3498 N   0  0  0  0  0  0  0  0  0  0  0  0
    9.8842  -16.7101   26.6753 C   0  0  1  0  0  0  0  0  0  0  0  0
    8.7802  -16.2704   27.5560 C   0  0  0  0  0  0  0  0  0  0  0  0
    7.7226  -15.5508   26.8733 C   0  0  0  0  0  0  0  0  0  0  0  0
    6.6701  -16.0622   26.1185 C   0  0  0  0  0  0  0  0  0  0  0  0
    5.9235  -15.0760   25.6190 N   0  0  0  0  0  0  0  0  0  0  0  0
    6.4326  -13.8897   26.0104 C   0  0  0  0  0  0  0  0  0  0  0  0
    6.0114  -12.5897   25.7720 C   0  0  0  0  0  0  0  0  0  0  0  0
    6.6851  -11.5138   26.3019 C   0  0  0  0  0  0  0  0  0  0  0  0
    7.7867  -11.8007   27.0719 C   0  0  0  0  0  0  0  0  0  0  0  0
    8.2102  -13.0767   27.3121 C   0  0  0  0  0  0  0  0  0  0  0  0
    7.5532  -14.1649   26.7927 C   0  0  0  0  0  0  0  0  0  0  0  0
   10.6242  -17.8556   27.1801 C   0  0  0  0  0  0  0  0  0  0  0  0
   10.6326  -18.9841   26.6308 O   0  0  0  0  0  0  0  0  0  0  0  0
   11.4090  -17.7939   28.3499 O   0  0  0  0  0  0  0  0  0  0  0  0
  2  1  1  0
  3  2  1  0
  4  3  1  0
  4  5  1  0
  5  6  1  1
  5  1  1  0
  6  7  2  0
  8 12  1  0
  8  6  1  0
  9  8  1  0
 10 11  1  0
 10  9  1  0
 11 12  1  0
 12 13  1  1
 13 15  1  0
 13 14  2  0
 15 16  1  0
 16 27  1  0
 16 17  1  1
 18 17  1  0
 19 18  2  0
 20 21  1  0
 20 19  1  0
 21 26  2  0
 22 23  2  0
 22 21  1  0
 23 24  1  0
 24 25  2  0
 26 18  1  0
 26 25  1  0
 27 28  2  0
 27 29  1  0
M  END
$$$$
