PPW.pdb
     RDKit          3D

 29 32  0  0  1  0  0  0  0  0999 V2000
    8.9823  -14.6550   18.4124 N   0  0  0  0  0  0  0  0  0  0  0  0
    8.8471  -13.9805   17.1362 C   0  0  0  0  0  0  0  0  0  0  0  0
    7.6909  -13.0350   17.2587 C   0  0  0  0  0  0  0  0  0  0  0  0
    7.5129  -12.8308   18.7382 C   0  0  0  0  0  0  0  0  0  0  0  0
    8.5266  -13.7263   19.4172 C   0  0  1  0  0  0  0  0  0  0  0  0
    7.9641  -14.4190   20.6129 C   0  0  0  0  0  0  0  0  0  0  0  0
    7.3482  -13.6875   21.4365 O   0  0  0  0  0  0  0  0  0  0  0  0
    8.1002  -15.7992   20.8286 N   0  0  0  0  0  0  0  0  0  0  0  0
    8.7818  -16.7395   19.9886 C   0  0  0  0  0  0  0  0  0  0  0  0
    8.0959  -18.0788   20.2826 C   0  0  0  0  0  0  0  0  0  0  0  0
    6.9439  -17.7268   21.2320 C   0  0  0  0  0  0  0  0  0  0  0  0
    7.5710  -16.5229   21.9498 C   0  0  1  0  0  0  0  0  0  0  0  0
    8.6478  -17.0358   22.8385 C   0  0  0  0  0  0  0  0  0  0  0  0
    9.6888  -17.5927   22.3826 O   0  0  0  0  0  0  0  0  0  0  0  0
    8.5471  -16.9187   24.2247 N   0  0  0  0  0  0  0  0  0  0  0  0
    9.7439  -16.5728   25.0396 C   0  0  1  0  0  0  0  0  0  0  0  0
    9.5971  -15.2058   25.5850 C   0  0  0  0  0  0  0  0  0  0  0  0
    8.2236  -14.7918   25.7961 C   0  0  0  0  0  0  0  0  0  0  0  0
    7.0671  -15.5666   25.7622 C   0  0  0  0  0  0  0  0  0  0  0  0
    5.9865  -14.8125   25.9694 N   0  0  0  0  0  0  0  0  0  0  0  0
    6.3654  -13.5302   26.1477 C   0  0  0  0  0  0  0  0  0  0  0  0
    5.6269  -12.3858   26.4106 C   0  0  0  0  0  0  0  0  0  0  0  0
    6.2393  -11.1660   26.5814 C   0  0  0  0  0  0  0  0  0  0  0  0
    7.6097  -11.1496   26.4775 C   0  0  0  0  0  0  0  0  0  0  0  0
    8.3460  -12.2702   26.2182 C   0  0  0  0  0  0  0  0  0  0  0  0
    7.7552  -13.4974   26.0436 C   0  0  0  0  0  0  0  0  0  0  0  0
    9.8629  -17.6064   26.0556 C   0  0  0  0  0  0  0  0  0  0  0  0
    8.9529  -18.4240   26.3358 O   0  0  0  0  0  0  0  0  0  0  0  0
   11.0316  -17.7803   26.8251 O   0  0  0  0  0  0  0  0  0  0  0  0
  2  1  1  0
  3  2  1  0
  4  3  1  0
  4  5  1  0
  5  6  1  1
  5  1  1  0
  6  7  2  0
  8 12  1  0
  8  6  1  0
  9  8  1  0
 10 11  1  0
 10  9  1  0
 11 12  1  0
 12 13  1  1
 13 15  1  0
 13 14  2  0
 15 16  1  0
 16 27  1  0
 16 17  1  1
 18 17  1  0
 19 18  2  0
 20 21  1  0
 20 19  1  0
 21 26  2  0
 22 23  2  0
 22 21  1  0
 23 24  1  0
 24 25  2  0
 26 18  1  0
 26 25  1  0
 27 28  2  0
 27 29  1  0
M  END
$$$$
