PPW.pdb
     RDKit          3D

 29 32  0  0  1  0  0  0  0  0999 V2000
    6.9784  -18.3582   18.6289 N   0  0  0  0  0  0  0  0  0  0  0  0
    6.0305  -19.4231   18.8924 C   0  0  0  0  0  0  0  0  0  0  0  0
    5.7420  -19.4012   20.3629 C   0  0  0  0  0  0  0  0  0  0  0  0
    6.1411  -18.0234   20.8152 C   0  0  0  0  0  0  0  0  0  0  0  0
    6.7161  -17.3260   19.6013 C   0  0  1  0  0  0  0  0  0  0  0  0
    7.9371  -16.5323   19.9256 C   0  0  0  0  0  0  0  0  0  0  0  0
    9.0043  -16.9063   19.3653 O   0  0  0  0  0  0  0  0  0  0  0  0
    7.9223  -15.4330   20.7980 N   0  0  0  0  0  0  0  0  0  0  0  0
    6.8167  -14.9727   21.5854 C   0  0  0  0  0  0  0  0  0  0  0  0
    7.0931  -13.4788   21.7922 C   0  0  0  0  0  0  0  0  0  0  0  0
    8.3446  -13.1939   20.9526 C   0  0  0  0  0  0  0  0  0  0  0  0
    9.0334  -14.5622   21.0590 C   0  0  1  0  0  0  0  0  0  0  0  0
    9.5388  -14.7079   22.4503 C   0  0  0  0  0  0  0  0  0  0  0  0
   10.1957  -13.7929   23.0273 O   0  0  0  0  0  0  0  0  0  0  0  0
    9.3025  -15.8739   23.1784 N   0  0  0  0  0  0  0  0  0  0  0  0
   10.0395  -16.1320   24.4457 C   0  0  1  0  0  0  0  0  0  0  0  0
    9.7891  -15.0307   25.4009 C   0  0  0  0  0  0  0  0  0  0  0  0
    8.3871  -14.7141   25.5924 C   0  0  0  0  0  0  0  0  0  0  0  0
    7.2772  -15.5335   25.4036 C   0  0  0  0  0  0  0  0  0  0  0  0
    6.1490  -14.8654   25.6487 N   0  0  0  0  0  0  0  0  0  0  0  0
    6.4493  -13.5994   26.0049 C   0  0  0  0  0  0  0  0  0  0  0  0
    5.6387  -12.5350   26.3712 C   0  0  0  0  0  0  0  0  0  0  0  0
    6.1756  -11.3187   26.7240 C   0  0  0  0  0  0  0  0  0  0  0  0
    7.5462  -11.2227   26.6922 C   0  0  0  0  0  0  0  0  0  0  0  0
    8.3532  -12.2640   26.3323 C   0  0  0  0  0  0  0  0  0  0  0  0
    7.8385  -13.4862   25.9759 C   0  0  0  0  0  0  0  0  0  0  0  0
    9.6026  -17.4363   24.9177 C   0  0  0  0  0  0  0  0  0  0  0  0
    8.5969  -18.0428   24.4751 O   0  0  0  0  0  0  0  0  0  0  0  0
   10.2844  -18.1422   25.9302 O   0  0  0  0  0  0  0  0  0  0  0  0
  2  1  1  0
  3  2  1  0
  4  3  1  0
  4  5  1  0
  5  6  1  1
  5  1  1  0
  6  7  2  0
  8 12  1  0
  8  6  1  0
  9  8  1  0
 10 11  1  0
 10  9  1  0
 11 12  1  0
 12 13  1  1
 13 15  1  0
 13 14  2  0
 15 16  1  0
 16 27  1  0
 16 17  1  1
 18 17  1  0
 19 18  2  0
 20 21  1  0
 20 19  1  0
 21 26  2  0
 22 23  2  0
 22 21  1  0
 23 24  1  0
 24 25  2  0
 26 18  1  0
 26 25  1  0
 27 28  2  0
 27 29  1  0
M  END
$$$$
