PPW.pdb
     RDKit          3D

 29 32  0  0  1  0  0  0  0  0999 V2000
    6.6354  -18.8200   19.5046 N   0  0  0  0  0  0  0  0  0  0  0  0
    5.7569  -19.8166   20.0851 C   0  0  0  0  0  0  0  0  0  0  0  0
    5.7757  -19.6084   21.5691 C   0  0  0  0  0  0  0  0  0  0  0  0
    6.2649  -18.1985   21.7561 C   0  0  0  0  0  0  0  0  0  0  0  0
    6.5822  -17.6704   20.3737 C   0  0  1  0  0  0  0  0  0  0  0  0
    7.8471  -16.8799   20.3425 C   0  0  0  0  0  0  0  0  0  0  0  0
    8.7687  -17.3404   19.6135 O   0  0  0  0  0  0  0  0  0  0  0  0
    8.0231  -15.6937   21.0718 N   0  0  0  0  0  0  0  0  0  0  0  0
    7.0552  -15.0428   21.9047 C   0  0  0  0  0  0  0  0  0  0  0  0
    7.4787  -13.5692   21.8994 C   0  0  0  0  0  0  0  0  0  0  0  0
    8.6483  -13.5032   20.9095 C   0  0  0  0  0  0  0  0  0  0  0  0
    9.2261  -14.9115   21.1116 C   0  0  1  0  0  0  0  0  0  0  0  0
    9.8693  -14.9491   22.4522 C   0  0  0  0  0  0  0  0  0  0  0  0
   10.8564  -14.2137   22.7463 O   0  0  0  0  0  0  0  0  0  0  0  0
    9.4002  -15.8075   23.4465 N   0  0  0  0  0  0  0  0  0  0  0  0
   10.1707  -15.9917   24.7068 C   0  0  1  0  0  0  0  0  0  0  0  0
    9.7797  -14.9541   25.6859 C   0  0  0  0  0  0  0  0  0  0  0  0
    8.3476  -14.7805   25.8315 C   0  0  0  0  0  0  0  0  0  0  0  0
    7.3317  -15.7036   25.5974 C   0  0  0  0  0  0  0  0  0  0  0  0
    6.1350  -15.1536   25.8090 N   0  0  0  0  0  0  0  0  0  0  0  0
    6.2956  -13.8685   26.1861 C   0  0  0  0  0  0  0  0  0  0  0  0
    5.3713  -12.8942   26.5332 C   0  0  0  0  0  0  0  0  0  0  0  0
    5.7723  -11.6349   26.9146 C   0  0  0  0  0  0  0  0  0  0  0  0
    7.1268  -11.4030   26.9311 C   0  0  0  0  0  0  0  0  0  0  0  0
    8.0451  -12.3548   26.5905 C   0  0  0  0  0  0  0  0  0  0  0  0
    7.6669  -13.6177   26.2062 C   0  0  0  0  0  0  0  0  0  0  0  0
    9.9140  -17.3523   25.1512 C   0  0  0  0  0  0  0  0  0  0  0  0
   10.4434  -17.8723   26.1634 O   0  0  0  0  0  0  0  0  0  0  0  0
    9.0329  -18.2174   24.4704 O   0  0  0  0  0  0  0  0  0  0  0  0
  2  1  1  0
  3  2  1  0
  4  3  1  0
  4  5  1  0
  5  6  1  1
  5  1  1  0
  6  7  2  0
  8 12  1  0
  8  6  1  0
  9  8  1  0
 10 11  1  0
 10  9  1  0
 11 12  1  0
 12 13  1  1
 13 15  1  0
 13 14  2  0
 15 16  1  0
 16 27  1  0
 16 17  1  1
 18 17  1  0
 19 18  2  0
 20 21  1  0
 20 19  1  0
 21 26  2  0
 22 23  2  0
 22 21  1  0
 23 24  1  0
 24 25  2  0
 26 18  1  0
 26 25  1  0
 27 28  2  0
 27 29  1  0
M  END
$$$$
