PPW.pdb
     RDKit          3D

 29 32  0  0  1  0  0  0  0  0999 V2000
    7.2203  -14.4357   19.1427 N   0  0  0  0  0  0  0  0  0  0  0  0
    7.0872  -13.0833   18.6374 C   0  0  0  0  0  0  0  0  0  0  0  0
    7.5728  -12.1615   19.7147 C   0  0  0  0  0  0  0  0  0  0  0  0
    8.4284  -13.0218   20.6035 C   0  0  0  0  0  0  0  0  0  0  0  0
    8.3435  -14.4267   20.0472 C   0  0  1  0  0  0  0  0  0  0  0  0
    8.2139  -15.4568   21.1186 C   0  0  0  0  0  0  0  0  0  0  0  0
    7.0445  -15.6677   21.5439 O   0  0  0  0  0  0  0  0  0  0  0  0
    9.3124  -16.1602   21.6369 N   0  0  0  0  0  0  0  0  0  0  0  0
   10.6818  -16.0391   21.2319 C   0  0  0  0  0  0  0  0  0  0  0  0
   11.3032  -17.3964   21.5818 C   0  0  0  0  0  0  0  0  0  0  0  0
   10.1268  -18.2485   22.0740 C   0  0  0  0  0  0  0  0  0  0  0  0
    9.2543  -17.1415   22.6830 C   0  0  1  0  0  0  0  0  0  0  0  0
    9.9228  -16.6697   23.9252 C   0  0  0  0  0  0  0  0  0  0  0  0
   11.0397  -16.0747   23.9043 O   0  0  0  0  0  0  0  0  0  0  0  0
    9.3339  -16.8683   25.1738 N   0  0  0  0  0  0  0  0  0  0  0  0
   10.0852  -16.5510   26.4192 C   0  0  1  0  0  0  0  0  0  0  0  0
    9.4720  -15.3821   27.0867 C   0  0  0  0  0  0  0  0  0  0  0  0
    8.1343  -15.0654   26.6258 C   0  0  0  0  0  0  0  0  0  0  0  0
    7.1410  -15.9325   26.1783 C   0  0  0  0  0  0  0  0  0  0  0  0
    6.0552  -15.2545   25.8030 N   0  0  0  0  0  0  0  0  0  0  0  0
    6.2706  -13.9348   25.9804 C   0  0  0  0  0  0  0  0  0  0  0  0
    5.4529  -12.8362   25.7596 C   0  0  0  0  0  0  0  0  0  0  0  0
    5.8829  -11.5599   26.0398 C   0  0  0  0  0  0  0  0  0  0  0  0
    7.1553  -11.4402   26.5452 C   0  0  0  0  0  0  0  0  0  0  0  0
    7.9686  -12.5150   26.7655 C   0  0  0  0  0  0  0  0  0  0  0  0
    7.5600  -13.7972   26.4923 C   0  0  0  0  0  0  0  0  0  0  0  0
   10.0796  -17.7627   27.2234 C   0  0  0  0  0  0  0  0  0  0  0  0
    9.3417  -18.7524   26.9973 O   0  0  0  0  0  0  0  0  0  0  0  0
   10.9178  -17.9307   28.3447 O   0  0  0  0  0  0  0  0  0  0  0  0
  2  1  1  0
  3  2  1  0
  4  3  1  0
  4  5  1  0
  5  6  1  1
  5  1  1  0
  6  7  2  0
  8 12  1  0
  8  6  1  0
  9  8  1  0
 10 11  1  0
 10  9  1  0
 11 12  1  0
 12 13  1  1
 13 15  1  0
 13 14  2  0
 15 16  1  0
 16 27  1  0
 16 17  1  1
 18 17  1  0
 19 18  2  0
 20 21  1  0
 20 19  1  0
 21 26  2  0
 22 23  2  0
 22 21  1  0
 23 24  1  0
 24 25  2  0
 26 18  1  0
 26 25  1  0
 27 28  2  0
 27 29  1  0
M  END
$$$$
