PPW.pdb
     RDKit          3D

 29 32  0  0  1  0  0  0  0  0999 V2000
    7.0381  -18.6874   18.8686 N   0  0  0  0  0  0  0  0  0  0  0  0
    6.0752  -19.7000   19.2549 C   0  0  0  0  0  0  0  0  0  0  0  0
    5.8244  -19.5312   20.7227 C   0  0  0  0  0  0  0  0  0  0  0  0
    6.2635  -18.1262   21.0314 C   0  0  0  0  0  0  0  0  0  0  0  0
    6.8221  -17.5613   19.7432 C   0  0  1  0  0  0  0  0  0  0  0  0
    8.0672  -16.7688   19.9614 C   0  0  0  0  0  0  0  0  0  0  0  0
    9.0907  -17.1648   19.3382 O   0  0  0  0  0  0  0  0  0  0  0  0
    8.1195  -15.6479   20.8044 N   0  0  0  0  0  0  0  0  0  0  0  0
    7.0758  -15.1626   21.6584 C   0  0  0  0  0  0  0  0  0  0  0  0
    7.3710  -13.6654   21.8065 C   0  0  0  0  0  0  0  0  0  0  0  0
    8.5585  -13.4077   20.8708 C   0  0  0  0  0  0  0  0  0  0  0  0
    9.2492  -14.7761   20.9614 C   0  0  1  0  0  0  0  0  0  0  0  0
    9.8545  -14.8893   22.3153 C   0  0  0  0  0  0  0  0  0  0  0  0
   10.6937  -14.0476   22.7501 O   0  0  0  0  0  0  0  0  0  0  0  0
    9.5131  -15.9410   23.1656 N   0  0  0  0  0  0  0  0  0  0  0  0
   10.1182  -16.0387   24.5222 C   0  0  1  0  0  0  0  0  0  0  0  0
    9.7181  -14.8670   25.3316 C   0  0  0  0  0  0  0  0  0  0  0  0
    8.2913  -14.7642   25.5681 C   0  0  0  0  0  0  0  0  0  0  0  0
    7.3115  -15.7411   25.4114 C   0  0  0  0  0  0  0  0  0  0  0  0
    6.1041  -15.2495   25.6939 N   0  0  0  0  0  0  0  0  0  0  0  0
    6.2221  -13.9523   26.0447 C   0  0  0  0  0  0  0  0  0  0  0  0
    5.2729  -13.0211   26.4398 C   0  0  0  0  0  0  0  0  0  0  0  0
    5.6320  -11.7375   26.7796 C   0  0  0  0  0  0  0  0  0  0  0  0
    6.9710  -11.4369   26.7052 C   0  0  0  0  0  0  0  0  0  0  0  0
    7.9134  -12.3459   26.3167 C   0  0  0  0  0  0  0  0  0  0  0  0
    7.5769  -13.6319   25.9726 C   0  0  0  0  0  0  0  0  0  0  0  0
    9.6890  -17.3140   25.0735 C   0  0  0  0  0  0  0  0  0  0  0  0
    8.7279  -17.9853   24.6252 O   0  0  0  0  0  0  0  0  0  0  0  0
   10.3278  -17.9147   26.1776 O   0  0  0  0  0  0  0  0  0  0  0  0
  2  1  1  0
  3  2  1  0
  4  3  1  0
  4  5  1  0
  5  6  1  1
  5  1  1  0
  6  7  2  0
  8 12  1  0
  8  6  1  0
  9  8  1  0
 10 11  1  0
 10  9  1  0
 11 12  1  0
 12 13  1  1
 13 15  1  0
 13 14  2  0
 15 16  1  0
 16 27  1  0
 16 17  1  1
 18 17  1  0
 19 18  2  0
 20 21  1  0
 20 19  1  0
 21 26  2  0
 22 23  2  0
 22 21  1  0
 23 24  1  0
 24 25  2  0
 26 18  1  0
 26 25  1  0
 27 28  2  0
 27 29  1  0
M  END
$$$$
