PPW.pdb
     RDKit          3D

 29 32  0  0  1  0  0  0  0  0999 V2000
    6.6145  -19.0392   19.7944 N   0  0  0  0  0  0  0  0  0  0  0  0
    5.5771  -19.8884   20.3464 C   0  0  0  0  0  0  0  0  0  0  0  0
    5.3892  -19.4802   21.7761 C   0  0  0  0  0  0  0  0  0  0  0  0
    5.9625  -18.0923   21.8610 C   0  0  0  0  0  0  0  0  0  0  0  0
    6.5285  -17.7803   20.4925 C   0  0  1  0  0  0  0  0  0  0  0  0
    7.8461  -17.0843   20.5662 C   0  0  0  0  0  0  0  0  0  0  0  0
    8.8073  -17.6574   19.9827 O   0  0  0  0  0  0  0  0  0  0  0  0
    8.0282  -15.8658   21.2386 N   0  0  0  0  0  0  0  0  0  0  0  0
    7.0712  -15.1827   22.0582 C   0  0  0  0  0  0  0  0  0  0  0  0
    7.4866  -13.7089   21.9796 C   0  0  0  0  0  0  0  0  0  0  0  0
    8.6388  -13.6819   20.9677 C   0  0  0  0  0  0  0  0  0  0  0  0
    9.2275  -15.0771   21.2224 C   0  0  1  0  0  0  0  0  0  0  0  0
    9.8938  -15.0516   22.5520 C   0  0  0  0  0  0  0  0  0  0  0  0
   10.7116  -14.1424   22.8780 O   0  0  0  0  0  0  0  0  0  0  0  0
    9.6364  -16.0421   23.4998 N   0  0  0  0  0  0  0  0  0  0  0  0
   10.3087  -16.0060   24.8275 C   0  0  1  0  0  0  0  0  0  0  0  0
    9.8549  -14.8183   25.5835 C   0  0  0  0  0  0  0  0  0  0  0  0
    8.4172  -14.7300   25.7495 C   0  0  0  0  0  0  0  0  0  0  0  0
    7.4653  -15.7397   25.6350 C   0  0  0  0  0  0  0  0  0  0  0  0
    6.2368  -15.2550   25.8232 N   0  0  0  0  0  0  0  0  0  0  0  0
    6.3129  -13.9305   26.0671 C   0  0  0  0  0  0  0  0  0  0  0  0
    5.3286  -12.9923   26.3409 C   0  0  0  0  0  0  0  0  0  0  0  0
    5.6463  -11.6765   26.5853 C   0  0  0  0  0  0  0  0  0  0  0  0
    6.9810  -11.3514   26.5426 C   0  0  0  0  0  0  0  0  0  0  0  0
    7.9578  -12.2670   26.2732 C   0  0  0  0  0  0  0  0  0  0  0  0
    7.6629  -13.5851   26.0256 C   0  0  0  0  0  0  0  0  0  0  0  0
   10.0069  -17.2719   25.4763 C   0  0  0  0  0  0  0  0  0  0  0  0
   10.4509  -17.6082   26.6010 O   0  0  0  0  0  0  0  0  0  0  0  0
    9.1751  -18.2456   24.8861 O   0  0  0  0  0  0  0  0  0  0  0  0
  2  1  1  0
  3  2  1  0
  4  3  1  0
  4  5  1  0
  5  6  1  1
  5  1  1  0
  6  7  2  0
  8 12  1  0
  8  6  1  0
  9  8  1  0
 10 11  1  0
 10  9  1  0
 11 12  1  0
 12 13  1  1
 13 15  1  0
 13 14  2  0
 15 16  1  0
 16 27  1  0
 16 17  1  1
 18 17  1  0
 19 18  2  0
 20 21  1  0
 20 19  1  0
 21 26  2  0
 22 23  2  0
 22 21  1  0
 23 24  1  0
 24 25  2  0
 26 18  1  0
 26 25  1  0
 27 28  2  0
 27 29  1  0
M  END
$$$$
