PPW.pdb
     RDKit          3D

 29 32  0  0  1  0  0  0  0  0999 V2000
    7.1977  -14.4911   19.0618 N   0  0  0  0  0  0  0  0  0  0  0  0
    7.1586  -13.1888   18.4257 C   0  0  0  0  0  0  0  0  0  0  0  0
    7.8559  -12.2303   19.3429 C   0  0  0  0  0  0  0  0  0  0  0  0
    8.7041  -13.0952   20.2344 C   0  0  0  0  0  0  0  0  0  0  0  0
    8.4067  -14.5277   19.8471 C   0  0  1  0  0  0  0  0  0  0  0  0
    8.2828  -15.4243   21.0331 C   0  0  0  0  0  0  0  0  0  0  0  0
    7.1357  -15.4955   21.5546 O   0  0  0  0  0  0  0  0  0  0  0  0
    9.3632  -16.1533   21.5540 N   0  0  0  0  0  0  0  0  0  0  0  0
   10.7338  -16.0748   21.1424 C   0  0  0  0  0  0  0  0  0  0  0  0
   11.3182  -17.4455   21.5033 C   0  0  0  0  0  0  0  0  0  0  0  0
   10.1204  -18.2594   22.0084 C   0  0  0  0  0  0  0  0  0  0  0  0
    9.2819  -17.1223   22.6100 C   0  0  1  0  0  0  0  0  0  0  0  0
    9.9686  -16.6575   23.8448 C   0  0  0  0  0  0  0  0  0  0  0  0
   11.0700  -16.0351   23.8089 O   0  0  0  0  0  0  0  0  0  0  0  0
    9.4149  -16.8937   25.1030 N   0  0  0  0  0  0  0  0  0  0  0  0
   10.1876  -16.5803   26.3361 C   0  0  1  0  0  0  0  0  0  0  0  0
    9.6684  -15.3373   26.9470 C   0  0  0  0  0  0  0  0  0  0  0  0
    8.2764  -15.0620   26.6488 C   0  0  0  0  0  0  0  0  0  0  0  0
    7.2660  -15.9585   26.3108 C   0  0  0  0  0  0  0  0  0  0  0  0
    6.1226  -15.3143   26.0722 N   0  0  0  0  0  0  0  0  0  0  0  0
    6.3147  -13.9894   26.2376 C   0  0  0  0  0  0  0  0  0  0  0  0
    5.4418  -12.9171   26.1257 C   0  0  0  0  0  0  0  0  0  0  0  0
    5.8603  -11.6293   26.3677 C   0  0  0  0  0  0  0  0  0  0  0  0
    7.1785  -11.4709   26.7226 C   0  0  0  0  0  0  0  0  0  0  0  0
    8.0463  -12.5196   26.8347 C   0  0  0  0  0  0  0  0  0  0  0  0
    7.6500  -13.8127   26.5971 C   0  0  0  0  0  0  0  0  0  0  0  0
   10.0853  -17.7498   27.1944 C   0  0  0  0  0  0  0  0  0  0  0  0
    9.3100  -18.7131   26.9795 O   0  0  0  0  0  0  0  0  0  0  0  0
   10.8623  -17.9029   28.3609 O   0  0  0  0  0  0  0  0  0  0  0  0
  2  1  1  0
  3  2  1  0
  4  3  1  0
  4  5  1  0
  5  6  1  1
  5  1  1  0
  6  7  2  0
  8 12  1  0
  8  6  1  0
  9  8  1  0
 10 11  1  0
 10  9  1  0
 11 12  1  0
 12 13  1  1
 13 15  1  0
 13 14  2  0
 15 16  1  0
 16 27  1  0
 16 17  1  1
 18 17  1  0
 19 18  2  0
 20 21  1  0
 20 19  1  0
 21 26  2  0
 22 23  2  0
 22 21  1  0
 23 24  1  0
 24 25  2  0
 26 18  1  0
 26 25  1  0
 27 28  2  0
 27 29  1  0
M  END
$$$$
