PPW.pdb
     RDKit          3D

 29 32  0  0  1  0  0  0  0  0999 V2000
    6.6179  -18.8695   19.4173 N   0  0  0  0  0  0  0  0  0  0  0  0
    5.6684  -19.7895   20.0123 C   0  0  0  0  0  0  0  0  0  0  0  0
    5.5712  -19.4415   21.4668 C   0  0  0  0  0  0  0  0  0  0  0  0
    6.0811  -18.0296   21.5619 C   0  0  0  0  0  0  0  0  0  0  0  0
    6.5246  -17.6416   20.1679 C   0  0  1  0  0  0  0  0  0  0  0  0
    7.8086  -16.8818   20.1695 C   0  0  0  0  0  0  0  0  0  0  0  0
    8.7358  -17.3621   19.4608 O   0  0  0  0  0  0  0  0  0  0  0  0
    7.9956  -15.7025   20.9071 N   0  0  0  0  0  0  0  0  0  0  0  0
    7.0348  -15.0499   21.7469 C   0  0  0  0  0  0  0  0  0  0  0  0
    7.4702  -13.5799   21.7515 C   0  0  0  0  0  0  0  0  0  0  0  0
    8.6383  -13.5160   20.7598 C   0  0  0  0  0  0  0  0  0  0  0  0
    9.2051  -14.9303   20.9501 C   0  0  1  0  0  0  0  0  0  0  0  0
    9.8507  -14.9831   22.2891 C   0  0  0  0  0  0  0  0  0  0  0  0
   10.8292  -14.2408   22.5945 O   0  0  0  0  0  0  0  0  0  0  0  0
    9.3936  -15.8642   23.2690 N   0  0  0  0  0  0  0  0  0  0  0  0
   10.1284  -16.0053   24.5560 C   0  0  1  0  0  0  0  0  0  0  0  0
    9.7885  -14.8770   25.4500 C   0  0  0  0  0  0  0  0  0  0  0  0
    8.3695  -14.7254   25.7066 C   0  0  0  0  0  0  0  0  0  0  0  0
    7.3620  -15.6819   25.6125 C   0  0  0  0  0  0  0  0  0  0  0  0
    6.1733  -15.1459   25.8933 N   0  0  0  0  0  0  0  0  0  0  0  0
    6.3313  -13.8377   26.1818 C   0  0  0  0  0  0  0  0  0  0  0  0
    5.4141  -12.8644   26.5501 C   0  0  0  0  0  0  0  0  0  0  0  0
    5.8127  -11.5766   26.8239 C   0  0  0  0  0  0  0  0  0  0  0  0
    7.1574  -11.3156   26.7121 C   0  0  0  0  0  0  0  0  0  0  0  0
    8.0685  -12.2662   26.3494 C   0  0  0  0  0  0  0  0  0  0  0  0
    7.6924  -13.5572   26.0710 C   0  0  0  0  0  0  0  0  0  0  0  0
    9.7762  -17.3112   25.0901 C   0  0  0  0  0  0  0  0  0  0  0  0
    8.8243  -18.0103   24.6655 O   0  0  0  0  0  0  0  0  0  0  0  0
   10.4872  -17.9128   26.1487 O   0  0  0  0  0  0  0  0  0  0  0  0
  2  1  1  0
  3  2  1  0
  4  3  1  0
  4  5  1  0
  5  6  1  1
  5  1  1  0
  6  7  2  0
  8 12  1  0
  8  6  1  0
  9  8  1  0
 10 11  1  0
 10  9  1  0
 11 12  1  0
 12 13  1  1
 13 15  1  0
 13 14  2  0
 15 16  1  0
 16 27  1  0
 16 17  1  1
 18 17  1  0
 19 18  2  0
 20 21  1  0
 20 19  1  0
 21 26  2  0
 22 23  2  0
 22 21  1  0
 23 24  1  0
 24 25  2  0
 26 18  1  0
 26 25  1  0
 27 28  2  0
 27 29  1  0
M  END
$$$$
