PPW.pdb
     RDKit          3D

 29 32  0  0  1  0  0  0  0  0999 V2000
    7.2895  -18.5301   18.7087 N   0  0  0  0  0  0  0  0  0  0  0  0
    6.1632  -19.2856   19.2211 C   0  0  0  0  0  0  0  0  0  0  0  0
    5.7470  -18.6374   20.5066 C   0  0  0  0  0  0  0  0  0  0  0  0
    6.3179  -17.2474   20.4417 C   0  0  0  0  0  0  0  0  0  0  0  0
    7.1069  -17.1702   19.1526 C   0  0  1  0  0  0  0  0  0  0  0  0
    8.4038  -16.4521   19.3207 C   0  0  0  0  0  0  0  0  0  0  0  0
    9.4370  -17.0887   18.9742 O   0  0  0  0  0  0  0  0  0  0  0  0
    8.4925  -15.1477   19.8313 N   0  0  0  0  0  0  0  0  0  0  0  0
    7.4466  -14.3953   20.4591 C   0  0  0  0  0  0  0  0  0  0  0  0
    7.8319  -12.9316   20.2146 C   0  0  0  0  0  0  0  0  0  0  0  0
    9.0730  -12.9998   19.3162 C   0  0  0  0  0  0  0  0  0  0  0  0
    9.6687  -14.3249   19.8137 C   0  0  1  0  0  0  0  0  0  0  0  0
   10.2062  -14.0947   21.1813 C   0  0  0  0  0  0  0  0  0  0  0  0
   10.5924  -12.9537   21.5697 O   0  0  0  0  0  0  0  0  0  0  0  0
   10.3043  -15.1424   22.0968 N   0  0  0  0  0  0  0  0  0  0  0  0
    9.6191  -15.0560   23.4155 C   0  0  1  0  0  0  0  0  0  0  0  0
    8.1925  -14.7209   23.2147 C   0  0  0  0  0  0  0  0  0  0  0  0
    7.4248  -14.6205   24.4406 C   0  0  0  0  0  0  0  0  0  0  0  0
    6.6282  -15.5870   25.0491 C   0  0  0  0  0  0  0  0  0  0  0  0
    6.0521  -15.1007   26.1496 N   0  0  0  0  0  0  0  0  0  0  0  0
    6.4310  -13.8174   26.3209 C   0  0  0  0  0  0  0  0  0  0  0  0
    6.1234  -12.8969   27.3120 C   0  0  0  0  0  0  0  0  0  0  0  0
    6.6538  -11.6278   27.2954 C   0  0  0  0  0  0  0  0  0  0  0  0
    7.4962  -11.3304   26.2510 C   0  0  0  0  0  0  0  0  0  0  0  0
    7.8048  -12.2289   25.2699 C   0  0  0  0  0  0  0  0  0  0  0  0
    7.2862  -13.5004   25.2666 C   0  0  0  0  0  0  0  0  0  0  0  0
    9.8404  -16.3312   24.0787 C   0  0  0  0  0  0  0  0  0  0  0  0
    9.6842  -17.4470   23.5257 O   0  0  0  0  0  0  0  0  0  0  0  0
   10.2566  -16.4232   25.4227 O   0  0  0  0  0  0  0  0  0  0  0  0
  2  1  1  0
  3  2  1  0
  4  3  1  0
  4  5  1  0
  5  6  1  1
  5  1  1  0
  6  7  2  0
  8 12  1  0
  8  6  1  0
  9  8  1  0
 10 11  1  0
 10  9  1  0
 11 12  1  0
 12 13  1  1
 13 15  1  0
 13 14  2  0
 15 16  1  0
 16 27  1  0
 16 17  1  6
 18 17  1  0
 19 18  2  0
 20 21  1  0
 20 19  1  0
 21 26  2  0
 22 23  2  0
 22 21  1  0
 23 24  1  0
 24 25  2  0
 26 18  1  0
 26 25  1  0
 27 28  2  0
 27 29  1  0
M  END
$$$$
