PPW.pdb
     RDKit          3D

 29 32  0  0  1  0  0  0  0  0999 V2000
    8.9221  -14.7830   18.3494 N   0  0  0  0  0  0  0  0  0  0  0  0
    8.5718  -13.7699   17.3732 C   0  0  0  0  0  0  0  0  0  0  0  0
    7.4783  -12.9397   17.9740 C   0  0  0  0  0  0  0  0  0  0  0  0
    7.5773  -13.1826   19.4551 C   0  0  0  0  0  0  0  0  0  0  0  0
    8.6776  -14.2038   19.6472 C   0  0  1  0  0  0  0  0  0  0  0  0
    8.3270  -15.2336   20.6682 C   0  0  0  0  0  0  0  0  0  0  0  0
    7.2122  -15.0865   21.2413 O   0  0  0  0  0  0  0  0  0  0  0  0
    9.1710  -16.3085   20.9879 N   0  0  0  0  0  0  0  0  0  0  0  0
   10.4083  -16.6514   20.3511 C   0  0  0  0  0  0  0  0  0  0  0  0
   10.5528  -18.1592   20.5881 C   0  0  0  0  0  0  0  0  0  0  0  0
    9.2466  -18.5726   21.2773 C   0  0  0  0  0  0  0  0  0  0  0  0
    8.9375  -17.2695   22.0285 C   0  0  1  0  0  0  0  0  0  0  0  0
    9.9226  -17.1402   23.1354 C   0  0  0  0  0  0  0  0  0  0  0  0
   11.1489  -16.9115   22.9221 O   0  0  0  0  0  0  0  0  0  0  0  0
    9.5238  -17.2674   24.4659 N   0  0  0  0  0  0  0  0  0  0  0  0
   10.1598  -16.4366   25.5249 C   0  0  1  0  0  0  0  0  0  0  0  0
    9.7467  -15.0252   25.3659 C   0  0  0  0  0  0  0  0  0  0  0  0
    8.3577  -14.7694   25.6937 C   0  0  0  0  0  0  0  0  0  0  0  0
    7.2774  -15.6466   25.6458 C   0  0  0  0  0  0  0  0  0  0  0  0
    6.1479  -15.0249   25.9880 N   0  0  0  0  0  0  0  0  0  0  0  0
    6.4184  -13.7347   26.2740 C   0  0  0  0  0  0  0  0  0  0  0  0
    5.5968  -12.6982   26.6920 C   0  0  0  0  0  0  0  0  0  0  0  0
    6.1046  -11.4464   26.9513 C   0  0  0  0  0  0  0  0  0  0  0  0
    7.4580  -11.2864   26.7736 C   0  0  0  0  0  0  0  0  0  0  0  0
    8.2756  -12.2998   26.3617 C   0  0  0  0  0  0  0  0  0  0  0  0
    7.7897  -13.5565   26.0967 C   0  0  0  0  0  0  0  0  0  0  0  0
    9.7755  -17.0266   26.7972 C   0  0  0  0  0  0  0  0  0  0  0  0
   10.2387  -16.6667   27.9068 O   0  0  0  0  0  0  0  0  0  0  0  0
    8.8333  -18.0711   26.8934 O   0  0  0  0  0  0  0  0  0  0  0  0
  2  1  1  0
  3  2  1  0
  4  3  1  0
  4  5  1  0
  5  6  1  1
  5  1  1  0
  6  7  2  0
  8 12  1  0
  8  6  1  0
  9  8  1  0
 10 11  1  0
 10  9  1  0
 11 12  1  0
 12 13  1  1
 13 15  1  0
 13 14  2  0
 15 16  1  0
 16 27  1  0
 16 17  1  1
 18 17  1  0
 19 18  2  0
 20 21  1  0
 20 19  1  0
 21 26  2  0
 22 23  2  0
 22 21  1  0
 23 24  1  0
 24 25  2  0
 26 18  1  0
 26 25  1  0
 27 28  2  0
 27 29  1  0
M  END
$$$$
