PPW.pdb
     RDKit          3D

 29 32  0  0  1  0  0  0  0  0999 V2000
    7.3478  -14.3030   19.2312 N   0  0  0  0  0  0  0  0  0  0  0  0
    7.0958  -12.9153   18.8952 C   0  0  0  0  0  0  0  0  0  0  0  0
    7.4958  -12.0953   20.0841 C   0  0  0  0  0  0  0  0  0  0  0  0
    8.4231  -12.9806   20.8706 C   0  0  0  0  0  0  0  0  0  0  0  0
    8.4643  -14.3075   20.1439 C   0  0  1  0  0  0  0  0  0  0  0  0
    8.4251  -15.4701   21.0783 C   0  0  0  0  0  0  0  0  0  0  0  0
    7.2776  -15.8439   21.4474 O   0  0  0  0  0  0  0  0  0  0  0  0
    9.5818  -16.1229   21.5320 N   0  0  0  0  0  0  0  0  0  0  0  0
   10.9321  -15.8639   21.1274 C   0  0  0  0  0  0  0  0  0  0  0  0
   11.6617  -17.1911   21.3661 C   0  0  0  0  0  0  0  0  0  0  0  0
   10.5618  -18.1683   21.7992 C   0  0  0  0  0  0  0  0  0  0  0  0
    9.6142  -17.1833   22.4990 C   0  0  1  0  0  0  0  0  0  0  0  0
   10.2608  -16.7575   23.7691 C   0  0  0  0  0  0  0  0  0  0  0  0
   11.4355  -16.2875   23.8020 O   0  0  0  0  0  0  0  0  0  0  0  0
    9.5858  -16.8620   24.9852 N   0  0  0  0  0  0  0  0  0  0  0  0
   10.2977  -16.5996   26.2660 C   0  0  1  0  0  0  0  0  0  0  0  0
    9.7840  -15.3535   26.8752 C   0  0  0  0  0  0  0  0  0  0  0  0
    8.4285  -15.0144   26.4878 C   0  0  0  0  0  0  0  0  0  0  0  0
    7.4105  -15.8605   26.0557 C   0  0  0  0  0  0  0  0  0  0  0  0
    6.3129  -15.1645   25.7551 N   0  0  0  0  0  0  0  0  0  0  0  0
    6.5443  -13.8530   25.9695 C   0  0  0  0  0  0  0  0  0  0  0  0
    5.7241  -12.7435   25.8259 C   0  0  0  0  0  0  0  0  0  0  0  0
    6.1742  -11.4801   26.1315 C   0  0  0  0  0  0  0  0  0  0  0  0
    7.4691  -11.3844   26.5821 C   0  0  0  0  0  0  0  0  0  0  0  0
    8.2850  -12.4700   26.7262 C   0  0  0  0  0  0  0  0  0  0  0  0
    7.8565  -13.7397   26.4263 C   0  0  0  0  0  0  0  0  0  0  0  0
   10.1110  -17.7828   27.0905 C   0  0  0  0  0  0  0  0  0  0  0  0
    9.3085  -18.7088   26.8190 O   0  0  0  0  0  0  0  0  0  0  0  0
   10.8289  -17.9934   28.2857 O   0  0  0  0  0  0  0  0  0  0  0  0
  2  1  1  0
  3  2  1  0
  4  3  1  0
  4  5  1  0
  5  6  1  1
  5  1  1  0
  6  7  2  0
  8 12  1  0
  8  6  1  0
  9  8  1  0
 10 11  1  0
 10  9  1  0
 11 12  1  0
 12 13  1  1
 13 15  1  0
 13 14  2  0
 15 16  1  0
 16 27  1  0
 16 17  1  1
 18 17  1  0
 19 18  2  0
 20 21  1  0
 20 19  1  0
 21 26  2  0
 22 23  2  0
 22 21  1  0
 23 24  1  0
 24 25  2  0
 26 18  1  0
 26 25  1  0
 27 28  2  0
 27 29  1  0
M  END
$$$$
