PPW.pdb
     RDKit          3D

 29 32  0  0  1  0  0  0  0  0999 V2000
    6.0716  -18.9233   20.1295 N   0  0  0  0  0  0  0  0  0  0  0  0
    5.0272  -19.7141   20.7507 C   0  0  0  0  0  0  0  0  0  0  0  0
    4.9437  -19.2842   22.1839 C   0  0  0  0  0  0  0  0  0  0  0  0
    5.5892  -17.9262   22.2189 C   0  0  0  0  0  0  0  0  0  0  0  0
    6.0892  -17.6554   20.8164 C   0  0  1  0  0  0  0  0  0  0  0  0
    7.4418  -17.0260   20.8054 C   0  0  0  0  0  0  0  0  0  0  0  0
    8.3682  -17.7157   20.2966 O   0  0  0  0  0  0  0  0  0  0  0  0
    7.6913  -15.7459   21.3243 N   0  0  0  0  0  0  0  0  0  0  0  0
    6.7289  -14.8348   21.8700 C   0  0  0  0  0  0  0  0  0  0  0  0
    7.3539  -13.4507   21.6598 C   0  0  0  0  0  0  0  0  0  0  0  0
    8.6356  -13.7187   20.8612 C   0  0  0  0  0  0  0  0  0  0  0  0
    8.9784  -15.1149   21.4008 C   0  0  1  0  0  0  0  0  0  0  0  0
    9.4372  -14.9570   22.8069 C   0  0  0  0  0  0  0  0  0  0  0  0
    9.7368  -13.8282   23.2946 O   0  0  0  0  0  0  0  0  0  0  0  0
    9.5542  -16.0625   23.6492 N   0  0  0  0  0  0  0  0  0  0  0  0
   10.2452  -15.9385   24.9619 C   0  0  1  0  0  0  0  0  0  0  0  0
    9.2902  -16.2191   26.0561 C   0  0  0  0  0  0  0  0  0  0  0  0
    8.0316  -15.5076   25.9467 C   0  0  0  0  0  0  0  0  0  0  0  0
    6.7999  -15.9828   25.5039 C   0  0  0  0  0  0  0  0  0  0  0  0
    5.8865  -15.0107   25.5139 N   0  0  0  0  0  0  0  0  0  0  0  0
    6.4551  -13.8696   25.9549 C   0  0  0  0  0  0  0  0  0  0  0  0
    5.9264  -12.6038   26.1607 C   0  0  0  0  0  0  0  0  0  0  0  0
    6.7024  -11.5781   26.6484 C   0  0  0  0  0  0  0  0  0  0  0  0
    8.0164  -11.8790   26.9162 C   0  0  0  0  0  0  0  0  0  0  0  0
    8.5470  -13.1214   26.7163 C   0  0  0  0  0  0  0  0  0  0  0  0
    7.7908  -14.1593   26.2297 C   0  0  0  0  0  0  0  0  0  0  0  0
   11.3791  -16.8479   24.9177 C   0  0  0  0  0  0  0  0  0  0  0  0
   12.2501  -16.9288   25.8177 O   0  0  0  0  0  0  0  0  0  0  0  0
   11.5995  -17.7312   23.8410 O   0  0  0  0  0  0  0  0  0  0  0  0
  2  1  1  0
  3  2  1  0
  4  3  1  0
  4  5  1  0
  5  6  1  1
  5  1  1  0
  6  7  2  0
  8 12  1  0
  8  6  1  0
  9  8  1  0
 10 11  1  0
 10  9  1  0
 11 12  1  0
 12 13  1  1
 13 15  1  0
 13 14  2  0
 15 16  1  0
 16 27  1  0
 16 17  1  1
 18 17  1  0
 19 18  2  0
 20 21  1  0
 20 19  1  0
 21 26  2  0
 22 23  2  0
 22 21  1  0
 23 24  1  0
 24 25  2  0
 26 18  1  0
 26 25  1  0
 27 28  2  0
 27 29  1  0
M  END
$$$$
