AAW.pdb
     RDKit          3D

 25 26  0  0  1  0  0  0  0  0999 V2000
    9.2286  -19.4609   20.7645 C   0  0  0  0  0  0  0  0  0  0  0  0
    8.3144  -18.5188   19.9657 C   0  0  2  0  0  0  0  0  0  0  0  0
    8.9855  -18.1773   18.7358 N   0  0  0  0  0  0  0  0  0  0  0  0
    8.1121  -17.2611   20.7482 C   0  0  0  0  0  0  0  0  0  0  0  0
    7.4806  -17.2720   21.8572 O   0  0  0  0  0  0  0  0  0  0  0  0
    6.9632  -14.1957   20.7198 C   0  0  0  0  0  0  0  0  0  0  0  0
    8.3315  -14.7596   21.0227 C   0  0  2  0  0  0  0  0  0  0  0  0
    8.5938  -15.9912   20.3284 N   0  0  0  0  0  0  0  0  0  0  0  0
    8.4588  -14.8673   22.4792 C   0  0  0  0  0  0  0  0  0  0  0  0
    7.4425  -14.8245   23.1984 O   0  0  0  0  0  0  0  0  0  0  0  0
    9.7290  -15.0186   23.0592 N   0  0  0  0  0  0  0  0  0  0  0  0
    9.9452  -15.3300   24.4794 C   0  0  1  0  0  0  0  0  0  0  0  0
    8.7307  -16.0536   24.9176 C   0  0  0  0  0  0  0  0  0  0  0  0
    7.5940  -15.2851   25.3970 C   0  0  0  0  0  0  0  0  0  0  0  0
    6.2617  -15.6612   25.5276 C   0  0  0  0  0  0  0  0  0  0  0  0
    5.5560  -14.6173   25.9845 N   0  0  0  0  0  0  0  0  0  0  0  0
    6.3522  -13.5661   26.1650 C   0  0  0  0  0  0  0  0  0  0  0  0
    6.1697  -12.2672   26.6176 C   0  0  0  0  0  0  0  0  0  0  0  0
    7.2007  -11.3588   26.7237 C   0  0  0  0  0  0  0  0  0  0  0  0
    8.4671  -11.7507   26.3672 C   0  0  0  0  0  0  0  0  0  0  0  0
    8.6459  -13.0235   25.9232 C   0  0  0  0  0  0  0  0  0  0  0  0
    7.6230  -13.9711   25.8021 C   0  0  0  0  0  0  0  0  0  0  0  0
   11.2316  -16.0106   24.5972 C   0  0  0  0  0  0  0  0  0  0  0  0
   11.7864  -16.2317   25.8434 O   0  0  0  0  0  0  0  0  0  0  0  0
   11.8492  -16.3983   23.5840 O   0  0  0  0  0  0  0  0  0  0  0  0
  2  1  1  1
  2  3  1  0
  4  8  1  0
  4  2  1  0
  5  4  2  0
  7  9  1  0
  7  6  1  1
  7  8  1  0
  9 11  1  0
 10  9  2  0
 11 12  1  0
 12 13  1  6
 13 14  1  0
 14 15  2  0
 16 15  1  0
 17 16  1  0
 18 17  2  0
 19 18  1  0
 20 21  1  0
 20 19  2  0
 21 22  2  0
 22 14  1  0
 22 17  1  0
 23 24  1  0
 23 12  1  0
 25 23  2  0
M  END
$$$$
