AAW.pdb
     RDKit          3D

 25 26  0  0  1  0  0  0  0  0999 V2000
    5.7912  -19.7536   20.3214 C   0  0  0  0  0  0  0  0  0  0  0  0
    6.6752  -19.3593   21.5150 C   0  0  2  0  0  0  0  0  0  0  0  0
    5.8134  -18.9618   22.6007 N   0  0  0  0  0  0  0  0  0  0  0  0
    7.5107  -18.1805   21.1308 C   0  0  0  0  0  0  0  0  0  0  0  0
    8.5807  -18.3275   20.4509 O   0  0  0  0  0  0  0  0  0  0  0  0
    7.1250  -14.4443   20.9523 C   0  0  0  0  0  0  0  0  0  0  0  0
    7.9605  -15.6951   21.0925 C   0  0  2  0  0  0  0  0  0  0  0  0
    7.1867  -16.8422   21.4839 N   0  0  0  0  0  0  0  0  0  0  0  0
    9.0677  -15.3939   22.0049 C   0  0  0  0  0  0  0  0  0  0  0  0
    9.9265  -14.5500   21.6852 O   0  0  0  0  0  0  0  0  0  0  0  0
    9.1562  -16.0598   23.2384 N   0  0  0  0  0  0  0  0  0  0  0  0
   10.2830  -15.9054   24.1695 C   0  0  1  0  0  0  0  0  0  0  0  0
    9.8921  -14.8144   25.0901 C   0  0  0  0  0  0  0  0  0  0  0  0
    8.5022  -14.7125   25.5028 C   0  0  0  0  0  0  0  0  0  0  0  0
    7.5219  -15.6968   25.5650 C   0  0  0  0  0  0  0  0  0  0  0  0
    6.3727  -15.1431   25.9762 N   0  0  0  0  0  0  0  0  0  0  0  0
    6.5395  -13.8403   26.1913 C   0  0  0  0  0  0  0  0  0  0  0  0
    5.7202  -12.8076   26.6243 C   0  0  0  0  0  0  0  0  0  0  0  0
    6.1652  -11.5124   26.7787 C   0  0  0  0  0  0  0  0  0  0  0  0
    7.4768  -11.2250   26.4930 C   0  0  0  0  0  0  0  0  0  0  0  0
    8.2797  -12.2369   26.0681 C   0  0  0  0  0  0  0  0  0  0  0  0
    7.8617  -13.5620   25.8996 C   0  0  0  0  0  0  0  0  0  0  0  0
   10.5735  -17.2172   24.7414 C   0  0  0  0  0  0  0  0  0  0  0  0
    9.7542  -18.2931   24.4573 O   0  0  0  0  0  0  0  0  0  0  0  0
   11.5557  -17.3880   25.4928 O   0  0  0  0  0  0  0  0  0  0  0  0
  2  1  1  6
  2  3  1  0
  4  8  1  0
  4  2  1  0
  5  4  2  0
  7  9  1  0
  7  6  1  1
  7  8  1  0
  9 11  1  0
 10  9  2  0
 11 12  1  0
 12 13  1  1
 13 14  1  0
 14 15  2  0
 16 15  1  0
 17 16  1  0
 18 17  2  0
 19 18  1  0
 20 21  1  0
 20 19  2  0
 21 22  2  0
 22 14  1  0
 22 17  1  0
 23 24  1  0
 23 12  1  0
 25 23  2  0
M  END
$$$$
