AAW.pdb
     RDKit          3D

 25 26  0  0  1  0  0  0  0  0999 V2000
    8.0270  -19.8276   22.1448 C   0  0  0  0  0  0  0  0  0  0  0  0
    7.4312  -19.1286   20.9128 C   0  0  2  0  0  0  0  0  0  0  0  0
    7.8435  -19.8577   19.7390 N   0  0  0  0  0  0  0  0  0  0  0  0
    7.9929  -17.7461   20.8210 C   0  0  0  0  0  0  0  0  0  0  0  0
    9.1355  -17.5352   20.2929 O   0  0  0  0  0  0  0  0  0  0  0  0
    6.7911  -14.1921   21.3029 C   0  0  0  0  0  0  0  0  0  0  0  0
    7.8576  -15.2607   21.2517 C   0  0  2  0  0  0  0  0  0  0  0  0
    7.3165  -16.5921   21.3020 N   0  0  0  0  0  0  0  0  0  0  0  0
    8.8252  -14.9790   22.3164 C   0  0  0  0  0  0  0  0  0  0  0  0
    9.4772  -13.9175   22.3009 O   0  0  0  0  0  0  0  0  0  0  0  0
    9.0138  -15.9091   23.3518 N   0  0  0  0  0  0  0  0  0  0  0  0
    9.9406  -15.7033   24.4741 C   0  0  1  0  0  0  0  0  0  0  0  0
    9.1448  -15.9486   25.6977 C   0  0  0  0  0  0  0  0  0  0  0  0
    7.8755  -15.2583   25.8559 C   0  0  0  0  0  0  0  0  0  0  0  0
    6.5796  -15.7464   25.7290 C   0  0  0  0  0  0  0  0  0  0  0  0
    5.7136  -14.7443   25.9346 N   0  0  0  0  0  0  0  0  0  0  0  0
    6.3683  -13.6145   26.1924 C   0  0  0  0  0  0  0  0  0  0  0  0
    5.9926  -12.3112   26.4845 C   0  0  0  0  0  0  0  0  0  0  0  0
    6.9030  -11.3066   26.7324 C   0  0  0  0  0  0  0  0  0  0  0  0
    8.2429  -11.6026   26.6900 C   0  0  0  0  0  0  0  0  0  0  0  0
    8.6111  -12.8798   26.4032 C   0  0  0  0  0  0  0  0  0  0  0  0
    7.7148  -13.9236   26.1458 C   0  0  0  0  0  0  0  0  0  0  0  0
   11.1174  -16.5356   24.2404 C   0  0  0  0  0  0  0  0  0  0  0  0
   11.1262  -17.4459   23.2008 O   0  0  0  0  0  0  0  0  0  0  0  0
   12.1258  -16.4431   24.9705 O   0  0  0  0  0  0  0  0  0  0  0  0
  2  1  1  1
  2  3  1  0
  4  8  1  0
  4  2  1  0
  5  4  2  0
  7  9  1  0
  7  6  1  1
  7  8  1  0
  9 11  1  0
 10  9  2  0
 11 12  1  0
 12 13  1  1
 13 14  1  0
 14 15  2  0
 16 15  1  0
 17 16  1  0
 18 17  2  0
 19 18  1  0
 20 21  1  0
 20 19  2  0
 21 22  2  0
 22 14  1  0
 22 17  1  0
 23 24  1  0
 23 12  1  0
 25 23  2  0
M  END
$$$$
