AAW.pdb
     RDKit          3D

 25 26  0  0  1  0  0  0  0  0999 V2000
    8.7333  -12.3105   19.5633 C   0  0  0  0  0  0  0  0  0  0  0  0
    8.2391  -13.6646   19.0307 C   0  0  2  0  0  0  0  0  0  0  0  0
    6.8707  -13.5074   18.6039 N   0  0  0  0  0  0  0  0  0  0  0  0
    8.2659  -14.6623   20.1438 C   0  0  0  0  0  0  0  0  0  0  0  0
    7.4533  -14.5747   21.1240 O   0  0  0  0  0  0  0  0  0  0  0  0
    9.8395  -18.0295   20.8420 C   0  0  0  0  0  0  0  0  0  0  0  0
    9.2165  -16.7187   21.2611 C   0  0  2  0  0  0  0  0  0  0  0  0
    9.1739  -15.7548   20.1949 N   0  0  0  0  0  0  0  0  0  0  0  0
    9.9277  -16.2458   22.4527 C   0  0  0  0  0  0  0  0  0  0  0  0
   10.9375  -15.5265   22.3312 O   0  0  0  0  0  0  0  0  0  0  0  0
    9.4667  -16.6068   23.7295 N   0  0  0  0  0  0  0  0  0  0  0  0
   10.1808  -16.2888   24.9743 C   0  0  1  0  0  0  0  0  0  0  0  0
    9.7077  -14.9441   25.3724 C   0  0  0  0  0  0  0  0  0  0  0  0
    8.2981  -14.7606   25.6755 C   0  0  0  0  0  0  0  0  0  0  0  0
    7.2686  -15.6950   25.7025 C   0  0  0  0  0  0  0  0  0  0  0  0
    6.1211  -15.0717   26.0044 N   0  0  0  0  0  0  0  0  0  0  0  0
    6.3358  -13.7700   26.1803 C   0  0  0  0  0  0  0  0  0  0  0  0
    5.5389  -12.6830   26.5099 C   0  0  0  0  0  0  0  0  0  0  0  0
    6.0347  -11.4043   26.6464 C   0  0  0  0  0  0  0  0  0  0  0  0
    7.3762  -11.1903   26.4488 C   0  0  0  0  0  0  0  0  0  0  0  0
    8.1571  -12.2555   26.1252 C   0  0  0  0  0  0  0  0  0  0  0  0
    7.6878  -13.5658   25.9778 C   0  0  0  0  0  0  0  0  0  0  0  0
    9.9721  -17.3949   25.9045 C   0  0  0  0  0  0  0  0  0  0  0  0
   10.7346  -17.4868   27.0532 O   0  0  0  0  0  0  0  0  0  0  0  0
    9.1116  -18.2709   25.6793 O   0  0  0  0  0  0  0  0  0  0  0  0
  2  1  1  1
  2  3  1  0
  4  8  1  0
  4  2  1  0
  5  4  2  0
  7  9  1  0
  7  6  1  6
  7  8  1  0
  9 11  1  0
 10  9  2  0
 11 12  1  0
 12 13  1  1
 13 14  1  0
 14 15  2  0
 16 15  1  0
 17 16  1  0
 18 17  2  0
 19 18  1  0
 20 21  1  0
 20 19  2  0
 21 22  2  0
 22 14  1  0
 22 17  1  0
 23 24  1  0
 23 12  1  0
 25 23  2  0
M  END
$$$$
