AAW.pdb
     RDKit          3D

 25 26  0  0  1  0  0  0  0  0999 V2000
    8.5998  -12.5409   19.9862 C   0  0  0  0  0  0  0  0  0  0  0  0
    8.1121  -13.9376   19.5706 C   0  0  2  0  0  0  0  0  0  0  0  0
    6.7046  -13.8509   19.2689 N   0  0  0  0  0  0  0  0  0  0  0  0
    8.2822  -14.8735   20.7240 C   0  0  0  0  0  0  0  0  0  0  0  0
    7.4918  -14.8323   21.7253 O   0  0  0  0  0  0  0  0  0  0  0  0
   10.3130  -18.0044   21.4279 C   0  0  0  0  0  0  0  0  0  0  0  0
    9.3845  -16.8736   21.8035 C   0  0  2  0  0  0  0  0  0  0  0  0
    9.3093  -15.8538   20.7925 N   0  0  0  0  0  0  0  0  0  0  0  0
    9.8002  -16.3703   23.1162 C   0  0  0  0  0  0  0  0  0  0  0  0
   10.5223  -15.3582   23.1953 O   0  0  0  0  0  0  0  0  0  0  0  0
    9.3818  -17.0327   24.2819 N   0  0  0  0  0  0  0  0  0  0  0  0
    9.7733  -16.6225   25.6381 C   0  0  1  0  0  0  0  0  0  0  0  0
    8.5188  -16.5933   26.4229 C   0  0  0  0  0  0  0  0  0  0  0  0
    7.4902  -15.6323   26.0609 C   0  0  0  0  0  0  0  0  0  0  0  0
    6.2633  -15.8392   25.4399 C   0  0  0  0  0  0  0  0  0  0  0  0
    5.6519  -14.6577   25.2765 N   0  0  0  0  0  0  0  0  0  0  0  0
    6.4102  -13.6756   25.7581 C   0  0  0  0  0  0  0  0  0  0  0  0
    6.2764  -12.2986   25.8638 C   0  0  0  0  0  0  0  0  0  0  0  0
    7.2368  -11.4942   26.4383 C   0  0  0  0  0  0  0  0  0  0  0  0
    8.3791  -12.0757   26.9300 C   0  0  0  0  0  0  0  0  0  0  0  0
    8.5104  -13.4252   26.8260 C   0  0  0  0  0  0  0  0  0  0  0  0
    7.5568  -14.2716   26.2487 C   0  0  0  0  0  0  0  0  0  0  0  0
   10.8426  -17.5119   26.0830 C   0  0  0  0  0  0  0  0  0  0  0  0
   11.5922  -17.1894   27.1982 O   0  0  0  0  0  0  0  0  0  0  0  0
   11.0986  -18.5677   25.4680 O   0  0  0  0  0  0  0  0  0  0  0  0
  2  1  1  1
  2  3  1  0
  4  8  1  0
  4  2  1  0
  5  4  2  0
  7  9  1  0
  7  6  1  6
  7  8  1  0
  9 11  1  0
 10  9  2  0
 11 12  1  0
 12 13  1  1
 13 14  1  0
 14 15  2  0
 16 15  1  0
 17 16  1  0
 18 17  2  0
 19 18  1  0
 20 21  1  0
 20 19  2  0
 21 22  2  0
 22 14  1  0
 22 17  1  0
 23 24  1  0
 23 12  1  0
 25 23  2  0
M  END
$$$$
