AAW.pdb
     RDKit          3D

 25 26  0  0  1  0  0  0  0  0999 V2000
    7.4643  -18.9576   18.5124 C   0  0  0  0  0  0  0  0  0  0  0  0
    7.9694  -18.8057   19.9558 C   0  0  2  0  0  0  0  0  0  0  0  0
    6.8885  -19.1442   20.8483 N   0  0  0  0  0  0  0  0  0  0  0  0
    8.3360  -17.3758   20.1930 C   0  0  0  0  0  0  0  0  0  0  0  0
    9.3377  -16.8482   19.6039 O   0  0  0  0  0  0  0  0  0  0  0  0
    6.6809  -14.2779   21.4470 C   0  0  0  0  0  0  0  0  0  0  0  0
    7.9179  -15.1246   21.2599 C   0  0  2  0  0  0  0  0  0  0  0  0
    7.6171  -16.5178   21.0692 N   0  0  0  0  0  0  0  0  0  0  0  0
    8.8128  -14.8661   22.3920 C   0  0  0  0  0  0  0  0  0  0  0  0
    9.3089  -13.7342   22.5483 O   0  0  0  0  0  0  0  0  0  0  0  0
    9.1078  -15.8982   23.2979 N   0  0  0  0  0  0  0  0  0  0  0  0
   10.0641  -15.7621   24.4059 C   0  0  1  0  0  0  0  0  0  0  0  0
    9.2863  -16.0240   25.6375 C   0  0  0  0  0  0  0  0  0  0  0  0
    8.0259  -15.3262   25.8298 C   0  0  0  0  0  0  0  0  0  0  0  0
    6.7244  -15.8094   25.7502 C   0  0  0  0  0  0  0  0  0  0  0  0
    5.8700  -14.8011   25.9734 N   0  0  0  0  0  0  0  0  0  0  0  0
    6.5378  -13.6719   26.1981 C   0  0  0  0  0  0  0  0  0  0  0  0
    6.1776  -12.3638   26.4887 C   0  0  0  0  0  0  0  0  0  0  0  0
    7.1000  -11.3611   26.6964 C   0  0  0  0  0  0  0  0  0  0  0  0
    8.4364  -11.6639   26.6134 C   0  0  0  0  0  0  0  0  0  0  0  0
    8.7894  -12.9458   26.3281 C   0  0  0  0  0  0  0  0  0  0  0  0
    7.8806  -13.9878   26.1109 C   0  0  0  0  0  0  0  0  0  0  0  0
   11.2075  -16.6235   24.1180 C   0  0  0  0  0  0  0  0  0  0  0  0
   12.3052  -16.6206   24.9574 O   0  0  0  0  0  0  0  0  0  0  0  0
   11.2154  -17.3683   23.1162 O   0  0  0  0  0  0  0  0  0  0  0  0
  2  1  1  6
  2  3  1  0
  4  8  1  0
  4  2  1  0
  5  4  2  0
  7  9  1  0
  7  6  1  1
  7  8  1  0
  9 11  1  0
 10  9  2  0
 11 12  1  0
 12 13  1  1
 13 14  1  0
 14 15  2  0
 16 15  1  0
 17 16  1  0
 18 17  2  0
 19 18  1  0
 20 21  1  0
 20 19  2  0
 21 22  2  0
 22 14  1  0
 22 17  1  0
 23 24  1  0
 23 12  1  0
 25 23  2  0
M  END
$$$$
