AAW.pdb
     RDKit          3D

 25 26  0  0  1  0  0  0  0  0999 V2000
    7.4467  -19.2072   18.5575 C   0  0  0  0  0  0  0  0  0  0  0  0
    7.9260  -18.9973   20.0024 C   0  0  2  0  0  0  0  0  0  0  0  0
    6.8105  -19.2347   20.8850 N   0  0  0  0  0  0  0  0  0  0  0  0
    8.3544  -17.5747   20.1691 C   0  0  0  0  0  0  0  0  0  0  0  0
    9.4009  -17.1316   19.5883 O   0  0  0  0  0  0  0  0  0  0  0  0
    6.8253  -14.3263   21.1672 C   0  0  0  0  0  0  0  0  0  0  0  0
    8.0194  -15.2490   21.0964 C   0  0  2  0  0  0  0  0  0  0  0  0
    7.6488  -16.6323   20.9658 N   0  0  0  0  0  0  0  0  0  0  0  0
    8.8666  -14.9750   22.2610 C   0  0  0  0  0  0  0  0  0  0  0  0
    9.3957  -13.8553   22.3970 O   0  0  0  0  0  0  0  0  0  0  0  0
    9.0790  -15.9782   23.2208 N   0  0  0  0  0  0  0  0  0  0  0  0
    9.9635  -15.8197   24.3841 C   0  0  1  0  0  0  0  0  0  0  0  0
    9.1354  -16.1585   25.5630 C   0  0  0  0  0  0  0  0  0  0  0  0
    7.8552  -15.4915   25.7328 C   0  0  0  0  0  0  0  0  0  0  0  0
    6.5680  -15.9843   25.5491 C   0  0  0  0  0  0  0  0  0  0  0  0
    5.6864  -15.0047   25.7932 N   0  0  0  0  0  0  0  0  0  0  0  0
    6.3226  -13.8854   26.1308 C   0  0  0  0  0  0  0  0  0  0  0  0
    5.9260  -12.6051   26.4897 C   0  0  0  0  0  0  0  0  0  0  0  0
    6.8194  -11.6076   26.8157 C   0  0  0  0  0  0  0  0  0  0  0  0
    8.1631  -11.8871   26.7859 C   0  0  0  0  0  0  0  0  0  0  0  0
    8.5518  -13.1417   26.4336 C   0  0  0  0  0  0  0  0  0  0  0  0
    7.6732  -14.1776   26.0962 C   0  0  0  0  0  0  0  0  0  0  0  0
   11.1684  -16.6077   24.1403 C   0  0  0  0  0  0  0  0  0  0  0  0
   12.2463  -16.5084   24.9993 O   0  0  0  0  0  0  0  0  0  0  0  0
   11.2471  -17.3755   23.1590 O   0  0  0  0  0  0  0  0  0  0  0  0
  2  1  1  6
  2  3  1  0
  4  8  1  0
  4  2  1  0
  5  4  2  0
  7  9  1  0
  7  6  1  1
  7  8  1  0
  9 11  1  0
 10  9  2  0
 11 12  1  0
 12 13  1  1
 13 14  1  0
 14 15  2  0
 16 15  1  0
 17 16  1  0
 18 17  2  0
 19 18  1  0
 20 21  1  0
 20 19  2  0
 21 22  2  0
 22 14  1  0
 22 17  1  0
 23 24  1  0
 23 12  1  0
 25 23  2  0
M  END
$$$$
