AAW.pdb
     RDKit          3D

 25 26  0  0  1  0  0  0  0  0999 V2000
    7.8891  -19.7465   21.3636 C   0  0  0  0  0  0  0  0  0  0  0  0
    7.7683  -18.7628   20.1891 C   0  0  2  0  0  0  0  0  0  0  0  0
    8.5314  -19.2868   19.0835 N   0  0  0  0  0  0  0  0  0  0  0  0
    8.3704  -17.4542   20.5891 C   0  0  0  0  0  0  0  0  0  0  0  0
    9.6248  -17.2470   20.4779 O   0  0  0  0  0  0  0  0  0  0  0  0
    7.0572  -13.9923   21.3819 C   0  0  0  0  0  0  0  0  0  0  0  0
    8.1367  -15.0471   21.3187 C   0  0  2  0  0  0  0  0  0  0  0  0
    7.6129  -16.3699   21.1102 N   0  0  0  0  0  0  0  0  0  0  0  0
    8.9551  -14.9230   22.5287 C   0  0  0  0  0  0  0  0  0  0  0  0
    9.5766  -13.8672   22.7551 O   0  0  0  0  0  0  0  0  0  0  0  0
    9.0357  -15.9974   23.4298 N   0  0  0  0  0  0  0  0  0  0  0  0
    9.8473  -15.9750   24.6551 C   0  0  1  0  0  0  0  0  0  0  0  0
    8.9058  -16.2578   25.7615 C   0  0  0  0  0  0  0  0  0  0  0  0
    7.7114  -15.4395   25.8892 C   0  0  0  0  0  0  0  0  0  0  0  0
    6.3760  -15.7882   25.7194 C   0  0  0  0  0  0  0  0  0  0  0  0
    5.6136  -14.7023   25.9093 N   0  0  0  0  0  0  0  0  0  0  0  0
    6.3748  -13.6491   26.1975 C   0  0  0  0  0  0  0  0  0  0  0  0
    6.1287  -12.3156   26.4913 C   0  0  0  0  0  0  0  0  0  0  0  0
    7.1312  -11.4136   26.7757 C   0  0  0  0  0  0  0  0  0  0  0  0
    8.4334  -11.8481   26.7697 C   0  0  0  0  0  0  0  0  0  0  0  0
    8.6746  -13.1549   26.4813 C   0  0  0  0  0  0  0  0  0  0  0  0
    7.6823  -14.0973   26.1874 C   0  0  0  0  0  0  0  0  0  0  0  0
   10.9742  -16.8832   24.4616 C   0  0  0  0  0  0  0  0  0  0  0  0
   11.0399  -17.6737   23.3301 O   0  0  0  0  0  0  0  0  0  0  0  0
   11.8880  -16.9637   25.3083 O   0  0  0  0  0  0  0  0  0  0  0  0
  2  1  1  1
  2  3  1  0
  4  8  1  0
  4  2  1  0
  5  4  2  0
  7  9  1  0
  7  6  1  1
  7  8  1  0
  9 11  1  0
 10  9  2  0
 11 12  1  0
 12 13  1  1
 13 14  1  0
 14 15  2  0
 16 15  1  0
 17 16  1  0
 18 17  2  0
 19 18  1  0
 20 21  1  0
 20 19  2  0
 21 22  2  0
 22 14  1  0
 22 17  1  0
 23 24  1  0
 23 12  1  0
 25 23  2  0
M  END
$$$$
