AAW.pdb
     RDKit          3D

 25 26  0  0  1  0  0  0  0  0999 V2000
    7.8181  -19.6626   18.8236 C   0  0  0  0  0  0  0  0  0  0  0  0
    8.4637  -19.3659   20.1862 C   0  0  2  0  0  0  0  0  0  0  0  0
    7.5607  -19.8121   21.2182 N   0  0  0  0  0  0  0  0  0  0  0  0
    8.6367  -17.8877   20.3290 C   0  0  0  0  0  0  0  0  0  0  0  0
    9.6483  -17.2933   19.8267 O   0  0  0  0  0  0  0  0  0  0  0  0
    6.4321  -14.9635   21.1747 C   0  0  0  0  0  0  0  0  0  0  0  0
    7.7870  -15.6178   21.0406 C   0  0  2  0  0  0  0  0  0  0  0  0
    7.7135  -17.0537   21.0166 N   0  0  0  0  0  0  0  0  0  0  0  0
    8.6459  -15.0910   22.1055 C   0  0  0  0  0  0  0  0  0  0  0  0
    8.8452  -13.8646   22.1958 O   0  0  0  0  0  0  0  0  0  0  0  0
    9.2421  -15.9731   23.0216 N   0  0  0  0  0  0  0  0  0  0  0  0
   10.0791  -15.5360   24.1480 C   0  0  1  0  0  0  0  0  0  0  0  0
    9.3509  -15.9487   25.3687 C   0  0  0  0  0  0  0  0  0  0  0  0
    8.0303  -15.3942   25.6157 C   0  0  0  0  0  0  0  0  0  0  0  0
    6.7818  -15.9967   25.5072 C   0  0  0  0  0  0  0  0  0  0  0  0
    5.8350  -15.0962   25.8056 N   0  0  0  0  0  0  0  0  0  0  0  0
    6.3911  -13.9253   26.1078 C   0  0  0  0  0  0  0  0  0  0  0  0
    5.9074  -12.6831   26.4929 C   0  0  0  0  0  0  0  0  0  0  0  0
    6.7292  -11.6114   26.7680 C   0  0  0  0  0  0  0  0  0  0  0  0
    8.0878  -11.7741   26.6580 C   0  0  0  0  0  0  0  0  0  0  0  0
    8.5618  -12.9913   26.2801 C   0  0  0  0  0  0  0  0  0  0  0  0
    7.7574  -14.1000   25.9926 C   0  0  0  0  0  0  0  0  0  0  0  0
   11.4239  -16.0647   23.9374 C   0  0  0  0  0  0  0  0  0  0  0  0
   12.4754  -15.6102   24.7102 O   0  0  0  0  0  0  0  0  0  0  0  0
   11.6464  -16.9259   23.0615 O   0  0  0  0  0  0  0  0  0  0  0  0
  2  1  1  6
  2  3  1  0
  4  8  1  0
  4  2  1  0
  5  4  2  0
  7  9  1  0
  7  6  1  1
  7  8  1  0
  9 11  1  0
 10  9  2  0
 11 12  1  0
 12 13  1  1
 13 14  1  0
 14 15  2  0
 16 15  1  0
 17 16  1  0
 18 17  2  0
 19 18  1  0
 20 21  1  0
 20 19  2  0
 21 22  2  0
 22 14  1  0
 22 17  1  0
 23 24  1  0
 23 12  1  0
 25 23  2  0
M  END
$$$$
