AAW.pdb
     RDKit          3D

 25 26  0  0  1  0  0  0  0  0999 V2000
    8.5015  -12.4717   19.4317 C   0  0  0  0  0  0  0  0  0  0  0  0
    7.9639  -13.8734   19.1037 C   0  0  2  0  0  0  0  0  0  0  0  0
    6.5566  -13.7579   18.8109 N   0  0  0  0  0  0  0  0  0  0  0  0
    8.1167  -14.7454   20.3085 C   0  0  0  0  0  0  0  0  0  0  0  0
    7.3410  -14.6182   21.3140 O   0  0  0  0  0  0  0  0  0  0  0  0
    9.9313  -17.9581   21.1374 C   0  0  0  0  0  0  0  0  0  0  0  0
    9.1769  -16.7018   21.5041 C   0  0  2  0  0  0  0  0  0  0  0  0
    9.1107  -15.7551   20.4237 N   0  0  0  0  0  0  0  0  0  0  0  0
    9.7789  -16.1585   22.7254 C   0  0  0  0  0  0  0  0  0  0  0  0
   10.5986  -15.2231   22.6532 O   0  0  0  0  0  0  0  0  0  0  0  0
    9.4284  -16.6961   23.9748 N   0  0  0  0  0  0  0  0  0  0  0  0
    9.9775  -16.2174   25.2516 C   0  0  1  0  0  0  0  0  0  0  0  0
    8.8680  -16.3208   26.2257 C   0  0  0  0  0  0  0  0  0  0  0  0
    7.6693  -15.5286   26.0064 C   0  0  0  0  0  0  0  0  0  0  0  0
    6.4178  -15.9239   25.5471 C   0  0  0  0  0  0  0  0  0  0  0  0
    5.6205  -14.8490   25.4726 N   0  0  0  0  0  0  0  0  0  0  0  0
    6.2788  -13.7589   25.8598 C   0  0  0  0  0  0  0  0  0  0  0  0
    5.9551  -12.4161   25.9919 C   0  0  0  0  0  0  0  0  0  0  0  0
    6.8501  -11.4705   26.4439 C   0  0  0  0  0  0  0  0  0  0  0  0
    8.1201  -11.8689   26.7799 C   0  0  0  0  0  0  0  0  0  0  0  0
    8.4375  -13.1848   26.6500 C   0  0  0  0  0  0  0  0  0  0  0  0
    7.5551  -14.1710   26.1941 C   0  0  0  0  0  0  0  0  0  0  0  0
   11.2015  -16.9668   25.5208 C   0  0  0  0  0  0  0  0  0  0  0  0
   12.0985  -16.5104   26.4678 O   0  0  0  0  0  0  0  0  0  0  0  0
   11.4589  -18.0211   24.9040 O   0  0  0  0  0  0  0  0  0  0  0  0
  2  1  1  1
  2  3  1  0
  4  8  1  0
  4  2  1  0
  5  4  2  0
  7  9  1  0
  7  6  1  6
  7  8  1  0
  9 11  1  0
 10  9  2  0
 11 12  1  0
 12 13  1  1
 13 14  1  0
 14 15  2  0
 16 15  1  0
 17 16  1  0
 18 17  2  0
 19 18  1  0
 20 21  1  0
 20 19  2  0
 21 22  2  0
 22 14  1  0
 22 17  1  0
 23 24  1  0
 23 12  1  0
 25 23  2  0
M  END
$$$$
