AAW.pdb
     RDKit          3D

 25 26  0  0  1  0  0  0  0  0999 V2000
    7.2246  -19.2249   18.5640 C   0  0  0  0  0  0  0  0  0  0  0  0
    7.6674  -19.0493   20.0251 C   0  0  2  0  0  0  0  0  0  0  0  0
    6.4869  -19.0249   20.8528 N   0  0  0  0  0  0  0  0  0  0  0  0
    8.3602  -17.7321   20.1665 C   0  0  0  0  0  0  0  0  0  0  0  0
    9.5313  -17.5516   19.6922 O   0  0  0  0  0  0  0  0  0  0  0  0
    7.3940  -14.1869   20.9272 C   0  0  0  0  0  0  0  0  0  0  0  0
    8.4003  -15.3130   20.8929 C   0  0  2  0  0  0  0  0  0  0  0  0
    7.7839  -16.6103   20.8225 N   0  0  0  0  0  0  0  0  0  0  0  0
    9.2950  -15.1490   22.0426 C   0  0  0  0  0  0  0  0  0  0  0  0
   10.0080  -14.1319   22.1372 O   0  0  0  0  0  0  0  0  0  0  0  0
    9.3448  -16.1417   23.0351 N   0  0  0  0  0  0  0  0  0  0  0  0
   10.1888  -16.0532   24.2353 C   0  0  1  0  0  0  0  0  0  0  0  0
    9.7622  -14.8190   24.9319 C   0  0  0  0  0  0  0  0  0  0  0  0
    8.3774  -14.6996   25.3570 C   0  0  0  0  0  0  0  0  0  0  0  0
    7.3830  -15.6695   25.4197 C   0  0  0  0  0  0  0  0  0  0  0  0
    6.2456  -15.1019   25.8448 N   0  0  0  0  0  0  0  0  0  0  0  0
    6.4338  -13.8034   26.0685 C   0  0  0  0  0  0  0  0  0  0  0  0
    5.6337  -12.7619   26.5163 C   0  0  0  0  0  0  0  0  0  0  0  0
    6.0995  -11.4748   26.6769 C   0  0  0  0  0  0  0  0  0  0  0  0
    7.4129  -11.2048   26.3824 C   0  0  0  0  0  0  0  0  0  0  0  0
    8.1969  -12.2254   25.9431 C   0  0  0  0  0  0  0  0  0  0  0  0
    7.7576  -13.5427   25.7679 C   0  0  0  0  0  0  0  0  0  0  0  0
   10.0804  -17.3205   24.9525 C   0  0  0  0  0  0  0  0  0  0  0  0
   10.9351  -17.5971   26.0026 O   0  0  0  0  0  0  0  0  0  0  0  0
    9.2243  -18.1703   24.6310 O   0  0  0  0  0  0  0  0  0  0  0  0
  2  1  1  6
  2  3  1  0
  4  8  1  0
  4  2  1  0
  5  4  2  0
  7  9  1  0
  7  6  1  1
  7  8  1  0
  9 11  1  0
 10  9  2  0
 11 12  1  0
 12 13  1  1
 13 14  1  0
 14 15  2  0
 16 15  1  0
 17 16  1  0
 18 17  2  0
 19 18  1  0
 20 21  1  0
 20 19  2  0
 21 22  2  0
 22 14  1  0
 22 17  1  0
 23 24  1  0
 23 12  1  0
 25 23  2  0
M  END
$$$$
