AAW.pdb
     RDKit          3D

 25 26  0  0  1  0  0  0  0  0999 V2000
    6.7206  -19.2112   19.1190 C   0  0  0  0  0  0  0  0  0  0  0  0
    7.5516  -19.1408   20.4097 C   0  0  2  0  0  0  0  0  0  0  0  0
    6.6620  -19.3333   21.5282 N   0  0  0  0  0  0  0  0  0  0  0  0
    8.1531  -17.7770   20.5251 C   0  0  0  0  0  0  0  0  0  0  0  0
    9.3000  -17.5207   20.0274 O   0  0  0  0  0  0  0  0  0  0  0  0
    6.8920  -14.3134   21.1951 C   0  0  0  0  0  0  0  0  0  0  0  0
    8.0010  -15.3387   21.1677 C   0  0  2  0  0  0  0  0  0  0  0  0
    7.5116  -16.6908   21.1804 N   0  0  0  0  0  0  0  0  0  0  0  0
    8.9185  -15.0354   22.2701 C   0  0  0  0  0  0  0  0  0  0  0  0
    9.4871  -13.9281   22.3209 O   0  0  0  0  0  0  0  0  0  0  0  0
    9.1534  -15.9967   23.2669 N   0  0  0  0  0  0  0  0  0  0  0  0
   10.0441  -15.7792   24.4159 C   0  0  1  0  0  0  0  0  0  0  0  0
    9.2251  -16.0674   25.6146 C   0  0  0  0  0  0  0  0  0  0  0  0
    7.9383  -15.4067   25.7572 C   0  0  0  0  0  0  0  0  0  0  0  0
    6.6559  -15.9223   25.6053 C   0  0  0  0  0  0  0  0  0  0  0  0
    5.7645  -14.9413   25.8043 N   0  0  0  0  0  0  0  0  0  0  0  0
    6.3896  -13.7994   26.0814 C   0  0  0  0  0  0  0  0  0  0  0  0
    5.9803  -12.5070   26.3771 C   0  0  0  0  0  0  0  0  0  0  0  0
    6.8640  -11.4845   26.6475 C   0  0  0  0  0  0  0  0  0  0  0  0
    8.2106  -11.7505   26.6247 C   0  0  0  0  0  0  0  0  0  0  0  0
    8.6117  -13.0169   26.3344 C   0  0  0  0  0  0  0  0  0  0  0  0
    7.7432  -14.0782   26.0545 C   0  0  0  0  0  0  0  0  0  0  0  0
   11.2521  -16.5710   24.2014 C   0  0  0  0  0  0  0  0  0  0  0  0
   12.3366  -16.4215   25.0445 O   0  0  0  0  0  0  0  0  0  0  0  0
   11.3274  -17.3869   23.2596 O   0  0  0  0  0  0  0  0  0  0  0  0
  2  1  1  6
  2  3  1  0
  4  8  1  0
  4  2  1  0
  5  4  2  0
  7  9  1  0
  7  6  1  1
  7  8  1  0
  9 11  1  0
 10  9  2  0
 11 12  1  0
 12 13  1  1
 13 14  1  0
 14 15  2  0
 16 15  1  0
 17 16  1  0
 18 17  2  0
 19 18  1  0
 20 21  1  0
 20 19  2  0
 21 22  2  0
 22 14  1  0
 22 17  1  0
 23 24  1  0
 23 12  1  0
 25 23  2  0
M  END
$$$$
