AAW.pdb
     RDKit          3D

 25 26  0  0  1  0  0  0  0  0999 V2000
    8.0471  -19.4727   20.9616 C   0  0  0  0  0  0  0  0  0  0  0  0
    7.5265  -18.5116   19.8814 C   0  0  2  0  0  0  0  0  0  0  0  0
    7.9446  -19.0118   18.5952 N   0  0  0  0  0  0  0  0  0  0  0  0
    8.1541  -17.1698   20.0834 C   0  0  0  0  0  0  0  0  0  0  0  0
    9.3708  -16.9586   19.7609 O   0  0  0  0  0  0  0  0  0  0  0  0
    7.0792  -13.6588   21.0071 C   0  0  0  0  0  0  0  0  0  0  0  0
    8.0776  -14.7896   20.9258 C   0  0  2  0  0  0  0  0  0  0  0  0
    7.4632  -16.0568   20.6353 N   0  0  0  0  0  0  0  0  0  0  0  0
    8.8597  -14.7862   22.1658 C   0  0  0  0  0  0  0  0  0  0  0  0
    9.5398  -13.7879   22.4708 O   0  0  0  0  0  0  0  0  0  0  0  0
    8.8392  -15.9110   23.0067 N   0  0  0  0  0  0  0  0  0  0  0  0
    9.6235  -16.0176   24.2454 C   0  0  1  0  0  0  0  0  0  0  0  0
    8.6439  -16.3244   25.3116 C   0  0  0  0  0  0  0  0  0  0  0  0
    7.5712  -15.3779   25.5686 C   0  0  0  0  0  0  0  0  0  0  0  0
    6.1949  -15.5502   25.4697 C   0  0  0  0  0  0  0  0  0  0  0  0
    5.5873  -14.3952   25.7751 N   0  0  0  0  0  0  0  0  0  0  0  0
    6.4902  -13.4638   26.0729 C   0  0  0  0  0  0  0  0  0  0  0  0
    6.4311  -12.1331   26.4614 C   0  0  0  0  0  0  0  0  0  0  0  0
    7.5539  -11.3803   26.7301 C   0  0  0  0  0  0  0  0  0  0  0  0
    8.7888  -11.9679   26.6097 C   0  0  0  0  0  0  0  0  0  0  0  0
    8.8467  -13.2719   26.2285 C   0  0  0  0  0  0  0  0  0  0  0  0
    7.7284  -14.0652   25.9473 C   0  0  0  0  0  0  0  0  0  0  0  0
   10.7046  -16.9703   24.0095 C   0  0  0  0  0  0  0  0  0  0  0  0
   11.7114  -17.1203   24.9440 O   0  0  0  0  0  0  0  0  0  0  0  0
   10.7404  -17.6574   22.9678 O   0  0  0  0  0  0  0  0  0  0  0  0
  2  1  1  1
  2  3  1  0
  4  8  1  0
  4  2  1  0
  5  4  2  0
  7  9  1  0
  7  6  1  1
  7  8  1  0
  9 11  1  0
 10  9  2  0
 11 12  1  0
 12 13  1  1
 13 14  1  0
 14 15  2  0
 16 15  1  0
 17 16  1  0
 18 17  2  0
 19 18  1  0
 20 21  1  0
 20 19  2  0
 21 22  2  0
 22 14  1  0
 22 17  1  0
 23 24  1  0
 23 12  1  0
 25 23  2  0
M  END
$$$$
