KCN.pdb
     RDKit          3D

 24 23  0  0  1  0  0  0  0  0999 V2000
   28.1111  -21.9333  -15.7738 N   0  0  0  0  0  0  0  0  0  0  0  0
   27.1380  -20.8181  -15.6737 C   0  0  1  0  0  0  0  0  0  0  0  0
   26.6126  -20.6830  -17.0860 C   0  0  0  0  0  0  0  0  0  0  0  0
   27.6373  -20.3888  -18.1211 C   0  0  0  0  0  0  0  0  0  0  0  0
   27.8641  -18.8848  -18.2208 C   0  0  0  0  0  0  0  0  0  0  0  0
   28.9312  -18.5259  -19.2223 C   0  0  0  0  0  0  0  0  0  0  0  0
   29.1502  -17.0776  -19.0668 N   0  0  0  0  0  0  0  0  0  0  0  0
   26.1227  -21.2393  -14.6889 C   0  0  0  0  0  0  0  0  0  0  0  0
   25.1154  -21.9248  -15.0768 O   0  0  0  0  0  0  0  0  0  0  0  0
   26.1368  -20.9609  -13.3014 N   0  0  0  0  0  0  0  0  0  0  0  0
   25.0433  -21.3148  -12.4144 C   0  0  1  0  0  0  0  0  0  0  0  0
   25.5675  -21.0990  -11.0000 C   0  0  0  0  0  0  0  0  0  0  0  0
   27.2155  -21.8300  -10.8074 S   0  0  0  0  0  0  0  0  0  0  0  0
   23.8511  -20.4857  -12.6235 C   0  0  0  0  0  0  0  0  0  0  0  0
   23.9494  -19.2592  -12.9112 O   0  0  0  0  0  0  0  0  0  0  0  0
   19.4687  -20.1767  -15.5531 N   0  0  0  0  0  0  0  0  0  0  0  0
   20.7504  -20.7026  -15.8328 C   0  0  0  0  0  0  0  0  0  0  0  0
   20.9633  -20.9500  -17.0738 O   0  0  0  0  0  0  0  0  0  0  0  0
   21.8195  -20.9800  -14.8640 C   0  0  0  0  0  0  0  0  0  0  0  0
   21.4734  -20.7140  -13.4255 C   0  0  2  0  0  0  0  0  0  0  0  0
   22.5554  -21.0593  -12.5034 N   0  0  0  0  0  0  0  0  0  0  0  0
   20.2849  -21.5189  -13.0640 C   0  0  0  0  0  0  0  0  0  0  0  0
   19.1896  -20.9651  -12.7578 O   0  0  0  0  0  0  0  0  0  0  0  0
   20.3867  -22.9223  -13.0643 O   0  0  0  0  0  0  0  0  0  0  0  0
  2  1  1  6
  3  2  1  0
  4  3  1  0
  5  4  1  0
  6  5  1  0
  7  6  1  0
  8  2  1  0
  8  9  2  0
 10  8  1  0
 11 10  1  0
 11 12  1  1
 13 12  1  0
 14 11  1  0
 15 14  2  0
 16 17  1  0
 17 19  1  0
 17 18  2  0
 20 19  1  6
 20 22  1  0
 20 21  1  0
 21 14  1  0
 22 24  1  0
 23 22  2  0
M  END
$$$$
