KCN.pdb
     RDKit          3D

 24 23  0  0  1  0  0  0  0  0999 V2000
   28.1922  -20.5218  -17.8947 N   0  0  0  0  0  0  0  0  0  0  0  0
   27.9249  -19.6021  -16.7619 C   0  0  1  0  0  0  0  0  0  0  0  0
   26.5998  -18.9704  -17.1278 C   0  0  0  0  0  0  0  0  0  0  0  0
   26.5499  -18.3247  -18.4651 C   0  0  0  0  0  0  0  0  0  0  0  0
   26.5385  -16.8080  -18.3142 C   0  0  0  0  0  0  0  0  0  0  0  0
   26.5598  -16.0945  -19.6412 C   0  0  0  0  0  0  0  0  0  0  0  0
   26.6325  -14.6591  -19.3186 N   0  0  0  0  0  0  0  0  0  0  0  0
   27.8802  -20.4399  -15.5477 C   0  0  0  0  0  0  0  0  0  0  0  0
   27.1190  -21.4668  -15.5189 O   0  0  0  0  0  0  0  0  0  0  0  0
   28.6176  -20.2293  -14.3582 N   0  0  0  0  0  0  0  0  0  0  0  0
   28.2961  -20.8856  -13.1038 C   0  0  1  0  0  0  0  0  0  0  0  0
   29.4719  -20.6083  -12.1751 C   0  0  0  0  0  0  0  0  0  0  0  0
   29.1370  -21.2395  -10.5088 S   0  0  0  0  0  0  0  0  0  0  0  0
   27.0634  -20.3740  -12.4946 C   0  0  0  0  0  0  0  0  0  0  0  0
   26.8500  -19.1326  -12.3933 O   0  0  0  0  0  0  0  0  0  0  0  0
   21.4004  -20.2474  -11.6384 N   0  0  0  0  0  0  0  0  0  0  0  0
   22.3835  -21.1260  -11.1297 C   0  0  0  0  0  0  0  0  0  0  0  0
   22.1225  -21.5975   -9.9651 O   0  0  0  0  0  0  0  0  0  0  0  0
   23.6306  -21.5314  -11.7923 C   0  0  0  0  0  0  0  0  0  0  0  0
   24.8686  -20.8107  -11.3367 C   0  0  2  0  0  0  0  0  0  0  0  0
   26.0824  -21.2796  -12.0053 N   0  0  0  0  0  0  0  0  0  0  0  0
   25.0339  -21.0200   -9.8806 C   0  0  0  0  0  0  0  0  0  0  0  0
   25.7873  -21.9326   -9.4334 O   0  0  0  0  0  0  0  0  0  0  0  0
   24.3368  -20.1845   -8.9886 O   0  0  0  0  0  0  0  0  0  0  0  0
  2  1  1  6
  3  2  1  0
  4  3  1  0
  5  4  1  0
  6  5  1  0
  7  6  1  0
  8  2  1  0
  8  9  2  0
 10  8  1  0
 11 10  1  0
 11 12  1  1
 13 12  1  0
 14 11  1  0
 15 14  2  0
 16 17  1  0
 17 19  1  0
 17 18  2  0
 20 19  1  6
 20 22  1  0
 20 21  1  0
 21 14  1  0
 22 24  1  0
 23 22  2  0
M  END
$$$$
