KCN.pdb
     RDKit          3D

 24 23  0  0  1  0  0  0  0  0999 V2000
   17.2162  -11.2628  -13.3397 N   0  0  0  0  0  0  0  0  0  0  0  0
   16.8504  -10.2360  -14.3459 C   0  0  1  0  0  0  0  0  0  0  0  0
   15.4862  -10.6828  -14.8234 C   0  0  0  0  0  0  0  0  0  0  0  0
   15.3048  -12.1524  -14.9474 C   0  0  0  0  0  0  0  0  0  0  0  0
   14.3655  -12.6578  -13.8585 C   0  0  0  0  0  0  0  0  0  0  0  0
   14.0231  -14.1162  -14.0211 C   0  0  0  0  0  0  0  0  0  0  0  0
   13.1010  -14.1816  -15.1678 N   0  0  0  0  0  0  0  0  0  0  0  0
   16.8485   -8.9414  -13.6373 C   0  0  0  0  0  0  0  0  0  0  0  0
   16.4728   -7.8863  -14.2542 O   0  0  0  0  0  0  0  0  0  0  0  0
   17.2300   -8.7233  -12.2920 N   0  0  0  0  0  0  0  0  0  0  0  0
   17.3202   -7.3999  -11.7019 C   0  0  1  0  0  0  0  0  0  0  0  0
   17.2180   -7.6074  -10.1958 C   0  0  0  0  0  0  0  0  0  0  0  0
   17.7102   -6.1064   -9.3059 S   0  0  0  0  0  0  0  0  0  0  0  0
   18.5836   -6.7231  -12.0154 C   0  0  0  0  0  0  0  0  0  0  0  0
   19.6961   -7.2439  -11.7189 O   0  0  0  0  0  0  0  0  0  0  0  0
   22.9434   -4.8669  -14.5477 N   0  0  0  0  0  0  0  0  0  0  0  0
   21.5786   -4.6474  -14.8420 C   0  0  0  0  0  0  0  0  0  0  0  0
   21.3619   -3.6988  -15.6784 O   0  0  0  0  0  0  0  0  0  0  0  0
   20.4302   -5.3826  -14.2950 C   0  0  0  0  0  0  0  0  0  0  0  0
   19.8080   -4.7862  -13.0633 C   0  0  2  0  0  0  0  0  0  0  0  0
   18.5712   -5.4580  -12.6646 N   0  0  0  0  0  0  0  0  0  0  0  0
   19.4958   -3.3636  -13.3275 C   0  0  0  0  0  0  0  0  0  0  0  0
   20.3965   -2.4768  -13.2760 O   0  0  0  0  0  0  0  0  0  0  0  0
   18.1721   -3.0032  -13.6402 O   0  0  0  0  0  0  0  0  0  0  0  0
  2  1  1  1
  3  2  1  0
  4  3  1  0
  5  4  1  0
  6  5  1  0
  7  6  1  0
  8  2  1  0
  8  9  2  0
 10  8  1  0
 11 10  1  0
 11 12  1  1
 13 12  1  0
 14 11  1  0
 15 14  2  0
 16 17  1  0
 17 19  1  0
 17 18  2  0
 20 19  1  6
 20 22  1  0
 20 21  1  0
 21 14  1  0
 22 24  1  0
 23 22  2  0
M  END
$$$$
