KCN.pdb
     RDKit          3D

 24 23  0  0  1  0  0  0  0  0999 V2000
   27.9295  -22.7588  -16.6671 N   0  0  0  0  0  0  0  0  0  0  0  0
   27.5530  -21.4575  -16.0625 C   0  0  1  0  0  0  0  0  0  0  0  0
   26.8558  -20.7338  -17.1934 C   0  0  0  0  0  0  0  0  0  0  0  0
   27.7417  -20.2606  -18.2884 C   0  0  0  0  0  0  0  0  0  0  0  0
   28.6025  -19.1007  -17.8014 C   0  0  0  0  0  0  0  0  0  0  0  0
   29.5066  -18.5593  -18.8785 C   0  0  0  0  0  0  0  0  0  0  0  0
   30.3877  -17.5891  -18.2061 N   0  0  0  0  0  0  0  0  0  0  0  0
   26.6790  -21.7694  -14.9149 C   0  0  0  0  0  0  0  0  0  0  0  0
   25.8220  -22.7132  -15.0143 O   0  0  0  0  0  0  0  0  0  0  0  0
   26.6814  -21.1162  -13.6594 N   0  0  0  0  0  0  0  0  0  0  0  0
   25.6477  -21.3217  -12.6610 C   0  0  1  0  0  0  0  0  0  0  0  0
   26.1688  -20.6762  -11.3828 C   0  0  0  0  0  0  0  0  0  0  0  0
   24.9070  -20.7182  -10.0816 S   0  0  0  0  0  0  0  0  0  0  0  0
   24.3693  -20.7048  -13.0317 C   0  0  0  0  0  0  0  0  0  0  0  0
   24.2922  -19.4739  -13.3072 O   0  0  0  0  0  0  0  0  0  0  0  0
   20.8712  -19.5251  -15.8520 N   0  0  0  0  0  0  0  0  0  0  0  0
   20.7278  -20.9174  -15.6566 C   0  0  0  0  0  0  0  0  0  0  0  0
   20.1604  -21.5341  -16.6284 O   0  0  0  0  0  0  0  0  0  0  0  0
   21.1555  -21.6910  -14.4831 C   0  0  0  0  0  0  0  0  0  0  0  0
   21.8896  -20.9120  -13.4277 C   0  0  2  0  0  0  0  0  0  0  0  0
   23.1876  -21.4939  -13.0861 N   0  0  0  0  0  0  0  0  0  0  0  0
   21.0630  -20.8756  -12.2002 C   0  0  0  0  0  0  0  0  0  0  0  0
   20.5002  -19.8072  -11.8233 O   0  0  0  0  0  0  0  0  0  0  0  0
   20.9077  -22.0546  -11.4481 O   0  0  0  0  0  0  0  0  0  0  0  0
  2  1  1  6
  3  2  1  0
  4  3  1  0
  5  4  1  0
  6  5  1  0
  7  6  1  0
  8  2  1  0
  8  9  2  0
 10  8  1  0
 11 10  1  0
 11 12  1  1
 13 12  1  0
 14 11  1  0
 15 14  2  0
 16 17  1  0
 17 19  1  0
 17 18  2  0
 20 19  1  6
 20 22  1  0
 20 21  1  0
 21 14  1  0
 22 24  1  0
 23 22  2  0
M  END
$$$$
