KCN.pdb
     RDKit          3D

 24 23  0  0  1  0  0  0  0  0999 V2000
   29.9003  -27.3886  -17.8303 N   0  0  0  0  0  0  0  0  0  0  0  0
   28.5476  -27.8167  -17.3973 C   0  0  1  0  0  0  0  0  0  0  0  0
   28.8314  -28.8315  -16.3118 C   0  0  0  0  0  0  0  0  0  0  0  0
   29.2883  -30.1626  -16.7884 C   0  0  0  0  0  0  0  0  0  0  0  0
   28.1407  -30.8961  -17.4727 C   0  0  0  0  0  0  0  0  0  0  0  0
   27.2819  -31.6622  -16.4999 C   0  0  0  0  0  0  0  0  0  0  0  0
   27.9528  -32.9605  -16.3159 N   0  0  0  0  0  0  0  0  0  0  0  0
   27.8587  -26.6008  -16.9228 C   0  0  0  0  0  0  0  0  0  0  0  0
   28.2559  -26.0302  -15.8497 O   0  0  0  0  0  0  0  0  0  0  0  0
   26.7604  -25.9635  -17.5478 N   0  0  0  0  0  0  0  0  0  0  0  0
   26.1594  -24.7450  -17.0362 C   0  0  1  0  0  0  0  0  0  0  0  0
   26.6257  -23.6293  -17.9634 C   0  0  0  0  0  0  0  0  0  0  0  0
   27.5762  -22.3872  -17.0463 S   0  0  0  0  0  0  0  0  0  0  0  0
   24.6932  -24.7933  -17.0316 C   0  0  0  0  0  0  0  0  0  0  0  0
   24.0563  -25.4191  -17.9258 O   0  0  0  0  0  0  0  0  0  0  0  0
   19.5537  -23.9342  -15.6411 N   0  0  0  0  0  0  0  0  0  0  0  0
   20.4624  -23.6514  -14.5963 C   0  0  0  0  0  0  0  0  0  0  0  0
   19.9089  -23.3445  -13.4800 O   0  0  0  0  0  0  0  0  0  0  0  0
   21.9293  -23.6775  -14.6734 C   0  0  0  0  0  0  0  0  0  0  0  0
   22.4996  -24.1153  -15.9936 C   0  0  2  0  0  0  0  0  0  0  0  0
   23.9624  -24.1287  -16.0087 N   0  0  0  0  0  0  0  0  0  0  0  0
   22.0360  -23.1834  -17.0461 C   0  0  0  0  0  0  0  0  0  0  0  0
   22.5243  -22.0211  -17.1505 O   0  0  0  0  0  0  0  0  0  0  0  0
   21.0354  -23.6079  -17.9395 O   0  0  0  0  0  0  0  0  0  0  0  0
  2  1  1  1
  3  2  1  0
  4  3  1  0
  5  4  1  0
  6  5  1  0
  7  6  1  0
  8  2  1  0
  8  9  2  0
 10  8  1  0
 11 10  1  0
 11 12  1  6
 13 12  1  0
 14 11  1  0
 15 14  2  0
 16 17  1  0
 17 19  1  0
 17 18  2  0
 20 19  1  1
 20 22  1  0
 20 21  1  0
 21 14  1  0
 22 24  1  0
 23 22  2  0
M  END
$$$$
