KCN.pdb
     RDKit          3D

 24 23  0  0  1  0  0  0  0  0999 V2000
   15.7361  -10.8409  -14.5911 N   0  0  0  0  0  0  0  0  0  0  0  0
   16.3409   -9.9871  -15.6426 C   0  0  1  0  0  0  0  0  0  0  0  0
   15.1992   -9.7580  -16.6083 C   0  0  0  0  0  0  0  0  0  0  0  0
   14.7013  -10.9723  -17.3051 C   0  0  0  0  0  0  0  0  0  0  0  0
   15.6313  -11.3332  -18.4576 C   0  0  0  0  0  0  0  0  0  0  0  0
   15.1204  -12.4939  -19.2714 C   0  0  0  0  0  0  0  0  0  0  0  0
   16.1233  -12.7089  -20.3286 N   0  0  0  0  0  0  0  0  0  0  0  0
   16.8135   -8.7643  -14.9646 C   0  0  0  0  0  0  0  0  0  0  0  0
   15.9905   -7.8126  -14.7367 O   0  0  0  0  0  0  0  0  0  0  0  0
   18.1318   -8.5128  -14.5154 N   0  0  0  0  0  0  0  0  0  0  0  0
   18.5102   -7.2953  -13.8211 C   0  0  1  0  0  0  0  0  0  0  0  0
   18.8300   -7.7133  -12.3912 C   0  0  0  0  0  0  0  0  0  0  0  0
   20.1623   -8.9428  -12.3642 S   0  0  0  0  0  0  0  0  0  0  0  0
   19.6850   -6.6457  -14.4128 C   0  0  0  0  0  0  0  0  0  0  0  0
   20.4839   -7.2868  -15.1528 O   0  0  0  0  0  0  0  0  0  0  0  0
   23.2006   -2.8453  -15.9181 N   0  0  0  0  0  0  0  0  0  0  0  0
   21.9119   -2.3563  -15.6057 C   0  0  0  0  0  0  0  0  0  0  0  0
   21.7385   -1.1121  -15.8674 O   0  0  0  0  0  0  0  0  0  0  0  0
   20.7960   -3.1189  -15.0299 C   0  0  0  0  0  0  0  0  0  0  0  0
   21.0731   -4.5733  -14.7694 C   0  0  2  0  0  0  0  0  0  0  0  0
   19.9419   -5.2706  -14.1575 N   0  0  0  0  0  0  0  0  0  0  0  0
   22.2314   -4.6817  -13.8542 C   0  0  0  0  0  0  0  0  0  0  0  0
   22.1040   -4.4770  -12.6124 O   0  0  0  0  0  0  0  0  0  0  0  0
   23.4901   -5.0185  -14.3852 O   0  0  0  0  0  0  0  0  0  0  0  0
  2  1  1  1
  3  2  1  0
  4  3  1  0
  5  4  1  0
  6  5  1  0
  7  6  1  0
  8  2  1  0
  8  9  2  0
 10  8  1  0
 11 10  1  0
 11 12  1  1
 13 12  1  0
 14 11  1  0
 15 14  2  0
 16 17  1  0
 17 19  1  0
 17 18  2  0
 20 19  1  1
 20 22  1  0
 20 21  1  0
 21 14  1  0
 22 24  1  0
 23 22  2  0
M  END
$$$$
