KCN.pdb
     RDKit          3D

 24 23  0  0  1  0  0  0  0  0999 V2000
   27.4916  -19.0031  -14.6589 N   0  0  0  0  0  0  0  0  0  0  0  0
   27.0382  -20.2864  -15.2491 C   0  0  1  0  0  0  0  0  0  0  0  0
   28.3222  -21.0687  -15.4165 C   0  0  0  0  0  0  0  0  0  0  0  0
   29.2278  -20.5837  -16.4901 C   0  0  0  0  0  0  0  0  0  0  0  0
   28.4787  -20.5148  -17.8158 C   0  0  0  0  0  0  0  0  0  0  0  0
   29.3685  -20.1110  -18.9628 C   0  0  0  0  0  0  0  0  0  0  0  0
   28.4934  -20.0654  -20.1467 N   0  0  0  0  0  0  0  0  0  0  0  0
   26.0922  -20.8773  -14.2827 C   0  0  0  0  0  0  0  0  0  0  0  0
   25.6196  -22.0458  -14.4982 O   0  0  0  0  0  0  0  0  0  0  0  0
   25.6280  -20.2734  -13.0899 N   0  0  0  0  0  0  0  0  0  0  0  0
   24.6566  -20.9023  -12.2132 C   0  0  1  0  0  0  0  0  0  0  0  0
   24.8422  -20.2492  -10.8491 C   0  0  0  0  0  0  0  0  0  0  0  0
   25.9545  -21.2353   -9.8110 S   0  0  0  0  0  0  0  0  0  0  0  0
   23.2741  -20.7055  -12.6631 C   0  0  0  0  0  0  0  0  0  0  0  0
   22.8368  -19.5551  -12.9497 O   0  0  0  0  0  0  0  0  0  0  0  0
   18.3637  -23.4684  -14.9854 N   0  0  0  0  0  0  0  0  0  0  0  0
   18.8961  -22.8887  -13.8116 C   0  0  0  0  0  0  0  0  0  0  0  0
   18.0469  -22.2248  -13.1153 O   0  0  0  0  0  0  0  0  0  0  0  0
   20.2836  -22.9766  -13.3369 C   0  0  0  0  0  0  0  0  0  0  0  0
   21.0339  -21.6749  -13.2879 C   0  0  2  0  0  0  0  0  0  0  0  0
   22.3994  -21.8202  -12.7837 N   0  0  0  0  0  0  0  0  0  0  0  0
   20.3101  -20.7404  -12.3967 C   0  0  0  0  0  0  0  0  0  0  0  0
   19.5821  -19.8198  -12.8686 O   0  0  0  0  0  0  0  0  0  0  0  0
   20.4414  -20.8879  -11.0036 O   0  0  0  0  0  0  0  0  0  0  0  0
  2  1  1  1
  3  2  1  0
  4  3  1  0
  5  4  1  0
  6  5  1  0
  7  6  1  0
  8  2  1  0
  8  9  2  0
 10  8  1  0
 11 10  1  0
 11 12  1  1
 13 12  1  0
 14 11  1  0
 15 14  2  0
 16 17  1  0
 17 19  1  0
 17 18  2  0
 20 19  1  1
 20 22  1  0
 20 21  1  0
 21 14  1  0
 22 24  1  0
 23 22  2  0
M  END
$$$$
