KCN.pdb
     RDKit          3D

 24 23  0  0  1  0  0  0  0  0999 V2000
   19.0027  -23.3066  -15.0011 N   0  0  0  0  0  0  0  0  0  0  0  0
   19.8388  -24.0475  -14.0252 C   0  0  1  0  0  0  0  0  0  0  0  0
   21.2510  -23.7735  -14.4934 C   0  0  0  0  0  0  0  0  0  0  0  0
   21.6751  -24.5183  -15.7072 C   0  0  0  0  0  0  0  0  0  0  0  0
   21.7848  -26.0066  -15.3967 C   0  0  0  0  0  0  0  0  0  0  0  0
   22.2583  -26.8109  -16.5797 C   0  0  0  0  0  0  0  0  0  0  0  0
   22.3655  -28.1988  -16.0982 N   0  0  0  0  0  0  0  0  0  0  0  0
   19.5230  -23.4869  -12.6969 C   0  0  0  0  0  0  0  0  0  0  0  0
   19.8620  -22.2846  -12.4241 O   0  0  0  0  0  0  0  0  0  0  0  0
   18.8563  -24.1563  -11.6431 N   0  0  0  0  0  0  0  0  0  0  0  0
   18.5485  -23.5210  -10.3745 C   0  0  1  0  0  0  0  0  0  0  0  0
   17.5591  -22.4075  -10.6954 C   0  0  0  0  0  0  0  0  0  0  0  0
   16.9575  -21.6249   -9.1745 S   0  0  0  0  0  0  0  0  0  0  0  0
   17.9448  -24.4451   -9.4082 C   0  0  0  0  0  0  0  0  0  0  0  0
   16.9375  -25.1446   -9.7130 O   0  0  0  0  0  0  0  0  0  0  0  0
   17.9009  -26.2239   -3.5055 N   0  0  0  0  0  0  0  0  0  0  0  0
   18.2391  -26.5169   -4.8460 C   0  0  0  0  0  0  0  0  0  0  0  0
   18.0793  -27.7462   -5.1773 O   0  0  0  0  0  0  0  0  0  0  0  0
   18.7385  -25.5730   -5.8551 C   0  0  0  0  0  0  0  0  0  0  0  0
   17.9066  -25.4596   -7.1021 C   0  0  2  0  0  0  0  0  0  0  0  0
   18.4925  -24.5663   -8.1015 N   0  0  0  0  0  0  0  0  0  0  0  0
   16.5718  -24.9330   -6.7388 C   0  0  0  0  0  0  0  0  0  0  0  0
   15.6428  -25.7076   -6.3683 O   0  0  0  0  0  0  0  0  0  0  0  0
   16.3437  -23.5464   -6.8103 O   0  0  0  0  0  0  0  0  0  0  0  0
  2  1  1  6
  3  2  1  0
  4  3  1  0
  5  4  1  0
  6  5  1  0
  7  6  1  0
  8  2  1  0
  8  9  2  0
 10  8  1  0
 11 10  1  0
 11 12  1  6
 13 12  1  0
 14 11  1  0
 15 14  2  0
 16 17  1  0
 17 19  1  0
 17 18  2  0
 20 19  1  1
 20 22  1  0
 20 21  1  0
 21 14  1  0
 22 24  1  0
 23 22  2  0
M  END
$$$$
