KCN.pdb
     RDKit          3D

 24 23  0  0  1  0  0  0  0  0999 V2000
   28.1359  -18.1482  -15.2385 N   0  0  0  0  0  0  0  0  0  0  0  0
   27.1477  -18.7900  -16.1396 C   0  0  1  0  0  0  0  0  0  0  0  0
   27.9930  -19.2827  -17.2935 C   0  0  0  0  0  0  0  0  0  0  0  0
   29.1870  -18.4556  -17.6066 C   0  0  0  0  0  0  0  0  0  0  0  0
   28.9417  -17.6390  -18.8701 C   0  0  0  0  0  0  0  0  0  0  0  0
   30.1392  -16.8155  -19.2682 C   0  0  0  0  0  0  0  0  0  0  0  0
   29.7340  -16.0879  -20.4831 N   0  0  0  0  0  0  0  0  0  0  0  0
   26.5078  -19.8652  -15.3569 C   0  0  0  0  0  0  0  0  0  0  0  0
   25.8171  -20.7569  -15.9591 O   0  0  0  0  0  0  0  0  0  0  0  0
   26.5752  -20.0319  -13.9531 N   0  0  0  0  0  0  0  0  0  0  0  0
   25.6352  -20.8513  -13.2097 C   0  0  1  0  0  0  0  0  0  0  0  0
   26.2838  -21.1038  -11.8542 C   0  0  0  0  0  0  0  0  0  0  0  0
   28.0657  -21.3842  -12.0371 S   0  0  0  0  0  0  0  0  0  0  0  0
   24.3388  -20.1931  -13.0140 C   0  0  0  0  0  0  0  0  0  0  0  0
   24.2621  -18.9511  -12.7936 O   0  0  0  0  0  0  0  0  0  0  0  0
   19.9573  -17.8676  -15.0566 N   0  0  0  0  0  0  0  0  0  0  0  0
   20.3805  -19.2156  -15.0236 C   0  0  0  0  0  0  0  0  0  0  0  0
   19.4731  -20.0648  -15.3430 O   0  0  0  0  0  0  0  0  0  0  0  0
   21.7176  -19.7107  -14.6694 C   0  0  0  0  0  0  0  0  0  0  0  0
   21.8390  -20.3232  -13.3020 C   0  0  2  0  0  0  0  0  0  0  0  0
   23.1386  -20.9537  -13.0708 N   0  0  0  0  0  0  0  0  0  0  0  0
   20.7908  -21.3570  -13.1476 C   0  0  0  0  0  0  0  0  0  0  0  0
   19.6382  -21.0595  -12.7196 O   0  0  0  0  0  0  0  0  0  0  0  0
   21.0926  -22.6891  -13.4854 O   0  0  0  0  0  0  0  0  0  0  0  0
  2  1  1  1
  3  2  1  0
  4  3  1  0
  5  4  1  0
  6  5  1  0
  7  6  1  0
  8  2  1  0
  8  9  2  0
 10  8  1  0
 11 10  1  0
 11 12  1  1
 13 12  1  0
 14 11  1  0
 15 14  2  0
 16 17  1  0
 17 19  1  0
 17 18  2  0
 20 19  1  6
 20 22  1  0
 20 21  1  0
 21 14  1  0
 22 24  1  0
 23 22  2  0
M  END
$$$$
