KCN.pdb
     RDKit          3D

 24 23  0  0  1  0  0  0  0  0999 V2000
   24.0837  -20.0464  -17.4708 N   0  0  0  0  0  0  0  0  0  0  0  0
   24.0981  -20.1463  -15.9908 C   0  0  1  0  0  0  0  0  0  0  0  0
   25.2475  -21.0901  -15.7138 C   0  0  0  0  0  0  0  0  0  0  0  0
   25.1692  -22.4068  -16.3979 C   0  0  0  0  0  0  0  0  0  0  0  0
   26.2078  -23.3604  -15.8188 C   0  0  0  0  0  0  0  0  0  0  0  0
   26.3189  -24.6412  -16.6048 C   0  0  0  0  0  0  0  0  0  0  0  0
   27.4235  -25.3926  -15.9843 N   0  0  0  0  0  0  0  0  0  0  0  0
   24.3056  -18.7760  -15.4835 C   0  0  0  0  0  0  0  0  0  0  0  0
   24.1776  -18.5413  -14.2331 O   0  0  0  0  0  0  0  0  0  0  0  0
   24.6473  -17.6405  -16.2561 N   0  0  0  0  0  0  0  0  0  0  0  0
   24.8415  -16.3226  -15.6789 C   0  0  1  0  0  0  0  0  0  0  0  0
   26.2947  -15.9567  -15.9553 C   0  0  0  0  0  0  0  0  0  0  0  0
   27.4146  -16.9795  -14.9618 S   0  0  0  0  0  0  0  0  0  0  0  0
   23.9629  -15.3079  -16.2712 C   0  0  0  0  0  0  0  0  0  0  0  0
   23.6425  -15.3524  -17.4927 O   0  0  0  0  0  0  0  0  0  0  0  0
   20.5083  -11.1935  -16.7249 N   0  0  0  0  0  0  0  0  0  0  0  0
   21.0449  -11.3069  -15.4224 C   0  0  0  0  0  0  0  0  0  0  0  0
   20.6132  -10.4288  -14.5922 O   0  0  0  0  0  0  0  0  0  0  0  0
   22.0164  -12.3044  -14.9536 C   0  0  0  0  0  0  0  0  0  0  0  0
   22.4966  -13.2778  -15.9936 C   0  0  2  0  0  0  0  0  0  0  0  0
   23.4553  -14.2498  -15.4682 N   0  0  0  0  0  0  0  0  0  0  0  0
   23.1547  -12.5242  -17.0846 C   0  0  0  0  0  0  0  0  0  0  0  0
   22.5312  -12.2339  -18.1463 O   0  0  0  0  0  0  0  0  0  0  0  0
   24.4960  -12.1294  -16.9272 O   0  0  0  0  0  0  0  0  0  0  0  0
  2  1  1  6
  3  2  1  0
  4  3  1  0
  5  4  1  0
  6  5  1  0
  7  6  1  0
  8  2  1  0
  8  9  2  0
 10  8  1  0
 11 10  1  0
 11 12  1  6
 13 12  1  0
 14 11  1  0
 15 14  2  0
 16 17  1  0
 17 19  1  0
 17 18  2  0
 20 19  1  1
 20 22  1  0
 20 21  1  0
 21 14  1  0
 22 24  1  0
 23 22  2  0
M  END
$$$$
