KCN.pdb
     RDKit          3D

 24 23  0  0  1  0  0  0  0  0999 V2000
   24.3360  -21.0750  -15.7029 N   0  0  0  0  0  0  0  0  0  0  0  0
   24.9845  -21.2343  -14.3783 C   0  0  1  0  0  0  0  0  0  0  0  0
   26.0957  -20.2081  -14.4060 C   0  0  0  0  0  0  0  0  0  0  0  0
   26.8528  -20.1236  -15.6817 C   0  0  0  0  0  0  0  0  0  0  0  0
   27.2713  -21.5173  -16.1356 C   0  0  0  0  0  0  0  0  0  0  0  0
   28.6789  -21.5524  -16.6724 C   0  0  0  0  0  0  0  0  0  0  0  0
   28.9014  -22.9408  -17.1113 N   0  0  0  0  0  0  0  0  0  0  0  0
   23.9408  -20.9678  -13.3695 C   0  0  0  0  0  0  0  0  0  0  0  0
   24.2656  -20.8776  -12.1361 O   0  0  0  0  0  0  0  0  0  0  0  0
   22.5594  -20.7906  -13.6214 N   0  0  0  0  0  0  0  0  0  0  0  0
   21.5865  -20.5724  -12.5661 C   0  0  1  0  0  0  0  0  0  0  0  0
   21.1457  -19.1199  -12.6998 C   0  0  0  0  0  0  0  0  0  0  0  0
   20.1229  -18.6265  -11.2864 S   0  0  0  0  0  0  0  0  0  0  0  0
   20.4160  -21.4491  -12.6825 C   0  0  0  0  0  0  0  0  0  0  0  0
   19.9032  -21.7101  -13.8076 O   0  0  0  0  0  0  0  0  0  0  0  0
   19.4739  -25.5697   -9.0332 N   0  0  0  0  0  0  0  0  0  0  0  0
   18.9341  -24.9634  -10.1901 C   0  0  0  0  0  0  0  0  0  0  0  0
   18.9468  -25.7084  -11.2348 O   0  0  0  0  0  0  0  0  0  0  0  0
   18.3807  -23.6067  -10.2971 C   0  0  0  0  0  0  0  0  0  0  0  0
   18.6641  -22.8929  -11.5894 C   0  0  2  0  0  0  0  0  0  0  0  0
   19.8376  -22.0225  -11.5168 N   0  0  0  0  0  0  0  0  0  0  0  0
   17.4924  -22.0592  -11.9407 C   0  0  0  0  0  0  0  0  0  0  0  0
   17.5626  -20.7962  -11.9291 O   0  0  0  0  0  0  0  0  0  0  0  0
   16.2861  -22.6926  -12.2916 O   0  0  0  0  0  0  0  0  0  0  0  0
  2  1  1  6
  3  2  1  0
  4  3  1  0
  5  4  1  0
  6  5  1  0
  7  6  1  0
  8  2  1  0
  8  9  2  0
 10  8  1  0
 11 10  1  0
 11 12  1  6
 13 12  1  0
 14 11  1  0
 15 14  2  0
 16 17  1  0
 17 19  1  0
 17 18  2  0
 20 19  1  1
 20 22  1  0
 20 21  1  0
 21 14  1  0
 22 24  1  0
 23 22  2  0
M  END
$$$$
