KCN.pdb
     RDKit          3D

 24 23  0  0  1  0  0  0  0  0999 V2000
   27.4306  -20.2754  -15.5744 N   0  0  0  0  0  0  0  0  0  0  0  0
   26.7846  -21.5828  -15.8460 C   0  0  1  0  0  0  0  0  0  0  0  0
   27.9488  -22.5480  -15.8860 C   0  0  0  0  0  0  0  0  0  0  0  0
   28.4827  -22.8459  -17.2403 C   0  0  0  0  0  0  0  0  0  0  0  0
   29.6451  -21.9137  -17.5616 C   0  0  0  0  0  0  0  0  0  0  0  0
   30.1541  -22.0877  -18.9692 C   0  0  0  0  0  0  0  0  0  0  0  0
   31.2548  -21.1198  -19.1154 N   0  0  0  0  0  0  0  0  0  0  0  0
   25.8414  -21.8193  -14.7358 C   0  0  0  0  0  0  0  0  0  0  0  0
   25.0528  -22.8247  -14.7829 O   0  0  0  0  0  0  0  0  0  0  0  0
   25.7041  -21.0268  -13.5713 N   0  0  0  0  0  0  0  0  0  0  0  0
   24.6543  -21.2394  -12.5913 C   0  0  1  0  0  0  0  0  0  0  0  0
   25.2441  -20.8186  -11.2509 C   0  0  0  0  0  0  0  0  0  0  0  0
   26.4447  -22.0441  -10.6644 S   0  0  0  0  0  0  0  0  0  0  0  0
   23.4520  -20.4445  -12.8652 C   0  0  0  0  0  0  0  0  0  0  0  0
   23.5265  -19.3236  -13.4438 O   0  0  0  0  0  0  0  0  0  0  0  0
   22.5445  -19.6221  -16.3947 N   0  0  0  0  0  0  0  0  0  0  0  0
   21.4173  -19.7490  -15.5517 C   0  0  0  0  0  0  0  0  0  0  0  0
   20.6301  -18.7356  -15.5619 O   0  0  0  0  0  0  0  0  0  0  0  0
   21.0806  -20.8960  -14.6976 C   0  0  0  0  0  0  0  0  0  0  0  0
   20.9634  -20.5963  -13.2292 C   0  0  2  0  0  0  0  0  0  0  0  0
   22.1733  -20.9318  -12.4784 N   0  0  0  0  0  0  0  0  0  0  0  0
   19.8407  -21.3824  -12.6700 C   0  0  0  0  0  0  0  0  0  0  0  0
   18.7952  -20.8139  -12.2411 O   0  0  0  0  0  0  0  0  0  0  0  0
   19.9491  -22.7843  -12.6195 O   0  0  0  0  0  0  0  0  0  0  0  0
  2  1  1  1
  3  2  1  0
  4  3  1  0
  5  4  1  0
  6  5  1  0
  7  6  1  0
  8  2  1  0
  8  9  2  0
 10  8  1  0
 11 10  1  0
 11 12  1  1
 13 12  1  0
 14 11  1  0
 15 14  2  0
 16 17  1  0
 17 19  1  0
 17 18  2  0
 20 19  1  6
 20 22  1  0
 20 21  1  0
 21 14  1  0
 22 24  1  0
 23 22  2  0
M  END
$$$$
