KCN.pdb
     RDKit          3D

 24 23  0  0  1  0  0  0  0  0999 V2000
   19.9536  -12.3039  -16.0035 N   0  0  0  0  0  0  0  0  0  0  0  0
   20.7170  -11.2833  -16.7625 C   0  0  1  0  0  0  0  0  0  0  0  0
   20.4826  -11.6712  -18.2059 C   0  0  0  0  0  0  0  0  0  0  0  0
   21.0635  -12.9756  -18.6169 C   0  0  0  0  0  0  0  0  0  0  0  0
   20.0996  -13.7099  -19.5417 C   0  0  0  0  0  0  0  0  0  0  0  0
   20.7208  -14.9277  -20.1756 C   0  0  0  0  0  0  0  0  0  0  0  0
   19.6900  -15.4771  -21.0730 N   0  0  0  0  0  0  0  0  0  0  0  0
   20.1471   -9.9743  -16.3883 C   0  0  0  0  0  0  0  0  0  0  0  0
   19.0455   -9.5936  -16.9142 O   0  0  0  0  0  0  0  0  0  0  0  0
   20.7034   -9.0507  -15.4716 N   0  0  0  0  0  0  0  0  0  0  0  0
   20.0726   -7.7842  -15.1466 C   0  0  1  0  0  0  0  0  0  0  0  0
   19.5112   -7.9472  -13.7394 C   0  0  0  0  0  0  0  0  0  0  0  0
   20.7212   -8.7509  -12.6544 S   0  0  0  0  0  0  0  0  0  0  0  0
   21.0136   -6.6589  -15.1679 C   0  0  0  0  0  0  0  0  0  0  0  0
   22.2345   -6.8214  -14.8852 O   0  0  0  0  0  0  0  0  0  0  0  0
   21.8543   -1.0722  -17.7505 N   0  0  0  0  0  0  0  0  0  0  0  0
   22.1518   -2.2696  -17.0612 C   0  0  0  0  0  0  0  0  0  0  0  0
   23.3246   -2.3055  -16.5417 O   0  0  0  0  0  0  0  0  0  0  0  0
   21.2694   -3.4322  -16.8935 C   0  0  0  0  0  0  0  0  0  0  0  0
   21.4795   -4.2271  -15.6350 C   0  0  2  0  0  0  0  0  0  0  0  0
   20.5578   -5.3563  -15.5110 N   0  0  0  0  0  0  0  0  0  0  0  0
   21.2781   -3.3372  -14.4694 C   0  0  0  0  0  0  0  0  0  0  0  0
   20.1159   -3.0295  -14.0758 O   0  0  0  0  0  0  0  0  0  0  0  0
   22.4049   -2.8310  -13.7958 O   0  0  0  0  0  0  0  0  0  0  0  0
  2  1  1  1
  3  2  1  0
  4  3  1  0
  5  4  1  0
  6  5  1  0
  7  6  1  0
  8  2  1  0
  8  9  2  0
 10  8  1  0
 11 10  1  0
 11 12  1  1
 13 12  1  0
 14 11  1  0
 15 14  2  0
 16 17  1  0
 17 19  1  0
 17 18  2  0
 20 19  1  6
 20 22  1  0
 20 21  1  0
 21 14  1  0
 22 24  1  0
 23 22  2  0
M  END
$$$$
