KCN.pdb
     RDKit          3D

 24 23  0  0  1  0  0  0  0  0999 V2000
   16.9332   -9.8873  -13.3155 N   0  0  0  0  0  0  0  0  0  0  0  0
   17.9344   -9.6791  -14.3902 C   0  0  1  0  0  0  0  0  0  0  0  0
   17.1011   -9.6893  -15.6529 C   0  0  0  0  0  0  0  0  0  0  0  0
   16.6332  -11.0281  -16.0962 C   0  0  0  0  0  0  0  0  0  0  0  0
   17.8270  -11.9265  -16.3983 C   0  0  0  0  0  0  0  0  0  0  0  0
   17.4159  -13.2759  -16.9283 C   0  0  0  0  0  0  0  0  0  0  0  0
   18.6711  -13.9667  -17.2702 N   0  0  0  0  0  0  0  0  0  0  0  0
   18.5861   -8.3857  -14.1067 C   0  0  0  0  0  0  0  0  0  0  0  0
   17.8781   -7.3973  -13.7106 O   0  0  0  0  0  0  0  0  0  0  0  0
   19.9672   -8.1006  -14.2260 N   0  0  0  0  0  0  0  0  0  0  0  0
   20.5184   -6.7718  -14.0307 C   0  0  1  0  0  0  0  0  0  0  0  0
   21.8504   -6.9738  -13.3187 C   0  0  0  0  0  0  0  0  0  0  0  0
   22.6452   -5.3801  -12.9788 S   0  0  0  0  0  0  0  0  0  0  0  0
   20.7445   -6.0593  -15.2931 C   0  0  0  0  0  0  0  0  0  0  0  0
   21.3114   -6.6244  -16.2709 O   0  0  0  0  0  0  0  0  0  0  0  0
   18.9372   -1.3144  -18.8403 N   0  0  0  0  0  0  0  0  0  0  0  0
   19.5097   -2.5473  -18.4537 C   0  0  0  0  0  0  0  0  0  0  0  0
   20.2332   -3.1028  -19.3562 O   0  0  0  0  0  0  0  0  0  0  0  0
   19.3551   -3.2227  -17.1581 C   0  0  0  0  0  0  0  0  0  0  0  0
   20.5729   -3.9482  -16.6578 C   0  0  2  0  0  0  0  0  0  0  0  0
   20.3231   -4.7084  -15.4331 N   0  0  0  0  0  0  0  0  0  0  0  0
   21.6364   -2.9576  -16.3769 C   0  0  0  0  0  0  0  0  0  0  0  0
   22.4496   -2.5994  -17.2773 O   0  0  0  0  0  0  0  0  0  0  0  0
   21.7351   -2.4120  -15.0837 O   0  0  0  0  0  0  0  0  0  0  0  0
  2  1  1  1
  3  2  1  0
  4  3  1  0
  5  4  1  0
  6  5  1  0
  7  6  1  0
  8  2  1  0
  8  9  2  0
 10  8  1  0
 11 10  1  0
 11 12  1  6
 13 12  1  0
 14 11  1  0
 15 14  2  0
 16 17  1  0
 17 19  1  0
 17 18  2  0
 20 19  1  1
 20 22  1  0
 20 21  1  0
 21 14  1  0
 22 24  1  0
 23 22  2  0
M  END
$$$$
