KCN.pdb
     RDKit          3D

 24 23  0  0  1  0  0  0  0  0999 V2000
   13.7488   -9.6743   -9.7085 N   0  0  0  0  0  0  0  0  0  0  0  0
   15.2216   -9.7213   -9.8797 C   0  0  1  0  0  0  0  0  0  0  0  0
   15.4285  -10.8868  -10.8216 C   0  0  0  0  0  0  0  0  0  0  0  0
   14.5538  -12.0635  -10.5803 C   0  0  0  0  0  0  0  0  0  0  0  0
   14.8344  -13.1459  -11.6162 C   0  0  0  0  0  0  0  0  0  0  0  0
   14.0397  -14.4022  -11.3699 C   0  0  0  0  0  0  0  0  0  0  0  0
   14.4564  -15.3473  -12.4201 N   0  0  0  0  0  0  0  0  0  0  0  0
   15.6170   -8.4142  -10.4396 C   0  0  0  0  0  0  0  0  0  0  0  0
   14.7930   -7.7684  -11.1738 O   0  0  0  0  0  0  0  0  0  0  0  0
   16.8585   -7.7626  -10.2473 N   0  0  0  0  0  0  0  0  0  0  0  0
   17.1893   -6.4946  -10.8721 C   0  0  1  0  0  0  0  0  0  0  0  0
   16.6210   -5.4179   -9.9559 C   0  0  0  0  0  0  0  0  0  0  0  0
   16.6088   -5.9817   -8.2327 S   0  0  0  0  0  0  0  0  0  0  0  0
   18.6351   -6.2943  -11.0202 C   0  0  0  0  0  0  0  0  0  0  0  0
   19.4220   -6.4611  -10.0456 O   0  0  0  0  0  0  0  0  0  0  0  0
   21.7928   -9.0064  -13.0107 N   0  0  0  0  0  0  0  0  0  0  0  0
   20.8927   -8.0550  -13.5418 C   0  0  0  0  0  0  0  0  0  0  0  0
   19.7840   -8.5482  -13.9589 O   0  0  0  0  0  0  0  0  0  0  0  0
   21.1073   -6.6059  -13.6536 C   0  0  0  0  0  0  0  0  0  0  0  0
   20.6170   -5.7881  -12.4914 C   0  0  2  0  0  0  0  0  0  0  0  0
   19.1747   -5.9056  -12.2771 N   0  0  0  0  0  0  0  0  0  0  0  0
   20.9312   -4.3638  -12.7440 C   0  0  0  0  0  0  0  0  0  0  0  0
   20.0167   -3.5296  -13.0051 O   0  0  0  0  0  0  0  0  0  0  0  0
   22.2725   -3.9420  -12.6902 O   0  0  0  0  0  0  0  0  0  0  0  0
  2  1  1  6
  3  2  1  0
  4  3  1  0
  5  4  1  0
  6  5  1  0
  7  6  1  0
  8  2  1  0
  8  9  2  0
 10  8  1  0
 11 10  1  0
 11 12  1  1
 13 12  1  0
 14 11  1  0
 15 14  2  0
 16 17  1  0
 17 19  1  0
 17 18  2  0
 20 19  1  6
 20 22  1  0
 20 21  1  0
 21 14  1  0
 22 24  1  0
 23 22  2  0
M  END
$$$$
