KCN.pdb
     RDKit          3D

 24 23  0  0  1  0  0  0  0  0999 V2000
   18.5639  -12.6318  -16.0453 N   0  0  0  0  0  0  0  0  0  0  0  0
   18.8807  -11.4368  -16.8652 C   0  0  1  0  0  0  0  0  0  0  0  0
   17.6239  -11.2276  -17.6810 C   0  0  0  0  0  0  0  0  0  0  0  0
   17.3938  -12.2207  -18.7619 C   0  0  0  0  0  0  0  0  0  0  0  0
   16.1172  -11.8808  -19.5223 C   0  0  0  0  0  0  0  0  0  0  0  0
   15.8142  -12.8719  -20.6162 C   0  0  0  0  0  0  0  0  0  0  0  0
   16.1569  -14.1925  -20.0609 N   0  0  0  0  0  0  0  0  0  0  0  0
   19.1729  -10.3460  -15.9150 C   0  0  0  0  0  0  0  0  0  0  0  0
   18.5826  -10.3238  -14.7810 O   0  0  0  0  0  0  0  0  0  0  0  0
   20.0735   -9.2742  -16.1227 N   0  0  0  0  0  0  0  0  0  0  0  0
   20.2602   -8.2027  -15.1610 C   0  0  1  0  0  0  0  0  0  0  0  0
   21.7586   -7.9280  -15.1289 C   0  0  0  0  0  0  0  0  0  0  0  0
   22.6033   -9.1012  -14.0347 S   0  0  0  0  0  0  0  0  0  0  0  0
   19.5481   -6.9751  -15.5329 C   0  0  0  0  0  0  0  0  0  0  0  0
   19.5129   -6.5767  -16.7316 O   0  0  0  0  0  0  0  0  0  0  0  0
   14.9826   -3.4007  -14.6739 N   0  0  0  0  0  0  0  0  0  0  0  0
   16.2702   -3.4791  -14.0967 C   0  0  0  0  0  0  0  0  0  0  0  0
   16.7771   -2.3453  -13.7738 O   0  0  0  0  0  0  0  0  0  0  0  0
   17.0494   -4.6986  -13.8434 C   0  0  0  0  0  0  0  0  0  0  0  0
   18.0891   -5.0280  -14.8780 C   0  0  2  0  0  0  0  0  0  0  0  0
   18.8810   -6.2099  -14.5372 N   0  0  0  0  0  0  0  0  0  0  0  0
   19.0111   -3.8777  -15.0109 C   0  0  0  0  0  0  0  0  0  0  0  0
   20.0838   -3.8199  -14.3428 O   0  0  0  0  0  0  0  0  0  0  0  0
   18.6789   -2.8370  -15.8977 O   0  0  0  0  0  0  0  0  0  0  0  0
  2  1  1  1
  3  2  1  0
  4  3  1  0
  5  4  1  0
  6  5  1  0
  7  6  1  0
  8  2  1  0
  8  9  2  0
 10  8  1  0
 11 10  1  0
 11 12  1  6
 13 12  1  0
 14 11  1  0
 15 14  2  0
 16 17  1  0
 17 19  1  0
 17 18  2  0
 20 19  1  1
 20 22  1  0
 20 21  1  0
 21 14  1  0
 22 24  1  0
 23 22  2  0
M  END
$$$$
