YHC.pdb
     RDKit          3D

 29 30  0  0  1  0  0  0  0  0999 V2000
    7.8373  -11.9088   17.6435 O   0  0  0  0  0  0  0  0  0  0  0  0
    8.0460  -12.6636   18.8085 C   0  0  0  0  0  0  0  0  0  0  0  0
    9.3201  -12.9507   19.2279 C   0  0  0  0  0  0  0  0  0  0  0  0
    9.5236  -13.6882   20.3664 C   0  0  0  0  0  0  0  0  0  0  0  0
    8.4847  -14.1745   21.1403 C   0  0  0  0  0  0  0  0  0  0  0  0
    8.7462  -14.9716   22.3698 C   0  0  0  0  0  0  0  0  0  0  0  0
    9.4292  -16.2387   21.9349 C   0  0  2  0  0  0  0  0  0  0  0  0
    8.5161  -16.9644   21.0912 N   0  0  0  0  0  0  0  0  0  0  0  0
    9.8927  -17.0825   23.0261 C   0  0  0  0  0  0  0  0  0  0  0  0
    9.0379  -17.6585   23.7429 O   0  0  0  0  0  0  0  0  0  0  0  0
    7.2075  -13.8791   20.7080 C   0  0  0  0  0  0  0  0  0  0  0  0
    6.9866  -13.1325   19.5559 C   0  0  0  0  0  0  0  0  0  0  0  0
   11.2549  -17.3158   23.3575 N   0  0  0  0  0  0  0  0  0  0  0  0
   11.7230  -18.0961   24.4499 C   0  0  1  0  0  0  0  0  0  0  0  0
   12.9522  -18.9054   24.1656 C   0  0  0  0  0  0  0  0  0  0  0  0
   12.7496  -19.9172   23.1068 C   0  0  0  0  0  0  0  0  0  0  0  0
   11.5574  -20.5898   22.9336 C   0  0  0  0  0  0  0  0  0  0  0  0
   11.6671  -21.4291   21.9160 N   0  0  0  0  0  0  0  0  0  0  0  0
   12.9215  -21.3004   21.4343 C   0  0  0  0  0  0  0  0  0  0  0  0
   13.5817  -20.3754   22.1639 N   0  0  0  0  0  0  0  0  0  0  0  0
   11.8817  -17.2840   25.6842 C   0  0  0  0  0  0  0  0  0  0  0  0
   12.8022  -16.4277   25.7045 O   0  0  0  0  0  0  0  0  0  0  0  0
   11.0643  -17.4222   26.8183 N   0  0  0  0  0  0  0  0  0  0  0  0
   11.3616  -16.8491   28.1137 C   0  0  1  0  0  0  0  0  0  0  0  0
   10.2131  -15.9422   28.5327 C   0  0  0  0  0  0  0  0  0  0  0  0
    9.8817  -14.7761   27.2086 S   0  0  0  0  0  0  0  0  0  0  0  0
   11.6115  -17.9095   29.1289 C   0  0  0  0  0  0  0  0  0  0  0  0
   11.4089  -19.1213   28.8799 O   0  0  0  0  0  0  0  0  0  0  0  0
   12.0822  -17.5962   30.4008 O   0  0  0  0  0  0  0  0  0  0  0  0
  2  1  1  0
  3  2  2  0
  4  3  1  0
  5 11  1  0
  5  4  2  0
  6  5  1  0
  7  9  1  0
  7  6  1  0
  7  8  1  1
  9 10  2  0
 11 12  2  0
 12  2  1  0
 13 14  1  0
 13  9  1  0
 14 15  1  6
 16 15  1  0
 17 16  2  0
 18 19  1  0
 18 17  1  0
 19 20  2  0
 20 16  1  0
 21 22  2  0
 21 14  1  0
 23 21  1  0
 24 23  1  0
 24 27  1  0
 24 25  1  1
 26 25  1  0
 27 29  1  0
 28 27  2  0
M  END
$$$$
