YHC.pdb
     RDKit          3D

 29 30  0  0  1  0  0  0  0  0999 V2000
   10.9035  -14.8455   28.8646 O   0  0  0  0  0  0  0  0  0  0  0  0
    9.8501  -14.7452   27.9421 C   0  0  0  0  0  0  0  0  0  0  0  0
    8.6558  -15.3747   28.1846 C   0  0  0  0  0  0  0  0  0  0  0  0
    7.6268  -15.2765   27.2829 C   0  0  0  0  0  0  0  0  0  0  0  0
    7.7277  -14.5560   26.1058 C   0  0  0  0  0  0  0  0  0  0  0  0
    6.5880  -14.4731   25.1521 C   0  0  0  0  0  0  0  0  0  0  0  0
    6.5989  -15.7407   24.3432 C   0  0  2  0  0  0  0  0  0  0  0  0
    6.1962  -16.8189   25.2078 N   0  0  0  0  0  0  0  0  0  0  0  0
    7.8738  -16.0451   23.7111 C   0  0  0  0  0  0  0  0  0  0  0  0
    8.4108  -17.1548   23.9491 O   0  0  0  0  0  0  0  0  0  0  0  0
    8.9342  -13.9272   25.8731 C   0  0  0  0  0  0  0  0  0  0  0  0
    9.9857  -14.0183   26.7785 C   0  0  0  0  0  0  0  0  0  0  0  0
    8.5777  -15.1792   22.8310 N   0  0  0  0  0  0  0  0  0  0  0  0
    9.7516  -15.5108   22.1008 C   0  0  1  0  0  0  0  0  0  0  0  0
   10.1238  -14.5330   21.0276 C   0  0  0  0  0  0  0  0  0  0  0  0
    9.0556  -14.3369   20.0244 C   0  0  0  0  0  0  0  0  0  0  0  0
    7.9513  -15.1596   19.9375 C   0  0  0  0  0  0  0  0  0  0  0  0
    7.1688  -14.7466   18.9530 N   0  0  0  0  0  0  0  0  0  0  0  0
    7.7627  -13.6644   18.4069 C   0  0  0  0  0  0  0  0  0  0  0  0
    8.9164  -13.4156   19.0635 N   0  0  0  0  0  0  0  0  0  0  0  0
   10.9014  -15.7950   22.9983 C   0  0  0  0  0  0  0  0  0  0  0  0
   11.6951  -14.8517   23.2456 O   0  0  0  0  0  0  0  0  0  0  0  0
   11.1449  -17.0508   23.5789 N   0  0  0  0  0  0  0  0  0  0  0  0
   12.1594  -17.3048   24.5795 C   0  0  1  0  0  0  0  0  0  0  0  0
   11.8950  -16.4232   25.7920 C   0  0  0  0  0  0  0  0  0  0  0  0
   10.6827  -17.2295   26.8422 S   0  0  0  0  0  0  0  0  0  0  0  0
   12.1980  -18.7450   24.9560 C   0  0  0  0  0  0  0  0  0  0  0  0
   11.3430  -19.5595   24.5351 O   0  0  0  0  0  0  0  0  0  0  0  0
   13.1895  -19.2469   25.7941 O   0  0  0  0  0  0  0  0  0  0  0  0
  2  1  1  0
  3  2  2  0
  4  3  1  0
  5 11  1  0
  5  4  2  0
  6  5  1  0
  7  9  1  0
  7  6  1  0
  7  8  1  1
  9 10  2  0
 11 12  2  0
 12  2  1  0
 13 14  1  0
 13  9  1  0
 14 15  1  6
 16 15  1  0
 17 16  2  0
 18 19  1  0
 18 17  1  0
 19 20  2  0
 20 16  1  0
 21 22  2  0
 21 14  1  0
 23 21  1  0
 24 23  1  0
 24 27  1  0
 24 25  1  1
 26 25  1  0
 27 29  1  0
 28 27  2  0
M  END
$$$$
