YHC.pdb
     RDKit          3D

 29 30  0  0  1  0  0  0  0  0999 V2000
    5.5140  -10.8671   27.3417 O   0  0  0  0  0  0  0  0  0  0  0  0
    6.1467  -11.9816   26.7687 C   0  0  0  0  0  0  0  0  0  0  0  0
    5.8639  -13.2456   27.2200 C   0  0  0  0  0  0  0  0  0  0  0  0
    6.4822  -14.3343   26.6598 C   0  0  0  0  0  0  0  0  0  0  0  0
    7.4040  -14.2271   25.6333 C   0  0  0  0  0  0  0  0  0  0  0  0
    8.0540  -15.4330   25.0512 C   0  0  0  0  0  0  0  0  0  0  0  0
    7.4770  -15.6223   23.6756 C   0  0  2  0  0  0  0  0  0  0  0  0
    6.4075  -16.5808   23.7742 N   0  0  0  0  0  0  0  0  0  0  0  0
    8.4399  -16.0372   22.6665 C   0  0  0  0  0  0  0  0  0  0  0  0
    8.7365  -17.2545   22.5859 O   0  0  0  0  0  0  0  0  0  0  0  0
    7.6801  -12.9502   25.1879 C   0  0  0  0  0  0  0  0  0  0  0  0
    7.0607  -11.8376   25.7466 C   0  0  0  0  0  0  0  0  0  0  0  0
    9.0862  -15.1678   21.7465 N   0  0  0  0  0  0  0  0  0  0  0  0
   10.0740  -15.5475   20.7972 C   0  0  1  0  0  0  0  0  0  0  0  0
   10.3347  -14.5378   19.7205 C   0  0  0  0  0  0  0  0  0  0  0  0
    9.1816  -14.3419   18.8162 C   0  0  0  0  0  0  0  0  0  0  0  0
    8.3536  -15.3742   18.4259 C   0  0  0  0  0  0  0  0  0  0  0  0
    7.4132  -14.9063   17.6204 N   0  0  0  0  0  0  0  0  0  0  0  0
    7.6313  -13.5804   17.4907 C   0  0  0  0  0  0  0  0  0  0  0  0
    8.7132  -13.2374   18.2227 N   0  0  0  0  0  0  0  0  0  0  0  0
   11.3358  -15.9802   21.4522 C   0  0  0  0  0  0  0  0  0  0  0  0
   11.7963  -15.2527   22.3684 O   0  0  0  0  0  0  0  0  0  0  0  0
   12.0335  -17.1486   21.1039 N   0  0  0  0  0  0  0  0  0  0  0  0
   12.8480  -17.9171   22.0208 C   0  0  1  0  0  0  0  0  0  0  0  0
   11.9746  -18.4201   23.1615 C   0  0  0  0  0  0  0  0  0  0  0  0
   12.9983  -19.3404   24.3139 S   0  0  0  0  0  0  0  0  0  0  0  0
   13.5295  -19.0432   21.3242 C   0  0  0  0  0  0  0  0  0  0  0  0
   12.9215  -19.7815   20.5138 O   0  0  0  0  0  0  0  0  0  0  0  0
   14.8749  -19.3224   21.5461 O   0  0  0  0  0  0  0  0  0  0  0  0
  2  1  1  0
  3  2  2  0
  4  3  1  0
  5 11  1  0
  5  4  2  0
  6  5  1  0
  7  9  1  0
  7  6  1  0
  7  8  1  1
  9 10  2  0
 11 12  2  0
 12  2  1  0
 13 14  1  0
 13  9  1  0
 14 15  1  6
 16 15  1  0
 17 16  2  0
 18 19  1  0
 18 17  1  0
 19 20  2  0
 20 16  1  0
 21 22  2  0
 21 14  1  0
 23 21  1  0
 24 23  1  0
 24 27  1  0
 24 25  1  1
 26 25  1  0
 27 29  1  0
 28 27  2  0
M  END
$$$$
