YHC.pdb
     RDKit          3D

 29 30  0  0  1  0  0  0  0  0999 V2000
    5.4454  -10.6440   27.8175 O   0  0  0  0  0  0  0  0  0  0  0  0
    6.1635  -11.6674   27.1792 C   0  0  0  0  0  0  0  0  0  0  0  0
    6.4779  -12.8181   27.8564 C   0  0  0  0  0  0  0  0  0  0  0  0
    7.1795  -13.8180   27.2324 C   0  0  0  0  0  0  0  0  0  0  0  0
    7.6016  -13.7295   25.9175 C   0  0  0  0  0  0  0  0  0  0  0  0
    8.3613  -14.8366   25.2751 C   0  0  0  0  0  0  0  0  0  0  0  0
    7.5898  -15.2466   24.0512 C   0  0  2  0  0  0  0  0  0  0  0  0
    6.4779  -16.0537   24.4808 N   0  0  0  0  0  0  0  0  0  0  0  0
    8.3737  -15.9532   23.0493 C   0  0  0  0  0  0  0  0  0  0  0  0
    8.4268  -17.2064   23.1045 O   0  0  0  0  0  0  0  0  0  0  0  0
    7.2792  -12.5670   25.2467 C   0  0  0  0  0  0  0  0  0  0  0  0
    6.5684  -11.5454   25.8670 C   0  0  0  0  0  0  0  0  0  0  0  0
    9.0983  -15.3366   21.9936 N   0  0  0  0  0  0  0  0  0  0  0  0
    9.9479  -16.0025   21.0685 C   0  0  1  0  0  0  0  0  0  0  0  0
   10.3676  -15.1763   19.8904 C   0  0  0  0  0  0  0  0  0  0  0  0
    9.2318  -14.7506   19.0451 C   0  0  0  0  0  0  0  0  0  0  0  0
    8.3491  -15.6438   18.4736 C   0  0  0  0  0  0  0  0  0  0  0  0
    7.4405  -14.9817   17.7749 N   0  0  0  0  0  0  0  0  0  0  0  0
    7.7335  -13.6694   17.8935 C   0  0  0  0  0  0  0  0  0  0  0  0
    8.8292  -13.5303   18.6706 N   0  0  0  0  0  0  0  0  0  0  0  0
   11.1187  -16.6251   21.7392 C   0  0  0  0  0  0  0  0  0  0  0  0
   11.9132  -15.8653   22.3494 O   0  0  0  0  0  0  0  0  0  0  0  0
   11.3809  -18.0051   21.7268 N   0  0  0  0  0  0  0  0  0  0  0  0
   12.5135  -18.6269   22.3790 C   0  0  1  0  0  0  0  0  0  0  0  0
   12.1389  -20.0460   22.7824 C   0  0  0  0  0  0  0  0  0  0  0  0
   12.7445  -20.3560   24.4437 S   0  0  0  0  0  0  0  0  0  0  0  0
   13.7163  -18.6138   21.5012 C   0  0  0  0  0  0  0  0  0  0  0  0
   13.6282  -18.7650   20.2599 O   0  0  0  0  0  0  0  0  0  0  0  0
   14.9926  -18.4322   22.0261 O   0  0  0  0  0  0  0  0  0  0  0  0
  2  1  1  0
  3  2  2  0
  4  3  1  0
  5 11  1  0
  5  4  2  0
  6  5  1  0
  7  9  1  0
  7  6  1  0
  7  8  1  1
  9 10  2  0
 11 12  2  0
 12  2  1  0
 13 14  1  0
 13  9  1  0
 14 15  1  6
 16 15  1  0
 17 16  2  0
 18 19  1  0
 18 17  1  0
 19 20  2  0
 20 16  1  0
 21 22  2  0
 21 14  1  0
 23 21  1  0
 24 23  1  0
 24 27  1  0
 24 25  1  6
 26 25  1  0
 27 29  1  0
 28 27  2  0
M  END
$$$$
