YHC.pdb
     RDKit          3D

 29 30  0  0  1  0  0  0  0  0999 V2000
    8.3057  -12.4092   16.8808 O   0  0  0  0  0  0  0  0  0  0  0  0
    8.1347  -12.9432   18.1678 C   0  0  0  0  0  0  0  0  0  0  0  0
    9.2110  -13.4353   18.8612 C   0  0  0  0  0  0  0  0  0  0  0  0
    9.0435  -13.9569   20.1187 C   0  0  0  0  0  0  0  0  0  0  0  0
    7.8123  -14.0172   20.7475 C   0  0  0  0  0  0  0  0  0  0  0  0
    7.6711  -14.5910   22.1136 C   0  0  0  0  0  0  0  0  0  0  0  0
    8.0398  -16.0458   22.0193 C   0  0  2  0  0  0  0  0  0  0  0  0
    7.0619  -16.6953   21.1861 N   0  0  0  0  0  0  0  0  0  0  0  0
    8.1493  -16.7274   23.3003 C   0  0  0  0  0  0  0  0  0  0  0  0
    7.0967  -16.9806   23.9362 O   0  0  0  0  0  0  0  0  0  0  0  0
    6.7371  -13.5191   20.0396 C   0  0  0  0  0  0  0  0  0  0  0  0
    6.8925  -12.9874   18.7642 C   0  0  0  0  0  0  0  0  0  0  0  0
    9.3672  -17.1393   23.9060 N   0  0  0  0  0  0  0  0  0  0  0  0
    9.5310  -17.5273   25.2638 C   0  0  1  0  0  0  0  0  0  0  0  0
   10.2552  -18.8239   25.4661 C   0  0  0  0  0  0  0  0  0  0  0  0
   11.5258  -18.9030   24.7143 C   0  0  0  0  0  0  0  0  0  0  0  0
   11.8679  -18.0018   23.7271 C   0  0  0  0  0  0  0  0  0  0  0  0
   13.0539  -18.3180   23.2315 N   0  0  0  0  0  0  0  0  0  0  0  0
   13.4760  -19.4161   23.8935 C   0  0  0  0  0  0  0  0  0  0  0  0
   12.5401  -19.7721   24.7997 N   0  0  0  0  0  0  0  0  0  0  0  0
   10.1258  -16.4400   26.0837 C   0  0  0  0  0  0  0  0  0  0  0  0
   10.8733  -15.6133   25.5017 O   0  0  0  0  0  0  0  0  0  0  0  0
    9.8983  -16.2897   27.4617 N   0  0  0  0  0  0  0  0  0  0  0  0
   10.4160  -15.1993   28.2605 C   0  0  1  0  0  0  0  0  0  0  0  0
    9.2830  -14.2343   28.5803 C   0  0  0  0  0  0  0  0  0  0  0  0
    9.2140  -12.9764   27.3014 S   0  0  0  0  0  0  0  0  0  0  0  0
   11.0660  -15.7012   29.5028 C   0  0  0  0  0  0  0  0  0  0  0  0
   10.9917  -16.9047   29.8457 O   0  0  0  0  0  0  0  0  0  0  0  0
   11.7853  -14.8501   30.3369 O   0  0  0  0  0  0  0  0  0  0  0  0
  2  1  1  0
  3  2  2  0
  4  3  1  0
  5 11  1  0
  5  4  2  0
  6  5  1  0
  7  9  1  0
  7  6  1  0
  7  8  1  6
  9 10  2  0
 11 12  2  0
 12  2  1  0
 13 14  1  0
 13  9  1  0
 14 15  1  6
 16 15  1  0
 17 16  2  0
 18 19  1  0
 18 17  1  0
 19 20  2  0
 20 16  1  0
 21 22  2  0
 21 14  1  0
 23 21  1  0
 24 23  1  0
 24 27  1  0
 24 25  1  1
 26 25  1  0
 27 29  1  0
 28 27  2  0
M  END
$$$$
