YHC.pdb
     RDKit          3D

 29 30  0  0  1  0  0  0  0  0999 V2000
    6.1612  -10.4108   27.3416 O   0  0  0  0  0  0  0  0  0  0  0  0
    6.4412  -11.7292   26.9493 C   0  0  0  0  0  0  0  0  0  0  0  0
    5.5649  -12.7411   27.2489 C   0  0  0  0  0  0  0  0  0  0  0  0
    5.8389  -14.0292   26.8654 C   0  0  0  0  0  0  0  0  0  0  0  0
    6.9846  -14.3773   26.1718 C   0  0  0  0  0  0  0  0  0  0  0  0
    7.2465  -15.7872   25.7730 C   0  0  0  0  0  0  0  0  0  0  0  0
    6.8443  -15.9175   24.3299 C   0  0  2  0  0  0  0  0  0  0  0  0
    5.8338  -16.9391   24.2444 N   0  0  0  0  0  0  0  0  0  0  0  0
    7.9411  -16.2099   23.4193 C   0  0  0  0  0  0  0  0  0  0  0  0
    8.3612  -17.3909   23.3470 O   0  0  0  0  0  0  0  0  0  0  0  0
    7.8584  -13.3505   25.8763 C   0  0  0  0  0  0  0  0  0  0  0  0
    7.5933  -12.0402   26.2589 C   0  0  0  0  0  0  0  0  0  0  0  0
    8.5906  -15.2570   22.5887 N   0  0  0  0  0  0  0  0  0  0  0  0
    9.7319  -15.5021   21.7773 C   0  0  1  0  0  0  0  0  0  0  0  0
    9.9981  -14.4608   20.7325 C   0  0  0  0  0  0  0  0  0  0  0  0
    8.9971  -14.4604   19.6444 C   0  0  0  0  0  0  0  0  0  0  0  0
    8.0052  -15.4139   19.5406 C   0  0  0  0  0  0  0  0  0  0  0  0
    7.2607  -15.1630   18.4753 N   0  0  0  0  0  0  0  0  0  0  0  0
    7.7674  -14.0550   17.8941 C   0  0  0  0  0  0  0  0  0  0  0  0
    8.8291  -13.6270   18.6106 N   0  0  0  0  0  0  0  0  0  0  0  0
   10.9441  -15.7749   22.5925 C   0  0  0  0  0  0  0  0  0  0  0  0
   11.2198  -14.9671   23.5158 O   0  0  0  0  0  0  0  0  0  0  0  0
   11.7895  -16.8778   22.3867 N   0  0  0  0  0  0  0  0  0  0  0  0
   12.4542  -17.6058   23.4464 C   0  0  1  0  0  0  0  0  0  0  0  0
   11.4174  -18.0638   24.4625 C   0  0  0  0  0  0  0  0  0  0  0  0
   11.9602  -17.5796   26.1038 S   0  0  0  0  0  0  0  0  0  0  0  0
   13.2284  -18.7578   22.9069 C   0  0  0  0  0  0  0  0  0  0  0  0
   12.6633  -19.7314   22.3551 O   0  0  0  0  0  0  0  0  0  0  0  0
   14.6170  -18.8000   22.9940 O   0  0  0  0  0  0  0  0  0  0  0  0
  2  1  1  0
  3  2  2  0
  4  3  1  0
  5 11  1  0
  5  4  2  0
  6  5  1  0
  7  9  1  0
  7  6  1  0
  7  8  1  1
  9 10  2  0
 11 12  2  0
 12  2  1  0
 13 14  1  0
 13  9  1  0
 14 15  1  1
 16 15  1  0
 17 16  2  0
 18 19  1  0
 18 17  1  0
 19 20  2  0
 20 16  1  0
 21 22  2  0
 21 14  1  0
 23 21  1  0
 24 23  1  0
 24 27  1  0
 24 25  1  1
 26 25  1  0
 27 29  1  0
 28 27  2  0
M  END
$$$$
