YHC.pdb
     RDKit          3D

 29 30  0  0  1  0  0  0  0  0999 V2000
    6.5102  -18.0357   10.7711 O   0  0  0  0  0  0  0  0  0  0  0  0
    7.1067  -18.4099   11.9855 C   0  0  0  0  0  0  0  0  0  0  0  0
    6.4477  -19.2448   12.8516 C   0  0  0  0  0  0  0  0  0  0  0  0
    7.0308  -19.6102   14.0382 C   0  0  0  0  0  0  0  0  0  0  0  0
    8.2851  -19.1710   14.4236 C   0  0  0  0  0  0  0  0  0  0  0  0
    8.8844  -19.5900   15.7201 C   0  0  0  0  0  0  0  0  0  0  0  0
   10.0277  -20.5122   15.3979 C   0  0  2  0  0  0  0  0  0  0  0  0
    9.4791  -21.7041   14.8057 N   0  0  0  0  0  0  0  0  0  0  0  0
   10.8714  -20.8512   16.5340 C   0  0  0  0  0  0  0  0  0  0  0  0
   10.4986  -21.7700   17.3042 O   0  0  0  0  0  0  0  0  0  0  0  0
    8.9381  -18.3315   13.5439 C   0  0  0  0  0  0  0  0  0  0  0  0
    8.3589  -17.9529   12.3377 C   0  0  0  0  0  0  0  0  0  0  0  0
   12.1043  -20.2207   16.8539 N   0  0  0  0  0  0  0  0  0  0  0  0
   12.9639  -20.5733   17.9300 C   0  0  1  0  0  0  0  0  0  0  0  0
   14.4257  -20.3869   17.6563 C   0  0  0  0  0  0  0  0  0  0  0  0
   14.9645  -21.3646   16.6869 C   0  0  0  0  0  0  0  0  0  0  0  0
   14.2305  -22.4346   16.2177 C   0  0  0  0  0  0  0  0  0  0  0  0
   14.9644  -23.1352   15.3675 N   0  0  0  0  0  0  0  0  0  0  0  0
   16.1646  -22.5226   15.2873 C   0  0  0  0  0  0  0  0  0  0  0  0
   16.1625  -21.4402   16.0948 N   0  0  0  0  0  0  0  0  0  0  0  0
   12.5616  -19.9151   19.2001 C   0  0  0  0  0  0  0  0  0  0  0  0
   12.4502  -18.6627   19.1981 O   0  0  0  0  0  0  0  0  0  0  0  0
   12.3018  -20.6131   20.3912 N   0  0  0  0  0  0  0  0  0  0  0  0
   11.9274  -19.9852   21.6404 C   0  0  1  0  0  0  0  0  0  0  0  0
   11.1104  -20.9683   22.4669 C   0  0  0  0  0  0  0  0  0  0  0  0
    9.4313  -21.0043   21.8330 S   0  0  0  0  0  0  0  0  0  0  0  0
   13.1258  -19.5145   22.3887 C   0  0  0  0  0  0  0  0  0  0  0  0
   14.2891  -19.7449   21.9823 O   0  0  0  0  0  0  0  0  0  0  0  0
   13.0017  -18.7966   23.5747 O   0  0  0  0  0  0  0  0  0  0  0  0
  2  1  1  0
  3  2  2  0
  4  3  1  0
  5 11  1  0
  5  4  2  0
  6  5  1  0
  7  9  1  0
  7  6  1  0
  7  8  1  1
  9 10  2  0
 11 12  2  0
 12  2  1  0
 13 14  1  0
 13  9  1  0
 14 15  1  6
 16 15  1  0
 17 16  2  0
 18 19  1  0
 18 17  1  0
 19 20  2  0
 20 16  1  0
 21 22  2  0
 21 14  1  0
 23 21  1  0
 24 23  1  0
 24 27  1  0
 24 25  1  1
 26 25  1  0
 27 29  1  0
 28 27  2  0
M  END
$$$$
