YHC.pdb
     RDKit          3D

 29 30  0  0  1  0  0  0  0  0999 V2000
    7.6650  -12.5685   16.9281 O   0  0  0  0  0  0  0  0  0  0  0  0
    7.9231  -13.1294   18.1888 C   0  0  0  0  0  0  0  0  0  0  0  0
    9.1958  -13.5122   18.5283 C   0  0  0  0  0  0  0  0  0  0  0  0
    9.4475  -14.0602   19.7603 C   0  0  0  0  0  0  0  0  0  0  0  0
    8.4602  -14.2551   20.7101 C   0  0  0  0  0  0  0  0  0  0  0  0
    8.7732  -14.8533   22.0366 C   0  0  0  0  0  0  0  0  0  0  0  0
    9.5087  -16.1387   21.7763 C   0  0  2  0  0  0  0  0  0  0  0  0
    8.6095  -17.0303   21.0918 N   0  0  0  0  0  0  0  0  0  0  0  0
   10.0508  -16.7782   22.9658 C   0  0  0  0  0  0  0  0  0  0  0  0
    9.2624  -17.3834   23.7328 O   0  0  0  0  0  0  0  0  0  0  0  0
    7.1839  -13.8659   20.3567 C   0  0  0  0  0  0  0  0  0  0  0  0
    6.9144  -13.3091   19.1113 C   0  0  0  0  0  0  0  0  0  0  0  0
   11.4213  -16.7772   23.3422 N   0  0  0  0  0  0  0  0  0  0  0  0
   11.9491  -17.2830   24.5615 C   0  0  1  0  0  0  0  0  0  0  0  0
   13.3238  -17.8712   24.4575 C   0  0  0  0  0  0  0  0  0  0  0  0
   13.3751  -19.0822   23.6109 C   0  0  0  0  0  0  0  0  0  0  0  0
   12.5470  -20.1681   23.8082 C   0  0  0  0  0  0  0  0  0  0  0  0
   12.8160  -21.0988   22.9063 N   0  0  0  0  0  0  0  0  0  0  0  0
   13.8112  -20.6184   22.1310 C   0  0  0  0  0  0  0  0  0  0  0  0
   14.1515  -19.3852   22.5636 N   0  0  0  0  0  0  0  0  0  0  0  0
   11.8682  -16.2835   25.6581 C   0  0  0  0  0  0  0  0  0  0  0  0
   12.3872  -15.1557   25.4586 O   0  0  0  0  0  0  0  0  0  0  0  0
   11.2480  -16.5311   26.8940 N   0  0  0  0  0  0  0  0  0  0  0  0
   11.0915  -15.5443   27.9412 C   0  0  1  0  0  0  0  0  0  0  0  0
    9.9366  -14.6188   27.5852 C   0  0  0  0  0  0  0  0  0  0  0  0
    9.7250  -13.4208   28.9053 S   0  0  0  0  0  0  0  0  0  0  0  0
   10.8778  -16.1913   29.2653 C   0  0  0  0  0  0  0  0  0  0  0  0
   11.1209  -15.5916   30.3390 O   0  0  0  0  0  0  0  0  0  0  0  0
   10.3973  -17.4939   29.3644 O   0  0  0  0  0  0  0  0  0  0  0  0
  2  1  1  0
  3  2  2  0
  4  3  1  0
  5 11  1  0
  5  4  2  0
  6  5  1  0
  7  9  1  0
  7  6  1  0
  7  8  1  1
  9 10  2  0
 11 12  2  0
 12  2  1  0
 13 14  1  0
 13  9  1  0
 14 15  1  6
 16 15  1  0
 17 16  2  0
 18 19  1  0
 18 17  1  0
 19 20  2  0
 20 16  1  0
 21 22  2  0
 21 14  1  0
 23 21  1  0
 24 23  1  0
 24 27  1  0
 24 25  1  6
 26 25  1  0
 27 29  1  0
 28 27  2  0
M  END
$$$$
