YHC.pdb
     RDKit          3D

 29 30  0  0  1  0  0  0  0  0999 V2000
    7.4109  -12.8026   25.1146 O   0  0  0  0  0  0  0  0  0  0  0  0
    7.3409  -13.0832   23.7409 C   0  0  0  0  0  0  0  0  0  0  0  0
    6.6868  -14.2039   23.2962 C   0  0  0  0  0  0  0  0  0  0  0  0
    6.6185  -14.4777   21.9539 C   0  0  0  0  0  0  0  0  0  0  0  0
    7.1896  -13.6627   20.9925 C   0  0  0  0  0  0  0  0  0  0  0  0
    7.0940  -13.9939   19.5446 C   0  0  0  0  0  0  0  0  0  0  0  0
    8.3177  -14.7952   19.1954 C   0  0  2  0  0  0  0  0  0  0  0  0
    8.1504  -15.2941   17.8555 N   0  0  0  0  0  0  0  0  0  0  0  0
    8.6085  -15.8875   20.1119 C   0  0  0  0  0  0  0  0  0  0  0  0
    8.0826  -17.0069   19.8960 O   0  0  0  0  0  0  0  0  0  0  0  0
    7.8450  -12.5382   21.4523 C   0  0  0  0  0  0  0  0  0  0  0  0
    7.9218  -12.2484   22.8102 C   0  0  0  0  0  0  0  0  0  0  0  0
    9.4522  -15.7957   21.2519 N   0  0  0  0  0  0  0  0  0  0  0  0
    9.9217  -16.8897   22.0290 C   0  0  1  0  0  0  0  0  0  0  0  0
   11.3007  -17.3636   21.6821 C   0  0  0  0  0  0  0  0  0  0  0  0
   11.3564  -18.1023   20.4026 C   0  0  0  0  0  0  0  0  0  0  0  0
   10.4978  -19.1390   20.0998 C   0  0  0  0  0  0  0  0  0  0  0  0
   10.7793  -19.6084   18.8945 N   0  0  0  0  0  0  0  0  0  0  0  0
   11.8127  -18.8804   18.4211 C   0  0  0  0  0  0  0  0  0  0  0  0
   12.1641  -17.9600   19.3448 N   0  0  0  0  0  0  0  0  0  0  0  0
    9.7869  -16.6333   23.4866 C   0  0  0  0  0  0  0  0  0  0  0  0
   10.3433  -15.6062   23.9518 O   0  0  0  0  0  0  0  0  0  0  0  0
    9.0769  -17.4709   24.3627 N   0  0  0  0  0  0  0  0  0  0  0  0
    9.0022  -17.2784   25.7952 C   0  0  1  0  0  0  0  0  0  0  0  0
    7.5896  -17.5930   26.2672 C   0  0  0  0  0  0  0  0  0  0  0  0
    6.4201  -16.9545   25.0642 S   0  0  0  0  0  0  0  0  0  0  0  0
   10.0088  -18.1147   26.5058 C   0  0  0  0  0  0  0  0  0  0  0  0
   10.7431  -18.9252   25.8932 O   0  0  0  0  0  0  0  0  0  0  0  0
   10.1755  -18.0295   27.8851 O   0  0  0  0  0  0  0  0  0  0  0  0
  2  1  1  0
  3  2  2  0
  4  3  1  0
  5 11  1  0
  5  4  2  0
  6  5  1  0
  7  9  1  0
  7  6  1  0
  7  8  1  6
  9 10  2  0
 11 12  2  0
 12  2  1  0
 13 14  1  0
 13  9  1  0
 14 15  1  1
 16 15  1  0
 17 16  2  0
 18 19  1  0
 18 17  1  0
 19 20  2  0
 20 16  1  0
 21 22  2  0
 21 14  1  0
 23 21  1  0
 24 23  1  0
 24 27  1  0
 24 25  1  1
 26 25  1  0
 27 29  1  0
 28 27  2  0
M  END
$$$$
