YHC.pdb
     RDKit          3D

 29 30  0  0  1  0  0  0  0  0999 V2000
    5.2821  -10.2402   27.0256 O   0  0  0  0  0  0  0  0  0  0  0  0
    5.9407  -11.4258   26.6635 C   0  0  0  0  0  0  0  0  0  0  0  0
    5.5214  -12.6313   27.1657 C   0  0  0  0  0  0  0  0  0  0  0  0
    6.1652  -13.7896   26.8116 C   0  0  0  0  0  0  0  0  0  0  0  0
    7.2475  -13.8123   25.9496 C   0  0  0  0  0  0  0  0  0  0  0  0
    7.9200  -15.0903   25.5892 C   0  0  0  0  0  0  0  0  0  0  0  0
    7.4069  -15.4896   24.2333 C   0  0  2  0  0  0  0  0  0  0  0  0
    6.2989  -16.3876   24.4282 N   0  0  0  0  0  0  0  0  0  0  0  0
    8.4037  -16.0937   23.3621 C   0  0  0  0  0  0  0  0  0  0  0  0
    8.5410  -17.3415   23.3838 O   0  0  0  0  0  0  0  0  0  0  0  0
    7.6600  -12.5931   25.4510 C   0  0  0  0  0  0  0  0  0  0  0  0
    7.0166  -11.4112   25.8015 C   0  0  0  0  0  0  0  0  0  0  0  0
    9.2515  -15.3807   22.4717 N   0  0  0  0  0  0  0  0  0  0  0  0
   10.2616  -15.9509   21.6497 C   0  0  1  0  0  0  0  0  0  0  0  0
   10.6260  -15.1388   20.4438 C   0  0  0  0  0  0  0  0  0  0  0  0
    9.4501  -14.6935   19.6662 C   0  0  0  0  0  0  0  0  0  0  0  0
    8.6676  -15.5603   18.9313 C   0  0  0  0  0  0  0  0  0  0  0  0
    7.6923  -14.8853   18.3436 N   0  0  0  0  0  0  0  0  0  0  0  0
    7.8429  -13.5909   18.6959 C   0  0  0  0  0  0  0  0  0  0  0  0
    8.9183  -13.4758   19.5047 N   0  0  0  0  0  0  0  0  0  0  0  0
   11.4662  -16.3296   22.4331 C   0  0  0  0  0  0  0  0  0  0  0  0
   12.1206  -15.4055   22.9796 O   0  0  0  0  0  0  0  0  0  0  0  0
   11.9073  -17.6538   22.5929 N   0  0  0  0  0  0  0  0  0  0  0  0
   12.3269  -18.2280   23.8534 C   0  0  1  0  0  0  0  0  0  0  0  0
   11.1808  -18.1322   24.8506 C   0  0  0  0  0  0  0  0  0  0  0  0
   11.8422  -18.2919   26.5118 S   0  0  0  0  0  0  0  0  0  0  0  0
   12.7780  -19.6368   23.6815 C   0  0  0  0  0  0  0  0  0  0  0  0
   12.1466  -20.4482   22.9643 O   0  0  0  0  0  0  0  0  0  0  0  0
   13.9239  -20.1112   24.3133 O   0  0  0  0  0  0  0  0  0  0  0  0
  2  1  1  0
  3  2  2  0
  4  3  1  0
  5 11  1  0
  5  4  2  0
  6  5  1  0
  7  9  1  0
  7  6  1  0
  7  8  1  1
  9 10  2  0
 11 12  2  0
 12  2  1  0
 13 14  1  0
 13  9  1  0
 14 15  1  6
 16 15  1  0
 17 16  2  0
 18 19  1  0
 18 17  1  0
 19 20  2  0
 20 16  1  0
 21 22  2  0
 21 14  1  0
 23 21  1  0
 24 23  1  0
 24 27  1  0
 24 25  1  1
 26 25  1  0
 27 29  1  0
 28 27  2  0
M  END
$$$$
