YHC.pdb
     RDKit          3D

 29 30  0  0  1  0  0  0  0  0999 V2000
    6.5045  -11.9887   19.0267 O   0  0  0  0  0  0  0  0  0  0  0  0
    7.5086  -12.9494   19.2253 C   0  0  0  0  0  0  0  0  0  0  0  0
    8.1234  -13.0655   20.4459 C   0  0  0  0  0  0  0  0  0  0  0  0
    9.1044  -14.0045   20.6395 C   0  0  0  0  0  0  0  0  0  0  0  0
    9.5225  -14.8684   19.6426 C   0  0  0  0  0  0  0  0  0  0  0  0
   10.5908  -15.8744   19.8917 C   0  0  0  0  0  0  0  0  0  0  0  0
    9.9062  -17.1536   20.2868 C   0  0  2  0  0  0  0  0  0  0  0  0
    8.9254  -17.4583   19.2782 N   0  0  0  0  0  0  0  0  0  0  0  0
    9.2893  -17.1287   21.6045 C   0  0  0  0  0  0  0  0  0  0  0  0
    8.0649  -16.8637   21.6880 O   0  0  0  0  0  0  0  0  0  0  0  0
    8.8964  -14.7418   18.4190 C   0  0  0  0  0  0  0  0  0  0  0  0
    7.9004  -13.7944   18.2088 C   0  0  0  0  0  0  0  0  0  0  0  0
    9.9650  -17.3833   22.8287 N   0  0  0  0  0  0  0  0  0  0  0  0
    9.3725  -17.3835   24.1210 C   0  0  1  0  0  0  0  0  0  0  0  0
    9.5094  -18.6704   24.8771 C   0  0  0  0  0  0  0  0  0  0  0  0
    8.8128  -18.6549   26.1811 C   0  0  0  0  0  0  0  0  0  0  0  0
    7.6172  -17.9964   26.3824 C   0  0  0  0  0  0  0  0  0  0  0  0
    7.2318  -18.1539   27.6389 N   0  0  0  0  0  0  0  0  0  0  0  0
    8.1716  -18.9090   28.2462 C   0  0  0  0  0  0  0  0  0  0  0  0
    9.1374  -19.2143   27.3530 N   0  0  0  0  0  0  0  0  0  0  0  0
    9.8199  -16.2247   24.9367 C   0  0  0  0  0  0  0  0  0  0  0  0
   10.8108  -15.5695   24.5247 O   0  0  0  0  0  0  0  0  0  0  0  0
    9.1990  -15.8275   26.1326 N   0  0  0  0  0  0  0  0  0  0  0  0
    9.6377  -14.7170   26.9506 C   0  0  1  0  0  0  0  0  0  0  0  0
    8.6945  -13.5408   26.7411 C   0  0  0  0  0  0  0  0  0  0  0  0
    7.0277  -14.0497   27.1718 S   0  0  0  0  0  0  0  0  0  0  0  0
    9.7126  -15.1011   28.3874 C   0  0  0  0  0  0  0  0  0  0  0  0
    9.2025  -16.1642   28.8130 O   0  0  0  0  0  0  0  0  0  0  0  0
   10.3548  -14.2913   29.3197 O   0  0  0  0  0  0  0  0  0  0  0  0
  2  1  1  0
  3  2  2  0
  4  3  1  0
  5 11  1  0
  5  4  2  0
  6  5  1  0
  7  9  1  0
  7  6  1  0
  7  8  1  6
  9 10  2  0
 11 12  2  0
 12  2  1  0
 13 14  1  0
 13  9  1  0
 14 15  1  1
 16 15  1  0
 17 16  2  0
 18 19  1  0
 18 17  1  0
 19 20  2  0
 20 16  1  0
 21 22  2  0
 21 14  1  0
 23 21  1  0
 24 23  1  0
 24 27  1  0
 24 25  1  1
 26 25  1  0
 27 29  1  0
 28 27  2  0
M  END
$$$$
