YHC.pdb
     RDKit          3D

 29 30  0  0  1  0  0  0  0  0999 V2000
    6.5647  -11.7113   18.1999 O   0  0  0  0  0  0  0  0  0  0  0  0
    7.1346  -12.6328   19.0924 C   0  0  0  0  0  0  0  0  0  0  0  0
    8.4961  -12.7890   19.1500 C   0  0  0  0  0  0  0  0  0  0  0  0
    9.0526  -13.6895   20.0222 C   0  0  0  0  0  0  0  0  0  0  0  0
    8.2953  -14.4740   20.8743 C   0  0  0  0  0  0  0  0  0  0  0  0
    8.9366  -15.4404   21.8071 C   0  0  0  0  0  0  0  0  0  0  0  0
    9.2406  -16.6811   21.0138 C   0  0  2  0  0  0  0  0  0  0  0  0
    7.9898  -17.3187   20.6959 N   0  0  0  0  0  0  0  0  0  0  0  0
   10.1355  -17.6190   21.6750 C   0  0  0  0  0  0  0  0  0  0  0  0
    9.6699  -18.3558   22.5787 O   0  0  0  0  0  0  0  0  0  0  0  0
    6.9267  -14.3077   20.8071 C   0  0  0  0  0  0  0  0  0  0  0  0
    6.3492  -13.3985   19.9276 C   0  0  0  0  0  0  0  0  0  0  0  0
   11.5171  -17.7766   21.3813 N   0  0  0  0  0  0  0  0  0  0  0  0
   12.4030  -18.6900   22.0153 C   0  0  1  0  0  0  0  0  0  0  0  0
   13.7320  -18.8504   21.3410 C   0  0  0  0  0  0  0  0  0  0  0  0
   14.5799  -19.8870   21.9674 C   0  0  0  0  0  0  0  0  0  0  0  0
   14.5740  -20.1385   23.3240 C   0  0  0  0  0  0  0  0  0  0  0  0
   15.4270  -21.1133   23.5966 N   0  0  0  0  0  0  0  0  0  0  0  0
   15.9807  -21.4898   22.4245 C   0  0  0  0  0  0  0  0  0  0  0  0
   15.4613  -20.7387   21.4295 N   0  0  0  0  0  0  0  0  0  0  0  0
   12.5614  -18.3950   23.4631 C   0  0  0  0  0  0  0  0  0  0  0  0
   13.1916  -17.3544   23.7806 O   0  0  0  0  0  0  0  0  0  0  0  0
   12.0484  -19.2108   24.4852 N   0  0  0  0  0  0  0  0  0  0  0  0
   12.2372  -18.9643   25.8989 C   0  0  1  0  0  0  0  0  0  0  0  0
   10.9010  -18.5839   26.5211 C   0  0  0  0  0  0  0  0  0  0  0  0
   10.4307  -16.9539   25.9342 S   0  0  0  0  0  0  0  0  0  0  0  0
   12.8331  -20.1477   26.5786 C   0  0  0  0  0  0  0  0  0  0  0  0
   13.1012  -20.1388   27.8032 O   0  0  0  0  0  0  0  0  0  0  0  0
   13.1176  -21.3165   25.8783 O   0  0  0  0  0  0  0  0  0  0  0  0
  2  1  1  0
  3  2  2  0
  4  3  1  0
  5 11  1  0
  5  4  2  0
  6  5  1  0
  7  9  1  0
  7  6  1  0
  7  8  1  1
  9 10  2  0
 11 12  2  0
 12  2  1  0
 13 14  1  0
 13  9  1  0
 14 15  1  6
 16 15  1  0
 17 16  2  0
 18 19  1  0
 18 17  1  0
 19 20  2  0
 20 16  1  0
 21 22  2  0
 21 14  1  0
 23 21  1  0
 24 23  1  0
 24 27  1  0
 24 25  1  1
 26 25  1  0
 27 29  1  0
 28 27  2  0
M  END
$$$$
