YHC.pdb
     RDKit          3D

 29 30  0  0  1  0  0  0  0  0999 V2000
    7.1532  -11.8989   17.5832 O   0  0  0  0  0  0  0  0  0  0  0  0
    7.7511  -12.6952   18.5726 C   0  0  0  0  0  0  0  0  0  0  0  0
    9.1026  -12.6233   18.7953 C   0  0  0  0  0  0  0  0  0  0  0  0
    9.6864  -13.4015   19.7623 C   0  0  0  0  0  0  0  0  0  0  0  0
    8.9675  -14.2827   20.5506 C   0  0  0  0  0  0  0  0  0  0  0  0
    9.6376  -15.1107   21.5903 C   0  0  0  0  0  0  0  0  0  0  0  0
   10.6626  -15.9557   20.8856 C   0  0  2  0  0  0  0  0  0  0  0  0
    9.9712  -16.7844   19.9331 N   0  0  0  0  0  0  0  0  0  0  0  0
   11.4847  -16.7714   21.7667 C   0  0  0  0  0  0  0  0  0  0  0  0
   10.9683  -17.7831   22.3016 O   0  0  0  0  0  0  0  0  0  0  0  0
    7.6086  -14.3460   20.3171 C   0  0  0  0  0  0  0  0  0  0  0  0
    7.0036  -13.5628   19.3402 C   0  0  0  0  0  0  0  0  0  0  0  0
   12.8474  -16.5178   22.0805 N   0  0  0  0  0  0  0  0  0  0  0  0
   13.6360  -17.2475   23.0115 C   0  0  1  0  0  0  0  0  0  0  0  0
   15.1149  -17.0391   22.8849 C   0  0  0  0  0  0  0  0  0  0  0  0
   15.6392  -17.3925   21.5485 C   0  0  0  0  0  0  0  0  0  0  0  0
   15.5164  -18.6557   21.0072 C   0  0  0  0  0  0  0  0  0  0  0  0
   16.0751  -18.6787   19.8074 N   0  0  0  0  0  0  0  0  0  0  0  0
   16.5560  -17.4391   19.5742 C   0  0  0  0  0  0  0  0  0  0  0  0
   16.2883  -16.6542   20.6402 N   0  0  0  0  0  0  0  0  0  0  0  0
   13.1768  -17.0411   24.4096 C   0  0  0  0  0  0  0  0  0  0  0  0
   13.4363  -15.9367   24.9515 O   0  0  0  0  0  0  0  0  0  0  0  0
   12.4745  -18.0068   25.1496 N   0  0  0  0  0  0  0  0  0  0  0  0
   11.9828  -17.8052   26.4959 C   0  0  1  0  0  0  0  0  0  0  0  0
   10.4651  -17.9225   26.4948 C   0  0  0  0  0  0  0  0  0  0  0  0
    9.7779  -16.5522   25.5606 S   0  0  0  0  0  0  0  0  0  0  0  0
   12.5993  -18.7716   27.4464 C   0  0  0  0  0  0  0  0  0  0  0  0
   13.3868  -19.6665   27.0585 O   0  0  0  0  0  0  0  0  0  0  0  0
   12.3247  -18.7197   28.8100 O   0  0  0  0  0  0  0  0  0  0  0  0
  2  1  1  0
  3  2  2  0
  4  3  1  0
  5 11  1  0
  5  4  2  0
  6  5  1  0
  7  9  1  0
  7  6  1  0
  7  8  1  6
  9 10  2  0
 11 12  2  0
 12  2  1  0
 13 14  1  0
 13  9  1  0
 14 15  1  1
 16 15  1  0
 17 16  2  0
 18 19  1  0
 18 17  1  0
 19 20  2  0
 20 16  1  0
 21 22  2  0
 21 14  1  0
 23 21  1  0
 24 23  1  0
 24 27  1  0
 24 25  1  6
 26 25  1  0
 27 29  1  0
 28 27  2  0
M  END
$$$$
