HGQ.pdb
     RDKit          3D

 24 24  0  0  1  0  0  0  0  0999 V2000
    9.1449  -17.1967   19.9832 N   0  0  0  0  0  0  0  0  0  0  0  0
    8.7815  -16.3733   21.0951 C   0  0  1  0  0  0  0  0  0  0  0  0
    7.5326  -15.5798   20.7931 C   0  0  0  0  0  0  0  0  0  0  0  0
    7.8392  -14.3886   19.9810 C   0  0  0  0  0  0  0  0  0  0  0  0
    9.0523  -13.9783   19.4866 C   0  0  0  0  0  0  0  0  0  0  0  0
    8.8817  -12.8196   18.7876 N   0  0  0  0  0  0  0  0  0  0  0  0
    7.5740  -12.5127   18.8472 C   0  0  0  0  0  0  0  0  0  0  0  0
    6.9462  -13.4772   19.5783 N   0  0  0  0  0  0  0  0  0  0  0  0
    8.6307  -17.2224   22.2986 C   0  0  0  0  0  0  0  0  0  0  0  0
    7.6808  -18.0262   22.3774 O   0  0  0  0  0  0  0  0  0  0  0  0
    9.5368  -17.1492   23.3686 N   0  0  0  0  0  0  0  0  0  0  0  0
    9.3889  -17.9507   24.5922 C   0  0  0  0  0  0  0  0  0  0  0  0
   10.4437  -17.5756   25.5634 C   0  0  0  0  0  0  0  0  0  0  0  0
   11.5967  -17.2942   25.1657 O   0  0  0  0  0  0  0  0  0  0  0  0
    9.6825  -13.4422   29.7115 N   0  0  0  0  0  0  0  0  0  0  0  0
    9.3134  -13.7747   28.3918 C   0  0  0  0  0  0  0  0  0  0  0  0
    8.5621  -12.9573   27.7855 O   0  0  0  0  0  0  0  0  0  0  0  0
    9.7504  -14.9989   27.7051 C   0  0  0  0  0  0  0  0  0  0  0  0
   10.6012  -15.8753   28.5461 C   0  0  0  0  0  0  0  0  0  0  0  0
   11.1545  -17.0930   27.8807 C   0  0  2  0  0  0  0  0  0  0  0  0
   10.1235  -17.5422   26.9393 N   0  0  0  0  0  0  0  0  0  0  0  0
   11.3429  -18.2136   28.8670 C   0  0  0  0  0  0  0  0  0  0  0  0
   12.2381  -18.1144   29.7400 O   0  0  0  0  0  0  0  0  0  0  0  0
   10.5547  -19.3526   28.8380 O   0  0  0  0  0  0  0  0  0  0  0  0
  2  1  1  6
  3  2  1  0
  4  3  1  0
  5  4  2  0
  6  5  1  0
  7  8  2  0
  7  6  1  0
  8  4  1  0
  9 11  1  0
  9  2  1  0
 10  9  2  0
 12 13  1  0
 12 11  1  0
 13 21  1  0
 14 13  2  0
 16 17  2  0
 16 15  1  0
 18 16  1  0
 19 18  1  0
 20 19  1  1
 21 20  1  0
 22 24  1  0
 22 20  1  0
 23 22  2  0
M  END
$$$$
