HGQ.pdb
     RDKit          3D

 24 24  0  0  1  0  0  0  0  0999 V2000
   10.6220  -15.3673   20.4352 N   0  0  0  0  0  0  0  0  0  0  0  0
    9.3254  -15.4344   21.0356 C   0  0  1  0  0  0  0  0  0  0  0  0
    8.2721  -15.7741   20.0080 C   0  0  0  0  0  0  0  0  0  0  0  0
    8.0895  -14.6732   19.0453 C   0  0  0  0  0  0  0  0  0  0  0  0
    8.7513  -13.4721   18.9823 C   0  0  0  0  0  0  0  0  0  0  0  0
    8.2669  -12.7490   17.9321 N   0  0  0  0  0  0  0  0  0  0  0  0
    7.3125  -13.4944   17.3478 C   0  0  0  0  0  0  0  0  0  0  0  0
    7.2120  -14.6674   18.0353 N   0  0  0  0  0  0  0  0  0  0  0  0
    9.3570  -16.4076   22.1510 C   0  0  0  0  0  0  0  0  0  0  0  0
   10.2530  -17.2736   22.1954 O   0  0  0  0  0  0  0  0  0  0  0  0
    8.3960  -16.3849   23.1743 N   0  0  0  0  0  0  0  0  0  0  0  0
    8.4285  -17.3101   24.3165 C   0  0  0  0  0  0  0  0  0  0  0  0
    9.1630  -16.6857   25.4421 C   0  0  0  0  0  0  0  0  0  0  0  0
   10.4093  -16.7793   25.5118 O   0  0  0  0  0  0  0  0  0  0  0  0
    6.4923  -11.6703   27.8437 N   0  0  0  0  0  0  0  0  0  0  0  0
    6.7505  -12.1746   26.5525 C   0  0  0  0  0  0  0  0  0  0  0  0
    6.2007  -11.5744   25.5842 O   0  0  0  0  0  0  0  0  0  0  0  0
    7.6082  -13.3385   26.2864 C   0  0  0  0  0  0  0  0  0  0  0  0
    8.2495  -13.8895   27.5048 C   0  0  0  0  0  0  0  0  0  0  0  0
    9.1584  -15.0574   27.3013 C   0  0  2  0  0  0  0  0  0  0  0  0
    8.4325  -15.9867   26.4292 N   0  0  0  0  0  0  0  0  0  0  0  0
    9.3990  -15.7909   28.5929 C   0  0  0  0  0  0  0  0  0  0  0  0
   10.0720  -15.2356   29.4940 O   0  0  0  0  0  0  0  0  0  0  0  0
    8.8978  -17.0633   28.8148 O   0  0  0  0  0  0  0  0  0  0  0  0
  2  1  1  6
  3  2  1  0
  4  3  1  0
  5  4  2  0
  6  5  1  0
  7  8  2  0
  7  6  1  0
  8  4  1  0
  9 11  1  0
  9  2  1  0
 10  9  2  0
 12 13  1  0
 12 11  1  0
 13 21  1  0
 14 13  2  0
 16 17  2  0
 16 15  1  0
 18 16  1  0
 19 18  1  0
 20 19  1  1
 21 20  1  0
 22 24  1  0
 22 20  1  0
 23 22  2  0
M  END
$$$$
