HGQ.pdb
     RDKit          3D

 24 24  0  0  1  0  0  0  0  0999 V2000
    9.4906  -16.5601   18.8137 N   0  0  0  0  0  0  0  0  0  0  0  0
    8.7366  -15.6321   19.5991 C   0  0  1  0  0  0  0  0  0  0  0  0
    7.5121  -15.1621   18.8505 C   0  0  0  0  0  0  0  0  0  0  0  0
    7.8719  -14.5987   17.5370 C   0  0  0  0  0  0  0  0  0  0  0  0
    8.4967  -13.4086   17.2576 C   0  0  0  0  0  0  0  0  0  0  0  0
    8.6347  -13.2822   15.9065 N   0  0  0  0  0  0  0  0  0  0  0  0
    8.1004  -14.3841   15.3514 C   0  0  0  0  0  0  0  0  0  0  0  0
    7.6374  -15.1816   16.3556 N   0  0  0  0  0  0  0  0  0  0  0  0
    8.3961  -16.2590   20.8965 C   0  0  0  0  0  0  0  0  0  0  0  0
    8.4335  -17.4995   21.0165 O   0  0  0  0  0  0  0  0  0  0  0  0
    8.0271  -15.4890   22.0110 N   0  0  0  0  0  0  0  0  0  0  0  0
    7.7386  -16.0803   23.3258 C   0  0  0  0  0  0  0  0  0  0  0  0
    8.5958  -15.4468   24.3554 C   0  0  0  0  0  0  0  0  0  0  0  0
    9.6387  -14.8400   24.0223 O   0  0  0  0  0  0  0  0  0  0  0  0
    6.1793  -11.9833   28.4420 N   0  0  0  0  0  0  0  0  0  0  0  0
    6.3992  -12.0027   27.0493 C   0  0  0  0  0  0  0  0  0  0  0  0
    5.7427  -11.1732   26.3556 O   0  0  0  0  0  0  0  0  0  0  0  0
    7.3332  -12.9214   26.3824 C   0  0  0  0  0  0  0  0  0  0  0  0
    8.0520  -13.8163   27.3214 C   0  0  0  0  0  0  0  0  0  0  0  0
    8.9960  -14.7970   26.7061 C   0  0  2  0  0  0  0  0  0  0  0  0
    8.2145  -15.5410   25.7129 N   0  0  0  0  0  0  0  0  0  0  0  0
    9.4658  -15.8075   27.7171 C   0  0  0  0  0  0  0  0  0  0  0  0
    8.9149  -16.9337   27.7560 O   0  0  0  0  0  0  0  0  0  0  0  0
   10.4905  -15.5288   28.6070 O   0  0  0  0  0  0  0  0  0  0  0  0
  2  1  1  6
  3  2  1  0
  4  3  1  0
  5  4  2  0
  6  5  1  0
  7  8  2  0
  7  6  1  0
  8  4  1  0
  9 11  1  0
  9  2  1  0
 10  9  2  0
 12 13  1  0
 12 11  1  0
 13 21  1  0
 14 13  2  0
 16 17  2  0
 16 15  1  0
 18 16  1  0
 19 18  1  0
 20 19  1  1
 21 20  1  0
 22 24  1  0
 22 20  1  0
 23 22  2  0
M  END
$$$$
