HGQ.pdb
     RDKit          3D

 24 24  0  0  1  0  0  0  0  0999 V2000
    8.5013  -14.8829   20.5188 N   0  0  0  0  0  0  0  0  0  0  0  0
    8.4755  -16.2424   20.0745 C   0  0  1  0  0  0  0  0  0  0  0  0
    9.1539  -16.3842   18.7327 C   0  0  0  0  0  0  0  0  0  0  0  0
    8.6018  -15.4333   17.7513 C   0  0  0  0  0  0  0  0  0  0  0  0
    7.5942  -15.6314   16.8402 C   0  0  0  0  0  0  0  0  0  0  0  0
    7.4031  -14.4839   16.1280 N   0  0  0  0  0  0  0  0  0  0  0  0
    8.2843  -13.5808   16.5927 C   0  0  0  0  0  0  0  0  0  0  0  0
    9.0115  -14.1706   17.5837 N   0  0  0  0  0  0  0  0  0  0  0  0
    9.0920  -17.1029   21.1097 C   0  0  0  0  0  0  0  0  0  0  0  0
    9.1155  -18.3401   20.9567 O   0  0  0  0  0  0  0  0  0  0  0  0
    9.6587  -16.5612   22.2744 N   0  0  0  0  0  0  0  0  0  0  0  0
   10.0658  -17.3883   23.4198 C   0  0  0  0  0  0  0  0  0  0  0  0
   10.4567  -16.5142   24.5509 C   0  0  0  0  0  0  0  0  0  0  0  0
   11.4300  -15.7351   24.4396 O   0  0  0  0  0  0  0  0  0  0  0  0
    5.9884  -13.3032   25.9513 N   0  0  0  0  0  0  0  0  0  0  0  0
    7.0411  -12.6771   26.6499 C   0  0  0  0  0  0  0  0  0  0  0  0
    6.8463  -11.4861   27.0293 O   0  0  0  0  0  0  0  0  0  0  0  0
    8.3243  -13.3289   26.9496 C   0  0  0  0  0  0  0  0  0  0  0  0
    8.4279  -14.7050   26.4065 C   0  0  0  0  0  0  0  0  0  0  0  0
    9.7250  -15.4093   26.6370 C   0  0  2  0  0  0  0  0  0  0  0  0
    9.7129  -16.5777   25.7508 N   0  0  0  0  0  0  0  0  0  0  0  0
    9.8113  -15.9446   28.0406 C   0  0  0  0  0  0  0  0  0  0  0  0
    9.3841  -17.0992   28.2810 O   0  0  0  0  0  0  0  0  0  0  0  0
   10.3498  -15.1974   29.0757 O   0  0  0  0  0  0  0  0  0  0  0  0
  2  1  1  1
  3  2  1  0
  4  3  1  0
  5  4  2  0
  6  5  1  0
  7  8  2  0
  7  6  1  0
  8  4  1  0
  9 11  1  0
  9  2  1  0
 10  9  2  0
 12 13  1  0
 12 11  1  0
 13 21  1  0
 14 13  2  0
 16 17  2  0
 16 15  1  0
 18 16  1  0
 19 18  1  0
 20 19  1  1
 21 20  1  0
 22 24  1  0
 22 20  1  0
 23 22  2  0
M  END
$$$$
