HGQ.pdb
     RDKit          3D

 24 24  0  0  1  0  0  0  0  0999 V2000
    7.8617  -16.9661   20.1168 N   0  0  0  0  0  0  0  0  0  0  0  0
    9.2793  -16.9795   20.3087 C   0  0  1  0  0  0  0  0  0  0  0  0
    9.9172  -15.7527   19.7015 C   0  0  0  0  0  0  0  0  0  0  0  0
    8.9178  -14.6990   19.4502 C   0  0  0  0  0  0  0  0  0  0  0  0
    8.3441  -13.8316   20.3463 C   0  0  0  0  0  0  0  0  0  0  0  0
    7.4690  -13.0202   19.6859 N   0  0  0  0  0  0  0  0  0  0  0  0
    7.4987  -13.3804   18.3908 C   0  0  0  0  0  0  0  0  0  0  0  0
    8.3866  -14.4064   18.2575 N   0  0  0  0  0  0  0  0  0  0  0  0
    9.5719  -17.1081   21.7544 C   0  0  0  0  0  0  0  0  0  0  0  0
   10.7300  -17.3726   22.1333 O   0  0  0  0  0  0  0  0  0  0  0  0
    8.5718  -16.9389   22.7251 N   0  0  0  0  0  0  0  0  0  0  0  0
    8.7533  -17.3302   24.1306 C   0  0  0  0  0  0  0  0  0  0  0  0
    9.3337  -16.1986   24.8914 C   0  0  0  0  0  0  0  0  0  0  0  0
   10.4431  -15.7205   24.5635 O   0  0  0  0  0  0  0  0  0  0  0  0
    5.8761  -11.0100   25.5604 N   0  0  0  0  0  0  0  0  0  0  0  0
    6.3725  -12.0330   26.3943 C   0  0  0  0  0  0  0  0  0  0  0  0
    5.9046  -12.0905   27.5682 O   0  0  0  0  0  0  0  0  0  0  0  0
    7.3852  -13.0115   25.9726 C   0  0  0  0  0  0  0  0  0  0  0  0
    8.0895  -13.6576   27.1065 C   0  0  0  0  0  0  0  0  0  0  0  0
    9.2148  -14.5728   26.7491 C   0  0  2  0  0  0  0  0  0  0  0  0
    8.6140  -15.6732   25.9881 N   0  0  0  0  0  0  0  0  0  0  0  0
    9.8235  -15.1921   27.9779 C   0  0  0  0  0  0  0  0  0  0  0  0
    9.4830  -16.3530   28.3091 O   0  0  0  0  0  0  0  0  0  0  0  0
   10.7503  -14.5155   28.7543 O   0  0  0  0  0  0  0  0  0  0  0  0
  2  1  1  1
  3  2  1  0
  4  3  1  0
  5  4  2  0
  6  5  1  0
  7  8  2  0
  7  6  1  0
  8  4  1  0
  9 11  1  0
  9  2  1  0
 10  9  2  0
 12 13  1  0
 12 11  1  0
 13 21  1  0
 14 13  2  0
 16 17  2  0
 16 15  1  0
 18 16  1  0
 19 18  1  0
 20 19  1  1
 21 20  1  0
 22 24  1  0
 22 20  1  0
 23 22  2  0
M  END
$$$$
