HGQ.pdb
     RDKit          3D

 24 24  0  0  1  0  0  0  0  0999 V2000
    9.3561  -15.9455   19.4834 N   0  0  0  0  0  0  0  0  0  0  0  0
    8.7448  -15.0764   20.4411 C   0  0  1  0  0  0  0  0  0  0  0  0
    7.4088  -14.5790   19.9426 C   0  0  0  0  0  0  0  0  0  0  0  0
    7.5085  -14.0711   18.5626 C   0  0  0  0  0  0  0  0  0  0  0  0
    7.9392  -12.8409   18.1318 C   0  0  0  0  0  0  0  0  0  0  0  0
    7.8683  -12.7936   16.7705 N   0  0  0  0  0  0  0  0  0  0  0  0
    7.3977  -13.9840   16.3592 C   0  0  0  0  0  0  0  0  0  0  0  0
    7.1812  -14.7569   17.4613 N   0  0  0  0  0  0  0  0  0  0  0  0
    8.6331  -15.7843   21.7368 C   0  0  0  0  0  0  0  0  0  0  0  0
    8.2226  -15.1755   22.7446 O   0  0  0  0  0  0  0  0  0  0  0  0
    8.9800  -17.1384   21.8673 N   0  0  0  0  0  0  0  0  0  0  0  0
    8.8110  -17.8853   23.1224 C   0  0  0  0  0  0  0  0  0  0  0  0
    9.8862  -17.5129   24.0718 C   0  0  0  0  0  0  0  0  0  0  0  0
   11.0565  -17.3385   23.6635 O   0  0  0  0  0  0  0  0  0  0  0  0
    9.0052  -13.3546   28.4510 N   0  0  0  0  0  0  0  0  0  0  0  0
   10.0707  -14.1170   28.9724 C   0  0  0  0  0  0  0  0  0  0  0  0
   10.4214  -13.8698   30.1624 O   0  0  0  0  0  0  0  0  0  0  0  0
   10.7763  -15.1603   28.2143 C   0  0  0  0  0  0  0  0  0  0  0  0
    9.9654  -15.7434   27.1180 C   0  0  0  0  0  0  0  0  0  0  0  0
   10.6030  -16.8493   26.3422 C   0  0  2  0  0  0  0  0  0  0  0  0
    9.5656  -17.3593   25.4395 N   0  0  0  0  0  0  0  0  0  0  0  0
   10.9820  -17.9955   27.2403 C   0  0  0  0  0  0  0  0  0  0  0  0
   10.1636  -18.9296   27.4165 O   0  0  0  0  0  0  0  0  0  0  0  0
   12.2107  -18.0481   27.8785 O   0  0  0  0  0  0  0  0  0  0  0  0
  2  1  1  6
  3  2  1  0
  4  3  1  0
  5  4  2  0
  6  5  1  0
  7  8  2  0
  7  6  1  0
  8  4  1  0
  9 11  1  0
  9  2  1  0
 10  9  2  0
 12 13  1  0
 12 11  1  0
 13 21  1  0
 14 13  2  0
 16 17  2  0
 16 15  1  0
 18 16  1  0
 19 18  1  0
 20 19  1  1
 21 20  1  0
 22 24  1  0
 22 20  1  0
 23 22  2  0
M  END
$$$$
