HGQ.pdb
     RDKit          3D

 24 24  0  0  1  0  0  0  0  0999 V2000
    7.0068  -14.9425   22.8829 N   0  0  0  0  0  0  0  0  0  0  0  0
    6.4481  -15.9548   22.0406 C   0  0  1  0  0  0  0  0  0  0  0  0
    7.0954  -15.9389   20.6762 C   0  0  0  0  0  0  0  0  0  0  0  0
    7.4748  -14.5708   20.2803 C   0  0  0  0  0  0  0  0  0  0  0  0
    6.7941  -13.3978   20.4933 C   0  0  0  0  0  0  0  0  0  0  0  0
    7.5066  -12.3641   19.9603 N   0  0  0  0  0  0  0  0  0  0  0  0
    8.6202  -12.8903   19.4209 C   0  0  0  0  0  0  0  0  0  0  0  0
    8.5911  -14.2385   19.6218 N   0  0  0  0  0  0  0  0  0  0  0  0
    6.5790  -17.2692   22.7095 C   0  0  0  0  0  0  0  0  0  0  0  0
    6.1797  -18.3016   22.1355 O   0  0  0  0  0  0  0  0  0  0  0  0
    7.1467  -17.3906   23.9879 N   0  0  0  0  0  0  0  0  0  0  0  0
    7.1705  -18.6594   24.7303 C   0  0  0  0  0  0  0  0  0  0  0  0
    7.8855  -18.4711   26.0147 C   0  0  0  0  0  0  0  0  0  0  0  0
    8.1568  -19.4571   26.7366 O   0  0  0  0  0  0  0  0  0  0  0  0
    9.2766  -13.0031   28.7262 N   0  0  0  0  0  0  0  0  0  0  0  0
    8.7679  -13.2499   27.4344 C   0  0  0  0  0  0  0  0  0  0  0  0
    8.2010  -12.2823   26.8491 O   0  0  0  0  0  0  0  0  0  0  0  0
    8.8632  -14.5492   26.7533 C   0  0  0  0  0  0  0  0  0  0  0  0
    9.5869  -15.5764   27.5410 C   0  0  0  0  0  0  0  0  0  0  0  0
    9.5876  -16.9601   26.9779 C   0  0  2  0  0  0  0  0  0  0  0  0
    8.2526  -17.1638   26.4059 N   0  0  0  0  0  0  0  0  0  0  0  0
    9.7431  -17.9893   28.0644 C   0  0  0  0  0  0  0  0  0  0  0  0
    8.7707  -18.7289   28.3485 O   0  0  0  0  0  0  0  0  0  0  0  0
   10.9312  -18.1431   28.7604 O   0  0  0  0  0  0  0  0  0  0  0  0
  2  1  1  1
  3  2  1  0
  4  3  1  0
  5  4  2  0
  6  5  1  0
  7  8  2  0
  7  6  1  0
  8  4  1  0
  9 11  1  0
  9  2  1  0
 10  9  2  0
 12 13  1  0
 12 11  1  0
 13 21  1  0
 14 13  2  0
 16 17  2  0
 16 15  1  0
 18 16  1  0
 19 18  1  0
 20 19  1  1
 21 20  1  0
 22 24  1  0
 22 20  1  0
 23 22  2  0
M  END
$$$$
