HGQ.pdb
     RDKit          3D

 24 24  0  0  1  0  0  0  0  0999 V2000
    8.3012  -17.1411   18.7650 N   0  0  0  0  0  0  0  0  0  0  0  0
    8.2770  -16.3240   19.9389 C   0  0  1  0  0  0  0  0  0  0  0  0
    7.1295  -15.3434   19.8898 C   0  0  0  0  0  0  0  0  0  0  0  0
    7.3245  -14.3449   18.8234 C   0  0  0  0  0  0  0  0  0  0  0  0
    6.5372  -14.0990   17.7260 C   0  0  0  0  0  0  0  0  0  0  0  0
    7.0887  -13.0862   16.9977 N   0  0  0  0  0  0  0  0  0  0  0  0
    8.2089  -12.7062   17.6370 C   0  0  0  0  0  0  0  0  0  0  0  0
    8.3437  -13.4811   18.7507 N   0  0  0  0  0  0  0  0  0  0  0  0
    8.2215  -17.1947   21.1351 C   0  0  0  0  0  0  0  0  0  0  0  0
    7.4072  -18.1379   21.1804 O   0  0  0  0  0  0  0  0  0  0  0  0
    9.0692  -16.9882   22.2351 N   0  0  0  0  0  0  0  0  0  0  0  0
    9.0017  -17.8051   23.4556 C   0  0  0  0  0  0  0  0  0  0  0  0
    9.9936  -17.3119   24.4401 C   0  0  0  0  0  0  0  0  0  0  0  0
   10.9819  -16.6442   24.0602 O   0  0  0  0  0  0  0  0  0  0  0  0
    8.9722  -13.7430   28.6534 N   0  0  0  0  0  0  0  0  0  0  0  0
   10.0925  -14.3336   29.2733 C   0  0  0  0  0  0  0  0  0  0  0  0
   10.6140  -13.6988   30.2352 O   0  0  0  0  0  0  0  0  0  0  0  0
   10.6689  -15.6220   28.8624 C   0  0  0  0  0  0  0  0  0  0  0  0
    9.9281  -16.2733   27.7550 C   0  0  0  0  0  0  0  0  0  0  0  0
   10.7498  -17.0497   26.7784 C   0  0  2  0  0  0  0  0  0  0  0  0
    9.8024  -17.6087   25.8084 N   0  0  0  0  0  0  0  0  0  0  0  0
   11.4174  -18.2237   27.4416 C   0  0  0  0  0  0  0  0  0  0  0  0
   12.5119  -18.0516   28.0295 O   0  0  0  0  0  0  0  0  0  0  0  0
   10.8567  -19.4905   27.4209 O   0  0  0  0  0  0  0  0  0  0  0  0
  2  1  1  6
  3  2  1  0
  4  3  1  0
  5  4  2  0
  6  5  1  0
  7  8  2  0
  7  6  1  0
  8  4  1  0
  9 11  1  0
  9  2  1  0
 10  9  2  0
 12 13  1  0
 12 11  1  0
 13 21  1  0
 14 13  2  0
 16 17  2  0
 16 15  1  0
 18 16  1  0
 19 18  1  0
 20 19  1  1
 21 20  1  0
 22 24  1  0
 22 20  1  0
 23 22  2  0
M  END
$$$$
