HGQ.pdb
     RDKit          3D

 24 24  0  0  1  0  0  0  0  0999 V2000
    9.6961  -15.7357   19.4288 N   0  0  0  0  0  0  0  0  0  0  0  0
    8.7316  -14.9620   20.1481 C   0  0  1  0  0  0  0  0  0  0  0  0
    7.4248  -14.8931   19.3942 C   0  0  0  0  0  0  0  0  0  0  0  0
    7.6293  -14.4254   18.0115 C   0  0  0  0  0  0  0  0  0  0  0  0
    8.0748  -13.2012   17.5786 C   0  0  0  0  0  0  0  0  0  0  0  0
    8.1149  -13.1963   16.2152 N   0  0  0  0  0  0  0  0  0  0  0  0
    7.6978  -14.4068   15.8047 C   0  0  0  0  0  0  0  0  0  0  0  0
    7.4038  -15.1498   16.9094 N   0  0  0  0  0  0  0  0  0  0  0  0
    8.5681  -15.5307   21.5054 C   0  0  0  0  0  0  0  0  0  0  0  0
    7.7491  -15.0241   22.2973 O   0  0  0  0  0  0  0  0  0  0  0  0
    9.3173  -16.6381   21.9340 N   0  0  0  0  0  0  0  0  0  0  0  0
    9.2068  -17.1966   23.2895 C   0  0  0  0  0  0  0  0  0  0  0  0
    9.7291  -16.2200   24.2743 C   0  0  0  0  0  0  0  0  0  0  0  0
   10.6730  -15.4574   23.9673 O   0  0  0  0  0  0  0  0  0  0  0  0
    5.6990  -12.6771   26.3646 N   0  0  0  0  0  0  0  0  0  0  0  0
    6.8440  -12.1852   27.0244 C   0  0  0  0  0  0  0  0  0  0  0  0
    6.7497  -11.0416   27.5567 O   0  0  0  0  0  0  0  0  0  0  0  0
    8.1122  -12.9226   27.1191 C   0  0  0  0  0  0  0  0  0  0  0  0
    8.1166  -14.1900   26.3489 C   0  0  0  0  0  0  0  0  0  0  0  0
    9.3849  -14.9785   26.3834 C   0  0  2  0  0  0  0  0  0  0  0  0
    9.1436  -16.1674   25.5593 N   0  0  0  0  0  0  0  0  0  0  0  0
    9.6765  -15.4792   27.7720 C   0  0  0  0  0  0  0  0  0  0  0  0
    9.3152  -16.6370   28.0919 O   0  0  0  0  0  0  0  0  0  0  0  0
   10.3334  -14.6967   28.7079 O   0  0  0  0  0  0  0  0  0  0  0  0
  2  1  1  6
  3  2  1  0
  4  3  1  0
  5  4  2  0
  6  5  1  0
  7  8  2  0
  7  6  1  0
  8  4  1  0
  9 11  1  0
  9  2  1  0
 10  9  2  0
 12 13  1  0
 12 11  1  0
 13 21  1  0
 14 13  2  0
 16 17  2  0
 16 15  1  0
 18 16  1  0
 19 18  1  0
 20 19  1  1
 21 20  1  0
 22 24  1  0
 22 20  1  0
 23 22  2  0
M  END
$$$$
