HGQ.pdb
     RDKit          3D

 24 24  0  0  1  0  0  0  0  0999 V2000
    8.1136  -16.0092   20.8098 N   0  0  0  0  0  0  0  0  0  0  0  0
    9.4647  -15.6017   20.5754 C   0  0  1  0  0  0  0  0  0  0  0  0
    9.5212  -14.1695   20.0994 C   0  0  0  0  0  0  0  0  0  0  0  0
    8.7184  -13.9800   18.8780 C   0  0  0  0  0  0  0  0  0  0  0  0
    7.5219  -13.3228   18.7330 C   0  0  0  0  0  0  0  0  0  0  0  0
    7.1305  -13.3889   17.4280 N   0  0  0  0  0  0  0  0  0  0  0  0
    8.0756  -14.0812   16.7681 C   0  0  0  0  0  0  0  0  0  0  0  0
    9.0408  -14.4375   17.6626 N   0  0  0  0  0  0  0  0  0  0  0  0
   10.2568  -15.8160   21.8078 C   0  0  0  0  0  0  0  0  0  0  0  0
   11.4420  -15.4322   21.8598 O   0  0  0  0  0  0  0  0  0  0  0  0
    9.7070  -16.4469   22.9351 N   0  0  0  0  0  0  0  0  0  0  0  0
   10.5040  -16.7916   24.1215 C   0  0  0  0  0  0  0  0  0  0  0  0
    9.9124  -16.1536   25.3211 C   0  0  0  0  0  0  0  0  0  0  0  0
    8.6791  -16.2153   25.5255 O   0  0  0  0  0  0  0  0  0  0  0  0
    6.1081  -13.6632   26.9301 N   0  0  0  0  0  0  0  0  0  0  0  0
    7.1816  -12.7733   26.7203 C   0  0  0  0  0  0  0  0  0  0  0  0
    6.8847  -11.5764   26.4386 O   0  0  0  0  0  0  0  0  0  0  0  0
    8.5960  -13.1637   26.8107 C   0  0  0  0  0  0  0  0  0  0  0  0
    8.7928  -14.5868   27.1784 C   0  0  0  0  0  0  0  0  0  0  0  0
   10.1944  -15.0003   27.4888 C   0  0  2  0  0  0  0  0  0  0  0  0
   10.7636  -15.4781   26.2244 N   0  0  0  0  0  0  0  0  0  0  0  0
   10.2194  -16.1718   28.4327 C   0  0  0  0  0  0  0  0  0  0  0  0
   10.1898  -17.3347   27.9634 O   0  0  0  0  0  0  0  0  0  0  0  0
   10.2743  -16.0020   29.8066 O   0  0  0  0  0  0  0  0  0  0  0  0
  2  1  1  1
  3  2  1  0
  4  3  1  0
  5  4  2  0
  6  5  1  0
  7  8  2  0
  7  6  1  0
  8  4  1  0
  9 11  1  0
  9  2  1  0
 10  9  2  0
 12 13  1  0
 12 11  1  0
 13 21  1  0
 14 13  2  0
 16 17  2  0
 16 15  1  0
 18 16  1  0
 19 18  1  0
 20 19  1  6
 21 20  1  0
 22 24  1  0
 22 20  1  0
 23 22  2  0
M  END
$$$$
