HGQ.pdb
     RDKit          3D

 24 24  0  0  1  0  0  0  0  0999 V2000
   11.2066  -24.8415   31.1692 N   0  0  0  0  0  0  0  0  0  0  0  0
   12.4836  -24.2246   31.3562 C   0  0  1  0  0  0  0  0  0  0  0  0
   12.4253  -23.1849   32.4500 C   0  0  0  0  0  0  0  0  0  0  0  0
   12.9074  -21.8771   31.9708 C   0  0  0  0  0  0  0  0  0  0  0  0
   12.6044  -21.2296   30.7989 C   0  0  0  0  0  0  0  0  0  0  0  0
   13.2720  -20.0408   30.7590 N   0  0  0  0  0  0  0  0  0  0  0  0
   13.9835  -19.9506   31.8963 C   0  0  0  0  0  0  0  0  0  0  0  0
   13.7540  -21.0770   32.6293 N   0  0  0  0  0  0  0  0  0  0  0  0
   13.4931  -25.2725   31.6302 C   0  0  0  0  0  0  0  0  0  0  0  0
   13.2106  -26.2270   32.3811 O   0  0  0  0  0  0  0  0  0  0  0  0
   14.7763  -25.2239   31.0625 N   0  0  0  0  0  0  0  0  0  0  0  0
   15.8061  -26.2368   31.3366 C   0  0  0  0  0  0  0  0  0  0  0  0
   16.5746  -25.8514   32.5437 C   0  0  0  0  0  0  0  0  0  0  0  0
   17.6275  -26.4588   32.8423 O   0  0  0  0  0  0  0  0  0  0  0  0
   19.5853  -23.3268   35.6126 N   0  0  0  0  0  0  0  0  0  0  0  0
   19.3139  -22.5853   34.4443 C   0  0  0  0  0  0  0  0  0  0  0  0
   20.3035  -22.0544   33.8619 O   0  0  0  0  0  0  0  0  0  0  0  0
   17.9661  -22.4046   33.8860 C   0  0  0  0  0  0  0  0  0  0  0  0
   16.8996  -23.0301   34.7049 C   0  0  0  0  0  0  0  0  0  0  0  0
   16.7836  -24.5166   34.6132 C   0  0  2  0  0  0  0  0  0  0  0  0
   16.0976  -24.7906   33.3462 N   0  0  0  0  0  0  0  0  0  0  0  0
   15.8966  -25.0610   35.7000 C   0  0  0  0  0  0  0  0  0  0  0  0
   14.7541  -25.4835   35.4012 O   0  0  0  0  0  0  0  0  0  0  0  0
   16.3069  -25.1086   37.0225 O   0  0  0  0  0  0  0  0  0  0  0  0
  2  1  1  1
  3  2  1  0
  4  3  1  0
  5  4  2  0
  6  5  1  0
  7  8  2  0
  7  6  1  0
  8  4  1  0
  9 11  1  0
  9  2  1  0
 10  9  2  0
 12 13  1  0
 12 11  1  0
 13 21  1  0
 14 13  2  0
 16 17  2  0
 16 15  1  0
 18 16  1  0
 19 18  1  0
 20 19  1  1
 21 20  1  0
 22 24  1  0
 22 20  1  0
 23 22  2  0
M  END
$$$$
