HGQ.pdb
     RDKit          3D

 24 24  0  0  1  0  0  0  0  0999 V2000
    8.6028  -19.2691   20.1677 N   0  0  0  0  0  0  0  0  0  0  0  0
    7.6261  -19.5916   21.1618 C   0  0  1  0  0  0  0  0  0  0  0  0
    7.5995  -21.0777   21.4295 C   0  0  0  0  0  0  0  0  0  0  0  0
    7.2343  -21.8329   20.2176 C   0  0  0  0  0  0  0  0  0  0  0  0
    6.1282  -21.6861   19.4179 C   0  0  0  0  0  0  0  0  0  0  0  0
    6.1880  -22.5930   18.4008 N   0  0  0  0  0  0  0  0  0  0  0  0
    7.3214  -23.2970   18.5672 C   0  0  0  0  0  0  0  0  0  0  0  0
    7.9530  -22.8250   19.6795 N   0  0  0  0  0  0  0  0  0  0  0  0
    7.9012  -18.8049   22.3856 C   0  0  0  0  0  0  0  0  0  0  0  0
    9.0780  -18.6177   22.7529 O   0  0  0  0  0  0  0  0  0  0  0  0
    6.8637  -18.2557   23.1556 N   0  0  0  0  0  0  0  0  0  0  0  0
    7.1072  -17.4811   24.3813 C   0  0  0  0  0  0  0  0  0  0  0  0
    7.5052  -18.3958   25.4773 C   0  0  0  0  0  0  0  0  0  0  0  0
    6.9414  -19.5056   25.6094 O   0  0  0  0  0  0  0  0  0  0  0  0
   10.2489  -21.5689   23.9815 N   0  0  0  0  0  0  0  0  0  0  0  0
   10.3876  -22.0064   25.3148 C   0  0  0  0  0  0  0  0  0  0  0  0
   11.0350  -23.0772   25.5004 O   0  0  0  0  0  0  0  0  0  0  0  0
    9.8270  -21.2926   26.4713 C   0  0  0  0  0  0  0  0  0  0  0  0
   10.0222  -19.8238   26.4093 C   0  0  0  0  0  0  0  0  0  0  0  0
    9.1091  -19.0005   27.2578 C   0  0  2  0  0  0  0  0  0  0  0  0
    8.5280  -17.9925   26.3650 N   0  0  0  0  0  0  0  0  0  0  0  0
    9.8771  -18.2432   28.3069 C   0  0  0  0  0  0  0  0  0  0  0  0
   10.2594  -17.0746   28.0590 O   0  0  0  0  0  0  0  0  0  0  0  0
   10.1739  -18.8009   29.5400 O   0  0  0  0  0  0  0  0  0  0  0  0
  2  1  1  6
  3  2  1  0
  4  3  1  0
  5  4  2  0
  6  5  1  0
  7  8  2  0
  7  6  1  0
  8  4  1  0
  9 11  1  0
  9  2  1  0
 10  9  2  0
 12 13  1  0
 12 11  1  0
 13 21  1  0
 14 13  2  0
 16 17  2  0
 16 15  1  0
 18 16  1  0
 19 18  1  0
 20 19  1  6
 21 20  1  0
 22 24  1  0
 22 20  1  0
 23 22  2  0
M  END
$$$$
