HGQ.pdb
     RDKit          3D

 24 24  0  0  1  0  0  0  0  0999 V2000
    9.7709  -14.5361   19.8600 N   0  0  0  0  0  0  0  0  0  0  0  0
    8.5298  -15.1967   20.1237 C   0  0  1  0  0  0  0  0  0  0  0  0
    8.0499  -15.9493   18.9055 C   0  0  0  0  0  0  0  0  0  0  0  0
    8.0393  -15.0840   17.7123 C   0  0  0  0  0  0  0  0  0  0  0  0
    8.4952  -13.7955   17.5849 C   0  0  0  0  0  0  0  0  0  0  0  0
    8.2903  -13.3731   16.3042 N   0  0  0  0  0  0  0  0  0  0  0  0
    7.7122  -14.3904   15.6419 C   0  0  0  0  0  0  0  0  0  0  0  0
    7.5633  -15.4305   16.5108 N   0  0  0  0  0  0  0  0  0  0  0  0
    8.6905  -16.0788   21.3020 C   0  0  0  0  0  0  0  0  0  0  0  0
    7.7042  -16.6864   21.7630 O   0  0  0  0  0  0  0  0  0  0  0  0
    9.9365  -16.2544   21.9247 N   0  0  0  0  0  0  0  0  0  0  0  0
   10.1375  -17.1696   23.0577 C   0  0  0  0  0  0  0  0  0  0  0  0
   10.1562  -16.3986   24.3232 C   0  0  0  0  0  0  0  0  0  0  0  0
   11.0694  -16.5804   25.1596 O   0  0  0  0  0  0  0  0  0  0  0  0
    5.6171  -12.2142   25.8320 N   0  0  0  0  0  0  0  0  0  0  0  0
    6.5575  -12.1091   26.8774 C   0  0  0  0  0  0  0  0  0  0  0  0
    6.2890  -11.2954   27.8079 O   0  0  0  0  0  0  0  0  0  0  0  0
    7.8063  -12.8828   26.9336 C   0  0  0  0  0  0  0  0  0  0  0  0
    8.0443  -13.7075   25.7243 C   0  0  0  0  0  0  0  0  0  0  0  0
    9.2022  -14.6494   25.7855 C   0  0  2  0  0  0  0  0  0  0  0  0
    9.1284  -15.4595   24.5651 N   0  0  0  0  0  0  0  0  0  0  0  0
    9.0636  -15.6075   26.9374 C   0  0  0  0  0  0  0  0  0  0  0  0
    8.3974  -16.6586   26.7805 O   0  0  0  0  0  0  0  0  0  0  0  0
    9.6518  -15.3610   28.1674 O   0  0  0  0  0  0  0  0  0  0  0  0
  2  1  1  6
  3  2  1  0
  4  3  1  0
  5  4  2  0
  6  5  1  0
  7  8  2  0
  7  6  1  0
  8  4  1  0
  9 11  1  0
  9  2  1  0
 10  9  2  0
 12 13  1  0
 12 11  1  0
 13 21  1  0
 14 13  2  0
 16 17  2  0
 16 15  1  0
 18 16  1  0
 19 18  1  0
 20 19  1  6
 21 20  1  0
 22 24  1  0
 22 20  1  0
 23 22  2  0
M  END
$$$$
