HGQ.pdb
     RDKit          3D

 24 24  0  0  1  0  0  0  0  0999 V2000
    9.8103  -15.3312   19.1660 N   0  0  0  0  0  0  0  0  0  0  0  0
    8.6373  -14.8836   19.8515 C   0  0  1  0  0  0  0  0  0  0  0  0
    7.4048  -15.0919   19.0040 C   0  0  0  0  0  0  0  0  0  0  0  0
    7.5992  -14.5687   17.6399 C   0  0  0  0  0  0  0  0  0  0  0  0
    7.8071  -13.2715   17.2418 C   0  0  0  0  0  0  0  0  0  0  0  0
    7.9366  -13.2354   15.8845 N   0  0  0  0  0  0  0  0  0  0  0  0
    7.8101  -14.4992   15.4432 C   0  0  0  0  0  0  0  0  0  0  0  0
    7.6044  -15.3056   16.5231 N   0  0  0  0  0  0  0  0  0  0  0  0
    8.5449  -15.5752   21.1574 C   0  0  0  0  0  0  0  0  0  0  0  0
    7.5848  -15.3420   21.9180 O   0  0  0  0  0  0  0  0  0  0  0  0
    9.5184  -16.4982   21.5714 N   0  0  0  0  0  0  0  0  0  0  0  0
    9.5155  -17.1119   22.9074 C   0  0  0  0  0  0  0  0  0  0  0  0
    9.8026  -16.0787   23.9303 C   0  0  0  0  0  0  0  0  0  0  0  0
   10.7821  -15.3112   23.7947 O   0  0  0  0  0  0  0  0  0  0  0  0
    6.4029  -10.8851   27.4081 N   0  0  0  0  0  0  0  0  0  0  0  0
    6.6009  -12.1465   26.8097 C   0  0  0  0  0  0  0  0  0  0  0  0
    5.6208  -12.6408   26.1810 O   0  0  0  0  0  0  0  0  0  0  0  0
    7.8636  -12.8958   26.8819 C   0  0  0  0  0  0  0  0  0  0  0  0
    7.9035  -14.0727   25.9805 C   0  0  0  0  0  0  0  0  0  0  0  0
    9.1681  -14.8679   25.9893 C   0  0  2  0  0  0  0  0  0  0  0  0
    8.9534  -15.9780   25.0553 N   0  0  0  0  0  0  0  0  0  0  0  0
    9.4096  -15.4909   27.3375 C   0  0  0  0  0  0  0  0  0  0  0  0
    9.0350  -16.6705   27.5408 O   0  0  0  0  0  0  0  0  0  0  0  0
   10.0345  -14.7975   28.3613 O   0  0  0  0  0  0  0  0  0  0  0  0
  2  1  1  6
  3  2  1  0
  4  3  1  0
  5  4  2  0
  6  5  1  0
  7  8  2  0
  7  6  1  0
  8  4  1  0
  9 11  1  0
  9  2  1  0
 10  9  2  0
 12 13  1  0
 12 11  1  0
 13 21  1  0
 14 13  2  0
 16 17  2  0
 16 15  1  0
 18 16  1  0
 19 18  1  0
 20 19  1  1
 21 20  1  0
 22 24  1  0
 22 20  1  0
 23 22  2  0
M  END
$$$$
