HGQ.pdb
     RDKit          3D

 24 24  0  0  1  0  0  0  0  0999 V2000
    6.6863  -16.8631   19.9989 N   0  0  0  0  0  0  0  0  0  0  0  0
    6.9388  -16.3940   21.3265 C   0  0  1  0  0  0  0  0  0  0  0  0
    6.6540  -14.9151   21.4392 C   0  0  0  0  0  0  0  0  0  0  0  0
    7.4572  -14.1410   20.4760 C   0  0  0  0  0  0  0  0  0  0  0  0
    8.3820  -14.5974   19.5700 C   0  0  0  0  0  0  0  0  0  0  0  0
    8.8889  -13.5382   18.8761 N   0  0  0  0  0  0  0  0  0  0  0  0
    8.2843  -12.4333   19.3469 C   0  0  0  0  0  0  0  0  0  0  0  0
    7.4118  -12.8124   20.3236 N   0  0  0  0  0  0  0  0  0  0  0  0
    6.1417  -17.1945   22.2837 C   0  0  0  0  0  0  0  0  0  0  0  0
    4.8963  -17.1710   22.2281 O   0  0  0  0  0  0  0  0  0  0  0  0
    6.7535  -17.9900   23.2655 N   0  0  0  0  0  0  0  0  0  0  0  0
    6.7129  -17.6580   24.6971 C   0  0  0  0  0  0  0  0  0  0  0  0
    8.0133  -17.0801   25.1111 C   0  0  0  0  0  0  0  0  0  0  0  0
    8.5022  -16.1129   24.4848 O   0  0  0  0  0  0  0  0  0  0  0  0
   10.4608  -14.5492   30.6087 N   0  0  0  0  0  0  0  0  0  0  0  0
    9.7222  -14.4591   29.4110 C   0  0  0  0  0  0  0  0  0  0  0  0
    9.5724  -13.3039   28.9177 O   0  0  0  0  0  0  0  0  0  0  0  0
    9.1318  -15.6181   28.7261 C   0  0  0  0  0  0  0  0  0  0  0  0
    9.4163  -15.6515   27.2710 C   0  0  0  0  0  0  0  0  0  0  0  0
    9.8852  -16.9586   26.7203 C   0  0  2  0  0  0  0  0  0  0  0  0
    8.6862  -17.6395   26.2207 N   0  0  0  0  0  0  0  0  0  0  0  0
   10.4477  -17.8358   27.8057 C   0  0  0  0  0  0  0  0  0  0  0  0
    9.7057  -18.6912   28.3452 O   0  0  0  0  0  0  0  0  0  0  0  0
   11.7632  -17.7250   28.2262 O   0  0  0  0  0  0  0  0  0  0  0  0
  2  1  1  6
  3  2  1  0
  4  3  1  0
  5  4  2  0
  6  5  1  0
  7  8  2  0
  7  6  1  0
  8  4  1  0
  9 11  1  0
  9  2  1  0
 10  9  2  0
 12 13  1  0
 12 11  1  0
 13 21  1  0
 14 13  2  0
 16 17  2  0
 16 15  1  0
 18 16  1  0
 19 18  1  0
 20 19  1  1
 21 20  1  0
 22 24  1  0
 22 20  1  0
 23 22  2  0
M  END
$$$$
