SLM.pdb
     RDKit          3D

 23 22  0  0  1  0  0  0  0  0999 V2000
    8.5128  -18.9566   19.5628 O   0  0  0  0  0  0  0  0  0  0  0  0
    8.8777  -18.2229   20.6904 C   0  0  0  0  0  0  0  0  0  0  0  0
    8.8045  -16.7488   20.3587 C   0  0  2  0  0  0  0  0  0  0  0  0
    9.7960  -16.4841   19.3345 N   0  0  0  0  0  0  0  0  0  0  0  0
    9.0841  -15.9477   21.5865 C   0  0  0  0  0  0  0  0  0  0  0  0
   10.2495  -15.5236   21.7860 O   0  0  0  0  0  0  0  0  0  0  0  0
    5.8630  -13.2847   26.2568 C   0  0  0  0  0  0  0  0  0  0  0  0
    7.1405  -13.6564   25.5928 C   0  0  2  0  0  0  0  0  0  0  0  0
    7.9660  -12.4036   25.3481 C   0  0  0  0  0  0  0  0  0  0  0  0
    7.0407  -14.5096   24.3810 C   0  0  0  0  0  0  0  0  0  0  0  0
    8.3193  -14.9516   23.7590 C   0  0  2  0  0  0  0  0  0  0  0  0
    8.0689  -15.6590   22.5229 N   0  0  0  0  0  0  0  0  0  0  0  0
    8.9435  -15.9277   24.7073 C   0  0  0  0  0  0  0  0  0  0  0  0
    8.6244  -17.1489   24.6943 O   0  0  0  0  0  0  0  0  0  0  0  0
    9.8316  -12.8524   28.6877 C   0  0  0  0  0  0  0  0  0  0  0  0
   10.9256  -14.0217   29.5193 S   0  0  0  0  0  0  0  0  0  0  0  0
   10.7814  -15.6948   28.8362 C   0  0  0  0  0  0  0  0  0  0  0  0
   11.4566  -15.7044   27.4992 C   0  0  0  0  0  0  0  0  0  0  0  0
   10.6593  -16.4271   26.4868 C   0  0  2  0  0  0  0  0  0  0  0  0
    9.9009  -15.5072   25.6358 N   0  0  0  0  0  0  0  0  0  0  0  0
    9.7024  -17.3872   27.0449 C   0  0  0  0  0  0  0  0  0  0  0  0
   10.1416  -18.6263   27.5127 O   0  0  0  0  0  0  0  0  0  0  0  0
    8.4957  -17.1353   27.1183 O   0  0  0  0  0  0  0  0  0  0  0  0
  2  1  1  0
  3  5  1  0
  3  2  1  0
  3  4  1  6
  5  6  2  0
  8  7  1  6
  8  9  1  0
  8 10  1  0
 11 10  1  1
 11 13  1  0
 12 11  1  0
 12  5  1  0
 13 20  1  0
 13 14  2  0
 15 16  1  0
 16 17  1  0
 17 18  1  0
 19 18  1  1
 19 21  1  0
 20 19  1  0
 21 22  1  0
 23 21  2  0
M  END
$$$$
