SLM.pdb
     RDKit          3D

 23 22  0  0  1  0  0  0  0  0999 V2000
    8.6604  -18.5969   20.1899 O   0  0  0  0  0  0  0  0  0  0  0  0
    8.3333  -17.7998   21.2856 C   0  0  0  0  0  0  0  0  0  0  0  0
    8.6364  -16.3567   20.9477 C   0  0  2  0  0  0  0  0  0  0  0  0
    9.7492  -16.3527   20.0183 N   0  0  0  0  0  0  0  0  0  0  0  0
    8.9853  -15.6158   22.1954 C   0  0  0  0  0  0  0  0  0  0  0  0
   10.1838  -15.5817   22.5698 O   0  0  0  0  0  0  0  0  0  0  0  0
    5.9526  -12.4273   26.6803 C   0  0  0  0  0  0  0  0  0  0  0  0
    7.1680  -13.0987   26.1481 C   0  0  2  0  0  0  0  0  0  0  0  0
    8.3631  -12.1708   26.2950 C   0  0  0  0  0  0  0  0  0  0  0  0
    7.0692  -13.6766   24.7833 C   0  0  0  0  0  0  0  0  0  0  0  0
    8.2531  -14.4262   24.2800 C   0  0  2  0  0  0  0  0  0  0  0  0
    7.9989  -14.9561   22.9587 N   0  0  0  0  0  0  0  0  0  0  0  0
    8.4422  -15.5958   25.1955 C   0  0  0  0  0  0  0  0  0  0  0  0
    7.5894  -16.5245   25.2562 O   0  0  0  0  0  0  0  0  0  0  0  0
   12.8552  -19.2592   24.0886 C   0  0  0  0  0  0  0  0  0  0  0  0
   13.0199  -19.4612   25.8740 S   0  0  0  0  0  0  0  0  0  0  0  0
   11.6037  -18.7718   26.7717 C   0  0  0  0  0  0  0  0  0  0  0  0
   11.1636  -17.5334   26.0531 C   0  0  0  0  0  0  0  0  0  0  0  0
    9.9816  -16.9189   26.6920 C   0  0  2  0  0  0  0  0  0  0  0  0
    9.5749  -15.6879   26.0102 N   0  0  0  0  0  0  0  0  0  0  0  0
   10.1649  -16.5875   28.1082 C   0  0  0  0  0  0  0  0  0  0  0  0
   10.2016  -17.5998   29.0680 O   0  0  0  0  0  0  0  0  0  0  0  0
   10.2907  -15.4207   28.4925 O   0  0  0  0  0  0  0  0  0  0  0  0
  2  1  1  0
  3  5  1  0
  3  2  1  0
  3  4  1  6
  5  6  2  0
  8  7  1  6
  8  9  1  0
  8 10  1  0
 11 10  1  1
 11 13  1  0
 12 11  1  0
 12  5  1  0
 13 20  1  0
 13 14  2  0
 15 16  1  0
 16 17  1  0
 17 18  1  0
 19 18  1  6
 19 21  1  0
 20 19  1  0
 21 22  1  0
 23 21  2  0
M  END
$$$$
