SLM.pdb
     RDKit          3D

 23 22  0  0  1  0  0  0  0  0999 V2000
    9.1960  -18.8697   21.5830 O   0  0  0  0  0  0  0  0  0  0  0  0
    7.9509  -18.5022   21.0755 C   0  0  0  0  0  0  0  0  0  0  0  0
    8.0570  -17.1172   20.4764 C   0  0  2  0  0  0  0  0  0  0  0  0
    8.9577  -17.2018   19.3434 N   0  0  0  0  0  0  0  0  0  0  0  0
    8.5836  -16.1699   21.5024 C   0  0  0  0  0  0  0  0  0  0  0  0
    9.7719  -15.7727   21.4132 O   0  0  0  0  0  0  0  0  0  0  0  0
    6.2945  -12.7025   26.1852 C   0  0  0  0  0  0  0  0  0  0  0  0
    7.4338  -13.1944   25.3660 C   0  0  2  0  0  0  0  0  0  0  0  0
    8.2691  -12.0125   24.9008 C   0  0  0  0  0  0  0  0  0  0  0  0
    7.1060  -14.1235   24.2543 C   0  0  0  0  0  0  0  0  0  0  0  0
    8.2493  -14.7882   23.5703 C   0  0  2  0  0  0  0  0  0  0  0  0
    7.7757  -15.7143   22.5657 N   0  0  0  0  0  0  0  0  0  0  0  0
    8.9633  -15.5936   24.6111 C   0  0  0  0  0  0  0  0  0  0  0  0
    8.3831  -16.5311   25.2258 O   0  0  0  0  0  0  0  0  0  0  0  0
    9.2067  -13.4496   29.4608 C   0  0  0  0  0  0  0  0  0  0  0  0
   10.3331  -14.7509   30.0025 S   0  0  0  0  0  0  0  0  0  0  0  0
   11.0357  -15.6695   28.6064 C   0  0  0  0  0  0  0  0  0  0  0  0
   10.4869  -15.0773   27.3447 C   0  0  0  0  0  0  0  0  0  0  0  0
   10.9514  -15.8085   26.1478 C   0  0  2  0  0  0  0  0  0  0  0  0
   10.2982  -15.3248   24.9292 N   0  0  0  0  0  0  0  0  0  0  0  0
   10.7386  -17.2577   26.2055 C   0  0  0  0  0  0  0  0  0  0  0  0
   11.7954  -18.1339   25.9550 O   0  0  0  0  0  0  0  0  0  0  0  0
    9.6352  -17.7433   26.4734 O   0  0  0  0  0  0  0  0  0  0  0  0
  2  1  1  0
  3  5  1  0
  3  2  1  0
  3  4  1  6
  5  6  2  0
  8  7  1  6
  8  9  1  0
  8 10  1  0
 11 10  1  1
 11 13  1  0
 12 11  1  0
 12  5  1  0
 13 20  1  0
 13 14  2  0
 15 16  1  0
 16 17  1  0
 17 18  1  0
 19 18  1  1
 19 21  1  0
 20 19  1  0
 21 22  1  0
 23 21  2  0
M  END
$$$$
