SLM.pdb
     RDKit          3D

 23 22  0  0  1  0  0  0  0  0999 V2000
    9.8841  -19.9996   21.3941 O   0  0  0  0  0  0  0  0  0  0  0  0
    8.6873  -19.7759   20.7154 C   0  0  0  0  0  0  0  0  0  0  0  0
    8.9286  -18.7584   19.6223 C   0  0  2  0  0  0  0  0  0  0  0  0
   10.0067  -19.2597   18.7925 N   0  0  0  0  0  0  0  0  0  0  0  0
    9.2963  -17.4478   20.2342 C   0  0  0  0  0  0  0  0  0  0  0  0
   10.5053  -17.1090   20.2701 O   0  0  0  0  0  0  0  0  0  0  0  0
    9.0805  -13.1401   19.2574 C   0  0  0  0  0  0  0  0  0  0  0  0
    7.7631  -13.7152   19.6382 C   0  0  2  0  0  0  0  0  0  0  0  0
    6.6657  -12.7071   19.3373 C   0  0  0  0  0  0  0  0  0  0  0  0
    7.6498  -14.2775   21.0084 C   0  0  0  0  0  0  0  0  0  0  0  0
    8.6388  -15.3217   21.3937 C   0  0  2  0  0  0  0  0  0  0  0  0
    8.3162  -16.5862   20.7707 N   0  0  0  0  0  0  0  0  0  0  0  0
    8.5077  -15.5126   22.8730 C   0  0  0  0  0  0  0  0  0  0  0  0
    7.5744  -16.2066   23.3636 O   0  0  0  0  0  0  0  0  0  0  0  0
    6.5411  -10.6875   26.7299 C   0  0  0  0  0  0  0  0  0  0  0  0
    6.1542  -12.4483   26.8035 S   0  0  0  0  0  0  0  0  0  0  0  0
    7.6457  -13.4772   26.7448 C   0  0  0  0  0  0  0  0  0  0  0  0
    7.9087  -13.8228   25.3111 C   0  0  0  0  0  0  0  0  0  0  0  0
    9.1257  -14.6466   25.1595 C   0  0  2  0  0  0  0  0  0  0  0  0
    9.4217  -14.9231   23.7518 N   0  0  0  0  0  0  0  0  0  0  0  0
    9.0702  -15.9382   25.8506 C   0  0  0  0  0  0  0  0  0  0  0  0
    8.9747  -15.9876   27.2419 O   0  0  0  0  0  0  0  0  0  0  0  0
    9.1058  -17.0080   25.2345 O   0  0  0  0  0  0  0  0  0  0  0  0
  2  1  1  0
  3  5  1  0
  3  2  1  0
  3  4  1  6
  5  6  2  0
  8  7  1  1
  8  9  1  0
  8 10  1  0
 11 10  1  6
 11 13  1  0
 12 11  1  0
 12  5  1  0
 13 20  1  0
 13 14  2  0
 15 16  1  0
 16 17  1  0
 17 18  1  0
 19 18  1  6
 19 21  1  0
 20 19  1  0
 21 22  1  0
 23 21  2  0
M  END
$$$$
