SLM.pdb
     RDKit          3D

 23 22  0  0  1  0  0  0  0  0999 V2000
    6.8230  -18.3489   24.5634 O   0  0  0  0  0  0  0  0  0  0  0  0
    5.7686  -17.8323   23.8122 C   0  0  0  0  0  0  0  0  0  0  0  0
    6.0551  -18.0632   22.3448 C   0  0  2  0  0  0  0  0  0  0  0  0
    6.1841  -19.4938   22.1473 N   0  0  0  0  0  0  0  0  0  0  0  0
    7.3163  -17.3603   21.9671 C   0  0  0  0  0  0  0  0  0  0  0  0
    8.3696  -18.0301   21.8270 O   0  0  0  0  0  0  0  0  0  0  0  0
    8.6240  -14.2792   18.6229 C   0  0  0  0  0  0  0  0  0  0  0  0
    7.7809  -13.7087   19.7069 C   0  0  2  0  0  0  0  0  0  0  0  0
    7.4228  -12.2714   19.3651 C   0  0  0  0  0  0  0  0  0  0  0  0
    8.2928  -13.8459   21.0945 C   0  0  0  0  0  0  0  0  0  0  0  0
    8.5765  -15.2259   21.5763 C   0  0  2  0  0  0  0  0  0  0  0  0
    7.3476  -15.9642   21.7654 N   0  0  0  0  0  0  0  0  0  0  0  0
    9.2195  -15.0876   22.9215 C   0  0  0  0  0  0  0  0  0  0  0  0
   10.3540  -14.5502   23.0529 O   0  0  0  0  0  0  0  0  0  0  0  0
    6.0747  -11.4829   26.5971 C   0  0  0  0  0  0  0  0  0  0  0  0
    6.4856  -12.7579   27.8059 S   0  0  0  0  0  0  0  0  0  0  0  0
    7.9325  -13.7297   27.3069 C   0  0  0  0  0  0  0  0  0  0  0  0
    7.6881  -14.2368   25.9187 C   0  0  0  0  0  0  0  0  0  0  0  0
    8.8316  -15.0235   25.4126 C   0  0  2  0  0  0  0  0  0  0  0  0
    8.5744  -15.5534   24.0714 N   0  0  0  0  0  0  0  0  0  0  0  0
    9.2058  -16.1590   26.2608 C   0  0  0  0  0  0  0  0  0  0  0  0
    9.3463  -17.4328   25.7087 O   0  0  0  0  0  0  0  0  0  0  0  0
    9.4058  -16.0281   27.4724 O   0  0  0  0  0  0  0  0  0  0  0  0
  2  1  1  0
  3  5  1  0
  3  2  1  0
  3  4  1  1
  5  6  2  0
  8  7  1  6
  8  9  1  0
  8 10  1  0
 11 10  1  1
 11 13  1  0
 12 11  1  0
 12  5  1  0
 13 20  1  0
 13 14  2  0
 15 16  1  0
 16 17  1  0
 17 18  1  0
 19 18  1  1
 19 21  1  0
 20 19  1  0
 21 22  1  0
 23 21  2  0
M  END
$$$$
