SLM.pdb
     RDKit          3D

 23 22  0  0  1  0  0  0  0  0999 V2000
    6.3365  -18.7931   23.8430 O   0  0  0  0  0  0  0  0  0  0  0  0
    5.4086  -18.7295   22.8047 C   0  0  0  0  0  0  0  0  0  0  0  0
    6.1501  -18.5658   21.4964 C   0  0  2  0  0  0  0  0  0  0  0  0
    6.7589  -19.8430   21.1794 N   0  0  0  0  0  0  0  0  0  0  0  0
    7.1897  -17.5050   21.6424 C   0  0  0  0  0  0  0  0  0  0  0  0
    8.3403  -17.8275   22.0295 O   0  0  0  0  0  0  0  0  0  0  0  0
    9.0683  -14.0589   18.9512 C   0  0  0  0  0  0  0  0  0  0  0  0
    7.6781  -13.7953   19.4085 C   0  0  2  0  0  0  0  0  0  0  0  0
    7.1787  -12.5007   18.7876 C   0  0  0  0  0  0  0  0  0  0  0  0
    7.4348  -13.8470   20.8730 C   0  0  0  0  0  0  0  0  0  0  0  0
    7.8545  -15.0860   21.5840 C   0  0  2  0  0  0  0  0  0  0  0  0
    6.9057  -16.1531   21.3553 N   0  0  0  0  0  0  0  0  0  0  0  0
    7.8222  -14.7733   23.0479 C   0  0  0  0  0  0  0  0  0  0  0  0
    6.7959  -14.2757   23.5888 O   0  0  0  0  0  0  0  0  0  0  0  0
    7.2978  -11.0732   26.9083 C   0  0  0  0  0  0  0  0  0  0  0  0
    6.6656  -12.6122   27.6065 S   0  0  0  0  0  0  0  0  0  0  0  0
    7.7775  -14.0098   27.2949 C   0  0  0  0  0  0  0  0  0  0  0  0
    7.6933  -14.3472   25.8379 C   0  0  0  0  0  0  0  0  0  0  0  0
    9.0261  -14.6127   25.2581 C   0  0  2  0  0  0  0  0  0  0  0  0
    8.9350  -15.0265   23.8559 N   0  0  0  0  0  0  0  0  0  0  0  0
    9.7968  -15.6415   25.9626 C   0  0  0  0  0  0  0  0  0  0  0  0
   10.3381  -16.7187   25.2601 O   0  0  0  0  0  0  0  0  0  0  0  0
    9.9893  -15.5898   27.1814 O   0  0  0  0  0  0  0  0  0  0  0  0
  2  1  1  0
  3  5  1  0
  3  2  1  0
  3  4  1  1
  5  6  2  0
  8  7  1  1
  8  9  1  0
  8 10  1  0
 11 10  1  6
 11 13  1  0
 12 11  1  0
 12  5  1  0
 13 20  1  0
 13 14  2  0
 15 16  1  0
 16 17  1  0
 17 18  1  0
 19 18  1  1
 19 21  1  0
 20 19  1  0
 21 22  1  0
 23 21  2  0
M  END
$$$$
