SLM.pdb
     RDKit          3D

 23 22  0  0  1  0  0  0  0  0999 V2000
    9.2812  -18.9085   21.6606 O   0  0  0  0  0  0  0  0  0  0  0  0
    8.0287  -18.4879   21.2164 C   0  0  0  0  0  0  0  0  0  0  0  0
    8.1688  -17.1215   20.5825 C   0  0  2  0  0  0  0  0  0  0  0  0
    9.1562  -17.2318   19.5264 N   0  0  0  0  0  0  0  0  0  0  0  0
    8.6049  -16.1359   21.6148 C   0  0  0  0  0  0  0  0  0  0  0  0
    9.8104  -15.7851   21.6526 O   0  0  0  0  0  0  0  0  0  0  0  0
    8.4818  -12.5090   25.4288 C   0  0  0  0  0  0  0  0  0  0  0  0
    7.0946  -12.7542   24.9528 C   0  0  2  0  0  0  0  0  0  0  0  0
    6.1333  -12.6591   26.1266 C   0  0  0  0  0  0  0  0  0  0  0  0
    6.8726  -13.9789   24.1420 C   0  0  0  0  0  0  0  0  0  0  0  0
    8.0757  -14.6195   23.5429 C   0  0  2  0  0  0  0  0  0  0  0  0
    7.6929  -15.5933   22.5447 N   0  0  0  0  0  0  0  0  0  0  0  0
    8.7602  -15.3647   24.6465 C   0  0  0  0  0  0  0  0  0  0  0  0
    8.1768  -16.2956   25.2682 O   0  0  0  0  0  0  0  0  0  0  0  0
   10.4334  -13.2379   28.6863 C   0  0  0  0  0  0  0  0  0  0  0  0
   10.2593  -14.8312   29.5150 S   0  0  0  0  0  0  0  0  0  0  0  0
   10.7775  -16.2098   28.4578 C   0  0  0  0  0  0  0  0  0  0  0  0
    9.9818  -16.1407   27.1906 C   0  0  0  0  0  0  0  0  0  0  0  0
   10.8256  -15.7844   26.0314 C   0  0  2  0  0  0  0  0  0  0  0  0
   10.0701  -15.0453   25.0172 N   0  0  0  0  0  0  0  0  0  0  0  0
   11.4431  -16.9314   25.3590 C   0  0  0  0  0  0  0  0  0  0  0  0
   12.7789  -17.2533   25.6021 O   0  0  0  0  0  0  0  0  0  0  0  0
   10.8118  -17.6391   24.5680 O   0  0  0  0  0  0  0  0  0  0  0  0
  2  1  1  0
  3  5  1  0
  3  2  1  0
  3  4  1  6
  5  6  2  0
  8  7  1  1
  8  9  1  0
  8 10  1  0
 11 10  1  1
 11 13  1  0
 12 11  1  0
 12  5  1  0
 13 20  1  0
 13 14  2  0
 15 16  1  0
 16 17  1  0
 17 18  1  0
 19 18  1  1
 19 21  1  0
 20 19  1  0
 21 22  1  0
 23 21  2  0
M  END
$$$$
