SLM.pdb
     RDKit          3D

 23 22  0  0  1  0  0  0  0  0999 V2000
    7.5030  -19.4078   23.3231 O   0  0  0  0  0  0  0  0  0  0  0  0
    6.4386  -18.7846   22.6739 C   0  0  0  0  0  0  0  0  0  0  0  0
    6.8597  -18.4443   21.2613 C   0  0  2  0  0  0  0  0  0  0  0  0
    7.2819  -19.6768   20.6251 N   0  0  0  0  0  0  0  0  0  0  0  0
    7.9786  -17.4574   21.2994 C   0  0  0  0  0  0  0  0  0  0  0  0
    9.1523  -17.8576   21.0991 O   0  0  0  0  0  0  0  0  0  0  0  0
    8.4161  -14.1239   18.5562 C   0  0  0  0  0  0  0  0  0  0  0  0
    7.5882  -13.7668   19.7387 C   0  0  2  0  0  0  0  0  0  0  0  0
    6.8737  -12.4509   19.4766 C   0  0  0  0  0  0  0  0  0  0  0  0
    8.2667  -13.7848   21.0600 C   0  0  0  0  0  0  0  0  0  0  0  0
    8.7937  -15.0954   21.5308 C   0  0  2  0  0  0  0  0  0  0  0  0
    7.7440  -16.0897   21.5549 N   0  0  0  0  0  0  0  0  0  0  0  0
    9.2437  -14.8946   22.9447 C   0  0  0  0  0  0  0  0  0  0  0  0
    9.7453  -13.7999   23.3231 O   0  0  0  0  0  0  0  0  0  0  0  0
    6.9475  -11.2117   27.3825 C   0  0  0  0  0  0  0  0  0  0  0  0
    6.8134  -12.4875   26.1136 S   0  0  0  0  0  0  0  0  0  0  0  0
    7.5509  -14.0565   26.6436 C   0  0  0  0  0  0  0  0  0  0  0  0
    7.5239  -14.9940   25.4756 C   0  0  0  0  0  0  0  0  0  0  0  0
    8.8158  -15.6889   25.2997 C   0  0  2  0  0  0  0  0  0  0  0  0
    9.1184  -15.9216   23.8854 N   0  0  0  0  0  0  0  0  0  0  0  0
    8.9011  -16.9854   25.9783 C   0  0  0  0  0  0  0  0  0  0  0  0
    9.0541  -17.0449   27.3640 O   0  0  0  0  0  0  0  0  0  0  0  0
    8.8415  -18.0507   25.3563 O   0  0  0  0  0  0  0  0  0  0  0  0
  2  1  1  0
  3  5  1  0
  3  2  1  0
  3  4  1  1
  5  6  2  0
  8  7  1  6
  8  9  1  0
  8 10  1  0
 11 10  1  1
 11 13  1  0
 12 11  1  0
 12  5  1  0
 13 20  1  0
 13 14  2  0
 15 16  1  0
 16 17  1  0
 17 18  1  0
 19 18  1  6
 19 21  1  0
 20 19  1  0
 21 22  1  0
 23 21  2  0
M  END
$$$$
