SLM.pdb
     RDKit          3D

 23 22  0  0  1  0  0  0  0  0999 V2000
    7.1879  -19.5893   23.0583 O   0  0  0  0  0  0  0  0  0  0  0  0
    6.4050  -18.6336   22.4129 C   0  0  0  0  0  0  0  0  0  0  0  0
    6.9963  -18.3584   21.0480 C   0  0  2  0  0  0  0  0  0  0  0  0
    7.4603  -19.6234   20.5126 N   0  0  0  0  0  0  0  0  0  0  0  0
    8.1264  -17.3926   21.1805 C   0  0  0  0  0  0  0  0  0  0  0  0
    9.3040  -17.8296   21.1944 O   0  0  0  0  0  0  0  0  0  0  0  0
    8.6512  -13.8758   18.5102 C   0  0  0  0  0  0  0  0  0  0  0  0
    7.8342  -13.5526   19.7099 C   0  0  2  0  0  0  0  0  0  0  0  0
    7.1826  -12.1916   19.5259 C   0  0  0  0  0  0  0  0  0  0  0  0
    8.5039  -13.6816   21.0295 C   0  0  0  0  0  0  0  0  0  0  0  0
    8.9683  -15.0410   21.4212 C   0  0  2  0  0  0  0  0  0  0  0  0
    7.8981  -16.0045   21.2898 N   0  0  0  0  0  0  0  0  0  0  0  0
    9.3235  -14.9716   22.8741 C   0  0  0  0  0  0  0  0  0  0  0  0
   10.3312  -14.3237   23.2718 O   0  0  0  0  0  0  0  0  0  0  0  0
    7.0168  -11.2148   26.7315 C   0  0  0  0  0  0  0  0  0  0  0  0
    6.5184  -12.7495   27.5388 S   0  0  0  0  0  0  0  0  0  0  0  0
    7.6507  -14.1153   27.1656 C   0  0  0  0  0  0  0  0  0  0  0  0
    7.6322  -14.3349   25.6840 C   0  0  0  0  0  0  0  0  0  0  0  0
    8.6225  -15.3490   25.2670 C   0  0  2  0  0  0  0  0  0  0  0  0
    8.5425  -15.6271   23.8311 N   0  0  0  0  0  0  0  0  0  0  0  0
    8.5007  -16.6334   25.9629 C   0  0  0  0  0  0  0  0  0  0  0  0
    8.7758  -16.7222   27.3280 O   0  0  0  0  0  0  0  0  0  0  0  0
    8.1563  -17.6626   25.3737 O   0  0  0  0  0  0  0  0  0  0  0  0
  2  1  1  0
  3  5  1  0
  3  2  1  0
  3  4  1  1
  5  6  2  0
  8  7  1  6
  8  9  1  0
  8 10  1  0
 11 10  1  1
 11 13  1  0
 12 11  1  0
 12  5  1  0
 13 20  1  0
 13 14  2  0
 15 16  1  0
 16 17  1  0
 17 18  1  0
 19 18  1  1
 19 21  1  0
 20 19  1  0
 21 22  1  0
 23 21  2  0
M  END
$$$$
