SLM.pdb
     RDKit          3D

 23 22  0  0  1  0  0  0  0  0999 V2000
    6.4681  -20.4555   23.2952 O   0  0  0  0  0  0  0  0  0  0  0  0
    6.6682  -19.0769   23.2456 C   0  0  0  0  0  0  0  0  0  0  0  0
    6.8134  -18.6562   21.7998 C   0  0  2  0  0  0  0  0  0  0  0  0
    7.1316  -19.8440   21.0316 N   0  0  0  0  0  0  0  0  0  0  0  0
    7.9024  -17.6423   21.6832 C   0  0  0  0  0  0  0  0  0  0  0  0
    9.0605  -18.0228   21.3801 O   0  0  0  0  0  0  0  0  0  0  0  0
    8.4536  -14.1419   18.9644 C   0  0  0  0  0  0  0  0  0  0  0  0
    7.5519  -13.8219   20.1027 C   0  0  2  0  0  0  0  0  0  0  0  0
    6.9059  -12.4657   19.8698 C   0  0  0  0  0  0  0  0  0  0  0  0
    8.1277  -13.9437   21.4665 C   0  0  0  0  0  0  0  0  0  0  0  0
    8.6959  -15.2671   21.8440 C   0  0  2  0  0  0  0  0  0  0  0  0
    7.6568  -16.2708   21.9060 N   0  0  0  0  0  0  0  0  0  0  0  0
    9.2488  -15.1185   23.2275 C   0  0  0  0  0  0  0  0  0  0  0  0
   10.1446  -14.2679   23.4870 O   0  0  0  0  0  0  0  0  0  0  0  0
    6.7825  -10.8498   26.5928 C   0  0  0  0  0  0  0  0  0  0  0  0
    6.7938  -12.6264   26.9076 S   0  0  0  0  0  0  0  0  0  0  0  0
    8.1645  -13.4598   26.0631 C   0  0  0  0  0  0  0  0  0  0  0  0
    8.0751  -14.9220   26.3759 C   0  0  0  0  0  0  0  0  0  0  0  0
    9.1218  -15.6974   25.6788 C   0  0  2  0  0  0  0  0  0  0  0  0
    8.7831  -15.9235   24.2718 N   0  0  0  0  0  0  0  0  0  0  0  0
    9.3977  -17.0090   26.2726 C   0  0  0  0  0  0  0  0  0  0  0  0
   10.0528  -17.1007   27.5012 O   0  0  0  0  0  0  0  0  0  0  0  0
    9.0648  -18.0590   25.7142 O   0  0  0  0  0  0  0  0  0  0  0  0
  2  1  1  0
  3  5  1  0
  3  2  1  0
  3  4  1  6
  5  6  2  0
  8  7  1  6
  8  9  1  0
  8 10  1  0
 11 10  1  1
 11 13  1  0
 12 11  1  0
 12  5  1  0
 13 20  1  0
 13 14  2  0
 15 16  1  0
 16 17  1  0
 17 18  1  0
 19 18  1  1
 19 21  1  0
 20 19  1  0
 21 22  1  0
 23 21  2  0
M  END
$$$$
