SLM.pdb
     RDKit          3D

 23 22  0  0  1  0  0  0  0  0999 V2000
    9.2937  -18.5481   21.6208 O   0  0  0  0  0  0  0  0  0  0  0  0
    8.0110  -18.2810   21.1451 C   0  0  0  0  0  0  0  0  0  0  0  0
    7.9375  -16.8290   20.7271 C   0  0  2  0  0  0  0  0  0  0  0  0
    8.7283  -16.6837   19.5206 N   0  0  0  0  0  0  0  0  0  0  0  0
    8.4762  -15.9681   21.8207 C   0  0  0  0  0  0  0  0  0  0  0  0
    9.6523  -15.5357   21.7335 O   0  0  0  0  0  0  0  0  0  0  0  0
    8.4469  -12.1825   25.3130 C   0  0  0  0  0  0  0  0  0  0  0  0
    7.1065  -12.7830   25.0803 C   0  0  2  0  0  0  0  0  0  0  0  0
    6.1669  -12.3721   26.2024 C   0  0  0  0  0  0  0  0  0  0  0  0
    7.0650  -14.2447   24.8189 C   0  0  0  0  0  0  0  0  0  0  0  0
    8.1912  -14.8229   24.0353 C   0  0  2  0  0  0  0  0  0  0  0  0
    7.6931  -15.6324   22.9454 N   0  0  0  0  0  0  0  0  0  0  0  0
    8.9335  -15.7369   24.9602 C   0  0  0  0  0  0  0  0  0  0  0  0
    8.3262  -16.5909   25.6639 O   0  0  0  0  0  0  0  0  0  0  0  0
    9.9049  -13.4319   30.0265 C   0  0  0  0  0  0  0  0  0  0  0  0
   10.9250  -14.7126   29.2683 S   0  0  0  0  0  0  0  0  0  0  0  0
   11.0688  -14.4966   27.4741 C   0  0  0  0  0  0  0  0  0  0  0  0
   11.8840  -15.6336   26.9388 C   0  0  0  0  0  0  0  0  0  0  0  0
   11.1063  -16.4752   26.0062 C   0  0  2  0  0  0  0  0  0  0  0  0
   10.3260  -15.6658   25.0671 N   0  0  0  0  0  0  0  0  0  0  0  0
   10.1732  -17.3974   26.6602 C   0  0  0  0  0  0  0  0  0  0  0  0
   10.6533  -18.4187   27.4808 O   0  0  0  0  0  0  0  0  0  0  0  0
    8.9512  -17.3025   26.5089 O   0  0  0  0  0  0  0  0  0  0  0  0
  2  1  1  0
  3  5  1  0
  3  2  1  0
  3  4  1  6
  5  6  2  0
  8  7  1  1
  8  9  1  0
  8 10  1  0
 11 10  1  1
 11 13  1  0
 12 11  1  0
 12  5  1  0
 13 20  1  0
 13 14  2  0
 15 16  1  0
 16 17  1  0
 17 18  1  0
 19 18  1  1
 19 21  1  0
 20 19  1  0
 21 22  1  0
 23 21  2  0
M  END
$$$$
