SLM.pdb
     RDKit          3D

 23 22  0  0  1  0  0  0  0  0999 V2000
    9.3997  -18.9546   22.7000 O   0  0  0  0  0  0  0  0  0  0  0  0
    8.0209  -18.9601   22.4954 C   0  0  0  0  0  0  0  0  0  0  0  0
    7.6538  -17.7898   21.6098 C   0  0  2  0  0  0  0  0  0  0  0  0
    8.3158  -17.9854   20.3348 N   0  0  0  0  0  0  0  0  0  0  0  0
    8.1041  -16.5196   22.2512 C   0  0  0  0  0  0  0  0  0  0  0  0
    9.2226  -16.0412   21.9384 O   0  0  0  0  0  0  0  0  0  0  0  0
    6.0580  -12.6114   26.7220 C   0  0  0  0  0  0  0  0  0  0  0  0
    6.9774  -12.9476   25.6027 C   0  0  2  0  0  0  0  0  0  0  0  0
    7.0479  -11.7756   24.6372 C   0  0  0  0  0  0  0  0  0  0  0  0
    6.7381  -14.2371   24.9053 C   0  0  0  0  0  0  0  0  0  0  0  0
    7.7063  -14.6188   23.8404 C   0  0  2  0  0  0  0  0  0  0  0  0
    7.3008  -15.8492   23.1978 N   0  0  0  0  0  0  0  0  0  0  0  0
    9.0118  -14.8870   24.5228 C   0  0  0  0  0  0  0  0  0  0  0  0
    9.9802  -14.0835   24.4228 O   0  0  0  0  0  0  0  0  0  0  0  0
   10.8664  -13.1927   29.2121 C   0  0  0  0  0  0  0  0  0  0  0  0
   10.9775  -14.8709   29.8654 S   0  0  0  0  0  0  0  0  0  0  0  0
   11.0898  -16.1100   28.5468 C   0  0  0  0  0  0  0  0  0  0  0  0
    9.9542  -15.8752   27.5986 C   0  0  0  0  0  0  0  0  0  0  0  0
   10.3146  -16.2330   26.2112 C   0  0  2  0  0  0  0  0  0  0  0  0
    9.1905  -16.0410   25.2919 N   0  0  0  0  0  0  0  0  0  0  0  0
   10.7774  -17.6140   26.0448 C   0  0  0  0  0  0  0  0  0  0  0  0
   11.9474  -18.0438   26.6720 O   0  0  0  0  0  0  0  0  0  0  0  0
   10.1572  -18.4294   25.3552 O   0  0  0  0  0  0  0  0  0  0  0  0
  2  1  1  0
  3  5  1  0
  3  2  1  0
  3  4  1  6
  5  6  2  0
  8  7  1  1
  8  9  1  0
  8 10  1  0
 11 10  1  1
 11 13  1  0
 12 11  1  0
 12  5  1  0
 13 20  1  0
 13 14  2  0
 15 16  1  0
 16 17  1  0
 17 18  1  0
 19 18  1  1
 19 21  1  0
 20 19  1  0
 21 22  1  0
 23 21  2  0
M  END
$$$$
