SLM.pdb
     RDKit          3D

 23 22  0  0  1  0  0  0  0  0999 V2000
    9.7838  -18.6826   21.1276 O   0  0  0  0  0  0  0  0  0  0  0  0
    8.5041  -18.2996   20.7294 C   0  0  0  0  0  0  0  0  0  0  0  0
    8.5132  -16.8203   20.4129 C   0  0  2  0  0  0  0  0  0  0  0  0
    9.4817  -16.6085   19.3549 N   0  0  0  0  0  0  0  0  0  0  0  0
    8.8881  -16.0517   21.6360 C   0  0  0  0  0  0  0  0  0  0  0  0
   10.0887  -15.7241   21.8067 O   0  0  0  0  0  0  0  0  0  0  0  0
    5.9752  -13.2262   26.4192 C   0  0  0  0  0  0  0  0  0  0  0  0
    7.1990  -13.5859   25.6549 C   0  0  2  0  0  0  0  0  0  0  0  0
    7.9468  -12.3187   25.2728 C   0  0  0  0  0  0  0  0  0  0  0  0
    7.0208  -14.5033   24.5003 C   0  0  0  0  0  0  0  0  0  0  0  0
    8.2553  -14.9645   23.8074 C   0  0  2  0  0  0  0  0  0  0  0  0
    7.9239  -15.6877   22.5997 N   0  0  0  0  0  0  0  0  0  0  0  0
    8.9299  -15.9319   24.7298 C   0  0  0  0  0  0  0  0  0  0  0  0
    8.3969  -17.0382   25.0224 O   0  0  0  0  0  0  0  0  0  0  0  0
    9.7472  -13.2105   29.8132 C   0  0  0  0  0  0  0  0  0  0  0  0
   10.6623  -14.6683   29.2718 S   0  0  0  0  0  0  0  0  0  0  0  0
   11.1393  -14.5644   27.5259 C   0  0  0  0  0  0  0  0  0  0  0  0
   11.7456  -15.8777   27.1369 C   0  0  0  0  0  0  0  0  0  0  0  0
   10.9382  -16.5734   26.1137 C   0  0  2  0  0  0  0  0  0  0  0  0
   10.1741  -15.6312   25.2927 N   0  0  0  0  0  0  0  0  0  0  0  0
    9.9844  -17.5457   26.6558 C   0  0  0  0  0  0  0  0  0  0  0  0
    8.6227  -17.4261   26.3755 O   0  0  0  0  0  0  0  0  0  0  0  0
   10.3485  -18.4874   27.3670 O   0  0  0  0  0  0  0  0  0  0  0  0
  2  1  1  0
  3  5  1  0
  3  2  1  0
  3  4  1  6
  5  6  2  0
  8  7  1  6
  8  9  1  0
  8 10  1  0
 11 10  1  1
 11 13  1  0
 12 11  1  0
 12  5  1  0
 13 20  1  0
 13 14  2  0
 15 16  1  0
 16 17  1  0
 17 18  1  0
 19 18  1  1
 19 21  1  0
 20 19  1  0
 21 22  1  0
 23 21  2  0
M  END
$$$$
