DCA.pdb
     RDKit          3D

 20 19  0  0  1  0  0  0  0  0999 V2000
    8.8621  -17.4596   21.4746 N   0  0  0  0  0  0  0  0  0  0  0  0
   10.0517  -16.5655   21.6545 C   0  0  1  0  0  0  0  0  0  0  0  0
   10.1859  -15.8714   20.3335 C   0  0  0  0  0  0  0  0  0  0  0  0
   10.5880  -16.7176   19.2276 C   0  0  0  0  0  0  0  0  0  0  0  0
   11.6107  -17.3971   19.2274 O   0  0  0  0  0  0  0  0  0  0  0  0
    9.6894  -15.6415   22.7682 C   0  0  0  0  0  0  0  0  0  0  0  0
   10.4947  -14.7008   23.0760 O   0  0  0  0  0  0  0  0  0  0  0  0
    9.7742  -16.7833   18.0700 O   0  0  0  0  0  0  0  0  0  0  0  0
    8.5047  -15.7098   23.5308 N   0  0  0  0  0  0  0  0  0  0  0  0
    8.3032  -14.8451   24.6683 C   0  0  1  0  0  0  0  0  0  0  0  0
    6.8654  -14.8754   25.1502 C   0  0  0  0  0  0  0  0  0  0  0  0
    6.5588  -13.5522   26.3456 S   0  0  0  0  0  0  0  0  0  0  0  0
    9.2197  -15.1816   25.7874 C   0  0  0  0  0  0  0  0  0  0  0  0
    9.7151  -16.3465   25.9338 O   0  0  0  0  0  0  0  0  0  0  0  0
   10.6773  -13.3548   28.7934 C   0  0  0  0  0  0  0  0  0  0  0  0
   10.5271  -14.5210   27.8396 C   0  0  2  0  0  0  0  0  0  0  0  0
    9.6029  -14.2256   26.7665 N   0  0  0  0  0  0  0  0  0  0  0  0
    9.9801  -15.6605   28.6132 C   0  0  0  0  0  0  0  0  0  0  0  0
    8.7818  -16.0332   28.4247 O   0  0  0  0  0  0  0  0  0  0  0  0
   10.7425  -16.3244   29.5321 O   0  0  0  0  0  0  0  0  0  0  0  0
  2  1  1  6
  3  2  1  0
  3  4  1  0
  4  5  2  0
  6  2  1  0
  6  7  2  0
  8  4  1  0
  9  6  1  0
 10  9  1  0
 10 11  1  1
 12 11  1  0
 13 10  1  0
 14 13  2  0
 16 15  1  1
 16 17  1  0
 16 18  1  0
 17 13  1  0
 18 20  1  0
 19 18  2  0
M  END
$$$$
