DCA.pdb
     RDKit          3D

 20 19  0  0  1  0  0  0  0  0999 V2000
    9.0380  -17.1194   16.3721 N   0  0  0  0  0  0  0  0  0  0  0  0
    8.7600  -17.9539   17.5859 C   0  0  1  0  0  0  0  0  0  0  0  0
    9.7262  -19.0931   17.4710 C   0  0  0  0  0  0  0  0  0  0  0  0
    9.2198  -20.2680   16.7897 C   0  0  0  0  0  0  0  0  0  0  0  0
    8.0737  -20.3644   16.3600 O   0  0  0  0  0  0  0  0  0  0  0  0
    9.0377  -17.0649   18.7513 C   0  0  0  0  0  0  0  0  0  0  0  0
   10.2005  -16.5543   18.8743 O   0  0  0  0  0  0  0  0  0  0  0  0
   10.0734  -21.3817   16.5954 O   0  0  0  0  0  0  0  0  0  0  0  0
    8.1075  -16.7232   19.7551 N   0  0  0  0  0  0  0  0  0  0  0  0
    8.4629  -15.8141   20.8181 C   0  0  1  0  0  0  0  0  0  0  0  0
    7.2514  -15.0777   21.3569 C   0  0  0  0  0  0  0  0  0  0  0  0
    6.0103  -16.2424   21.9708 S   0  0  0  0  0  0  0  0  0  0  0  0
    9.1680  -16.5080   21.9258 C   0  0  0  0  0  0  0  0  0  0  0  0
    8.9418  -17.7275   22.2176 O   0  0  0  0  0  0  0  0  0  0  0  0
   12.1789  -15.7901   24.0953 C   0  0  0  0  0  0  0  0  0  0  0  0
   10.9084  -16.5377   23.7499 C   0  0  2  0  0  0  0  0  0  0  0  0
   10.1405  -15.8557   22.7309 N   0  0  0  0  0  0  0  0  0  0  0  0
   10.0823  -16.6020   24.9785 C   0  0  0  0  0  0  0  0  0  0  0  0
    8.9863  -15.9648   25.0353 O   0  0  0  0  0  0  0  0  0  0  0  0
   10.4766  -17.3375   26.0601 O   0  0  0  0  0  0  0  0  0  0  0  0
  2  1  1  6
  3  2  1  0
  3  4  1  0
  4  5  2  0
  6  2  1  0
  6  7  2  0
  8  4  1  0
  9  6  1  0
 10  9  1  0
 10 11  1  1
 12 11  1  0
 13 10  1  0
 14 13  2  0
 16 15  1  1
 16 17  1  0
 16 18  1  0
 17 13  1  0
 18 20  1  0
 19 18  2  0
M  END
$$$$
