DCA.pdb
     RDKit          3D

 20 19  0  0  1  0  0  0  0  0999 V2000
    8.6586  -16.1881   19.8126 N   0  0  0  0  0  0  0  0  0  0  0  0
    9.5819  -16.6652   20.8928 C   0  0  1  0  0  0  0  0  0  0  0  0
   10.9494  -16.3700   20.3566 C   0  0  0  0  0  0  0  0  0  0  0  0
   11.4180  -17.2733   19.3246 C   0  0  0  0  0  0  0  0  0  0  0  0
   11.1601  -18.4735   19.3023 O   0  0  0  0  0  0  0  0  0  0  0  0
    9.2368  -15.8550   22.0969 C   0  0  0  0  0  0  0  0  0  0  0  0
    9.1757  -14.5851   21.9891 O   0  0  0  0  0  0  0  0  0  0  0  0
   12.2201  -16.7701   18.2710 O   0  0  0  0  0  0  0  0  0  0  0  0
    8.9596  -16.3767   23.3779 N   0  0  0  0  0  0  0  0  0  0  0  0
    8.5543  -15.5120   24.4598 C   0  0  1  0  0  0  0  0  0  0  0  0
    7.1477  -15.8249   24.9331 C   0  0  0  0  0  0  0  0  0  0  0  0
    7.0024  -17.5625   25.4161 S   0  0  0  0  0  0  0  0  0  0  0  0
    9.4998  -15.5774   25.6032 C   0  0  0  0  0  0  0  0  0  0  0  0
   10.3581  -16.5115   25.7232 O   0  0  0  0  0  0  0  0  0  0  0  0
   10.1644  -13.5202   28.7388 C   0  0  0  0  0  0  0  0  0  0  0  0
   10.3976  -14.6647   27.7752 C   0  0  2  0  0  0  0  0  0  0  0  0
    9.5076  -14.6018   26.6364 N   0  0  0  0  0  0  0  0  0  0  0  0
   10.1184  -15.9240   28.5047 C   0  0  0  0  0  0  0  0  0  0  0  0
   10.8628  -16.2704   29.4723 O   0  0  0  0  0  0  0  0  0  0  0  0
    9.0695  -16.7271   28.1566 O   0  0  0  0  0  0  0  0  0  0  0  0
  2  1  1  6
  3  2  1  0
  3  4  1  0
  4  5  2  0
  6  2  1  0
  6  7  2  0
  8  4  1  0
  9  6  1  0
 10  9  1  0
 10 11  1  1
 12 11  1  0
 13 10  1  0
 14 13  2  0
 16 15  1  1
 16 17  1  0
 16 18  1  0
 17 13  1  0
 18 20  1  0
 19 18  2  0
M  END
$$$$
