DCA.pdb
     RDKit          3D

 20 19  0  0  1  0  0  0  0  0999 V2000
   10.7747  -17.1734   19.7682 N   0  0  0  0  0  0  0  0  0  0  0  0
   12.0068  -17.3441   20.6046 C   0  0  1  0  0  0  0  0  0  0  0  0
   13.0408  -16.5217   19.8979 C   0  0  0  0  0  0  0  0  0  0  0  0
   13.4022  -16.9865   18.5735 C   0  0  0  0  0  0  0  0  0  0  0  0
   13.3337  -18.1610   18.2222 O   0  0  0  0  0  0  0  0  0  0  0  0
   11.6508  -16.8080   21.9504 C   0  0  0  0  0  0  0  0  0  0  0  0
   12.5666  -16.6964   22.8319 O   0  0  0  0  0  0  0  0  0  0  0  0
   13.8634  -16.0551   17.6109 O   0  0  0  0  0  0  0  0  0  0  0  0
   10.3614  -16.3975   22.3489 N   0  0  0  0  0  0  0  0  0  0  0  0
   10.0932  -16.0147   23.7142 C   0  0  1  0  0  0  0  0  0  0  0  0
    8.7864  -15.2550   23.8388 C   0  0  0  0  0  0  0  0  0  0  0  0
    8.3778  -14.9571   25.5761 S   0  0  0  0  0  0  0  0  0  0  0  0
   10.0864  -17.1872   24.6257 C   0  0  0  0  0  0  0  0  0  0  0  0
    9.2986  -18.1745   24.4578 O   0  0  0  0  0  0  0  0  0  0  0  0
   12.2676  -19.1762   26.5935 C   0  0  0  0  0  0  0  0  0  0  0  0
   10.9620  -18.4115   26.6484 C   0  0  2  0  0  0  0  0  0  0  0  0
   10.9587  -17.2828   25.7435 N   0  0  0  0  0  0  0  0  0  0  0  0
   10.8087  -17.8919   28.0278 C   0  0  0  0  0  0  0  0  0  0  0  0
   10.8026  -16.6396   28.2327 O   0  0  0  0  0  0  0  0  0  0  0  0
   10.6727  -18.7371   29.0925 O   0  0  0  0  0  0  0  0  0  0  0  0
  2  1  1  6
  3  2  1  0
  3  4  1  0
  4  5  2  0
  6  2  1  0
  6  7  2  0
  8  4  1  0
  9  6  1  0
 10  9  1  0
 10 11  1  6
 12 11  1  0
 13 10  1  0
 14 13  2  0
 16 15  1  1
 16 17  1  0
 16 18  1  0
 17 13  1  0
 18 20  1  0
 19 18  2  0
M  END
$$$$
