DCA.pdb
     RDKit          3D

 20 19  0  0  1  0  0  0  0  0999 V2000
   -1.3053  -26.7755   28.9546 N   0  0  0  0  0  0  0  0  0  0  0  0
   -2.1220  -25.9045   28.0483 C   0  0  1  0  0  0  0  0  0  0  0  0
   -2.3039  -26.7355   26.8150 C   0  0  0  0  0  0  0  0  0  0  0  0
   -1.1054  -26.9449   26.0273 C   0  0  0  0  0  0  0  0  0  0  0  0
   -0.2864  -26.0623   25.7866 O   0  0  0  0  0  0  0  0  0  0  0  0
   -3.3975  -25.6549   28.7805 C   0  0  0  0  0  0  0  0  0  0  0  0
   -4.4976  -25.6974   28.1354 O   0  0  0  0  0  0  0  0  0  0  0  0
   -0.8394  -28.2296   25.4932 O   0  0  0  0  0  0  0  0  0  0  0  0
   -3.5042  -25.3731   30.1586 N   0  0  0  0  0  0  0  0  0  0  0  0
   -4.7939  -25.2732   30.7982 C   0  0  1  0  0  0  0  0  0  0  0  0
   -4.7159  -25.6049   32.2761 C   0  0  0  0  0  0  0  0  0  0  0  0
   -4.0574  -27.2712   32.5283 S   0  0  0  0  0  0  0  0  0  0  0  0
   -5.4007  -23.9306   30.6117 C   0  0  0  0  0  0  0  0  0  0  0  0
   -4.7750  -22.8567   30.8924 O   0  0  0  0  0  0  0  0  0  0  0  0
   -8.0897  -22.4916   28.5154 C   0  0  0  0  0  0  0  0  0  0  0  0
   -7.2807  -22.4625   29.7948 C   0  0  2  0  0  0  0  0  0  0  0  0
   -6.7182  -23.7581   30.1078 N   0  0  0  0  0  0  0  0  0  0  0  0
   -8.2004  -22.0858   30.8940 C   0  0  0  0  0  0  0  0  0  0  0  0
   -8.6510  -20.9013   30.9611 O   0  0  0  0  0  0  0  0  0  0  0  0
   -8.5776  -22.9917   31.8445 O   0  0  0  0  0  0  0  0  0  0  0  0
  2  1  1  1
  3  2  1  0
  3  4  1  0
  4  5  2  0
  6  2  1  0
  6  7  2  0
  8  4  1  0
  9  6  1  0
 10  9  1  0
 10 11  1  1
 12 11  1  0
 13 10  1  0
 14 13  2  0
 16 15  1  6
 16 17  1  0
 16 18  1  0
 17 13  1  0
 18 20  1  0
 19 18  2  0
M  END
$$$$
