DCA.pdb
     RDKit          3D

 20 19  0  0  1  0  0  0  0  0999 V2000
    9.1490  -15.6957   20.6674 N   0  0  0  0  0  0  0  0  0  0  0  0
    8.1863  -16.1241   21.7335 C   0  0  1  0  0  0  0  0  0  0  0  0
    8.5259  -17.5640   21.9705 C   0  0  0  0  0  0  0  0  0  0  0  0
    8.0520  -18.4865   20.9580 C   0  0  0  0  0  0  0  0  0  0  0  0
    6.8696  -18.6126   20.6523 O   0  0  0  0  0  0  0  0  0  0  0  0
    8.4796  -15.2517   22.9075 C   0  0  0  0  0  0  0  0  0  0  0  0
    9.6958  -15.0386   23.2292 O   0  0  0  0  0  0  0  0  0  0  0  0
    8.9834  -19.3001   20.2672 O   0  0  0  0  0  0  0  0  0  0  0  0
    7.5110  -14.6192   23.7147 N   0  0  0  0  0  0  0  0  0  0  0  0
    7.8980  -13.8420   24.8674 C   0  0  1  0  0  0  0  0  0  0  0  0
    6.7868  -12.9136   25.3186 C   0  0  0  0  0  0  0  0  0  0  0  0
    7.2177  -12.1038   26.8782 S   0  0  0  0  0  0  0  0  0  0  0  0
    8.3269  -14.7053   25.9971 C   0  0  0  0  0  0  0  0  0  0  0  0
    7.5302  -15.5145   26.5751 O   0  0  0  0  0  0  0  0  0  0  0  0
   11.6074  -15.8319   27.4471 C   0  0  0  0  0  0  0  0  0  0  0  0
   10.1171  -15.5815   27.5413 C   0  0  2  0  0  0  0  0  0  0  0  0
    9.6537  -14.6840   26.5056 N   0  0  0  0  0  0  0  0  0  0  0  0
    9.8559  -14.9408   28.8518 C   0  0  0  0  0  0  0  0  0  0  0  0
   10.0692  -15.5868   29.9230 O   0  0  0  0  0  0  0  0  0  0  0  0
    9.3870  -13.6603   28.9338 O   0  0  0  0  0  0  0  0  0  0  0  0
  2  1  1  6
  3  2  1  0
  3  4  1  0
  4  5  2  0
  6  2  1  0
  6  7  2  0
  8  4  1  0
  9  6  1  0
 10  9  1  0
 10 11  1  1
 12 11  1  0
 13 10  1  0
 14 13  2  0
 16 15  1  6
 16 17  1  0
 16 18  1  0
 17 13  1  0
 18 20  1  0
 19 18  2  0
M  END
$$$$
