DCA.pdb
     RDKit          3D

 20 19  0  0  1  0  0  0  0  0999 V2000
   11.4757  -17.3773   20.9662 N   0  0  0  0  0  0  0  0  0  0  0  0
   12.1160  -16.2716   21.7499 C   0  0  1  0  0  0  0  0  0  0  0  0
   12.2723  -15.1645   20.7526 C   0  0  0  0  0  0  0  0  0  0  0  0
   13.2898  -15.3798   19.7431 C   0  0  0  0  0  0  0  0  0  0  0  0
   14.3689  -15.9203   19.9690 O   0  0  0  0  0  0  0  0  0  0  0  0
   11.1508  -15.9467   22.8400 C   0  0  0  0  0  0  0  0  0  0  0  0
   10.9694  -14.7248   23.1594 O   0  0  0  0  0  0  0  0  0  0  0  0
   13.0524  -14.9526   18.4136 O   0  0  0  0  0  0  0  0  0  0  0  0
   10.3959  -16.8903   23.5677 N   0  0  0  0  0  0  0  0  0  0  0  0
    9.4661  -16.4694   24.5879 C   0  0  1  0  0  0  0  0  0  0  0  0
    8.3992  -17.5167   24.8433 C   0  0  0  0  0  0  0  0  0  0  0  0
    7.1700  -16.9092   26.0238 S   0  0  0  0  0  0  0  0  0  0  0  0
   10.1564  -16.1292   25.8581 C   0  0  0  0  0  0  0  0  0  0  0  0
   11.1551  -16.7934   26.2883 O   0  0  0  0  0  0  0  0  0  0  0  0
    9.8374  -13.4467   28.5382 C   0  0  0  0  0  0  0  0  0  0  0  0
   10.3349  -14.7573   27.9660 C   0  0  2  0  0  0  0  0  0  0  0  0
    9.7470  -15.0407   26.6748 N   0  0  0  0  0  0  0  0  0  0  0  0
    9.9277  -15.8333   28.8999 C   0  0  0  0  0  0  0  0  0  0  0  0
    9.0036  -16.6381   28.5700 O   0  0  0  0  0  0  0  0  0  0  0  0
   10.5291  -15.9801   30.1177 O   0  0  0  0  0  0  0  0  0  0  0  0
  2  1  1  6
  3  2  1  0
  3  4  1  0
  4  5  2  0
  6  2  1  0
  6  7  2  0
  8  4  1  0
  9  6  1  0
 10  9  1  0
 10 11  1  1
 12 11  1  0
 13 10  1  0
 14 13  2  0
 16 15  1  1
 16 17  1  0
 16 18  1  0
 17 13  1  0
 18 20  1  0
 19 18  2  0
M  END
$$$$
