DCA.pdb
     RDKit          3D

 20 19  0  0  1  0  0  0  0  0999 V2000
   -5.0921  -21.6655   23.7012 N   0  0  0  0  0  0  0  0  0  0  0  0
   -5.6471  -23.0393   23.9285 C   0  0  1  0  0  0  0  0  0  0  0  0
   -4.6081  -23.9498   23.3488 C   0  0  0  0  0  0  0  0  0  0  0  0
   -4.4491  -23.8711   21.9103 C   0  0  0  0  0  0  0  0  0  0  0  0
   -3.5055  -24.3680   21.3017 O   0  0  0  0  0  0  0  0  0  0  0  0
   -5.7840  -23.1727   25.4080 C   0  0  0  0  0  0  0  0  0  0  0  0
   -6.1070  -24.3056   25.8979 O   0  0  0  0  0  0  0  0  0  0  0  0
   -5.4218  -23.1888   21.1390 O   0  0  0  0  0  0  0  0  0  0  0  0
   -5.5795  -22.1355   26.3419 N   0  0  0  0  0  0  0  0  0  0  0  0
   -5.5974  -22.3997   27.7605 C   0  0  1  0  0  0  0  0  0  0  0  0
   -4.7153  -21.4307   28.5243 C   0  0  0  0  0  0  0  0  0  0  0  0
   -3.0202  -21.4680   27.8927 S   0  0  0  0  0  0  0  0  0  0  0  0
   -6.9766  -22.3706   28.3105 C   0  0  0  0  0  0  0  0  0  0  0  0
   -7.8035  -21.4444   28.0241 O   0  0  0  0  0  0  0  0  0  0  0  0
   -9.1886  -24.8119   30.1784 C   0  0  0  0  0  0  0  0  0  0  0  0
   -8.8414  -23.4471   29.6224 C   0  0  2  0  0  0  0  0  0  0  0  0
   -7.4622  -23.3743   29.1915 N   0  0  0  0  0  0  0  0  0  0  0  0
   -9.0324  -22.4612   30.7121 C   0  0  0  0  0  0  0  0  0  0  0  0
   -8.0243  -21.8890   31.2285 O   0  0  0  0  0  0  0  0  0  0  0  0
  -10.2791  -22.1516   31.1774 O   0  0  0  0  0  0  0  0  0  0  0  0
  2  1  1  1
  3  2  1  0
  3  4  1  0
  4  5  2  0
  6  2  1  0
  6  7  2  0
  8  4  1  0
  9  6  1  0
 10  9  1  0
 10 11  1  1
 12 11  1  0
 13 10  1  0
 14 13  2  0
 16 15  1  1
 16 17  1  0
 16 18  1  0
 17 13  1  0
 18 20  1  0
 19 18  2  0
M  END
$$$$
