DCA.pdb
     RDKit          3D

 20 19  0  0  1  0  0  0  0  0999 V2000
    9.3006  -15.5395   19.6136 N   0  0  0  0  0  0  0  0  0  0  0  0
    8.0833  -15.7405   20.4649 C   0  0  1  0  0  0  0  0  0  0  0  0
    7.8313  -17.2157   20.3935 C   0  0  0  0  0  0  0  0  0  0  0  0
    7.2144  -17.6796   19.1668 C   0  0  0  0  0  0  0  0  0  0  0  0
    6.0115  -17.5953   18.9357 O   0  0  0  0  0  0  0  0  0  0  0  0
    8.4715  -15.2774   21.8288 C   0  0  0  0  0  0  0  0  0  0  0  0
    9.6832  -15.4137   22.2049 O   0  0  0  0  0  0  0  0  0  0  0  0
    8.0209  -18.2673   18.1613 O   0  0  0  0  0  0  0  0  0  0  0  0
    7.6009  -14.6824   22.7657 N   0  0  0  0  0  0  0  0  0  0  0  0
    8.0622  -14.3262   24.0859 C   0  0  1  0  0  0  0  0  0  0  0  0
    7.0724  -13.4294   24.8046 C   0  0  0  0  0  0  0  0  0  0  0  0
    7.5986  -13.1253   26.5088 S   0  0  0  0  0  0  0  0  0  0  0  0
    8.3516  -15.5257   24.9123 C   0  0  0  0  0  0  0  0  0  0  0  0
    7.4649  -16.4036   25.1707 O   0  0  0  0  0  0  0  0  0  0  0  0
   11.2976  -17.5453   25.8055 C   0  0  0  0  0  0  0  0  0  0  0  0
    9.9590  -16.9676   26.2141 C   0  0  2  0  0  0  0  0  0  0  0  0
    9.6365  -15.7711   25.4675 N   0  0  0  0  0  0  0  0  0  0  0  0
   10.0515  -16.6013   27.6470 C   0  0  0  0  0  0  0  0  0  0  0  0
    9.8977  -15.3921   27.9998 O   0  0  0  0  0  0  0  0  0  0  0  0
   10.3004  -17.5432   28.6047 O   0  0  0  0  0  0  0  0  0  0  0  0
  2  1  1  6
  3  2  1  0
  3  4  1  0
  4  5  2  0
  6  2  1  0
  6  7  2  0
  8  4  1  0
  9  6  1  0
 10  9  1  0
 10 11  1  1
 12 11  1  0
 13 10  1  0
 14 13  2  0
 16 15  1  6
 16 17  1  0
 16 18  1  0
 17 13  1  0
 18 20  1  0
 19 18  2  0
M  END
$$$$
