DCA.pdb
     RDKit          3D

 20 19  0  0  1  0  0  0  0  0999 V2000
    9.3839  -18.1147   21.6007 N   0  0  0  0  0  0  0  0  0  0  0  0
   10.1465  -16.8300   21.4785 C   0  0  1  0  0  0  0  0  0  0  0  0
    9.8199  -16.3452   20.0990 C   0  0  0  0  0  0  0  0  0  0  0  0
   10.8023  -16.6639   19.0821 C   0  0  0  0  0  0  0  0  0  0  0  0
   11.8599  -17.2425   19.3152 O   0  0  0  0  0  0  0  0  0  0  0  0
    9.6096  -15.9456   22.5532 C   0  0  0  0  0  0  0  0  0  0  0  0
    9.9138  -14.7065   22.5417 O   0  0  0  0  0  0  0  0  0  0  0  0
   10.5540  -16.2990   17.7361 O   0  0  0  0  0  0  0  0  0  0  0  0
    8.7700  -16.3621   23.6075 N   0  0  0  0  0  0  0  0  0  0  0  0
    8.3551  -15.4381   24.6353 C   0  0  1  0  0  0  0  0  0  0  0  0
    6.9553  -15.7425   25.1335 C   0  0  0  0  0  0  0  0  0  0  0  0
    6.4194  -14.5078   26.3427 S   0  0  0  0  0  0  0  0  0  0  0  0
    9.3056  -15.4175   25.7763 C   0  0  0  0  0  0  0  0  0  0  0  0
   10.0405  -16.4170   26.0672 O   0  0  0  0  0  0  0  0  0  0  0  0
   10.2040  -12.9697   28.5507 C   0  0  0  0  0  0  0  0  0  0  0  0
   10.3181  -14.2670   27.7783 C   0  0  2  0  0  0  0  0  0  0  0  0
    9.4561  -14.2814   26.6165 N   0  0  0  0  0  0  0  0  0  0  0  0
    9.8877  -15.3610   28.6805 C   0  0  0  0  0  0  0  0  0  0  0  0
    8.8021  -15.9769   28.4512 O   0  0  0  0  0  0  0  0  0  0  0  0
   10.6389  -15.7247   29.7620 O   0  0  0  0  0  0  0  0  0  0  0  0
  2  1  1  1
  3  2  1  0
  3  4  1  0
  4  5  2  0
  6  2  1  0
  6  7  2  0
  8  4  1  0
  9  6  1  0
 10  9  1  0
 10 11  1  1
 12 11  1  0
 13 10  1  0
 14 13  2  0
 16 15  1  1
 16 17  1  0
 16 18  1  0
 17 13  1  0
 18 20  1  0
 19 18  2  0
M  END
$$$$
