DCA.pdb
     RDKit          3D

 20 19  0  0  1  0  0  0  0  0999 V2000
    8.1982  -14.5253   20.6158 N   0  0  0  0  0  0  0  0  0  0  0  0
    8.2653  -15.6304   21.6264 C   0  0  1  0  0  0  0  0  0  0  0  0
    9.4430  -16.4479   21.1911 C   0  0  0  0  0  0  0  0  0  0  0  0
    9.1680  -17.4300   20.1613 C   0  0  0  0  0  0  0  0  0  0  0  0
    8.0383  -17.7020   19.7645 O   0  0  0  0  0  0  0  0  0  0  0  0
    8.4739  -14.9551   22.9402 C   0  0  0  0  0  0  0  0  0  0  0  0
    9.5357  -14.2710   23.1204 O   0  0  0  0  0  0  0  0  0  0  0  0
   10.2440  -18.1301   19.5622 O   0  0  0  0  0  0  0  0  0  0  0  0
    7.5798  -15.0000   24.0303 N   0  0  0  0  0  0  0  0  0  0  0  0
    7.8449  -14.2573   25.2389 C   0  0  1  0  0  0  0  0  0  0  0  0
    6.5924  -14.0785   26.0753 C   0  0  0  0  0  0  0  0  0  0  0  0
    5.7188  -12.5636   25.6109 S   0  0  0  0  0  0  0  0  0  0  0  0
    8.9122  -14.8913   26.0541 C   0  0  0  0  0  0  0  0  0  0  0  0
    9.2663  -16.1038   25.8863 O   0  0  0  0  0  0  0  0  0  0  0  0
   11.1181  -13.8567   28.9784 C   0  0  0  0  0  0  0  0  0  0  0  0
   10.6538  -14.7825   27.8739 C   0  0  2  0  0  0  0  0  0  0  0  0
    9.6068  -14.1858   27.0734 N   0  0  0  0  0  0  0  0  0  0  0  0
   10.1016  -15.9986   28.5159 C   0  0  0  0  0  0  0  0  0  0  0  0
    8.8447  -16.1531   28.5973 O   0  0  0  0  0  0  0  0  0  0  0  0
   10.9212  -16.9652   29.0262 O   0  0  0  0  0  0  0  0  0  0  0  0
  2  1  1  6
  3  2  1  0
  3  4  1  0
  4  5  2  0
  6  2  1  0
  6  7  2  0
  8  4  1  0
  9  6  1  0
 10  9  1  0
 10 11  1  1
 12 11  1  0
 13 10  1  0
 14 13  2  0
 16 15  1  1
 16 17  1  0
 16 18  1  0
 17 13  1  0
 18 20  1  0
 19 18  2  0
M  END
$$$$
