DCA.pdb
     RDKit          3D

 20 19  0  0  1  0  0  0  0  0999 V2000
    7.6377  -13.8306   20.8333 N   0  0  0  0  0  0  0  0  0  0  0  0
    6.9798  -14.6332   21.9150 C   0  0  1  0  0  0  0  0  0  0  0  0
    7.0434  -16.0422   21.4098 C   0  0  0  0  0  0  0  0  0  0  0  0
    7.1636  -16.1795   19.9719 C   0  0  0  0  0  0  0  0  0  0  0  0
    6.3682  -16.8083   19.2794 O   0  0  0  0  0  0  0  0  0  0  0  0
    7.8085  -14.4099   23.1351 C   0  0  0  0  0  0  0  0  0  0  0  0
    9.0799  -14.4305   23.0296 O   0  0  0  0  0  0  0  0  0  0  0  0
    8.2498  -15.5640   19.3025 O   0  0  0  0  0  0  0  0  0  0  0  0
    7.3036  -14.1669   24.4297 N   0  0  0  0  0  0  0  0  0  0  0  0
    8.1862  -14.0930   25.5690 C   0  0  1  0  0  0  0  0  0  0  0  0
    7.6168  -13.2134   26.6655 C   0  0  0  0  0  0  0  0  0  0  0  0
    6.1340  -12.3490   26.0928 S   0  0  0  0  0  0  0  0  0  0  0  0
    8.5017  -15.4389   26.1117 C   0  0  0  0  0  0  0  0  0  0  0  0
    7.6004  -16.3135   26.3272 O   0  0  0  0  0  0  0  0  0  0  0  0
   11.4990  -17.6315   26.3096 C   0  0  0  0  0  0  0  0  0  0  0  0
   10.1695  -17.1715   26.8691 C   0  0  2  0  0  0  0  0  0  0  0  0
    9.8292  -15.8372   26.4253 N   0  0  0  0  0  0  0  0  0  0  0  0
   10.2939  -17.1443   28.3456 C   0  0  0  0  0  0  0  0  0  0  0  0
   10.1501  -16.0491   28.9703 O   0  0  0  0  0  0  0  0  0  0  0  0
   10.5621  -18.2804   29.0554 O   0  0  0  0  0  0  0  0  0  0  0  0
  2  1  1  6
  3  2  1  0
  3  4  1  0
  4  5  2  0
  6  2  1  0
  6  7  2  0
  8  4  1  0
  9  6  1  0
 10  9  1  0
 10 11  1  1
 12 11  1  0
 13 10  1  0
 14 13  2  0
 16 15  1  6
 16 17  1  0
 16 18  1  0
 17 13  1  0
 18 20  1  0
 19 18  2  0
M  END
$$$$
