DCA.pdb
     RDKit          3D

 20 19  0  0  1  0  0  0  0  0999 V2000
   10.7797  -15.8955   20.5811 N   0  0  0  0  0  0  0  0  0  0  0  0
    9.7797  -16.5933   21.4528 C   0  0  1  0  0  0  0  0  0  0  0  0
   10.0741  -18.0480   21.2483 C   0  0  0  0  0  0  0  0  0  0  0  0
    9.7266  -18.5723   19.9425 C   0  0  0  0  0  0  0  0  0  0  0  0
    8.6153  -18.4520   19.4346 O   0  0  0  0  0  0  0  0  0  0  0  0
   10.0676  -16.1263   22.8401 C   0  0  0  0  0  0  0  0  0  0  0  0
   11.2815  -15.9547   23.1937 O   0  0  0  0  0  0  0  0  0  0  0  0
   10.7045  -19.2666   19.1886 O   0  0  0  0  0  0  0  0  0  0  0  0
    9.0959  -15.8445   23.8230 N   0  0  0  0  0  0  0  0  0  0  0  0
    9.4812  -15.4287   25.1500 C   0  0  1  0  0  0  0  0  0  0  0  0
    8.6030  -14.3040   25.6642 C   0  0  0  0  0  0  0  0  0  0  0  0
    9.0629  -13.8489   27.3539 S   0  0  0  0  0  0  0  0  0  0  0  0
    9.4670  -16.5617   26.1100 C   0  0  0  0  0  0  0  0  0  0  0  0
    8.4047  -17.2122   26.3786 O   0  0  0  0  0  0  0  0  0  0  0  0
   11.9536  -18.9146   27.5631 C   0  0  0  0  0  0  0  0  0  0  0  0
   10.6602  -18.1357   27.6772 C   0  0  2  0  0  0  0  0  0  0  0  0
   10.6378  -16.9929   26.7903 N   0  0  0  0  0  0  0  0  0  0  0  0
   10.5633  -17.6362   29.0690 C   0  0  0  0  0  0  0  0  0  0  0  0
   10.5625  -16.3869   29.2918 O   0  0  0  0  0  0  0  0  0  0  0  0
   10.4741  -18.4967   30.1264 O   0  0  0  0  0  0  0  0  0  0  0  0
  2  1  1  6
  3  2  1  0
  3  4  1  0
  4  5  2  0
  6  2  1  0
  6  7  2  0
  8  4  1  0
  9  6  1  0
 10  9  1  0
 10 11  1  1
 12 11  1  0
 13 10  1  0
 14 13  2  0
 16 15  1  1
 16 17  1  0
 16 18  1  0
 17 13  1  0
 18 20  1  0
 19 18  2  0
M  END
$$$$
