DCA.pdb
     RDKit          3D

 20 19  0  0  1  0  0  0  0  0999 V2000
   10.2947  -16.7552   20.5844 N   0  0  0  0  0  0  0  0  0  0  0  0
   10.9376  -17.3063   21.8213 C   0  0  1  0  0  0  0  0  0  0  0  0
   12.4061  -17.1980   21.5449 C   0  0  0  0  0  0  0  0  0  0  0  0
   12.9458  -18.2110   20.6599 C   0  0  0  0  0  0  0  0  0  0  0  0
   12.2549  -19.0352   20.0674 O   0  0  0  0  0  0  0  0  0  0  0  0
   10.4834  -16.4213   22.9331 C   0  0  0  0  0  0  0  0  0  0  0  0
   11.1823  -15.3960   23.2301 O   0  0  0  0  0  0  0  0  0  0  0  0
   14.3449  -18.2765   20.4485 O   0  0  0  0  0  0  0  0  0  0  0  0
    9.3187  -16.6153   23.7049 N   0  0  0  0  0  0  0  0  0  0  0  0
    8.9270  -15.6579   24.7111 C   0  0  1  0  0  0  0  0  0  0  0  0
    7.4652  -15.8042   25.0879 C   0  0  0  0  0  0  0  0  0  0  0  0
    6.9251  -14.4210   26.1217 S   0  0  0  0  0  0  0  0  0  0  0  0
    9.7755  -15.7550   25.9261 C   0  0  0  0  0  0  0  0  0  0  0  0
   10.3121  -16.8503   26.2950 O   0  0  0  0  0  0  0  0  0  0  0  0
   10.7883  -13.4295   28.7598 C   0  0  0  0  0  0  0  0  0  0  0  0
   10.8497  -14.7095   27.9534 C   0  0  2  0  0  0  0  0  0  0  0  0
   10.0431  -14.6322   26.7549 N   0  0  0  0  0  0  0  0  0  0  0  0
   10.3051  -15.7958   28.8016 C   0  0  0  0  0  0  0  0  0  0  0  0
    9.1215  -16.2116   28.6106 O   0  0  0  0  0  0  0  0  0  0  0  0
   11.0542  -16.3647   29.7925 O   0  0  0  0  0  0  0  0  0  0  0  0
  2  1  1  6
  3  2  1  0
  3  4  1  0
  4  5  2  0
  6  2  1  0
  6  7  2  0
  8  4  1  0
  9  6  1  0
 10  9  1  0
 10 11  1  1
 12 11  1  0
 13 10  1  0
 14 13  2  0
 16 15  1  1
 16 17  1  0
 16 18  1  0
 17 13  1  0
 18 20  1  0
 19 18  2  0
M  END
$$$$
