FQM.pdb
     RDKit          3D

 29 29  0  0  1  0  0  0  0  0999 V2000
   26.8214  -18.4932   -8.0319 N   0  0  0  0  0  0  0  0  0  0  0  0
   27.1094  -19.8411   -8.4333 C   0  0  1  0  0  0  0  0  0  0  0  0
   26.7780  -20.7915   -7.2943 C   0  0  0  0  0  0  0  0  0  0  0  0
   27.6622  -20.4664   -6.1516 C   0  0  0  0  0  0  0  0  0  0  0  0
   29.0406  -20.6579   -6.2761 C   0  0  0  0  0  0  0  0  0  0  0  0
   29.9208  -20.3743   -5.2566 C   0  0  0  0  0  0  0  0  0  0  0  0
   29.3776  -19.8822   -4.0794 C   0  0  0  0  0  0  0  0  0  0  0  0
   28.0233  -19.6749   -3.9051 C   0  0  0  0  0  0  0  0  0  0  0  0
   27.1752  -19.9720   -4.9521 C   0  0  0  0  0  0  0  0  0  0  0  0
   26.2291  -20.1658   -9.6000 C   0  0  0  0  0  0  0  0  0  0  0  0
   25.0332  -19.7684   -9.6500 O   0  0  0  0  0  0  0  0  0  0  0  0
   29.7609  -21.3869  -14.4644 N   0  0  0  0  0  0  0  0  0  0  0  0
   28.5424  -21.2315  -15.1635 C   0  0  0  0  0  0  0  0  0  0  0  0
   28.4753  -21.2728  -16.4052 O   0  0  0  0  0  0  0  0  0  0  0  0
   27.2628  -21.0061  -14.3891 C   0  0  0  0  0  0  0  0  0  0  0  0
   27.5792  -21.0509  -12.9288 C   0  0  0  0  0  0  0  0  0  0  0  0
   26.4114  -20.7638  -12.0438 C   0  0  2  0  0  0  0  0  0  0  0  0
   26.7937  -20.9355  -10.6414 N   0  0  0  0  0  0  0  0  0  0  0  0
   25.1985  -21.5324  -12.2741 C   0  0  0  0  0  0  0  0  0  0  0  0
   24.9149  -22.4712  -11.4438 O   0  0  0  0  0  0  0  0  0  0  0  0
   21.3282  -19.3438   -9.8065 C   0  0  0  0  0  0  0  0  0  0  0  0
   20.0396  -20.2990  -10.6510 S   0  0  0  0  0  0  0  0  0  0  0  0
   20.8493  -21.3048  -11.9452 C   0  0  0  0  0  0  0  0  0  0  0  0
   22.3173  -21.0055  -12.0137 C   0  0  0  0  0  0  0  0  0  0  0  0
   22.9189  -21.7295  -13.2012 C   0  0  2  0  0  0  0  0  0  0  0  0
   24.3211  -21.2931  -13.3569 N   0  0  0  0  0  0  0  0  0  0  0  0
   22.2393  -21.3463  -14.4390 C   0  0  0  0  0  0  0  0  0  0  0  0
   21.1020  -21.9580  -14.9683 O   0  0  0  0  0  0  0  0  0  0  0  0
   22.6701  -20.3821  -15.1473 O   0  0  0  0  0  0  0  0  0  0  0  0
  2  1  1  1
  2 10  1  0
  2  3  1  0
  3  4  1  0
  4  5  2  0
  4  9  1  0
  5  6  1  0
  6  7  2  0
  8  7  1  0
  9  8  2  0
 10 18  1  0
 11 10  2  0
 13 15  1  0
 13 12  1  0
 14 13  2  0
 17 16  1  6
 16 15  1  0
 18 17  1  0
 19 17  1  0
 19 20  2  0
 21 22  1  0
 22 23  1  0
 23 24  1  0
 25 24  1  1
 25 26  1  0
 25 27  1  0
 26 19  1  0
 27 28  1  0
 29 27  2  0
M  END
$$$$
