FQM.pdb
     RDKit          3D

 29 29  0  0  1  0  0  0  0  0999 V2000
   25.2076  -17.8847  -16.0435 N   0  0  0  0  0  0  0  0  0  0  0  0
   26.2230  -18.4608  -15.2080 C   0  0  1  0  0  0  0  0  0  0  0  0
   27.1369  -17.3625  -14.6895 C   0  0  0  0  0  0  0  0  0  0  0  0
   27.9336  -16.8511  -15.8282 C   0  0  0  0  0  0  0  0  0  0  0  0
   27.7115  -15.5515  -16.2906 C   0  0  0  0  0  0  0  0  0  0  0  0
   28.4168  -15.0107  -17.3416 C   0  0  0  0  0  0  0  0  0  0  0  0
   29.3740  -15.8197  -17.9353 C   0  0  0  0  0  0  0  0  0  0  0  0
   29.6323  -17.1103  -17.5167 C   0  0  0  0  0  0  0  0  0  0  0  0
   28.9028  -17.6142  -16.4595 C   0  0  0  0  0  0  0  0  0  0  0  0
   25.5400  -19.1062  -14.0423 C   0  0  0  0  0  0  0  0  0  0  0  0
   24.6428  -18.5041  -13.3920 O   0  0  0  0  0  0  0  0  0  0  0  0
   24.4326  -25.0803  -13.9231 N   0  0  0  0  0  0  0  0  0  0  0  0
   23.7245  -24.0606  -14.5987 C   0  0  0  0  0  0  0  0  0  0  0  0
   22.8774  -24.3053  -15.4766 O   0  0  0  0  0  0  0  0  0  0  0  0
   23.9940  -22.6126  -14.2541 C   0  0  0  0  0  0  0  0  0  0  0  0
   24.9871  -22.5688  -13.1377 C   0  0  0  0  0  0  0  0  0  0  0  0
   25.2896  -21.1918  -12.6458 C   0  0  2  0  0  0  0  0  0  0  0  0
   25.9428  -20.4167  -13.7016 N   0  0  0  0  0  0  0  0  0  0  0  0
   26.0985  -21.0791  -11.4424 C   0  0  0  0  0  0  0  0  0  0  0  0
   27.1888  -21.7568  -11.3853 O   0  0  0  0  0  0  0  0  0  0  0  0
   29.6256  -19.7277   -5.8181 C   0  0  0  0  0  0  0  0  0  0  0  0
   27.9162  -19.1254   -5.7855 S   0  0  0  0  0  0  0  0  0  0  0  0
   26.9001  -20.2783   -6.7758 C   0  0  0  0  0  0  0  0  0  0  0  0
   26.7607  -19.7900   -8.1870 C   0  0  0  0  0  0  0  0  0  0  0  0
   25.9775  -20.8076   -8.9916 C   0  0  2  0  0  0  0  0  0  0  0  0
   25.7470  -20.2610  -10.3440 N   0  0  0  0  0  0  0  0  0  0  0  0
   24.6506  -21.0156   -8.4110 C   0  0  0  0  0  0  0  0  0  0  0  0
   24.3658  -21.7840   -7.2814 O   0  0  0  0  0  0  0  0  0  0  0  0
   23.6206  -20.4819   -8.9317 O   0  0  0  0  0  0  0  0  0  0  0  0
  2  1  1  6
  2 10  1  0
  2  3  1  0
  3  4  1  0
  4  5  2  0
  4  9  1  0
  5  6  1  0
  6  7  2  0
  8  7  1  0
  9  8  2  0
 10 18  1  0
 11 10  2  0
 13 15  1  0
 13 12  1  0
 14 13  2  0
 17 16  1  6
 16 15  1  0
 18 17  1  0
 19 17  1  0
 19 20  2  0
 21 22  1  0
 22 23  1  0
 23 24  1  0
 25 24  1  1
 25 26  1  0
 25 27  1  0
 26 19  1  0
 27 28  1  0
 29 27  2  0
M  END
$$$$
