FQM.pdb
     RDKit          3D

 29 29  0  0  1  0  0  0  0  0999 V2000
   19.8988   -9.0078  -13.3493 N   0  0  0  0  0  0  0  0  0  0  0  0
   19.6568   -8.7841  -11.9520 C   0  0  1  0  0  0  0  0  0  0  0  0
   20.7858   -7.9502  -11.3686 C   0  0  0  0  0  0  0  0  0  0  0  0
   20.9472   -6.7418  -12.2094 C   0  0  0  0  0  0  0  0  0  0  0  0
   21.8216   -6.7771  -13.2986 C   0  0  0  0  0  0  0  0  0  0  0  0
   22.0182   -5.6930  -14.1235 C   0  0  0  0  0  0  0  0  0  0  0  0
   21.3023   -4.5429  -13.8270 C   0  0  0  0  0  0  0  0  0  0  0  0
   20.4260   -4.4558  -12.7630 C   0  0  0  0  0  0  0  0  0  0  0  0
   20.2580   -5.5656  -11.9606 C   0  0  0  0  0  0  0  0  0  0  0  0
   18.3790   -8.0134  -11.8298 C   0  0  0  0  0  0  0  0  0  0  0  0
   17.8364   -7.4791  -12.8352 O   0  0  0  0  0  0  0  0  0  0  0  0
   13.9365  -10.1186   -8.6368 N   0  0  0  0  0  0  0  0  0  0  0  0
   13.3962   -8.8166   -8.7398 C   0  0  0  0  0  0  0  0  0  0  0  0
   12.2521   -8.5352   -8.3397 O   0  0  0  0  0  0  0  0  0  0  0  0
   14.2258   -7.7124   -9.3563 C   0  0  0  0  0  0  0  0  0  0  0  0
   15.6153   -8.2235   -9.5629 C   0  0  0  0  0  0  0  0  0  0  0  0
   16.5054   -7.2834  -10.3068 C   0  0  2  0  0  0  0  0  0  0  0  0
   17.8073   -7.9094  -10.5422 N   0  0  0  0  0  0  0  0  0  0  0  0
   16.7383   -5.9773   -9.7109 C   0  0  0  0  0  0  0  0  0  0  0  0
   17.5690   -5.9019   -8.7334 O   0  0  0  0  0  0  0  0  0  0  0  0
   17.6253   -1.9852  -13.9804 C   0  0  0  0  0  0  0  0  0  0  0  0
   18.0317   -1.1867  -12.4047 S   0  0  0  0  0  0  0  0  0  0  0  0
   17.8952   -2.4485  -11.0888 C   0  0  0  0  0  0  0  0  0  0  0  0
   16.5316   -2.4241  -10.4649 C   0  0  0  0  0  0  0  0  0  0  0  0
   16.4288   -3.5422   -9.4473 C   0  0  2  0  0  0  0  0  0  0  0  0
   16.1029   -4.7955  -10.1572 N   0  0  0  0  0  0  0  0  0  0  0  0
   15.3179   -3.3021   -8.5257 C   0  0  0  0  0  0  0  0  0  0  0  0
   15.3453   -2.4527   -7.4189 O   0  0  0  0  0  0  0  0  0  0  0  0
   14.2007   -3.8881   -8.6852 O   0  0  0  0  0  0  0  0  0  0  0  0
  2  1  1  6
  2 10  1  0
  2  3  1  0
  3  4  1  0
  4  5  2  0
  4  9  1  0
  5  6  1  0
  6  7  2  0
  8  7  1  0
  9  8  2  0
 10 18  1  0
 11 10  2  0
 13 15  1  0
 13 12  1  0
 14 13  2  0
 17 16  1  1
 16 15  1  0
 18 17  1  0
 19 17  1  0
 19 20  2  0
 21 22  1  0
 22 23  1  0
 23 24  1  0
 25 24  1  6
 25 26  1  0
 25 27  1  0
 26 19  1  0
 27 28  1  0
 29 27  2  0
M  END
$$$$
