FQM.pdb
     RDKit          3D

 29 29  0  0  1  0  0  0  0  0999 V2000
   28.7622  -21.4870  -17.9180 N   0  0  0  0  0  0  0  0  0  0  0  0
   28.4909  -22.1399  -16.6685 C   0  0  1  0  0  0  0  0  0  0  0  0
   29.8012  -22.4516  -15.9639 C   0  0  0  0  0  0  0  0  0  0  0  0
   30.4117  -23.6270  -16.6264 C   0  0  0  0  0  0  0  0  0  0  0  0
   31.5043  -23.4428  -17.4774 C   0  0  0  0  0  0  0  0  0  0  0  0
   32.1223  -24.4895  -18.1233 C   0  0  0  0  0  0  0  0  0  0  0  0
   31.6098  -25.7574  -17.8930 C   0  0  0  0  0  0  0  0  0  0  0  0
   30.5324  -25.9935  -17.0616 C   0  0  0  0  0  0  0  0  0  0  0  0
   29.9418  -24.9163  -16.4334 C   0  0  0  0  0  0  0  0  0  0  0  0
   27.7049  -21.1891  -15.8202 C   0  0  0  0  0  0  0  0  0  0  0  0
   27.8328  -19.9404  -15.9434 O   0  0  0  0  0  0  0  0  0  0  0  0
   22.4822  -19.8879  -16.0088 N   0  0  0  0  0  0  0  0  0  0  0  0
   22.5635  -19.4184  -14.6782 C   0  0  0  0  0  0  0  0  0  0  0  0
   21.6562  -18.7513  -14.1492 O   0  0  0  0  0  0  0  0  0  0  0  0
   23.7919  -19.7294  -13.8522 C   0  0  0  0  0  0  0  0  0  0  0  0
   24.7638  -20.4726  -14.7109 C   0  0  0  0  0  0  0  0  0  0  0  0
   25.9893  -20.9280  -13.9895 C   0  0  2  0  0  0  0  0  0  0  0  0
   26.8149  -21.7488  -14.8767 N   0  0  0  0  0  0  0  0  0  0  0  0
   25.7956  -21.6644  -12.7505 C   0  0  0  0  0  0  0  0  0  0  0  0
   24.8262  -22.5061  -12.6966 O   0  0  0  0  0  0  0  0  0  0  0  0
   28.7383  -19.7312   -7.2814 C   0  0  0  0  0  0  0  0  0  0  0  0
   26.9918  -19.4871   -6.8621 S   0  0  0  0  0  0  0  0  0  0  0  0
   25.9909  -20.4010   -8.0890 C   0  0  0  0  0  0  0  0  0  0  0  0
   26.7538  -20.5897   -9.3664 C   0  0  0  0  0  0  0  0  0  0  0  0
   25.9596  -21.4875  -10.2935 C   0  0  2  0  0  0  0  0  0  0  0  0
   26.6210  -21.5029  -11.6138 N   0  0  0  0  0  0  0  0  0  0  0  0
   24.6213  -20.9414  -10.5212 C   0  0  0  0  0  0  0  0  0  0  0  0
   23.4369  -21.4265   -9.9651 O   0  0  0  0  0  0  0  0  0  0  0  0
   24.4477  -19.9391  -11.2842 O   0  0  0  0  0  0  0  0  0  0  0  0
  2  1  1  6
  2 10  1  0
  2  3  1  0
  3  4  1  0
  4  5  2  0
  4  9  1  0
  5  6  1  0
  6  7  2  0
  8  7  1  0
  9  8  2  0
 10 18  1  0
 11 10  2  0
 13 15  1  0
 13 12  1  0
 14 13  2  0
 17 16  1  6
 16 15  1  0
 18 17  1  0
 19 17  1  0
 19 20  2  0
 21 22  1  0
 22 23  1  0
 23 24  1  0
 25 24  1  1
 25 26  1  0
 25 27  1  0
 26 19  1  0
 27 28  1  0
 29 27  2  0
M  END
$$$$
