FQM.pdb
     RDKit          3D

 29 29  0  0  1  0  0  0  0  0999 V2000
   18.6902  -23.9016  -13.7221 N   0  0  0  0  0  0  0  0  0  0  0  0
   19.3063  -23.7215  -12.4380 C   0  0  1  0  0  0  0  0  0  0  0  0
   19.0020  -22.3250  -11.9206 C   0  0  0  0  0  0  0  0  0  0  0  0
   19.7204  -21.3513  -12.7743 C   0  0  0  0  0  0  0  0  0  0  0  0
   21.1059  -21.2218  -12.6487 C   0  0  0  0  0  0  0  0  0  0  0  0
   21.8375  -20.3398  -13.4111 C   0  0  0  0  0  0  0  0  0  0  0  0
   21.1342  -19.5702  -14.3257 C   0  0  0  0  0  0  0  0  0  0  0  0
   19.7657  -19.6597  -14.4890 C   0  0  0  0  0  0  0  0  0  0  0  0
   19.0699  -20.5566  -13.7047 C   0  0  0  0  0  0  0  0  0  0  0  0
   18.7042  -24.7218  -11.5007 C   0  0  0  0  0  0  0  0  0  0  0  0
   17.4545  -24.8649  -11.4083 O   0  0  0  0  0  0  0  0  0  0  0  0
   21.6678  -29.8890   -9.9175 N   0  0  0  0  0  0  0  0  0  0  0  0
   20.9311  -29.6673  -11.1032 C   0  0  0  0  0  0  0  0  0  0  0  0
   21.0571  -30.3855  -12.1114 O   0  0  0  0  0  0  0  0  0  0  0  0
   19.9486  -28.5190  -11.1661 C   0  0  0  0  0  0  0  0  0  0  0  0
   20.0658  -27.7263   -9.9042 C   0  0  0  0  0  0  0  0  0  0  0  0
   19.1356  -26.5607   -9.8289 C   0  0  2  0  0  0  0  0  0  0  0  0
   19.5938  -25.4977  -10.7246 N   0  0  0  0  0  0  0  0  0  0  0  0
   18.9103  -25.9743   -8.5172 C   0  0  0  0  0  0  0  0  0  0  0  0
   19.8314  -25.2236   -8.0280 O   0  0  0  0  0  0  0  0  0  0  0  0
   13.7656  -23.3219   -6.1365 C   0  0  0  0  0  0  0  0  0  0  0  0
   14.4313  -23.8516   -4.5357 S   0  0  0  0  0  0  0  0  0  0  0  0
   16.1108  -24.5145   -4.8224 C   0  0  0  0  0  0  0  0  0  0  0  0
   16.2163  -25.1303   -6.1858 C   0  0  0  0  0  0  0  0  0  0  0  0
   17.6529  -25.5420   -6.4371 C   0  0  2  0  0  0  0  0  0  0  0  0
   17.7323  -26.1853   -7.7640 N   0  0  0  0  0  0  0  0  0  0  0  0
   18.0761  -26.5576   -5.4725 C   0  0  0  0  0  0  0  0  0  0  0  0
   17.9134  -27.9362   -5.6152 O   0  0  0  0  0  0  0  0  0  0  0  0
   18.6456  -26.2261   -4.3849 O   0  0  0  0  0  0  0  0  0  0  0  0
  2  1  1  6
  2 10  1  0
  2  3  1  0
  3  4  1  0
  4  5  2  0
  4  9  1  0
  5  6  1  0
  6  7  2  0
  8  7  1  0
  9  8  2  0
 10 18  1  0
 11 10  2  0
 13 15  1  0
 13 12  1  0
 14 13  2  0
 17 16  1  1
 16 15  1  0
 18 17  1  0
 19 17  1  0
 19 20  2  0
 21 22  1  0
 22 23  1  0
 23 24  1  0
 25 24  1  1
 25 26  1  0
 25 27  1  0
 26 19  1  0
 27 28  1  0
 29 27  2  0
M  END
$$$$
