FQM.pdb
     RDKit          3D

 29 29  0  0  1  0  0  0  0  0999 V2000
   28.2960  -20.6719  -11.0537 N   0  0  0  0  0  0  0  0  0  0  0  0
   26.9668  -21.1605  -10.8179 C   0  0  1  0  0  0  0  0  0  0  0  0
   26.3359  -20.3833   -9.6740 C   0  0  0  0  0  0  0  0  0  0  0  0
   27.3407  -20.2583   -8.5933 C   0  0  0  0  0  0  0  0  0  0  0  0
   27.4432  -19.0558   -7.8893 C   0  0  0  0  0  0  0  0  0  0  0  0
   28.3516  -18.8706   -6.8718 C   0  0  0  0  0  0  0  0  0  0  0  0
   29.1765  -19.9428   -6.5664 C   0  0  0  0  0  0  0  0  0  0  0  0
   29.1157  -21.1518   -7.2313 C   0  0  0  0  0  0  0  0  0  0  0  0
   28.1908  -21.2958   -8.2451 C   0  0  0  0  0  0  0  0  0  0  0  0
   26.1668  -20.9190  -12.0602 C   0  0  0  0  0  0  0  0  0  0  0  0
   26.5453  -20.0917  -12.9337 O   0  0  0  0  0  0  0  0  0  0  0  0
   25.6067  -24.9035  -15.6117 N   0  0  0  0  0  0  0  0  0  0  0  0
   24.8611  -23.9901  -16.3910 C   0  0  0  0  0  0  0  0  0  0  0  0
   24.4267  -24.2763  -17.5213 O   0  0  0  0  0  0  0  0  0  0  0  0
   24.5713  -22.6092  -15.8462 C   0  0  0  0  0  0  0  0  0  0  0  0
   25.1474  -22.5128  -14.4703 C   0  0  0  0  0  0  0  0  0  0  0  0
   24.2820  -21.7815  -13.4977 C   0  0  2  0  0  0  0  0  0  0  0  0
   24.9711  -21.6557  -12.2126 N   0  0  0  0  0  0  0  0  0  0  0  0
   22.9586  -22.3287  -13.2440 C   0  0  0  0  0  0  0  0  0  0  0  0
   22.7378  -22.8597  -12.0949 O   0  0  0  0  0  0  0  0  0  0  0  0
   21.0926  -19.3964   -9.9123 C   0  0  0  0  0  0  0  0  0  0  0  0
   19.7012  -18.9133  -10.9690 S   0  0  0  0  0  0  0  0  0  0  0  0
   19.4833  -20.2155  -12.2335 C   0  0  0  0  0  0  0  0  0  0  0  0
   20.8094  -20.6671  -12.7690 C   0  0  0  0  0  0  0  0  0  0  0  0
   20.5930  -21.8176  -13.7312 C   0  0  2  0  0  0  0  0  0  0  0  0
   21.9107  -22.2986  -14.1929 N   0  0  0  0  0  0  0  0  0  0  0  0
   19.8887  -21.3631  -14.9305 C   0  0  0  0  0  0  0  0  0  0  0  0
   18.5042  -21.3387  -15.1035 O   0  0  0  0  0  0  0  0  0  0  0  0
   20.5317  -20.9433  -15.9441 O   0  0  0  0  0  0  0  0  0  0  0  0
  2  1  1  6
  2 10  1  0
  2  3  1  0
  3  4  1  0
  4  5  2  0
  4  9  1  0
  5  6  1  0
  6  7  2  0
  8  7  1  0
  9  8  2  0
 10 18  1  0
 11 10  2  0
 13 15  1  0
 13 12  1  0
 14 13  2  0
 17 16  1  6
 16 15  1  0
 18 17  1  0
 19 17  1  0
 19 20  2  0
 21 22  1  0
 22 23  1  0
 23 24  1  0
 25 24  1  1
 25 26  1  0
 25 27  1  0
 26 19  1  0
 27 28  1  0
 29 27  2  0
M  END
$$$$
