FQM.pdb
     RDKit          3D

 29 29  0  0  1  0  0  0  0  0999 V2000
   28.4496  -20.9786  -15.6812 N   0  0  0  0  0  0  0  0  0  0  0  0
   28.7324  -21.0350  -14.2748 C   0  0  1  0  0  0  0  0  0  0  0  0
   30.0878  -20.4025  -14.0040 C   0  0  0  0  0  0  0  0  0  0  0  0
   30.6931  -21.0916  -12.8413 C   0  0  0  0  0  0  0  0  0  0  0  0
   30.6562  -20.4784  -11.5864 C   0  0  0  0  0  0  0  0  0  0  0  0
   31.1961  -21.0621  -10.4628 C   0  0  0  0  0  0  0  0  0  0  0  0
   31.7890  -22.3050  -10.6267 C   0  0  0  0  0  0  0  0  0  0  0  0
   31.8519  -22.9536  -11.8445 C   0  0  0  0  0  0  0  0  0  0  0  0
   31.2986  -22.3336  -12.9459 C   0  0  0  0  0  0  0  0  0  0  0  0
   27.6813  -20.2371  -13.5676 C   0  0  0  0  0  0  0  0  0  0  0  0
   27.2211  -19.1727  -14.0636 O   0  0  0  0  0  0  0  0  0  0  0  0
   22.2970  -19.7046  -12.4367 N   0  0  0  0  0  0  0  0  0  0  0  0
   22.8714  -20.9643  -12.7207 C   0  0  0  0  0  0  0  0  0  0  0  0
   22.1837  -21.9677  -12.9823 O   0  0  0  0  0  0  0  0  0  0  0  0
   24.3763  -21.1162  -12.7108 C   0  0  0  0  0  0  0  0  0  0  0  0
   24.9784  -19.8322  -12.2385 C   0  0  0  0  0  0  0  0  0  0  0  0
   26.2627  -19.9990  -11.4954 C   0  0  2  0  0  0  0  0  0  0  0  0
   27.2272  -20.7258  -12.3223 N   0  0  0  0  0  0  0  0  0  0  0  0
   26.1999  -20.6562  -10.1995 C   0  0  0  0  0  0  0  0  0  0  0  0
   26.3036  -21.9366  -10.1691 O   0  0  0  0  0  0  0  0  0  0  0  0
   29.2477  -18.9959   -4.8350 C   0  0  0  0  0  0  0  0  0  0  0  0
   27.7223  -19.6420   -4.0990 S   0  0  0  0  0  0  0  0  0  0  0  0
   26.8545  -20.6158   -5.3799 C   0  0  0  0  0  0  0  0  0  0  0  0
   26.7937  -19.8612   -6.6746 C   0  0  0  0  0  0  0  0  0  0  0  0
   26.1531  -20.7369   -7.7325 C   0  0  2  0  0  0  0  0  0  0  0  0
   26.0371  -19.9571   -8.9812 N   0  0  0  0  0  0  0  0  0  0  0  0
   24.7854  -21.0911   -7.3518 C   0  0  0  0  0  0  0  0  0  0  0  0
   24.4253  -22.0038   -6.3593 O   0  0  0  0  0  0  0  0  0  0  0  0
   23.7882  -20.5619   -7.9371 O   0  0  0  0  0  0  0  0  0  0  0  0
  2  1  1  6
  2 10  1  0
  2  3  1  0
  3  4  1  0
  4  5  2  0
  4  9  1  0
  5  6  1  0
  6  7  2  0
  8  7  1  0
  9  8  2  0
 10 18  1  0
 11 10  2  0
 13 15  1  0
 13 12  1  0
 14 13  2  0
 17 16  1  6
 16 15  1  0
 18 17  1  0
 19 17  1  0
 19 20  2  0
 21 22  1  0
 22 23  1  0
 23 24  1  0
 25 24  1  1
 25 26  1  0
 25 27  1  0
 26 19  1  0
 27 28  1  0
 29 27  2  0
M  END
$$$$
