FQM.pdb
     RDKit          3D

 29 29  0  0  1  0  0  0  0  0999 V2000
   27.9235  -21.2938   -9.1653 N   0  0  0  0  0  0  0  0  0  0  0  0
   26.8476  -20.4300   -8.7686 C   0  0  1  0  0  0  0  0  0  0  0  0
   27.4158  -19.1639   -8.1485 C   0  0  0  0  0  0  0  0  0  0  0  0
   28.1388  -19.5413   -6.9125 C   0  0  0  0  0  0  0  0  0  0  0  0
   27.4496  -20.1962   -5.8887 C   0  0  0  0  0  0  0  0  0  0  0  0
   28.0586  -20.5785   -4.7150 C   0  0  0  0  0  0  0  0  0  0  0  0
   29.4074  -20.2834   -4.5848 C   0  0  0  0  0  0  0  0  0  0  0  0
   30.1343  -19.6382   -5.5661 C   0  0  0  0  0  0  0  0  0  0  0  0
   29.4855  -19.2721   -6.7275 C   0  0  0  0  0  0  0  0  0  0  0  0
   26.0844  -20.0590  -10.0020 C   0  0  0  0  0  0  0  0  0  0  0  0
   25.0451  -19.3470   -9.9411 O   0  0  0  0  0  0  0  0  0  0  0  0
   27.3391  -20.7952  -16.1063 N   0  0  0  0  0  0  0  0  0  0  0  0
   27.9097  -21.6988  -15.1813 C   0  0  0  0  0  0  0  0  0  0  0  0
   28.4687  -22.7525  -15.5356 O   0  0  0  0  0  0  0  0  0  0  0  0
   27.8477  -21.3890  -13.7021 C   0  0  0  0  0  0  0  0  0  0  0  0
   27.1987  -20.0542  -13.5250 C   0  0  0  0  0  0  0  0  0  0  0  0
   26.0904  -20.0441  -12.5245 C   0  0  2  0  0  0  0  0  0  0  0  0
   26.5765  -20.5397  -11.2359 N   0  0  0  0  0  0  0  0  0  0  0  0
   24.8842  -20.7833  -12.8618 C   0  0  0  0  0  0  0  0  0  0  0  0
   24.7221  -21.9430  -12.3327 O   0  0  0  0  0  0  0  0  0  0  0  0
   19.0720  -20.0353  -11.8454 C   0  0  0  0  0  0  0  0  0  0  0  0
   19.5627  -18.7935  -13.0713 S   0  0  0  0  0  0  0  0  0  0  0  0
   21.0684  -19.4031  -13.9101 C   0  0  0  0  0  0  0  0  0  0  0  0
   21.5308  -20.6951  -13.3051 C   0  0  0  0  0  0  0  0  0  0  0  0
   22.7571  -21.1835  -14.0493 C   0  0  2  0  0  0  0  0  0  0  0  0
   23.8871  -20.2869  -13.7330 N   0  0  0  0  0  0  0  0  0  0  0  0
   22.5581  -21.0838  -15.4955 C   0  0  0  0  0  0  0  0  0  0  0  0
   23.1964  -20.1805  -16.3464 O   0  0  0  0  0  0  0  0  0  0  0  0
   21.7441  -21.8545  -16.0959 O   0  0  0  0  0  0  0  0  0  0  0  0
  2  1  1  6
  2 10  1  0
  2  3  1  0
  3  4  1  0
  4  5  2  0
  4  9  1  0
  5  6  1  0
  6  7  2  0
  8  7  1  0
  9  8  2  0
 10 18  1  0
 11 10  2  0
 13 15  1  0
 13 12  1  0
 14 13  2  0
 17 16  1  6
 16 15  1  0
 18 17  1  0
 19 17  1  0
 19 20  2  0
 21 22  1  0
 22 23  1  0
 23 24  1  0
 25 24  1  1
 25 26  1  0
 25 27  1  0
 26 19  1  0
 27 28  1  0
 29 27  2  0
M  END
$$$$
