FQM.pdb
     RDKit          3D

 29 29  0  0  1  0  0  0  0  0999 V2000
   28.3917  -21.1976   -9.1916 N   0  0  0  0  0  0  0  0  0  0  0  0
   27.0273  -20.7526   -9.1539 C   0  0  1  0  0  0  0  0  0  0  0  0
   26.9401  -19.4488   -8.3774 C   0  0  0  0  0  0  0  0  0  0  0  0
   27.3949  -19.7071   -6.9919 C   0  0  0  0  0  0  0  0  0  0  0  0
   28.5905  -19.1379   -6.5462 C   0  0  0  0  0  0  0  0  0  0  0  0
   29.0715  -19.3331   -5.2714 C   0  0  0  0  0  0  0  0  0  0  0  0
   28.3102  -20.1310   -4.4305 C   0  0  0  0  0  0  0  0  0  0  0  0
   27.1221  -20.7167   -4.8216 C   0  0  0  0  0  0  0  0  0  0  0  0
   26.6754  -20.4957   -6.1082 C   0  0  0  0  0  0  0  0  0  0  0  0
   26.5925  -20.5005  -10.5642 C   0  0  0  0  0  0  0  0  0  0  0  0
   27.4185  -20.1602  -11.4546 O   0  0  0  0  0  0  0  0  0  0  0  0
   27.3166  -22.8593  -15.1319 N   0  0  0  0  0  0  0  0  0  0  0  0
   26.1199  -22.1090  -15.0814 C   0  0  0  0  0  0  0  0  0  0  0  0
   25.9310  -21.1052  -15.7920 O   0  0  0  0  0  0  0  0  0  0  0  0
   25.0176  -22.5277  -14.1341 C   0  0  0  0  0  0  0  0  0  0  0  0
   25.4246  -22.1619  -12.7431 C   0  0  0  0  0  0  0  0  0  0  0  0
   24.7292  -20.9563  -12.2024 C   0  0  2  0  0  0  0  0  0  0  0  0
   25.2193  -20.6593  -10.8556 N   0  0  0  0  0  0  0  0  0  0  0  0
   23.2763  -20.9944  -12.1513 C   0  0  0  0  0  0  0  0  0  0  0  0
   22.7237  -21.9005  -11.4269 O   0  0  0  0  0  0  0  0  0  0  0  0
   20.1961  -16.1080  -14.4935 C   0  0  0  0  0  0  0  0  0  0  0  0
   19.8109  -16.2648  -12.7292 S   0  0  0  0  0  0  0  0  0  0  0  0
   20.5334  -17.8369  -12.1385 C   0  0  0  0  0  0  0  0  0  0  0  0
   20.3345  -18.9284  -13.1475 C   0  0  0  0  0  0  0  0  0  0  0  0
   20.9924  -20.1977  -12.6452 C   0  0  2  0  0  0  0  0  0  0  0  0
   22.4503  -20.0849  -12.8514 N   0  0  0  0  0  0  0  0  0  0  0  0
   20.5629  -21.3509  -13.4369 C   0  0  0  0  0  0  0  0  0  0  0  0
   19.4899  -22.1916  -13.1378 O   0  0  0  0  0  0  0  0  0  0  0  0
   21.1777  -21.6759  -14.5014 O   0  0  0  0  0  0  0  0  0  0  0  0
  2  1  1  6
  2 10  1  0
  2  3  1  0
  3  4  1  0
  4  5  2  0
  4  9  1  0
  5  6  1  0
  6  7  2  0
  8  7  1  0
  9  8  2  0
 10 18  1  0
 11 10  2  0
 13 15  1  0
 13 12  1  0
 14 13  2  0
 17 16  1  1
 16 15  1  0
 18 17  1  0
 19 17  1  0
 19 20  2  0
 21 22  1  0
 22 23  1  0
 23 24  1  0
 25 24  1  6
 25 26  1  0
 25 27  1  0
 26 19  1  0
 27 28  1  0
 29 27  2  0
M  END
$$$$
