FQM.pdb
     RDKit          3D

 29 29  0  0  1  0  0  0  0  0999 V2000
   25.3204  -16.1297  -17.6336 N   0  0  0  0  0  0  0  0  0  0  0  0
   25.6689  -17.2125  -16.7577 C   0  0  1  0  0  0  0  0  0  0  0  0
   27.0234  -16.9376  -16.1252 C   0  0  0  0  0  0  0  0  0  0  0  0
   28.0603  -17.0971  -17.1706 C   0  0  0  0  0  0  0  0  0  0  0  0
   28.5459  -15.9660  -17.8317 C   0  0  0  0  0  0  0  0  0  0  0  0
   29.5106  -16.0399  -18.8107 C   0  0  0  0  0  0  0  0  0  0  0  0
   29.9912  -17.3030  -19.1217 C   0  0  0  0  0  0  0  0  0  0  0  0
   29.5451  -18.4520  -18.4985 C   0  0  0  0  0  0  0  0  0  0  0  0
   28.5770  -18.3337  -17.5225 C   0  0  0  0  0  0  0  0  0  0  0  0
   24.6370  -17.2708  -15.6745 C   0  0  0  0  0  0  0  0  0  0  0  0
   23.8338  -16.3178  -15.4816 O   0  0  0  0  0  0  0  0  0  0  0  0
   20.0457  -19.9940  -14.0006 N   0  0  0  0  0  0  0  0  0  0  0  0
   20.7349  -20.1579  -15.2236 C   0  0  0  0  0  0  0  0  0  0  0  0
   20.3697  -20.9708  -16.0919 O   0  0  0  0  0  0  0  0  0  0  0  0
   21.9641  -19.3222  -15.5038 C   0  0  0  0  0  0  0  0  0  0  0  0
   22.2501  -18.4828  -14.3005 C   0  0  0  0  0  0  0  0  0  0  0  0
   23.6449  -18.6143  -13.7841 C   0  0  2  0  0  0  0  0  0  0  0  0
   24.6011  -18.4369  -14.8779 N   0  0  0  0  0  0  0  0  0  0  0  0
   23.9829  -19.8468  -13.0899 C   0  0  0  0  0  0  0  0  0  0  0  0
   24.1951  -20.8973  -13.7989 O   0  0  0  0  0  0  0  0  0  0  0  0
   26.6970  -20.5551   -7.1530 C   0  0  0  0  0  0  0  0  0  0  0  0
   26.0625  -19.1376   -8.0879 S   0  0  0  0  0  0  0  0  0  0  0  0
   25.7612  -19.6915   -9.8039 C   0  0  0  0  0  0  0  0  0  0  0  0
   25.1742  -21.0715   -9.8243 C   0  0  0  0  0  0  0  0  0  0  0  0
   24.4069  -21.2679  -11.1162 C   0  0  2  0  0  0  0  0  0  0  0  0
   24.0936  -19.9408  -11.6834 N   0  0  0  0  0  0  0  0  0  0  0  0
   23.1171  -21.9093  -10.8591 C   0  0  0  0  0  0  0  0  0  0  0  0
   21.9343  -21.2537  -10.5148 O   0  0  0  0  0  0  0  0  0  0  0  0
   22.9909  -23.1724  -10.9349 O   0  0  0  0  0  0  0  0  0  0  0  0
  2  1  1  6
  2 10  1  0
  2  3  1  0
  3  4  1  0
  4  5  2  0
  4  9  1  0
  5  6  1  0
  6  7  2  0
  8  7  1  0
  9  8  2  0
 10 18  1  0
 11 10  2  0
 13 15  1  0
 13 12  1  0
 14 13  2  0
 17 16  1  6
 16 15  1  0
 18 17  1  0
 19 17  1  0
 19 20  2  0
 21 22  1  0
 22 23  1  0
 23 24  1  0
 25 24  1  1
 25 26  1  0
 25 27  1  0
 26 19  1  0
 27 28  1  0
 29 27  2  0
M  END
$$$$
