FQM.pdb
     RDKit          3D

 29 29  0  0  1  0  0  0  0  0999 V2000
   20.8356   -6.4261  -13.9851 N   0  0  0  0  0  0  0  0  0  0  0  0
   21.1855   -7.0027  -15.2525 C   0  0  1  0  0  0  0  0  0  0  0  0
   22.6415   -6.6974  -15.5641 C   0  0  0  0  0  0  0  0  0  0  0  0
   22.7382   -5.2745  -15.9632 C   0  0  0  0  0  0  0  0  0  0  0  0
   23.0481   -4.3123  -14.9987 C   0  0  0  0  0  0  0  0  0  0  0  0
   23.1569   -2.9735  -15.2993 C   0  0  0  0  0  0  0  0  0  0  0  0
   22.9433   -2.6092  -16.6202 C   0  0  0  0  0  0  0  0  0  0  0  0
   22.6347   -3.5204  -17.6112 C   0  0  0  0  0  0  0  0  0  0  0  0
   22.5351   -4.8529  -17.2675 C   0  0  0  0  0  0  0  0  0  0  0  0
   21.0207   -8.4863  -15.1377 C   0  0  0  0  0  0  0  0  0  0  0  0
   21.0340   -9.0631  -14.0162 O   0  0  0  0  0  0  0  0  0  0  0  0
   16.9924  -11.3486  -18.3758 N   0  0  0  0  0  0  0  0  0  0  0  0
   17.6555  -12.5109  -17.9210 C   0  0  0  0  0  0  0  0  0  0  0  0
   17.1901  -13.6529  -18.0868 O   0  0  0  0  0  0  0  0  0  0  0  0
   18.9811  -12.3801  -17.2044 C   0  0  0  0  0  0  0  0  0  0  0  0
   19.3140  -10.9277  -17.0865 C   0  0  0  0  0  0  0  0  0  0  0  0
   20.5866  -10.6521  -16.3558 C   0  0  2  0  0  0  0  0  0  0  0  0
   20.8502   -9.2125  -16.3374 N   0  0  0  0  0  0  0  0  0  0  0  0
   21.7861  -11.3204  -16.8354 C   0  0  0  0  0  0  0  0  0  0  0  0
   22.4728  -10.7381  -17.7522 O   0  0  0  0  0  0  0  0  0  0  0  0
   28.1197  -15.6329  -15.8489 C   0  0  0  0  0  0  0  0  0  0  0  0
   26.6428  -14.9345  -15.0634 S   0  0  0  0  0  0  0  0  0  0  0  0
   25.5569  -14.2946  -16.3877 C   0  0  0  0  0  0  0  0  0  0  0  0
   24.3822  -13.5640  -15.8086 C   0  0  0  0  0  0  0  0  0  0  0  0
   23.4613  -13.1313  -16.9316 C   0  0  2  0  0  0  0  0  0  0  0  0
   22.2311  -12.5678  -16.3400 N   0  0  0  0  0  0  0  0  0  0  0  0
   23.0339  -14.2851  -17.7235 C   0  0  0  0  0  0  0  0  0  0  0  0
   23.6833  -14.7847  -18.8532 O   0  0  0  0  0  0  0  0  0  0  0  0
   21.9856  -14.9351  -17.4147 O   0  0  0  0  0  0  0  0  0  0  0  0
  2  1  1  1
  2 10  1  0
  2  3  1  0
  3  4  1  0
  4  5  2  0
  4  9  1  0
  5  6  1  0
  6  7  2  0
  8  7  1  0
  9  8  2  0
 10 18  1  0
 11 10  2  0
 13 15  1  0
 13 12  1  0
 14 13  2  0
 17 16  1  6
 16 15  1  0
 18 17  1  0
 19 17  1  0
 19 20  2  0
 21 22  1  0
 22 23  1  0
 23 24  1  0
 25 24  1  1
 25 26  1  0
 25 27  1  0
 26 19  1  0
 27 28  1  0
 29 27  2  0
M  END
$$$$
