CPN.pdb
     RDKit          3D

 22 22  0  0  1  0  0  0  0  0999 V2000
    9.7568  -15.4497   14.8067 N   0  0  0  0  0  0  0  0  0  0  0  0
    8.8064  -15.3625   15.8635 C   0  0  1  0  0  0  0  0  0  0  0  0
    8.0883  -16.7011   15.9767 C   0  0  0  0  0  0  0  0  0  0  0  0
    7.0128  -16.8910   14.5234 S   0  0  0  0  0  0  0  0  0  0  0  0
    9.4193  -14.9623   17.1354 C   0  0  0  0  0  0  0  0  0  0  0  0
   10.6363  -15.3181   17.3377 O   0  0  0  0  0  0  0  0  0  0  0  0
    8.7878  -14.2169   18.1626 N   0  0  0  0  0  0  0  0  0  0  0  0
    7.4333  -13.7256   18.0776 C   0  0  0  0  0  0  0  0  0  0  0  0
    7.1068  -12.9882   19.3263 C   0  0  0  0  0  0  0  0  0  0  0  0
    8.3911  -12.8989   20.0776 C   0  0  0  0  0  0  0  0  0  0  0  0
    9.3739  -13.8353   19.4196 C   0  0  1  0  0  0  0  0  0  0  0  0
    9.6246  -14.9911   20.3053 C   0  0  0  0  0  0  0  0  0  0  0  0
    8.9637  -16.0384   20.1645 O   0  0  0  0  0  0  0  0  0  0  0  0
   13.2973  -17.0775   24.4650 N   0  0  0  0  0  0  0  0  0  0  0  0
   12.7156  -17.3570   23.1878 C   0  0  0  0  0  0  0  0  0  0  0  0
   12.5365  -18.5756   22.9428 O   0  0  0  0  0  0  0  0  0  0  0  0
   12.3680  -16.2756   22.2615 C   0  0  0  0  0  0  0  0  0  0  0  0
   10.8870  -16.0719   22.1446 C   0  0  2  0  0  0  0  0  0  0  0  0
   10.6042  -14.9140   21.3046 N   0  0  0  0  0  0  0  0  0  0  0  0
   10.2213  -15.9982   23.4333 C   0  0  0  0  0  0  0  0  0  0  0  0
    9.8906  -14.8338   23.8551 O   0  0  0  0  0  0  0  0  0  0  0  0
    9.8953  -17.0269   24.2703 O   0  0  0  0  0  0  0  0  0  0  0  0
  2  1  1  6
  2  5  1  0
  3  2  1  0
  4  3  1  0
  5  7  1  0
  6  5  2  0
  7  8  1  0
  7 11  1  0
  9  8  1  0
 10  9  1  0
 10 11  1  0
 11 12  1  1
 12 19  1  0
 12 13  2  0
 15 14  1  0
 15 17  1  0
 16 15  2  0
 18 20  1  0
 18 17  1  1
 19 18  1  0
 20 22  1  0
 21 20  2  0
M  END
$$$$
