CPN.pdb
     RDKit          3D

 22 22  0  0  1  0  0  0  0  0999 V2000
    8.6265  -14.1983   21.1965 N   0  0  0  0  0  0  0  0  0  0  0  0
    7.6639  -14.1121   22.2424 C   0  0  1  0  0  0  0  0  0  0  0  0
    6.6955  -15.2796   22.1025 C   0  0  0  0  0  0  0  0  0  0  0  0
    5.7387  -15.0413   20.5753 S   0  0  0  0  0  0  0  0  0  0  0  0
    8.2843  -14.0735   23.5717 C   0  0  0  0  0  0  0  0  0  0  0  0
    9.4312  -14.6363   23.7004 O   0  0  0  0  0  0  0  0  0  0  0  0
    7.7307  -13.4696   24.7285 N   0  0  0  0  0  0  0  0  0  0  0  0
    6.5595  -12.6262   24.7082 C   0  0  0  0  0  0  0  0  0  0  0  0
    6.2692  -12.1679   26.0922 C   0  0  0  0  0  0  0  0  0  0  0  0
    7.4313  -12.6209   26.9085 C   0  0  0  0  0  0  0  0  0  0  0  0
    8.2295  -13.5901   26.0723 C   0  0  1  0  0  0  0  0  0  0  0  0
    8.0761  -14.9554   26.6164 C   0  0  0  0  0  0  0  0  0  0  0  0
    7.1906  -15.7087   26.1674 O   0  0  0  0  0  0  0  0  0  0  0  0
   10.4370  -19.1977   25.4717 N   0  0  0  0  0  0  0  0  0  0  0  0
   11.0529  -18.0646   26.0919 C   0  0  0  0  0  0  0  0  0  0  0  0
   12.2294  -18.2528   26.4888 O   0  0  0  0  0  0  0  0  0  0  0  0
   10.3332  -16.7959   26.2351 C   0  0  0  0  0  0  0  0  0  0  0  0
    9.5765  -16.7062   27.5265 C   0  0  2  0  0  0  0  0  0  0  0  0
    8.9239  -15.4068   27.6369 N   0  0  0  0  0  0  0  0  0  0  0  0
   10.3944  -17.0166   28.6858 C   0  0  0  0  0  0  0  0  0  0  0  0
   11.2100  -16.1120   29.0853 O   0  0  0  0  0  0  0  0  0  0  0  0
   10.4083  -18.1681   29.4199 O   0  0  0  0  0  0  0  0  0  0  0  0
  2  1  1  6
  2  5  1  0
  3  2  1  0
  4  3  1  0
  5  7  1  0
  6  5  2  0
  7  8  1  0
  7 11  1  0
  9  8  1  0
 10  9  1  0
 10 11  1  0
 11 12  1  1
 12 19  1  0
 12 13  2  0
 15 14  1  0
 15 17  1  0
 16 15  2  0
 18 20  1  0
 18 17  1  6
 19 18  1  0
 20 22  1  0
 21 20  2  0
M  END
$$$$
