CPN.pdb
     RDKit          3D

 22 22  0  0  1  0  0  0  0  0999 V2000
    8.8898  -14.6644   21.6308 N   0  0  0  0  0  0  0  0  0  0  0  0
    7.8902  -14.7998   22.6359 C   0  0  1  0  0  0  0  0  0  0  0  0
    7.3518  -16.2240   22.5903 C   0  0  0  0  0  0  0  0  0  0  0  0
    6.3214  -16.4868   24.0648 S   0  0  0  0  0  0  0  0  0  0  0  0
    8.3877  -14.4465   23.9705 C   0  0  0  0  0  0  0  0  0  0  0  0
    9.5754  -14.8283   24.2740 O   0  0  0  0  0  0  0  0  0  0  0  0
    7.6738  -13.7202   24.9567 N   0  0  0  0  0  0  0  0  0  0  0  0
    6.3016  -13.2995   24.8037 C   0  0  0  0  0  0  0  0  0  0  0  0
    5.8824  -12.5627   26.0248 C   0  0  0  0  0  0  0  0  0  0  0  0
    7.1254  -12.3981   26.8310 C   0  0  0  0  0  0  0  0  0  0  0  0
    8.1825  -13.2923   26.2323 C   0  0  1  0  0  0  0  0  0  0  0  0
    8.4505  -14.4218   27.1465 C   0  0  0  0  0  0  0  0  0  0  0  0
    8.8334  -14.2021   28.3120 O   0  0  0  0  0  0  0  0  0  0  0  0
    8.7191  -18.7718   25.4363 N   0  0  0  0  0  0  0  0  0  0  0  0
    7.4529  -18.4298   26.0087 C   0  0  0  0  0  0  0  0  0  0  0  0
    6.4629  -18.6320   25.2629 O   0  0  0  0  0  0  0  0  0  0  0  0
    7.3581  -17.8868   27.3667 C   0  0  0  0  0  0  0  0  0  0  0  0
    8.4041  -16.8494   27.6460 C   0  0  2  0  0  0  0  0  0  0  0  0
    8.2754  -15.7410   26.7072 N   0  0  0  0  0  0  0  0  0  0  0  0
    9.7496  -17.3952   27.6789 C   0  0  0  0  0  0  0  0  0  0  0  0
    9.9755  -18.3448   28.5098 O   0  0  0  0  0  0  0  0  0  0  0  0
   10.8261  -17.0220   26.9259 O   0  0  0  0  0  0  0  0  0  0  0  0
  2  1  1  6
  2  5  1  0
  3  2  1  0
  4  3  1  0
  5  7  1  0
  6  5  2  0
  7  8  1  0
  7 11  1  0
  9  8  1  0
 10  9  1  0
 10 11  1  0
 11 12  1  1
 12 19  1  0
 12 13  2  0
 15 14  1  0
 15 17  1  0
 16 15  2  0
 18 20  1  0
 18 17  1  6
 19 18  1  0
 20 22  1  0
 21 20  2  0
M  END
$$$$
