CPN.pdb
     RDKit          3D

 22 22  0  0  1  0  0  0  0  0999 V2000
    9.0397  -14.8614   14.4539 N   0  0  0  0  0  0  0  0  0  0  0  0
    8.5768  -15.2926   15.7296 C   0  0  1  0  0  0  0  0  0  0  0  0
    8.6638  -16.8125   15.7846 C   0  0  0  0  0  0  0  0  0  0  0  0
    8.2488  -17.3423   17.4733 S   0  0  0  0  0  0  0  0  0  0  0  0
    9.3114  -14.6633   16.8331 C   0  0  0  0  0  0  0  0  0  0  0  0
   10.5905  -14.6142   16.7339 O   0  0  0  0  0  0  0  0  0  0  0  0
    8.7349  -14.1035   18.0010 N   0  0  0  0  0  0  0  0  0  0  0  0
    7.3120  -14.0043   18.2224 C   0  0  0  0  0  0  0  0  0  0  0  0
    7.0711  -13.3649   19.5426 C   0  0  0  0  0  0  0  0  0  0  0  0
    8.4123  -12.9146   20.0121 C   0  0  0  0  0  0  0  0  0  0  0  0
    9.4489  -13.5556   19.1231 C   0  0  1  0  0  0  0  0  0  0  0  0
   10.1865  -14.5840   19.8859 C   0  0  0  0  0  0  0  0  0  0  0  0
    9.7555  -15.7524   19.9337 O   0  0  0  0  0  0  0  0  0  0  0  0
   13.3819  -14.9483   18.9439 N   0  0  0  0  0  0  0  0  0  0  0  0
   14.1433  -14.7839   20.1443 C   0  0  0  0  0  0  0  0  0  0  0  0
   15.3581  -14.5185   19.9685 O   0  0  0  0  0  0  0  0  0  0  0  0
   13.5175  -14.9222   21.4624 C   0  0  0  0  0  0  0  0  0  0  0  0
   12.0556  -15.2441   21.3744 C   0  0  2  0  0  0  0  0  0  0  0  0
   11.3708  -14.2498   20.5567 N   0  0  0  0  0  0  0  0  0  0  0  0
   11.4336  -15.4164   22.6754 C   0  0  0  0  0  0  0  0  0  0  0  0
   11.8297  -16.4064   23.3867 O   0  0  0  0  0  0  0  0  0  0  0  0
   10.4634  -14.6467   23.2511 O   0  0  0  0  0  0  0  0  0  0  0  0
  2  1  1  6
  2  5  1  0
  3  2  1  0
  4  3  1  0
  5  7  1  0
  6  5  2  0
  7  8  1  0
  7 11  1  0
  9  8  1  0
 10  9  1  0
 10 11  1  0
 11 12  1  1
 12 19  1  0
 12 13  2  0
 15 14  1  0
 15 17  1  0
 16 15  2  0
 18 20  1  0
 18 17  1  1
 19 18  1  0
 20 22  1  0
 21 20  2  0
M  END
$$$$
