CPN.pdb
     RDKit          3D

 22 22  0  0  1  0  0  0  0  0999 V2000
    8.8648  -15.1301   14.2360 N   0  0  0  0  0  0  0  0  0  0  0  0
    8.2950  -15.3869   15.5155 C   0  0  1  0  0  0  0  0  0  0  0  0
    8.0993  -16.8904   15.6622 C   0  0  0  0  0  0  0  0  0  0  0  0
    7.6651  -17.2383   17.3929 S   0  0  0  0  0  0  0  0  0  0  0  0
    9.1017  -14.8319   16.6085 C   0  0  0  0  0  0  0  0  0  0  0  0
   10.3654  -15.0571   16.5778 O   0  0  0  0  0  0  0  0  0  0  0  0
    8.6107  -14.0681   17.6972 N   0  0  0  0  0  0  0  0  0  0  0  0
    7.2344  -13.6526   17.8268 C   0  0  0  0  0  0  0  0  0  0  0  0
    7.0816  -12.8695   19.0811 C   0  0  0  0  0  0  0  0  0  0  0  0
    8.4673  -12.6752   19.5949 C   0  0  0  0  0  0  0  0  0  0  0  0
    9.3780  -13.5922   18.8169 C   0  0  1  0  0  0  0  0  0  0  0  0
    9.8445  -14.6863   19.6938 C   0  0  0  0  0  0  0  0  0  0  0  0
    9.2342  -15.7729   19.7119 O   0  0  0  0  0  0  0  0  0  0  0  0
   14.3935  -13.9437   19.9865 N   0  0  0  0  0  0  0  0  0  0  0  0
   13.7062  -15.1805   20.2011 C   0  0  0  0  0  0  0  0  0  0  0  0
   13.7661  -15.9922   19.2447 O   0  0  0  0  0  0  0  0  0  0  0  0
   12.9967  -15.4442   21.4561 C   0  0  0  0  0  0  0  0  0  0  0  0
   11.5224  -15.6298   21.2556 C   0  0  2  0  0  0  0  0  0  0  0  0
   10.9722  -14.5064   20.5062 N   0  0  0  0  0  0  0  0  0  0  0  0
   10.8075  -15.8724   22.4963 C   0  0  0  0  0  0  0  0  0  0  0  0
   10.0145  -14.9516   22.9042 O   0  0  0  0  0  0  0  0  0  0  0  0
   10.8708  -16.9743   23.3006 O   0  0  0  0  0  0  0  0  0  0  0  0
  2  1  1  6
  2  5  1  0
  3  2  1  0
  4  3  1  0
  5  7  1  0
  6  5  2  0
  7  8  1  0
  7 11  1  0
  9  8  1  0
 10  9  1  0
 10 11  1  0
 11 12  1  1
 12 19  1  0
 12 13  2  0
 15 14  1  0
 15 17  1  0
 16 15  2  0
 18 20  1  0
 18 17  1  1
 19 18  1  0
 20 22  1  0
 21 20  2  0
M  END
$$$$
