CPN.pdb
     RDKit          3D

 22 22  0  0  1  0  0  0  0  0999 V2000
    8.0770  -18.0779   18.2554 N   0  0  0  0  0  0  0  0  0  0  0  0
    7.3322  -16.9949   18.8034 C   0  0  1  0  0  0  0  0  0  0  0  0
    6.0257  -17.5435   19.3625 C   0  0  0  0  0  0  0  0  0  0  0  0
    6.3301  -18.1051   21.0645 S   0  0  0  0  0  0  0  0  0  0  0  0
    8.0900  -16.2511   19.8163 C   0  0  0  0  0  0  0  0  0  0  0  0
    8.9949  -16.8941   20.4616 O   0  0  0  0  0  0  0  0  0  0  0  0
    7.9128  -14.8840   20.1472 N   0  0  0  0  0  0  0  0  0  0  0  0
    7.0512  -13.9883   19.4131 C   0  0  0  0  0  0  0  0  0  0  0  0
    7.1131  -12.6395   20.0349 C   0  0  0  0  0  0  0  0  0  0  0  0
    8.1966  -12.7259   21.0549 C   0  0  0  0  0  0  0  0  0  0  0  0
    8.5441  -14.1830   21.2330 C   0  0  1  0  0  0  0  0  0  0  0  0
    8.0772  -14.6445   22.5569 C   0  0  0  0  0  0  0  0  0  0  0  0
    6.8588  -14.8011   22.7675 O   0  0  0  0  0  0  0  0  0  0  0  0
    6.4811  -18.0420   25.8729 N   0  0  0  0  0  0  0  0  0  0  0  0
    7.7483  -18.0295   25.2082 C   0  0  0  0  0  0  0  0  0  0  0  0
    8.5622  -18.9004   25.6038 O   0  0  0  0  0  0  0  0  0  0  0  0
    8.0382  -17.0582   24.1496 C   0  0  0  0  0  0  0  0  0  0  0  0
    8.6429  -15.7926   24.6797 C   0  0  2  0  0  0  0  0  0  0  0  0
    9.0006  -14.9071   23.5778 N   0  0  0  0  0  0  0  0  0  0  0  0
    9.7545  -16.0305   25.5837 C   0  0  0  0  0  0  0  0  0  0  0  0
    9.5069  -15.9826   26.8404 O   0  0  0  0  0  0  0  0  0  0  0  0
   11.0537  -16.3038   25.2637 O   0  0  0  0  0  0  0  0  0  0  0  0
  2  1  1  1
  2  5  1  0
  3  2  1  0
  4  3  1  0
  5  7  1  0
  6  5  2  0
  7  8  1  0
  7 11  1  0
  9  8  1  0
 10  9  1  0
 10 11  1  0
 11 12  1  1
 12 19  1  0
 12 13  2  0
 15 14  1  0
 15 17  1  0
 16 15  2  0
 18 20  1  0
 18 17  1  6
 19 18  1  0
 20 22  1  0
 21 20  2  0
M  END
$$$$
