CPN.pdb
     RDKit          3D

 22 22  0  0  1  0  0  0  0  0999 V2000
    7.3422  -12.2625   24.7581 N   0  0  0  0  0  0  0  0  0  0  0  0
    7.2996  -13.6648   25.0020 C   0  0  1  0  0  0  0  0  0  0  0  0
    5.9424  -14.0078   25.6027 C   0  0  0  0  0  0  0  0  0  0  0  0
    5.6922  -12.9628   27.0690 S   0  0  0  0  0  0  0  0  0  0  0  0
    7.5767  -14.4511   23.7944 C   0  0  0  0  0  0  0  0  0  0  0  0
    7.6594  -15.7252   23.9300 O   0  0  0  0  0  0  0  0  0  0  0  0
    7.7617  -13.9299   22.4891 N   0  0  0  0  0  0  0  0  0  0  0  0
    7.5885  -12.5372   22.1518 C   0  0  0  0  0  0  0  0  0  0  0  0
    7.8593  -12.3533   20.7017 C   0  0  0  0  0  0  0  0  0  0  0  0
    8.0147  -13.7304   20.1529 C   0  0  0  0  0  0  0  0  0  0  0  0
    8.1378  -14.6784   21.3198 C   0  0  1  0  0  0  0  0  0  0  0  0
    9.5206  -15.1942   21.3942 C   0  0  0  0  0  0  0  0  0  0  0  0
   10.3559  -14.6324   22.1290 O   0  0  0  0  0  0  0  0  0  0  0  0
   11.3036  -18.9942   24.4812 N   0  0  0  0  0  0  0  0  0  0  0  0
   11.1271  -18.8803   23.0657 C   0  0  0  0  0  0  0  0  0  0  0  0
   11.7497  -19.7321   22.3844 O   0  0  0  0  0  0  0  0  0  0  0  0
   10.2756  -17.8351   22.4907 C   0  0  0  0  0  0  0  0  0  0  0  0
   10.8160  -17.2986   21.1990 C   0  0  2  0  0  0  0  0  0  0  0  0
    9.8966  -16.3142   20.6404 N   0  0  0  0  0  0  0  0  0  0  0  0
   11.1550  -18.3431   20.2486 C   0  0  0  0  0  0  0  0  0  0  0  0
   10.1856  -18.9026   19.6239 O   0  0  0  0  0  0  0  0  0  0  0  0
   12.3952  -18.8162   19.9274 O   0  0  0  0  0  0  0  0  0  0  0  0
  2  1  1  6
  2  5  1  0
  3  2  1  0
  4  3  1  0
  5  7  1  0
  6  5  2  0
  7  8  1  0
  7 11  1  0
  9  8  1  0
 10  9  1  0
 10 11  1  0
 11 12  1  1
 12 19  1  0
 12 13  2  0
 15 14  1  0
 15 17  1  0
 16 15  2  0
 18 20  1  0
 18 17  1  1
 19 18  1  0
 20 22  1  0
 21 20  2  0
M  END
$$$$
