CPN.pdb
     RDKit          3D

 22 22  0  0  1  0  0  0  0  0999 V2000
    5.5642  -19.1024   20.0289 N   0  0  0  0  0  0  0  0  0  0  0  0
    5.4791  -17.8285   20.6596 C   0  0  1  0  0  0  0  0  0  0  0  0
    4.7092  -17.9879   21.9643 C   0  0  0  0  0  0  0  0  0  0  0  0
    2.9567  -18.2503   21.5587 S   0  0  0  0  0  0  0  0  0  0  0  0
    6.7979  -17.2216   20.8743 C   0  0  0  0  0  0  0  0  0  0  0  0
    7.7778  -18.0164   21.1121 O   0  0  0  0  0  0  0  0  0  0  0  0
    7.0879  -15.8343   20.8426 N   0  0  0  0  0  0  0  0  0  0  0  0
    6.1194  -14.8221   20.4951 C   0  0  0  0  0  0  0  0  0  0  0  0
    6.7695  -13.4870   20.5625 C   0  0  0  0  0  0  0  0  0  0  0  0
    8.2178  -13.7652   20.7795 C   0  0  0  0  0  0  0  0  0  0  0  0
    8.3561  -15.2237   21.1391 C   0  0  1  0  0  0  0  0  0  0  0  0
    8.7293  -15.3485   22.5634 C   0  0  0  0  0  0  0  0  0  0  0  0
    7.8567  -15.6052   23.4154 O   0  0  0  0  0  0  0  0  0  0  0  0
   11.4425  -17.5670   26.1723 N   0  0  0  0  0  0  0  0  0  0  0  0
   10.1468  -17.8078   25.6147 C   0  0  0  0  0  0  0  0  0  0  0  0
    9.5271  -18.7786   26.1154 O   0  0  0  0  0  0  0  0  0  0  0  0
    9.6162  -16.9635   24.5406 C   0  0  0  0  0  0  0  0  0  0  0  0
   10.5763  -15.8888   24.1259 C   0  0  2  0  0  0  0  0  0  0  0  0
   10.0627  -15.1792   22.9602 N   0  0  0  0  0  0  0  0  0  0  0  0
   11.9273  -16.3822   23.9244 C   0  0  0  0  0  0  0  0  0  0  0  0
   12.1089  -17.2160   22.9678 O   0  0  0  0  0  0  0  0  0  0  0  0
   13.0509  -16.0680   24.6342 O   0  0  0  0  0  0  0  0  0  0  0  0
  2  1  1  1
  2  5  1  0
  3  2  1  0
  4  3  1  0
  5  7  1  0
  6  5  2  0
  7  8  1  0
  7 11  1  0
  9  8  1  0
 10  9  1  0
 10 11  1  0
 11 12  1  1
 12 19  1  0
 12 13  2  0
 15 14  1  0
 15 17  1  0
 16 15  2  0
 18 20  1  0
 18 17  1  6
 19 18  1  0
 20 22  1  0
 21 20  2  0
M  END
$$$$
