CPN.pdb
     RDKit          3D

 22 22  0  0  1  0  0  0  0  0999 V2000
    9.8719  -15.3596   14.9535 N   0  0  0  0  0  0  0  0  0  0  0  0
    8.8797  -15.3497   15.9749 C   0  0  1  0  0  0  0  0  0  0  0  0
    8.1976  -16.7115   15.9965 C   0  0  0  0  0  0  0  0  0  0  0  0
    6.9617  -16.7465   14.6638 S   0  0  0  0  0  0  0  0  0  0  0  0
    9.4318  -14.9945   17.2874 C   0  0  0  0  0  0  0  0  0  0  0  0
   10.6324  -15.3727   17.5406 O   0  0  0  0  0  0  0  0  0  0  0  0
    8.7579  -14.2702   18.3027 N   0  0  0  0  0  0  0  0  0  0  0  0
    7.4129  -13.7644   18.1662 C   0  0  0  0  0  0  0  0  0  0  0  0
    7.0329  -13.0567   19.4170 C   0  0  0  0  0  0  0  0  0  0  0  0
    8.2805  -12.9988   20.2308 C   0  0  0  0  0  0  0  0  0  0  0  0
    9.2861  -13.9268   19.5958 C   0  0  1  0  0  0  0  0  0  0  0  0
    9.4849  -15.1075   20.4617 C   0  0  0  0  0  0  0  0  0  0  0  0
    8.8287  -16.1472   20.2572 O   0  0  0  0  0  0  0  0  0  0  0  0
   13.0531  -17.7290   24.3294 N   0  0  0  0  0  0  0  0  0  0  0  0
   12.3648  -17.8396   23.0796 C   0  0  0  0  0  0  0  0  0  0  0  0
   12.0408  -19.0089   22.7554 O   0  0  0  0  0  0  0  0  0  0  0  0
   12.0770  -16.6546   22.2666 C   0  0  0  0  0  0  0  0  0  0  0  0
   10.6374  -16.2418   22.3406 C   0  0  2  0  0  0  0  0  0  0  0  0
   10.4101  -15.0626   21.5134 N   0  0  0  0  0  0  0  0  0  0  0  0
   10.1682  -16.0625   23.7033 C   0  0  0  0  0  0  0  0  0  0  0  0
    9.6138  -17.0706   24.2684 O   0  0  0  0  0  0  0  0  0  0  0  0
   10.2419  -14.9389   24.4760 O   0  0  0  0  0  0  0  0  0  0  0  0
  2  1  1  6
  2  5  1  0
  3  2  1  0
  4  3  1  0
  5  7  1  0
  6  5  2  0
  7  8  1  0
  7 11  1  0
  9  8  1  0
 10  9  1  0
 10 11  1  0
 11 12  1  1
 12 19  1  0
 12 13  2  0
 15 14  1  0
 15 17  1  0
 16 15  2  0
 18 20  1  0
 18 17  1  1
 19 18  1  0
 20 22  1  0
 21 20  2  0
M  END
$$$$
