CPN.pdb
     RDKit          3D

 22 22  0  0  1  0  0  0  0  0999 V2000
    8.3609  -13.2221   20.4120 N   0  0  0  0  0  0  0  0  0  0  0  0
    7.4746  -13.5733   21.4698 C   0  0  1  0  0  0  0  0  0  0  0  0
    6.6197  -14.7479   21.0115 C   0  0  0  0  0  0  0  0  0  0  0  0
    5.3706  -14.1193   19.8499 S   0  0  0  0  0  0  0  0  0  0  0  0
    8.1847  -13.8694   22.7193 C   0  0  0  0  0  0  0  0  0  0  0  0
    9.3659  -14.3628   22.6201 O   0  0  0  0  0  0  0  0  0  0  0  0
    7.6833  -13.6594   24.0286 N   0  0  0  0  0  0  0  0  0  0  0  0
    6.3886  -13.0852   24.3069 C   0  0  0  0  0  0  0  0  0  0  0  0
    6.1985  -13.0113   25.7794 C   0  0  0  0  0  0  0  0  0  0  0  0
    7.5156  -13.3903   26.3655 C   0  0  0  0  0  0  0  0  0  0  0  0
    8.3606  -13.9707   25.2588 C   0  0  1  0  0  0  0  0  0  0  0  0
    8.5200  -15.4246   25.4690 C   0  0  0  0  0  0  0  0  0  0  0  0
    7.5564  -16.1910   25.2756 O   0  0  0  0  0  0  0  0  0  0  0  0
   11.7736  -16.7222   23.2812 N   0  0  0  0  0  0  0  0  0  0  0  0
   10.8873  -17.6452   23.9218 C   0  0  0  0  0  0  0  0  0  0  0  0
   10.0206  -18.1556   23.1698 O   0  0  0  0  0  0  0  0  0  0  0  0
   11.0126  -17.9473   25.3505 C   0  0  0  0  0  0  0  0  0  0  0  0
    9.8904  -17.3709   26.1610 C   0  0  2  0  0  0  0  0  0  0  0  0
    9.7525  -15.9456   25.8856 N   0  0  0  0  0  0  0  0  0  0  0  0
   10.0134  -17.6523   27.5805 C   0  0  0  0  0  0  0  0  0  0  0  0
   10.0724  -18.8842   27.9296 O   0  0  0  0  0  0  0  0  0  0  0  0
   10.0757  -16.7590   28.6116 O   0  0  0  0  0  0  0  0  0  0  0  0
  2  1  1  6
  2  5  1  0
  3  2  1  0
  4  3  1  0
  5  7  1  0
  6  5  2  0
  7  8  1  0
  7 11  1  0
  9  8  1  0
 10  9  1  0
 10 11  1  0
 11 12  1  1
 12 19  1  0
 12 13  2  0
 15 14  1  0
 15 17  1  0
 16 15  2  0
 18 20  1  0
 18 17  1  6
 19 18  1  0
 20 22  1  0
 21 20  2  0
M  END
$$$$
