CPN.pdb
     RDKit          3D

 22 22  0  0  1  0  0  0  0  0999 V2000
    5.5712  -14.2541   26.6059 N   0  0  0  0  0  0  0  0  0  0  0  0
    6.4804  -13.6429   25.6962 C   0  0  1  0  0  0  0  0  0  0  0  0
    7.4292  -12.7531   26.4890 C   0  0  0  0  0  0  0  0  0  0  0  0
    6.5004  -11.2952   27.0514 S   0  0  0  0  0  0  0  0  0  0  0  0
    7.2052  -14.6271   24.8840 C   0  0  0  0  0  0  0  0  0  0  0  0
    7.4793  -15.7543   25.4344 O   0  0  0  0  0  0  0  0  0  0  0  0
    7.6308  -14.4451   23.5441 N   0  0  0  0  0  0  0  0  0  0  0  0
    7.4191  -13.2293   22.7954 C   0  0  0  0  0  0  0  0  0  0  0  0
    7.9890  -13.3950   21.4325 C   0  0  0  0  0  0  0  0  0  0  0  0
    8.3792  -14.8308   21.3411 C   0  0  0  0  0  0  0  0  0  0  0  0
    8.3198  -15.4119   22.7319 C   0  0  1  0  0  0  0  0  0  0  0  0
    9.6902  -15.6860   23.2121 C   0  0  0  0  0  0  0  0  0  0  0  0
   10.2780  -14.8513   23.9270 O   0  0  0  0  0  0  0  0  0  0  0  0
   11.4056  -17.1281   26.1611 N   0  0  0  0  0  0  0  0  0  0  0  0
   11.5340  -18.4040   25.5259 C   0  0  0  0  0  0  0  0  0  0  0  0
   11.5274  -19.3873   26.3070 O   0  0  0  0  0  0  0  0  0  0  0  0
   11.6613  -18.5152   24.0700 C   0  0  0  0  0  0  0  0  0  0  0  0
   11.6608  -17.1795   23.3886 C   0  0  2  0  0  0  0  0  0  0  0  0
   10.3321  -16.8828   22.8661 N   0  0  0  0  0  0  0  0  0  0  0  0
   12.6948  -17.0591   22.3759 C   0  0  0  0  0  0  0  0  0  0  0  0
   13.8811  -16.7903   22.7802 O   0  0  0  0  0  0  0  0  0  0  0  0
   12.5660  -17.1975   21.0233 O   0  0  0  0  0  0  0  0  0  0  0  0
  2  1  1  1
  2  5  1  0
  3  2  1  0
  4  3  1  0
  5  7  1  0
  6  5  2  0
  7  8  1  0
  7 11  1  0
  9  8  1  0
 10  9  1  0
 10 11  1  0
 11 12  1  1
 12 19  1  0
 12 13  2  0
 15 14  1  0
 15 17  1  0
 16 15  2  0
 18 20  1  0
 18 17  1  6
 19 18  1  0
 20 22  1  0
 21 20  2  0
M  END
$$$$
