CPN.pdb
     RDKit          3D

 22 22  0  0  1  0  0  0  0  0999 V2000
    7.0695  -18.1843   25.8969 N   0  0  0  0  0  0  0  0  0  0  0  0
    7.4056  -16.8917   25.4026 C   0  0  1  0  0  0  0  0  0  0  0  0
    8.3177  -16.2114   26.4154 C   0  0  0  0  0  0  0  0  0  0  0  0
    7.2762  -15.2833   27.5810 S   0  0  0  0  0  0  0  0  0  0  0  0
    8.0141  -16.9441   24.0683 C   0  0  0  0  0  0  0  0  0  0  0  0
    8.8011  -17.9279   23.8205 O   0  0  0  0  0  0  0  0  0  0  0  0
    7.8109  -16.0047   23.0262 N   0  0  0  0  0  0  0  0  0  0  0  0
    6.8066  -14.9687   23.0674 C   0  0  0  0  0  0  0  0  0  0  0  0
    6.8767  -14.1767   21.8114 C   0  0  0  0  0  0  0  0  0  0  0  0
    7.8397  -14.9071   20.9390 C   0  0  0  0  0  0  0  0  0  0  0  0
    8.5460  -15.9314   21.7920 C   0  0  1  0  0  0  0  0  0  0  0  0
    9.9526  -15.5244   21.9903 C   0  0  0  0  0  0  0  0  0  0  0  0
   10.2652  -14.8217   22.9710 O   0  0  0  0  0  0  0  0  0  0  0  0
   14.7058  -15.6745   23.4321 N   0  0  0  0  0  0  0  0  0  0  0  0
   13.6974  -16.6885   23.4841 C   0  0  0  0  0  0  0  0  0  0  0  0
   14.0707  -17.7816   23.9770 O   0  0  0  0  0  0  0  0  0  0  0  0
   12.3415  -16.4334   22.9898 C   0  0  0  0  0  0  0  0  0  0  0  0
   12.3128  -16.1215   21.5233 C   0  0  2  0  0  0  0  0  0  0  0  0
   10.9380  -15.9264   21.0783 N   0  0  0  0  0  0  0  0  0  0  0  0
   13.0217  -17.1027   20.7209 C   0  0  0  0  0  0  0  0  0  0  0  0
   14.0813  -16.7088   20.1167 O   0  0  0  0  0  0  0  0  0  0  0  0
   12.7009  -18.4153   20.5222 O   0  0  0  0  0  0  0  0  0  0  0  0
  2  1  1  1
  2  5  1  0
  3  2  1  0
  4  3  1  0
  5  7  1  0
  6  5  2  0
  7  8  1  0
  7 11  1  0
  9  8  1  0
 10  9  1  0
 10 11  1  0
 11 12  1  1
 12 19  1  0
 12 13  2  0
 15 14  1  0
 15 17  1  0
 16 15  2  0
 18 20  1  0
 18 17  1  1
 19 18  1  0
 20 22  1  0
 21 20  2  0
M  END
$$$$
