CPN.pdb
     RDKit          3D

 22 22  0  0  1  0  0  0  0  0999 V2000
    7.5599  -17.6621   16.7575 N   0  0  0  0  0  0  0  0  0  0  0  0
    7.4247  -16.8956   17.9500 C   0  0  1  0  0  0  0  0  0  0  0  0
    7.2031  -17.8523   19.1145 C   0  0  0  0  0  0  0  0  0  0  0  0
    5.4688  -18.3959   19.0780 S   0  0  0  0  0  0  0  0  0  0  0  0
    8.5736  -16.0121   18.1801 C   0  0  0  0  0  0  0  0  0  0  0  0
    9.7291  -16.4489   17.8299 O   0  0  0  0  0  0  0  0  0  0  0  0
    8.5226  -14.7174   18.7552 N   0  0  0  0  0  0  0  0  0  0  0  0
    7.2965  -14.0616   19.1424 C   0  0  0  0  0  0  0  0  0  0  0  0
    7.6196  -12.7231   19.7026 C   0  0  0  0  0  0  0  0  0  0  0  0
    9.0774  -12.5346   19.4550 C   0  0  0  0  0  0  0  0  0  0  0  0
    9.6481  -13.8671   19.0371 C   0  0  1  0  0  0  0  0  0  0  0  0
   10.5066  -14.3977   20.1164 C   0  0  0  0  0  0  0  0  0  0  0  0
    9.9933  -14.9863   21.0877 O   0  0  0  0  0  0  0  0  0  0  0  0
   11.1229  -17.8502   22.5901 N   0  0  0  0  0  0  0  0  0  0  0  0
   12.1932  -16.9345   22.3382 C   0  0  0  0  0  0  0  0  0  0  0  0
   12.8794  -16.6322   23.3457 O   0  0  0  0  0  0  0  0  0  0  0  0
   12.4396  -16.4100   20.9920 C   0  0  0  0  0  0  0  0  0  0  0  0
   12.7591  -14.9449   20.9948 C   0  0  2  0  0  0  0  0  0  0  0  0
   11.8978  -14.2414   20.0517 N   0  0  0  0  0  0  0  0  0  0  0  0
   14.1676  -14.6712   20.7705 C   0  0  0  0  0  0  0  0  0  0  0  0
   14.5227  -14.3749   19.5750 O   0  0  0  0  0  0  0  0  0  0  0  0
   15.1825  -14.6886   21.6841 O   0  0  0  0  0  0  0  0  0  0  0  0
  2  1  1  6
  2  5  1  0
  3  2  1  0
  4  3  1  0
  5  7  1  0
  6  5  2  0
  7  8  1  0
  7 11  1  0
  9  8  1  0
 10  9  1  0
 10 11  1  0
 11 12  1  1
 12 19  1  0
 12 13  2  0
 15 14  1  0
 15 17  1  0
 16 15  2  0
 18 20  1  0
 18 17  1  6
 19 18  1  0
 20 22  1  0
 21 20  2  0
M  END
$$$$
