DLD.pdb
     RDKit          3D

 25 24  0  0  1  0  0  0  0  0999 V2000
   14.0990  -19.8972    2.2575 N   0  0  0  0  0  0  0  0  0  0  0  0
   15.2251  -20.7629    2.7176 C   0  0  1  0  0  0  0  0  0  0  0  0
   15.5396  -21.6038    1.5292 C   0  0  0  0  0  0  0  0  0  0  0  0
   14.4471  -22.3478    0.9291 C   0  0  0  0  0  0  0  0  0  0  0  0
   14.4018  -22.4973   -0.3168 O   0  0  0  0  0  0  0  0  0  0  0  0
   16.3031  -19.9303    3.2450 C   0  0  0  0  0  0  0  0  0  0  0  0
   17.4149  -20.3797    3.5967 O   0  0  0  0  0  0  0  0  0  0  0  0
   13.4058  -22.9340    1.6443 O   0  0  0  0  0  0  0  0  0  0  0  0
   17.1763  -13.8166    3.2538 C   0  0  0  0  0  0  0  0  0  0  0  0
   17.5831  -15.1121    3.8960 C   0  0  2  0  0  0  0  0  0  0  0  0
   19.1184  -15.1999    3.7109 C   0  0  0  0  0  0  0  0  0  0  0  0
   17.0230  -16.3373    3.3366 C   0  0  0  0  0  0  0  0  0  0  0  0
   17.2767  -17.6760    3.9101 C   0  0  2  0  0  0  0  0  0  0  0  0
   16.1370  -18.5302    3.3893 N   0  0  0  0  0  0  0  0  0  0  0  0
   17.2065  -17.8406    5.3566 C   0  0  0  0  0  0  0  0  0  0  0  0
   16.0264  -17.9176    5.8803 O   0  0  0  0  0  0  0  0  0  0  0  0
   18.2721  -17.9369    6.2493 N   0  0  0  0  0  0  0  0  0  0  0  0
   18.0462  -18.0584    7.6726 C   0  0  1  0  0  0  0  0  0  0  0  0
   17.5284  -19.4488    8.0269 C   0  0  0  0  0  0  0  0  0  0  0  0
   17.1997  -19.6085    9.4472 C   0  0  0  0  0  0  0  0  0  0  0  0
   17.8858  -19.0414   10.3198 O   0  0  0  0  0  0  0  0  0  0  0  0
   19.2499  -17.7899    8.4333 C   0  0  0  0  0  0  0  0  0  0  0  0
   19.2581  -17.4839    9.7726 O   0  0  0  0  0  0  0  0  0  0  0  0
   16.1280  -20.3847    9.8297 O   0  0  0  0  0  0  0  0  0  0  0  0
   20.3582  -17.8350    7.8486 O   0  0  0  0  0  0  0  0  0  0  0  0
  2  1  1  6
  2  6  1  0
  2  3  1  0
  3  4  1  0
  4  5  2  0
  4  8  1  0
  6  7  2  0
 10  9  1  6
 10 12  1  0
 11 10  1  0
 13 12  1  1
 14 13  1  0
 14  6  1  0
 15 13  1  0
 16 15  2  0
 17 15  1  0
 18 17  1  0
 18 19  1  6
 19 20  1  0
 20 21  2  0
 22 18  1  0
 23 22  1  0
 24 20  1  0
 25 22  2  0
M  END
$$$$
