DLD.pdb
     RDKit          3D

 25 24  0  0  1  0  0  0  0  0999 V2000
   19.7342  -11.5403  -17.7845 N   0  0  0  0  0  0  0  0  0  0  0  0
   18.4807  -10.9780  -17.1998 C   0  0  1  0  0  0  0  0  0  0  0  0
   17.6445  -12.1788  -16.9223 C   0  0  0  0  0  0  0  0  0  0  0  0
   17.0648  -12.8672  -18.0614 C   0  0  0  0  0  0  0  0  0  0  0  0
   17.7836  -13.6070  -18.7775 O   0  0  0  0  0  0  0  0  0  0  0  0
   18.8082  -10.1209  -16.0634 C   0  0  0  0  0  0  0  0  0  0  0  0
   17.9530   -9.6520  -15.2820 O   0  0  0  0  0  0  0  0  0  0  0  0
   15.7283  -12.7752  -18.4418 O   0  0  0  0  0  0  0  0  0  0  0  0
   23.4292  -11.3828  -13.6443 C   0  0  0  0  0  0  0  0  0  0  0  0
   22.5497  -10.5119  -14.4952 C   0  0  2  0  0  0  0  0  0  0  0  0
   23.4914   -9.4422  -15.1020 C   0  0  0  0  0  0  0  0  0  0  0  0
   21.4753   -9.7907  -13.8218 C   0  0  0  0  0  0  0  0  0  0  0  0
   20.4850   -8.9618  -14.5413 C   0  0  2  0  0  0  0  0  0  0  0  0
   20.1515   -9.7669  -15.7823 N   0  0  0  0  0  0  0  0  0  0  0  0
   20.9057   -7.6681  -15.0644 C   0  0  0  0  0  0  0  0  0  0  0  0
   21.4525   -7.6604  -16.2365 O   0  0  0  0  0  0  0  0  0  0  0  0
   20.7768   -6.4246  -14.4488 N   0  0  0  0  0  0  0  0  0  0  0  0
   21.2519   -5.2194  -15.0918 C   0  0  1  0  0  0  0  0  0  0  0  0
   20.1330   -4.1905  -15.2190 C   0  0  0  0  0  0  0  0  0  0  0  0
   20.5556   -2.9393  -15.8566 C   0  0  0  0  0  0  0  0  0  0  0  0
   21.7180   -2.8146  -16.2892 O   0  0  0  0  0  0  0  0  0  0  0  0
   22.3632   -4.6287  -14.3737 C   0  0  0  0  0  0  0  0  0  0  0  0
   23.4211   -3.9983  -14.9826 O   0  0  0  0  0  0  0  0  0  0  0  0
   19.6711   -1.8913  -15.9856 O   0  0  0  0  0  0  0  0  0  0  0  0
   22.3751   -4.6887  -13.1213 O   0  0  0  0  0  0  0  0  0  0  0  0
  2  1  1  1
  2  6  1  0
  2  3  1  0
  3  4  1  0
  4  5  2  0
  4  8  1  0
  6  7  2  0
 10  9  1  1
 10 12  1  0
 11 10  1  0
 13 12  1  6
 14 13  1  0
 14  6  1  0
 15 13  1  0
 16 15  2  0
 17 15  1  0
 18 17  1  0
 18 19  1  1
 19 20  1  0
 20 21  2  0
 22 18  1  0
 23 22  1  0
 24 20  1  0
 25 22  2  0
M  END
$$$$
