DLD.pdb
     RDKit          3D

 25 24  0  0  1  0  0  0  0  0999 V2000
   27.9547   -8.1218  -18.2262 N   0  0  0  0  0  0  0  0  0  0  0  0
   26.5584   -8.2826  -18.7299 C   0  0  1  0  0  0  0  0  0  0  0  0
   26.5862   -7.6421  -20.0742 C   0  0  0  0  0  0  0  0  0  0  0  0
   25.3435   -7.0814  -20.5730 C   0  0  0  0  0  0  0  0  0  0  0  0
   24.8983   -7.4421  -21.6904 O   0  0  0  0  0  0  0  0  0  0  0  0
   26.1734   -9.6904  -18.6739 C   0  0  0  0  0  0  0  0  0  0  0  0
   26.0417  -10.4119  -19.6857 O   0  0  0  0  0  0  0  0  0  0  0  0
   24.5723   -6.1431  -19.8917 O   0  0  0  0  0  0  0  0  0  0  0  0
   28.1043  -13.7684  -17.7705 C   0  0  0  0  0  0  0  0  0  0  0  0
   27.8799  -12.7161  -16.7225 C   0  0  2  0  0  0  0  0  0  0  0  0
   28.5090  -13.2844  -15.4261 C   0  0  0  0  0  0  0  0  0  0  0  0
   26.4972  -12.3780  -16.4038 C   0  0  0  0  0  0  0  0  0  0  0  0
   25.5600  -11.7992  -17.3898 C   0  0  2  0  0  0  0  0  0  0  0  0
   25.9216  -10.3271  -17.4329 N   0  0  0  0  0  0  0  0  0  0  0  0
   24.1350  -11.8022  -17.0839 C   0  0  0  0  0  0  0  0  0  0  0  0
   23.7551  -11.1115  -16.0585 O   0  0  0  0  0  0  0  0  0  0  0  0
   23.1222  -12.4591  -17.7798 N   0  0  0  0  0  0  0  0  0  0  0  0
   21.7411  -12.3569  -17.3629 C   0  0  1  0  0  0  0  0  0  0  0  0
   20.8546  -11.8984  -18.5166 C   0  0  0  0  0  0  0  0  0  0  0  0
   19.4319  -11.8218  -18.1692 C   0  0  0  0  0  0  0  0  0  0  0  0
   18.5640  -11.8329  -19.0638 O   0  0  0  0  0  0  0  0  0  0  0  0
   21.2400  -13.6151  -16.8476 C   0  0  0  0  0  0  0  0  0  0  0  0
   20.0708  -13.7415  -16.1376 O   0  0  0  0  0  0  0  0  0  0  0  0
   19.0417  -11.7392  -16.8507 O   0  0  0  0  0  0  0  0  0  0  0  0
   21.9019  -14.6601  -17.0533 O   0  0  0  0  0  0  0  0  0  0  0  0
  2  1  1  6
  2  6  1  0
  2  3  1  0
  3  4  1  0
  4  5  2  0
  4  8  1  0
  6  7  2  0
 10  9  1  6
 10 12  1  0
 11 10  1  0
 13 12  1  1
 14 13  1  0
 14  6  1  0
 15 13  1  0
 16 15  2  0
 17 15  1  0
 18 17  1  0
 18 19  1  6
 19 20  1  0
 20 21  2  0
 22 18  1  0
 23 22  1  0
 24 20  1  0
 25 22  2  0
M  END
$$$$
