DLD.pdb
     RDKit          3D

 25 24  0  0  1  0  0  0  0  0999 V2000
   27.8043  -21.8188  -16.2528 N   0  0  0  0  0  0  0  0  0  0  0  0
   27.4104  -20.7005  -15.3453 C   0  0  1  0  0  0  0  0  0  0  0  0
   26.7720  -19.7088  -16.2548 C   0  0  0  0  0  0  0  0  0  0  0  0
   27.6131  -19.0868  -17.2613 C   0  0  0  0  0  0  0  0  0  0  0  0
   28.5737  -18.3580  -16.9108 O   0  0  0  0  0  0  0  0  0  0  0  0
   26.5938  -21.2184  -14.2507 C   0  0  0  0  0  0  0  0  0  0  0  0
   25.9000  -22.2544  -14.3360 O   0  0  0  0  0  0  0  0  0  0  0  0
   27.4404  -19.2362  -18.6351 O   0  0  0  0  0  0  0  0  0  0  0  0
   26.0994  -19.7016   -8.2688 C   0  0  0  0  0  0  0  0  0  0  0  0
   25.4603  -20.4532   -9.4013 C   0  0  2  0  0  0  0  0  0  0  0  0
   25.3256  -21.9137   -8.9030 C   0  0  0  0  0  0  0  0  0  0  0  0
   26.1923  -20.5066  -10.6620 C   0  0  0  0  0  0  0  0  0  0  0  0
   25.6098  -21.0403  -11.9115 C   0  0  2  0  0  0  0  0  0  0  0  0
   26.5451  -20.5521  -13.0008 N   0  0  0  0  0  0  0  0  0  0  0  0
   24.2996  -20.5597  -12.3320 C   0  0  0  0  0  0  0  0  0  0  0  0
   24.2730  -19.4806  -13.0445 O   0  0  0  0  0  0  0  0  0  0  0  0
   23.0606  -21.1381  -12.0634 N   0  0  0  0  0  0  0  0  0  0  0  0
   21.8695  -20.7130  -12.7650 C   0  0  1  0  0  0  0  0  0  0  0  0
   21.8850  -21.1975  -14.2113 C   0  0  0  0  0  0  0  0  0  0  0  0
   20.6810  -20.8336  -14.9653 C   0  0  0  0  0  0  0  0  0  0  0  0
   20.2997  -19.6476  -15.0084 O   0  0  0  0  0  0  0  0  0  0  0  0
   20.6643  -21.1884  -12.1160 C   0  0  0  0  0  0  0  0  0  0  0  0
   19.3949  -20.8256  -12.4958 O   0  0  0  0  0  0  0  0  0  0  0  0
   19.9618  -21.7988  -15.6350 O   0  0  0  0  0  0  0  0  0  0  0  0
   20.7694  -21.9784  -11.1478 O   0  0  0  0  0  0  0  0  0  0  0  0
  2  1  1  6
  2  6  1  0
  2  3  1  0
  3  4  1  0
  4  5  2  0
  4  8  1  0
  6  7  2  0
 10  9  1  1
 10 12  1  0
 11 10  1  0
 13 12  1  1
 14 13  1  0
 14  6  1  0
 15 13  1  0
 16 15  2  0
 17 15  1  0
 18 17  1  0
 18 19  1  6
 19 20  1  0
 20 21  2  0
 22 18  1  0
 23 22  1  0
 24 20  1  0
 25 22  2  0
M  END
$$$$
