DLD.pdb
     RDKit          3D

 25 24  0  0  1  0  0  0  0  0999 V2000
   19.3741  -11.4239  -18.2330 N   0  0  0  0  0  0  0  0  0  0  0  0
   18.5421  -10.9533  -17.0860 C   0  0  1  0  0  0  0  0  0  0  0  0
   17.8233  -12.1784  -16.6381 C   0  0  0  0  0  0  0  0  0  0  0  0
   16.7310  -12.6533  -17.4680 C   0  0  0  0  0  0  0  0  0  0  0  0
   16.2896  -11.9306  -18.3951 O   0  0  0  0  0  0  0  0  0  0  0  0
   19.3911  -10.2856  -16.1027 C   0  0  0  0  0  0  0  0  0  0  0  0
   18.9946   -9.9377  -14.9698 O   0  0  0  0  0  0  0  0  0  0  0  0
   16.1079  -13.8899  -17.3195 O   0  0  0  0  0  0  0  0  0  0  0  0
   23.1658  -11.9248  -13.9550 C   0  0  0  0  0  0  0  0  0  0  0  0
   23.2375  -11.4107  -15.3645 C   0  0  2  0  0  0  0  0  0  0  0  0
   24.6987  -11.6528  -15.8180 C   0  0  0  0  0  0  0  0  0  0  0  0
   22.9645   -9.9927  -15.5707 C   0  0  0  0  0  0  0  0  0  0  0  0
   21.6399   -9.3823  -15.3288 C   0  0  2  0  0  0  0  0  0  0  0  0
   20.7463   -9.9893  -16.3931 N   0  0  0  0  0  0  0  0  0  0  0  0
   21.4878   -7.9455  -15.5201 C   0  0  0  0  0  0  0  0  0  0  0  0
   21.5017   -7.5125  -16.7387 O   0  0  0  0  0  0  0  0  0  0  0  0
   21.3162   -6.9748  -14.5351 N   0  0  0  0  0  0  0  0  0  0  0  0
   21.2301   -5.5718  -14.8753 C   0  0  1  0  0  0  0  0  0  0  0  0
   19.7759   -5.1251  -14.9876 C   0  0  0  0  0  0  0  0  0  0  0  0
   19.6218   -3.6987  -15.2915 C   0  0  0  0  0  0  0  0  0  0  0  0
   20.6053   -3.0213  -15.6488 O   0  0  0  0  0  0  0  0  0  0  0  0
   21.9106   -4.7398  -13.9035 C   0  0  0  0  0  0  0  0  0  0  0  0
   22.2310   -3.4206  -14.1141 O   0  0  0  0  0  0  0  0  0  0  0  0
   18.3880   -3.0950  -15.1872 O   0  0  0  0  0  0  0  0  0  0  0  0
   22.2336   -5.2391  -12.7995 O   0  0  0  0  0  0  0  0  0  0  0  0
  2  1  1  6
  2  6  1  0
  2  3  1  0
  3  4  1  0
  4  5  2  0
  4  8  1  0
  6  7  2  0
 10  9  1  1
 10 12  1  0
 11 10  1  0
 13 12  1  6
 14 13  1  0
 14  6  1  0
 15 13  1  0
 16 15  2  0
 17 15  1  0
 18 17  1  0
 18 19  1  1
 19 20  1  0
 20 21  2  0
 22 18  1  0
 23 22  1  0
 24 20  1  0
 25 22  2  0
M  END
$$$$
