DLD.pdb
     RDKit          3D

 25 24  0  0  1  0  0  0  0  0999 V2000
   26.4307  -19.1502  -15.7884 N   0  0  0  0  0  0  0  0  0  0  0  0
   26.3495  -20.4574  -16.5053 C   0  0  1  0  0  0  0  0  0  0  0  0
   27.7399  -20.6895  -16.9861 C   0  0  0  0  0  0  0  0  0  0  0  0
   28.2271  -19.8396  -18.0574 C   0  0  0  0  0  0  0  0  0  0  0  0
   27.5223  -18.8852  -18.4687 O   0  0  0  0  0  0  0  0  0  0  0  0
   25.7756  -21.4691  -15.6218 C   0  0  0  0  0  0  0  0  0  0  0  0
   25.5704  -22.6524  -15.9673 O   0  0  0  0  0  0  0  0  0  0  0  0
   29.4571  -19.9969  -18.6912 O   0  0  0  0  0  0  0  0  0  0  0  0
   27.4384  -20.4056  -12.1233 C   0  0  0  0  0  0  0  0  0  0  0  0
   26.0189  -20.6576  -11.7020 C   0  0  2  0  0  0  0  0  0  0  0  0
   26.0300  -20.5915  -10.1545 C   0  0  0  0  0  0  0  0  0  0  0  0
   25.4361  -21.9454  -12.0621 C   0  0  0  0  0  0  0  0  0  0  0  0
   24.8274  -22.2151  -13.3821 C   0  0  2  0  0  0  0  0  0  0  0  0
   25.4112  -21.1498  -14.2899 N   0  0  0  0  0  0  0  0  0  0  0  0
   23.3867  -22.0539  -13.5327 C   0  0  0  0  0  0  0  0  0  0  0  0
   22.6338  -22.8616  -12.8593 O   0  0  0  0  0  0  0  0  0  0  0  0
   22.7182  -21.1152  -14.3161 N   0  0  0  0  0  0  0  0  0  0  0  0
   21.2803  -21.1548  -14.4661 C   0  0  1  0  0  0  0  0  0  0  0  0
   20.6876  -19.7500  -14.4236 C   0  0  0  0  0  0  0  0  0  0  0  0
   19.2329  -19.7207  -14.6072 C   0  0  0  0  0  0  0  0  0  0  0  0
   18.4812  -20.2469  -13.7635 O   0  0  0  0  0  0  0  0  0  0  0  0
   20.8859  -21.8014  -15.7015 C   0  0  0  0  0  0  0  0  0  0  0  0
   19.7014  -22.4769  -15.8689 O   0  0  0  0  0  0  0  0  0  0  0  0
   18.6838  -19.1093  -15.7126 O   0  0  0  0  0  0  0  0  0  0  0  0
   21.6613  -21.7509  -16.6856 O   0  0  0  0  0  0  0  0  0  0  0  0
  2  1  1  1
  2  6  1  0
  2  3  1  0
  3  4  1  0
  4  5  2  0
  4  8  1  0
  6  7  2  0
 10  9  1  1
 10 12  1  0
 11 10  1  0
 13 12  1  1
 14 13  1  0
 14  6  1  0
 15 13  1  0
 16 15  2  0
 17 15  1  0
 18 17  1  0
 18 19  1  6
 19 20  1  0
 20 21  2  0
 22 18  1  0
 23 22  1  0
 24 20  1  0
 25 22  2  0
M  END
$$$$
