DLD.pdb
     RDKit          3D

 25 24  0  0  1  0  0  0  0  0999 V2000
   23.6591  -14.0010  -18.8626 N   0  0  0  0  0  0  0  0  0  0  0  0
   23.0209  -12.6556  -18.9705 C   0  0  1  0  0  0  0  0  0  0  0  0
   21.5709  -12.9580  -19.1260 C   0  0  0  0  0  0  0  0  0  0  0  0
   21.1700  -13.7286  -20.2892 C   0  0  0  0  0  0  0  0  0  0  0  0
   22.0435  -14.2172  -21.0475 O   0  0  0  0  0  0  0  0  0  0  0  0
   23.4080  -11.8333  -17.8271 C   0  0  0  0  0  0  0  0  0  0  0  0
   22.7417  -11.7582  -16.7725 O   0  0  0  0  0  0  0  0  0  0  0  0
   19.8491  -13.9836  -20.6490 O   0  0  0  0  0  0  0  0  0  0  0  0
   27.3188  -11.5679  -14.9488 C   0  0  0  0  0  0  0  0  0  0  0  0
   27.2891  -11.1391  -16.3880 C   0  0  2  0  0  0  0  0  0  0  0  0
   28.7314  -10.6750  -16.7100 C   0  0  0  0  0  0  0  0  0  0  0  0
   26.4054  -10.0315  -16.7346 C   0  0  0  0  0  0  0  0  0  0  0  0
   24.9310  -10.1346  -16.7017 C   0  0  2  0  0  0  0  0  0  0  0  0
   24.5926  -11.0560  -17.8576 N   0  0  0  0  0  0  0  0  0  0  0  0
   24.1414   -8.9378  -16.9637 C   0  0  0  0  0  0  0  0  0  0  0  0
   24.2639   -8.4003  -18.1337 O   0  0  0  0  0  0  0  0  0  0  0  0
   23.2528   -8.3046  -16.0970 N   0  0  0  0  0  0  0  0  0  0  0  0
   22.4857   -7.1546  -16.5220 C   0  0  1  0  0  0  0  0  0  0  0  0
   21.5980   -7.4999  -17.7134 C   0  0  0  0  0  0  0  0  0  0  0  0
   20.7639   -6.3824  -18.1675 C   0  0  0  0  0  0  0  0  0  0  0  0
   19.7024   -6.1077  -17.5747 O   0  0  0  0  0  0  0  0  0  0  0  0
   21.6628   -6.6309  -15.4504 C   0  0  0  0  0  0  0  0  0  0  0  0
   21.4153   -7.3004  -14.2766 O   0  0  0  0  0  0  0  0  0  0  0  0
   21.1474   -5.6244  -19.2519 O   0  0  0  0  0  0  0  0  0  0  0  0
   21.1376   -5.5005  -15.5876 O   0  0  0  0  0  0  0  0  0  0  0  0
  2  1  1  1
  2  6  1  0
  2  3  1  0
  3  4  1  0
  4  5  2  0
  4  8  1  0
  6  7  2  0
 10  9  1  1
 10 12  1  0
 11 10  1  0
 13 12  1  6
 14 13  1  0
 14  6  1  0
 15 13  1  0
 16 15  2  0
 17 15  1  0
 18 17  1  0
 18 19  1  6
 19 20  1  0
 20 21  2  0
 22 18  1  0
 23 22  1  0
 24 20  1  0
 25 22  2  0
M  END
$$$$
