DLD.pdb
     RDKit          3D

 25 24  0  0  1  0  0  0  0  0999 V2000
   22.4956   -6.8601  -13.8009 N   0  0  0  0  0  0  0  0  0  0  0  0
   21.9770   -6.5534  -15.1670 C   0  0  1  0  0  0  0  0  0  0  0  0
   22.5982   -5.2415  -15.5001 C   0  0  0  0  0  0  0  0  0  0  0  0
   22.1049   -4.0709  -14.7973 C   0  0  0  0  0  0  0  0  0  0  0  0
   21.6876   -4.1788  -13.6179 O   0  0  0  0  0  0  0  0  0  0  0  0
   22.2628   -7.6696  -16.0646 C   0  0  0  0  0  0  0  0  0  0  0  0
   22.0430   -7.6414  -17.2946 O   0  0  0  0  0  0  0  0  0  0  0  0
   22.0545   -2.7890  -15.3392 O   0  0  0  0  0  0  0  0  0  0  0  0
   26.3675   -9.7388  -17.5109 C   0  0  0  0  0  0  0  0  0  0  0  0
   25.8619   -9.8388  -16.1001 C   0  0  2  0  0  0  0  0  0  0  0  0
   26.8865  -10.7318  -15.3571 C   0  0  0  0  0  0  0  0  0  0  0  0
   24.5526  -10.4512  -15.9039 C   0  0  0  0  0  0  0  0  0  0  0  0
   23.3182   -9.9363  -16.5339 C   0  0  2  0  0  0  0  0  0  0  0  0
   22.8188   -8.8763  -15.5712 N   0  0  0  0  0  0  0  0  0  0  0  0
   22.1826  -10.8376  -16.6838 C   0  0  0  0  0  0  0  0  0  0  0  0
   21.4762  -11.0701  -15.6257 O   0  0  0  0  0  0  0  0  0  0  0  0
   21.7577  -11.4760  -17.8473 N   0  0  0  0  0  0  0  0  0  0  0  0
   20.5890  -12.3278  -17.8483 C   0  0  1  0  0  0  0  0  0  0  0  0
   19.7503  -12.1035  -19.1025 C   0  0  0  0  0  0  0  0  0  0  0  0
   18.5403  -12.9304  -19.1553 C   0  0  0  0  0  0  0  0  0  0  0  0
   18.5554  -14.0316  -19.7391 O   0  0  0  0  0  0  0  0  0  0  0  0
   20.9448  -13.7296  -17.7572 C   0  0  0  0  0  0  0  0  0  0  0  0
   20.1005  -14.7058  -17.2868 O   0  0  0  0  0  0  0  0  0  0  0  0
   17.3766  -12.4987  -18.5580 O   0  0  0  0  0  0  0  0  0  0  0  0
   22.0883  -14.0890  -18.1254 O   0  0  0  0  0  0  0  0  0  0  0  0
  2  1  1  1
  2  6  1  0
  2  3  1  0
  3  4  1  0
  4  5  2  0
  4  8  1  0
  6  7  2  0
 10  9  1  6
 10 12  1  0
 11 10  1  0
 13 12  1  1
 14 13  1  0
 14  6  1  0
 15 13  1  0
 16 15  2  0
 17 15  1  0
 18 17  1  0
 18 19  1  6
 19 20  1  0
 20 21  2  0
 22 18  1  0
 23 22  1  0
 24 20  1  0
 25 22  2  0
M  END
$$$$
