DLD.pdb
     RDKit          3D

 25 24  0  0  1  0  0  0  0  0999 V2000
   20.1237  -11.3753  -20.4773 N   0  0  0  0  0  0  0  0  0  0  0  0
   20.8681  -10.1153  -20.1817 C   0  0  1  0  0  0  0  0  0  0  0  0
   20.1294   -9.0741  -20.9489 C   0  0  0  0  0  0  0  0  0  0  0  0
   20.1784   -9.1510  -22.3977 C   0  0  0  0  0  0  0  0  0  0  0  0
   21.2746   -9.0149  -22.9948 O   0  0  0  0  0  0  0  0  0  0  0  0
   20.9671   -9.9289  -18.7364 C   0  0  0  0  0  0  0  0  0  0  0  0
   20.0941  -10.3123  -17.9286 O   0  0  0  0  0  0  0  0  0  0  0  0
   19.0717   -9.3730  -23.2134 O   0  0  0  0  0  0  0  0  0  0  0  0
   25.4004  -10.2512  -14.7578 C   0  0  0  0  0  0  0  0  0  0  0  0
   24.0585   -9.6090  -14.9651 C   0  0  2  0  0  0  0  0  0  0  0  0
   23.1103  -10.2990  -13.9530 C   0  0  0  0  0  0  0  0  0  0  0  0
   23.4459   -9.7565  -16.2807 C   0  0  0  0  0  0  0  0  0  0  0  0
   22.1773   -9.0982  -16.6587 C   0  0  2  0  0  0  0  0  0  0  0  0
   22.0904   -9.2841  -18.1612 N   0  0  0  0  0  0  0  0  0  0  0  0
   22.0568   -7.6573  -16.4754 C   0  0  0  0  0  0  0  0  0  0  0  0
   22.7728   -6.9071  -17.2483 O   0  0  0  0  0  0  0  0  0  0  0  0
   21.2444   -6.9859  -15.5638 N   0  0  0  0  0  0  0  0  0  0  0  0
   21.2287   -5.5412  -15.4994 C   0  0  1  0  0  0  0  0  0  0  0  0
   19.8029   -5.0157  -15.3661 C   0  0  0  0  0  0  0  0  0  0  0  0
   19.7260   -3.5595  -15.2111 C   0  0  0  0  0  0  0  0  0  0  0  0
   20.5670   -2.8225  -15.7619 O   0  0  0  0  0  0  0  0  0  0  0  0
   22.0253   -5.0431  -14.3962 C   0  0  0  0  0  0  0  0  0  0  0  0
   22.5265   -5.8366  -13.3929 O   0  0  0  0  0  0  0  0  0  0  0  0
   18.7221   -2.9925  -14.4572 O   0  0  0  0  0  0  0  0  0  0  0  0
   22.2809   -3.8168  -14.3393 O   0  0  0  0  0  0  0  0  0  0  0  0
  2  1  1  1
  2  6  1  0
  2  3  1  0
  3  4  1  0
  4  5  2  0
  4  8  1  0
  6  7  2  0
 10  9  1  6
 10 12  1  0
 11 10  1  0
 13 12  1  6
 14 13  1  0
 14  6  1  0
 15 13  1  0
 16 15  2  0
 17 15  1  0
 18 17  1  0
 18 19  1  1
 19 20  1  0
 20 21  2  0
 22 18  1  0
 23 22  1  0
 24 20  1  0
 25 22  2  0
M  END
$$$$
