DLD.pdb
     RDKit          3D

 25 24  0  0  1  0  0  0  0  0999 V2000
   20.1113  -23.2603  -13.8830 N   0  0  0  0  0  0  0  0  0  0  0  0
   19.5157  -21.9418  -13.5142 C   0  0  1  0  0  0  0  0  0  0  0  0
   18.3659  -22.3004  -12.6380 C   0  0  0  0  0  0  0  0  0  0  0  0
   17.6475  -23.5237  -12.9455 C   0  0  0  0  0  0  0  0  0  0  0  0
   18.0212  -24.2451  -13.9029 O   0  0  0  0  0  0  0  0  0  0  0  0
   20.5448  -21.0800  -12.9385 C   0  0  0  0  0  0  0  0  0  0  0  0
   20.3130  -19.9452  -12.4689 O   0  0  0  0  0  0  0  0  0  0  0  0
   16.5377  -23.9846  -12.2415 O   0  0  0  0  0  0  0  0  0  0  0  0
   26.3730  -21.9382  -11.2162 C   0  0  0  0  0  0  0  0  0  0  0  0
   25.2129  -20.9862  -11.1540 C   0  0  2  0  0  0  0  0  0  0  0  0
   24.9890  -20.7067   -9.6469 C   0  0  0  0  0  0  0  0  0  0  0  0
   23.9383  -21.4542  -11.6871 C   0  0  0  0  0  0  0  0  0  0  0  0
   22.9659  -20.5621  -12.3535 C   0  0  2  0  0  0  0  0  0  0  0  0
   21.8975  -21.4991  -12.8829 N   0  0  0  0  0  0  0  0  0  0  0  0
   23.3945  -19.8173  -13.5308 C   0  0  0  0  0  0  0  0  0  0  0  0
   24.2355  -18.8534  -13.3394 O   0  0  0  0  0  0  0  0  0  0  0  0
   23.0094  -20.0308  -14.8528 N   0  0  0  0  0  0  0  0  0  0  0  0
   23.6210  -19.2951  -15.9375 C   0  0  1  0  0  0  0  0  0  0  0  0
   24.8929  -19.9865  -16.4180 C   0  0  0  0  0  0  0  0  0  0  0  0
   25.5493  -19.2984  -17.5344 C   0  0  0  0  0  0  0  0  0  0  0  0
   25.0504  -18.2628  -18.0163 O   0  0  0  0  0  0  0  0  0  0  0  0
   22.7145  -19.1336  -17.0564 C   0  0  0  0  0  0  0  0  0  0  0  0
   21.4068  -19.5546  -17.0506 O   0  0  0  0  0  0  0  0  0  0  0  0
   26.7247  -19.7890  -18.0590 O   0  0  0  0  0  0  0  0  0  0  0  0
   23.1336  -18.5788  -18.0999 O   0  0  0  0  0  0  0  0  0  0  0  0
  2  1  1  1
  2  6  1  0
  2  3  1  0
  3  4  1  0
  4  5  2  0
  4  8  1  0
  6  7  2  0
 10  9  1  1
 10 12  1  0
 11 10  1  0
 13 12  1  6
 14 13  1  0
 14  6  1  0
 15 13  1  0
 16 15  2  0
 17 15  1  0
 18 17  1  0
 18 19  1  6
 19 20  1  0
 20 21  2  0
 22 18  1  0
 23 22  1  0
 24 20  1  0
 25 22  2  0
M  END
$$$$
