DLD.pdb
     RDKit          3D

 25 24  0  0  1  0  0  0  0  0999 V2000
   25.3919    0.7899    5.0190 N   0  0  0  0  0  0  0  0  0  0  0  0
   26.8744    0.6694    5.1495 C   0  0  1  0  0  0  0  0  0  0  0  0
   27.0617   -0.5210    6.0247 C   0  0  0  0  0  0  0  0  0  0  0  0
   26.4611   -0.4804    7.3457 C   0  0  0  0  0  0  0  0  0  0  0  0
   25.8291    0.5401    7.7146 O   0  0  0  0  0  0  0  0  0  0  0  0
   27.4834    0.6197    3.8229 C   0  0  0  0  0  0  0  0  0  0  0  0
   28.6980    0.3994    3.6276 O   0  0  0  0  0  0  0  0  0  0  0  0
   26.5267   -1.5165    8.2739 O   0  0  0  0  0  0  0  0  0  0  0  0
   24.7981   -2.2862    0.4538 C   0  0  0  0  0  0  0  0  0  0  0  0
   25.2690   -0.9361    0.9137 C   0  0  2  0  0  0  0  0  0  0  0  0
   24.5555    0.0851   -0.0069 C   0  0  0  0  0  0  0  0  0  0  0  0
   26.6982   -0.6607    0.8164 C   0  0  0  0  0  0  0  0  0  0  0  0
   27.3108    0.6006    1.2848 C   0  0  2  0  0  0  0  0  0  0  0  0
   26.7050    0.8259    2.6566 N   0  0  0  0  0  0  0  0  0  0  0  0
   27.0135    1.8314    0.5630 C   0  0  0  0  0  0  0  0  0  0  0  0
   25.9831    2.5066    0.9570 O   0  0  0  0  0  0  0  0  0  0  0  0
   27.7224    2.3774   -0.5052 N   0  0  0  0  0  0  0  0  0  0  0  0
   27.3125    3.6228   -1.1157 C   0  0  1  0  0  0  0  0  0  0  0  0
   28.5213    4.4203   -1.5949 C   0  0  0  0  0  0  0  0  0  0  0  0
   28.1817    5.7547   -2.0994 C   0  0  0  0  0  0  0  0  0  0  0  0
   27.9024    5.9205   -3.3028 O   0  0  0  0  0  0  0  0  0  0  0  0
   26.4127    3.4050   -2.2304 C   0  0  0  0  0  0  0  0  0  0  0  0
   25.4237    4.2839   -2.6003 O   0  0  0  0  0  0  0  0  0  0  0  0
   28.1659    6.8369   -1.2473 O   0  0  0  0  0  0  0  0  0  0  0  0
   26.5306    2.3563   -2.9076 O   0  0  0  0  0  0  0  0  0  0  0  0
  2  1  1  6
  2  6  1  0
  2  3  1  0
  3  4  1  0
  4  5  2  0
  4  8  1  0
  6  7  2  0
 10  9  1  6
 10 12  1  0
 11 10  1  0
 13 12  1  6
 14 13  1  0
 14  6  1  0
 15 13  1  0
 16 15  2  0
 17 15  1  0
 18 17  1  0
 18 19  1  6
 19 20  1  0
 20 21  2  0
 22 18  1  0
 23 22  1  0
 24 20  1  0
 25 22  2  0
M  END
$$$$
