DLD.pdb
     RDKit          3D

 25 24  0  0  1  0  0  0  0  0999 V2000
   21.6159  -34.9292   -4.8942 N   0  0  0  0  0  0  0  0  0  0  0  0
   23.0016  -35.2462   -5.3509 C   0  0  1  0  0  0  0  0  0  0  0  0
   23.0400  -34.7460   -6.7532 C   0  0  0  0  0  0  0  0  0  0  0  0
   22.4187  -35.5703   -7.7740 C   0  0  0  0  0  0  0  0  0  0  0  0
   21.9289  -36.6847   -7.4659 O   0  0  0  0  0  0  0  0  0  0  0  0
   23.9703  -34.6778   -4.4172 C   0  0  0  0  0  0  0  0  0  0  0  0
   25.1940  -34.9292   -4.4524 O   0  0  0  0  0  0  0  0  0  0  0  0
   22.3139  -35.2168   -9.1170 O   0  0  0  0  0  0  0  0  0  0  0  0
   25.8421  -30.1042   -2.4710 C   0  0  0  0  0  0  0  0  0  0  0  0
   24.4312  -30.5202   -2.7752 C   0  0  2  0  0  0  0  0  0  0  0  0
   23.5349  -29.4099   -2.1726 C   0  0  0  0  0  0  0  0  0  0  0  0
   23.9724  -31.7831   -2.2075 C   0  0  0  0  0  0  0  0  0  0  0  0
   24.5909  -33.0861   -2.5323 C   0  0  2  0  0  0  0  0  0  0  0  0
   23.5590  -33.7876   -3.3941 N   0  0  0  0  0  0  0  0  0  0  0  0
   24.8434  -34.0284   -1.4494 C   0  0  0  0  0  0  0  0  0  0  0  0
   23.8189  -34.6522   -0.9656 O   0  0  0  0  0  0  0  0  0  0  0  0
   26.0725  -34.3476   -0.8757 N   0  0  0  0  0  0  0  0  0  0  0  0
   26.1632  -35.2786    0.2273 C   0  0  1  0  0  0  0  0  0  0  0  0
   27.2606  -36.3096   -0.0168 C   0  0  0  0  0  0  0  0  0  0  0  0
   27.4283  -37.2608    1.0867 C   0  0  0  0  0  0  0  0  0  0  0  0
   26.4753  -37.9770    1.4509 O   0  0  0  0  0  0  0  0  0  0  0  0
   26.4161  -34.6016    1.4833 C   0  0  0  0  0  0  0  0  0  0  0  0
   26.0016  -35.0731    2.7053 O   0  0  0  0  0  0  0  0  0  0  0  0
   28.6416  -37.3734    1.7292 O   0  0  0  0  0  0  0  0  0  0  0  0
   27.0493  -33.5194    1.4710 O   0  0  0  0  0  0  0  0  0  0  0  0
  2  1  1  1
  2  6  1  0
  2  3  1  0
  3  4  1  0
  4  5  2  0
  4  8  1  0
  6  7  2  0
 10  9  1  1
 10 12  1  0
 11 10  1  0
 13 12  1  1
 14 13  1  0
 14  6  1  0
 15 13  1  0
 16 15  2  0
 17 15  1  0
 18 17  1  0
 18 19  1  6
 19 20  1  0
 20 21  2  0
 22 18  1  0
 23 22  1  0
 24 20  1  0
 25 22  2  0
M  END
$$$$
