DLD.pdb
     RDKit          3D

 25 24  0  0  1  0  0  0  0  0999 V2000
   24.4549  -22.5829  -12.1053 N   0  0  0  0  0  0  0  0  0  0  0  0
   24.4862  -21.1214  -11.8014 C   0  0  1  0  0  0  0  0  0  0  0  0
   25.4477  -21.0112  -10.6694 C   0  0  0  0  0  0  0  0  0  0  0  0
   24.9381  -20.5093   -9.4062 C   0  0  0  0  0  0  0  0  0  0  0  0
   23.7002  -20.3842   -9.2362 O   0  0  0  0  0  0  0  0  0  0  0  0
   24.8017  -20.3724  -13.0150 C   0  0  0  0  0  0  0  0  0  0  0  0
   24.8943  -19.1267  -13.0541 O   0  0  0  0  0  0  0  0  0  0  0  0
   25.7347  -20.1421   -8.3246 O   0  0  0  0  0  0  0  0  0  0  0  0
   28.5234  -19.5609  -14.7929 C   0  0  0  0  0  0  0  0  0  0  0  0
   27.9113  -20.8956  -15.1089 C   0  0  2  0  0  0  0  0  0  0  0  0
   28.9847  -21.6590  -15.9241 C   0  0  0  0  0  0  0  0  0  0  0  0
   26.6948  -20.8965  -15.9139 C   0  0  0  0  0  0  0  0  0  0  0  0
   25.4366  -20.2559  -15.4757 C   0  0  2  0  0  0  0  0  0  0  0  0
   25.0242  -21.0402  -14.2451 N   0  0  0  0  0  0  0  0  0  0  0  0
   24.2722  -20.3345  -16.3489 C   0  0  0  0  0  0  0  0  0  0  0  0
   24.4319  -19.9500  -17.5734 O   0  0  0  0  0  0  0  0  0  0  0  0
   22.9973  -20.7901  -16.0191 N   0  0  0  0  0  0  0  0  0  0  0  0
   21.9505  -20.8671  -17.0140 C   0  0  1  0  0  0  0  0  0  0  0  0
   21.2510  -22.2218  -16.9675 C   0  0  0  0  0  0  0  0  0  0  0  0
   20.6074  -22.5062  -15.6808 C   0  0  0  0  0  0  0  0  0  0  0  0
   20.7939  -23.5995  -15.1117 O   0  0  0  0  0  0  0  0  0  0  0  0
   20.9671  -19.8167  -16.8428 C   0  0  0  0  0  0  0  0  0  0  0  0
   19.9401  -19.5770  -17.7232 O   0  0  0  0  0  0  0  0  0  0  0  0
   19.7928  -21.5668  -15.0881 O   0  0  0  0  0  0  0  0  0  0  0  0
   21.0448  -19.0730  -15.8361 O   0  0  0  0  0  0  0  0  0  0  0  0
  2  1  1  6
  2  6  1  0
  2  3  1  0
  3  4  1  0
  4  5  2  0
  4  8  1  0
  6  7  2  0
 10  9  1  6
 10 12  1  0
 11 10  1  0
 13 12  1  6
 14 13  1  0
 14  6  1  0
 15 13  1  0
 16 15  2  0
 17 15  1  0
 18 17  1  0
 18 19  1  1
 19 20  1  0
 20 21  2  0
 22 18  1  0
 23 22  1  0
 24 20  1  0
 25 22  2  0
M  END
$$$$
