DLD.pdb
     RDKit          3D

 25 24  0  0  1  0  0  0  0  0999 V2000
   21.0270  -13.2213  -19.1215 N   0  0  0  0  0  0  0  0  0  0  0  0
   20.0709  -13.1269  -17.9786 C   0  0  1  0  0  0  0  0  0  0  0  0
   19.8384  -14.5451  -17.5876 C   0  0  0  0  0  0  0  0  0  0  0  0
   19.1823  -15.4060  -18.5550 C   0  0  0  0  0  0  0  0  0  0  0  0
   18.8298  -14.9424  -19.6675 O   0  0  0  0  0  0  0  0  0  0  0  0
   20.6129  -12.2371  -16.9549 C   0  0  0  0  0  0  0  0  0  0  0  0
   20.0496  -12.0174  -15.8612 O   0  0  0  0  0  0  0  0  0  0  0  0
   18.9010  -16.7540  -18.3478 O   0  0  0  0  0  0  0  0  0  0  0  0
   26.2172   -9.7785  -16.1131 C   0  0  0  0  0  0  0  0  0  0  0  0
   24.8075   -9.8296  -15.5973 C   0  0  2  0  0  0  0  0  0  0  0  0
   24.9171  -10.3730  -14.1508 C   0  0  0  0  0  0  0  0  0  0  0  0
   23.8719  -10.6992  -16.3017 C   0  0  0  0  0  0  0  0  0  0  0  0
   22.4128  -10.6750  -16.0650 C   0  0  2  0  0  0  0  0  0  0  0  0
   21.8401  -11.5576  -17.1571 N   0  0  0  0  0  0  0  0  0  0  0  0
   21.7007   -9.4132  -16.2234 C   0  0  0  0  0  0  0  0  0  0  0  0
   21.4872   -9.0096  -17.4335 O   0  0  0  0  0  0  0  0  0  0  0  0
   21.2082   -8.5878  -15.2145 N   0  0  0  0  0  0  0  0  0  0  0  0
   20.4699   -7.3842  -15.5273 C   0  0  1  0  0  0  0  0  0  0  0  0
   19.4534   -7.0672  -14.4351 C   0  0  0  0  0  0  0  0  0  0  0  0
   18.4751   -8.1373  -14.2152 C   0  0  0  0  0  0  0  0  0  0  0  0
   18.0337   -8.7944  -15.1782 O   0  0  0  0  0  0  0  0  0  0  0  0
   21.3482   -6.2455  -15.7061 C   0  0  0  0  0  0  0  0  0  0  0  0
   20.9284   -5.0164  -16.1535 O   0  0  0  0  0  0  0  0  0  0  0  0
   18.0367   -8.4277  -12.9421 O   0  0  0  0  0  0  0  0  0  0  0  0
   22.5672   -6.3738  -15.4413 O   0  0  0  0  0  0  0  0  0  0  0  0
  2  1  1  6
  2  6  1  0
  2  3  1  0
  3  4  1  0
  4  5  2  0
  4  8  1  0
  6  7  2  0
 10  9  1  6
 10 12  1  0
 11 10  1  0
 13 12  1  6
 14 13  1  0
 14  6  1  0
 15 13  1  0
 16 15  2  0
 17 15  1  0
 18 17  1  0
 18 19  1  1
 19 20  1  0
 20 21  2  0
 22 18  1  0
 23 22  1  0
 24 20  1  0
 25 22  2  0
M  END
$$$$
