DLD.pdb
     RDKit          3D

 25 24  0  0  1  0  0  0  0  0999 V2000
   26.2914  -20.4568  -15.6491 N   0  0  0  0  0  0  0  0  0  0  0  0
   25.4978  -21.6814  -15.9649 C   0  0  1  0  0  0  0  0  0  0  0  0
   26.5235  -22.6728  -16.3929 C   0  0  0  0  0  0  0  0  0  0  0  0
   27.4272  -22.2812  -17.4595 C   0  0  0  0  0  0  0  0  0  0  0  0
   28.5391  -21.7685  -17.1808 O   0  0  0  0  0  0  0  0  0  0  0  0
   24.6670  -22.0396  -14.8182 C   0  0  0  0  0  0  0  0  0  0  0  0
   23.9680  -23.0743  -14.7673 O   0  0  0  0  0  0  0  0  0  0  0  0
   27.1571  -22.4328  -18.8172 O   0  0  0  0  0  0  0  0  0  0  0  0
   27.0091  -21.0153  -10.5040 C   0  0  0  0  0  0  0  0  0  0  0  0
   25.5565  -20.7602  -10.7881 C   0  0  2  0  0  0  0  0  0  0  0  0
   24.9076  -20.4897   -9.4078 C   0  0  0  0  0  0  0  0  0  0  0  0
   24.7978  -21.8442  -11.4024 C   0  0  0  0  0  0  0  0  0  0  0  0
   23.7937  -21.6253  -12.4650 C   0  0  2  0  0  0  0  0  0  0  0  0
   24.6096  -21.2069  -13.6728 N   0  0  0  0  0  0  0  0  0  0  0  0
   22.8285  -20.5454  -12.3019 C   0  0  0  0  0  0  0  0  0  0  0  0
   22.0203  -20.6298  -11.2957 O   0  0  0  0  0  0  0  0  0  0  0  0
   22.6800  -19.4158  -13.1041 N   0  0  0  0  0  0  0  0  0  0  0  0
   21.4559  -19.1742  -13.8355 C   0  0  1  0  0  0  0  0  0  0  0  0
   21.6319  -19.4949  -15.3164 C   0  0  0  0  0  0  0  0  0  0  0  0
   20.4632  -19.1533  -16.1339 C   0  0  0  0  0  0  0  0  0  0  0  0
   19.9958  -17.9979  -16.1122 O   0  0  0  0  0  0  0  0  0  0  0  0
   20.3517  -19.9500  -13.3077 C   0  0  0  0  0  0  0  0  0  0  0  0
   20.1976  -21.3001  -13.5100 O   0  0  0  0  0  0  0  0  0  0  0  0
   19.8730  -20.1056  -16.9353 O   0  0  0  0  0  0  0  0  0  0  0  0
   19.4759  -19.3689  -12.6239 O   0  0  0  0  0  0  0  0  0  0  0  0
  2  1  1  1
  2  6  1  0
  2  3  1  0
  3  4  1  0
  4  5  2  0
  4  8  1  0
  6  7  2  0
 10  9  1  1
 10 12  1  0
 11 10  1  0
 13 12  1  1
 14 13  1  0
 14  6  1  0
 15 13  1  0
 16 15  2  0
 17 15  1  0
 18 17  1  0
 18 19  1  6
 19 20  1  0
 20 21  2  0
 22 18  1  0
 23 22  1  0
 24 20  1  0
 25 22  2  0
M  END
$$$$
