DLD.pdb
     RDKit          3D

 25 24  0  0  1  0  0  0  0  0999 V2000
   18.9550  -12.4597  -18.4339 N   0  0  0  0  0  0  0  0  0  0  0  0
   19.8209  -11.2671  -18.6731 C   0  0  1  0  0  0  0  0  0  0  0  0
   18.9127  -10.2925  -19.3391 C   0  0  0  0  0  0  0  0  0  0  0  0
   18.3910  -10.6504  -20.6457 C   0  0  0  0  0  0  0  0  0  0  0  0
   18.6832  -11.7611  -21.1534 O   0  0  0  0  0  0  0  0  0  0  0  0
   20.4389  -10.8471  -17.4180 C   0  0  0  0  0  0  0  0  0  0  0  0
   19.9222  -11.0358  -16.2959 O   0  0  0  0  0  0  0  0  0  0  0  0
   17.5609   -9.8371  -21.4130 O   0  0  0  0  0  0  0  0  0  0  0  0
   25.9641  -10.6183  -15.1427 C   0  0  0  0  0  0  0  0  0  0  0  0
   24.6053   -9.9910  -15.0158 C   0  0  2  0  0  0  0  0  0  0  0  0
   24.0138  -10.5510  -13.6983 C   0  0  0  0  0  0  0  0  0  0  0  0
   23.6367  -10.2823  -16.0670 C   0  0  0  0  0  0  0  0  0  0  0  0
   22.2838   -9.6876  -16.1052 C   0  0  2  0  0  0  0  0  0  0  0  0
   21.6915  -10.1842  -17.4099 N   0  0  0  0  0  0  0  0  0  0  0  0
   22.1606   -8.2379  -16.1928 C   0  0  0  0  0  0  0  0  0  0  0  0
   22.7854   -7.6550  -17.1637 O   0  0  0  0  0  0  0  0  0  0  0  0
   21.4325   -7.3989  -15.3516 N   0  0  0  0  0  0  0  0  0  0  0  0
   21.4721   -5.9621  -15.5123 C   0  0  1  0  0  0  0  0  0  0  0  0
   20.0648   -5.3876  -15.6397 C   0  0  0  0  0  0  0  0  0  0  0  0
   20.0343   -3.9243  -15.7327 C   0  0  0  0  0  0  0  0  0  0  0  0
   19.1874   -3.2705  -15.0931 O   0  0  0  0  0  0  0  0  0  0  0  0
   22.1527   -5.3157  -14.4084 C   0  0  0  0  0  0  0  0  0  0  0  0
   22.6744   -4.0462  -14.4670 O   0  0  0  0  0  0  0  0  0  0  0  0
   20.9430   -3.2589  -16.5257 O   0  0  0  0  0  0  0  0  0  0  0  0
   22.2819   -5.9395  -13.3282 O   0  0  0  0  0  0  0  0  0  0  0  0
  2  1  1  1
  2  6  1  0
  2  3  1  0
  3  4  1  0
  4  5  2  0
  4  8  1  0
  6  7  2  0
 10  9  1  6
 10 12  1  0
 11 10  1  0
 13 12  1  6
 14 13  1  0
 14  6  1  0
 15 13  1  0
 16 15  2  0
 17 15  1  0
 18 17  1  0
 18 19  1  1
 19 20  1  0
 20 21  2  0
 22 18  1  0
 23 22  1  0
 24 20  1  0
 25 22  2  0
M  END
$$$$
