YRK.pdb
     RDKit          3D

 33 33  0  0  1  0  0  0  0  0999 V2000
    5.1953  -10.6223   27.8990 O   0  0  0  0  0  0  0  0  0  0  0  0
    5.9029  -11.7237   27.4712 C   0  0  0  0  0  0  0  0  0  0  0  0
    7.0069  -12.1933   28.1510 C   0  0  0  0  0  0  0  0  0  0  0  0
    7.6975  -13.2964   27.7032 C   0  0  0  0  0  0  0  0  0  0  0  0
    7.2716  -13.9230   26.5695 C   0  0  0  0  0  0  0  0  0  0  0  0
    7.9789  -15.1169   26.0431 C   0  0  0  0  0  0  0  0  0  0  0  0
    7.0148  -16.0476   25.3162 C   0  0  2  0  0  0  0  0  0  0  0  0
    6.8014  -17.1971   26.1621 N   0  0  0  0  0  0  0  0  0  0  0  0
    7.6303  -16.3865   24.0255 C   0  0  0  0  0  0  0  0  0  0  0  0
    8.2083  -17.4770   23.8832 O   0  0  0  0  0  0  0  0  0  0  0  0
    6.1704  -13.4708   25.8737 C   0  0  0  0  0  0  0  0  0  0  0  0
    5.5002  -12.3736   26.3371 C   0  0  0  0  0  0  0  0  0  0  0  0
    7.2192  -13.7662   15.7396 N   0  0  0  0  0  0  0  0  0  0  0  0
    8.4604  -14.0583   16.3931 C   0  0  0  0  0  0  0  0  0  0  0  0
    9.1225  -15.0778   15.9894 N   0  0  0  0  0  0  0  0  0  0  0  0
    8.9560  -13.2457   17.4636 N   0  0  0  0  0  0  0  0  0  0  0  0
    8.2238  -13.1755   18.7320 C   0  0  0  0  0  0  0  0  0  0  0  0
    8.6242  -14.3493   19.6080 C   0  0  0  0  0  0  0  0  0  0  0  0
    7.7275  -14.4994   20.8019 C   0  0  0  0  0  0  0  0  0  0  0  0
    8.0318  -15.7531   21.6107 C   0  0  2  0  0  0  0  0  0  0  0  0
    7.5656  -15.4798   22.9558 N   0  0  0  0  0  0  0  0  0  0  0  0
    9.5351  -15.8600   21.6401 C   0  0  0  0  0  0  0  0  0  0  0  0
   10.2327  -15.0077   22.2527 O   0  0  0  0  0  0  0  0  0  0  0  0
   10.0273  -15.3692   16.3874 N   0  0  0  0  0  0  0  0  0  0  0  0
   10.2191  -16.9120   20.9876 C   0  0  2  0  0  0  0  0  0  0  0  0
   11.6565  -17.1773   21.1949 C   0  0  0  0  0  0  0  0  0  0  0  0
   11.9543  -18.6183   20.9661 C   0  0  0  0  0  0  0  0  0  0  0  0
   13.4033  -18.9509   21.1761 C   0  0  0  0  0  0  0  0  0  0  0  0
   13.6187  -20.4344   20.9996 C   0  0  0  0  0  0  0  0  0  0  0  0
   15.0608  -20.7501   21.3127 N   0  0  0  0  0  0  0  0  0  0  0  0
   15.1960  -22.2055   21.2900 C   0  0  0  0  0  0  0  0  0  0  0  0
   12.4708  -16.2813   20.3654 O   0  0  0  0  0  0  0  0  0  0  0  0
   13.5538  -15.8325   20.8885 O   0  0  0  0  0  0  0  0  0  0  0  0
  2  1  1  0
  3  2  2  0
  4  3  1  0
  5 11  1  0
  5  4  2  0
  6  5  1  0
  7  9  1  0
  7  6  1  0
  7  8  1  1
  9 10  2  0
  9 21  1  0
 11 12  2  0
 12  2  1  0
 13 14  1  0
 14 16  1  0
 14 15  2  0
 16 17  1  0
 17 18  1  0
 19 18  1  0
 20 19  1  6
 21 20  1  0
 22 24  1  0
 22 20  1  0
 23 22  2  0
 25 31  1  0
 25 24  1  0
 25 26  1  6
 26 27  1  0
 27 28  1  0
 28 29  1  0
 30 29  1  0
 31 33  1  0
 32 31  2  0
M  END
$$$$
