YRK.pdb
     RDKit          3D

 33 33  0  0  1  0  0  0  0  0999 V2000
   -2.5565  -21.4002   22.7906 O   0  0  0  0  0  0  0  0  0  0  0  0
   -1.2031  -21.1547   22.8602 C   0  0  0  0  0  0  0  0  0  0  0  0
   -0.6793  -19.8905   22.6903 C   0  0  0  0  0  0  0  0  0  0  0  0
    0.6773  -19.6705   22.7644 C   0  0  0  0  0  0  0  0  0  0  0  0
    1.5022  -20.7282   23.0101 C   0  0  0  0  0  0  0  0  0  0  0  0
    2.9725  -20.5470   23.1009 C   0  0  0  0  0  0  0  0  0  0  0  0
    3.5478  -20.0693   21.7724 C   0  0  2  0  0  0  0  0  0  0  0  0
    3.5868  -21.2055   20.8835 N   0  0  0  0  0  0  0  0  0  0  0  0
    4.8772  -19.5092   22.0526 C   0  0  0  0  0  0  0  0  0  0  0  0
    5.8616  -20.2628   22.1331 O   0  0  0  0  0  0  0  0  0  0  0  0
    1.0004  -22.0008   23.1831 C   0  0  0  0  0  0  0  0  0  0  0  0
   -0.3501  -22.1953   23.1052 C   0  0  0  0  0  0  0  0  0  0  0  0
    8.6139  -11.5893   20.4667 N   0  0  0  0  0  0  0  0  0  0  0  0
    8.6946  -12.5989   19.4531 C   0  0  0  0  0  0  0  0  0  0  0  0
    9.3306  -12.3161   18.3778 N   0  0  0  0  0  0  0  0  0  0  0  0
    8.0886  -13.8857   19.6236 N   0  0  0  0  0  0  0  0  0  0  0  0
    7.4242  -14.2230   20.8864 C   0  0  0  0  0  0  0  0  0  0  0  0
    6.8138  -15.6089   20.7775 C   0  0  0  0  0  0  0  0  0  0  0  0
    6.0701  -16.0017   22.0203 C   0  0  0  0  0  0  0  0  0  0  0  0
    6.3062  -17.4542   22.4114 C   0  0  2  0  0  0  0  0  0  0  0  0
    5.0344  -18.1255   22.2291 N   0  0  0  0  0  0  0  0  0  0  0  0
    6.6249  -17.4294   23.8844 C   0  0  0  0  0  0  0  0  0  0  0  0
    5.8129  -16.9388   24.7141 O   0  0  0  0  0  0  0  0  0  0  0  0
    9.4069  -12.9533   17.5715 N   0  0  0  0  0  0  0  0  0  0  0  0
    7.8374  -17.9511   24.3924 C   0  0  2  0  0  0  0  0  0  0  0  0
    8.1421  -17.9977   25.8361 C   0  0  0  0  0  0  0  0  0  0  0  0
    8.0853  -19.4010   26.3312 C   0  0  0  0  0  0  0  0  0  0  0  0
    8.4316  -19.5161   27.7875 C   0  0  0  0  0  0  0  0  0  0  0  0
    8.5108  -20.9710   28.1814 C   0  0  0  0  0  0  0  0  0  0  0  0
    8.7736  -21.0525   29.6653 N   0  0  0  0  0  0  0  0  0  0  0  0
    8.8206  -22.4709   30.0154 C   0  0  0  0  0  0  0  0  0  0  0  0
    9.4241  -17.3396   26.1138 O   0  0  0  0  0  0  0  0  0  0  0  0
   10.2534  -17.2516   25.1379 O   0  0  0  0  0  0  0  0  0  0  0  0
  2  1  1  0
  3  2  2  0
  4  3  1  0
  5 11  1  0
  5  4  2  0
  6  5  1  0
  7  9  1  0
  7  6  1  0
  7  8  1  6
  9 10  2  0
  9 21  1  0
 11 12  2  0
 12  2  1  0
 13 14  1  0
 14 16  1  0
 14 15  2  0
 16 17  1  0
 17 18  1  0
 19 18  1  0
 20 19  1  1
 21 20  1  0
 22 24  1  0
 22 20  1  0
 23 22  2  0
 25 31  1  0
 25 24  1  0
 25 26  1  6
 26 27  1  0
 27 28  1  0
 28 29  1  0
 30 29  1  0
 31 33  1  0
 32 31  2  0
M  END
$$$$
