YRK.pdb
     RDKit          3D

 33 33  0  0  1  0  0  0  0  0999 V2000
    7.2267  -11.0282   17.2062 O   0  0  0  0  0  0  0  0  0  0  0  0
    7.4406  -12.1805   17.9295 C   0  0  0  0  0  0  0  0  0  0  0  0
    8.4351  -12.2735   18.8801 C   0  0  0  0  0  0  0  0  0  0  0  0
    8.6291  -13.4364   19.5902 C   0  0  0  0  0  0  0  0  0  0  0  0
    7.8179  -14.5032   19.3386 C   0  0  0  0  0  0  0  0  0  0  0  0
    7.9829  -15.7807   20.0759 C   0  0  0  0  0  0  0  0  0  0  0  0
    9.2748  -16.4823   19.6723 C   0  0  2  0  0  0  0  0  0  0  0  0
    9.0906  -16.9941   18.3357 N   0  0  0  0  0  0  0  0  0  0  0  0
    9.5235  -17.5366   20.6655 C   0  0  0  0  0  0  0  0  0  0  0  0
    9.2783  -18.7216   20.3843 O   0  0  0  0  0  0  0  0  0  0  0  0
    6.8172  -14.4327   18.3926 C   0  0  0  0  0  0  0  0  0  0  0  0
    6.6433  -13.2677   17.6998 C   0  0  0  0  0  0  0  0  0  0  0  0
   12.2145  -24.2280   22.6374 N   0  0  0  0  0  0  0  0  0  0  0  0
   12.7192  -23.6207   23.8331 C   0  0  0  0  0  0  0  0  0  0  0  0
   13.2103  -24.3897   24.7321 N   0  0  0  0  0  0  0  0  0  0  0  0
   12.6815  -22.2023   24.0297 N   0  0  0  0  0  0  0  0  0  0  0  0
   12.0878  -21.3347   23.0076 C   0  0  0  0  0  0  0  0  0  0  0  0
   12.0829  -19.9011   23.5076 C   0  0  0  0  0  0  0  0  0  0  0  0
   11.5547  -18.9428   22.4806 C   0  0  0  0  0  0  0  0  0  0  0  0
   10.3441  -18.1622   22.9740 C   0  0  2  0  0  0  0  0  0  0  0  0
   10.0369  -17.2053   21.9292 N   0  0  0  0  0  0  0  0  0  0  0  0
   10.8185  -17.4056   24.1883 C   0  0  0  0  0  0  0  0  0  0  0  0
   11.9677  -16.8893   24.2211 O   0  0  0  0  0  0  0  0  0  0  0  0
   13.5597  -24.0580   25.6430 N   0  0  0  0  0  0  0  0  0  0  0  0
   10.0010  -17.2448   25.3312 C   0  0  2  0  0  0  0  0  0  0  0  0
    9.9569  -15.9912   26.1095 C   0  0  0  0  0  0  0  0  0  0  0  0
    8.6510  -15.3042   25.9092 C   0  0  0  0  0  0  0  0  0  0  0  0
    8.5720  -13.9886   26.6283 C   0  0  0  0  0  0  0  0  0  0  0  0
    7.2269  -13.3500   26.3812 C   0  0  0  0  0  0  0  0  0  0  0  0
    7.2039  -12.0024   27.0599 N   0  0  0  0  0  0  0  0  0  0  0  0
    5.8840  -11.4226   26.8177 C   0  0  0  0  0  0  0  0  0  0  0  0
   10.2619  -16.2501   27.5215 O   0  0  0  0  0  0  0  0  0  0  0  0
   10.0858  -17.4504   27.9414 O   0  0  0  0  0  0  0  0  0  0  0  0
  2  1  1  0
  3  2  2  0
  4  3  1  0
  5 11  1  0
  5  4  2  0
  6  5  1  0
  7  9  1  0
  7  6  1  0
  7  8  1  6
  9 10  2  0
  9 21  1  0
 11 12  2  0
 12  2  1  0
 13 14  1  0
 14 16  1  0
 14 15  2  0
 16 17  1  0
 17 18  1  0
 19 18  1  0
 20 19  1  6
 21 20  1  0
 22 24  1  0
 22 20  1  0
 23 22  2  0
 25 31  1  0
 25 24  1  0
 25 26  1  6
 26 27  1  0
 27 28  1  0
 28 29  1  0
 30 29  1  0
 31 33  1  0
 32 31  2  0
M  END
$$$$
