YRK.pdb
     RDKit          3D

 33 33  0  0  1  0  0  0  0  0999 V2000
    5.3688   -9.9443   25.6252 O   0  0  0  0  0  0  0  0  0  0  0  0
    5.9491  -11.1877   25.7430 C   0  0  0  0  0  0  0  0  0  0  0  0
    5.9395  -11.8901   26.9296 C   0  0  0  0  0  0  0  0  0  0  0  0
    6.5264  -13.1315   27.0221 C   0  0  0  0  0  0  0  0  0  0  0  0
    7.1219  -13.6611   25.9156 C   0  0  0  0  0  0  0  0  0  0  0  0
    7.7688  -14.9962   25.9597 C   0  0  0  0  0  0  0  0  0  0  0  0
    6.9029  -16.0465   25.2732 C   0  0  2  0  0  0  0  0  0  0  0  0
    5.6225  -16.0548   25.9387 N   0  0  0  0  0  0  0  0  0  0  0  0
    7.6149  -17.3281   25.3743 C   0  0  0  0  0  0  0  0  0  0  0  0
    7.5399  -17.9966   26.4187 O   0  0  0  0  0  0  0  0  0  0  0  0
    7.1435  -12.9767   24.7189 C   0  0  0  0  0  0  0  0  0  0  0  0
    6.5544  -11.7454   24.6506 C   0  0  0  0  0  0  0  0  0  0  0  0
    5.0518  -19.7595   22.8326 N   0  0  0  0  0  0  0  0  0  0  0  0
    5.3803  -20.6560   21.7641 C   0  0  0  0  0  0  0  0  0  0  0  0
    4.6128  -20.6697   20.7387 N   0  0  0  0  0  0  0  0  0  0  0  0
    6.5257  -21.5139   21.8277 N   0  0  0  0  0  0  0  0  0  0  0  0
    7.7000  -21.1144   22.6096 C   0  0  0  0  0  0  0  0  0  0  0  0
    8.2383  -19.8009   22.0708 C   0  0  0  0  0  0  0  0  0  0  0  0
    9.4440  -19.3273   22.8284 C   0  0  0  0  0  0  0  0  0  0  0  0
    9.1392  -19.0296   24.2902 C   0  0  2  0  0  0  0  0  0  0  0  0
    8.3781  -17.7958   24.2930 N   0  0  0  0  0  0  0  0  0  0  0  0
   10.4754  -18.7664   24.9362 C   0  0  0  0  0  0  0  0  0  0  0  0
   10.7353  -17.6465   25.4525 O   0  0  0  0  0  0  0  0  0  0  0  0
    4.7731  -21.2600   19.9094 N   0  0  0  0  0  0  0  0  0  0  0  0
   11.4840  -19.7564   24.9896 C   0  0  2  0  0  0  0  0  0  0  0  0
   12.5177  -19.7849   26.0432 C   0  0  0  0  0  0  0  0  0  0  0  0
   11.8846  -19.9147   27.3848 C   0  0  0  0  0  0  0  0  0  0  0  0
   12.8920  -20.0076   28.4942 C   0  0  0  0  0  0  0  0  0  0  0  0
   12.1830  -20.0730   29.8252 C   0  0  0  0  0  0  0  0  0  0  0  0
   13.2189  -20.2089   30.9141 N   0  0  0  0  0  0  0  0  0  0  0  0
   12.5013  -20.2404   32.1872 C   0  0  0  0  0  0  0  0  0  0  0  0
   13.5057  -20.8346   25.7676 O   0  0  0  0  0  0  0  0  0  0  0  0
   14.6947  -20.6418   26.2114 O   0  0  0  0  0  0  0  0  0  0  0  0
  2  1  1  0
  3  2  2  0
  4  3  1  0
  5 11  1  0
  5  4  2  0
  6  5  1  0
  7  9  1  0
  7  6  1  0
  7  8  1  1
  9 10  2  0
  9 21  1  0
 11 12  2  0
 12  2  1  0
 13 14  1  0
 14 16  1  0
 14 15  2  0
 16 17  1  0
 17 18  1  0
 19 18  1  0
 20 19  1  6
 21 20  1  0
 22 24  1  0
 22 20  1  0
 23 22  2  0
 25 31  1  0
 25 24  1  0
 25 26  1  1
 26 27  1  0
 27 28  1  0
 28 29  1  0
 30 29  1  0
 31 33  1  0
 32 31  2  0
M  END
$$$$
