YRK.pdb
     RDKit          3D

 33 33  0  0  1  0  0  0  0  0999 V2000
    5.3075  -10.9289   27.9863 O   0  0  0  0  0  0  0  0  0  0  0  0
    6.0039  -11.8720   27.2637 C   0  0  0  0  0  0  0  0  0  0  0  0
    5.4666  -12.4846   26.1512 C   0  0  0  0  0  0  0  0  0  0  0  0
    6.1828  -13.4244   25.4454 C   0  0  0  0  0  0  0  0  0  0  0  0
    7.4405  -13.7435   25.8648 C   0  0  0  0  0  0  0  0  0  0  0  0
    8.2567  -14.7493   25.1402 C   0  0  0  0  0  0  0  0  0  0  0  0
    7.4044  -15.9379   24.7099 C   0  0  2  0  0  0  0  0  0  0  0  0
    6.8220  -16.5073   25.9011 N   0  0  0  0  0  0  0  0  0  0  0  0
    8.2895  -16.8699   23.9973 C   0  0  0  0  0  0  0  0  0  0  0  0
    8.5542  -17.9760   24.4970 O   0  0  0  0  0  0  0  0  0  0  0  0
    7.9976  -13.1436   26.9743 C   0  0  0  0  0  0  0  0  0  0  0  0
    7.2678  -12.2133   27.6595 C   0  0  0  0  0  0  0  0  0  0  0  0
    7.8268  -13.9730   16.8397 N   0  0  0  0  0  0  0  0  0  0  0  0
    8.2177  -13.2269   17.9989 C   0  0  0  0  0  0  0  0  0  0  0  0
    8.7977  -12.0996   17.8158 N   0  0  0  0  0  0  0  0  0  0  0  0
    7.9745  -13.7138   19.3239 N   0  0  0  0  0  0  0  0  0  0  0  0
    7.9647  -15.1564   19.5859 C   0  0  0  0  0  0  0  0  0  0  0  0
    9.2721  -15.5551   20.2470 C   0  0  0  0  0  0  0  0  0  0  0  0
    9.3541  -17.0321   20.4995 C   0  0  0  0  0  0  0  0  0  0  0  0
    9.6868  -17.3624   21.9482 C   0  0  2  0  0  0  0  0  0  0  0  0
    8.8347  -16.5108   22.7546 N   0  0  0  0  0  0  0  0  0  0  0  0
   11.1167  -16.9275   22.1437 C   0  0  0  0  0  0  0  0  0  0  0  0
   12.0149  -17.2714   21.3292 O   0  0  0  0  0  0  0  0  0  0  0  0
    9.2089  -11.5357   18.5741 N   0  0  0  0  0  0  0  0  0  0  0  0
   11.5065  -16.1223   23.2391 C   0  0  1  0  0  0  0  0  0  0  0  0
   12.6247  -16.4809   24.1337 C   0  0  0  0  0  0  0  0  0  0  0  0
   12.1933  -17.5203   25.1090 C   0  0  0  0  0  0  0  0  0  0  0  0
   12.3281  -17.0688   26.5345 C   0  0  0  0  0  0  0  0  0  0  0  0
   11.5744  -18.0096   27.4429 C   0  0  0  0  0  0  0  0  0  0  0  0
   11.6623  -17.4855   28.8554 N   0  0  0  0  0  0  0  0  0  0  0  0
   10.9404  -18.4280   29.7082 C   0  0  0  0  0  0  0  0  0  0  0  0
   13.8029  -16.8761   23.3531 O   0  0  0  0  0  0  0  0  0  0  0  0
   14.7758  -16.0398   23.3092 O   0  0  0  0  0  0  0  0  0  0  0  0
  2  1  1  0
  3  2  2  0
  4  3  1  0
  5 11  1  0
  5  4  2  0
  6  5  1  0
  7  9  1  0
  7  6  1  0
  7  8  1  1
  9 10  2  0
  9 21  1  0
 11 12  2  0
 12  2  1  0
 13 14  1  0
 14 16  1  0
 14 15  2  0
 16 17  1  0
 17 18  1  0
 19 18  1  0
 20 19  1  6
 21 20  1  0
 22 24  1  0
 22 20  1  0
 23 22  2  0
 25 31  1  0
 25 24  1  0
 25 26  1  1
 26 27  1  0
 27 28  1  0
 28 29  1  0
 30 29  1  0
 31 33  1  0
 32 31  2  0
M  END
$$$$
