YRK.pdb
     RDKit          3D

 33 33  0  0  1  0  0  0  0  0999 V2000
    9.3091  -12.5310   16.5354 O   0  0  0  0  0  0  0  0  0  0  0  0
    8.8543  -13.0863   17.7107 C   0  0  0  0  0  0  0  0  0  0  0  0
    9.3814  -14.2543   18.2200 C   0  0  0  0  0  0  0  0  0  0  0  0
    8.9098  -14.7896   19.3970 C   0  0  0  0  0  0  0  0  0  0  0  0
    7.9065  -14.1440   20.0572 C   0  0  0  0  0  0  0  0  0  0  0  0
    7.3614  -14.6770   21.3307 C   0  0  0  0  0  0  0  0  0  0  0  0
    6.5895  -15.9706   21.0963 C   0  0  2  0  0  0  0  0  0  0  0  0
    5.3166  -15.6165   20.5160 N   0  0  0  0  0  0  0  0  0  0  0  0
    6.4645  -16.6421   22.3975 C   0  0  0  0  0  0  0  0  0  0  0  0
    5.5778  -16.2893   23.1929 O   0  0  0  0  0  0  0  0  0  0  0  0
    7.3646  -12.9749   19.5665 C   0  0  0  0  0  0  0  0  0  0  0  0
    7.8487  -12.4620   18.3959 C   0  0  0  0  0  0  0  0  0  0  0  0
    5.0761  -23.3601   24.8690 N   0  0  0  0  0  0  0  0  0  0  0  0
    6.0880  -23.3904   25.8829 C   0  0  0  0  0  0  0  0  0  0  0  0
    5.7348  -23.7189   27.0696 N   0  0  0  0  0  0  0  0  0  0  0  0
    7.4529  -23.0662   25.5931 N   0  0  0  0  0  0  0  0  0  0  0  0
    7.7789  -22.2321   24.4321 C   0  0  0  0  0  0  0  0  0  0  0  0
    7.6504  -20.7683   24.8139 C   0  0  0  0  0  0  0  0  0  0  0  0
    7.4905  -19.8800   23.6150 C   0  0  0  0  0  0  0  0  0  0  0  0
    7.3099  -18.4153   23.9896 C   0  0  2  0  0  0  0  0  0  0  0  0
    7.3453  -17.6796   22.7409 N   0  0  0  0  0  0  0  0  0  0  0  0
    8.5321  -18.0498   24.7925 C   0  0  0  0  0  0  0  0  0  0  0  0
    9.6865  -18.1537   24.2976 O   0  0  0  0  0  0  0  0  0  0  0  0
    6.3744  -23.7265   27.8775 N   0  0  0  0  0  0  0  0  0  0  0  0
    8.4352  -17.5791   26.1227 C   0  0  2  0  0  0  0  0  0  0  0  0
    9.6149  -17.1758   26.9132 C   0  0  0  0  0  0  0  0  0  0  0  0
    9.2823  -16.0124   27.7811 C   0  0  0  0  0  0  0  0  0  0  0  0
   10.4089  -15.6328   28.6982 C   0  0  0  0  0  0  0  0  0  0  0  0
    9.9932  -14.4693   29.5653 C   0  0  0  0  0  0  0  0  0  0  0  0
   11.1389  -14.1229   30.4844 N   0  0  0  0  0  0  0  0  0  0  0  0
   10.7251  -12.9589   31.2658 C   0  0  0  0  0  0  0  0  0  0  0  0
   10.1493  -18.3196   27.6616 O   0  0  0  0  0  0  0  0  0  0  0  0
    9.2982  -19.1790   28.0917 O   0  0  0  0  0  0  0  0  0  0  0  0
  2  1  1  0
  3  2  2  0
  4  3  1  0
  5 11  1  0
  5  4  2  0
  6  5  1  0
  7  9  1  0
  7  6  1  0
  7  8  1  1
  9 10  2  0
  9 21  1  0
 11 12  2  0
 12  2  1  0
 13 14  1  0
 14 16  1  0
 14 15  2  0
 16 17  1  0
 17 18  1  0
 19 18  1  0
 20 19  1  6
 21 20  1  0
 22 24  1  0
 22 20  1  0
 23 22  2  0
 25 31  1  0
 25 24  1  0
 25 26  1  1
 26 27  1  0
 27 28  1  0
 28 29  1  0
 30 29  1  0
 31 33  1  0
 32 31  2  0
M  END
$$$$
