YRK.pdb
     RDKit          3D

 33 33  0  0  1  0  0  0  0  0999 V2000
    8.5244  -11.9838   20.3613 O   0  0  0  0  0  0  0  0  0  0  0  0
    7.7866  -13.0603   20.8012 C   0  0  0  0  0  0  0  0  0  0  0  0
    8.0261  -13.6631   22.0181 C   0  0  0  0  0  0  0  0  0  0  0  0
    7.2748  -14.7380   22.4357 C   0  0  0  0  0  0  0  0  0  0  0  0
    6.2829  -15.2019   21.6231 C   0  0  0  0  0  0  0  0  0  0  0  0
    5.4423  -16.3573   22.0247 C   0  0  0  0  0  0  0  0  0  0  0  0
    5.3232  -17.3679   20.8894 C   0  0  2  0  0  0  0  0  0  0  0  0
    4.5465  -18.4809   21.3798 N   0  0  0  0  0  0  0  0  0  0  0  0
    6.6893  -17.7440   20.4995 C   0  0  0  0  0  0  0  0  0  0  0  0
    7.3755  -18.4520   21.2552 O   0  0  0  0  0  0  0  0  0  0  0  0
    6.0259  -14.6147   20.4023 C   0  0  0  0  0  0  0  0  0  0  0  0
    6.7848  -13.5486   20.0085 C   0  0  0  0  0  0  0  0  0  0  0  0
   10.3798  -14.9721   12.9774 N   0  0  0  0  0  0  0  0  0  0  0  0
   10.2714  -16.3839   13.1966 C   0  0  0  0  0  0  0  0  0  0  0  0
   10.2653  -17.1491   12.1693 N   0  0  0  0  0  0  0  0  0  0  0  0
   10.1722  -16.9347   14.5152 N   0  0  0  0  0  0  0  0  0  0  0  0
   10.2758  -16.0589   15.6866 C   0  0  0  0  0  0  0  0  0  0  0  0
   10.1108  -16.8871   16.9484 C   0  0  0  0  0  0  0  0  0  0  0  0
    8.7567  -16.7108   17.5709 C   0  0  0  0  0  0  0  0  0  0  0  0
    8.5654  -17.5704   18.8131 C   0  0  2  0  0  0  0  0  0  0  0  0
    7.2176  -17.3039   19.2757 N   0  0  0  0  0  0  0  0  0  0  0  0
    9.5347  -17.0287   19.8326 C   0  0  0  0  0  0  0  0  0  0  0  0
    9.5619  -15.7997   20.1107 O   0  0  0  0  0  0  0  0  0  0  0  0
   10.2956  -18.1779   12.2196 N   0  0  0  0  0  0  0  0  0  0  0  0
   10.4455  -17.8695   20.5136 C   0  0  2  0  0  0  0  0  0  0  0  0
   11.3143  -17.3852   21.6045 C   0  0  0  0  0  0  0  0  0  0  0  0
   11.1085  -18.2041   22.8312 C   0  0  0  0  0  0  0  0  0  0  0  0
   12.0885  -17.8736   23.9196 C   0  0  0  0  0  0  0  0  0  0  0  0
   11.9449  -18.8588   25.0541 C   0  0  0  0  0  0  0  0  0  0  0  0
   12.8417  -18.4206   26.1860 N   0  0  0  0  0  0  0  0  0  0  0  0
   12.5873  -19.3220   27.3083 C   0  0  0  0  0  0  0  0  0  0  0  0
   12.7147  -17.3425   21.1678 O   0  0  0  0  0  0  0  0  0  0  0  0
   13.0539  -18.1506   20.2298 O   0  0  0  0  0  0  0  0  0  0  0  0
  2  1  1  0
  3  2  2  0
  4  3  1  0
  5 11  1  0
  5  4  2  0
  6  5  1  0
  7  9  1  0
  7  6  1  0
  7  8  1  1
  9 10  2  0
  9 21  1  0
 11 12  2  0
 12  2  1  0
 13 14  1  0
 14 16  1  0
 14 15  2  0
 16 17  1  0
 17 18  1  0
 19 18  1  0
 20 19  1  6
 21 20  1  0
 22 24  1  0
 22 20  1  0
 23 22  2  0
 25 31  1  0
 25 24  1  0
 25 26  1  1
 26 27  1  0
 27 28  1  0
 28 29  1  0
 30 29  1  0
 31 33  1  0
 32 31  2  0
M  END
$$$$
