YRK.pdb
     RDKit          3D

 33 33  0  0  1  0  0  0  0  0999 V2000
    5.4950  -10.0164   27.7327 O   0  0  0  0  0  0  0  0  0  0  0  0
    6.1159  -11.1802   27.3368 C   0  0  0  0  0  0  0  0  0  0  0  0
    6.5823  -11.3599   26.0516 C   0  0  0  0  0  0  0  0  0  0  0  0
    7.1998  -12.5325   25.6802 C   0  0  0  0  0  0  0  0  0  0  0  0
    7.3449  -13.5214   26.6077 C   0  0  0  0  0  0  0  0  0  0  0  0
    8.0038  -14.8053   26.2608 C   0  0  0  0  0  0  0  0  0  0  0  0
    7.0020  -15.7930   25.6736 C   0  0  2  0  0  0  0  0  0  0  0  0
    6.5909  -16.6773   26.7373 N   0  0  0  0  0  0  0  0  0  0  0  0
    7.6775  -16.4909   24.5707 C   0  0  0  0  0  0  0  0  0  0  0  0
    8.1302  -17.6343   24.7473 O   0  0  0  0  0  0  0  0  0  0  0  0
    6.8862  -13.3635   27.8984 C   0  0  0  0  0  0  0  0  0  0  0  0
    6.2763  -12.1906   28.2445 C   0  0  0  0  0  0  0  0  0  0  0  0
    7.7425  -14.1862   16.7804 N   0  0  0  0  0  0  0  0  0  0  0  0
    8.8800  -13.7748   17.5484 C   0  0  0  0  0  0  0  0  0  0  0  0
    8.9561  -12.5426   17.8899 N   0  0  0  0  0  0  0  0  0  0  0  0
    9.9054  -14.7001   17.9283 N   0  0  0  0  0  0  0  0  0  0  0  0
   10.0573  -15.0921   19.3330 C   0  0  0  0  0  0  0  0  0  0  0  0
    8.8803  -15.9597   19.7419 C   0  0  0  0  0  0  0  0  0  0  0  0
    8.2460  -15.4920   21.0190 C   0  0  0  0  0  0  0  0  0  0  0  0
    8.5232  -16.4265   22.1887 C   0  0  2  0  0  0  0  0  0  0  0  0
    7.8112  -15.8668   23.3205 N   0  0  0  0  0  0  0  0  0  0  0  0
   10.0028  -16.3142   22.4538 C   0  0  0  0  0  0  0  0  0  0  0  0
   10.5480  -15.1893   22.6143 O   0  0  0  0  0  0  0  0  0  0  0  0
    9.7697  -12.1285   18.3681 N   0  0  0  0  0  0  0  0  0  0  0  0
   10.8334  -17.4562   22.5332 C   0  0  2  0  0  0  0  0  0  0  0  0
   12.2905  -17.3680   22.7529 C   0  0  0  0  0  0  0  0  0  0  0  0
   12.8518  -18.7164   23.0436 C   0  0  0  0  0  0  0  0  0  0  0  0
   14.3145  -18.6750   23.3798 C   0  0  0  0  0  0  0  0  0  0  0  0
   14.8305  -20.0772   23.5936 C   0  0  0  0  0  0  0  0  0  0  0  0
   16.2694  -19.9956   24.0413 N   0  0  0  0  0  0  0  0  0  0  0  0
   16.7305  -21.3662   24.2551 C   0  0  0  0  0  0  0  0  0  0  0  0
   12.9435  -16.7037   21.6188 O   0  0  0  0  0  0  0  0  0  0  0  0
   13.8381  -15.8265   21.8982 O   0  0  0  0  0  0  0  0  0  0  0  0
  2  1  1  0
  3  2  2  0
  4  3  1  0
  5 11  1  0
  5  4  2  0
  6  5  1  0
  7  9  1  0
  7  6  1  0
  7  8  1  1
  9 10  2  0
  9 21  1  0
 11 12  2  0
 12  2  1  0
 13 14  1  0
 14 16  1  0
 14 15  2  0
 16 17  1  0
 17 18  1  0
 19 18  1  0
 20 19  1  6
 21 20  1  0
 22 24  1  0
 22 20  1  0
 23 22  2  0
 25 31  1  0
 25 24  1  0
 25 26  1  6
 26 27  1  0
 27 28  1  0
 28 29  1  0
 30 29  1  0
 31 33  1  0
 32 31  2  0
M  END
$$$$
