YRK.pdb
     RDKit          3D

 33 33  0  0  1  0  0  0  0  0999 V2000
    6.5401  -10.5192   27.3468 O   0  0  0  0  0  0  0  0  0  0  0  0
    6.8044  -11.8523   27.1240 C   0  0  0  0  0  0  0  0  0  0  0  0
    5.7995  -12.7923   27.0339 C   0  0  0  0  0  0  0  0  0  0  0  0
    6.0893  -14.1191   26.8106 C   0  0  0  0  0  0  0  0  0  0  0  0
    7.3937  -14.4938   26.6788 C   0  0  0  0  0  0  0  0  0  0  0  0
    7.7620  -15.9110   26.4361 C   0  0  0  0  0  0  0  0  0  0  0  0
    6.7247  -16.6033   25.5592 C   0  0  2  0  0  0  0  0  0  0  0  0
    6.4166  -17.8727   26.1726 N   0  0  0  0  0  0  0  0  0  0  0  0
    7.3110  -16.7368   24.2183 C   0  0  0  0  0  0  0  0  0  0  0  0
    8.0321  -17.7131   23.9529 O   0  0  0  0  0  0  0  0  0  0  0  0
    8.4146  -13.5711   26.7653 C   0  0  0  0  0  0  0  0  0  0  0  0
    8.1030  -12.2591   26.9875 C   0  0  0  0  0  0  0  0  0  0  0  0
    7.9910  -12.4929   17.9102 N   0  0  0  0  0  0  0  0  0  0  0  0
    8.3919  -13.6668   17.1930 C   0  0  0  0  0  0  0  0  0  0  0  0
    9.1561  -13.5138   16.1765 N   0  0  0  0  0  0  0  0  0  0  0  0
    7.9595  -14.9740   17.5886 N   0  0  0  0  0  0  0  0  0  0  0  0
    7.2007  -15.1520   18.8305 C   0  0  0  0  0  0  0  0  0  0  0  0
    7.7807  -14.2510   19.9063 C   0  0  0  0  0  0  0  0  0  0  0  0
    7.1436  -14.4818   21.2452 C   0  0  0  0  0  0  0  0  0  0  0  0
    7.5952  -15.7833   21.8937 C   0  0  2  0  0  0  0  0  0  0  0  0
    7.0569  -15.7633   23.2395 N   0  0  0  0  0  0  0  0  0  0  0  0
    9.0973  -15.6918   21.9801 C   0  0  0  0  0  0  0  0  0  0  0  0
    9.6521  -14.8245   22.7071 O   0  0  0  0  0  0  0  0  0  0  0  0
    9.5124  -14.2928   15.6037 N   0  0  0  0  0  0  0  0  0  0  0  0
    9.9391  -16.5676   21.2558 C   0  0  2  0  0  0  0  0  0  0  0  0
   11.3872  -16.6808   21.5196 C   0  0  0  0  0  0  0  0  0  0  0  0
   11.6949  -17.9889   22.1612 C   0  0  0  0  0  0  0  0  0  0  0  0
   13.1629  -18.1806   22.4112 C   0  0  0  0  0  0  0  0  0  0  0  0
   13.4131  -19.5669   22.9533 C   0  0  0  0  0  0  0  0  0  0  0  0
   14.8934  -19.7251   23.2006 N   0  0  0  0  0  0  0  0  0  0  0  0
   15.1016  -21.0818   23.7034 C   0  0  0  0  0  0  0  0  0  0  0  0
   12.1548  -16.4463   20.2909 O   0  0  0  0  0  0  0  0  0  0  0  0
   11.6112  -16.8172   19.1887 O   0  0  0  0  0  0  0  0  0  0  0  0
  2  1  1  0
  3  2  2  0
  4  3  1  0
  5 11  1  0
  5  4  2  0
  6  5  1  0
  7  9  1  0
  7  6  1  0
  7  8  1  1
  9 10  2  0
  9 21  1  0
 11 12  2  0
 12  2  1  0
 13 14  1  0
 14 16  1  0
 14 15  2  0
 16 17  1  0
 17 18  1  0
 19 18  1  0
 20 19  1  6
 21 20  1  0
 22 24  1  0
 22 20  1  0
 23 22  2  0
 25 31  1  0
 25 24  1  0
 25 26  1  6
 26 27  1  0
 27 28  1  0
 28 29  1  0
 30 29  1  0
 31 33  1  0
 32 31  2  0
M  END
$$$$
