YRK.pdb
     RDKit          3D

 33 33  0  0  1  0  0  0  0  0999 V2000
    5.2024  -10.3532   27.8065 O   0  0  0  0  0  0  0  0  0  0  0  0
    5.8088  -11.5152   27.3838 C   0  0  0  0  0  0  0  0  0  0  0  0
    5.2079  -12.3676   26.4817 C   0  0  0  0  0  0  0  0  0  0  0  0
    5.8344  -13.5234   26.0744 C   0  0  0  0  0  0  0  0  0  0  0  0
    7.0669  -13.8158   26.5792 C   0  0  0  0  0  0  0  0  0  0  0  0
    7.7874  -15.0483   26.1734 C   0  0  0  0  0  0  0  0  0  0  0  0
    6.9155  -15.9221   25.2788 C   0  0  2  0  0  0  0  0  0  0  0  0
    6.3650  -16.9717   26.1021 N   0  0  0  0  0  0  0  0  0  0  0  0
    7.7732  -16.4261   24.1971 C   0  0  0  0  0  0  0  0  0  0  0  0
    8.1757  -17.6011   24.2234 O   0  0  0  0  0  0  0  0  0  0  0  0
    7.6865  -12.9780   27.4823 C   0  0  0  0  0  0  0  0  0  0  0  0
    7.0453  -11.8359   27.8723 C   0  0  0  0  0  0  0  0  0  0  0  0
    7.6775  -12.8008   17.2638 N   0  0  0  0  0  0  0  0  0  0  0  0
    8.6768  -13.7048   17.7510 C   0  0  0  0  0  0  0  0  0  0  0  0
    9.9044  -13.3605   17.6283 N   0  0  0  0  0  0  0  0  0  0  0  0
    8.3285  -14.9552   18.3570 N   0  0  0  0  0  0  0  0  0  0  0  0
    7.0886  -15.0764   19.1303 C   0  0  0  0  0  0  0  0  0  0  0  0
    7.3524  -14.6676   20.5686 C   0  0  0  0  0  0  0  0  0  0  0  0
    8.7842  -14.8778   20.9657 C   0  0  0  0  0  0  0  0  0  0  0  0
    8.9498  -15.9791   22.0041 C   0  0  2  0  0  0  0  0  0  0  0  0
    8.1369  -15.5815   23.1366 N   0  0  0  0  0  0  0  0  0  0  0  0
   10.3986  -15.9306   22.4172 C   0  0  0  0  0  0  0  0  0  0  0  0
   10.8185  -15.0375   23.2010 O   0  0  0  0  0  0  0  0  0  0  0  0
   10.6989  -13.9736   17.8627 N   0  0  0  0  0  0  0  0  0  0  0  0
   11.3386  -16.8768   21.9468 C   0  0  2  0  0  0  0  0  0  0  0  0
   12.6774  -17.0367   22.5480 C   0  0  0  0  0  0  0  0  0  0  0  0
   12.7747  -18.3450   23.2525 C   0  0  0  0  0  0  0  0  0  0  0  0
   14.1020  -18.5434   23.9257 C   0  0  0  0  0  0  0  0  0  0  0  0
   14.1018  -19.8491   24.6830 C   0  0  0  0  0  0  0  0  0  0  0  0
   15.3993  -19.9613   25.4456 N   0  0  0  0  0  0  0  0  0  0  0  0
   15.3718  -21.2402   26.1530 C   0  0  0  0  0  0  0  0  0  0  0  0
   13.7229  -16.8477   21.5355 O   0  0  0  0  0  0  0  0  0  0  0  0
   14.9389  -16.8797   21.9456 O   0  0  0  0  0  0  0  0  0  0  0  0
  2  1  1  0
  3  2  2  0
  4  3  1  0
  5 11  1  0
  5  4  2  0
  6  5  1  0
  7  9  1  0
  7  6  1  0
  7  8  1  1
  9 10  2  0
  9 21  1  0
 11 12  2  0
 12  2  1  0
 13 14  1  0
 14 16  1  0
 14 15  2  0
 16 17  1  0
 17 18  1  0
 19 18  1  0
 20 19  1  6
 21 20  1  0
 22 24  1  0
 22 20  1  0
 23 22  2  0
 25 31  1  0
 25 24  1  0
 25 26  1  6
 26 27  1  0
 27 28  1  0
 28 29  1  0
 30 29  1  0
 31 33  1  0
 32 31  2  0
M  END
$$$$
