YRK.pdb
     RDKit          3D

 33 33  0  0  1  0  0  0  0  0999 V2000
    1.4983  -32.6308   31.4446 O   0  0  0  0  0  0  0  0  0  0  0  0
    0.8481  -31.4528   31.1509 C   0  0  0  0  0  0  0  0  0  0  0  0
    1.1573  -30.2685   31.7862 C   0  0  0  0  0  0  0  0  0  0  0  0
    0.4930  -29.1040   31.4750 C   0  0  0  0  0  0  0  0  0  0  0  0
   -0.4824  -29.1380   30.5227 C   0  0  0  0  0  0  0  0  0  0  0  0
   -1.2293  -27.9114   30.1481 C   0  0  0  0  0  0  0  0  0  0  0  0
   -0.7833  -27.3942   28.7851 C   0  0  2  0  0  0  0  0  0  0  0  0
    0.5866  -26.9589   28.9139 N   0  0  0  0  0  0  0  0  0  0  0  0
   -1.7015  -26.3091   28.4120 C   0  0  0  0  0  0  0  0  0  0  0  0
   -1.7318  -25.2655   29.0852 O   0  0  0  0  0  0  0  0  0  0  0  0
   -0.8080  -30.3108   29.8747 C   0  0  0  0  0  0  0  0  0  0  0  0
   -0.1350  -31.4548   30.2002 C   0  0  0  0  0  0  0  0  0  0  0  0
   -2.2058  -25.5174   20.1277 N   0  0  0  0  0  0  0  0  0  0  0  0
   -1.0662  -25.2231   20.9450 C   0  0  0  0  0  0  0  0  0  0  0  0
    0.0241  -24.9001   20.3555 N   0  0  0  0  0  0  0  0  0  0  0  0
   -1.1303  -25.2844   22.3748 N   0  0  0  0  0  0  0  0  0  0  0  0
   -2.3924  -25.6235   23.0395 C   0  0  0  0  0  0  0  0  0  0  0  0
   -2.2822  -25.3023   24.5193 C   0  0  0  0  0  0  0  0  0  0  0  0
   -3.5201  -25.6830   25.2773 C   0  0  0  0  0  0  0  0  0  0  0  0
   -3.4015  -25.4095   26.7705 C   0  0  2  0  0  0  0  0  0  0  0  0
   -2.5427  -26.4518   27.2973 N   0  0  0  0  0  0  0  0  0  0  0  0
   -4.7877  -25.6070   27.3288 C   0  0  0  0  0  0  0  0  0  0  0  0
   -5.3229  -26.7479   27.3440 O   0  0  0  0  0  0  0  0  0  0  0  0
    0.8994  -24.6748   20.8505 N   0  0  0  0  0  0  0  0  0  0  0  0
   -5.5386  -24.5298   27.8545 C   0  0  1  0  0  0  0  0  0  0  0  0
   -6.8726  -24.7093   28.4607 C   0  0  0  0  0  0  0  0  0  0  0  0
   -6.7911  -25.6343   29.6248 C   0  0  0  0  0  0  0  0  0  0  0  0
   -8.1041  -25.7870   30.3366 C   0  0  0  0  0  0  0  0  0  0  0  0
   -7.9204  -26.6316   31.5741 C   0  0  0  0  0  0  0  0  0  0  0  0
   -8.8581  -27.8114   31.4929 N   0  0  0  0  0  0  0  0  0  0  0  0
   -8.6532  -28.6060   32.7026 C   0  0  0  0  0  0  0  0  0  0  0  0
   -7.4648  -23.4094   28.7973 O   0  0  0  0  0  0  0  0  0  0  0  0
   -6.6522  -22.4326   28.9802 O   0  0  0  0  0  0  0  0  0  0  0  0
  2  1  1  0
  3  2  2  0
  4  3  1  0
  5 11  1  0
  5  4  2  0
  6  5  1  0
  7  9  1  0
  7  6  1  0
  7  8  1  1
  9 10  2  0
  9 21  1  0
 11 12  2  0
 12  2  1  0
 13 14  1  0
 14 16  1  0
 14 15  2  0
 16 17  1  0
 17 18  1  0
 19 18  1  0
 20 19  1  6
 21 20  1  0
 22 24  1  0
 22 20  1  0
 23 22  2  0
 25 31  1  0
 25 24  1  0
 25 26  1  6
 26 27  1  0
 27 28  1  0
 28 29  1  0
 30 29  1  0
 31 33  1  0
 32 31  2  0
M  END
$$$$
