YRK.pdb
     RDKit          3D

 33 33  0  0  1  0  0  0  0  0999 V2000
    5.4400  -10.2542   27.2519 O   0  0  0  0  0  0  0  0  0  0  0  0
    5.9818  -11.4786   26.9295 C   0  0  0  0  0  0  0  0  0  0  0  0
    6.7262  -11.6705   25.7847 C   0  0  0  0  0  0  0  0  0  0  0  0
    7.2574  -12.9042   25.4843 C   0  0  0  0  0  0  0  0  0  0  0  0
    7.0356  -13.9416   26.3410 C   0  0  0  0  0  0  0  0  0  0  0  0
    7.5858  -15.2923   26.0659 C   0  0  0  0  0  0  0  0  0  0  0  0
    6.6560  -16.0866   25.1556 C   0  0  2  0  0  0  0  0  0  0  0  0
    6.2670  -17.2796   25.8684 N   0  0  0  0  0  0  0  0  0  0  0  0
    7.3979  -16.3687   23.9188 C   0  0  0  0  0  0  0  0  0  0  0  0
    8.0364  -17.4287   23.8085 O   0  0  0  0  0  0  0  0  0  0  0  0
    6.2944  -13.7725   27.4913 C   0  0  0  0  0  0  0  0  0  0  0  0
    5.7767  -12.5386   27.7690 C   0  0  0  0  0  0  0  0  0  0  0  0
    7.4273  -15.1994   17.1562 N   0  0  0  0  0  0  0  0  0  0  0  0
    8.5358  -14.3834   16.7580 C   0  0  0  0  0  0  0  0  0  0  0  0
    9.2202  -14.7598   15.7428 N   0  0  0  0  0  0  0  0  0  0  0  0
    8.8784  -13.1844   17.4630 N   0  0  0  0  0  0  0  0  0  0  0  0
    8.3539  -12.9504   18.8121 C   0  0  0  0  0  0  0  0  0  0  0  0
    8.7618  -14.1004   19.7155 C   0  0  0  0  0  0  0  0  0  0  0  0
    7.7302  -14.3918   20.7656 C   0  0  0  0  0  0  0  0  0  0  0  0
    8.0722  -15.6187   21.6000 C   0  0  2  0  0  0  0  0  0  0  0  0
    7.3852  -15.4422   22.8643 N   0  0  0  0  0  0  0  0  0  0  0  0
    9.5566  -15.5371   21.8491 C   0  0  0  0  0  0  0  0  0  0  0  0
   10.0447  -14.6136   22.5543 O   0  0  0  0  0  0  0  0  0  0  0  0
   10.0237  -14.2361   15.3660 N   0  0  0  0  0  0  0  0  0  0  0  0
   10.4553  -16.4850   21.3069 C   0  0  2  0  0  0  0  0  0  0  0  0
   11.7893  -16.7401   21.8855 C   0  0  0  0  0  0  0  0  0  0  0  0
   11.8725  -18.1361   22.3970 C   0  0  0  0  0  0  0  0  0  0  0  0
   13.2066  -18.4501   23.0100 C   0  0  0  0  0  0  0  0  0  0  0  0
   13.2377  -19.8912   23.4578 C   0  0  0  0  0  0  0  0  0  0  0  0
   14.5668  -20.1587   24.1208 N   0  0  0  0  0  0  0  0  0  0  0  0
   14.4998  -21.5041   24.6885 C   0  0  0  0  0  0  0  0  0  0  0  0
   12.8421  -16.4177   20.9152 O   0  0  0  0  0  0  0  0  0  0  0  0
   14.0544  -16.4862   21.3317 O   0  0  0  0  0  0  0  0  0  0  0  0
  2  1  1  0
  3  2  2  0
  4  3  1  0
  5 11  1  0
  5  4  2  0
  6  5  1  0
  7  9  1  0
  7  6  1  0
  7  8  1  1
  9 10  2  0
  9 21  1  0
 11 12  2  0
 12  2  1  0
 13 14  1  0
 14 16  1  0
 14 15  2  0
 16 17  1  0
 17 18  1  0
 19 18  1  0
 20 19  1  6
 21 20  1  0
 22 24  1  0
 22 20  1  0
 23 22  2  0
 25 31  1  0
 25 24  1  0
 25 26  1  6
 26 27  1  0
 27 28  1  0
 28 29  1  0
 30 29  1  0
 31 33  1  0
 32 31  2  0
M  END
$$$$
