YYD.pdb
     RDKit          3D

 33 34  0  0  1  0  0  0  0  0999 V2000
    8.6406  -21.3410   31.5046 O   0  0  0  0  0  0  0  0  0  0  0  0
    8.2804  -20.4564   30.4878 C   0  0  0  0  0  0  0  0  0  0  0  0
    8.7750  -19.1645   30.4548 C   0  0  0  0  0  0  0  0  0  0  0  0
    8.3885  -18.3097   29.4178 C   0  0  0  0  0  0  0  0  0  0  0  0
    7.5376  -18.7149   28.4382 C   0  0  0  0  0  0  0  0  0  0  0  0
    7.1539  -17.7764   27.3574 C   0  0  0  0  0  0  0  0  0  0  0  0
    8.0506  -18.0325   26.1687 C   0  0  2  0  0  0  0  0  0  0  0  0
    9.4297  -17.9587   26.5792 N   0  0  0  0  0  0  0  0  0  0  0  0
    7.8173  -17.0680   25.0754 C   0  0  0  0  0  0  0  0  0  0  0  0
    6.7239  -17.0267   24.4357 O   0  0  0  0  0  0  0  0  0  0  0  0
    7.0359  -19.9942   28.4540 C   0  0  0  0  0  0  0  0  0  0  0  0
    7.4210  -20.8459   29.4874 C   0  0  0  0  0  0  0  0  0  0  0  0
    5.2747  -12.3400   28.0867 O   0  0  0  0  0  0  0  0  0  0  0  0
    6.0924  -12.7477   27.0296 C   0  0  0  0  0  0  0  0  0  0  0  0
    7.4625  -12.6001   27.0856 C   0  0  0  0  0  0  0  0  0  0  0  0
    8.2423  -13.0092   26.0325 C   0  0  0  0  0  0  0  0  0  0  0  0
    7.7239  -13.5798   24.8790 C   0  0  0  0  0  0  0  0  0  0  0  0
    8.6425  -13.9719   23.8363 C   0  0  0  0  0  0  0  0  0  0  0  0
    8.7562  -15.3782   23.4326 C   0  0  2  0  0  0  0  0  0  0  0  0
    8.8232  -16.1466   24.7034 N   0  0  0  0  0  0  0  0  0  0  0  0
    9.9523  -15.7591   22.6573 C   0  0  0  0  0  0  0  0  0  0  0  0
   10.1227  -15.3032   21.4688 O   0  0  0  0  0  0  0  0  0  0  0  0
    6.3518  -13.7257   24.8272 C   0  0  0  0  0  0  0  0  0  0  0  0
    5.5727  -13.3142   25.8853 C   0  0  0  0  0  0  0  0  0  0  0  0
   10.9920  -16.6168   23.1054 N   0  0  0  0  0  0  0  0  0  0  0  0
   12.1736  -16.8296   22.3186 C   0  0  1  0  0  0  0  0  0  0  0  0
   13.4457  -16.6126   23.1030 C   0  0  0  0  0  0  0  0  0  0  0  0
   14.4603  -15.8645   22.3414 C   0  0  0  0  0  0  0  0  0  0  0  0
   14.3145  -15.4475   21.1640 O   0  0  0  0  0  0  0  0  0  0  0  0
   12.2302  -18.2088   21.7896 C   0  0  0  0  0  0  0  0  0  0  0  0
   13.0269  -18.6232   20.9190 O   0  0  0  0  0  0  0  0  0  0  0  0
   15.6706  -15.5971   22.9661 O   0  0  0  0  0  0  0  0  0  0  0  0
   11.3242  -19.1616   22.2866 O   0  0  0  0  0  0  0  0  0  0  0  0
  2  3  2  0
  2  1  1  0
  4  3  1  0
  5  4  2  0
  6  7  1  0
  6  5  1  0
  7  9  1  0
  7  8  1  1
  9 10  2  0
 11  5  1  0
 11 12  2  0
 12  2  1  0
 13 14  1  0
 14 24  2  0
 15 14  1  0
 15 16  2  0
 16 17  1  0
 17 23  2  0
 17 18  1  0
 19 18  1  1
 20 19  1  0
 20  9  1  0
 21 19  1  0
 22 21  2  0
 24 23  1  0
 25 21  1  0
 26 25  1  0
 26 27  1  1
 28 32  1  0
 28 27  1  0
 29 28  2  0
 30 26  1  0
 30 33  1  0
 31 30  2  0
M  END
$$$$
