YYD.pdb
     RDKit          3D

 33 34  0  0  1  0  0  0  0  0999 V2000
   15.7229  -15.7880   14.8516 O   0  0  0  0  0  0  0  0  0  0  0  0
   14.9321  -15.4297   15.9437 C   0  0  0  0  0  0  0  0  0  0  0  0
   15.4388  -14.6509   16.9691 C   0  0  0  0  0  0  0  0  0  0  0  0
   14.6123  -14.3142   18.0456 C   0  0  0  0  0  0  0  0  0  0  0  0
   13.3206  -14.7326   18.1122 C   0  0  0  0  0  0  0  0  0  0  0  0
   12.4793  -14.3528   19.2715 C   0  0  0  0  0  0  0  0  0  0  0  0
   12.3573  -15.5534   20.1804 C   0  0  2  0  0  0  0  0  0  0  0  0
   11.6524  -16.6075   19.4964 N   0  0  0  0  0  0  0  0  0  0  0  0
   11.6508  -15.2329   21.4368 C   0  0  0  0  0  0  0  0  0  0  0  0
   12.1507  -14.4664   22.3138 O   0  0  0  0  0  0  0  0  0  0  0  0
   12.7996  -15.5067   17.1033 C   0  0  0  0  0  0  0  0  0  0  0  0
   13.6232  -15.8422   16.0306 C   0  0  0  0  0  0  0  0  0  0  0  0
    7.1494  -12.3406   17.6798 O   0  0  0  0  0  0  0  0  0  0  0  0
    7.4180  -13.0320   18.8638 C   0  0  0  0  0  0  0  0  0  0  0  0
    7.3158  -14.4057   18.9302 C   0  0  0  0  0  0  0  0  0  0  0  0
    7.5856  -15.0599   20.1066 C   0  0  0  0  0  0  0  0  0  0  0  0
    7.9666  -14.4068   21.2698 C   0  0  0  0  0  0  0  0  0  0  0  0
    8.2246  -15.2006   22.4479 C   0  0  0  0  0  0  0  0  0  0  0  0
    9.5986  -15.4143   22.9170 C   0  0  2  0  0  0  0  0  0  0  0  0
   10.3747  -15.7804   21.7032 N   0  0  0  0  0  0  0  0  0  0  0  0
    9.8143  -16.5039   23.8881 C   0  0  0  0  0  0  0  0  0  0  0  0
    9.0777  -16.5884   24.9368 O   0  0  0  0  0  0  0  0  0  0  0  0
    8.0677  -13.0315   21.1989 C   0  0  0  0  0  0  0  0  0  0  0  0
    7.7963  -12.3787   20.0173 C   0  0  0  0  0  0  0  0  0  0  0  0
   10.7960  -17.5249   23.7836 N   0  0  0  0  0  0  0  0  0  0  0  0
   10.9129  -18.5512   24.7805 C   0  0  1  0  0  0  0  0  0  0  0  0
   10.2062  -19.8278   24.3914 C   0  0  0  0  0  0  0  0  0  0  0  0
   10.3932  -20.9030   25.3805 C   0  0  0  0  0  0  0  0  0  0  0  0
   10.9788  -20.7711   26.4855 O   0  0  0  0  0  0  0  0  0  0  0  0
   12.3263  -18.9060   25.0287 C   0  0  0  0  0  0  0  0  0  0  0  0
   12.7329  -19.7258   25.8813 O   0  0  0  0  0  0  0  0  0  0  0  0
    9.8865  -22.1584   25.0744 O   0  0  0  0  0  0  0  0  0  0  0  0
   13.3247  -18.2867   24.2571 O   0  0  0  0  0  0  0  0  0  0  0  0
  2  3  2  0
  2  1  1  0
  4  3  1  0
  5  4  2  0
  6  7  1  0
  6  5  1  0
  7  9  1  0
  7  8  1  6
  9 10  2  0
 11  5  1  0
 11 12  2  0
 12  2  1  0
 13 14  1  0
 14 24  2  0
 15 14  1  0
 15 16  2  0
 16 17  1  0
 17 23  2  0
 17 18  1  0
 19 18  1  6
 20 19  1  0
 20  9  1  0
 21 19  1  0
 22 21  2  0
 24 23  1  0
 25 21  1  0
 26 25  1  0
 26 27  1  6
 28 32  1  0
 28 27  1  0
 29 28  2  0
 30 26  1  0
 30 33  1  0
 31 30  2  0
M  END
$$$$
