YYD.pdb
     RDKit          3D

 33 34  0  0  1  0  0  0  0  0999 V2000
    6.7059  -14.5434   14.9823 O   0  0  0  0  0  0  0  0  0  0  0  0
    7.6092  -14.5774   16.0451 C   0  0  0  0  0  0  0  0  0  0  0  0
    8.4221  -15.6766   16.2582 C   0  0  0  0  0  0  0  0  0  0  0  0
    9.3138  -15.6701   17.3353 C   0  0  0  0  0  0  0  0  0  0  0  0
    9.4039  -14.6098   18.1812 C   0  0  0  0  0  0  0  0  0  0  0  0
   10.3628  -14.6445   19.3105 C   0  0  0  0  0  0  0  0  0  0  0  0
    9.9619  -15.7688   20.2367 C   0  0  2  0  0  0  0  0  0  0  0  0
    8.6436  -16.2345   19.8887 N   0  0  0  0  0  0  0  0  0  0  0  0
    9.9721  -15.3550   21.6540 C   0  0  0  0  0  0  0  0  0  0  0  0
   11.0174  -14.9146   22.2194 O   0  0  0  0  0  0  0  0  0  0  0  0
    8.6047  -13.5091   17.9857 C   0  0  0  0  0  0  0  0  0  0  0  0
    7.7162  -13.5157   16.9124 C   0  0  0  0  0  0  0  0  0  0  0  0
    6.1389  -11.6431   28.8247 O   0  0  0  0  0  0  0  0  0  0  0  0
    6.5099  -12.2342   27.6142 C   0  0  0  0  0  0  0  0  0  0  0  0
    7.4002  -11.6186   26.7596 C   0  0  0  0  0  0  0  0  0  0  0  0
    7.7474  -12.2217   25.5763 C   0  0  0  0  0  0  0  0  0  0  0  0
    7.2440  -13.4499   25.1724 C   0  0  0  0  0  0  0  0  0  0  0  0
    7.6821  -13.9865   23.9056 C   0  0  0  0  0  0  0  0  0  0  0  0
    8.7572  -14.9839   23.8499 C   0  0  2  0  0  0  0  0  0  0  0  0
    8.7966  -15.4392   22.4355 N   0  0  0  0  0  0  0  0  0  0  0  0
    8.5883  -16.1991   24.6694 C   0  0  0  0  0  0  0  0  0  0  0  0
    7.8581  -17.1667   24.2451 O   0  0  0  0  0  0  0  0  0  0  0  0
    6.3531  -14.0627   26.0311 C   0  0  0  0  0  0  0  0  0  0  0  0
    6.0071  -13.4548   27.2171 C   0  0  0  0  0  0  0  0  0  0  0  0
    9.1778  -16.4299   25.9408 N   0  0  0  0  0  0  0  0  0  0  0  0
    9.4481  -17.7606   26.4064 C   0  0  1  0  0  0  0  0  0  0  0  0
   10.2320  -18.5810   25.4099 C   0  0  0  0  0  0  0  0  0  0  0  0
   10.5137  -19.9431   25.8943 C   0  0  0  0  0  0  0  0  0  0  0  0
   10.1336  -20.4075   26.9993 O   0  0  0  0  0  0  0  0  0  0  0  0
   10.2343  -17.7466   27.6581 C   0  0  0  0  0  0  0  0  0  0  0  0
   11.0542  -16.8636   27.9938 O   0  0  0  0  0  0  0  0  0  0  0  0
   11.2543  -20.7813   25.0724 O   0  0  0  0  0  0  0  0  0  0  0  0
   10.0702  -18.8020   28.5718 O   0  0  0  0  0  0  0  0  0  0  0  0
  2  3  2  0
  2  1  1  0
  4  3  1  0
  5  4  2  0
  6  7  1  0
  6  5  1  0
  7  9  1  0
  7  8  1  6
  9 10  2  0
 11  5  1  0
 11 12  2  0
 12  2  1  0
 13 14  1  0
 14 24  2  0
 15 14  1  0
 15 16  2  0
 16 17  1  0
 17 23  2  0
 17 18  1  0
 19 18  1  6
 20 19  1  0
 20  9  1  0
 21 19  1  0
 22 21  2  0
 24 23  1  0
 25 21  1  0
 26 25  1  0
 26 27  1  6
 28 32  1  0
 28 27  1  0
 29 28  2  0
 30 26  1  0
 30 33  1  0
 31 30  2  0
M  END
$$$$
