YYD.pdb
     RDKit          3D

 33 34  0  0  1  0  0  0  0  0999 V2000
    6.4046  -15.3542   15.2590 O   0  0  0  0  0  0  0  0  0  0  0  0
    7.3624  -15.1514   16.2530 C   0  0  0  0  0  0  0  0  0  0  0  0
    7.2616  -14.0929   17.1384 C   0  0  0  0  0  0  0  0  0  0  0  0
    8.2433  -13.9256   18.1201 C   0  0  0  0  0  0  0  0  0  0  0  0
    9.2972  -14.7774   18.2282 C   0  0  0  0  0  0  0  0  0  0  0  0
   10.3154  -14.5634   19.2835 C   0  0  0  0  0  0  0  0  0  0  0  0
   10.1043  -15.6009   20.3613 C   0  0  2  0  0  0  0  0  0  0  0  0
    8.8402  -16.2609   20.1555 N   0  0  0  0  0  0  0  0  0  0  0  0
   10.1297  -15.0124   21.7153 C   0  0  0  0  0  0  0  0  0  0  0  0
   11.1598  -14.4397   22.1814 O   0  0  0  0  0  0  0  0  0  0  0  0
    9.4145  -15.8344   17.3580 C   0  0  0  0  0  0  0  0  0  0  0  0
    8.4361  -16.0010   16.3798 C   0  0  0  0  0  0  0  0  0  0  0  0
    5.9701  -11.4470   28.8760 O   0  0  0  0  0  0  0  0  0  0  0  0
    6.3865  -12.0285   27.6756 C   0  0  0  0  0  0  0  0  0  0  0  0
    6.0524  -13.3276   27.3552 C   0  0  0  0  0  0  0  0  0  0  0  0
    6.4748  -13.8741   26.1688 C   0  0  0  0  0  0  0  0  0  0  0  0
    7.2406  -13.1812   25.2423 C   0  0  0  0  0  0  0  0  0  0  0  0
    7.6265  -13.8601   24.0279 C   0  0  0  0  0  0  0  0  0  0  0  0
    8.9628  -14.4525   23.8971 C   0  0  2  0  0  0  0  0  0  0  0  0
    8.9868  -15.0711   22.5458 N   0  0  0  0  0  0  0  0  0  0  0  0
    9.3177  -15.5240   24.8472 C   0  0  0  0  0  0  0  0  0  0  0  0
    9.3320  -15.2882   26.1096 O   0  0  0  0  0  0  0  0  0  0  0  0
    7.5727  -11.8809   25.5672 C   0  0  0  0  0  0  0  0  0  0  0  0
    7.1473  -11.3360   26.7580 C   0  0  0  0  0  0  0  0  0  0  0  0
    9.6599  -16.8585   24.5013 N   0  0  0  0  0  0  0  0  0  0  0  0
    9.9401  -17.8411   25.5096 C   0  0  1  0  0  0  0  0  0  0  0  0
    9.0382  -19.0487   25.4161 C   0  0  0  0  0  0  0  0  0  0  0  0
    9.4020  -20.1034   26.3777 C   0  0  0  0  0  0  0  0  0  0  0  0
    9.6697  -19.9104   27.5911 O   0  0  0  0  0  0  0  0  0  0  0  0
   11.3286  -18.3384   25.4093 C   0  0  0  0  0  0  0  0  0  0  0  0
   11.8719  -19.1458   26.1951 O   0  0  0  0  0  0  0  0  0  0  0  0
    9.4548  -21.4107   25.9142 O   0  0  0  0  0  0  0  0  0  0  0  0
   12.1350  -17.8845   24.3512 O   0  0  0  0  0  0  0  0  0  0  0  0
  2  3  2  0
  2  1  1  0
  4  3  1  0
  5  4  2  0
  6  7  1  0
  6  5  1  0
  7  9  1  0
  7  8  1  6
  9 10  2  0
 11  5  1  0
 11 12  2  0
 12  2  1  0
 13 14  1  0
 14 24  2  0
 15 14  1  0
 15 16  2  0
 16 17  1  0
 17 23  2  0
 17 18  1  0
 19 18  1  1
 20 19  1  0
 20  9  1  0
 21 19  1  0
 22 21  2  0
 24 23  1  0
 25 21  1  0
 26 25  1  0
 26 27  1  6
 28 32  1  0
 28 27  1  0
 29 28  2  0
 30 26  1  0
 30 33  1  0
 31 30  2  0
M  END
$$$$
