YYD.pdb
     RDKit          3D

 33 34  0  0  1  0  0  0  0  0999 V2000
    6.8663  -13.5464   16.0887 O   0  0  0  0  0  0  0  0  0  0  0  0
    7.0722  -13.8074   17.4437 C   0  0  0  0  0  0  0  0  0  0  0  0
    6.6504  -14.9946   18.0159 C   0  0  0  0  0  0  0  0  0  0  0  0
    6.8765  -15.2165   19.3778 C   0  0  0  0  0  0  0  0  0  0  0  0
    7.5013  -14.2946   20.1573 C   0  0  0  0  0  0  0  0  0  0  0  0
    7.7207  -14.5703   21.5967 C   0  0  0  0  0  0  0  0  0  0  0  0
    9.0241  -15.3208   21.7408 C   0  0  2  0  0  0  0  0  0  0  0  0
    8.9289  -16.5886   21.0630 N   0  0  0  0  0  0  0  0  0  0  0  0
    9.3817  -15.5520   23.1546 C   0  0  0  0  0  0  0  0  0  0  0  0
    8.7600  -16.3858   23.8788 O   0  0  0  0  0  0  0  0  0  0  0  0
    7.9274  -13.1096   19.6071 C   0  0  0  0  0  0  0  0  0  0  0  0
    7.7020  -12.8886   18.2499 C   0  0  0  0  0  0  0  0  0  0  0  0
   10.0089  -16.0420   31.5395 O   0  0  0  0  0  0  0  0  0  0  0  0
    9.9397  -15.7763   30.1696 C   0  0  0  0  0  0  0  0  0  0  0  0
    9.6626  -16.7746   29.2593 C   0  0  0  0  0  0  0  0  0  0  0  0
    9.6005  -16.4856   27.9187 C   0  0  0  0  0  0  0  0  0  0  0  0
    9.8052  -15.2133   27.4048 C   0  0  0  0  0  0  0  0  0  0  0  0
    9.7146  -15.0292   25.9756 C   0  0  0  0  0  0  0  0  0  0  0  0
   10.9122  -15.1302   25.1333 C   0  0  2  0  0  0  0  0  0  0  0  0
   10.4459  -14.8382   23.7524 N   0  0  0  0  0  0  0  0  0  0  0  0
   11.5813  -16.4438   25.0731 C   0  0  0  0  0  0  0  0  0  0  0  0
   12.2117  -16.8941   26.0975 O   0  0  0  0  0  0  0  0  0  0  0  0
   10.0822  -14.2169   28.3196 C   0  0  0  0  0  0  0  0  0  0  0  0
   10.1437  -14.5103   29.6635 C   0  0  0  0  0  0  0  0  0  0  0  0
   11.6033  -17.3120   23.9492 N   0  0  0  0  0  0  0  0  0  0  0  0
   12.3041  -18.5641   23.9885 C   0  0  1  0  0  0  0  0  0  0  0  0
   11.6807  -19.6115   23.0968 C   0  0  0  0  0  0  0  0  0  0  0  0
   10.4843  -20.2267   23.6963 C   0  0  0  0  0  0  0  0  0  0  0  0
   10.0842  -20.0273   24.8717 O   0  0  0  0  0  0  0  0  0  0  0  0
   13.7076  -18.4126   23.5497 C   0  0  0  0  0  0  0  0  0  0  0  0
   14.2435  -17.3455   23.1776 O   0  0  0  0  0  0  0  0  0  0  0  0
    9.7389  -21.0928   22.9084 O   0  0  0  0  0  0  0  0  0  0  0  0
   14.5387  -19.5461   23.5378 O   0  0  0  0  0  0  0  0  0  0  0  0
  2  3  2  0
  2  1  1  0
  4  3  1  0
  5  4  2  0
  6  7  1  0
  6  5  1  0
  7  9  1  0
  7  8  1  6
  9 10  2  0
 11  5  1  0
 11 12  2  0
 12  2  1  0
 13 14  1  0
 14 24  2  0
 15 14  1  0
 15 16  2  0
 16 17  1  0
 17 23  2  0
 17 18  1  0
 19 18  1  1
 20 19  1  0
 20  9  1  0
 21 19  1  0
 22 21  2  0
 24 23  1  0
 25 21  1  0
 26 25  1  0
 26 27  1  6
 28 32  1  0
 28 27  1  0
 29 28  2  0
 30 26  1  0
 30 33  1  0
 31 30  2  0
M  END
$$$$
