YYD.pdb
     RDKit          3D

 33 34  0  0  1  0  0  0  0  0999 V2000
    6.1406  -13.6724   17.2150 O   0  0  0  0  0  0  0  0  0  0  0  0
    7.3137  -14.1477   17.8019 C   0  0  0  0  0  0  0  0  0  0  0  0
    8.0228  -13.3789   18.7079 C   0  0  0  0  0  0  0  0  0  0  0  0
    9.1940  -13.8931   19.2731 C   0  0  0  0  0  0  0  0  0  0  0  0
    9.6560  -15.1314   18.9556 C   0  0  0  0  0  0  0  0  0  0  0  0
   10.9019  -15.6377   19.5781 C   0  0  0  0  0  0  0  0  0  0  0  0
   10.5241  -16.4802   20.7740 C   0  0  2  0  0  0  0  0  0  0  0  0
    9.2684  -17.1404   20.5225 N   0  0  0  0  0  0  0  0  0  0  0  0
   10.4121  -15.6782   22.0088 C   0  0  0  0  0  0  0  0  0  0  0  0
   11.3908  -15.0235   22.4776 O   0  0  0  0  0  0  0  0  0  0  0  0
    8.9654  -15.9097   18.0578 C   0  0  0  0  0  0  0  0  0  0  0  0
    7.7984  -15.3973   17.4947 C   0  0  0  0  0  0  0  0  0  0  0  0
    5.6710  -10.9980   28.0513 O   0  0  0  0  0  0  0  0  0  0  0  0
    6.1479  -11.8300   27.0352 C   0  0  0  0  0  0  0  0  0  0  0  0
    6.9497  -11.3404   26.0256 C   0  0  0  0  0  0  0  0  0  0  0  0
    7.4045  -12.1802   25.0394 C   0  0  0  0  0  0  0  0  0  0  0  0
    7.0992  -13.5327   24.9919 C   0  0  0  0  0  0  0  0  0  0  0  0
    7.6351  -14.3180   23.9053 C   0  0  0  0  0  0  0  0  0  0  0  0
    9.0273  -14.7813   23.9358 C   0  0  2  0  0  0  0  0  0  0  0  0
    9.1895  -15.6158   22.7164 N   0  0  0  0  0  0  0  0  0  0  0  0
    9.4266  -15.6319   25.0732 C   0  0  0  0  0  0  0  0  0  0  0  0
    9.2177  -15.2381   26.2777 O   0  0  0  0  0  0  0  0  0  0  0  0
    6.2961  -14.0187   26.0046 C   0  0  0  0  0  0  0  0  0  0  0  0
    5.8419  -13.1735   26.9921 C   0  0  0  0  0  0  0  0  0  0  0  0
   10.0460  -16.9065   24.9777 N   0  0  0  0  0  0  0  0  0  0  0  0
   10.2950  -17.7035   26.1453 C   0  0  1  0  0  0  0  0  0  0  0  0
    9.0582  -18.4119   26.6445 C   0  0  0  0  0  0  0  0  0  0  0  0
    9.3087  -19.1967   27.8654 C   0  0  0  0  0  0  0  0  0  0  0  0
   10.2098  -18.9508   28.7074 O   0  0  0  0  0  0  0  0  0  0  0  0
   11.3065  -18.7486   25.8815 C   0  0  0  0  0  0  0  0  0  0  0  0
   11.7550  -19.5577   26.7234 O   0  0  0  0  0  0  0  0  0  0  0  0
    8.4910  -20.2914   28.1095 O   0  0  0  0  0  0  0  0  0  0  0  0
   11.8303  -18.8706   24.5829 O   0  0  0  0  0  0  0  0  0  0  0  0
  2  3  2  0
  2  1  1  0
  4  3  1  0
  5  4  2  0
  6  7  1  0
  6  5  1  0
  7  9  1  0
  7  8  1  6
  9 10  2  0
 11  5  1  0
 11 12  2  0
 12  2  1  0
 13 14  1  0
 14 24  2  0
 15 14  1  0
 15 16  2  0
 16 17  1  0
 17 23  2  0
 17 18  1  0
 19 18  1  1
 20 19  1  0
 20  9  1  0
 21 19  1  0
 22 21  2  0
 24 23  1  0
 25 21  1  0
 26 25  1  0
 26 27  1  6
 28 32  1  0
 28 27  1  0
 29 28  2  0
 30 26  1  0
 30 33  1  0
 31 30  2  0
M  END
$$$$
