YYD.pdb
     RDKit          3D

 33 34  0  0  1  0  0  0  0  0999 V2000
    7.4378  -14.0374   15.5112 O   0  0  0  0  0  0  0  0  0  0  0  0
    7.7764  -13.9438   16.8614 C   0  0  0  0  0  0  0  0  0  0  0  0
    7.5314  -12.7882   17.5820 C   0  0  0  0  0  0  0  0  0  0  0  0
    7.8863  -12.7361   18.9336 C   0  0  0  0  0  0  0  0  0  0  0  0
    8.4671  -13.7931   19.5605 C   0  0  0  0  0  0  0  0  0  0  0  0
    8.8273  -13.6953   20.9947 C   0  0  0  0  0  0  0  0  0  0  0  0
    9.1416  -15.0844   21.4989 C   0  0  2  0  0  0  0  0  0  0  0  0
    7.9963  -15.9377   21.3093 N   0  0  0  0  0  0  0  0  0  0  0  0
    9.5185  -15.0881   22.9265 C   0  0  0  0  0  0  0  0  0  0  0  0
   10.5389  -14.4704   23.3551 O   0  0  0  0  0  0  0  0  0  0  0  0
    8.7183  -14.9493   18.8615 C   0  0  0  0  0  0  0  0  0  0  0  0
    8.3647  -15.0012   17.5146 C   0  0  0  0  0  0  0  0  0  0  0  0
    5.8284  -10.4084   27.1085 O   0  0  0  0  0  0  0  0  0  0  0  0
    6.2885  -11.6973   26.8268 C   0  0  0  0  0  0  0  0  0  0  0  0
    7.5510  -12.1054   27.2028 C   0  0  0  0  0  0  0  0  0  0  0  0
    7.9778  -13.3777   26.9133 C   0  0  0  0  0  0  0  0  0  0  0  0
    7.1954  -14.3086   26.2455 C   0  0  0  0  0  0  0  0  0  0  0  0
    7.7513  -15.6176   25.9962 C   0  0  0  0  0  0  0  0  0  0  0  0
    9.0494  -15.7615   25.3269 C   0  0  2  0  0  0  0  0  0  0  0  0
    8.7396  -15.7924   23.8734 N   0  0  0  0  0  0  0  0  0  0  0  0
    9.8182  -16.9884   25.6104 C   0  0  0  0  0  0  0  0  0  0  0  0
    9.9801  -17.3826   26.8220 O   0  0  0  0  0  0  0  0  0  0  0  0
    5.9321  -13.8959   25.8708 C   0  0  0  0  0  0  0  0  0  0  0  0
    5.5074  -12.6191   26.1629 C   0  0  0  0  0  0  0  0  0  0  0  0
   10.4279  -17.8272   24.6399 N   0  0  0  0  0  0  0  0  0  0  0  0
   11.1251  -19.0229   25.0208 C   0  0  1  0  0  0  0  0  0  0  0  0
   11.0439  -20.1065   23.9721 C   0  0  0  0  0  0  0  0  0  0  0  0
   11.8123  -21.3084   24.3387 C   0  0  0  0  0  0  0  0  0  0  0  0
   11.8988  -21.7812   25.5007 O   0  0  0  0  0  0  0  0  0  0  0  0
   12.5616  -18.7613   25.2518 C   0  0  0  0  0  0  0  0  0  0  0  0
   13.2312  -17.8494   24.7182 O   0  0  0  0  0  0  0  0  0  0  0  0
   12.4940  -21.9729   23.3286 O   0  0  0  0  0  0  0  0  0  0  0  0
   13.2656  -19.5904   26.1421 O   0  0  0  0  0  0  0  0  0  0  0  0
  2  3  2  0
  2  1  1  0
  4  3  1  0
  5  4  2  0
  6  7  1  0
  6  5  1  0
  7  9  1  0
  7  8  1  1
  9 10  2  0
 11  5  1  0
 11 12  2  0
 12  2  1  0
 13 14  1  0
 14 24  2  0
 15 14  1  0
 15 16  2  0
 16 17  1  0
 17 23  2  0
 17 18  1  0
 19 18  1  1
 20 19  1  0
 20  9  1  0
 21 19  1  0
 22 21  2  0
 24 23  1  0
 25 21  1  0
 26 25  1  0
 26 27  1  6
 28 32  1  0
 28 27  1  0
 29 28  2  0
 30 26  1  0
 30 33  1  0
 31 30  2  0
M  END
$$$$
