YYD.pdb
     RDKit          3D

 33 34  0  0  1  0  0  0  0  0999 V2000
    7.7778  -13.6989   14.4736 O   0  0  0  0  0  0  0  0  0  0  0  0
    7.8331  -14.1755   15.7837 C   0  0  0  0  0  0  0  0  0  0  0  0
    7.9839  -13.3112   16.8537 C   0  0  0  0  0  0  0  0  0  0  0  0
    8.0347  -13.8303   18.1511 C   0  0  0  0  0  0  0  0  0  0  0  0
    7.9396  -15.1651   18.3903 C   0  0  0  0  0  0  0  0  0  0  0  0
    7.9981  -15.6729   19.7812 C   0  0  0  0  0  0  0  0  0  0  0  0
    9.3858  -15.4155   20.3204 C   0  0  2  0  0  0  0  0  0  0  0  0
   10.3604  -16.0450   19.4662 N   0  0  0  0  0  0  0  0  0  0  0  0
    9.5514  -15.9185   21.6987 C   0  0  0  0  0  0  0  0  0  0  0  0
   10.6170  -16.4855   22.0851 O   0  0  0  0  0  0  0  0  0  0  0  0
    7.7894  -16.0391   17.3405 C   0  0  0  0  0  0  0  0  0  0  0  0
    7.7388  -15.5217   16.0476 C   0  0  0  0  0  0  0  0  0  0  0  0
    6.5968  -11.3074   28.7894 O   0  0  0  0  0  0  0  0  0  0  0  0
    6.8159  -11.9843   27.5868 C   0  0  0  0  0  0  0  0  0  0  0  0
    7.7600  -12.9848   27.4896 C   0  0  0  0  0  0  0  0  0  0  0  0
    7.9548  -13.6336   26.2956 C   0  0  0  0  0  0  0  0  0  0  0  0
    7.2399  -13.3378   25.1440 C   0  0  0  0  0  0  0  0  0  0  0  0
    7.5318  -14.0875   23.9451 C   0  0  0  0  0  0  0  0  0  0  0  0
    8.6806  -14.9995   23.8970 C   0  0  2  0  0  0  0  0  0  0  0  0
    8.5089  -15.7805   22.6439 N   0  0  0  0  0  0  0  0  0  0  0  0
    8.7984  -15.9882   24.9858 C   0  0  0  0  0  0  0  0  0  0  0  0
    8.8214  -15.6001   26.2098 O   0  0  0  0  0  0  0  0  0  0  0  0
    6.2957  -12.3355   25.2458 C   0  0  0  0  0  0  0  0  0  0  0  0
    6.1030  -11.6869   26.4450 C   0  0  0  0  0  0  0  0  0  0  0  0
    8.8906  -17.3959   24.8206 N   0  0  0  0  0  0  0  0  0  0  0  0
    9.9795  -18.1426   25.3841 C   0  0  1  0  0  0  0  0  0  0  0  0
   11.3054  -17.8227   24.7358 C   0  0  0  0  0  0  0  0  0  0  0  0
   12.4216  -18.5828   25.3238 C   0  0  0  0  0  0  0  0  0  0  0  0
   12.3180  -19.3863   26.2856 O   0  0  0  0  0  0  0  0  0  0  0  0
   10.1345  -17.8670   26.8281 C   0  0  0  0  0  0  0  0  0  0  0  0
    9.7095  -16.8541   27.4264 O   0  0  0  0  0  0  0  0  0  0  0  0
   13.6851  -18.4020   24.7786 O   0  0  0  0  0  0  0  0  0  0  0  0
   10.8132  -18.8038   27.6265 O   0  0  0  0  0  0  0  0  0  0  0  0
  2  3  2  0
  2  1  1  0
  4  3  1  0
  5  4  2  0
  6  7  1  0
  6  5  1  0
  7  9  1  0
  7  8  1  6
  9 10  2  0
 11  5  1  0
 11 12  2  0
 12  2  1  0
 13 14  1  0
 14 24  2  0
 15 14  1  0
 15 16  2  0
 16 17  1  0
 17 23  2  0
 17 18  1  0
 19 18  1  1
 20 19  1  0
 20  9  1  0
 21 19  1  0
 22 21  2  0
 24 23  1  0
 25 21  1  0
 26 25  1  0
 26 27  1  6
 28 32  1  0
 28 27  1  0
 29 28  2  0
 30 26  1  0
 30 33  1  0
 31 30  2  0
M  END
$$$$
