YYD.pdb
     RDKit          3D

 33 34  0  0  1  0  0  0  0  0999 V2000
    9.2670  -22.8917   11.9134 O   0  0  0  0  0  0  0  0  0  0  0  0
   10.5846  -22.5583   12.2286 C   0  0  0  0  0  0  0  0  0  0  0  0
   11.5309  -22.3668   11.2375 C   0  0  0  0  0  0  0  0  0  0  0  0
   12.8406  -22.0335   11.5966 C   0  0  0  0  0  0  0  0  0  0  0  0
   13.2103  -21.8921   12.8971 C   0  0  0  0  0  0  0  0  0  0  0  0
   14.6094  -21.5379   13.2336 C   0  0  0  0  0  0  0  0  0  0  0  0
   14.6452  -20.0813   13.6330 C   0  0  2  0  0  0  0  0  0  0  0  0
   14.2477  -19.2639   12.5151 N   0  0  0  0  0  0  0  0  0  0  0  0
   15.9847  -19.6605   14.0900 C   0  0  0  0  0  0  0  0  0  0  0  0
   16.9055  -19.3468   13.2776 O   0  0  0  0  0  0  0  0  0  0  0  0
   12.2845  -22.0783   13.8954 C   0  0  0  0  0  0  0  0  0  0  0  0
   10.9794  -22.4104   13.5375 C   0  0  0  0  0  0  0  0  0  0  0  0
   20.7913  -17.1397   10.5785 O   0  0  0  0  0  0  0  0  0  0  0  0
   20.0875  -17.3378   11.7691 C   0  0  0  0  0  0  0  0  0  0  0  0
   19.0289  -16.5261   12.1191 C   0  0  0  0  0  0  0  0  0  0  0  0
   18.3547  -16.7431   13.2950 C   0  0  0  0  0  0  0  0  0  0  0  0
   18.6805  -17.7590   14.1820 C   0  0  0  0  0  0  0  0  0  0  0  0
   17.8994  -17.8909   15.3891 C   0  0  0  0  0  0  0  0  0  0  0  0
   17.6342  -19.2145   15.9650 C   0  0  2  0  0  0  0  0  0  0  0  0
   16.2849  -19.5940   15.4701 N   0  0  0  0  0  0  0  0  0  0  0  0
   17.5744  -19.3063   17.4363 C   0  0  0  0  0  0  0  0  0  0  0  0
   18.6352  -19.1260   18.1375 O   0  0  0  0  0  0  0  0  0  0  0  0
   19.7409  -18.5693   13.8277 C   0  0  0  0  0  0  0  0  0  0  0  0
   20.4149  -18.3486   12.6475 C   0  0  0  0  0  0  0  0  0  0  0  0
   16.4112  -19.5834   18.2027 N   0  0  0  0  0  0  0  0  0  0  0  0
   16.4751  -19.7241   19.6299 C   0  0  1  0  0  0  0  0  0  0  0  0
   15.4047  -20.6389   20.1760 C   0  0  0  0  0  0  0  0  0  0  0  0
   14.1456  -19.9302   20.4619 C   0  0  0  0  0  0  0  0  0  0  0  0
   13.0046  -20.3141   20.0987 O   0  0  0  0  0  0  0  0  0  0  0  0
   17.7736  -20.2841   20.0607 C   0  0  0  0  0  0  0  0  0  0  0  0
   18.6490  -20.7596   19.3044 O   0  0  0  0  0  0  0  0  0  0  0  0
   14.2189  -18.7489   21.1869 O   0  0  0  0  0  0  0  0  0  0  0  0
   18.0825  -20.2986   21.4319 O   0  0  0  0  0  0  0  0  0  0  0  0
  2  3  2  0
  2  1  1  0
  4  3  1  0
  5  4  2  0
  6  7  1  0
  6  5  1  0
  7  9  1  0
  7  8  1  6
  9 10  2  0
 11  5  1  0
 11 12  2  0
 12  2  1  0
 13 14  1  0
 14 24  2  0
 15 14  1  0
 15 16  2  0
 16 17  1  0
 17 23  2  0
 17 18  1  0
 19 18  1  1
 20 19  1  0
 20  9  1  0
 21 19  1  0
 22 21  2  0
 24 23  1  0
 25 21  1  0
 26 25  1  0
 26 27  1  6
 28 32  1  0
 28 27  1  0
 29 28  2  0
 30 26  1  0
 30 33  1  0
 31 30  2  0
M  END
$$$$
