TGH.pdb
     RDKit          3D

 22 22  0  0  1  0  0  0  0  0999 V2000
   24.1080  -13.2579  -19.8269 C   0  0  0  0  0  0  0  0  0  0  0  0
   25.4624  -13.7224  -19.3975 C   0  0  1  0  0  0  0  0  0  0  0  0
   26.2127  -14.0130  -20.5375 O   0  0  0  0  0  0  0  0  0  0  0  0
   26.2241  -12.6714  -18.6169 C   0  0  2  0  0  0  0  0  0  0  0  0
   27.5597  -13.1407  -18.4256 N   0  0  0  0  0  0  0  0  0  0  0  0
   25.6025  -12.3568  -17.3331 C   0  0  0  0  0  0  0  0  0  0  0  0
   25.9868  -12.8759  -16.2569 O   0  0  0  0  0  0  0  0  0  0  0  0
   24.5222  -11.4318  -17.2809 N   0  0  0  0  0  0  0  0  0  0  0  0
   23.8131  -11.1427  -16.0566 C   0  0  0  0  0  0  0  0  0  0  0  0
   22.8485  -10.0464  -16.3204 C   0  0  0  0  0  0  0  0  0  0  0  0
   22.7647   -9.5023  -17.4514 O   0  0  0  0  0  0  0  0  0  0  0  0
   21.9827   -9.5695  -15.3056 N   0  0  0  0  0  0  0  0  0  0  0  0
   21.0013   -8.5703  -15.6072 C   0  0  1  0  0  0  0  0  0  0  0  0
   19.6680   -8.8594  -14.9692 C   0  0  0  0  0  0  0  0  0  0  0  0
   19.1482  -10.1946  -15.3381 C   0  0  0  0  0  0  0  0  0  0  0  0
   18.8744  -10.7148  -16.5981 C   0  0  0  0  0  0  0  0  0  0  0  0
   18.4055  -11.9653  -16.4511 N   0  0  0  0  0  0  0  0  0  0  0  0
   18.3671  -12.2675  -15.1580 C   0  0  0  0  0  0  0  0  0  0  0  0
   18.8100  -11.2115  -14.4941 N   0  0  0  0  0  0  0  0  0  0  0  0
   21.5106   -7.1963  -15.3012 C   0  0  0  0  0  0  0  0  0  0  0  0
   22.5790   -6.9630  -14.6915 O   0  0  0  0  0  0  0  0  0  0  0  0
   20.7857   -6.0616  -15.6989 O   0  0  0  0  0  0  0  0  0  0  0  0
  2  4  1  0
  2  1  1  6
  2  3  1  0
  4  5  1  1
  6  4  1  0
  6  8  1  0
  7  6  2  0
  9  8  1  0
  9 10  1  0
 10 12  1  0
 10 11  2  0
 12 13  1  0
 13 14  1  1
 14 15  1  0
 15 16  2  0
 16 17  1  0
 18 17  1  0
 19 15  1  0
 19 18  2  0
 20 13  1  0
 20 22  1  0
 21 20  2  0
M  END
$$$$
