TGH.pdb
     RDKit          3D

 22 22  0  0  1  0  0  0  0  0999 V2000
   23.0297  -14.1980  -18.3377 C   0  0  0  0  0  0  0  0  0  0  0  0
   23.4936  -15.4259  -17.6224 C   0  0  1  0  0  0  0  0  0  0  0  0
   23.9435  -16.3464  -18.5697 O   0  0  0  0  0  0  0  0  0  0  0  0
   24.6470  -15.1559  -16.6785 C   0  0  2  0  0  0  0  0  0  0  0  0
   25.1605  -16.4124  -16.2332 N   0  0  0  0  0  0  0  0  0  0  0  0
   24.2653  -14.3254  -15.5392 C   0  0  0  0  0  0  0  0  0  0  0  0
   23.6770  -14.7946  -14.5346 O   0  0  0  0  0  0  0  0  0  0  0  0
   24.5624  -12.9337  -15.5506 N   0  0  0  0  0  0  0  0  0  0  0  0
   24.0801  -12.0339  -14.5293 C   0  0  0  0  0  0  0  0  0  0  0  0
   23.1277  -11.0824  -15.1534 C   0  0  0  0  0  0  0  0  0  0  0  0
   22.9669  -11.0356  -16.4001 O   0  0  0  0  0  0  0  0  0  0  0  0
   22.3610  -10.1878  -14.3667 N   0  0  0  0  0  0  0  0  0  0  0  0
   21.3929   -9.3325  -14.9860 C   0  0  1  0  0  0  0  0  0  0  0  0
   19.9783   -9.7135  -14.6365 C   0  0  0  0  0  0  0  0  0  0  0  0
   19.6220  -11.0607  -15.1334 C   0  0  0  0  0  0  0  0  0  0  0  0
   19.4842  -11.5075  -16.4428 C   0  0  0  0  0  0  0  0  0  0  0  0
   19.1364  -12.8051  -16.4168 N   0  0  0  0  0  0  0  0  0  0  0  0
   19.0459  -13.2071  -15.1539 C   0  0  0  0  0  0  0  0  0  0  0  0
   19.3354  -12.1669  -14.3883 N   0  0  0  0  0  0  0  0  0  0  0  0
   21.6923   -7.8897  -14.7223 C   0  0  0  0  0  0  0  0  0  0  0  0
   22.5207   -7.4881  -13.8736 O   0  0  0  0  0  0  0  0  0  0  0  0
   21.0325   -6.8807  -15.4420 O   0  0  0  0  0  0  0  0  0  0  0  0
  2  4  1  0
  2  1  1  6
  2  3  1  0
  4  5  1  1
  6  4  1  0
  6  8  1  0
  7  6  2  0
  9  8  1  0
  9 10  1  0
 10 12  1  0
 10 11  2  0
 12 13  1  0
 13 14  1  1
 14 15  1  0
 15 16  2  0
 16 17  1  0
 18 17  1  0
 19 15  1  0
 19 18  2  0
 20 13  1  0
 20 22  1  0
 21 20  2  0
M  END
$$$$
