TGH.pdb
     RDKit          3D

 22 22  0  0  1  0  0  0  0  0999 V2000
   18.0850  -15.5705  -15.0803 C   0  0  0  0  0  0  0  0  0  0  0  0
   16.9439  -15.3395  -16.0179 C   0  0  1  0  0  0  0  0  0  0  0  0
   15.8353  -16.0445  -15.5478 O   0  0  0  0  0  0  0  0  0  0  0  0
   16.5419  -13.8818  -16.1065 C   0  0  2  0  0  0  0  0  0  0  0  0
   15.3560  -13.7951  -16.8983 N   0  0  0  0  0  0  0  0  0  0  0  0
   17.5939  -13.0362  -16.6647 C   0  0  0  0  0  0  0  0  0  0  0  0
   18.1601  -13.3007  -17.7532 O   0  0  0  0  0  0  0  0  0  0  0  0
   18.0047  -11.8674  -15.9642 N   0  0  0  0  0  0  0  0  0  0  0  0
   19.0076  -10.9686  -16.4853 C   0  0  0  0  0  0  0  0  0  0  0  0
   19.3989  -10.0262  -15.4079 C   0  0  0  0  0  0  0  0  0  0  0  0
   18.8010  -10.0076  -14.3015 O   0  0  0  0  0  0  0  0  0  0  0  0
   20.4639   -9.1089  -15.5851 N   0  0  0  0  0  0  0  0  0  0  0  0
   20.8194   -8.2060  -14.5311 C   0  0  1  0  0  0  0  0  0  0  0  0
   21.8974   -8.7589  -13.6363 C   0  0  0  0  0  0  0  0  0  0  0  0
   23.0804   -9.2134  -14.3996 C   0  0  0  0  0  0  0  0  0  0  0  0
   23.3247   -9.1458  -15.7667 C   0  0  0  0  0  0  0  0  0  0  0  0
   24.5271   -9.6925  -16.0131 N   0  0  0  0  0  0  0  0  0  0  0  0
   25.0612  -10.1055  -14.8690 C   0  0  0  0  0  0  0  0  0  0  0  0
   24.1986   -9.8199  -13.9066 N   0  0  0  0  0  0  0  0  0  0  0  0
   21.1430   -6.8455  -15.0650 C   0  0  0  0  0  0  0  0  0  0  0  0
   21.2814   -6.5831  -16.2814 O   0  0  0  0  0  0  0  0  0  0  0  0
   21.3130   -5.7585  -14.1928 O   0  0  0  0  0  0  0  0  0  0  0  0
  2  4  1  0
  2  1  1  1
  2  3  1  0
  4  5  1  6
  6  4  1  0
  6  8  1  0
  7  6  2  0
  9  8  1  0
  9 10  1  0
 10 12  1  0
 10 11  2  0
 12 13  1  0
 13 14  1  6
 14 15  1  0
 15 16  2  0
 16 17  1  0
 18 17  1  0
 19 15  1  0
 19 18  2  0
 20 13  1  0
 20 22  1  0
 21 20  2  0
M  END
$$$$
