TGH.pdb
     RDKit          3D

 22 22  0  0  1  0  0  0  0  0999 V2000
   26.0872  -14.1385  -19.5979 C   0  0  0  0  0  0  0  0  0  0  0  0
   25.0295  -13.4045  -20.3576 C   0  0  1  0  0  0  0  0  0  0  0  0
   24.5739  -14.2270  -21.3886 O   0  0  0  0  0  0  0  0  0  0  0  0
   23.8295  -13.0523  -19.5032 C   0  0  2  0  0  0  0  0  0  0  0  0
   22.8100  -12.5353  -20.3600 N   0  0  0  0  0  0  0  0  0  0  0  0
   24.1464  -12.0939  -18.4475 C   0  0  0  0  0  0  0  0  0  0  0  0
   24.9699  -12.3491  -17.5352 O   0  0  0  0  0  0  0  0  0  0  0  0
   23.5092  -10.8214  -18.4362 N   0  0  0  0  0  0  0  0  0  0  0  0
   23.7455   -9.8500  -17.3942 C   0  0  0  0  0  0  0  0  0  0  0  0
   22.4504   -9.2193  -17.0379 C   0  0  0  0  0  0  0  0  0  0  0  0
   21.5917   -8.9406  -17.9137 O   0  0  0  0  0  0  0  0  0  0  0  0
   22.1309   -8.9060  -15.6937 N   0  0  0  0  0  0  0  0  0  0  0  0
   20.8551   -8.3405  -15.3699 C   0  0  1  0  0  0  0  0  0  0  0  0
   20.0014   -9.2728  -14.5511 C   0  0  0  0  0  0  0  0  0  0  0  0
   19.4807  -10.4033  -15.3510 C   0  0  0  0  0  0  0  0  0  0  0  0
   19.7010  -10.7095  -16.6892 C   0  0  0  0  0  0  0  0  0  0  0  0
   19.0146  -11.8245  -16.9908 N   0  0  0  0  0  0  0  0  0  0  0  0
   18.3673  -12.2440  -15.9092 C   0  0  0  0  0  0  0  0  0  0  0  0
   18.6452  -11.3966  -14.9311 N   0  0  0  0  0  0  0  0  0  0  0  0
   21.0008   -6.9854  -14.7508 C   0  0  0  0  0  0  0  0  0  0  0  0
   22.0965   -6.4809  -14.4150 O   0  0  0  0  0  0  0  0  0  0  0  0
   19.8722   -6.1863  -14.5085 O   0  0  0  0  0  0  0  0  0  0  0  0
  2  4  1  0
  2  1  1  1
  2  3  1  0
  4  5  1  6
  6  4  1  0
  6  8  1  0
  7  6  2  0
  9  8  1  0
  9 10  1  0
 10 12  1  0
 10 11  2  0
 12 13  1  0
 13 14  1  1
 14 15  1  0
 15 16  2  0
 16 17  1  0
 18 17  1  0
 19 15  1  0
 19 18  2  0
 20 13  1  0
 20 22  1  0
 21 20  2  0
M  END
$$$$
