TGH.pdb
     RDKit          3D

 22 22  0  0  1  0  0  0  0  0999 V2000
   18.0384  -11.5967  -23.1446 C   0  0  0  0  0  0  0  0  0  0  0  0
   18.9848  -10.6461  -22.4848 C   0  0  1  0  0  0  0  0  0  0  0  0
   18.3751   -9.3931  -22.4128 O   0  0  0  0  0  0  0  0  0  0  0  0
   19.3362  -11.0542  -21.0691 C   0  0  2  0  0  0  0  0  0  0  0  0
   18.1240  -11.1450  -20.3187 N   0  0  0  0  0  0  0  0  0  0  0  0
   20.2684  -10.1309  -20.4273 C   0  0  0  0  0  0  0  0  0  0  0  0
   21.4311   -9.9424  -20.8611 O   0  0  0  0  0  0  0  0  0  0  0  0
   19.8621   -9.4110  -19.2688 N   0  0  0  0  0  0  0  0  0  0  0  0
   20.7518   -8.5178  -18.5646 C   0  0  0  0  0  0  0  0  0  0  0  0
   20.5758   -8.7326  -17.1069 C   0  0  0  0  0  0  0  0  0  0  0  0
   19.4959   -9.1694  -16.6324 O   0  0  0  0  0  0  0  0  0  0  0  0
   21.6204   -8.4532  -16.1916 N   0  0  0  0  0  0  0  0  0  0  0  0
   21.4113   -8.6281  -14.7852 C   0  0  1  0  0  0  0  0  0  0  0  0
   22.5350   -9.3819  -14.1238 C   0  0  0  0  0  0  0  0  0  0  0  0
   22.7776  -10.6962  -14.7585 C   0  0  0  0  0  0  0  0  0  0  0  0
   22.1658  -11.2622  -15.8713 C   0  0  0  0  0  0  0  0  0  0  0  0
   22.6970  -12.4789  -16.0780 N   0  0  0  0  0  0  0  0  0  0  0  0
   23.6181  -12.7159  -15.1505 C   0  0  0  0  0  0  0  0  0  0  0  0
   23.6663  -11.6528  -14.3634 N   0  0  0  0  0  0  0  0  0  0  0  0
   21.1057   -7.3257  -14.1134 C   0  0  0  0  0  0  0  0  0  0  0  0
   21.3597   -6.2039  -14.6081 O   0  0  0  0  0  0  0  0  0  0  0  0
   20.4966   -7.3006  -12.8487 O   0  0  0  0  0  0  0  0  0  0  0  0
  2  4  1  0
  2  1  1  1
  2  3  1  0
  4  5  1  1
  6  4  1  0
  6  8  1  0
  7  6  2  0
  9  8  1  0
  9 10  1  0
 10 12  1  0
 10 11  2  0
 12 13  1  0
 13 14  1  1
 14 15  1  0
 15 16  2  0
 16 17  1  0
 18 17  1  0
 19 15  1  0
 19 18  2  0
 20 13  1  0
 20 22  1  0
 21 20  2  0
M  END
$$$$
