TGH.pdb
     RDKit          3D

 22 22  0  0  1  0  0  0  0  0999 V2000
   29.7378  -12.2714  -18.3202 C   0  0  0  0  0  0  0  0  0  0  0  0
   28.5064  -12.8994  -17.7510 C   0  0  1  0  0  0  0  0  0  0  0  0
   28.7569  -14.2566  -17.5446 O   0  0  0  0  0  0  0  0  0  0  0  0
   28.1102  -12.3095  -16.4134 C   0  0  2  0  0  0  0  0  0  0  0  0
   27.1341  -13.1677  -15.8206 N   0  0  0  0  0  0  0  0  0  0  0  0
   27.5952  -10.9472  -16.5244 C   0  0  0  0  0  0  0  0  0  0  0  0
   28.3122   -9.9877  -16.8997 O   0  0  0  0  0  0  0  0  0  0  0  0
   26.2357  -10.6790  -16.2001 N   0  0  0  0  0  0  0  0  0  0  0  0
   25.6696   -9.3533  -16.2859 C   0  0  0  0  0  0  0  0  0  0  0  0
   24.2383   -9.4283  -15.9016 C   0  0  0  0  0  0  0  0  0  0  0  0
   23.5887  -10.5017  -15.9912 O   0  0  0  0  0  0  0  0  0  0  0  0
   23.5468   -8.2904  -15.4178 N   0  0  0  0  0  0  0  0  0  0  0  0
   22.1670   -8.3907  -15.0454 C   0  0  1  0  0  0  0  0  0  0  0  0
   21.9778   -9.0439  -13.7016 C   0  0  0  0  0  0  0  0  0  0  0  0
   20.5507   -9.2747  -13.3870 C   0  0  0  0  0  0  0  0  0  0  0  0
   19.4228   -8.9672  -14.1397 C   0  0  0  0  0  0  0  0  0  0  0  0
   18.3335   -9.3484  -13.4518 N   0  0  0  0  0  0  0  0  0  0  0  0
   18.7124   -9.8841  -12.2967 C   0  0  0  0  0  0  0  0  0  0  0  0
   20.0347   -9.8402  -12.2578 N   0  0  0  0  0  0  0  0  0  0  0  0
   21.4753   -7.0677  -15.1553 C   0  0  0  0  0  0  0  0  0  0  0  0
   22.0616   -5.9625  -15.1066 O   0  0  0  0  0  0  0  0  0  0  0  0
   20.0831   -7.0023  -15.3248 O   0  0  0  0  0  0  0  0  0  0  0  0
  2  4  1  0
  2  1  1  1
  2  3  1  0
  4  5  1  6
  6  4  1  0
  6  8  1  0
  7  6  2  0
  9  8  1  0
  9 10  1  0
 10 12  1  0
 10 11  2  0
 12 13  1  0
 13 14  1  1
 14 15  1  0
 15 16  2  0
 16 17  1  0
 18 17  1  0
 19 15  1  0
 19 18  2  0
 20 13  1  0
 20 22  1  0
 21 20  2  0
M  END
$$$$
