TGH.pdb
     RDKit          3D

 22 22  0  0  1  0  0  0  0  0999 V2000
   27.6258  -18.1623  -14.4707 C   0  0  0  0  0  0  0  0  0  0  0  0
   27.6897  -19.2480  -15.4963 C   0  0  1  0  0  0  0  0  0  0  0  0
   28.6943  -18.9331  -16.4121 O   0  0  0  0  0  0  0  0  0  0  0  0
   28.0335  -20.5982  -14.9023 C   0  0  2  0  0  0  0  0  0  0  0  0
   28.3148  -21.4977  -15.9760 N   0  0  0  0  0  0  0  0  0  0  0  0
   26.9720  -21.1309  -14.0521 C   0  0  0  0  0  0  0  0  0  0  0  0
   25.9714  -21.7254  -14.5219 O   0  0  0  0  0  0  0  0  0  0  0  0
   27.0580  -20.9802  -12.6395 N   0  0  0  0  0  0  0  0  0  0  0  0
   26.0161  -21.4376  -11.7504 C   0  0  0  0  0  0  0  0  0  0  0  0
   24.8031  -20.6162  -11.9867 C   0  0  0  0  0  0  0  0  0  0  0  0
   24.8473  -19.3592  -11.9731 O   0  0  0  0  0  0  0  0  0  0  0  0
   23.5454  -21.2181  -12.2373 N   0  0  0  0  0  0  0  0  0  0  0  0
   22.4977  -20.4646  -12.8594 C   0  0  1  0  0  0  0  0  0  0  0  0
   22.9154  -19.8782  -14.1822 C   0  0  0  0  0  0  0  0  0  0  0  0
   21.8033  -19.1761  -14.8599 C   0  0  0  0  0  0  0  0  0  0  0  0
   20.4994  -18.9671  -14.4247 C   0  0  0  0  0  0  0  0  0  0  0  0
   19.8352  -18.2896  -15.3760 N   0  0  0  0  0  0  0  0  0  0  0  0
   20.6527  -18.0565  -16.3968 C   0  0  0  0  0  0  0  0  0  0  0  0
   21.8266  -18.5851  -16.0892 N   0  0  0  0  0  0  0  0  0  0  0  0
   21.2319  -21.2593  -12.9454 C   0  0  0  0  0  0  0  0  0  0  0  0
   21.1825  -22.4689  -13.2649 O   0  0  0  0  0  0  0  0  0  0  0  0
   19.9936  -20.6621  -12.6607 O   0  0  0  0  0  0  0  0  0  0  0  0
  2  4  1  0
  2  1  1  1
  2  3  1  0
  4  5  1  6
  6  4  1  0
  6  8  1  0
  7  6  2  0
  9  8  1  0
  9 10  1  0
 10 12  1  0
 10 11  2  0
 12 13  1  0
 13 14  1  6
 14 15  1  0
 15 16  2  0
 16 17  1  0
 18 17  1  0
 19 15  1  0
 19 18  2  0
 20 13  1  0
 20 22  1  0
 21 20  2  0
M  END
$$$$
