TGH.pdb
     RDKit          3D

 22 22  0  0  1  0  0  0  0  0999 V2000
   21.4812  -13.9503  -23.1631 C   0  0  0  0  0  0  0  0  0  0  0  0
   21.8161  -12.5768  -22.6774 C   0  0  1  0  0  0  0  0  0  0  0  0
   20.7168  -11.7475  -22.9027 O   0  0  0  0  0  0  0  0  0  0  0  0
   22.1112  -12.5342  -21.1924 C   0  0  2  0  0  0  0  0  0  0  0  0
   20.9892  -13.0842  -20.5001 N   0  0  0  0  0  0  0  0  0  0  0  0
   22.4007  -11.1862  -20.7099 C   0  0  0  0  0  0  0  0  0  0  0  0
   23.4090  -10.5411  -21.0873 O   0  0  0  0  0  0  0  0  0  0  0  0
   21.5202  -10.5665  -19.7794 N   0  0  0  0  0  0  0  0  0  0  0  0
   21.7154   -9.2123  -19.3172 C   0  0  0  0  0  0  0  0  0  0  0  0
   21.7716   -9.2258  -17.8345 C   0  0  0  0  0  0  0  0  0  0  0  0
   21.3026  -10.1834  -17.1673 O   0  0  0  0  0  0  0  0  0  0  0  0
   22.3575   -8.1574  -17.1117 N   0  0  0  0  0  0  0  0  0  0  0  0
   22.2854   -8.1309  -15.6811 C   0  0  1  0  0  0  0  0  0  0  0  0
   23.6456   -8.1015  -15.0350 C   0  0  0  0  0  0  0  0  0  0  0  0
   24.4991   -9.2272  -15.4747 C   0  0  0  0  0  0  0  0  0  0  0  0
   24.1942  -10.2811  -16.3289 C   0  0  0  0  0  0  0  0  0  0  0  0
   25.2740  -11.0742  -16.4306 N   0  0  0  0  0  0  0  0  0  0  0  0
   26.2526  -10.5768  -15.6824 C   0  0  0  0  0  0  0  0  0  0  0  0
   25.7906   -9.4752  -15.1122 N   0  0  0  0  0  0  0  0  0  0  0  0
   21.3859   -7.0350  -15.2009 C   0  0  0  0  0  0  0  0  0  0  0  0
   20.9913   -6.0862  -15.9163 O   0  0  0  0  0  0  0  0  0  0  0  0
   20.9252   -7.0194  -13.8747 O   0  0  0  0  0  0  0  0  0  0  0  0
  2  4  1  0
  2  1  1  1
  2  3  1  0
  4  5  1  1
  6  4  1  0
  6  8  1  0
  7  6  2  0
  9  8  1  0
  9 10  1  0
 10 12  1  0
 10 11  2  0
 12 13  1  0
 13 14  1  1
 14 15  1  0
 15 16  2  0
 16 17  1  0
 18 17  1  0
 19 15  1  0
 19 18  2  0
 20 13  1  0
 20 22  1  0
 21 20  2  0
M  END
$$$$
