VFY.pdb
     RDKit          3D

 31 32  0  0  1  0  0  0  0  0999 V2000
   21.1438   -5.6760  -21.4584 C   0  0  0  0  0  0  0  0  0  0  0  0
   21.8515   -4.3814  -21.6935 C   0  0  1  0  0  0  0  0  0  0  0  0
   21.0837   -3.6180  -22.7560 C   0  0  0  0  0  0  0  0  0  0  0  0
   21.9397   -3.5036  -20.4801 C   0  0  2  0  0  0  0  0  0  0  0  0
   22.7100   -2.3354  -20.8181 N   0  0  0  0  0  0  0  0  0  0  0  0
   22.5265   -4.1578  -19.3122 C   0  0  0  0  0  0  0  0  0  0  0  0
   23.7710   -4.3335  -19.1496 O   0  0  0  0  0  0  0  0  0  0  0  0
   21.6945   -4.6436  -18.2684 N   0  0  0  0  0  0  0  0  0  0  0  0
   22.2731   -5.2736  -17.0979 C   0  0  1  0  0  0  0  0  0  0  0  0
   21.8579   -4.4562  -15.8912 C   0  0  0  0  0  0  0  0  0  0  0  0
   22.4765   -3.1319  -15.8497 C   0  0  0  0  0  0  0  0  0  0  0  0
   23.8170   -2.9982  -15.5799 C   0  0  0  0  0  0  0  0  0  0  0  0
   24.4468   -1.7656  -15.5300 C   0  0  0  0  0  0  0  0  0  0  0  0
   23.7163   -0.6245  -15.7567 C   0  0  0  0  0  0  0  0  0  0  0  0
   22.3749   -0.7271  -16.0288 C   0  0  0  0  0  0  0  0  0  0  0  0
   21.7548   -1.9795  -16.0753 C   0  0  0  0  0  0  0  0  0  0  0  0
   21.6176   -6.6089  -16.9594 C   0  0  0  0  0  0  0  0  0  0  0  0
   20.3768   -6.7681  -17.1331 O   0  0  0  0  0  0  0  0  0  0  0  0
   27.7281  -11.0702  -15.5672 O   0  0  0  0  0  0  0  0  0  0  0  0
   26.4204  -10.8302  -15.9992 C   0  0  0  0  0  0  0  0  0  0  0  0
   26.1776   -9.7849  -16.8606 C   0  0  0  0  0  0  0  0  0  0  0  0
   24.8759   -9.5484  -17.2889 C   0  0  0  0  0  0  0  0  0  0  0  0
   23.8224  -10.3195  -16.8838 C   0  0  0  0  0  0  0  0  0  0  0  0
   22.4521  -10.0410  -17.3506 C   0  0  0  0  0  0  0  0  0  0  0  0
   21.6953   -9.0581  -16.5074 C   0  0  2  0  0  0  0  0  0  0  0  0
   22.3696   -7.7747  -16.6219 N   0  0  0  0  0  0  0  0  0  0  0  0
   21.6707   -9.4441  -15.0764 C   0  0  0  0  0  0  0  0  0  0  0  0
   22.3636   -8.8059  -14.2115 O   0  0  0  0  0  0  0  0  0  0  0  0
   24.0694  -11.3621  -16.0238 C   0  0  0  0  0  0  0  0  0  0  0  0
   25.3705  -11.6136  -15.5841 C   0  0  0  0  0  0  0  0  0  0  0  0
   20.9224  -10.4908  -14.5669 O   0  0  0  0  0  0  0  0  0  0  0  0
  2  1  1  1
  2  3  1  0
  4  2  1  0
  4  5  1  6
  6  4  1  0
  6  7  2  0
  8  6  1  0
  9  8  1  0
  9 10  1  1
 10 11  1  0
 11 12  2  0
 12 13  1  0
 14 13  2  0
 15 14  1  0
 16 11  1  0
 16 15  2  0
 17  9  1  0
 18 17  2  0
 20 19  1  0
 20 30  2  0
 21 20  1  0
 22 21  2  0
 22 23  1  0
 23 29  2  0
 24 23  1  0
 25 26  1  0
 25 24  1  6
 26 17  1  0
 27 25  1  0
 28 27  2  0
 29 30  1  0
 31 27  1  0
M  END
$$$$
