VFY.pdb
     RDKit          3D

 31 32  0  0  1  0  0  0  0  0999 V2000
   27.6269  -26.3663  -17.8114 C   0  0  0  0  0  0  0  0  0  0  0  0
   27.1288  -25.1868  -17.0414 C   0  0  1  0  0  0  0  0  0  0  0  0
   27.2264  -25.5206  -15.5648 C   0  0  0  0  0  0  0  0  0  0  0  0
   27.9129  -23.9292  -17.2741 C   0  0  2  0  0  0  0  0  0  0  0  0
   29.2912  -24.1845  -16.9468 N   0  0  0  0  0  0  0  0  0  0  0  0
   27.4326  -22.7776  -16.5129 C   0  0  0  0  0  0  0  0  0  0  0  0
   28.0708  -22.2449  -15.5563 O   0  0  0  0  0  0  0  0  0  0  0  0
   26.1810  -22.1827  -16.8250 N   0  0  0  0  0  0  0  0  0  0  0  0
   25.7431  -20.9841  -16.1369 C   0  0  1  0  0  0  0  0  0  0  0  0
   25.5977  -19.8917  -17.1772 C   0  0  0  0  0  0  0  0  0  0  0  0
   26.8246  -19.1233  -17.3837 C   0  0  0  0  0  0  0  0  0  0  0  0
   27.0968  -18.0246  -16.6050 C   0  0  0  0  0  0  0  0  0  0  0  0
   28.2450  -17.2663  -16.7635 C   0  0  0  0  0  0  0  0  0  0  0  0
   29.1554  -17.6137  -17.7317 C   0  0  0  0  0  0  0  0  0  0  0  0
   28.9101  -18.7068  -18.5249 C   0  0  0  0  0  0  0  0  0  0  0  0
   27.7459  -19.4614  -18.3516 C   0  0  0  0  0  0  0  0  0  0  0  0
   24.3725  -21.2648  -15.6131 C   0  0  0  0  0  0  0  0  0  0  0  0
   23.4943  -21.8464  -16.3101 O   0  0  0  0  0  0  0  0  0  0  0  0
   17.3552  -19.6011  -10.4727 O   0  0  0  0  0  0  0  0  0  0  0  0
   18.6372  -19.9014  -10.9424 C   0  0  0  0  0  0  0  0  0  0  0  0
   19.4577  -18.8784  -11.3595 C   0  0  0  0  0  0  0  0  0  0  0  0
   20.7324  -19.1799  -11.8263 C   0  0  0  0  0  0  0  0  0  0  0  0
   21.2038  -20.4615  -11.8870 C   0  0  0  0  0  0  0  0  0  0  0  0
   22.5583  -20.7508  -12.3918 C   0  0  0  0  0  0  0  0  0  0  0  0
   22.6188  -21.0905  -13.8516 C   0  0  2  0  0  0  0  0  0  0  0  0
   23.9898  -20.8856  -14.2909 N   0  0  0  0  0  0  0  0  0  0  0  0
   21.7348  -20.2258  -14.6689 C   0  0  0  0  0  0  0  0  0  0  0  0
   22.1339  -19.0841  -15.0846 O   0  0  0  0  0  0  0  0  0  0  0  0
   20.3814  -21.4797  -11.4695 C   0  0  0  0  0  0  0  0  0  0  0  0
   19.0984  -21.1946  -10.9978 C   0  0  0  0  0  0  0  0  0  0  0  0
   20.4460  -20.5645  -15.0421 O   0  0  0  0  0  0  0  0  0  0  0  0
  2  1  1  6
  2  3  1  0
  4  2  1  0
  4  5  1  1
  6  4  1  0
  6  7  2  0
  8  6  1  0
  9  8  1  0
  9 10  1  6
 10 11  1  0
 11 12  2  0
 12 13  1  0
 14 13  2  0
 15 14  1  0
 16 11  1  0
 16 15  2  0
 17  9  1  0
 18 17  2  0
 20 19  1  0
 20 30  2  0
 21 20  1  0
 22 21  2  0
 22 23  1  0
 23 29  2  0
 24 23  1  0
 25 26  1  0
 25 24  1  1
 26 17  1  0
 27 25  1  0
 28 27  2  0
 29 30  1  0
 31 27  1  0
M  END
$$$$
