VFY.pdb
     RDKit          3D

 31 32  0  0  1  0  0  0  0  0999 V2000
   26.4509  -18.7744  -16.7195 C   0  0  0  0  0  0  0  0  0  0  0  0
   27.0906  -19.8543  -17.5298 C   0  0  1  0  0  0  0  0  0  0  0  0
   27.4996  -19.2555  -18.8623 C   0  0  0  0  0  0  0  0  0  0  0  0
   28.3191  -20.4435  -16.9022 C   0  0  2  0  0  0  0  0  0  0  0  0
   28.7891  -21.5158  -17.7398 N   0  0  0  0  0  0  0  0  0  0  0  0
   28.1157  -20.9366  -15.5413 C   0  0  0  0  0  0  0  0  0  0  0  0
   27.5061  -22.0118  -15.2614 O   0  0  0  0  0  0  0  0  0  0  0  0
   28.6118  -20.2029  -14.4307 N   0  0  0  0  0  0  0  0  0  0  0  0
   28.4215  -20.6931  -13.0797 C   0  0  1  0  0  0  0  0  0  0  0  0
   29.5129  -20.0881  -12.2199 C   0  0  0  0  0  0  0  0  0  0  0  0
   30.0925  -21.0365  -11.2697 C   0  0  0  0  0  0  0  0  0  0  0  0
   31.4555  -21.1792  -11.1726 C   0  0  0  0  0  0  0  0  0  0  0  0
   32.0500  -22.0640  -10.2882 C   0  0  0  0  0  0  0  0  0  0  0  0
   31.2598  -22.8347   -9.4707 C   0  0  0  0  0  0  0  0  0  0  0  0
   29.8945  -22.7138   -9.5454 C   0  0  0  0  0  0  0  0  0  0  0  0
   29.3106  -21.8156  -10.4440 C   0  0  0  0  0  0  0  0  0  0  0  0
   27.1274  -20.1262  -12.5944 C   0  0  0  0  0  0  0  0  0  0  0  0
   26.8551  -18.8968  -12.6923 O   0  0  0  0  0  0  0  0  0  0  0  0
   18.7124  -19.1633  -10.3079 O   0  0  0  0  0  0  0  0  0  0  0  0
   19.9561  -19.5996  -10.7739 C   0  0  0  0  0  0  0  0  0  0  0  0
   20.5764  -20.6562  -10.1474 C   0  0  0  0  0  0  0  0  0  0  0  0
   21.8135  -21.0882  -10.6129 C   0  0  0  0  0  0  0  0  0  0  0  0
   22.4403  -20.4993  -11.6754 C   0  0  0  0  0  0  0  0  0  0  0  0
   23.7545  -20.9760  -12.1430 C   0  0  0  0  0  0  0  0  0  0  0  0
   24.9269  -20.3505  -11.4470 C   0  0  2  0  0  0  0  0  0  0  0  0
   26.1317  -20.9544  -11.9933 N   0  0  0  0  0  0  0  0  0  0  0  0
   24.9085  -20.5912   -9.9845 C   0  0  0  0  0  0  0  0  0  0  0  0
   25.4375  -21.6428   -9.4848 O   0  0  0  0  0  0  0  0  0  0  0  0
   21.8174  -19.4448  -12.2979 C   0  0  0  0  0  0  0  0  0  0  0  0
   20.5749  -18.9984  -11.8433 C   0  0  0  0  0  0  0  0  0  0  0  0
   24.3387  -19.7305   -9.0627 O   0  0  0  0  0  0  0  0  0  0  0  0
  2  1  1  1
  2  3  1  0
  4  2  1  0
  4  5  1  6
  6  4  1  0
  6  7  2  0
  8  6  1  0
  9  8  1  0
  9 10  1  1
 10 11  1  0
 11 12  2  0
 12 13  1  0
 14 13  2  0
 15 14  1  0
 16 11  1  0
 16 15  2  0
 17  9  1  0
 18 17  2  0
 20 19  1  0
 20 30  2  0
 21 20  1  0
 22 21  2  0
 22 23  1  0
 23 29  2  0
 24 23  1  0
 25 26  1  0
 25 24  1  6
 26 17  1  0
 27 25  1  0
 28 27  2  0
 29 30  1  0
 31 27  1  0
M  END
$$$$
