VFY.pdb
     RDKit          3D

 31 32  0  0  1  0  0  0  0  0999 V2000
   28.2170  -19.3385  -15.4660 C   0  0  0  0  0  0  0  0  0  0  0  0
   27.6887  -19.7201  -14.1217 C   0  0  1  0  0  0  0  0  0  0  0  0
   26.2321  -20.1097  -14.2880 C   0  0  0  0  0  0  0  0  0  0  0  0
   28.3991  -20.8821  -13.4928 C   0  0  2  0  0  0  0  0  0  0  0  0
   28.1942  -22.0428  -14.3191 N   0  0  0  0  0  0  0  0  0  0  0  0
   27.9736  -21.1718  -12.1248 C   0  0  0  0  0  0  0  0  0  0  0  0
   27.0744  -22.0134  -11.8261 O   0  0  0  0  0  0  0  0  0  0  0  0
   28.5731  -20.4959  -11.0286 N   0  0  0  0  0  0  0  0  0  0  0  0
   28.1135  -20.7360   -9.6748 C   0  0  1  0  0  0  0  0  0  0  0  0
   29.0777  -20.0363   -8.7379 C   0  0  0  0  0  0  0  0  0  0  0  0
   28.6268  -20.0260   -7.3469 C   0  0  0  0  0  0  0  0  0  0  0  0
   27.8320  -19.0069   -6.8807 C   0  0  0  0  0  0  0  0  0  0  0  0
   27.3808  -18.9542   -5.5722 C   0  0  0  0  0  0  0  0  0  0  0  0
   27.7330  -19.9516   -4.6958 C   0  0  0  0  0  0  0  0  0  0  0  0
   28.5263  -20.9828   -5.1334 C   0  0  0  0  0  0  0  0  0  0  0  0
   28.9732  -21.0206   -6.4577 C   0  0  0  0  0  0  0  0  0  0  0  0
   26.7986  -20.0405   -9.5369 C   0  0  0  0  0  0  0  0  0  0  0  0
   26.5765  -18.9151  -10.0652 O   0  0  0  0  0  0  0  0  0  0  0  0
   18.8701  -19.7267  -12.4476 O   0  0  0  0  0  0  0  0  0  0  0  0
   20.1661  -19.9650  -11.9807 C   0  0  0  0  0  0  0  0  0  0  0  0
   20.4710  -21.1928  -11.4390 C   0  0  0  0  0  0  0  0  0  0  0  0
   21.7609  -21.4272  -10.9754 C   0  0  0  0  0  0  0  0  0  0  0  0
   22.7430  -20.4785  -11.0377 C   0  0  0  0  0  0  0  0  0  0  0  0
   24.1003  -20.7544  -10.5330 C   0  0  0  0  0  0  0  0  0  0  0  0
   24.3516  -20.2803   -9.1323 C   0  0  2  0  0  0  0  0  0  0  0  0
   25.7248  -20.6208   -8.7960 N   0  0  0  0  0  0  0  0  0  0  0  0
   23.4565  -20.9325   -8.1471 C   0  0  0  0  0  0  0  0  0  0  0  0
   23.8679  -21.9088   -7.4308 O   0  0  0  0  0  0  0  0  0  0  0  0
   22.4343  -19.2542  -11.5793 C   0  0  0  0  0  0  0  0  0  0  0  0
   21.1440  -19.0022  -12.0497 C   0  0  0  0  0  0  0  0  0  0  0  0
   22.1439  -20.5564   -7.9219 O   0  0  0  0  0  0  0  0  0  0  0  0
  2  1  1  6
  2  3  1  0
  4  2  1  0
  4  5  1  6
  6  4  1  0
  6  7  2  0
  8  6  1  0
  9  8  1  0
  9 10  1  1
 10 11  1  0
 11 12  2  0
 12 13  1  0
 14 13  2  0
 15 14  1  0
 16 11  1  0
 16 15  2  0
 17  9  1  0
 18 17  2  0
 20 19  1  0
 20 30  2  0
 21 20  1  0
 22 21  2  0
 22 23  1  0
 23 29  2  0
 24 23  1  0
 25 26  1  0
 25 24  1  6
 26 17  1  0
 27 25  1  0
 28 27  2  0
 29 30  1  0
 31 27  1  0
M  END
$$$$
