VFY.pdb
     RDKit          3D

 31 32  0  0  1  0  0  0  0  0999 V2000
   19.3703  -25.7719  -23.9100 C   0  0  0  0  0  0  0  0  0  0  0  0
   19.1276  -24.5613  -23.0689 C   0  0  1  0  0  0  0  0  0  0  0  0
   18.6867  -25.0301  -21.6952 C   0  0  0  0  0  0  0  0  0  0  0  0
   20.3365  -23.6925  -22.8844 C   0  0  2  0  0  0  0  0  0  0  0  0
   21.4074  -24.5053  -22.3699 N   0  0  0  0  0  0  0  0  0  0  0  0
   20.1198  -22.5489  -22.0003 C   0  0  0  0  0  0  0  0  0  0  0  0
   20.6345  -22.4373  -20.8476 O   0  0  0  0  0  0  0  0  0  0  0  0
   19.2904  -21.4713  -22.4114 N   0  0  0  0  0  0  0  0  0  0  0  0
   19.0608  -20.3417  -21.5323 C   0  0  1  0  0  0  0  0  0  0  0  0
   18.8270  -19.1265  -22.4072 C   0  0  0  0  0  0  0  0  0  0  0  0
   18.6070  -17.8987  -21.6440 C   0  0  0  0  0  0  0  0  0  0  0  0
   19.6725  -17.1369  -21.2294 C   0  0  0  0  0  0  0  0  0  0  0  0
   19.5138  -15.9672  -20.5048 C   0  0  0  0  0  0  0  0  0  0  0  0
   18.2491  -15.5399  -20.1809 C   0  0  0  0  0  0  0  0  0  0  0  0
   17.1652  -16.2807  -20.5818 C   0  0  0  0  0  0  0  0  0  0  0  0
   17.3433  -17.4592  -21.3127 C   0  0  0  0  0  0  0  0  0  0  0  0
   17.7781  -20.6085  -20.8146 C   0  0  0  0  0  0  0  0  0  0  0  0
   16.7744  -21.1063  -21.3976 O   0  0  0  0  0  0  0  0  0  0  0  0
   11.7880  -21.8195  -14.4484 O   0  0  0  0  0  0  0  0  0  0  0  0
   12.9573  -21.6467  -15.1947 C   0  0  0  0  0  0  0  0  0  0  0  0
   13.2079  -22.4854  -16.2565 C   0  0  0  0  0  0  0  0  0  0  0  0
   14.3719  -22.3113  -16.9972 C   0  0  0  0  0  0  0  0  0  0  0  0
   15.2818  -21.3329  -16.7086 C   0  0  0  0  0  0  0  0  0  0  0  0
   16.5099  -21.1760  -17.5088 C   0  0  0  0  0  0  0  0  0  0  0  0
   16.3205  -20.4379  -18.8008 C   0  0  2  0  0  0  0  0  0  0  0  0
   17.6271  -20.3107  -19.4264 N   0  0  0  0  0  0  0  0  0  0  0  0
   15.7682  -19.0774  -18.5973 C   0  0  0  0  0  0  0  0  0  0  0  0
   14.6326  -18.7493  -19.0853 O   0  0  0  0  0  0  0  0  0  0  0  0
   15.0275  -20.4977  -15.6477 C   0  0  0  0  0  0  0  0  0  0  0  0
   13.8635  -20.6586  -14.8935 C   0  0  0  0  0  0  0  0  0  0  0  0
   16.4084  -18.0775  -17.8864 O   0  0  0  0  0  0  0  0  0  0  0  0
  2  1  1  6
  2  3  1  0
  4  2  1  0
  4  5  1  1
  6  4  1  0
  6  7  2  0
  8  6  1  0
  9  8  1  0
  9 10  1  6
 10 11  1  0
 11 12  2  0
 12 13  1  0
 14 13  2  0
 15 14  1  0
 16 11  1  0
 16 15  2  0
 17  9  1  0
 18 17  2  0
 20 19  1  0
 20 30  2  0
 21 20  1  0
 22 21  2  0
 22 23  1  0
 23 29  2  0
 24 23  1  0
 25 26  1  0
 25 24  1  1
 26 17  1  0
 27 25  1  0
 28 27  2  0
 29 30  1  0
 31 27  1  0
M  END
$$$$
