VFY.pdb
     RDKit          3D

 31 32  0  0  1  0  0  0  0  0999 V2000
   26.1041  -25.0563  -17.1856 C   0  0  0  0  0  0  0  0  0  0  0  0
   25.4318  -23.8938  -16.5310 C   0  0  1  0  0  0  0  0  0  0  0  0
   25.5484  -24.0744  -15.0293 C   0  0  0  0  0  0  0  0  0  0  0  0
   26.0360  -22.5646  -16.8753 C   0  0  2  0  0  0  0  0  0  0  0  0
   27.4422  -22.6108  -16.5712 N   0  0  0  0  0  0  0  0  0  0  0  0
   25.4211  -21.4330  -16.1842 C   0  0  0  0  0  0  0  0  0  0  0  0
   25.9081  -20.8850  -15.1504 O   0  0  0  0  0  0  0  0  0  0  0  0
   24.2036  -20.8771  -16.6603 N   0  0  0  0  0  0  0  0  0  0  0  0
   23.5730  -19.7757  -15.9595 C   0  0  1  0  0  0  0  0  0  0  0  0
   23.2312  -18.7188  -16.9904 C   0  0  0  0  0  0  0  0  0  0  0  0
   22.6019  -17.5314  -16.4138 C   0  0  0  0  0  0  0  0  0  0  0  0
   21.3176  -17.1871  -16.7598 C   0  0  0  0  0  0  0  0  0  0  0  0
   20.6804  -16.0725  -16.2402 C   0  0  0  0  0  0  0  0  0  0  0  0
   21.3449  -15.2713  -15.3439 C   0  0  0  0  0  0  0  0  0  0  0  0
   22.6292  -15.5905  -14.9794 C   0  0  0  0  0  0  0  0  0  0  0  0
   23.2578  -16.7195  -15.5135 C   0  0  0  0  0  0  0  0  0  0  0  0
   22.2765  -20.2912  -15.4256 C   0  0  0  0  0  0  0  0  0  0  0  0
   21.5496  -21.0877  -16.0831 O   0  0  0  0  0  0  0  0  0  0  0  0
   15.8272  -22.1378   -9.6093 O   0  0  0  0  0  0  0  0  0  0  0  0
   16.9848  -21.6717  -10.2394 C   0  0  0  0  0  0  0  0  0  0  0  0
   17.0899  -20.3354  -10.5504 C   0  0  0  0  0  0  0  0  0  0  0  0
   18.2425  -19.8744  -11.1771 C   0  0  0  0  0  0  0  0  0  0  0  0
   19.2809  -20.7035  -11.4979 C   0  0  0  0  0  0  0  0  0  0  0  0
   20.4883  -20.1866  -12.1672 C   0  0  0  0  0  0  0  0  0  0  0  0
   20.5428  -20.4504  -13.6428 C   0  0  2  0  0  0  0  0  0  0  0  0
   21.7963  -19.9041  -14.1378 N   0  0  0  0  0  0  0  0  0  0  0  0
   19.4306  -19.7979  -14.3738 C   0  0  0  0  0  0  0  0  0  0  0  0
   19.5054  -18.5703  -14.7245 O   0  0  0  0  0  0  0  0  0  0  0  0
   19.1717  -22.0369  -11.1854 C   0  0  0  0  0  0  0  0  0  0  0  0
   18.0213  -22.5165  -10.5560 C   0  0  0  0  0  0  0  0  0  0  0  0
   18.2551  -20.4355  -14.7298 O   0  0  0  0  0  0  0  0  0  0  0  0
  2  1  1  6
  2  3  1  0
  4  2  1  0
  4  5  1  1
  6  4  1  0
  6  7  2  0
  8  6  1  0
  9  8  1  0
  9 10  1  6
 10 11  1  0
 11 12  2  0
 12 13  1  0
 14 13  2  0
 15 14  1  0
 16 11  1  0
 16 15  2  0
 17  9  1  0
 18 17  2  0
 20 19  1  0
 20 30  2  0
 21 20  1  0
 22 21  2  0
 22 23  1  0
 23 29  2  0
 24 23  1  0
 25 26  1  0
 25 24  1  1
 26 17  1  0
 27 25  1  0
 28 27  2  0
 29 30  1  0
 31 27  1  0
M  END
$$$$
