VFY.pdb
     RDKit          3D

 31 32  0  0  1  0  0  0  0  0999 V2000
   26.0670  -21.1106  -18.4186 C   0  0  0  0  0  0  0  0  0  0  0  0
   27.2123  -22.0604  -18.5531 C   0  0  1  0  0  0  0  0  0  0  0  0
   28.0372  -21.6275  -19.7504 C   0  0  0  0  0  0  0  0  0  0  0  0
   28.1243  -22.0913  -17.3624 C   0  0  2  0  0  0  0  0  0  0  0  0
   29.0955  -23.1354  -17.5593 N   0  0  0  0  0  0  0  0  0  0  0  0
   27.4360  -22.2946  -16.0892 C   0  0  0  0  0  0  0  0  0  0  0  0
   26.9672  -23.4085  -15.7075 O   0  0  0  0  0  0  0  0  0  0  0  0
   27.2559  -21.2100  -15.1897 N   0  0  0  0  0  0  0  0  0  0  0  0
   26.5316  -21.3955  -13.9477 C   0  0  1  0  0  0  0  0  0  0  0  0
   27.0443  -20.3620  -12.9650 C   0  0  0  0  0  0  0  0  0  0  0  0
   26.3679  -20.4108  -11.6695 C   0  0  0  0  0  0  0  0  0  0  0  0
   26.8449  -21.2184  -10.6655 C   0  0  0  0  0  0  0  0  0  0  0  0
   26.2383  -21.2977   -9.4228 C   0  0  0  0  0  0  0  0  0  0  0  0
   25.1165  -20.5465   -9.1698 C   0  0  0  0  0  0  0  0  0  0  0  0
   24.6170  -19.7303  -10.1540 C   0  0  0  0  0  0  0  0  0  0  0  0
   25.2417  -19.6621  -11.4031 C   0  0  0  0  0  0  0  0  0  0  0  0
   25.1043  -21.0533  -14.2265 C   0  0  0  0  0  0  0  0  0  0  0  0
   24.7743  -19.9946  -14.8308 O   0  0  0  0  0  0  0  0  0  0  0  0
   16.3951  -21.7589  -15.4469 O   0  0  0  0  0  0  0  0  0  0  0  0
   17.7534  -21.9920  -15.2121 C   0  0  0  0  0  0  0  0  0  0  0  0
   18.1509  -22.4766  -13.9870 C   0  0  0  0  0  0  0  0  0  0  0  0
   19.5026  -22.7075  -13.7560 C   0  0  0  0  0  0  0  0  0  0  0  0
   20.4568  -22.4698  -14.7055 C   0  0  0  0  0  0  0  0  0  0  0  0
   21.8832  -22.7193  -14.4297 C   0  0  0  0  0  0  0  0  0  0  0  0
   22.6613  -21.5017  -14.0272 C   0  0  2  0  0  0  0  0  0  0  0  0
   24.0403  -21.9140  -13.8194 N   0  0  0  0  0  0  0  0  0  0  0  0
   22.1602  -20.9033  -12.7671 C   0  0  0  0  0  0  0  0  0  0  0  0
   22.5178  -21.3686  -11.6308 O   0  0  0  0  0  0  0  0  0  0  0  0
   20.0554  -21.9862  -15.9272 C   0  0  0  0  0  0  0  0  0  0  0  0
   18.7021  -21.7488  -16.1759 C   0  0  0  0  0  0  0  0  0  0  0  0
   21.2928  -19.8265  -12.7096 O   0  0  0  0  0  0  0  0  0  0  0  0
  2  1  1  1
  2  3  1  0
  4  2  1  0
  4  5  1  6
  6  4  1  0
  6  7  2  0
  8  6  1  0
  9  8  1  0
  9 10  1  1
 10 11  1  0
 11 12  2  0
 12 13  1  0
 14 13  2  0
 15 14  1  0
 16 11  1  0
 16 15  2  0
 17  9  1  0
 18 17  2  0
 20 19  1  0
 20 30  2  0
 21 20  1  0
 22 21  2  0
 22 23  1  0
 23 29  2  0
 24 23  1  0
 25 26  1  0
 25 24  1  1
 26 17  1  0
 27 25  1  0
 28 27  2  0
 29 30  1  0
 31 27  1  0
M  END
$$$$
