VFY.pdb
     RDKit          3D

 31 32  0  0  1  0  0  0  0  0999 V2000
   28.3857  -18.9131  -15.3168 C   0  0  0  0  0  0  0  0  0  0  0  0
   27.9109  -19.4622  -14.0110 C   0  0  1  0  0  0  0  0  0  0  0  0
   26.5224  -20.0347  -14.2245 C   0  0  0  0  0  0  0  0  0  0  0  0
   28.7728  -20.5589  -13.4590 C   0  0  2  0  0  0  0  0  0  0  0  0
   28.7566  -21.6609  -14.3850 N   0  0  0  0  0  0  0  0  0  0  0  0
   28.3691  -21.0250  -12.1338 C   0  0  0  0  0  0  0  0  0  0  0  0
   27.5917  -22.0059  -11.9346 O   0  0  0  0  0  0  0  0  0  0  0  0
   28.8496  -20.3731  -10.9668 N   0  0  0  0  0  0  0  0  0  0  0  0
   28.3575  -20.7511   -9.6565 C   0  0  1  0  0  0  0  0  0  0  0  0
   29.1894  -20.0105   -8.6288 C   0  0  0  0  0  0  0  0  0  0  0  0
   28.6783  -20.1458   -7.2654 C   0  0  0  0  0  0  0  0  0  0  0  0
   27.8402  -19.1931   -6.7388 C   0  0  0  0  0  0  0  0  0  0  0  0
   27.3313  -19.2782   -5.4534 C   0  0  0  0  0  0  0  0  0  0  0  0
   27.6684  -20.3501   -4.6633 C   0  0  0  0  0  0  0  0  0  0  0  0
   28.5041  -21.3178   -5.1627 C   0  0  0  0  0  0  0  0  0  0  0  0
   29.0090  -21.2164   -6.4626 C   0  0  0  0  0  0  0  0  0  0  0  0
   26.9661  -20.2181   -9.5490 C   0  0  0  0  0  0  0  0  0  0  0  0
   26.6458  -19.0834  -10.0018 O   0  0  0  0  0  0  0  0  0  0  0  0
   18.5783  -19.4513  -11.1092 O   0  0  0  0  0  0  0  0  0  0  0  0
   19.9149  -19.8135  -10.9176 C   0  0  0  0  0  0  0  0  0  0  0  0
   20.2121  -20.8842  -10.1059 C   0  0  0  0  0  0  0  0  0  0  0  0
   21.5425  -21.2423   -9.9170 C   0  0  0  0  0  0  0  0  0  0  0  0
   22.5720  -20.5668  -10.5105 C   0  0  0  0  0  0  0  0  0  0  0  0
   23.9732  -20.9665  -10.2870 C   0  0  0  0  0  0  0  0  0  0  0  0
   24.5546  -20.4962   -8.9867 C   0  0  2  0  0  0  0  0  0  0  0  0
   25.9271  -20.9726   -8.9246 N   0  0  0  0  0  0  0  0  0  0  0  0
   23.8228  -21.0331   -7.8148 C   0  0  0  0  0  0  0  0  0  0  0  0
   24.1876  -22.1238   -7.2555 O   0  0  0  0  0  0  0  0  0  0  0  0
   22.2707  -19.4984  -11.3200 C   0  0  0  0  0  0  0  0  0  0  0  0
   20.9402  -19.1255  -11.5206 C   0  0  0  0  0  0  0  0  0  0  0  0
   22.7203  -20.4240   -7.2416 O   0  0  0  0  0  0  0  0  0  0  0  0
  2  1  1  6
  2  3  1  0
  4  2  1  0
  4  5  1  6
  6  4  1  0
  6  7  2  0
  8  6  1  0
  9  8  1  0
  9 10  1  1
 10 11  1  0
 11 12  2  0
 12 13  1  0
 14 13  2  0
 15 14  1  0
 16 11  1  0
 16 15  2  0
 17  9  1  0
 18 17  2  0
 20 19  1  0
 20 30  2  0
 21 20  1  0
 22 21  2  0
 22 23  1  0
 23 29  2  0
 24 23  1  0
 25 26  1  0
 25 24  1  6
 26 17  1  0
 27 25  1  0
 28 27  2  0
 29 30  1  0
 31 27  1  0
M  END
$$$$
