VFY.pdb
     RDKit          3D

 31 32  0  0  1  0  0  0  0  0999 V2000
   26.1489  -20.5693  -17.3903 C   0  0  0  0  0  0  0  0  0  0  0  0
   27.1783  -21.6109  -17.6856 C   0  0  1  0  0  0  0  0  0  0  0  0
   27.8297  -21.2588  -19.0096 C   0  0  0  0  0  0  0  0  0  0  0  0
   28.2660  -21.7048  -16.6567 C   0  0  2  0  0  0  0  0  0  0  0  0
   29.1592  -22.7688  -17.0338 N   0  0  0  0  0  0  0  0  0  0  0  0
   27.7821  -21.9289  -15.2959 C   0  0  0  0  0  0  0  0  0  0  0  0
   27.1557  -22.9678  -14.9292 O   0  0  0  0  0  0  0  0  0  0  0  0
   28.0017  -20.9538  -14.2866 N   0  0  0  0  0  0  0  0  0  0  0  0
   27.4719  -21.1443  -12.9506 C   0  0  1  0  0  0  0  0  0  0  0  0
   28.2300  -20.2138  -12.0253 C   0  0  0  0  0  0  0  0  0  0  0  0
   27.7876  -20.2958  -10.6340 C   0  0  0  0  0  0  0  0  0  0  0  0
   28.4676  -21.0787   -9.7327 C   0  0  0  0  0  0  0  0  0  0  0  0
   28.0865  -21.1878   -8.4056 C   0  0  0  0  0  0  0  0  0  0  0  0
   26.9889  -20.4929   -7.9589 C   0  0  0  0  0  0  0  0  0  0  0  0
   26.2898  -19.7025   -8.8368 C   0  0  0  0  0  0  0  0  0  0  0  0
   26.6882  -19.6036  -10.1734 C   0  0  0  0  0  0  0  0  0  0  0  0
   26.0567  -20.6664  -12.9766 C   0  0  0  0  0  0  0  0  0  0  0  0
   25.7215  -19.5938  -13.5530 O   0  0  0  0  0  0  0  0  0  0  0  0
   17.2812  -20.7110  -13.2612 O   0  0  0  0  0  0  0  0  0  0  0  0
   18.6505  -20.9925  -13.2467 C   0  0  0  0  0  0  0  0  0  0  0  0
   19.1468  -21.8713  -12.3113 C   0  0  0  0  0  0  0  0  0  0  0  0
   20.5092  -22.1496  -12.2991 C   0  0  0  0  0  0  0  0  0  0  0  0
   21.3790  -21.5796  -13.1863 C   0  0  0  0  0  0  0  0  0  0  0  0
   22.8195  -21.8900  -13.1455 C   0  0  0  0  0  0  0  0  0  0  0  0
   23.6480  -20.8992  -12.3825 C   0  0  2  0  0  0  0  0  0  0  0  0
   25.0106  -21.4059  -12.3462 N   0  0  0  0  0  0  0  0  0  0  0  0
   23.1787  -20.7277  -10.9869 C   0  0  0  0  0  0  0  0  0  0  0  0
   23.6894  -21.4098  -10.0333 O   0  0  0  0  0  0  0  0  0  0  0  0
   20.8791  -20.7029  -14.1185 C   0  0  0  0  0  0  0  0  0  0  0  0
   19.5137  -20.4124  -14.1448 C   0  0  0  0  0  0  0  0  0  0  0  0
   22.1829  -19.8459  -10.6051 O   0  0  0  0  0  0  0  0  0  0  0  0
  2  1  1  1
  2  3  1  0
  4  2  1  0
  4  5  1  6
  6  4  1  0
  6  7  2  0
  8  6  1  0
  9  8  1  0
  9 10  1  1
 10 11  1  0
 11 12  2  0
 12 13  1  0
 14 13  2  0
 15 14  1  0
 16 11  1  0
 16 15  2  0
 17  9  1  0
 18 17  2  0
 20 19  1  0
 20 30  2  0
 21 20  1  0
 22 21  2  0
 22 23  1  0
 23 29  2  0
 24 23  1  0
 25 26  1  0
 25 24  1  6
 26 17  1  0
 27 25  1  0
 28 27  2  0
 29 30  1  0
 31 27  1  0
M  END
$$$$
