VFY.pdb
     RDKit          3D

 31 32  0  0  1  0  0  0  0  0999 V2000
   24.5189  -18.9434  -16.2584 C   0  0  0  0  0  0  0  0  0  0  0  0
   24.7564  -19.9872  -17.3005 C   0  0  1  0  0  0  0  0  0  0  0  0
   24.4161  -19.3831  -18.6498 C   0  0  0  0  0  0  0  0  0  0  0  0
   26.1739  -20.4737  -17.3669 C   0  0  2  0  0  0  0  0  0  0  0  0
   26.2676  -21.4635  -18.4079 N   0  0  0  0  0  0  0  0  0  0  0  0
   26.6720  -21.0327  -16.1116 C   0  0  0  0  0  0  0  0  0  0  0  0
   26.3477  -22.1741  -15.6666 O   0  0  0  0  0  0  0  0  0  0  0  0
   27.5764  -20.2914  -15.3050 N   0  0  0  0  0  0  0  0  0  0  0  0
   28.0116  -20.8071  -14.0219 C   0  0  1  0  0  0  0  0  0  0  0  0
   29.3332  -20.1432  -13.6911 C   0  0  0  0  0  0  0  0  0  0  0  0
   29.9186  -20.6145  -12.4367 C   0  0  0  0  0  0  0  0  0  0  0  0
   30.4731  -21.8689  -12.3557 C   0  0  0  0  0  0  0  0  0  0  0  0
   31.0389  -22.3585  -11.1901 C   0  0  0  0  0  0  0  0  0  0  0  0
   31.0535  -21.5716  -10.0642 C   0  0  0  0  0  0  0  0  0  0  0  0
   30.5066  -20.3137  -10.1153 C   0  0  0  0  0  0  0  0  0  0  0  0
   29.9395  -19.8348  -11.3002 C   0  0  0  0  0  0  0  0  0  0  0  0
   27.0240  -20.3286  -13.0083 C   0  0  0  0  0  0  0  0  0  0  0  0
   26.6407  -19.1261  -12.9610 O   0  0  0  0  0  0  0  0  0  0  0  0
   20.9126  -18.8628  -15.0649 O   0  0  0  0  0  0  0  0  0  0  0  0
   21.7280  -19.4649  -14.1021 C   0  0  0  0  0  0  0  0  0  0  0  0
   22.5247  -20.5269  -14.4641 C   0  0  0  0  0  0  0  0  0  0  0  0
   23.3349  -21.1240  -13.5044 C   0  0  0  0  0  0  0  0  0  0  0  0
   23.3697  -20.6932  -12.2076 C   0  0  0  0  0  0  0  0  0  0  0  0
   24.2349  -21.3498  -11.2108 C   0  0  0  0  0  0  0  0  0  0  0  0
   25.5702  -20.6940  -11.0179 C   0  0  2  0  0  0  0  0  0  0  0  0
   26.4642  -21.2154  -12.0394 N   0  0  0  0  0  0  0  0  0  0  0  0
   26.1579  -20.9916   -9.6900 C   0  0  0  0  0  0  0  0  0  0  0  0
   25.5899  -20.5932   -8.6157 O   0  0  0  0  0  0  0  0  0  0  0  0
   22.5727  -19.6326  -11.8506 C   0  0  0  0  0  0  0  0  0  0  0  0
   21.7533  -19.0215  -12.8018 C   0  0  0  0  0  0  0  0  0  0  0  0
   27.3305  -21.7018   -9.5010 O   0  0  0  0  0  0  0  0  0  0  0  0
  2  1  1  1
  2  3  1  0
  4  2  1  0
  4  5  1  6
  6  4  1  0
  6  7  2  0
  8  6  1  0
  9  8  1  0
  9 10  1  1
 10 11  1  0
 11 12  2  0
 12 13  1  0
 14 13  2  0
 15 14  1  0
 16 11  1  0
 16 15  2  0
 17  9  1  0
 18 17  2  0
 20 19  1  0
 20 30  2  0
 21 20  1  0
 22 21  2  0
 22 23  1  0
 23 29  2  0
 24 23  1  0
 25 26  1  0
 25 24  1  1
 26 17  1  0
 27 25  1  0
 28 27  2  0
 29 30  1  0
 31 27  1  0
M  END
$$$$
