VFY.pdb
     RDKit          3D

 31 32  0  0  1  0  0  0  0  0999 V2000
   28.2709  -20.6385  -18.3038 C   0  0  0  0  0  0  0  0  0  0  0  0
   27.3297  -20.8959  -17.1726 C   0  0  1  0  0  0  0  0  0  0  0  0
   26.2324  -21.8124  -17.6799 C   0  0  0  0  0  0  0  0  0  0  0  0
   27.9648  -21.5626  -15.9883 C   0  0  2  0  0  0  0  0  0  0  0  0
   28.4680  -22.8458  -16.4034 N   0  0  0  0  0  0  0  0  0  0  0  0
   27.0672  -21.7329  -14.8473 C   0  0  0  0  0  0  0  0  0  0  0  0
   26.4470  -22.8073  -14.5884 O   0  0  0  0  0  0  0  0  0  0  0  0
   26.8428  -20.6594  -13.9445 N   0  0  0  0  0  0  0  0  0  0  0  0
   25.9891  -20.8371  -12.7864 C   0  0  1  0  0  0  0  0  0  0  0  0
   26.4903  -19.9004  -11.7056 C   0  0  0  0  0  0  0  0  0  0  0  0
   27.6771  -20.3999  -11.0127 C   0  0  0  0  0  0  0  0  0  0  0  0
   27.6136  -20.7449   -9.6843 C   0  0  0  0  0  0  0  0  0  0  0  0
   28.7105  -21.2222   -8.9862 C   0  0  0  0  0  0  0  0  0  0  0  0
   29.9142  -21.3615   -9.6331 C   0  0  0  0  0  0  0  0  0  0  0  0
   30.0078  -21.0247  -10.9605 C   0  0  0  0  0  0  0  0  0  0  0  0
   28.8905  -20.5443  -11.6504 C   0  0  0  0  0  0  0  0  0  0  0  0
   24.6294  -20.3564  -13.1760 C   0  0  0  0  0  0  0  0  0  0  0  0
   24.4613  -19.3398  -13.9064 O   0  0  0  0  0  0  0  0  0  0  0  0
   16.6357  -19.9328  -16.4162 O   0  0  0  0  0  0  0  0  0  0  0  0
   17.8955  -20.2693  -15.9121 C   0  0  0  0  0  0  0  0  0  0  0  0
   18.9776  -19.4779  -16.2223 C   0  0  0  0  0  0  0  0  0  0  0  0
   20.2296  -19.8149  -15.7196 C   0  0  0  0  0  0  0  0  0  0  0  0
   20.4269  -20.9092  -14.9244 C   0  0  0  0  0  0  0  0  0  0  0  0
   21.7674  -21.2443  -14.4105 C   0  0  0  0  0  0  0  0  0  0  0  0
   22.1441  -20.5331  -13.1447 C   0  0  2  0  0  0  0  0  0  0  0  0
   23.4489  -21.0291  -12.7372 N   0  0  0  0  0  0  0  0  0  0  0  0
   21.1843  -20.7923  -12.0452 C   0  0  0  0  0  0  0  0  0  0  0  0
   21.2878  -21.8373  -11.3152 O   0  0  0  0  0  0  0  0  0  0  0  0
   19.3437  -21.6964  -14.6172 C   0  0  0  0  0  0  0  0  0  0  0  0
   18.0796  -21.3723  -15.1136 C   0  0  0  0  0  0  0  0  0  0  0  0
   20.1296  -19.9569  -11.7217 O   0  0  0  0  0  0  0  0  0  0  0  0
  2  1  1  6
  2  3  1  0
  4  2  1  0
  4  5  1  6
  6  4  1  0
  6  7  2  0
  8  6  1  0
  9  8  1  0
  9 10  1  1
 10 11  1  0
 11 12  2  0
 12 13  1  0
 14 13  2  0
 15 14  1  0
 16 11  1  0
 16 15  2  0
 17  9  1  0
 18 17  2  0
 20 19  1  0
 20 30  2  0
 21 20  1  0
 22 21  2  0
 22 23  1  0
 23 29  2  0
 24 23  1  0
 25 26  1  0
 25 24  1  6
 26 17  1  0
 27 25  1  0
 28 27  2  0
 29 30  1  0
 31 27  1  0
M  END
$$$$
