VFY.pdb
     RDKit          3D

 31 32  0  0  1  0  0  0  0  0999 V2000
   21.1892  -14.5372  -20.2159 C   0  0  0  0  0  0  0  0  0  0  0  0
   20.7843  -13.7408  -19.0186 C   0  0  1  0  0  0  0  0  0  0  0  0
   21.6708  -14.1586  -17.8606 C   0  0  0  0  0  0  0  0  0  0  0  0
   20.9338  -12.2581  -19.1912 C   0  0  2  0  0  0  0  0  0  0  0  0
   22.2810  -11.9827  -19.6173 N   0  0  0  0  0  0  0  0  0  0  0  0
   20.6312  -11.4841  -17.9888 C   0  0  0  0  0  0  0  0  0  0  0  0
   19.4999  -11.4765  -17.4177 O   0  0  0  0  0  0  0  0  0  0  0  0
   21.6313  -10.6757  -17.3854 N   0  0  0  0  0  0  0  0  0  0  0  0
   21.2945   -9.7742  -16.3011 C   0  0  1  0  0  0  0  0  0  0  0  0
   22.5774   -9.4589  -15.5586 C   0  0  0  0  0  0  0  0  0  0  0  0
   22.3907   -8.5152  -14.4573 C   0  0  0  0  0  0  0  0  0  0  0  0
   22.5581   -7.1667  -14.6607 C   0  0  0  0  0  0  0  0  0  0  0  0
   22.3921   -6.2354  -13.6490 C   0  0  0  0  0  0  0  0  0  0  0  0
   22.0472   -6.6610  -12.3893 C   0  0  0  0  0  0  0  0  0  0  0  0
   21.8732   -8.0024  -12.1563 C   0  0  0  0  0  0  0  0  0  0  0  0
   22.0447   -8.9294  -13.1890 C   0  0  0  0  0  0  0  0  0  0  0  0
   20.8359   -8.4985  -16.9287 C   0  0  0  0  0  0  0  0  0  0  0  0
   21.4476   -7.9708  -17.8995 O   0  0  0  0  0  0  0  0  0  0  0  0
   17.0304   -2.9404  -21.8307 O   0  0  0  0  0  0  0  0  0  0  0  0
   17.2489   -3.8615  -20.8021 C   0  0  0  0  0  0  0  0  0  0  0  0
   18.4242   -3.8068  -20.0884 C   0  0  0  0  0  0  0  0  0  0  0  0
   18.6391   -4.7242  -19.0657 C   0  0  0  0  0  0  0  0  0  0  0  0
   17.7216   -5.6840  -18.7409 C   0  0  0  0  0  0  0  0  0  0  0  0
   17.9798   -6.6466  -17.6547 C   0  0  0  0  0  0  0  0  0  0  0  0
   19.3300   -6.5151  -17.0147 C   0  0  2  0  0  0  0  0  0  0  0  0
   19.6764   -7.8122  -16.4561 N   0  0  0  0  0  0  0  0  0  0  0  0
   19.3390   -5.5190  -15.9170 C   0  0  0  0  0  0  0  0  0  0  0  0
   18.9622   -5.8377  -14.7372 O   0  0  0  0  0  0  0  0  0  0  0  0
   16.5495   -5.7349  -19.4559 C   0  0  0  0  0  0  0  0  0  0  0  0
   16.3177   -4.8212  -20.4859 C   0  0  0  0  0  0  0  0  0  0  0  0
   19.7422   -4.2034  -16.0651 O   0  0  0  0  0  0  0  0  0  0  0  0
  2  1  1  6
  2  3  1  0
  4  2  1  0
  4  5  1  1
  6  4  1  0
  6  7  2  0
  8  6  1  0
  9  8  1  0
  9 10  1  1
 10 11  1  0
 11 12  2  0
 12 13  1  0
 14 13  2  0
 15 14  1  0
 16 11  1  0
 16 15  2  0
 17  9  1  0
 18 17  2  0
 20 19  1  0
 20 30  2  0
 21 20  1  0
 22 21  2  0
 22 23  1  0
 23 29  2  0
 24 23  1  0
 25 26  1  0
 25 24  1  1
 26 17  1  0
 27 25  1  0
 28 27  2  0
 29 30  1  0
 31 27  1  0
M  END
$$$$
