RVW.pdb
     RDKit          3D

 33 34  0  0  1  0  0  0  0  0999 V2000
   27.4500  -19.6815  -21.1648 N   0  0  0  0  0  0  0  0  0  0  0  0
   28.4441  -18.6967  -20.8570 C   0  0  0  0  0  0  0  0  0  0  0  0
   29.6461  -18.9189  -21.2766 N   0  0  0  0  0  0  0  0  0  0  0  0
   28.1223  -17.5255  -20.1216 N   0  0  0  0  0  0  0  0  0  0  0  0
   27.4133  -17.6489  -18.8871 C   0  0  0  0  0  0  0  0  0  0  0  0
   26.2879  -18.6858  -18.9533 C   0  0  0  0  0  0  0  0  0  0  0  0
   26.2652  -19.3760  -17.6159 C   0  0  0  0  0  0  0  0  0  0  0  0
   27.4624  -20.2054  -17.3233 C   0  0  2  0  0  0  0  0  0  0  0  0
   27.6762  -21.3218  -18.1772 N   0  0  0  0  0  0  0  0  0  0  0  0
   27.3265  -20.6907  -15.9084 C   0  0  0  0  0  0  0  0  0  0  0  0
   26.3650  -21.4354  -15.5662 O   0  0  0  0  0  0  0  0  0  0  0  0
   30.4429  -18.2731  -21.1677 C   0  0  0  0  0  0  0  0  0  0  0  0
   29.6496  -19.0921  -12.4737 C   0  0  2  0  0  0  0  0  0  0  0  0
   29.2672  -20.5348  -12.6376 C   0  0  0  0  0  0  0  0  0  0  0  0
   28.9246  -21.0282  -11.2417 C   0  0  1  0  0  0  0  0  0  0  0  0
   28.1002  -20.7650  -13.5206 N   0  0  0  0  0  0  0  0  0  0  0  0
   28.2300  -20.3672  -14.8749 C   0  0  0  0  0  0  0  0  0  0  0  0
   26.8521  -20.2348  -12.8840 O   0  0  0  0  0  0  0  0  0  0  0  0
   26.4265  -19.0763  -13.1237 N   0  0  0  0  0  0  0  0  0  0  0  0
   26.0940  -21.0271  -11.9766 C   0  0  1  0  0  0  0  0  0  0  0  0
   24.8866  -20.5257  -11.3770 C   0  0  0  0  0  0  0  0  0  0  0  0
   23.6681  -20.7822  -12.2068 C   0  0  0  0  0  0  0  0  0  0  0  0
   22.4336  -20.3195  -11.5253 C   0  0  0  0  0  0  0  0  0  0  0  0
   22.2736  -19.1583  -10.7713 N   0  0  0  0  0  0  0  0  0  0  0  0
   21.0072  -19.1059  -10.3257 C   0  0  0  0  0  0  0  0  0  0  0  0
   20.3047  -20.1727  -10.7406 C   0  0  0  0  0  0  0  0  0  0  0  0
   18.9980  -20.5924  -10.5673 C   0  0  0  0  0  0  0  0  0  0  0  0
   18.5343  -21.7740  -11.1300 C   0  0  0  0  0  0  0  0  0  0  0  0
   19.4152  -22.5261  -11.8724 C   0  0  0  0  0  0  0  0  0  0  0  0
   20.7279  -22.0901  -12.0378 C   0  0  0  0  0  0  0  0  0  0  0  0
   21.1893  -20.9307  -11.4878 C   0  0  0  0  0  0  0  0  0  0  0  0
   24.7088  -21.1758  -10.0608 O   0  0  0  0  0  0  0  0  0  0  0  0
   24.0212  -20.5689   -9.0181 O   0  0  0  0  0  0  0  0  0  0  0  0
  1  2  1  0
  2  3  2  0
  4  2  1  0
  4  5  1  0
  5  6  1  0
  6  7  1  0
  7  8  1  0
  8 10  1  0
  8  9  1  6
 10 11  2  0
 10 16  1  0
 13 12  1  1
 13 15  1  0
 14 13  1  0
 15 17  1  0
 15 16  1  6
 17 18  2  0
 17 19  1  0
 19 20  1  0
 20 21  1  1
 21 22  1  0
 22 30  1  0
 22 23  2  0
 23 24  1  0
 24 25  1  0
 25 26  2  0
 27 26  1  0
 28 27  2  0
 29 30  2  0
 29 28  1  0
 30 25  1  0
 31 20  1  0
 31 32  1  0
 33 31  2  0
M  END
$$$$
