RVW.pdb
     RDKit          3D

 33 34  0  0  1  0  0  0  0  0999 V2000
   28.0891  -29.3592  -17.3328 N   0  0  0  0  0  0  0  0  0  0  0  0
   28.6139  -28.8343  -18.5583 C   0  0  0  0  0  0  0  0  0  0  0  0
   28.9074  -29.6835  -19.4874 N   0  0  0  0  0  0  0  0  0  0  0  0
   28.8037  -27.4396  -18.7446 N   0  0  0  0  0  0  0  0  0  0  0  0
   28.5665  -26.5505  -17.6513 C   0  0  0  0  0  0  0  0  0  0  0  0
   27.3286  -25.6733  -17.8611 C   0  0  0  0  0  0  0  0  0  0  0  0
   27.4473  -24.5295  -16.8900 C   0  0  0  0  0  0  0  0  0  0  0  0
   28.3987  -23.4636  -17.2972 C   0  0  2  0  0  0  0  0  0  0  0  0
   29.6928  -23.8965  -17.6958 N   0  0  0  0  0  0  0  0  0  0  0  0
   28.5339  -22.5257  -16.1318 C   0  0  0  0  0  0  0  0  0  0  0  0
   29.4633  -22.6676  -15.2878 O   0  0  0  0  0  0  0  0  0  0  0  0
   29.3014  -29.4432  -20.4098 C   0  0  0  0  0  0  0  0  0  0  0  0
   27.0544  -18.6511  -16.2661 C   0  0  2  0  0  0  0  0  0  0  0  0
   27.8777  -19.1105  -15.0976 C   0  0  0  0  0  0  0  0  0  0  0  0
   27.3763  -18.3128  -13.9053 C   0  0  2  0  0  0  0  0  0  0  0  0
   27.7534  -20.5538  -14.7874 N   0  0  0  0  0  0  0  0  0  0  0  0
   27.6642  -21.4428  -15.8878 C   0  0  0  0  0  0  0  0  0  0  0  0
   26.6691  -20.7787  -13.7786 O   0  0  0  0  0  0  0  0  0  0  0  0
   25.4608  -20.8699  -14.1136 N   0  0  0  0  0  0  0  0  0  0  0  0
   26.9662  -20.8987  -12.3918 C   0  0  2  0  0  0  0  0  0  0  0  0
   25.9708  -21.3368  -11.4505 C   0  0  0  0  0  0  0  0  0  0  0  0
   26.5573  -21.8929  -10.1912 C   0  0  0  0  0  0  0  0  0  0  0  0
   26.5809  -20.8821   -9.1048 C   0  0  0  0  0  0  0  0  0  0  0  0
   25.5378  -20.0463   -8.7103 N   0  0  0  0  0  0  0  0  0  0  0  0
   25.9631  -19.2781   -7.6935 C   0  0  0  0  0  0  0  0  0  0  0  0
   27.2403  -19.5530   -7.3819 C   0  0  0  0  0  0  0  0  0  0  0  0
   28.1293  -19.0636   -6.4418 C   0  0  0  0  0  0  0  0  0  0  0  0
   29.4259  -19.5509   -6.3460 C   0  0  0  0  0  0  0  0  0  0  0  0
   29.8100  -20.5432   -7.2181 C   0  0  0  0  0  0  0  0  0  0  0  0
   28.9032  -21.0256   -8.1593 C   0  0  0  0  0  0  0  0  0  0  0  0
   27.6286  -20.5512   -8.2583 C   0  0  0  0  0  0  0  0  0  0  0  0
   25.1105  -20.1850  -11.1041 O   0  0  0  0  0  0  0  0  0  0  0  0
   23.7857  -20.3360  -10.7163 O   0  0  0  0  0  0  0  0  0  0  0  0
  1  2  1  0
  2  3  2  0
  4  2  1  0
  4  5  1  0
  5  6  1  0
  6  7  1  0
  7  8  1  0
  8 10  1  0
  8  9  1  1
 10 11  2  0
 10 16  1  0
 13 12  1  6
 13 15  1  0
 14 13  1  0
 15 17  1  0
 15 16  1  6
 17 18  2  0
 17 19  1  0
 19 20  1  0
 20 21  1  6
 21 22  1  0
 22 30  1  0
 22 23  2  0
 23 24  1  0
 24 25  1  0
 25 26  2  0
 27 26  1  0
 28 27  2  0
 29 30  2  0
 29 28  1  0
 30 25  1  0
 31 20  1  0
 31 32  1  0
 33 31  2  0
M  END
$$$$
