RVW.pdb
     RDKit          3D

 33 34  0  0  1  0  0  0  0  0999 V2000
   20.0370  -18.4008  -15.7097 N   0  0  0  0  0  0  0  0  0  0  0  0
   19.7164  -18.5875  -14.3258 C   0  0  0  0  0  0  0  0  0  0  0  0
   19.2743  -17.5604  -13.6777 N   0  0  0  0  0  0  0  0  0  0  0  0
   19.8777  -19.8481  -13.6926 N   0  0  0  0  0  0  0  0  0  0  0  0
   21.0688  -20.6011  -13.9295 C   0  0  0  0  0  0  0  0  0  0  0  0
   20.9627  -21.5020  -15.1637 C   0  0  0  0  0  0  0  0  0  0  0  0
   22.2625  -22.2554  -15.2544 C   0  0  0  0  0  0  0  0  0  0  0  0
   23.4150  -21.4518  -15.7372 C   0  0  2  0  0  0  0  0  0  0  0  0
   23.8950  -21.7622  -17.0389 N   0  0  0  0  0  0  0  0  0  0  0  0
   24.5288  -21.6408  -14.7473 C   0  0  0  0  0  0  0  0  0  0  0  0
   24.8118  -22.7874  -14.2985 O   0  0  0  0  0  0  0  0  0  0  0  0
   19.0189  -17.5527  -12.6784 C   0  0  0  0  0  0  0  0  0  0  0  0
   28.2463  -20.2457  -14.9138 C   0  0  2  0  0  0  0  0  0  0  0  0
   27.6241  -19.9768  -13.5741 C   0  0  0  0  0  0  0  0  0  0  0  0
   27.2995  -18.4923  -13.5645 C   0  0  2  0  0  0  0  0  0  0  0  0
   26.3789  -20.7352  -13.3112 N   0  0  0  0  0  0  0  0  0  0  0  0
   25.3270  -20.5898  -14.2501 C   0  0  0  0  0  0  0  0  0  0  0  0
   25.9234  -20.5170  -11.9009 O   0  0  0  0  0  0  0  0  0  0  0  0
   25.0441  -19.6659  -11.6127 N   0  0  0  0  0  0  0  0  0  0  0  0
   26.4721  -21.2697  -10.8247 C   0  0  2  0  0  0  0  0  0  0  0  0
   26.2258  -20.9029   -9.4558 C   0  0  0  0  0  0  0  0  0  0  0  0
   26.9448  -21.7752   -8.4754 C   0  0  0  0  0  0  0  0  0  0  0  0
   26.8418  -21.2460   -7.0927 C   0  0  0  0  0  0  0  0  0  0  0  0
   25.6768  -21.0319   -6.3584 N   0  0  0  0  0  0  0  0  0  0  0  0
   26.0120  -20.5433   -5.1526 C   0  0  0  0  0  0  0  0  0  0  0  0
   27.3440  -20.4167   -5.0361 C   0  0  0  0  0  0  0  0  0  0  0  0
   28.1854  -19.9753   -4.0308 C   0  0  0  0  0  0  0  0  0  0  0  0
   29.5641  -19.9550   -4.1945 C   0  0  0  0  0  0  0  0  0  0  0  0
   30.0793  -20.3893   -5.3940 C   0  0  0  0  0  0  0  0  0  0  0  0
   29.2189  -20.8309   -6.3967 C   0  0  0  0  0  0  0  0  0  0  0  0
   27.8642  -20.8532   -6.2419 C   0  0  0  0  0  0  0  0  0  0  0  0
   26.6641  -19.5048   -9.2564 O   0  0  0  0  0  0  0  0  0  0  0  0
   25.9678  -18.6149   -8.4492 O   0  0  0  0  0  0  0  0  0  0  0  0
  1  2  1  0
  2  3  2  0
  4  2  1  0
  4  5  1  0
  5  6  1  0
  6  7  1  0
  7  8  1  0
  8 10  1  0
  8  9  1  6
 10 11  2  0
 10 16  1  0
 13 12  1  1
 13 15  1  0
 14 13  1  0
 15 17  1  0
 15 16  1  1
 17 18  2  0
 17 19  1  0
 19 20  1  0
 20 21  1  6
 21 22  1  0
 22 30  1  0
 22 23  2  0
 23 24  1  0
 24 25  1  0
 25 26  2  0
 27 26  1  0
 28 27  2  0
 29 30  2  0
 29 28  1  0
 30 25  1  0
 31 20  1  0
 31 32  1  0
 33 31  2  0
M  END
$$$$
