RVW.pdb
     RDKit          3D

 33 34  0  0  1  0  0  0  0  0999 V2000
   24.1903  -18.9919  -17.9478 N   0  0  0  0  0  0  0  0  0  0  0  0
   24.5079  -17.6981  -17.4204 C   0  0  0  0  0  0  0  0  0  0  0  0
   23.7543  -16.7118  -17.7804 N   0  0  0  0  0  0  0  0  0  0  0  0
   25.6047  -17.5073  -16.5393 N   0  0  0  0  0  0  0  0  0  0  0  0
   26.2496  -18.6482  -15.9698 C   0  0  0  0  0  0  0  0  0  0  0  0
   27.2642  -19.2896  -16.9213 C   0  0  0  0  0  0  0  0  0  0  0  0
   27.1425  -20.7781  -16.7337 C   0  0  0  0  0  0  0  0  0  0  0  0
   27.6988  -21.2917  -15.4555 C   0  0  2  0  0  0  0  0  0  0  0  0
   28.5050  -22.4591  -15.5461 N   0  0  0  0  0  0  0  0  0  0  0  0
   26.5340  -21.5707  -14.5491 C   0  0  0  0  0  0  0  0  0  0  0  0
   25.6265  -22.3817  -14.8880 O   0  0  0  0  0  0  0  0  0  0  0  0
   23.8917  -15.7272  -17.5053 C   0  0  0  0  0  0  0  0  0  0  0  0
   26.5546  -19.9541  -10.6496 C   0  0  2  0  0  0  0  0  0  0  0  0
   25.5435  -21.0221  -10.9519 C   0  0  0  0  0  0  0  0  0  0  0  0
   24.2538  -20.5627  -10.2926 C   0  0  2  0  0  0  0  0  0  0  0  0
   25.2873  -21.2353  -12.3954 N   0  0  0  0  0  0  0  0  0  0  0  0
   26.3590  -20.9711  -13.2847 C   0  0  0  0  0  0  0  0  0  0  0  0
   24.0191  -20.5520  -12.8063 O   0  0  0  0  0  0  0  0  0  0  0  0
   23.8100  -19.3375  -12.5576 N   0  0  0  0  0  0  0  0  0  0  0  0
   22.9939  -21.2559  -13.4988 C   0  0  1  0  0  0  0  0  0  0  0  0
   21.8152  -20.5817  -13.9728 C   0  0  0  0  0  0  0  0  0  0  0  0
   21.5044  -20.8791  -15.4060 C   0  0  0  0  0  0  0  0  0  0  0  0
   20.3200  -20.1200  -15.8789 C   0  0  0  0  0  0  0  0  0  0  0  0
   19.9470  -18.8284  -15.5117 N   0  0  0  0  0  0  0  0  0  0  0  0
   18.8150  -18.5069  -16.1599 C   0  0  0  0  0  0  0  0  0  0  0  0
   18.4053  -19.5160  -16.9458 C   0  0  0  0  0  0  0  0  0  0  0  0
   17.3318  -19.6977  -17.7992 C   0  0  0  0  0  0  0  0  0  0  0  0
   17.1567  -20.8811  -18.5039 C   0  0  0  0  0  0  0  0  0  0  0  0
   18.0867  -21.8802  -18.3314 C   0  0  0  0  0  0  0  0  0  0  0  0
   19.1622  -21.6821  -17.4685 C   0  0  0  0  0  0  0  0  0  0  0  0
   19.3397  -20.5223  -16.7736 C   0  0  0  0  0  0  0  0  0  0  0  0
   20.6661  -21.0012  -13.1420 O   0  0  0  0  0  0  0  0  0  0  0  0
   19.6127  -20.1471  -12.8435 O   0  0  0  0  0  0  0  0  0  0  0  0
  1  2  1  0
  2  3  2  0
  4  2  1  0
  4  5  1  0
  5  6  1  0
  6  7  1  0
  7  8  1  0
  8 10  1  0
  8  9  1  6
 10 11  2  0
 10 16  1  0
 13 12  1  1
 13 15  1  0
 14 13  1  0
 15 17  1  0
 15 16  1  1
 17 18  2  0
 17 19  1  0
 19 20  1  0
 20 21  1  1
 21 22  1  0
 22 30  1  0
 22 23  2  0
 23 24  1  0
 24 25  1  0
 25 26  2  0
 27 26  1  0
 28 27  2  0
 29 30  2  0
 29 28  1  0
 30 25  1  0
 31 20  1  0
 31 32  1  0
 33 31  2  0
M  END
$$$$
