RVW.pdb
     RDKit          3D

 33 34  0  0  1  0  0  0  0  0999 V2000
   20.9467  -26.5329  -16.2642 N   0  0  0  0  0  0  0  0  0  0  0  0
   20.3108  -25.4404  -16.9387 C   0  0  0  0  0  0  0  0  0  0  0  0
   19.0800  -25.6034  -17.2979 N   0  0  0  0  0  0  0  0  0  0  0  0
   21.0036  -24.2293  -17.2017 N   0  0  0  0  0  0  0  0  0  0  0  0
   22.1415  -23.8892  -16.4071 C   0  0  0  0  0  0  0  0  0  0  0  0
   22.4519  -24.9417  -15.3385 C   0  0  0  0  0  0  0  0  0  0  0  0
   23.9313  -24.8573  -15.0743 C   0  0  0  0  0  0  0  0  0  0  0  0
   24.6117  -23.6990  -15.7087 C   0  0  2  0  0  0  0  0  0  0  0  0
   25.3329  -23.9720  -16.9031 N   0  0  0  0  0  0  0  0  0  0  0  0
   25.5543  -23.1290  -14.6876 C   0  0  0  0  0  0  0  0  0  0  0  0
   26.1578  -23.8793  -13.8697 O   0  0  0  0  0  0  0  0  0  0  0  0
   18.5115  -24.9080  -17.8050 C   0  0  0  0  0  0  0  0  0  0  0  0
   28.0858  -19.9043  -15.2524 C   0  0  2  0  0  0  0  0  0  0  0  0
   27.3479  -19.8961  -13.9448 C   0  0  0  0  0  0  0  0  0  0  0  0
   26.2670  -18.8381  -14.0919 C   0  0  2  0  0  0  0  0  0  0  0  0
   26.7050  -21.1837  -13.5935 N   0  0  0  0  0  0  0  0  0  0  0  0
   25.8366  -21.7534  -14.5582 C   0  0  0  0  0  0  0  0  0  0  0  0
   26.0782  -21.1002  -12.2355 O   0  0  0  0  0  0  0  0  0  0  0  0
   24.8701  -20.7884  -12.0813 N   0  0  0  0  0  0  0  0  0  0  0  0
   26.8309  -21.3721  -11.0585 C   0  0  2  0  0  0  0  0  0  0  0  0
   26.2427  -21.2500   -9.7517 C   0  0  0  0  0  0  0  0  0  0  0  0
   27.1488  -21.7118   -8.6540 C   0  0  0  0  0  0  0  0  0  0  0  0
   26.9230  -20.9503   -7.4003 C   0  0  0  0  0  0  0  0  0  0  0  0
   25.7125  -20.7643   -6.7352 N   0  0  0  0  0  0  0  0  0  0  0  0
   25.9329  -20.0152   -5.6420 C   0  0  0  0  0  0  0  0  0  0  0  0
   27.2308  -19.6862   -5.5356 C   0  0  0  0  0  0  0  0  0  0  0  0
   27.9666  -18.9509   -4.6238 C   0  0  0  0  0  0  0  0  0  0  0  0
   29.3355  -18.7719   -4.7714 C   0  0  0  0  0  0  0  0  0  0  0  0
   29.9498  -19.3495   -5.8585 C   0  0  0  0  0  0  0  0  0  0  0  0
   29.1951  -20.0871   -6.7680 C   0  0  0  0  0  0  0  0  0  0  0  0
   27.8506  -20.2665   -6.6285 C   0  0  0  0  0  0  0  0  0  0  0  0
   25.9023  -19.8299   -9.5190 O   0  0  0  0  0  0  0  0  0  0  0  0
   24.7342  -19.4404   -8.8772 O   0  0  0  0  0  0  0  0  0  0  0  0
  1  2  1  0
  2  3  2  0
  4  2  1  0
  4  5  1  0
  5  6  1  0
  6  7  1  0
  7  8  1  0
  8 10  1  0
  8  9  1  6
 10 11  2  0
 10 16  1  0
 13 12  1  1
 13 15  1  0
 14 13  1  0
 15 17  1  0
 15 16  1  1
 17 18  2  0
 17 19  1  0
 19 20  1  0
 20 21  1  6
 21 22  1  0
 22 30  1  0
 22 23  2  0
 23 24  1  0
 24 25  1  0
 25 26  2  0
 27 26  1  0
 28 27  2  0
 29 30  2  0
 29 28  1  0
 30 25  1  0
 31 20  1  0
 31 32  1  0
 33 31  2  0
M  END
$$$$
