RVW.pdb
     RDKit          3D

 33 34  0  0  1  0  0  0  0  0999 V2000
   30.0020  -20.2760  -19.7090 N   0  0  0  0  0  0  0  0  0  0  0  0
   29.1208  -19.1633  -19.9043 C   0  0  0  0  0  0  0  0  0  0  0  0
   28.9906  -18.7170  -21.1103 N   0  0  0  0  0  0  0  0  0  0  0  0
   28.4199  -18.5752  -18.8187 N   0  0  0  0  0  0  0  0  0  0  0  0
   28.4410  -19.2191  -17.5431 C   0  0  0  0  0  0  0  0  0  0  0  0
   27.2458  -20.1536  -17.3331 C   0  0  0  0  0  0  0  0  0  0  0  0
   26.9175  -20.1023  -15.8651 C   0  0  0  0  0  0  0  0  0  0  0  0
   27.2064  -21.3539  -15.1188 C   0  0  2  0  0  0  0  0  0  0  0  0
   27.2997  -22.5406  -15.8961 N   0  0  0  0  0  0  0  0  0  0  0  0
   26.1151  -21.5208  -14.1003 C   0  0  0  0  0  0  0  0  0  0  0  0
   25.0021  -22.0277  -14.4174 O   0  0  0  0  0  0  0  0  0  0  0  0
   28.4107  -17.9098  -21.3863 C   0  0  0  0  0  0  0  0  0  0  0  0
   26.2702  -19.7833  -10.0147 C   0  0  2  0  0  0  0  0  0  0  0  0
   25.5901  -21.0758  -10.3629 C   0  0  0  0  0  0  0  0  0  0  0  0
   24.3358  -21.1215   -9.5062 C   0  0  1  0  0  0  0  0  0  0  0  0
   25.1962  -21.1994  -11.7856 N   0  0  0  0  0  0  0  0  0  0  0  0
   26.2350  -21.1385  -12.7482 C   0  0  0  0  0  0  0  0  0  0  0  0
   24.0691  -20.2634  -12.0979 O   0  0  0  0  0  0  0  0  0  0  0  0
   24.2676  -19.0479  -12.3503 N   0  0  0  0  0  0  0  0  0  0  0  0
   22.7200  -20.7165  -12.1209 C   0  0  1  0  0  0  0  0  0  0  0  0
   21.7704  -20.1855  -13.0618 C   0  0  0  0  0  0  0  0  0  0  0  0
   22.1765  -20.3930  -14.4869 C   0  0  0  0  0  0  0  0  0  0  0  0
   21.2497  -19.7128  -15.4255 C   0  0  0  0  0  0  0  0  0  0  0  0
   20.9143  -18.3602  -15.4443 N   0  0  0  0  0  0  0  0  0  0  0  0
   20.0446  -18.1465  -16.4458 C   0  0  0  0  0  0  0  0  0  0  0  0
   19.7760  -19.2863  -17.1036 C   0  0  0  0  0  0  0  0  0  0  0  0
   18.9713  -19.6099  -18.1812 C   0  0  0  0  0  0  0  0  0  0  0  0
   18.8876  -20.9106  -18.6600 C   0  0  0  0  0  0  0  0  0  0  0  0
   19.6322  -21.8808  -18.0301 C   0  0  0  0  0  0  0  0  0  0  0  0
   20.4379  -21.5392  -16.9462 C   0  0  0  0  0  0  0  0  0  0  0  0
   20.5244  -20.2638  -16.4713 C   0  0  0  0  0  0  0  0  0  0  0  0
   20.4666  -20.8469  -12.8396 O   0  0  0  0  0  0  0  0  0  0  0  0
   20.3532  -22.2138  -12.6229 O   0  0  0  0  0  0  0  0  0  0  0  0
  1  2  1  0
  2  3  2  0
  4  2  1  0
  4  5  1  0
  5  6  1  0
  6  7  1  0
  7  8  1  0
  8 10  1  0
  8  9  1  6
 10 11  2  0
 10 16  1  0
 13 12  1  1
 13 15  1  0
 14 13  1  0
 15 17  1  0
 15 16  1  1
 17 18  2  0
 17 19  1  0
 19 20  1  0
 20 21  1  1
 21 22  1  0
 22 30  1  0
 22 23  2  0
 23 24  1  0
 24 25  1  0
 25 26  2  0
 27 26  1  0
 28 27  2  0
 29 30  2  0
 29 28  1  0
 30 25  1  0
 31 20  1  0
 31 32  1  0
 33 31  2  0
M  END
$$$$
