RVW.pdb
     RDKit          3D

 33 34  0  0  1  0  0  0  0  0999 V2000
   28.7631  -27.4663  -16.5228 N   0  0  0  0  0  0  0  0  0  0  0  0
   27.8307  -28.4662  -16.9513 C   0  0  0  0  0  0  0  0  0  0  0  0
   28.2516  -29.6874  -16.9939 N   0  0  0  0  0  0  0  0  0  0  0  0
   26.4998  -28.1298  -17.3141 N   0  0  0  0  0  0  0  0  0  0  0  0
   26.0489  -26.7844  -17.1449 C   0  0  0  0  0  0  0  0  0  0  0  0
   25.8334  -26.4140  -15.6745 C   0  0  0  0  0  0  0  0  0  0  0  0
   25.2485  -25.0271  -15.6656 C   0  0  0  0  0  0  0  0  0  0  0  0
   26.0977  -23.9896  -16.3055 C   0  0  2  0  0  0  0  0  0  0  0  0
   27.4861  -24.0418  -16.0042 N   0  0  0  0  0  0  0  0  0  0  0  0
   25.5551  -22.6544  -15.8824 C   0  0  0  0  0  0  0  0  0  0  0  0
   25.7725  -22.2024  -14.7228 O   0  0  0  0  0  0  0  0  0  0  0  0
   27.7367  -30.4798  -17.4072 C   0  0  0  0  0  0  0  0  0  0  0  0
   25.4320  -19.1890  -18.1021 C   0  0  2  0  0  0  0  0  0  0  0  0
   24.1395  -19.5398  -17.4233 C   0  0  0  0  0  0  0  0  0  0  0  0
   23.2430  -20.0997  -18.5151 C   0  0  2  0  0  0  0  0  0  0  0  0
   24.2644  -20.5515  -16.3484 N   0  0  0  0  0  0  0  0  0  0  0  0
   24.7822  -21.8191  -16.7151 C   0  0  0  0  0  0  0  0  0  0  0  0
   22.9833  -20.6558  -15.5791 O   0  0  0  0  0  0  0  0  0  0  0  0
   22.1311  -21.5459  -15.8284 N   0  0  0  0  0  0  0  0  0  0  0  0
   22.6783  -19.7450  -14.5287 C   0  0  2  0  0  0  0  0  0  0  0  0
   21.4637  -19.8634  -13.7675 C   0  0  0  0  0  0  0  0  0  0  0  0
   21.3915  -18.9021  -12.6230 C   0  0  0  0  0  0  0  0  0  0  0  0
   20.1393  -19.0703  -11.8443 C   0  0  0  0  0  0  0  0  0  0  0  0
   19.8929  -20.0028  -10.8383 N   0  0  0  0  0  0  0  0  0  0  0  0
   18.6397  -19.8275  -10.3868 C   0  0  0  0  0  0  0  0  0  0  0  0
   18.0280  -18.8242  -11.0372 C   0  0  0  0  0  0  0  0  0  0  0  0
   16.7712  -18.2514  -10.9607 C   0  0  0  0  0  0  0  0  0  0  0  0
   16.4040  -17.1940  -11.7823 C   0  0  0  0  0  0  0  0  0  0  0  0
   17.3302  -16.7242  -12.6846 C   0  0  0  0  0  0  0  0  0  0  0  0
   18.5918  -17.3115  -12.7496 C   0  0  0  0  0  0  0  0  0  0  0  0
   18.9584  -18.3501  -11.9455 C   0  0  0  0  0  0  0  0  0  0  0  0
   20.3172  -19.6149  -14.6678 O   0  0  0  0  0  0  0  0  0  0  0  0
   19.1544  -20.3722  -14.6178 O   0  0  0  0  0  0  0  0  0  0  0  0
  1  2  1  0
  2  3  2  0
  4  2  1  0
  4  5  1  0
  5  6  1  0
  6  7  1  0
  7  8  1  0
  8 10  1  0
  8  9  1  1
 10 11  2  0
 10 16  1  0
 13 12  1  6
 13 15  1  0
 14 13  1  0
 15 17  1  0
 15 16  1  1
 17 18  2  0
 17 19  1  0
 19 20  1  0
 20 21  1  6
 21 22  1  0
 22 30  1  0
 22 23  2  0
 23 24  1  0
 24 25  1  0
 25 26  2  0
 27 26  1  0
 28 27  2  0
 29 30  2  0
 29 28  1  0
 30 25  1  0
 31 20  1  0
 31 32  1  0
 33 31  2  0
M  END
$$$$
