RVW.pdb
     RDKit          3D

 33 34  0  0  1  0  0  0  0  0999 V2000
   25.2339  -31.5792  -15.9460 N   0  0  0  0  0  0  0  0  0  0  0  0
   24.1611  -31.3199  -16.8596 C   0  0  0  0  0  0  0  0  0  0  0  0
   24.3237  -31.6981  -18.0847 N   0  0  0  0  0  0  0  0  0  0  0  0
   22.9692  -30.6744  -16.4370 N   0  0  0  0  0  0  0  0  0  0  0  0
   22.5673  -30.7761  -15.0695 C   0  0  0  0  0  0  0  0  0  0  0  0
   21.4941  -31.8460  -14.8471 C   0  0  0  0  0  0  0  0  0  0  0  0
   21.6311  -32.2964  -13.4175 C   0  0  0  0  0  0  0  0  0  0  0  0
   22.8935  -33.0169  -13.1104 C   0  0  2  0  0  0  0  0  0  0  0  0
   23.1871  -34.1438  -13.9258 N   0  0  0  0  0  0  0  0  0  0  0  0
   22.8106  -33.4585  -11.6771 C   0  0  0  0  0  0  0  0  0  0  0  0
   22.0013  -34.3608  -11.3207 O   0  0  0  0  0  0  0  0  0  0  0  0
   23.6485  -31.5442  -18.8491 C   0  0  0  0  0  0  0  0  0  0  0  0
   26.1298  -33.2604   -9.1234 C   0  0  2  0  0  0  0  0  0  0  0  0
   24.7979  -33.0047   -8.4792 C   0  0  0  0  0  0  0  0  0  0  0  0
   24.7424  -31.5057   -8.2359 C   0  0  2  0  0  0  0  0  0  0  0  0
   23.6309  -33.3936   -9.3047 N   0  0  0  0  0  0  0  0  0  0  0  0
   23.6023  -32.9214  -10.6409 C   0  0  0  0  0  0  0  0  0  0  0  0
   22.3559  -33.1138   -8.5698 O   0  0  0  0  0  0  0  0  0  0  0  0
   21.9351  -31.9420   -8.3952 N   0  0  0  0  0  0  0  0  0  0  0  0
   21.5656  -34.1707   -8.0366 C   0  0  1  0  0  0  0  0  0  0  0  0
   20.3209  -33.9065   -7.3660 C   0  0  0  0  0  0  0  0  0  0  0  0
   19.4207  -35.1004   -7.3064 C   0  0  0  0  0  0  0  0  0  0  0  0
   18.0972  -34.7604   -6.7274 C   0  0  0  0  0  0  0  0  0  0  0  0
   17.2710  -33.6962   -7.0842 N   0  0  0  0  0  0  0  0  0  0  0  0
   16.1642  -33.7371   -6.3238 C   0  0  0  0  0  0  0  0  0  0  0  0
   16.2017  -34.7747   -5.4719 C   0  0  0  0  0  0  0  0  0  0  0  0
   15.3413  -35.2559   -4.5014 C   0  0  0  0  0  0  0  0  0  0  0  0
   15.6498  -36.3834   -3.7520 C   0  0  0  0  0  0  0  0  0  0  0  0
   16.8451  -37.0177   -4.0002 C   0  0  0  0  0  0  0  0  0  0  0  0
   17.7009  -36.5210   -4.9808 C   0  0  0  0  0  0  0  0  0  0  0  0
   17.4036  -35.4143   -5.7200 C   0  0  0  0  0  0  0  0  0  0  0  0
   20.6138  -33.4647   -5.9856 O   0  0  0  0  0  0  0  0  0  0  0  0
   21.6834  -33.9657   -5.2553 O   0  0  0  0  0  0  0  0  0  0  0  0
  1  2  1  0
  2  3  2  0
  4  2  1  0
  4  5  1  0
  5  6  1  0
  6  7  1  0
  7  8  1  0
  8 10  1  0
  8  9  1  6
 10 11  2  0
 10 16  1  0
 13 12  1  1
 13 15  1  0
 14 13  1  0
 15 17  1  0
 15 16  1  1
 17 18  2  0
 17 19  1  0
 19 20  1  0
 20 21  1  1
 21 22  1  0
 22 30  1  0
 22 23  2  0
 23 24  1  0
 24 25  1  0
 25 26  2  0
 27 26  1  0
 28 27  2  0
 29 30  2  0
 29 28  1  0
 30 25  1  0
 31 20  1  0
 31 32  1  0
 33 31  2  0
M  END
$$$$
