RVW.pdb
     RDKit          3D

 33 34  0  0  1  0  0  0  0  0999 V2000
   30.9145  -32.1041  -16.0334 N   0  0  0  0  0  0  0  0  0  0  0  0
   31.6166  -31.1550  -16.8453 C   0  0  0  0  0  0  0  0  0  0  0  0
   32.9081  -31.1888  -16.8109 N   0  0  0  0  0  0  0  0  0  0  0  0
   30.9227  -30.2165  -17.6538 N   0  0  0  0  0  0  0  0  0  0  0  0
   29.5061  -30.3337  -17.8003 C   0  0  0  0  0  0  0  0  0  0  0  0
   29.1021  -31.0174  -19.1099 C   0  0  0  0  0  0  0  0  0  0  0  0
   27.5982  -30.9850  -19.1613 C   0  0  0  0  0  0  0  0  0  0  0  0
   26.9285  -32.1438  -18.5166 C   0  0  2  0  0  0  0  0  0  0  0  0
   27.0545  -33.3925  -19.1843 N   0  0  0  0  0  0  0  0  0  0  0  0
   25.4716  -31.7986  -18.3956 C   0  0  0  0  0  0  0  0  0  0  0  0
   24.6396  -32.1759  -19.2683 O   0  0  0  0  0  0  0  0  0  0  0  0
   33.5338  -30.5971  -17.3788 C   0  0  0  0  0  0  0  0  0  0  0  0
   23.6098  -32.4315  -15.3207 C   0  0  2  0  0  0  0  0  0  0  0  0
   22.8698  -31.3072  -15.9860 C   0  0  0  0  0  0  0  0  0  0  0  0
   22.7433  -30.2204  -14.9314 C   0  0  2  0  0  0  0  0  0  0  0  0
   23.5521  -30.7388  -17.1718 N   0  0  0  0  0  0  0  0  0  0  0  0
   24.9259  -31.0486  -17.3333 C   0  0  0  0  0  0  0  0  0  0  0  0
   23.2792  -29.2696  -17.2760 O   0  0  0  0  0  0  0  0  0  0  0  0
   23.8823  -28.4310  -16.5594 N   0  0  0  0  0  0  0  0  0  0  0  0
   22.3196  -28.7619  -18.1966 C   0  0  2  0  0  0  0  0  0  0  0  0
   21.9914  -27.3621  -18.2363 C   0  0  0  0  0  0  0  0  0  0  0  0
   21.2776  -26.9613  -19.4889 C   0  0  0  0  0  0  0  0  0  0  0  0
   21.0949  -25.4907  -19.5689 C   0  0  0  0  0  0  0  0  0  0  0  0
   22.0762  -24.5333  -19.8193 N   0  0  0  0  0  0  0  0  0  0  0  0
   21.5041  -23.3177  -19.8080 C   0  0  0  0  0  0  0  0  0  0  0  0
   20.1867  -23.4063  -19.5625 C   0  0  0  0  0  0  0  0  0  0  0  0
   19.1639  -22.4820  -19.4477 C   0  0  0  0  0  0  0  0  0  0  0  0
   17.8584  -22.8731  -19.1818 C   0  0  0  0  0  0  0  0  0  0  0  0
   17.6033  -24.2168  -19.0335 C   0  0  0  0  0  0  0  0  0  0  0  0
   18.6439  -25.1354  -19.1521 C   0  0  0  0  0  0  0  0  0  0  0  0
   19.9279  -24.7576  -19.4131 C   0  0  0  0  0  0  0  0  0  0  0  0
   21.1280  -27.0474  -17.0778 O   0  0  0  0  0  0  0  0  0  0  0  0
   21.3215  -25.9202  -16.2903 O   0  0  0  0  0  0  0  0  0  0  0  0
  1  2  1  0
  2  3  2  0
  4  2  1  0
  4  5  1  0
  5  6  1  0
  6  7  1  0
  7  8  1  0
  8 10  1  0
  8  9  1  6
 10 11  2  0
 10 16  1  0
 13 12  1  1
 13 15  1  0
 14 13  1  0
 15 17  1  0
 15 16  1  6
 17 18  2  0
 17 19  1  0
 19 20  1  0
 20 21  1  1
 21 22  1  0
 22 30  1  0
 22 23  2  0
 23 24  1  0
 24 25  1  0
 25 26  2  0
 27 26  1  0
 28 27  2  0
 29 30  2  0
 29 28  1  0
 30 25  1  0
 31 20  1  0
 31 32  1  0
 33 31  2  0
M  END
$$$$
