RVW.pdb
     RDKit          3D

 33 34  0  0  1  0  0  0  0  0999 V2000
   33.1502  -24.5803  -13.5639 N   0  0  0  0  0  0  0  0  0  0  0  0
   33.2198  -25.1439  -14.8793 C   0  0  0  0  0  0  0  0  0  0  0  0
   34.3162  -25.7443  -15.2078 N   0  0  0  0  0  0  0  0  0  0  0  0
   32.1301  -25.0471  -15.7843 N   0  0  0  0  0  0  0  0  0  0  0  0
   30.9801  -24.2842  -15.4133 C   0  0  0  0  0  0  0  0  0  0  0  0
   31.2013  -22.7753  -15.5546 C   0  0  0  0  0  0  0  0  0  0  0  0
   30.1910  -22.1107  -14.6585 C   0  0  0  0  0  0  0  0  0  0  0  0
   28.8064  -22.0813  -15.1962 C   0  0  2  0  0  0  0  0  0  0  0  0
   28.6710  -21.7054  -16.5606 N   0  0  0  0  0  0  0  0  0  0  0  0
   28.0238  -21.1229  -14.3447 C   0  0  0  0  0  0  0  0  0  0  0  0
   28.3285  -19.8977  -14.2973 O   0  0  0  0  0  0  0  0  0  0  0  0
   34.4930  -26.2061  -16.1130 C   0  0  0  0  0  0  0  0  0  0  0  0
   24.9663  -19.5707  -14.6773 C   0  0  2  0  0  0  0  0  0  0  0  0
   24.8773  -20.1283  -13.2861 C   0  0  0  0  0  0  0  0  0  0  0  0
   23.9121  -21.2986  -13.3755 C   0  0  2  0  0  0  0  0  0  0  0  0
   26.1634  -20.6165  -12.7361 N   0  0  0  0  0  0  0  0  0  0  0  0
   26.9192  -21.4959  -13.5514 C   0  0  0  0  0  0  0  0  0  0  0  0
   25.9696  -21.1452  -11.3479 O   0  0  0  0  0  0  0  0  0  0  0  0
   25.8238  -22.3731  -11.1208 N   0  0  0  0  0  0  0  0  0  0  0  0
   25.9426  -20.2722  -10.2241 C   0  0  1  0  0  0  0  0  0  0  0  0
   25.7176  -20.7736   -8.8949 C   0  0  0  0  0  0  0  0  0  0  0  0
   26.2580  -19.8740   -7.8282 C   0  0  0  0  0  0  0  0  0  0  0  0
   27.7018  -20.1175   -7.5856 C   0  0  0  0  0  0  0  0  0  0  0  0
   28.6313  -20.6325   -8.4873 N   0  0  0  0  0  0  0  0  0  0  0  0
   29.8282  -20.6985   -7.8805 C   0  0  0  0  0  0  0  0  0  0  0  0
   29.7534  -20.2543   -6.6153 C   0  0  0  0  0  0  0  0  0  0  0  0
   30.6689  -20.1143   -5.5878 C   0  0  0  0  0  0  0  0  0  0  0  0
   30.2976  -19.6112   -4.3480 C   0  0  0  0  0  0  0  0  0  0  0  0
   28.9827  -19.2512   -4.1636 C   0  0  0  0  0  0  0  0  0  0  0  0
   28.0726  -19.3982   -5.2081 C   0  0  0  0  0  0  0  0  0  0  0  0
   28.4311  -19.8916   -6.4278 C   0  0  0  0  0  0  0  0  0  0  0  0
   24.2614  -20.9294   -8.6903 O   0  0  0  0  0  0  0  0  0  0  0  0
   23.7324  -21.6437   -7.6234 O   0  0  0  0  0  0  0  0  0  0  0  0
  1  2  1  0
  2  3  2  0
  4  2  1  0
  4  5  1  0
  5  6  1  0
  6  7  1  0
  7  8  1  0
  8 10  1  0
  8  9  1  6
 10 11  2  0
 10 16  1  0
 13 12  1  1
 13 15  1  0
 14 13  1  0
 15 17  1  0
 15 16  1  1
 17 18  2  0
 17 19  1  0
 19 20  1  0
 20 21  1  1
 21 22  1  0
 22 30  1  0
 22 23  2  0
 23 24  1  0
 24 25  1  0
 25 26  2  0
 27 26  1  0
 28 27  2  0
 29 30  2  0
 29 28  1  0
 30 25  1  0
 31 20  1  0
 31 32  1  0
 33 31  2  0
M  END
$$$$
