RVW.pdb
     RDKit          3D

 33 34  0  0  1  0  0  0  0  0999 V2000
   28.7996  -26.0663  -17.7368 N   0  0  0  0  0  0  0  0  0  0  0  0
   27.6387  -25.6245  -17.0228 C   0  0  0  0  0  0  0  0  0  0  0  0
   27.7101  -24.4782  -16.4300 N   0  0  0  0  0  0  0  0  0  0  0  0
   26.4591  -26.4128  -16.9683 N   0  0  0  0  0  0  0  0  0  0  0  0
   26.4679  -27.7228  -17.5392 C   0  0  0  0  0  0  0  0  0  0  0  0
   27.7196  -28.5221  -17.1648 C   0  0  0  0  0  0  0  0  0  0  0  0
   27.2616  -29.9306  -16.8967 C   0  0  0  0  0  0  0  0  0  0  0  0
   27.7511  -30.5117  -15.6202 C   0  0  2  0  0  0  0  0  0  0  0  0
   29.1621  -30.6032  -15.4726 N   0  0  0  0  0  0  0  0  0  0  0  0
   27.1572  -31.8867  -15.5063 C   0  0  0  0  0  0  0  0  0  0  0  0
   27.7537  -32.8938  -15.9817 O   0  0  0  0  0  0  0  0  0  0  0  0
   26.9376  -24.0235  -15.9197 C   0  0  0  0  0  0  0  0  0  0  0  0
   25.9289  -33.1300  -11.9838 C   0  0  2  0  0  0  0  0  0  0  0  0
   24.9596  -33.5274  -13.0593 C   0  0  0  0  0  0  0  0  0  0  0  0
   23.7913  -32.5639  -12.9333 C   0  0  2  0  0  0  0  0  0  0  0  0
   25.4991  -33.4395  -14.4362 N   0  0  0  0  0  0  0  0  0  0  0  0
   25.9239  -32.1622  -14.8803 C   0  0  0  0  0  0  0  0  0  0  0  0
   24.5684  -34.1032  -15.4043 O   0  0  0  0  0  0  0  0  0  0  0  0
   23.8519  -33.4395  -16.1960 N   0  0  0  0  0  0  0  0  0  0  0  0
   24.4577  -35.5209  -15.4661 C   0  0  2  0  0  0  0  0  0  0  0  0
   23.4966  -36.1576  -16.3262 C   0  0  0  0  0  0  0  0  0  0  0  0
   23.6643  -37.6428  -16.3967 C   0  0  0  0  0  0  0  0  0  0  0  0
   22.7781  -38.2463  -17.4229 C   0  0  0  0  0  0  0  0  0  0  0  0
   22.4404  -37.7092  -18.6638 N   0  0  0  0  0  0  0  0  0  0  0  0
   21.6153  -38.5634  -19.2920 C   0  0  0  0  0  0  0  0  0  0  0  0
   21.3791  -39.6494  -18.5380 C   0  0  0  0  0  0  0  0  0  0  0  0
   20.6238  -40.7955  -18.7095 C   0  0  0  0  0  0  0  0  0  0  0  0
   20.5647  -41.7793  -17.7315 C   0  0  0  0  0  0  0  0  0  0  0  0
   21.2834  -41.5850  -16.5745 C   0  0  0  0  0  0  0  0  0  0  0  0
   22.0393  -40.4255  -16.4167 C   0  0  0  0  0  0  0  0  0  0  0  0
   22.1013  -39.4558  -17.3734 C   0  0  0  0  0  0  0  0  0  0  0  0
   22.1399  -35.8575  -15.8204 O   0  0  0  0  0  0  0  0  0  0  0  0
   21.8161  -35.9287  -14.4720 O   0  0  0  0  0  0  0  0  0  0  0  0
  1  2  1  0
  2  3  2  0
  4  2  1  0
  4  5  1  0
  5  6  1  0
  6  7  1  0
  7  8  1  0
  8 10  1  0
  8  9  1  6
 10 11  2  0
 10 16  1  0
 13 12  1  1
 13 15  1  0
 14 13  1  0
 15 17  1  0
 15 16  1  6
 17 18  2  0
 17 19  1  0
 19 20  1  0
 20 21  1  1
 21 22  1  0
 22 30  1  0
 22 23  2  0
 23 24  1  0
 24 25  1  0
 25 26  2  0
 27 26  1  0
 28 27  2  0
 29 30  2  0
 29 28  1  0
 30 25  1  0
 31 20  1  0
 31 32  1  0
 33 31  2  0
M  END
$$$$
