RVW.pdb
     RDKit          3D

 33 34  0  0  1  0  0  0  0  0999 V2000
   29.3017  -28.2026  -17.5584 N   0  0  0  0  0  0  0  0  0  0  0  0
   28.1185  -27.9553  -16.7891 C   0  0  0  0  0  0  0  0  0  0  0  0
   27.4499  -28.9851  -16.3857 N   0  0  0  0  0  0  0  0  0  0  0  0
   27.6980  -26.6343  -16.4827 N   0  0  0  0  0  0  0  0  0  0  0  0
   28.1548  -25.5503  -17.2940 C   0  0  0  0  0  0  0  0  0  0  0  0
   29.4022  -24.8695  -16.7227 C   0  0  0  0  0  0  0  0  0  0  0  0
   28.9133  -23.7242  -15.8773 C   0  0  0  0  0  0  0  0  0  0  0  0
   28.1298  -22.6982  -16.6125 C   0  0  2  0  0  0  0  0  0  0  0  0
   28.7690  -22.1066  -17.7360 N   0  0  0  0  0  0  0  0  0  0  0  0
   27.7796  -21.6213  -15.6256 C   0  0  0  0  0  0  0  0  0  0  0  0
   28.5519  -20.6402  -15.4329 O   0  0  0  0  0  0  0  0  0  0  0  0
   26.5683  -28.9497  -15.8514 C   0  0  0  0  0  0  0  0  0  0  0  0
   25.1863  -19.1157  -15.7808 C   0  0  2  0  0  0  0  0  0  0  0  0
   25.0304  -19.7509  -14.4293 C   0  0  0  0  0  0  0  0  0  0  0  0
   23.8164  -20.6581  -14.5414 C   0  0  2  0  0  0  0  0  0  0  0  0
   26.1901  -20.5637  -13.9945 N   0  0  0  0  0  0  0  0  0  0  0  0
   26.5985  -21.6135  -14.8550 C   0  0  0  0  0  0  0  0  0  0  0  0
   26.0058  -21.0204  -12.5798 O   0  0  0  0  0  0  0  0  0  0  0  0
   25.6331  -22.1890  -12.3039 N   0  0  0  0  0  0  0  0  0  0  0  0
   26.2468  -20.1433  -11.4851 C   0  0  1  0  0  0  0  0  0  0  0  0
   26.1015  -20.5894  -10.1254 C   0  0  0  0  0  0  0  0  0  0  0  0
   27.1663  -20.0607   -9.2166 C   0  0  0  0  0  0  0  0  0  0  0  0
   26.8878  -20.3900   -7.7966 C   0  0  0  0  0  0  0  0  0  0  0  0
   25.9365  -21.2856   -7.3115 N   0  0  0  0  0  0  0  0  0  0  0  0
   26.0003  -21.2958   -5.9695 C   0  0  0  0  0  0  0  0  0  0  0  0
   26.9463  -20.4527   -5.5245 C   0  0  0  0  0  0  0  0  0  0  0  0
   27.4060  -20.0964   -4.2694 C   0  0  0  0  0  0  0  0  0  0  0  0
   28.4275  -19.1701   -4.1063 C   0  0  0  0  0  0  0  0  0  0  0  0
   28.9777  -18.6087   -5.2353 C   0  0  0  0  0  0  0  0  0  0  0  0
   28.5039  -18.9778   -6.4923 C   0  0  0  0  0  0  0  0  0  0  0  0
   27.5012  -19.8867   -6.6590 C   0  0  0  0  0  0  0  0  0  0  0  0
   24.7845  -20.1441   -9.6215 O   0  0  0  0  0  0  0  0  0  0  0  0
   24.1314  -20.7865   -8.5780 O   0  0  0  0  0  0  0  0  0  0  0  0
  1  2  1  0
  2  3  2  0
  4  2  1  0
  4  5  1  0
  5  6  1  0
  6  7  1  0
  7  8  1  0
  8 10  1  0
  8  9  1  6
 10 11  2  0
 10 16  1  0
 13 12  1  1
 13 15  1  0
 14 13  1  0
 15 17  1  0
 15 16  1  1
 17 18  2  0
 17 19  1  0
 19 20  1  0
 20 21  1  1
 21 22  1  0
 22 30  1  0
 22 23  2  0
 23 24  1  0
 24 25  1  0
 25 26  2  0
 27 26  1  0
 28 27  2  0
 29 30  2  0
 29 28  1  0
 30 25  1  0
 31 20  1  0
 31 32  1  0
 33 31  2  0
M  END
$$$$
