RVW.pdb
     RDKit          3D

 33 34  0  0  1  0  0  0  0  0999 V2000
   29.4234  -28.2814  -17.6883 N   0  0  0  0  0  0  0  0  0  0  0  0
   28.2626  -28.3519  -16.8514 C   0  0  0  0  0  0  0  0  0  0  0  0
   27.8122  -29.5286  -16.5633 N   0  0  0  0  0  0  0  0  0  0  0  0
   27.6332  -27.1783  -16.3590 N   0  0  0  0  0  0  0  0  0  0  0  0
   27.8301  -25.9403  -17.0450 C   0  0  0  0  0  0  0  0  0  0  0  0
   29.1375  -25.2472  -16.6497 C   0  0  0  0  0  0  0  0  0  0  0  0
   28.7505  -24.0256  -15.8601 C   0  0  0  0  0  0  0  0  0  0  0  0
   27.9162  -23.0446  -16.6006 C   0  0  2  0  0  0  0  0  0  0  0  0
   28.4731  -22.5280  -17.8023 N   0  0  0  0  0  0  0  0  0  0  0  0
   27.6379  -21.9059  -15.6614 C   0  0  0  0  0  0  0  0  0  0  0  0
   28.5123  -21.0230  -15.4332 O   0  0  0  0  0  0  0  0  0  0  0  0
   26.9909  -29.7221  -15.9701 C   0  0  0  0  0  0  0  0  0  0  0  0
   25.2303  -19.1110  -15.9172 C   0  0  2  0  0  0  0  0  0  0  0  0
   25.0149  -19.7367  -14.5695 C   0  0  0  0  0  0  0  0  0  0  0  0
   23.7354  -20.5469  -14.6945 C   0  0  2  0  0  0  0  0  0  0  0  0
   26.1048  -20.6383  -14.1290 N   0  0  0  0  0  0  0  0  0  0  0  0
   26.4177  -21.7308  -14.9762 C   0  0  0  0  0  0  0  0  0  0  0  0
   25.8916  -21.0579  -12.7068 O   0  0  0  0  0  0  0  0  0  0  0  0
   25.2359  -22.0891  -12.4112 N   0  0  0  0  0  0  0  0  0  0  0  0
   26.4265  -20.3003  -11.6270 C   0  0  1  0  0  0  0  0  0  0  0  0
   26.2810  -20.7376  -10.2645 C   0  0  0  0  0  0  0  0  0  0  0  0
   27.2645  -20.0998   -9.3345 C   0  0  0  0  0  0  0  0  0  0  0  0
   26.9543  -20.4047   -7.9156 C   0  0  0  0  0  0  0  0  0  0  0  0
   25.9897  -21.2892   -7.4366 N   0  0  0  0  0  0  0  0  0  0  0  0
   26.0244  -21.2775   -6.0936 C   0  0  0  0  0  0  0  0  0  0  0  0
   26.9634  -20.4299   -5.6421 C   0  0  0  0  0  0  0  0  0  0  0  0
   27.3970  -20.0543   -4.3834 C   0  0  0  0  0  0  0  0  0  0  0  0
   28.4178  -19.1286   -4.2134 C   0  0  0  0  0  0  0  0  0  0  0  0
   28.9943  -18.5875   -5.3393 C   0  0  0  0  0  0  0  0  0  0  0  0
   28.5466  -18.9759   -6.6001 C   0  0  0  0  0  0  0  0  0  0  0  0
   27.5446  -19.8845   -6.7735 C   0  0  0  0  0  0  0  0  0  0  0  0
   24.9140  -20.4076   -9.8072 O   0  0  0  0  0  0  0  0  0  0  0  0
   24.2265  -21.1922   -8.8907 O   0  0  0  0  0  0  0  0  0  0  0  0
  1  2  1  0
  2  3  2  0
  4  2  1  0
  4  5  1  0
  5  6  1  0
  6  7  1  0
  7  8  1  0
  8 10  1  0
  8  9  1  6
 10 11  2  0
 10 16  1  0
 13 12  1  1
 13 15  1  0
 14 13  1  0
 15 17  1  0
 15 16  1  1
 17 18  2  0
 17 19  1  0
 19 20  1  0
 20 21  1  1
 21 22  1  0
 22 30  1  0
 22 23  2  0
 23 24  1  0
 24 25  1  0
 25 26  2  0
 27 26  1  0
 28 27  2  0
 29 30  2  0
 29 28  1  0
 30 25  1  0
 31 20  1  0
 31 32  1  0
 33 31  2  0
M  END
$$$$
