QWW.pdb
     RDKit          3D

 38 41  0  0  1  0  0  0  0  0999 V2000
    7.7640  -12.7053   16.4643 N   0  0  0  0  0  0  0  0  0  0  0  0
    7.7621  -14.0501   15.9868 C   0  0  0  0  0  0  0  0  0  0  0  0
    7.2822  -14.2434   14.8528 O   0  0  0  0  0  0  0  0  0  0  0  0
    8.3188  -15.0993   16.8490 C   0  0  0  0  0  0  0  0  0  0  0  0
    8.8122  -14.6144   18.1880 C   0  0  0  0  0  0  0  0  0  0  0  0
    9.5357  -15.7151   18.9177 C   0  0  2  0  0  0  0  0  0  0  0  0
    8.9525  -17.0012   18.5790 N   0  0  0  0  0  0  0  0  0  0  0  0
    9.6086  -15.4889   20.3693 C   0  0  0  0  0  0  0  0  0  0  0  0
   10.0683  -14.4038   20.8077 O   0  0  0  0  0  0  0  0  0  0  0  0
    9.1891  -16.4322   21.3517 N   0  0  0  0  0  0  0  0  0  0  0  0
    9.2844  -16.2232   22.7790 C   0  0  1  0  0  0  0  0  0  0  0  0
    8.0584  -16.7625   23.5288 C   0  0  0  0  0  0  0  0  0  0  0  0
    7.0650  -15.7546   23.8547 C   0  0  0  0  0  0  0  0  0  0  0  0
    5.7318  -15.7299   23.4913 C   0  0  0  0  0  0  0  0  0  0  0  0
    5.1437  -14.6146   23.9681 N   0  0  0  0  0  0  0  0  0  0  0  0
    6.0562  -13.9053   24.6358 C   0  0  0  0  0  0  0  0  0  0  0  0
    5.9366  -12.7107   25.2987 C   0  0  0  0  0  0  0  0  0  0  0  0
    7.0471  -12.1831   25.9269 C   0  0  0  0  0  0  0  0  0  0  0  0
    8.2423  -12.8278   25.8944 C   0  0  0  0  0  0  0  0  0  0  0  0
    8.3382  -14.0235   25.2233 C   0  0  0  0  0  0  0  0  0  0  0  0
    7.2601  -14.5984   24.5769 C   0  0  0  0  0  0  0  0  0  0  0  0
   10.4834  -16.9084   23.3272 C   0  0  0  0  0  0  0  0  0  0  0  0
   11.1180  -17.7474   22.5789 O   0  0  0  0  0  0  0  0  0  0  0  0
   11.0183  -16.7297   24.6187 N   0  0  0  0  0  0  0  0  0  0  0  0
   12.2542  -17.4338   25.0195 C   0  0  1  0  0  0  0  0  0  0  0  0
   12.5613  -16.8897   26.4118 C   0  0  0  0  0  0  0  0  0  0  0  0
   11.4094  -16.9084   27.3138 C   0  0  0  0  0  0  0  0  0  0  0  0
   10.5991  -17.9208   27.7272 C   0  0  0  0  0  0  0  0  0  0  0  0
    9.6762  -17.4119   28.5760 N   0  0  0  0  0  0  0  0  0  0  0  0
    9.8601  -16.0870   28.7316 C   0  0  0  0  0  0  0  0  0  0  0  0
    9.1823  -15.1457   29.4914 C   0  0  0  0  0  0  0  0  0  0  0  0
    9.6214  -13.8487   29.4446 C   0  0  0  0  0  0  0  0  0  0  0  0
   10.6993  -13.5021   28.6667 C   0  0  0  0  0  0  0  0  0  0  0  0
   11.3730  -14.4372   27.9115 C   0  0  0  0  0  0  0  0  0  0  0  0
   10.9434  -15.7574   27.9458 C   0  0  0  0  0  0  0  0  0  0  0  0
   11.9105  -18.8609   25.1661 C   0  0  0  0  0  0  0  0  0  0  0  0
   10.7262  -19.3046   25.2239 O   0  0  0  0  0  0  0  0  0  0  0  0
   12.9004  -19.8505   25.2526 O   0  0  0  0  0  0  0  0  0  0  0  0
  2  1  1  0
  2  4  1  0
  3  2  2  0
  5  4  1  0
  6  7  1  1
  6  5  1  0
  8  6  1  0
  9  8  2  0
 10  8  1  0
 11 10  1  0
 11 22  1  0
 11 12  1  1
 13 21  1  0
 13 12  1  0
 14 13  2  0
 15 14  1  0
 15 16  1  0
 16 21  2  0
 17 16  1  0
 17 18  2  0
 18 19  1  0
 19 20  2  0
 21 20  1  0
 22 24  1  0
 23 22  2  0
 24 25  1  0
 25 26  1  1
 25 36  1  0
 27 35  1  0
 27 26  1  0
 28 27  2  0
 29 28  1  0
 29 30  1  0
 30 35  2  0
 31 30  1  0
 31 32  2  0
 32 33  1  0
 33 34  2  0
 35 34  1  0
 36 38  1  0
 37 36  2  0
M  END
$$$$
