QWW.pdb
     RDKit          3D

 38 41  0  0  1  0  0  0  0  0999 V2000
    9.0069  -15.1471   16.7464 N   0  0  0  0  0  0  0  0  0  0  0  0
    9.3305  -16.5330   16.6395 C   0  0  0  0  0  0  0  0  0  0  0  0
    9.1328  -17.0728   15.5337 O   0  0  0  0  0  0  0  0  0  0  0  0
    9.8681  -17.2187   17.8205 C   0  0  0  0  0  0  0  0  0  0  0  0
   10.0064  -16.3479   19.0428 C   0  0  0  0  0  0  0  0  0  0  0  0
   10.6110  -17.1244   20.1825 C   0  0  2  0  0  0  0  0  0  0  0  0
    9.9179  -18.3904   20.3426 N   0  0  0  0  0  0  0  0  0  0  0  0
   10.6769  -16.3507   21.4318 C   0  0  0  0  0  0  0  0  0  0  0  0
   11.3550  -15.2928   21.4735 O   0  0  0  0  0  0  0  0  0  0  0  0
   10.0148  -16.7166   22.6395 N   0  0  0  0  0  0  0  0  0  0  0  0
   10.0709  -15.9536   23.8661 C   0  0  1  0  0  0  0  0  0  0  0  0
    8.6800  -15.7297   24.4758 C   0  0  0  0  0  0  0  0  0  0  0  0
    7.7511  -15.0295   23.6065 C   0  0  0  0  0  0  0  0  0  0  0  0
    7.0001  -15.5533   22.5712 C   0  0  0  0  0  0  0  0  0  0  0  0
    6.2757  -14.5781   21.9868 N   0  0  0  0  0  0  0  0  0  0  0  0
    6.5311  -13.4265   22.6116 C   0  0  0  0  0  0  0  0  0  0  0  0
    6.0343  -12.1684   22.3857 C   0  0  0  0  0  0  0  0  0  0  0  0
    6.4584  -11.1300   23.1907 C   0  0  0  0  0  0  0  0  0  0  0  0
    7.3527  -11.3401   24.1913 C   0  0  0  0  0  0  0  0  0  0  0  0
    7.8374  -12.6095   24.3984 C   0  0  0  0  0  0  0  0  0  0  0  0
    7.4481  -13.6862   23.6240 C   0  0  0  0  0  0  0  0  0  0  0  0
   10.8979  -16.6571   24.8803 C   0  0  0  0  0  0  0  0  0  0  0  0
   11.9224  -16.0499   25.3786 O   0  0  0  0  0  0  0  0  0  0  0  0
   10.6713  -17.9581   25.3723 N   0  0  0  0  0  0  0  0  0  0  0  0
   11.6337  -18.5827   26.3037 C   0  0  1  0  0  0  0  0  0  0  0  0
   11.4542  -17.8062   27.6052 C   0  0  0  0  0  0  0  0  0  0  0  0
   10.1615  -17.1285   27.7080 C   0  0  0  0  0  0  0  0  0  0  0  0
    8.8857  -17.6010   27.6701 C   0  0  0  0  0  0  0  0  0  0  0  0
    8.0374  -16.5572   27.8186 N   0  0  0  0  0  0  0  0  0  0  0  0
    8.7253  -15.4074   27.9538 C   0  0  0  0  0  0  0  0  0  0  0  0
    8.3053  -14.0983   28.1342 C   0  0  0  0  0  0  0  0  0  0  0  0
    9.2658  -13.1277   28.2468 C   0  0  0  0  0  0  0  0  0  0  0  0
   10.5993  -13.4514   28.1814 C   0  0  0  0  0  0  0  0  0  0  0  0
   11.0169  -14.7521   28.0019 C   0  0  0  0  0  0  0  0  0  0  0  0
   10.0585  -15.7504   27.8861 C   0  0  0  0  0  0  0  0  0  0  0  0
   11.1707  -19.9628   26.5424 C   0  0  0  0  0  0  0  0  0  0  0  0
   10.0990  -20.4447   26.0712 O   0  0  0  0  0  0  0  0  0  0  0  0
   11.9078  -20.8601   27.3288 O   0  0  0  0  0  0  0  0  0  0  0  0
  2  1  1  0
  2  4  1  0
  3  2  2  0
  5  4  1  0
  6  7  1  1
  6  5  1  0
  8  6  1  0
  9  8  2  0
 10  8  1  0
 11 10  1  0
 11 22  1  0
 11 12  1  1
 13 21  1  0
 13 12  1  0
 14 13  2  0
 15 14  1  0
 15 16  1  0
 16 21  2  0
 17 16  1  0
 17 18  2  0
 18 19  1  0
 19 20  2  0
 21 20  1  0
 22 24  1  0
 23 22  2  0
 24 25  1  0
 25 26  1  1
 25 36  1  0
 27 35  1  0
 27 26  1  0
 28 27  2  0
 29 28  1  0
 29 30  1  0
 30 35  2  0
 31 30  1  0
 31 32  2  0
 32 33  1  0
 33 34  2  0
 35 34  1  0
 36 38  1  0
 37 36  2  0
M  END
$$$$
