QWW.pdb
     RDKit          3D

 38 41  0  0  1  0  0  0  0  0999 V2000
    6.9204  -18.8540   15.1668 N   0  0  0  0  0  0  0  0  0  0  0  0
    7.0890  -20.0565   15.9166 C   0  0  0  0  0  0  0  0  0  0  0  0
    6.6185  -21.0988   15.4208 O   0  0  0  0  0  0  0  0  0  0  0  0
    7.7961  -19.9868   17.2007 C   0  0  0  0  0  0  0  0  0  0  0  0
    8.2370  -18.6019   17.5996 C   0  0  0  0  0  0  0  0  0  0  0  0
    8.8624  -18.6175   18.9693 C   0  0  2  0  0  0  0  0  0  0  0  0
    8.0898  -19.4679   19.8574 N   0  0  0  0  0  0  0  0  0  0  0  0
    9.0762  -17.2692   19.5171 C   0  0  0  0  0  0  0  0  0  0  0  0
    9.8839  -16.4888   18.9520 O   0  0  0  0  0  0  0  0  0  0  0  0
    8.4224  -16.7599   20.6764 N   0  0  0  0  0  0  0  0  0  0  0  0
    8.6013  -15.4222   21.1945 C   0  0  1  0  0  0  0  0  0  0  0  0
    7.2944  -14.8305   21.7406 C   0  0  0  0  0  0  0  0  0  0  0  0
    7.0978  -15.0273   23.1659 C   0  0  0  0  0  0  0  0  0  0  0  0
    6.6778  -16.1738   23.8133 C   0  0  0  0  0  0  0  0  0  0  0  0
    6.5965  -15.9514   25.1404 N   0  0  0  0  0  0  0  0  0  0  0  0
    6.9525  -14.6878   25.3821 C   0  0  0  0  0  0  0  0  0  0  0  0
    7.0340  -14.0030   26.5675 C   0  0  0  0  0  0  0  0  0  0  0  0
    7.4440  -12.6848   26.5487 C   0  0  0  0  0  0  0  0  0  0  0  0
    7.7627  -12.0673   25.3816 C   0  0  0  0  0  0  0  0  0  0  0  0
    7.6728  -12.7736   24.2058 C   0  0  0  0  0  0  0  0  0  0  0  0
    7.2686  -14.0948   24.1648 C   0  0  0  0  0  0  0  0  0  0  0  0
    9.5923  -15.4200   22.3015 C   0  0  0  0  0  0  0  0  0  0  0  0
   10.1497  -14.3049   22.6364 O   0  0  0  0  0  0  0  0  0  0  0  0
    9.9976  -16.5438   23.0491 N   0  0  0  0  0  0  0  0  0  0  0  0
   11.2165  -16.4865   23.8826 C   0  0  1  0  0  0  0  0  0  0  0  0
   10.8605  -15.5118   25.0016 C   0  0  0  0  0  0  0  0  0  0  0  0
   10.4674  -16.1707   26.2475 C   0  0  0  0  0  0  0  0  0  0  0  0
   10.3784  -17.4855   26.5878 C   0  0  0  0  0  0  0  0  0  0  0  0
    9.9707  -17.5684   27.8754 N   0  0  0  0  0  0  0  0  0  0  0  0
    9.7892  -16.3379   28.3917 C   0  0  0  0  0  0  0  0  0  0  0  0
    9.3891  -15.9169   29.6508 C   0  0  0  0  0  0  0  0  0  0  0  0
    9.3032  -14.5683   29.8774 C   0  0  0  0  0  0  0  0  0  0  0  0
    9.6056  -13.6705   28.8826 C   0  0  0  0  0  0  0  0  0  0  0  0
   10.0030  -14.0886   27.6313 C   0  0  0  0  0  0  0  0  0  0  0  0
   10.0967  -15.4516   27.3820 C   0  0  0  0  0  0  0  0  0  0  0  0
   11.3867  -17.8193   24.4918 C   0  0  0  0  0  0  0  0  0  0  0  0
   10.5155  -18.7369   24.4492 O   0  0  0  0  0  0  0  0  0  0  0  0
   12.5584  -18.1701   25.1777 O   0  0  0  0  0  0  0  0  0  0  0  0
  2  1  1  0
  2  4  1  0
  3  2  2  0
  5  4  1  0
  6  7  1  1
  6  5  1  0
  8  6  1  0
  9  8  2  0
 10  8  1  0
 11 10  1  0
 11 22  1  0
 11 12  1  1
 13 21  1  0
 13 12  1  0
 14 13  2  0
 15 14  1  0
 15 16  1  0
 16 21  2  0
 17 16  1  0
 17 18  2  0
 18 19  1  0
 19 20  2  0
 21 20  1  0
 22 24  1  0
 23 22  2  0
 24 25  1  0
 25 26  1  1
 25 36  1  0
 27 35  1  0
 27 26  1  0
 28 27  2  0
 29 28  1  0
 29 30  1  0
 30 35  2  0
 31 30  1  0
 31 32  2  0
 32 33  1  0
 33 34  2  0
 35 34  1  0
 36 38  1  0
 37 36  2  0
M  END
$$$$
