QWW.pdb
     RDKit          3D

 38 41  0  0  1  0  0  0  0  0999 V2000
    6.2806  -19.3181   18.6368 N   0  0  0  0  0  0  0  0  0  0  0  0
    5.6434  -20.5436   18.9960 C   0  0  0  0  0  0  0  0  0  0  0  0
    5.8286  -21.5164   18.2392 O   0  0  0  0  0  0  0  0  0  0  0  0
    4.8268  -20.5761   20.2151 C   0  0  0  0  0  0  0  0  0  0  0  0
    4.7413  -19.2620   20.9480 C   0  0  0  0  0  0  0  0  0  0  0  0
    5.0810  -19.4427   22.4038 C   0  0  2  0  0  0  0  0  0  0  0  0
    3.9350  -19.9775   23.1176 N   0  0  0  0  0  0  0  0  0  0  0  0
    5.6167  -18.2209   23.0233 C   0  0  0  0  0  0  0  0  0  0  0  0
    5.4727  -17.1146   22.4435 O   0  0  0  0  0  0  0  0  0  0  0  0
    6.3112  -18.1886   24.2673 N   0  0  0  0  0  0  0  0  0  0  0  0
    6.9391  -17.0109   24.8228 C   0  0  1  0  0  0  0  0  0  0  0  0
    7.0158  -17.0608   26.3551 C   0  0  0  0  0  0  0  0  0  0  0  0
    7.7288  -15.9471   26.9553 C   0  0  0  0  0  0  0  0  0  0  0  0
    9.0180  -15.9356   27.4532 C   0  0  0  0  0  0  0  0  0  0  0  0
    9.3106  -14.7168   27.9494 N   0  0  0  0  0  0  0  0  0  0  0  0
    8.2466  -13.9266   27.7904 C   0  0  0  0  0  0  0  0  0  0  0  0
    8.0641  -12.6101   28.1281 C   0  0  0  0  0  0  0  0  0  0  0  0
    6.8532  -12.0108   27.8438 C   0  0  0  0  0  0  0  0  0  0  0  0
    5.8531  -12.7047   27.2409 C   0  0  0  0  0  0  0  0  0  0  0  0
    6.0589  -14.0234   26.9122 C   0  0  0  0  0  0  0  0  0  0  0  0
    7.2502  -14.6742   27.1727 C   0  0  0  0  0  0  0  0  0  0  0  0
    8.3254  -16.8673   24.3081 C   0  0  0  0  0  0  0  0  0  0  0  0
    9.1152  -17.8875   24.3526 O   0  0  0  0  0  0  0  0  0  0  0  0
    8.8843  -15.6971   23.7565 N   0  0  0  0  0  0  0  0  0  0  0  0
   10.2325  -15.7264   23.1519 C   0  0  1  0  0  0  0  0  0  0  0  0
   10.2126  -14.5883   22.1353 C   0  0  0  0  0  0  0  0  0  0  0  0
    8.9773  -14.5242   21.3538 C   0  0  0  0  0  0  0  0  0  0  0  0
    7.6682  -14.5511   21.7251 C   0  0  0  0  0  0  0  0  0  0  0  0
    6.9047  -14.4538   20.6121 N   0  0  0  0  0  0  0  0  0  0  0  0
    7.6811  -14.3631   19.5155 C   0  0  0  0  0  0  0  0  0  0  0  0
    7.3655  -14.2421   18.1707 C   0  0  0  0  0  0  0  0  0  0  0  0
    8.3995  -14.1643   17.2751 C   0  0  0  0  0  0  0  0  0  0  0  0
    9.7034  -14.2060   17.7056 C   0  0  0  0  0  0  0  0  0  0  0  0
   10.0173  -14.3264   19.0419 C   0  0  0  0  0  0  0  0  0  0  0  0
    8.9831  -14.4062   19.9654 C   0  0  0  0  0  0  0  0  0  0  0  0
   11.1898  -15.3583   24.2121 C   0  0  0  0  0  0  0  0  0  0  0  0
   12.4412  -15.2712   24.0410 O   0  0  0  0  0  0  0  0  0  0  0  0
   10.7664  -15.0707   25.5177 O   0  0  0  0  0  0  0  0  0  0  0  0
  2  1  1  0
  2  4  1  0
  3  2  2  0
  5  4  1  0
  6  7  1  1
  6  5  1  0
  8  6  1  0
  9  8  2  0
 10  8  1  0
 11 10  1  0
 11 22  1  0
 11 12  1  1
 13 21  1  0
 13 12  1  0
 14 13  2  0
 15 14  1  0
 15 16  1  0
 16 21  2  0
 17 16  1  0
 17 18  2  0
 18 19  1  0
 19 20  2  0
 21 20  1  0
 22 24  1  0
 23 22  2  0
 24 25  1  0
 25 26  1  6
 25 36  1  0
 27 35  1  0
 27 26  1  0
 28 27  2  0
 29 28  1  0
 29 30  1  0
 30 35  2  0
 31 30  1  0
 31 32  2  0
 32 33  1  0
 33 34  2  0
 35 34  1  0
 36 38  1  0
 37 36  2  0
M  END
$$$$
