QWW.pdb
     RDKit          3D

 38 41  0  0  1  0  0  0  0  0999 V2000
   11.3255  -16.3429   15.9085 N   0  0  0  0  0  0  0  0  0  0  0  0
   11.9621  -17.5891   16.1884 C   0  0  0  0  0  0  0  0  0  0  0  0
   12.2884  -18.2864   15.2082 O   0  0  0  0  0  0  0  0  0  0  0  0
   12.1884  -17.9596   17.5904 C   0  0  0  0  0  0  0  0  0  0  0  0
   11.7418  -16.9260   18.5922 C   0  0  0  0  0  0  0  0  0  0  0  0
   12.0758  -17.3653   19.9933 C   0  0  2  0  0  0  0  0  0  0  0  0
   11.8646  -18.7957   20.1279 N   0  0  0  0  0  0  0  0  0  0  0  0
   11.3685  -16.5871   21.0218 C   0  0  0  0  0  0  0  0  0  0  0  0
   11.5890  -15.3541   21.1305 O   0  0  0  0  0  0  0  0  0  0  0  0
   10.4244  -17.1362   21.9373 N   0  0  0  0  0  0  0  0  0  0  0  0
    9.6371  -16.3564   22.8657 C   0  0  1  0  0  0  0  0  0  0  0  0
    8.1439  -16.7057   22.7984 C   0  0  0  0  0  0  0  0  0  0  0  0
    7.4670  -16.2135   21.6116 C   0  0  0  0  0  0  0  0  0  0  0  0
    6.6321  -16.9127   20.7606 C   0  0  0  0  0  0  0  0  0  0  0  0
    6.2186  -16.1118   19.7582 N   0  0  0  0  0  0  0  0  0  0  0  0
    6.7602  -14.9037   19.9285 C   0  0  0  0  0  0  0  0  0  0  0  0
    6.6322  -13.7631   19.1780 C   0  0  0  0  0  0  0  0  0  0  0  0
    7.2999  -12.6231   19.5791 C   0  0  0  0  0  0  0  0  0  0  0  0
    8.0733  -12.6210   20.6957 C   0  0  0  0  0  0  0  0  0  0  0  0
    8.1871  -13.7762   21.4317 C   0  0  0  0  0  0  0  0  0  0  0  0
    7.5416  -14.9462   21.0778 C   0  0  0  0  0  0  0  0  0  0  0  0
   10.0912  -16.5924   24.2606 C   0  0  0  0  0  0  0  0  0  0  0  0
   11.0280  -17.4547   24.4732 O   0  0  0  0  0  0  0  0  0  0  0  0
    9.5915  -15.9505   25.4114 N   0  0  0  0  0  0  0  0  0  0  0  0
   10.1219  -16.2928   26.7475 C   0  0  1  0  0  0  0  0  0  0  0  0
    9.5415  -15.2222   27.6672 C   0  0  0  0  0  0  0  0  0  0  0  0
    8.2715  -14.6709   27.1938 C   0  0  0  0  0  0  0  0  0  0  0  0
    7.1000  -15.2678   26.8422 C   0  0  0  0  0  0  0  0  0  0  0  0
    6.2209  -14.3056   26.4781 N   0  0  0  0  0  0  0  0  0  0  0  0
    6.7865  -13.0879   26.5821 C   0  0  0  0  0  0  0  0  0  0  0  0
    6.2910  -11.8174   26.3310 C   0  0  0  0  0  0  0  0  0  0  0  0
    7.1258  -10.7516   26.5417 C   0  0  0  0  0  0  0  0  0  0  0  0
    8.4107  -10.9460   26.9872 C   0  0  0  0  0  0  0  0  0  0  0  0
    8.9034  -12.2083   27.2366 C   0  0  0  0  0  0  0  0  0  0  0  0
    8.0725  -13.3016   27.0296 C   0  0  0  0  0  0  0  0  0  0  0  0
    9.5209  -17.5835   27.1335 C   0  0  0  0  0  0  0  0  0  0  0  0
    8.5789  -18.1462   26.5021 O   0  0  0  0  0  0  0  0  0  0  0  0
    9.9658  -18.2951   28.2571 O   0  0  0  0  0  0  0  0  0  0  0  0
  2  1  1  0
  2  4  1  0
  3  2  2  0
  5  4  1  0
  6  7  1  6
  6  5  1  0
  8  6  1  0
  9  8  2  0
 10  8  1  0
 11 10  1  0
 11 22  1  0
 11 12  1  1
 13 21  1  0
 13 12  1  0
 14 13  2  0
 15 14  1  0
 15 16  1  0
 16 21  2  0
 17 16  1  0
 17 18  2  0
 18 19  1  0
 19 20  2  0
 21 20  1  0
 22 24  1  0
 23 22  2  0
 24 25  1  0
 25 26  1  1
 25 36  1  0
 27 35  1  0
 27 26  1  0
 28 27  2  0
 29 28  1  0
 29 30  1  0
 30 35  2  0
 31 30  1  0
 31 32  2  0
 32 33  1  0
 33 34  2  0
 35 34  1  0
 36 38  1  0
 37 36  2  0
M  END
$$$$
