QWW.pdb
     RDKit          3D

 38 41  0  0  1  0  0  0  0  0999 V2000
   12.3651  -16.9076   15.8700 N   0  0  0  0  0  0  0  0  0  0  0  0
   12.9348  -18.1162   16.3716 C   0  0  0  0  0  0  0  0  0  0  0  0
   13.7107  -18.7292   15.6129 O   0  0  0  0  0  0  0  0  0  0  0  0
   12.5758  -18.5485   17.7274 C   0  0  0  0  0  0  0  0  0  0  0  0
   11.6785  -17.5945   18.4731 C   0  0  0  0  0  0  0  0  0  0  0  0
   11.3462  -18.1352   19.8386 C   0  0  2  0  0  0  0  0  0  0  0  0
   10.5258  -19.3269   19.7137 N   0  0  0  0  0  0  0  0  0  0  0  0
   10.7493  -17.1248   20.7254 C   0  0  0  0  0  0  0  0  0  0  0  0
   10.8690  -15.9044   20.4477 O   0  0  0  0  0  0  0  0  0  0  0  0
   10.0247  -17.4269   21.9148 N   0  0  0  0  0  0  0  0  0  0  0  0
    9.4489  -16.4355   22.7954 C   0  0  1  0  0  0  0  0  0  0  0  0
    7.9156  -16.4162   22.7257 C   0  0  0  0  0  0  0  0  0  0  0  0
    7.3781  -15.7547   21.5499 C   0  0  0  0  0  0  0  0  0  0  0  0
    6.6450  -16.3168   20.5220 C   0  0  0  0  0  0  0  0  0  0  0  0
    6.3484  -15.3793   19.5998 N   0  0  0  0  0  0  0  0  0  0  0  0
    6.8679  -14.2150   19.9953 C   0  0  0  0  0  0  0  0  0  0  0  0
    6.8266  -12.9803   19.4000 C   0  0  0  0  0  0  0  0  0  0  0  0
    7.4451  -11.9171   20.0273 C   0  0  0  0  0  0  0  0  0  0  0  0
    8.0866  -12.0808   21.2133 C   0  0  0  0  0  0  0  0  0  0  0  0
    8.1154  -13.3279   21.7906 C   0  0  0  0  0  0  0  0  0  0  0  0
    7.5136  -14.4276   21.2082 C   0  0  0  0  0  0  0  0  0  0  0  0
    9.8311  -16.7058   24.2055 C   0  0  0  0  0  0  0  0  0  0  0  0
    9.6442  -17.8895   24.6855 O   0  0  0  0  0  0  0  0  0  0  0  0
   10.3968  -15.7758   25.1005 N   0  0  0  0  0  0  0  0  0  0  0  0
   10.3824  -16.0351   26.5553 C   0  0  1  0  0  0  0  0  0  0  0  0
    8.9381  -16.4292   26.8519 C   0  0  0  0  0  0  0  0  0  0  0  0
    7.9582  -15.4408   26.4006 C   0  0  0  0  0  0  0  0  0  0  0  0
    6.7339  -15.5779   25.8222 C   0  0  0  0  0  0  0  0  0  0  0  0
    6.2225  -14.3444   25.6032 N   0  0  0  0  0  0  0  0  0  0  0  0
    7.0821  -13.3972   26.0245 C   0  0  0  0  0  0  0  0  0  0  0  0
    7.0033  -12.0128   26.0177 C   0  0  0  0  0  0  0  0  0  0  0  0
    8.0599  -11.3090   26.5331 C   0  0  0  0  0  0  0  0  0  0  0  0
    9.1575  -11.9632   27.0376 C   0  0  0  0  0  0  0  0  0  0  0  0
    9.2362  -13.3388   27.0443 C   0  0  0  0  0  0  0  0  0  0  0  0
    8.1751  -14.0701   26.5267 C   0  0  0  0  0  0  0  0  0  0  0  0
   11.2244  -17.2232   26.7910 C   0  0  0  0  0  0  0  0  0  0  0  0
   11.5022  -17.6814   27.9380 O   0  0  0  0  0  0  0  0  0  0  0  0
   11.7889  -17.9466   25.7305 O   0  0  0  0  0  0  0  0  0  0  0  0
  2  1  1  0
  2  4  1  0
  3  2  2  0
  5  4  1  0
  6  7  1  6
  6  5  1  0
  8  6  1  0
  9  8  2  0
 10  8  1  0
 11 10  1  0
 11 22  1  0
 11 12  1  1
 13 21  1  0
 13 12  1  0
 14 13  2  0
 15 14  1  0
 15 16  1  0
 16 21  2  0
 17 16  1  0
 17 18  2  0
 18 19  1  0
 19 20  2  0
 21 20  1  0
 22 24  1  0
 23 22  2  0
 24 25  1  0
 25 26  1  6
 25 36  1  0
 27 35  1  0
 27 26  1  0
 28 27  2  0
 29 28  1  0
 29 30  1  0
 30 35  2  0
 31 30  1  0
 31 32  2  0
 32 33  1  0
 33 34  2  0
 35 34  1  0
 36 38  1  0
 37 36  2  0
M  END
$$$$
