QWW.pdb
     RDKit          3D

 38 41  0  0  1  0  0  0  0  0999 V2000
   11.0046  -16.4231   15.4124 N   0  0  0  0  0  0  0  0  0  0  0  0
   12.0247  -17.3954   15.6380 C   0  0  0  0  0  0  0  0  0  0  0  0
   12.6776  -17.7663   14.6433 O   0  0  0  0  0  0  0  0  0  0  0  0
   12.2347  -17.8843   17.0058 C   0  0  0  0  0  0  0  0  0  0  0  0
   11.3003  -17.2971   18.0322 C   0  0  0  0  0  0  0  0  0  0  0  0
   11.6799  -17.7505   19.4170 C   0  0  2  0  0  0  0  0  0  0  0  0
   11.2218  -19.1110   19.6362 N   0  0  0  0  0  0  0  0  0  0  0  0
   11.2304  -16.8235   20.4669 C   0  0  0  0  0  0  0  0  0  0  0  0
   11.7510  -15.6823   20.5541 O   0  0  0  0  0  0  0  0  0  0  0  0
   10.2212  -17.1249   21.4269 N   0  0  0  0  0  0  0  0  0  0  0  0
    9.6957  -16.1787   22.3852 C   0  0  1  0  0  0  0  0  0  0  0  0
    8.1624  -16.2070   22.4497 C   0  0  0  0  0  0  0  0  0  0  0  0
    7.5039  -15.6017   21.3056 C   0  0  0  0  0  0  0  0  0  0  0  0
    6.5339  -16.1582   20.4935 C   0  0  0  0  0  0  0  0  0  0  0  0
    6.1899  -15.2887   19.5226 N   0  0  0  0  0  0  0  0  0  0  0  0
    6.9089  -14.1746   19.6755 C   0  0  0  0  0  0  0  0  0  0  0  0
    6.9093  -13.0145   18.9441 C   0  0  0  0  0  0  0  0  0  0  0  0
    7.7549  -11.9899   19.3201 C   0  0  0  0  0  0  0  0  0  0  0  0
    8.5768  -12.1188   20.3938 C   0  0  0  0  0  0  0  0  0  0  0  0
    8.5595  -13.2911   21.1114 C   0  0  0  0  0  0  0  0  0  0  0  0
    7.7339  -14.3493   20.7811 C   0  0  0  0  0  0  0  0  0  0  0  0
   10.2082  -16.4774   23.7475 C   0  0  0  0  0  0  0  0  0  0  0  0
   11.0081  -17.4780   23.9066 O   0  0  0  0  0  0  0  0  0  0  0  0
    9.9043  -15.7573   24.9202 N   0  0  0  0  0  0  0  0  0  0  0  0
   10.5050  -16.1472   26.2129 C   0  0  1  0  0  0  0  0  0  0  0  0
    9.9043  -15.1670   27.2166 C   0  0  0  0  0  0  0  0  0  0  0  0
    8.4713  -14.9408   27.0268 C   0  0  0  0  0  0  0  0  0  0  0  0
    7.4289  -15.8045   26.8858 C   0  0  0  0  0  0  0  0  0  0  0  0
    6.2918  -15.0846   26.7446 N   0  0  0  0  0  0  0  0  0  0  0  0
    6.5611  -13.7659   26.7897 C   0  0  0  0  0  0  0  0  0  0  0  0
    5.7380  -12.6538   26.6976 C   0  0  0  0  0  0  0  0  0  0  0  0
    6.3207  -11.4170   26.7875 C   0  0  0  0  0  0  0  0  0  0  0  0
    7.6776  -11.2934   26.9630 C   0  0  0  0  0  0  0  0  0  0  0  0
    8.4958  -12.3983   27.0544 C   0  0  0  0  0  0  0  0  0  0  0  0
    7.9240  -13.6608   26.9659 C   0  0  0  0  0  0  0  0  0  0  0  0
    9.9904  -17.4902   26.5412 C   0  0  0  0  0  0  0  0  0  0  0  0
   10.3737  -18.1751   27.5346 O   0  0  0  0  0  0  0  0  0  0  0  0
    9.0136  -18.1162   25.7534 O   0  0  0  0  0  0  0  0  0  0  0  0
  2  1  1  0
  2  4  1  0
  3  2  2  0
  5  4  1  0
  6  7  1  1
  6  5  1  0
  8  6  1  0
  9  8  2  0
 10  8  1  0
 11 10  1  0
 11 22  1  0
 11 12  1  1
 13 21  1  0
 13 12  1  0
 14 13  2  0
 15 14  1  0
 15 16  1  0
 16 21  2  0
 17 16  1  0
 17 18  2  0
 18 19  1  0
 19 20  2  0
 21 20  1  0
 22 24  1  0
 23 22  2  0
 24 25  1  0
 25 26  1  1
 25 36  1  0
 27 35  1  0
 27 26  1  0
 28 27  2  0
 29 28  1  0
 29 30  1  0
 30 35  2  0
 31 30  1  0
 31 32  2  0
 32 33  1  0
 33 34  2  0
 35 34  1  0
 36 38  1  0
 37 36  2  0
M  END
$$$$
