QWW.pdb
     RDKit          3D

 38 41  0  0  1  0  0  0  0  0999 V2000
    8.4036  -13.4018   15.7224 N   0  0  0  0  0  0  0  0  0  0  0  0
    8.5324  -14.7869   15.4038 C   0  0  0  0  0  0  0  0  0  0  0  0
    8.2018  -15.1321   14.2527 O   0  0  0  0  0  0  0  0  0  0  0  0
    9.0396  -15.6980   16.4366 C   0  0  0  0  0  0  0  0  0  0  0  0
    9.3421  -15.0410   17.7588 C   0  0  0  0  0  0  0  0  0  0  0  0
    9.8570  -16.0521   18.7488 C   0  0  2  0  0  0  0  0  0  0  0  0
    9.2188  -17.3368   18.5226 N   0  0  0  0  0  0  0  0  0  0  0  0
    9.7426  -15.5985   20.1434 C   0  0  0  0  0  0  0  0  0  0  0  0
   10.4732  -14.6616   20.5549 O   0  0  0  0  0  0  0  0  0  0  0  0
    8.8430  -16.1550   21.0983 N   0  0  0  0  0  0  0  0  0  0  0  0
    8.6511  -15.6425   22.4363 C   0  0  1  0  0  0  0  0  0  0  0  0
    7.3740  -16.1879   23.0903 C   0  0  0  0  0  0  0  0  0  0  0  0
    7.0257  -15.5496   24.3473 C   0  0  0  0  0  0  0  0  0  0  0  0
    6.5850  -16.1522   25.5104 C   0  0  0  0  0  0  0  0  0  0  0  0
    6.3442  -15.2181   26.4520 N   0  0  0  0  0  0  0  0  0  0  0  0
    6.6154  -14.0166   25.9377 C   0  0  0  0  0  0  0  0  0  0  0  0
    6.5322  -12.7715   26.5066 C   0  0  0  0  0  0  0  0  0  0  0  0
    6.8842  -11.6696   25.7529 C   0  0  0  0  0  0  0  0  0  0  0  0
    7.3062  -11.8054   24.4690 C   0  0  0  0  0  0  0  0  0  0  0  0
    7.3809  -13.0632   23.9198 C   0  0  0  0  0  0  0  0  0  0  0  0
    7.0416  -14.2013   24.6272 C   0  0  0  0  0  0  0  0  0  0  0  0
    9.7960  -16.0155   23.3067 C   0  0  0  0  0  0  0  0  0  0  0  0
   10.6238  -15.0961   23.6751 O   0  0  0  0  0  0  0  0  0  0  0  0
   10.0792  -17.3090   23.7893 N   0  0  0  0  0  0  0  0  0  0  0  0
   11.4318  -17.6429   24.2819 C   0  0  1  0  0  0  0  0  0  0  0  0
   11.7296  -16.5652   25.3205 C   0  0  0  0  0  0  0  0  0  0  0  0
   11.0158  -16.7572   26.5832 C   0  0  0  0  0  0  0  0  0  0  0  0
   10.7666  -17.8726   27.3222 C   0  0  0  0  0  0  0  0  0  0  0  0
   10.0655  -17.5107   28.4216 N   0  0  0  0  0  0  0  0  0  0  0  0
    9.8471  -16.1818   28.4240 C   0  0  0  0  0  0  0  0  0  0  0  0
    9.1920  -15.3575   29.3262 C   0  0  0  0  0  0  0  0  0  0  0  0
    9.1414  -14.0168   29.0481 C   0  0  0  0  0  0  0  0  0  0  0  0
    9.7238  -13.5154   27.9095 C   0  0  0  0  0  0  0  0  0  0  0  0
   10.3748  -14.3343   27.0127 C   0  0  0  0  0  0  0  0  0  0  0  0
   10.4372  -15.6963   27.2770 C   0  0  0  0  0  0  0  0  0  0  0  0
   11.3266  -18.9301   24.9950 C   0  0  0  0  0  0  0  0  0  0  0  0
   10.2398  -19.5514   25.1839 O   0  0  0  0  0  0  0  0  0  0  0  0
   12.4553  -19.5710   25.5258 O   0  0  0  0  0  0  0  0  0  0  0  0
  2  1  1  0
  2  4  1  0
  3  2  2  0
  5  4  1  0
  6  7  1  1
  6  5  1  0
  8  6  1  0
  9  8  2  0
 10  8  1  0
 11 10  1  0
 11 22  1  0
 11 12  1  1
 13 21  1  0
 13 12  1  0
 14 13  2  0
 15 14  1  0
 15 16  1  0
 16 21  2  0
 17 16  1  0
 17 18  2  0
 18 19  1  0
 19 20  2  0
 21 20  1  0
 22 24  1  0
 23 22  2  0
 24 25  1  0
 25 26  1  1
 25 36  1  0
 27 35  1  0
 27 26  1  0
 28 27  2  0
 29 28  1  0
 29 30  1  0
 30 35  2  0
 31 30  1  0
 31 32  2  0
 32 33  1  0
 33 34  2  0
 35 34  1  0
 36 38  1  0
 37 36  2  0
M  END
$$$$
