QWW.pdb
     RDKit          3D

 38 41  0  0  1  0  0  0  0  0999 V2000
   12.4909  -16.5584   16.3397 N   0  0  0  0  0  0  0  0  0  0  0  0
   11.7101  -17.7459   16.2102 C   0  0  0  0  0  0  0  0  0  0  0  0
   11.6050  -18.2276   15.0655 O   0  0  0  0  0  0  0  0  0  0  0  0
   11.0943  -18.3130   17.4158 C   0  0  0  0  0  0  0  0  0  0  0  0
   11.4058  -17.5686   18.6887 C   0  0  0  0  0  0  0  0  0  0  0  0
   10.7518  -18.2373   19.8687 C   0  0  2  0  0  0  0  0  0  0  0  0
    9.3486  -18.4814   19.5851 N   0  0  0  0  0  0  0  0  0  0  0  0
   10.9582  -17.5066   21.1285 C   0  0  0  0  0  0  0  0  0  0  0  0
   12.0741  -17.5629   21.7049 O   0  0  0  0  0  0  0  0  0  0  0  0
    9.9619  -16.7162   21.7715 N   0  0  0  0  0  0  0  0  0  0  0  0
   10.1431  -16.0449   23.0390 C   0  0  1  0  0  0  0  0  0  0  0  0
    9.4338  -14.6844   23.0831 C   0  0  0  0  0  0  0  0  0  0  0  0
    8.3805  -14.5262   22.0959 C   0  0  0  0  0  0  0  0  0  0  0  0
    7.1546  -15.1630   22.0550 C   0  0  0  0  0  0  0  0  0  0  0  0
    6.4639  -14.7657   20.9676 N   0  0  0  0  0  0  0  0  0  0  0  0
    7.2044  -13.8839   20.2926 C   0  0  0  0  0  0  0  0  0  0  0  0
    6.9310  -13.2015   19.1349 C   0  0  0  0  0  0  0  0  0  0  0  0
    7.8757  -12.3253   18.6388 C   0  0  0  0  0  0  0  0  0  0  0  0
    9.0590  -12.1358   19.2783 C   0  0  0  0  0  0  0  0  0  0  0  0
    9.3111  -12.8314   20.4367 C   0  0  0  0  0  0  0  0  0  0  0  0
    8.4025  -13.7208   20.9790 C   0  0  0  0  0  0  0  0  0  0  0  0
    9.6003  -16.8706   24.1485 C   0  0  0  0  0  0  0  0  0  0  0  0
    8.3631  -17.2364   24.1051 O   0  0  0  0  0  0  0  0  0  0  0  0
   10.3192  -17.3122   25.2773 N   0  0  0  0  0  0  0  0  0  0  0  0
   10.3475  -16.4982   26.5104 C   0  0  1  0  0  0  0  0  0  0  0  0
    9.0192  -16.8080   27.1951 C   0  0  0  0  0  0  0  0  0  0  0  0
    7.9030  -16.0046   26.6958 C   0  0  0  0  0  0  0  0  0  0  0  0
    6.7845  -16.3428   25.9978 C   0  0  0  0  0  0  0  0  0  0  0  0
    6.0568  -15.2220   25.7848 N   0  0  0  0  0  0  0  0  0  0  0  0
    6.6702  -14.1527   26.3268 C   0  0  0  0  0  0  0  0  0  0  0  0
    6.3164  -12.8127   26.3727 C   0  0  0  0  0  0  0  0  0  0  0  0
    7.1629  -11.9489   27.0165 C   0  0  0  0  0  0  0  0  0  0  0  0
    8.3225  -12.4054   27.5944 C   0  0  0  0  0  0  0  0  0  0  0  0
    8.6744  -13.7369   27.5489 C   0  0  0  0  0  0  0  0  0  0  0  0
    7.8292  -14.6284   26.9012 C   0  0  0  0  0  0  0  0  0  0  0  0
   11.4233  -17.0405   27.3618 C   0  0  0  0  0  0  0  0  0  0  0  0
   11.6928  -16.6157   28.5236 O   0  0  0  0  0  0  0  0  0  0  0  0
   12.2424  -18.0937   26.9301 O   0  0  0  0  0  0  0  0  0  0  0  0
  2  1  1  0
  2  4  1  0
  3  2  2  0
  5  4  1  0
  6  7  1  6
  6  5  1  0
  8  6  1  0
  9  8  2  0
 10  8  1  0
 11 10  1  0
 11 22  1  0
 11 12  1  6
 13 21  1  0
 13 12  1  0
 14 13  2  0
 15 14  1  0
 15 16  1  0
 16 21  2  0
 17 16  1  0
 17 18  2  0
 18 19  1  0
 19 20  2  0
 21 20  1  0
 22 24  1  0
 23 22  2  0
 24 25  1  0
 25 26  1  1
 25 36  1  0
 27 35  1  0
 27 26  1  0
 28 27  2  0
 29 28  1  0
 29 30  1  0
 30 35  2  0
 31 30  1  0
 31 32  2  0
 32 33  1  0
 33 34  2  0
 35 34  1  0
 36 38  1  0
 37 36  2  0
M  END
$$$$
