QWW.pdb
     RDKit          3D

 38 41  0  0  1  0  0  0  0  0999 V2000
   12.7400  -21.8201   19.4524 N   0  0  0  0  0  0  0  0  0  0  0  0
   11.4858  -22.4363   19.1628 C   0  0  0  0  0  0  0  0  0  0  0  0
   11.5157  -23.6272   18.7963 O   0  0  0  0  0  0  0  0  0  0  0  0
   10.2630  -21.6390   19.3155 C   0  0  0  0  0  0  0  0  0  0  0  0
   10.4902  -20.2269   19.7907 C   0  0  0  0  0  0  0  0  0  0  0  0
    9.2145  -19.6364   20.3303 C   0  0  2  0  0  0  0  0  0  0  0  0
    8.1580  -19.7503   19.3406 N   0  0  0  0  0  0  0  0  0  0  0  0
    9.3838  -18.2615   20.8252 C   0  0  0  0  0  0  0  0  0  0  0  0
   10.4313  -17.6245   20.5467 O   0  0  0  0  0  0  0  0  0  0  0  0
    8.4261  -17.5711   21.6234 N   0  0  0  0  0  0  0  0  0  0  0  0
    8.6245  -16.2517   22.1798 C   0  0  1  0  0  0  0  0  0  0  0  0
    7.3005  -15.5796   22.5690 C   0  0  0  0  0  0  0  0  0  0  0  0
    7.4205  -14.1726   22.9080 C   0  0  0  0  0  0  0  0  0  0  0  0
    7.9365  -13.1540   22.1293 C   0  0  0  0  0  0  0  0  0  0  0  0
    7.8961  -11.9891   22.8064 N   0  0  0  0  0  0  0  0  0  0  0  0
    7.3666  -12.2158   24.0106 C   0  0  0  0  0  0  0  0  0  0  0  0
    7.1163  -11.3498   25.0441 C   0  0  0  0  0  0  0  0  0  0  0  0
    6.5447  -11.8405   26.2011 C   0  0  0  0  0  0  0  0  0  0  0  0
    6.2324  -13.1567   26.3241 C   0  0  0  0  0  0  0  0  0  0  0  0
    6.4931  -14.0059   25.2751 C   0  0  0  0  0  0  0  0  0  0  0  0
    7.0635  -13.5702   24.0939 C   0  0  0  0  0  0  0  0  0  0  0  0
    9.4682  -16.3224   23.4008 C   0  0  0  0  0  0  0  0  0  0  0  0
    8.9100  -16.1631   24.5538 O   0  0  0  0  0  0  0  0  0  0  0  0
   10.8578  -16.5554   23.4320 N   0  0  0  0  0  0  0  0  0  0  0  0
   11.6466  -16.2087   24.6325 C   0  0  1  0  0  0  0  0  0  0  0  0
   11.4210  -17.3824   25.5816 C   0  0  0  0  0  0  0  0  0  0  0  0
   10.5013  -17.0787   26.6783 C   0  0  0  0  0  0  0  0  0  0  0  0
    9.5650  -17.8369   27.3114 C   0  0  0  0  0  0  0  0  0  0  0  0
    8.9818  -17.0838   28.2725 N   0  0  0  0  0  0  0  0  0  0  0  0
    9.5128  -15.8463   28.2874 C   0  0  0  0  0  0  0  0  0  0  0  0
    9.2508  -14.7408   29.0824 C   0  0  0  0  0  0  0  0  0  0  0  0
    9.9771  -13.6017   28.8543 C   0  0  0  0  0  0  0  0  0  0  0  0
   10.9317  -13.5660   27.8670 C   0  0  0  0  0  0  0  0  0  0  0  0
   11.1922  -14.6642   27.0767 C   0  0  0  0  0  0  0  0  0  0  0  0
   10.4667  -15.8286   27.2928 C   0  0  0  0  0  0  0  0  0  0  0  0
   13.0674  -16.2251   24.2358 C   0  0  0  0  0  0  0  0  0  0  0  0
   13.4728  -16.4193   23.0523 O   0  0  0  0  0  0  0  0  0  0  0  0
   14.0939  -16.0197   25.1689 O   0  0  0  0  0  0  0  0  0  0  0  0
  2  1  1  0
  2  4  1  0
  3  2  2  0
  5  4  1  0
  6  7  1  6
  6  5  1  0
  8  6  1  0
  9  8  2  0
 10  8  1  0
 11 10  1  0
 11 22  1  0
 11 12  1  1
 13 21  1  0
 13 12  1  0
 14 13  2  0
 15 14  1  0
 15 16  1  0
 16 21  2  0
 17 16  1  0
 17 18  2  0
 18 19  1  0
 19 20  2  0
 21 20  1  0
 22 24  1  0
 23 22  2  0
 24 25  1  0
 25 26  1  1
 25 36  1  0
 27 35  1  0
 27 26  1  0
 28 27  2  0
 29 28  1  0
 29 30  1  0
 30 35  2  0
 31 30  1  0
 31 32  2  0
 32 33  1  0
 33 34  2  0
 35 34  1  0
 36 38  1  0
 37 36  2  0
M  END
$$$$
