QWW.pdb
     RDKit          3D

 38 41  0  0  1  0  0  0  0  0999 V2000
   11.9159  -18.7807   16.1827 N   0  0  0  0  0  0  0  0  0  0  0  0
   10.8894  -19.7352   16.4508 C   0  0  0  0  0  0  0  0  0  0  0  0
   10.8562  -20.7451   15.7212 O   0  0  0  0  0  0  0  0  0  0  0  0
    9.9570  -19.4686   17.5525 C   0  0  0  0  0  0  0  0  0  0  0  0
   10.2287  -18.1942   18.3098 C   0  0  0  0  0  0  0  0  0  0  0  0
    9.9960  -18.3926   19.7842 C   0  0  2  0  0  0  0  0  0  0  0  0
    8.6723  -18.9466   20.0070 N   0  0  0  0  0  0  0  0  0  0  0  0
   10.2426  -17.1753   20.5722 C   0  0  0  0  0  0  0  0  0  0  0  0
   11.3564  -16.5975   20.4927 O   0  0  0  0  0  0  0  0  0  0  0  0
    9.2907  -16.5795   21.4497 N   0  0  0  0  0  0  0  0  0  0  0  0
    9.4852  -15.3209   22.1338 C   0  0  1  0  0  0  0  0  0  0  0  0
    8.1602  -14.5933   22.4005 C   0  0  0  0  0  0  0  0  0  0  0  0
    7.5663  -14.8857   23.6931 C   0  0  0  0  0  0  0  0  0  0  0  0
    7.0618  -16.0921   24.1406 C   0  0  0  0  0  0  0  0  0  0  0  0
    6.5750  -15.9541   25.3901 N   0  0  0  0  0  0  0  0  0  0  0  0
    6.7465  -14.6877   25.7755 C   0  0  0  0  0  0  0  0  0  0  0  0
    6.4215  -14.0707   26.9563 C   0  0  0  0  0  0  0  0  0  0  0  0
    6.7173  -12.7310   27.1116 C   0  0  0  0  0  0  0  0  0  0  0  0
    7.3192  -12.0272   26.1180 C   0  0  0  0  0  0  0  0  0  0  0  0
    7.6350  -12.6668   24.9430 C   0  0  0  0  0  0  0  0  0  0  0  0
    7.3626  -14.0054   24.7323 C   0  0  0  0  0  0  0  0  0  0  0  0
   10.1504  -15.5374   23.4446 C   0  0  0  0  0  0  0  0  0  0  0  0
   10.4263  -14.5129   24.1799 O   0  0  0  0  0  0  0  0  0  0  0  0
   10.5206  -16.7845   23.9867 N   0  0  0  0  0  0  0  0  0  0  0  0
   11.4941  -16.8574   25.0962 C   0  0  1  0  0  0  0  0  0  0  0  0
   10.8424  -17.7980   26.1060 C   0  0  0  0  0  0  0  0  0  0  0  0
    9.7892  -17.1643   26.8998 C   0  0  0  0  0  0  0  0  0  0  0  0
    8.5017  -17.5272   27.1508 C   0  0  0  0  0  0  0  0  0  0  0  0
    7.9433  -16.5957   27.9581 N   0  0  0  0  0  0  0  0  0  0  0  0
    8.8339  -15.6272   28.2452 C   0  0  0  0  0  0  0  0  0  0  0  0
    8.7329  -14.4840   29.0234 C   0  0  0  0  0  0  0  0  0  0  0  0
    9.8387  -13.6820   29.1292 C   0  0  0  0  0  0  0  0  0  0  0  0
   11.0050  -14.0085   28.4809 C   0  0  0  0  0  0  0  0  0  0  0  0
   11.1056  -15.1443   27.7074 C   0  0  0  0  0  0  0  0  0  0  0  0
    9.9958  -15.9705   27.5881 C   0  0  0  0  0  0  0  0  0  0  0  0
   12.6967  -17.5323   24.5724 C   0  0  0  0  0  0  0  0  0  0  0  0
   13.7508  -17.7299   25.2451 O   0  0  0  0  0  0  0  0  0  0  0  0
   12.7548  -18.0154   23.2571 O   0  0  0  0  0  0  0  0  0  0  0  0
  2  1  1  0
  2  4  1  0
  3  2  2  0
  5  4  1  0
  6  7  1  6
  6  5  1  0
  8  6  1  0
  9  8  2  0
 10  8  1  0
 11 10  1  0
 11 22  1  0
 11 12  1  1
 13 21  1  0
 13 12  1  0
 14 13  2  0
 15 14  1  0
 15 16  1  0
 16 21  2  0
 17 16  1  0
 17 18  2  0
 18 19  1  0
 19 20  2  0
 21 20  1  0
 22 24  1  0
 23 22  2  0
 24 25  1  0
 25 26  1  1
 25 36  1  0
 27 35  1  0
 27 26  1  0
 28 27  2  0
 29 28  1  0
 29 30  1  0
 30 35  2  0
 31 30  1  0
 31 32  2  0
 32 33  1  0
 33 34  2  0
 35 34  1  0
 36 38  1  0
 37 36  2  0
M  END
$$$$
