QWW.pdb
     RDKit          3D

 38 41  0  0  1  0  0  0  0  0999 V2000
   12.6710  -17.9199   17.0325 N   0  0  0  0  0  0  0  0  0  0  0  0
   11.7612  -17.0171   16.4049 C   0  0  0  0  0  0  0  0  0  0  0  0
   12.1529  -16.4590   15.3615 O   0  0  0  0  0  0  0  0  0  0  0  0
   10.4445  -16.8110   17.0196 C   0  0  0  0  0  0  0  0  0  0  0  0
    9.9463  -17.9733   17.8395 C   0  0  0  0  0  0  0  0  0  0  0  0
    8.6464  -17.6274   18.5163 C   0  0  2  0  0  0  0  0  0  0  0  0
    7.8335  -16.8053   17.6376 N   0  0  0  0  0  0  0  0  0  0  0  0
    8.8346  -17.0250   19.8450 C   0  0  0  0  0  0  0  0  0  0  0  0
    9.4298  -15.9225   19.9497 O   0  0  0  0  0  0  0  0  0  0  0  0
    8.3844  -17.6103   21.0638 N   0  0  0  0  0  0  0  0  0  0  0  0
    8.5593  -17.0158   22.3698 C   0  0  1  0  0  0  0  0  0  0  0  0
    7.6613  -17.6675   23.4305 C   0  0  0  0  0  0  0  0  0  0  0  0
    7.0722  -16.7324   24.3725 C   0  0  0  0  0  0  0  0  0  0  0  0
    6.0791  -16.9780   25.3019 C   0  0  0  0  0  0  0  0  0  0  0  0
    5.7867  -15.8473   25.9751 N   0  0  0  0  0  0  0  0  0  0  0  0
    6.5623  -14.8645   25.5121 C   0  0  0  0  0  0  0  0  0  0  0  0
    6.6365  -13.5465   25.8836 C   0  0  0  0  0  0  0  0  0  0  0  0
    7.5433  -12.7241   25.2452 C   0  0  0  0  0  0  0  0  0  0  0  0
    8.3521  -13.2022   24.2642 C   0  0  0  0  0  0  0  0  0  0  0  0
    8.2594  -14.5266   23.9082 C   0  0  0  0  0  0  0  0  0  0  0  0
    7.3705  -15.3954   24.5130 C   0  0  0  0  0  0  0  0  0  0  0  0
    9.9669  -17.1590   22.8235 C   0  0  0  0  0  0  0  0  0  0  0  0
   10.7453  -17.9721   22.1916 O   0  0  0  0  0  0  0  0  0  0  0  0
   10.5597  -16.4757   23.9042 N   0  0  0  0  0  0  0  0  0  0  0  0
   11.9834  -16.6935   24.2351 C   0  0  1  0  0  0  0  0  0  0  0  0
   12.2349  -15.7790   25.4307 C   0  0  0  0  0  0  0  0  0  0  0  0
   11.2356  -15.9149   26.4908 C   0  0  0  0  0  0  0  0  0  0  0  0
   10.5307  -16.9896   26.9387 C   0  0  0  0  0  0  0  0  0  0  0  0
    9.7327  -16.5859   27.9542 N   0  0  0  0  0  0  0  0  0  0  0  0
    9.8959  -15.2694   28.1860 C   0  0  0  0  0  0  0  0  0  0  0  0
    9.3124  -14.4176   29.1117 C   0  0  0  0  0  0  0  0  0  0  0  0
    9.6977  -13.1028   29.1035 C   0  0  0  0  0  0  0  0  0  0  0  0
   10.6324  -12.6527   28.2030 C   0  0  0  0  0  0  0  0  0  0  0  0
   11.2122  -13.4988   27.2829 C   0  0  0  0  0  0  0  0  0  0  0  0
   10.8352  -14.8354   27.2756 C   0  0  0  0  0  0  0  0  0  0  0  0
   12.1096  -18.0857   24.7064 C   0  0  0  0  0  0  0  0  0  0  0  0
   13.2140  -18.6664   24.9206 O   0  0  0  0  0  0  0  0  0  0  0  0
   10.9829  -18.8821   24.9573 O   0  0  0  0  0  0  0  0  0  0  0  0
  2  1  1  0
  2  4  1  0
  3  2  2  0
  5  4  1  0
  6  7  1  6
  6  5  1  0
  8  6  1  0
  9  8  2  0
 10  8  1  0
 11 10  1  0
 11 22  1  0
 11 12  1  1
 13 21  1  0
 13 12  1  0
 14 13  2  0
 15 14  1  0
 15 16  1  0
 16 21  2  0
 17 16  1  0
 17 18  2  0
 18 19  1  0
 19 20  2  0
 21 20  1  0
 22 24  1  0
 23 22  2  0
 24 25  1  0
 25 26  1  1
 25 36  1  0
 27 35  1  0
 27 26  1  0
 28 27  2  0
 29 28  1  0
 29 30  1  0
 30 35  2  0
 31 30  1  0
 31 32  2  0
 32 33  1  0
 33 34  2  0
 35 34  1  0
 36 38  1  0
 37 36  2  0
M  END
$$$$
