WQE.pdb
     RDKit          3D

 33 34  0  0  1  0  0  0  0  0999 V2000
    6.9482  -17.3104   23.7942 N   0  0  0  0  0  0  0  0  0  0  0  0
    7.3518  -15.9786   23.3919 C   0  0  1  0  0  0  0  0  0  0  0  0
    8.1516  -15.2829   24.4674 C   0  0  0  0  0  0  0  0  0  0  0  0
    7.2982  -14.7180   25.5340 C   0  0  0  0  0  0  0  0  0  0  0  0
    6.7166  -15.4118   26.5685 C   0  0  0  0  0  0  0  0  0  0  0  0
    6.0183  -14.5277   27.3202 N   0  0  0  0  0  0  0  0  0  0  0  0
    6.1152  -13.2909   26.8277 C   0  0  0  0  0  0  0  0  0  0  0  0
    5.6076  -12.0732   27.2101 C   0  0  0  0  0  0  0  0  0  0  0  0
    5.8803  -10.9197   26.4889 C   0  0  0  0  0  0  0  0  0  0  0  0
    6.6788  -11.0400   25.3750 C   0  0  0  0  0  0  0  0  0  0  0  0
    7.1890  -12.2687   24.9920 C   0  0  0  0  0  0  0  0  0  0  0  0
    6.9262  -13.4048   25.6940 C   0  0  0  0  0  0  0  0  0  0  0  0
    8.2805  -16.1508   22.2257 C   0  0  0  0  0  0  0  0  0  0  0  0
    9.0651  -17.1398   22.1617 O   0  0  0  0  0  0  0  0  0  0  0  0
    8.3430  -12.4172   17.0535 N   0  0  0  0  0  0  0  0  0  0  0  0
    7.6213  -13.6684   17.1107 C   0  0  0  0  0  0  0  0  0  0  0  0
    6.7190  -13.7941   16.2798 O   0  0  0  0  0  0  0  0  0  0  0  0
    8.0385  -14.6300   18.1360 C   0  0  0  0  0  0  0  0  0  0  0  0
    9.1190  -14.2420   19.0581 C   0  0  0  0  0  0  0  0  0  0  0  0
    9.4267  -15.1311   20.2068 C   0  0  2  0  0  0  0  0  0  0  0  0
    8.3310  -15.2304   21.1467 N   0  0  0  0  0  0  0  0  0  0  0  0
   10.7568  -15.0048   20.8181 C   0  0  0  0  0  0  0  0  0  0  0  0
   10.7904  -14.7157   22.0537 O   0  0  0  0  0  0  0  0  0  0  0  0
   11.9726  -15.1769   20.1481 N   0  0  0  0  0  0  0  0  0  0  0  0
   13.2332  -15.5446   20.8082 C   0  0  1  0  0  0  0  0  0  0  0  0
   13.0796  -16.7926   21.5911 C   0  0  0  0  0  0  0  0  0  0  0  0
   14.3721  -17.2348   22.2018 C   0  0  0  0  0  0  0  0  0  0  0  0
   14.2785  -18.4220   23.0673 C   0  0  0  0  0  0  0  0  0  0  0  0
   13.3434  -18.6819   23.8572 O   0  0  0  0  0  0  0  0  0  0  0  0
   14.2241  -15.7292   19.7273 C   0  0  0  0  0  0  0  0  0  0  0  0
   13.8339  -16.1897   18.6077 O   0  0  0  0  0  0  0  0  0  0  0  0
   15.3160  -19.3748   23.0314 O   0  0  0  0  0  0  0  0  0  0  0  0
   15.5585  -15.4133   19.8992 O   0  0  0  0  0  0  0  0  0  0  0  0
  2  1  1  1
  3  2  1  0
  4  3  1  0
  4  5  2  0
  6  5  1  0
  7 12  2  0
  7  6  1  0
  8  7  1  0
  9 10  1  0
  9  8  2  0
 10 11  2  0
 11 12  1  0
 12  4  1  0
 13 14  2  0
 13  2  1  0
 15 16  1  0
 16 17  2  0
 18 19  1  0
 18 16  1  0
 20 19  1  6
 20 21  1  0
 21 13  1  0
 22 20  1  0
 23 22  2  0
 24 22  1  0
 25 26  1  6
 25 24  1  0
 26 27  1  0
 27 28  1  0
 28 29  2  0
 28 32  1  0
 30 25  1  0
 31 30  2  0
 33 30  1  0
M  END
$$$$
