WQE.pdb
     RDKit          3D

 33 34  0  0  1  0  0  0  0  0999 V2000
    7.1217  -17.5561   23.4414 N   0  0  0  0  0  0  0  0  0  0  0  0
    7.3185  -16.1319   23.2646 C   0  0  1  0  0  0  0  0  0  0  0  0
    8.2573  -15.5597   24.2997 C   0  0  0  0  0  0  0  0  0  0  0  0
    7.5416  -14.9120   25.4192 C   0  0  0  0  0  0  0  0  0  0  0  0
    6.8180  -15.5452   26.4018 C   0  0  0  0  0  0  0  0  0  0  0  0
    6.3246  -14.5950   27.2312 N   0  0  0  0  0  0  0  0  0  0  0  0
    6.6901  -13.3727   26.8388 C   0  0  0  0  0  0  0  0  0  0  0  0
    6.4571  -12.1092   27.3246 C   0  0  0  0  0  0  0  0  0  0  0  0
    6.9774  -10.9874   26.6953 C   0  0  0  0  0  0  0  0  0  0  0  0
    7.7363  -11.1868   25.5652 C   0  0  0  0  0  0  0  0  0  0  0  0
    7.9694  -12.4615   25.0779 C   0  0  0  0  0  0  0  0  0  0  0  0
    7.4627  -13.5670   25.6893 C   0  0  0  0  0  0  0  0  0  0  0  0
    8.0018  -15.9593   21.9396 C   0  0  0  0  0  0  0  0  0  0  0  0
    8.8273  -16.8190   21.5186 O   0  0  0  0  0  0  0  0  0  0  0  0
   10.4024  -13.5406   16.4089 N   0  0  0  0  0  0  0  0  0  0  0  0
    9.0771  -13.3878   16.9658 C   0  0  0  0  0  0  0  0  0  0  0  0
    8.1677  -13.8984   16.3081 O   0  0  0  0  0  0  0  0  0  0  0  0
    8.9681  -12.6532   18.2301 C   0  0  0  0  0  0  0  0  0  0  0  0
    8.1407  -13.2297   19.3030 C   0  0  0  0  0  0  0  0  0  0  0  0
    8.6611  -14.4031   20.0494 C   0  0  2  0  0  0  0  0  0  0  0  0
    7.7652  -14.8417   21.0977 N   0  0  0  0  0  0  0  0  0  0  0  0
   10.0837  -14.3901   20.4165 C   0  0  0  0  0  0  0  0  0  0  0  0
   10.3736  -13.9098   21.5552 O   0  0  0  0  0  0  0  0  0  0  0  0
   11.1286  -14.8612   19.6144 N   0  0  0  0  0  0  0  0  0  0  0  0
   12.5527  -14.7209   19.9489 C   0  0  1  0  0  0  0  0  0  0  0  0
   13.1526  -16.0334   20.2834 C   0  0  0  0  0  0  0  0  0  0  0  0
   12.9780  -16.3783   21.7289 C   0  0  0  0  0  0  0  0  0  0  0  0
   13.5608  -17.6671   22.1368 C   0  0  0  0  0  0  0  0  0  0  0  0
   13.6307  -18.1027   23.3078 O   0  0  0  0  0  0  0  0  0  0  0  0
   13.2008  -14.1445   18.7523 C   0  0  0  0  0  0  0  0  0  0  0  0
   12.5188  -14.0144   17.6865 O   0  0  0  0  0  0  0  0  0  0  0  0
   14.0988  -18.5150   21.1482 O   0  0  0  0  0  0  0  0  0  0  0  0
   14.5228  -13.7418   18.7612 O   0  0  0  0  0  0  0  0  0  0  0  0
  2  1  1  1
  3  2  1  0
  4  3  1  0
  4  5  2  0
  6  5  1  0
  7 12  2  0
  7  6  1  0
  8  7  1  0
  9 10  1  0
  9  8  2  0
 10 11  2  0
 11 12  1  0
 12  4  1  0
 13 14  2  0
 13  2  1  0
 15 16  1  0
 16 17  2  0
 18 19  1  0
 18 16  1  0
 20 19  1  1
 20 21  1  0
 21 13  1  0
 22 20  1  0
 23 22  2  0
 24 22  1  0
 25 26  1  6
 25 24  1  0
 26 27  1  0
 27 28  1  0
 28 29  2  0
 28 32  1  0
 30 25  1  0
 31 30  2  0
 33 30  1  0
M  END
$$$$
