WQE.pdb
     RDKit          3D

 33 34  0  0  1  0  0  0  0  0999 V2000
    9.6252  -15.7258   23.0661 N   0  0  0  0  0  0  0  0  0  0  0  0
    8.9917  -16.0574   24.3260 C   0  0  1  0  0  0  0  0  0  0  0  0
    7.4946  -15.8673   24.2714 C   0  0  0  0  0  0  0  0  0  0  0  0
    7.1084  -14.4537   24.0773 C   0  0  0  0  0  0  0  0  0  0  0  0
    6.9349  -13.8119   22.8740 C   0  0  0  0  0  0  0  0  0  0  0  0
    6.5844  -12.5299   23.1343 N   0  0  0  0  0  0  0  0  0  0  0  0
    6.5204  -12.3028   24.4480 C   0  0  0  0  0  0  0  0  0  0  0  0
    6.2177  -11.1994   25.2081 C   0  0  0  0  0  0  0  0  0  0  0  0
    6.2302  -11.2534   26.5945 C   0  0  0  0  0  0  0  0  0  0  0  0
    6.5573  -12.4541   27.1812 C   0  0  0  0  0  0  0  0  0  0  0  0
    6.8618  -13.5644   26.4125 C   0  0  0  0  0  0  0  0  0  0  0  0
    6.8518  -13.5197   25.0521 C   0  0  0  0  0  0  0  0  0  0  0  0
    9.2191  -17.5250   24.5420 C   0  0  0  0  0  0  0  0  0  0  0  0
    8.6563  -18.1353   25.4952 O   0  0  0  0  0  0  0  0  0  0  0  0
    8.4874  -20.4710   20.5627 N   0  0  0  0  0  0  0  0  0  0  0  0
    9.8469  -20.0331   20.3394 C   0  0  0  0  0  0  0  0  0  0  0  0
   10.0902  -19.6322   19.1991 O   0  0  0  0  0  0  0  0  0  0  0  0
   10.7671  -20.1154   21.4780 C   0  0  0  0  0  0  0  0  0  0  0  0
   10.2311  -20.5517   22.7783 C   0  0  0  0  0  0  0  0  0  0  0  0
   10.4309  -19.6749   23.9598 C   0  0  2  0  0  0  0  0  0  0  0  0
   10.0634  -18.2989   23.7041 N   0  0  0  0  0  0  0  0  0  0  0  0
   11.6715  -19.8517   24.7268 C   0  0  0  0  0  0  0  0  0  0  0  0
   12.0536  -21.0460   24.9242 O   0  0  0  0  0  0  0  0  0  0  0  0
   12.4523  -18.8151   25.2490 N   0  0  0  0  0  0  0  0  0  0  0  0
   13.6985  -19.0195   26.0007 C   0  0  1  0  0  0  0  0  0  0  0  0
   14.6457  -17.9032   25.7744 C   0  0  0  0  0  0  0  0  0  0  0  0
   15.0765  -17.8138   24.3442 C   0  0  0  0  0  0  0  0  0  0  0  0
   16.0248  -16.7281   24.0458 C   0  0  0  0  0  0  0  0  0  0  0  0
   16.5352  -15.9495   24.8820 O   0  0  0  0  0  0  0  0  0  0  0  0
   13.3118  -19.0906   27.4253 C   0  0  0  0  0  0  0  0  0  0  0  0
   12.1061  -18.8454   27.7480 O   0  0  0  0  0  0  0  0  0  0  0  0
   16.4176  -16.5147   22.7094 O   0  0  0  0  0  0  0  0  0  0  0  0
   14.2216  -19.4180   28.4128 O   0  0  0  0  0  0  0  0  0  0  0  0
  2  1  1  6
  3  2  1  0
  4  3  1  0
  4  5  2  0
  6  5  1  0
  7 12  2  0
  7  6  1  0
  8  7  1  0
  9 10  1  0
  9  8  2  0
 10 11  2  0
 11 12  1  0
 12  4  1  0
 13 14  2  0
 13  2  1  0
 15 16  1  0
 16 17  2  0
 18 19  1  0
 18 16  1  0
 20 19  1  6
 20 21  1  0
 21 13  1  0
 22 20  1  0
 23 22  2  0
 24 22  1  0
 25 26  1  1
 25 24  1  0
 26 27  1  0
 27 28  1  0
 28 29  2  0
 28 32  1  0
 30 25  1  0
 31 30  2  0
 33 30  1  0
M  END
$$$$
