WQE.pdb
     RDKit          3D

 33 34  0  0  1  0  0  0  0  0999 V2000
    6.7438  -17.5625   24.1574 N   0  0  0  0  0  0  0  0  0  0  0  0
    7.2235  -16.2596   23.7444 C   0  0  1  0  0  0  0  0  0  0  0  0
    8.0122  -15.5770   24.8363 C   0  0  0  0  0  0  0  0  0  0  0  0
    7.1643  -14.7391   25.7103 C   0  0  0  0  0  0  0  0  0  0  0  0
    6.0740  -15.1576   26.4357 C   0  0  0  0  0  0  0  0  0  0  0  0
    5.5807  -14.0850   27.0993 N   0  0  0  0  0  0  0  0  0  0  0  0
    6.2949  -12.9868   26.8432 C   0  0  0  0  0  0  0  0  0  0  0  0
    6.2094  -11.6797   27.2566 C   0  0  0  0  0  0  0  0  0  0  0  0
    7.1139  -10.7238   26.8168 C   0  0  0  0  0  0  0  0  0  0  0  0
    8.1011  -11.1334   25.9505 C   0  0  0  0  0  0  0  0  0  0  0  0
    8.1847  -12.4515   25.5357 C   0  0  0  0  0  0  0  0  0  0  0  0
    7.3014  -13.3952   25.9623 C   0  0  0  0  0  0  0  0  0  0  0  0
    8.1878  -16.4995   22.6197 C   0  0  0  0  0  0  0  0  0  0  0  0
    8.8666  -17.5643   22.5632 O   0  0  0  0  0  0  0  0  0  0  0  0
    8.9048  -12.6267   17.6151 N   0  0  0  0  0  0  0  0  0  0  0  0
    8.0815  -13.8140   17.5674 C   0  0  0  0  0  0  0  0  0  0  0  0
    7.2463  -13.8393   16.6607 O   0  0  0  0  0  0  0  0  0  0  0  0
    8.3302  -14.8366   18.5884 C   0  0  0  0  0  0  0  0  0  0  0  0
    9.3992  -14.5952   19.5718 C   0  0  0  0  0  0  0  0  0  0  0  0
    9.5482  -15.5415   20.7064 C   0  0  2  0  0  0  0  0  0  0  0  0
    8.3899  -15.5623   21.5735 N   0  0  0  0  0  0  0  0  0  0  0  0
   10.8423  -15.5595   21.4020 C   0  0  0  0  0  0  0  0  0  0  0  0
   10.9718  -14.7661   22.3844 O   0  0  0  0  0  0  0  0  0  0  0  0
   11.9279  -16.3753   21.0660 N   0  0  0  0  0  0  0  0  0  0  0  0
   13.2043  -16.3908   21.7943 C   0  0  1  0  0  0  0  0  0  0  0  0
   13.4950  -17.7410   22.3299 C   0  0  0  0  0  0  0  0  0  0  0  0
   14.7862  -17.7793   23.0850 C   0  0  0  0  0  0  0  0  0  0  0  0
   15.1556  -19.0995   23.6213 C   0  0  0  0  0  0  0  0  0  0  0  0
   16.3197  -19.5017   23.8427 O   0  0  0  0  0  0  0  0  0  0  0  0
   14.2384  -15.9861   20.8191 C   0  0  0  0  0  0  0  0  0  0  0  0
   14.0612  -16.2541   19.5883 O   0  0  0  0  0  0  0  0  0  0  0  0
   14.1343  -20.0215   23.9253 O   0  0  0  0  0  0  0  0  0  0  0  0
   15.3878  -15.3241   21.2070 O   0  0  0  0  0  0  0  0  0  0  0  0
  2  1  1  1
  3  2  1  0
  4  3  1  0
  4  5  2  0
  6  5  1  0
  7 12  2  0
  7  6  1  0
  8  7  1  0
  9 10  1  0
  9  8  2  0
 10 11  2  0
 11 12  1  0
 12  4  1  0
 13 14  2  0
 13  2  1  0
 15 16  1  0
 16 17  2  0
 18 19  1  0
 18 16  1  0
 20 19  1  1
 20 21  1  0
 21 13  1  0
 22 20  1  0
 23 22  2  0
 24 22  1  0
 25 26  1  6
 25 24  1  0
 26 27  1  0
 27 28  1  0
 28 29  2  0
 28 32  1  0
 30 25  1  0
 31 30  2  0
 33 30  1  0
M  END
$$$$
