WQE.pdb
     RDKit          3D

 33 34  0  0  1  0  0  0  0  0999 V2000
    6.7202  -17.5273   25.1853 N   0  0  0  0  0  0  0  0  0  0  0  0
    7.0012  -16.2893   24.4877 C   0  0  1  0  0  0  0  0  0  0  0  0
    8.1182  -15.5134   25.1439 C   0  0  0  0  0  0  0  0  0  0  0  0
    7.6544  -14.7190   26.3010 C   0  0  0  0  0  0  0  0  0  0  0  0
    7.6126  -15.1319   27.6116 C   0  0  0  0  0  0  0  0  0  0  0  0
    7.1255  -14.1090   28.3536 N   0  0  0  0  0  0  0  0  0  0  0  0
    6.8472  -13.0485   27.5923 C   0  0  0  0  0  0  0  0  0  0  0  0
    6.3469  -11.7962   27.8535 C   0  0  0  0  0  0  0  0  0  0  0  0
    6.1559  -10.8699   26.8382 C   0  0  0  0  0  0  0  0  0  0  0  0
    6.4863  -11.2519   25.5584 C   0  0  0  0  0  0  0  0  0  0  0  0
    6.9903  -12.5148   25.2984 C   0  0  0  0  0  0  0  0  0  0  0  0
    7.1806  -13.4291   26.2886 C   0  0  0  0  0  0  0  0  0  0  0  0
    7.5028  -16.6737   23.1265 C   0  0  0  0  0  0  0  0  0  0  0  0
    8.1523  -17.7441   22.9530 O   0  0  0  0  0  0  0  0  0  0  0  0
    8.8035  -12.4619   17.1876 N   0  0  0  0  0  0  0  0  0  0  0  0
    8.1326  -13.6670   17.6205 C   0  0  0  0  0  0  0  0  0  0  0  0
    7.1473  -13.9896   16.9532 O   0  0  0  0  0  0  0  0  0  0  0  0
    8.6924  -14.3568   18.7870 C   0  0  0  0  0  0  0  0  0  0  0  0
    7.7873  -14.6962   19.8978 C   0  0  0  0  0  0  0  0  0  0  0  0
    8.2612  -15.6460   20.9361 C   0  0  2  0  0  0  0  0  0  0  0  0
    7.2811  -15.8728   21.9762 N   0  0  0  0  0  0  0  0  0  0  0  0
    9.6427  -15.4892   21.4112 C   0  0  0  0  0  0  0  0  0  0  0  0
    9.7919  -15.0580   22.5958 O   0  0  0  0  0  0  0  0  0  0  0  0
   10.7904  -15.7759   20.6646 N   0  0  0  0  0  0  0  0  0  0  0  0
   12.0379  -16.2997   21.2383 C   0  0  1  0  0  0  0  0  0  0  0  0
   11.7896  -17.5403   22.0087 C   0  0  0  0  0  0  0  0  0  0  0  0
   13.0622  -18.1844   22.4611 C   0  0  0  0  0  0  0  0  0  0  0  0
   12.8912  -19.4103   23.2579 C   0  0  0  0  0  0  0  0  0  0  0  0
   12.4550  -19.4688   24.4294 O   0  0  0  0  0  0  0  0  0  0  0  0
   12.9341  -16.5702   20.0947 C   0  0  0  0  0  0  0  0  0  0  0  0
   14.1446  -16.1848   20.1577 O   0  0  0  0  0  0  0  0  0  0  0  0
   13.2392  -20.6497   22.6847 O   0  0  0  0  0  0  0  0  0  0  0  0
   12.4940  -17.2308   18.9633 O   0  0  0  0  0  0  0  0  0  0  0  0
  2  1  1  1
  3  2  1  0
  4  3  1  0
  4  5  2  0
  6  5  1  0
  7 12  2  0
  7  6  1  0
  8  7  1  0
  9 10  1  0
  9  8  2  0
 10 11  2  0
 11 12  1  0
 12  4  1  0
 13 14  2  0
 13  2  1  0
 15 16  1  0
 16 17  2  0
 18 19  1  0
 18 16  1  0
 20 19  1  1
 20 21  1  0
 21 13  1  0
 22 20  1  0
 23 22  2  0
 24 22  1  0
 25 26  1  6
 25 24  1  0
 26 27  1  0
 27 28  1  0
 28 29  2  0
 28 32  1  0
 30 25  1  0
 31 30  2  0
 33 30  1  0
M  END
$$$$
