WQE.pdb
     RDKit          3D

 33 34  0  0  1  0  0  0  0  0999 V2000
    6.7127  -17.4441   24.2911 N   0  0  0  0  0  0  0  0  0  0  0  0
    7.3126  -16.2318   23.7727 C   0  0  1  0  0  0  0  0  0  0  0  0
    8.0591  -15.4704   24.8420 C   0  0  0  0  0  0  0  0  0  0  0  0
    7.1628  -14.6572   25.6908 C   0  0  0  0  0  0  0  0  0  0  0  0
    6.0595  -15.1052   26.3777 C   0  0  0  0  0  0  0  0  0  0  0  0
    5.5188  -14.0479   27.0290 N   0  0  0  0  0  0  0  0  0  0  0  0
    6.2146  -12.9318   26.8014 C   0  0  0  0  0  0  0  0  0  0  0  0
    6.0841  -11.6291   27.2170 C   0  0  0  0  0  0  0  0  0  0  0  0
    6.9795  -10.6498   26.8116 C   0  0  0  0  0  0  0  0  0  0  0  0
    8.0044  -11.0315   25.9769 C   0  0  0  0  0  0  0  0  0  0  0  0
    8.1333  -12.3452   25.5597 C   0  0  0  0  0  0  0  0  0  0  0  0
    7.2593  -13.3117   25.9528 C   0  0  0  0  0  0  0  0  0  0  0  0
    8.3428  -16.6632   22.7703 C   0  0  0  0  0  0  0  0  0  0  0  0
    8.9692  -17.7520   22.9115 O   0  0  0  0  0  0  0  0  0  0  0  0
    7.6826  -14.9841   17.2162 N   0  0  0  0  0  0  0  0  0  0  0  0
    8.5762  -14.0051   17.7932 C   0  0  0  0  0  0  0  0  0  0  0  0
    8.4899  -12.8700   17.3197 O   0  0  0  0  0  0  0  0  0  0  0  0
    9.4701  -14.4680   18.8593 C   0  0  0  0  0  0  0  0  0  0  0  0
    9.3739  -15.8729   19.2897 C   0  0  0  0  0  0  0  0  0  0  0  0
    9.7239  -16.2123   20.6922 C   0  0  2  0  0  0  0  0  0  0  0  0
    8.6676  -15.8884   21.6267 N   0  0  0  0  0  0  0  0  0  0  0  0
   11.0789  -15.8736   21.1484 C   0  0  0  0  0  0  0  0  0  0  0  0
   11.3279  -14.6419   21.3280 O   0  0  0  0  0  0  0  0  0  0  0  0
   12.1013  -16.7957   21.3958 N   0  0  0  0  0  0  0  0  0  0  0  0
   13.4406  -16.4321   21.8794 C   0  0  1  0  0  0  0  0  0  0  0  0
   14.1941  -17.6319   22.3119 C   0  0  0  0  0  0  0  0  0  0  0  0
   13.4731  -18.3928   23.3797 C   0  0  0  0  0  0  0  0  0  0  0  0
   14.3167  -18.8526   24.4950 C   0  0  0  0  0  0  0  0  0  0  0  0
   15.4701  -19.3275   24.3949 O   0  0  0  0  0  0  0  0  0  0  0  0
   14.1217  -15.7730   20.7454 C   0  0  0  0  0  0  0  0  0  0  0  0
   13.5465  -15.7517   19.6111 O   0  0  0  0  0  0  0  0  0  0  0  0
   13.8154  -18.7662   25.8091 O   0  0  0  0  0  0  0  0  0  0  0  0
   15.3616  -15.1787   20.8848 O   0  0  0  0  0  0  0  0  0  0  0  0
  2  1  1  1
  3  2  1  0
  4  3  1  0
  4  5  2  0
  6  5  1  0
  7 12  2  0
  7  6  1  0
  8  7  1  0
  9 10  1  0
  9  8  2  0
 10 11  2  0
 11 12  1  0
 12  4  1  0
 13 14  2  0
 13  2  1  0
 15 16  1  0
 16 17  2  0
 18 19  1  0
 18 16  1  0
 20 19  1  6
 20 21  1  0
 21 13  1  0
 22 20  1  0
 23 22  2  0
 24 22  1  0
 25 26  1  6
 25 24  1  0
 26 27  1  0
 27 28  1  0
 28 29  2  0
 28 32  1  0
 30 25  1  0
 31 30  2  0
 33 30  1  0
M  END
$$$$
