WQE.pdb
     RDKit          3D

 33 34  0  0  1  0  0  0  0  0999 V2000
    9.3559  -16.4306   24.7214 N   0  0  0  0  0  0  0  0  0  0  0  0
    8.0637  -16.9628   24.3403 C   0  0  1  0  0  0  0  0  0  0  0  0
    6.9417  -16.3464   25.1412 C   0  0  0  0  0  0  0  0  0  0  0  0
    7.4268  -15.3738   26.1431 C   0  0  0  0  0  0  0  0  0  0  0  0
    8.1683  -15.6579   27.2653 C   0  0  0  0  0  0  0  0  0  0  0  0
    8.4038  -14.4920   27.9130 N   0  0  0  0  0  0  0  0  0  0  0  0
    7.8529  -13.4607   27.2692 C   0  0  0  0  0  0  0  0  0  0  0  0
    7.8051  -12.1085   27.5059 C   0  0  0  0  0  0  0  0  0  0  0  0
    7.1419  -11.2484   26.6423 C   0  0  0  0  0  0  0  0  0  0  0  0
    6.5330  -11.7999   25.5388 C   0  0  0  0  0  0  0  0  0  0  0  0
    6.5829  -13.1632   25.3030 C   0  0  0  0  0  0  0  0  0  0  0  0
    7.2312  -14.0136   26.1451 C   0  0  0  0  0  0  0  0  0  0  0  0
    7.8373  -16.5480   22.9159 C   0  0  0  0  0  0  0  0  0  0  0  0
    6.7764  -16.8681   22.3078 O   0  0  0  0  0  0  0  0  0  0  0  0
    6.7412  -14.1043   18.2366 N   0  0  0  0  0  0  0  0  0  0  0  0
    7.5600  -13.2810   19.0978 C   0  0  0  0  0  0  0  0  0  0  0  0
    7.2821  -12.0797   19.0971 O   0  0  0  0  0  0  0  0  0  0  0  0
    8.6120  -13.9591   19.8616 C   0  0  0  0  0  0  0  0  0  0  0  0
    8.7065  -15.4257   19.7689 C   0  0  0  0  0  0  0  0  0  0  0  0
    9.3226  -16.1709   20.8957 C   0  0  2  0  0  0  0  0  0  0  0  0
    8.7835  -15.7862   22.1823 N   0  0  0  0  0  0  0  0  0  0  0  0
   10.7803  -16.3529   20.8649 C   0  0  0  0  0  0  0  0  0  0  0  0
   11.3165  -16.4615   19.7195 O   0  0  0  0  0  0  0  0  0  0  0  0
   11.6098  -16.4149   21.9896 N   0  0  0  0  0  0  0  0  0  0  0  0
   13.0136  -16.8487   21.9560 C   0  0  1  0  0  0  0  0  0  0  0  0
   13.7114  -16.4904   23.2126 C   0  0  0  0  0  0  0  0  0  0  0  0
   15.0964  -17.0543   23.2659 C   0  0  0  0  0  0  0  0  0  0  0  0
   15.8545  -16.7306   24.4856 C   0  0  0  0  0  0  0  0  0  0  0  0
   16.2761  -15.5974   24.8081 O   0  0  0  0  0  0  0  0  0  0  0  0
   12.9860  -18.3156   21.7783 C   0  0  0  0  0  0  0  0  0  0  0  0
   13.8593  -18.8608   21.0312 O   0  0  0  0  0  0  0  0  0  0  0  0
   16.1521  -17.7632   25.3971 O   0  0  0  0  0  0  0  0  0  0  0  0
   12.0414  -19.1084   22.4020 O   0  0  0  0  0  0  0  0  0  0  0  0
  2  1  1  1
  3  2  1  0
  4  3  1  0
  4  5  2  0
  6  5  1  0
  7 12  2  0
  7  6  1  0
  8  7  1  0
  9 10  1  0
  9  8  2  0
 10 11  2  0
 11 12  1  0
 12  4  1  0
 13 14  2  0
 13  2  1  0
 15 16  1  0
 16 17  2  0
 18 19  1  0
 18 16  1  0
 20 19  1  6
 20 21  1  0
 21 13  1  0
 22 20  1  0
 23 22  2  0
 24 22  1  0
 25 26  1  1
 25 24  1  0
 26 27  1  0
 27 28  1  0
 28 29  2  0
 28 32  1  0
 30 25  1  0
 31 30  2  0
 33 30  1  0
M  END
$$$$
