WQE.pdb
     RDKit          3D

 33 34  0  0  1  0  0  0  0  0999 V2000
    6.6400  -17.7161   24.2968 N   0  0  0  0  0  0  0  0  0  0  0  0
    7.7343  -16.8720   23.8626 C   0  0  1  0  0  0  0  0  0  0  0  0
    8.2890  -16.0411   24.9949 C   0  0  0  0  0  0  0  0  0  0  0  0
    7.3260  -15.0314   25.4830 C   0  0  0  0  0  0  0  0  0  0  0  0
    6.1050  -15.2805   26.0637 C   0  0  0  0  0  0  0  0  0  0  0  0
    5.5382  -14.0880   26.3654 N   0  0  0  0  0  0  0  0  0  0  0  0
    6.3286  -13.0727   26.0105 C   0  0  0  0  0  0  0  0  0  0  0  0
    6.2174  -11.7064   26.0976 C   0  0  0  0  0  0  0  0  0  0  0  0
    7.2234  -10.8702   25.6349 C   0  0  0  0  0  0  0  0  0  0  0  0
    8.3379  -11.4602   25.0848 C   0  0  0  0  0  0  0  0  0  0  0  0
    8.4470  -12.8375   24.9983 C   0  0  0  0  0  0  0  0  0  0  0  0
    7.4648  -13.6647   25.4499 C   0  0  0  0  0  0  0  0  0  0  0  0
    8.8402  -17.7947   23.4405 C   0  0  0  0  0  0  0  0  0  0  0  0
    9.2585  -18.7024   24.2144 O   0  0  0  0  0  0  0  0  0  0  0  0
   12.9478  -18.8272   18.3027 N   0  0  0  0  0  0  0  0  0  0  0  0
   12.1784  -17.6045   18.3562 C   0  0  0  0  0  0  0  0  0  0  0  0
   12.2049  -16.9206   17.3307 O   0  0  0  0  0  0  0  0  0  0  0  0
   11.4659  -17.3219   19.6062 C   0  0  0  0  0  0  0  0  0  0  0  0
   10.9649  -18.4590   20.3963 C   0  0  0  0  0  0  0  0  0  0  0  0
   10.7600  -18.2753   21.8554 C   0  0  2  0  0  0  0  0  0  0  0  0
    9.4688  -17.7037   22.1715 N   0  0  0  0  0  0  0  0  0  0  0  0
   11.8839  -17.7311   22.6295 C   0  0  0  0  0  0  0  0  0  0  0  0
   11.8496  -16.4884   22.8863 O   0  0  0  0  0  0  0  0  0  0  0  0
   12.9747  -18.4711   23.0980 N   0  0  0  0  0  0  0  0  0  0  0  0
   13.8124  -18.0735   24.2382 C   0  0  1  0  0  0  0  0  0  0  0  0
   13.0266  -18.0513   25.4937 C   0  0  0  0  0  0  0  0  0  0  0  0
   12.5854  -19.4209   25.9041 C   0  0  0  0  0  0  0  0  0  0  0  0
   12.0712  -19.5239   27.2796 C   0  0  0  0  0  0  0  0  0  0  0  0
   12.0818  -18.6123   28.1368 O   0  0  0  0  0  0  0  0  0  0  0  0
   14.8950  -19.0761   24.3217 C   0  0  0  0  0  0  0  0  0  0  0  0
   15.8825  -18.8518   25.0914 O   0  0  0  0  0  0  0  0  0  0  0  0
   11.5088  -20.7431   27.7073 O   0  0  0  0  0  0  0  0  0  0  0  0
   14.8619  -20.2482   23.5902 O   0  0  0  0  0  0  0  0  0  0  0  0
  2  1  1  1
  3  2  1  0
  4  3  1  0
  4  5  2  0
  6  5  1  0
  7 12  2  0
  7  6  1  0
  8  7  1  0
  9 10  1  0
  9  8  2  0
 10 11  2  0
 11 12  1  0
 12  4  1  0
 13 14  2  0
 13  2  1  0
 15 16  1  0
 16 17  2  0
 18 19  1  0
 18 16  1  0
 20 19  1  6
 20 21  1  0
 21 13  1  0
 22 20  1  0
 23 22  2  0
 24 22  1  0
 25 26  1  1
 25 24  1  0
 26 27  1  0
 27 28  1  0
 28 29  2  0
 28 32  1  0
 30 25  1  0
 31 30  2  0
 33 30  1  0
M  END
$$$$
