WQE.pdb
     RDKit          3D

 33 34  0  0  1  0  0  0  0  0999 V2000
    5.9720  -18.2697   24.7327 N   0  0  0  0  0  0  0  0  0  0  0  0
    6.2425  -16.8712   24.4697 C   0  0  1  0  0  0  0  0  0  0  0  0
    7.1328  -16.2608   25.5257 C   0  0  0  0  0  0  0  0  0  0  0  0
    6.6237  -14.9629   26.0169 C   0  0  0  0  0  0  0  0  0  0  0  0
    5.3062  -14.6244   26.2155 C   0  0  0  0  0  0  0  0  0  0  0  0
    5.2695  -13.3491   26.6700 N   0  0  0  0  0  0  0  0  0  0  0  0
    6.4979  -12.8382   26.7779 C   0  0  0  0  0  0  0  0  0  0  0  0
    6.9886  -11.6201   27.1808 C   0  0  0  0  0  0  0  0  0  0  0  0
    8.3514  -11.3597   27.1921 C   0  0  0  0  0  0  0  0  0  0  0  0
    9.1947  -12.3673   26.7844 C   0  0  0  0  0  0  0  0  0  0  0  0
    8.6972  -13.5940   26.3789 C   0  0  0  0  0  0  0  0  0  0  0  0
    7.3619  -13.8574   26.3649 C   0  0  0  0  0  0  0  0  0  0  0  0
    7.0214  -16.8234   23.1877 C   0  0  0  0  0  0  0  0  0  0  0  0
    7.8213  -17.7525   22.8797 O   0  0  0  0  0  0  0  0  0  0  0  0
    7.2006  -14.0876   17.6421 N   0  0  0  0  0  0  0  0  0  0  0  0
    8.5157  -14.0222   18.2388 C   0  0  0  0  0  0  0  0  0  0  0  0
    9.4462  -14.3498   17.4991 O   0  0  0  0  0  0  0  0  0  0  0  0
    8.5908  -13.5808   19.6350 C   0  0  0  0  0  0  0  0  0  0  0  0
    7.6079  -14.1184   20.5906 C   0  0  0  0  0  0  0  0  0  0  0  0
    7.9482  -15.3535   21.3412 C   0  0  2  0  0  0  0  0  0  0  0  0
    6.9072  -15.7525   22.2637 N   0  0  0  0  0  0  0  0  0  0  0  0
    9.3162  -15.4671   21.8652 C   0  0  0  0  0  0  0  0  0  0  0  0
    9.5653  -14.8486   22.9453 O   0  0  0  0  0  0  0  0  0  0  0  0
   10.3507  -16.1964   21.2696 N   0  0  0  0  0  0  0  0  0  0  0  0
   11.6759  -16.3922   21.8740 C   0  0  1  0  0  0  0  0  0  0  0  0
   12.0252  -17.8304   21.9362 C   0  0  0  0  0  0  0  0  0  0  0  0
   13.3898  -18.0524   22.5085 C   0  0  0  0  0  0  0  0  0  0  0  0
   13.8043  -19.4618   22.6026 C   0  0  0  0  0  0  0  0  0  0  0  0
   14.1628  -20.0528   23.6457 O   0  0  0  0  0  0  0  0  0  0  0  0
   12.6314  -15.6632   21.0139 C   0  0  0  0  0  0  0  0  0  0  0  0
   12.3905  -15.5709   19.7684 O   0  0  0  0  0  0  0  0  0  0  0  0
   13.8114  -20.2494   21.4341 O   0  0  0  0  0  0  0  0  0  0  0  0
   13.7745  -15.0789   21.5255 O   0  0  0  0  0  0  0  0  0  0  0  0
  2  1  1  1
  3  2  1  0
  4  3  1  0
  4  5  2  0
  6  5  1  0
  7 12  2  0
  7  6  1  0
  8  7  1  0
  9 10  1  0
  9  8  2  0
 10 11  2  0
 11 12  1  0
 12  4  1  0
 13 14  2  0
 13  2  1  0
 15 16  1  0
 16 17  2  0
 18 19  1  0
 18 16  1  0
 20 19  1  1
 20 21  1  0
 21 13  1  0
 22 20  1  0
 23 22  2  0
 24 22  1  0
 25 26  1  6
 25 24  1  0
 26 27  1  0
 27 28  1  0
 28 29  2  0
 28 32  1  0
 30 25  1  0
 31 30  2  0
 33 30  1  0
M  END
$$$$
