WQE.pdb
     RDKit          3D

 33 34  0  0  1  0  0  0  0  0999 V2000
    6.4162  -17.8953   25.1062 N   0  0  0  0  0  0  0  0  0  0  0  0
    6.6773  -16.5931   24.5277 C   0  0  1  0  0  0  0  0  0  0  0  0
    7.6077  -15.7708   25.3871 C   0  0  0  0  0  0  0  0  0  0  0  0
    6.8899  -14.7691   26.2035 C   0  0  0  0  0  0  0  0  0  0  0  0
    5.9905  -15.0285   27.2102 C   0  0  0  0  0  0  0  0  0  0  0  0
    5.5636  -13.8408   27.7014 N   0  0  0  0  0  0  0  0  0  0  0  0
    6.1399  -12.8186   27.0652 C   0  0  0  0  0  0  0  0  0  0  0  0
    6.0483  -11.4531   27.1823 C   0  0  0  0  0  0  0  0  0  0  0  0
    6.7850  -10.6083   26.3644 C   0  0  0  0  0  0  0  0  0  0  0  0
    7.6119  -11.1889   25.4306 C   0  0  0  0  0  0  0  0  0  0  0  0
    7.7020  -12.5655   25.3150 C   0  0  0  0  0  0  0  0  0  0  0  0
    6.9828  -13.4011   26.1133 C   0  0  0  0  0  0  0  0  0  0  0  0
    7.4067  -16.8397   23.2395 C   0  0  0  0  0  0  0  0  0  0  0  0
    8.2792  -17.7502   23.1520 O   0  0  0  0  0  0  0  0  0  0  0  0
    7.4833  -12.6276   17.5322 N   0  0  0  0  0  0  0  0  0  0  0  0
    8.1517  -13.8480   17.9243 C   0  0  0  0  0  0  0  0  0  0  0  0
    8.2409  -14.7058   17.0431 O   0  0  0  0  0  0  0  0  0  0  0  0
    8.6391  -13.9247   19.3050 C   0  0  0  0  0  0  0  0  0  0  0  0
    7.7308  -14.4514   20.3374 C   0  0  0  0  0  0  0  0  0  0  0  0
    8.1986  -15.5728   21.1908 C   0  0  2  0  0  0  0  0  0  0  0  0
    7.1637  -16.0793   22.0662 N   0  0  0  0  0  0  0  0  0  0  0  0
    9.5234  -15.4383   21.8119 C   0  0  0  0  0  0  0  0  0  0  0  0
    9.5936  -14.7148   22.8525 O   0  0  0  0  0  0  0  0  0  0  0  0
   10.6975  -16.0404   21.3473 N   0  0  0  0  0  0  0  0  0  0  0  0
   12.0333  -15.7792   21.9016 C   0  0  1  0  0  0  0  0  0  0  0  0
   12.2475  -16.5394   23.1548 C   0  0  0  0  0  0  0  0  0  0  0  0
   12.0456  -18.0093   22.9612 C   0  0  0  0  0  0  0  0  0  0  0  0
   12.3481  -18.8402   24.1381 C   0  0  0  0  0  0  0  0  0  0  0  0
   13.0632  -18.5047   25.1087 O   0  0  0  0  0  0  0  0  0  0  0  0
   12.9980  -16.2046   20.8658 C   0  0  0  0  0  0  0  0  0  0  0  0
   12.5690  -16.8363   19.8486 O   0  0  0  0  0  0  0  0  0  0  0  0
   11.8015  -20.1367   24.2155 O   0  0  0  0  0  0  0  0  0  0  0  0
   14.3489  -15.9329   20.9715 O   0  0  0  0  0  0  0  0  0  0  0  0
  2  1  1  1
  3  2  1  0
  4  3  1  0
  4  5  2  0
  6  5  1  0
  7 12  2  0
  7  6  1  0
  8  7  1  0
  9 10  1  0
  9  8  2  0
 10 11  2  0
 11 12  1  0
 12  4  1  0
 13 14  2  0
 13  2  1  0
 15 16  1  0
 16 17  2  0
 18 19  1  0
 18 16  1  0
 20 19  1  1
 20 21  1  0
 21 13  1  0
 22 20  1  0
 23 22  2  0
 24 22  1  0
 25 26  1  1
 25 24  1  0
 26 27  1  0
 27 28  1  0
 28 29  2  0
 28 32  1  0
 30 25  1  0
 31 30  2  0
 33 30  1  0
M  END
$$$$
