WQE.pdb
     RDKit          3D

 33 34  0  0  1  0  0  0  0  0999 V2000
    6.1305  -17.3407   24.2872 N   0  0  0  0  0  0  0  0  0  0  0  0
    6.7902  -16.2315   23.6292 C   0  0  1  0  0  0  0  0  0  0  0  0
    7.6787  -15.4615   24.5769 C   0  0  0  0  0  0  0  0  0  0  0  0
    6.9098  -14.6336   25.5300 C   0  0  0  0  0  0  0  0  0  0  0  0
    6.0978  -15.0919   26.5402 C   0  0  0  0  0  0  0  0  0  0  0  0
    5.5814  -14.0147   27.1783 N   0  0  0  0  0  0  0  0  0  0  0  0
    6.0159  -12.8757   26.6347 C   0  0  0  0  0  0  0  0  0  0  0  0
    5.7939  -11.5477   26.9063 C   0  0  0  0  0  0  0  0  0  0  0  0
    6.3957  -10.5479   26.1557 C   0  0  0  0  0  0  0  0  0  0  0  0
    7.2241  -10.9355   25.1280 C   0  0  0  0  0  0  0  0  0  0  0  0
    7.4459  -12.2748   24.8566 C   0  0  0  0  0  0  0  0  0  0  0  0
    6.8594  -13.2616   25.5881 C   0  0  0  0  0  0  0  0  0  0  0  0
    7.7000  -16.8308   22.5970 C   0  0  0  0  0  0  0  0  0  0  0  0
    8.4577  -17.8007   22.8849 O   0  0  0  0  0  0  0  0  0  0  0  0
    8.8559  -14.6771   16.5175 N   0  0  0  0  0  0  0  0  0  0  0  0
    8.2139  -13.9207   17.5689 C   0  0  0  0  0  0  0  0  0  0  0  0
    7.7759  -12.8185   17.2322 O   0  0  0  0  0  0  0  0  0  0  0  0
    8.1589  -14.5419   18.8960 C   0  0  0  0  0  0  0  0  0  0  0  0
    8.6944  -15.9048   19.0512 C   0  0  0  0  0  0  0  0  0  0  0  0
    8.9373  -16.4212   20.4220 C   0  0  2  0  0  0  0  0  0  0  0  0
    7.7613  -16.3525   21.2624 N   0  0  0  0  0  0  0  0  0  0  0  0
   10.1907  -16.0248   21.0781 C   0  0  0  0  0  0  0  0  0  0  0  0
   10.2084  -14.8809   21.6282 O   0  0  0  0  0  0  0  0  0  0  0  0
   11.3507  -16.8042   21.1405 N   0  0  0  0  0  0  0  0  0  0  0  0
   12.5879  -16.3889   21.8162 C   0  0  1  0  0  0  0  0  0  0  0  0
   12.8011  -17.1646   23.0600 C   0  0  0  0  0  0  0  0  0  0  0  0
   12.5239  -18.6223   22.8670 C   0  0  0  0  0  0  0  0  0  0  0  0
   12.8499  -19.4767   24.0205 C   0  0  0  0  0  0  0  0  0  0  0  0
   12.2637  -20.5358   24.3378 O   0  0  0  0  0  0  0  0  0  0  0  0
   13.6835  -16.6375   20.8559 C   0  0  0  0  0  0  0  0  0  0  0  0
   13.4068  -17.1584   19.7290 O   0  0  0  0  0  0  0  0  0  0  0  0
   13.9116  -19.1017   24.8678 O   0  0  0  0  0  0  0  0  0  0  0  0
   14.9960  -16.3176   21.1477 O   0  0  0  0  0  0  0  0  0  0  0  0
  2  1  1  1
  3  2  1  0
  4  3  1  0
  4  5  2  0
  6  5  1  0
  7 12  2  0
  7  6  1  0
  8  7  1  0
  9 10  1  0
  9  8  2  0
 10 11  2  0
 11 12  1  0
 12  4  1  0
 13 14  2  0
 13  2  1  0
 15 16  1  0
 16 17  2  0
 18 19  1  0
 18 16  1  0
 20 19  1  6
 20 21  1  0
 21 13  1  0
 22 20  1  0
 23 22  2  0
 24 22  1  0
 25 26  1  1
 25 24  1  0
 26 27  1  0
 27 28  1  0
 28 29  2  0
 28 32  1  0
 30 25  1  0
 31 30  2  0
 33 30  1  0
M  END
$$$$
