SQG.pdb
     RDKit          3D

 20 19  0  0  1  0  0  0  0  0999 V2000
   13.2607  -17.4687   17.7972 O   0  0  0  0  0  0  0  0  0  0  0  0
   12.6644  -16.8794   18.9161 C   0  0  0  0  0  0  0  0  0  0  0  0
   12.2828  -15.4760   18.5242 C   0  0  2  0  0  0  0  0  0  0  0  0
   13.4199  -14.7906   18.0082 N   0  0  0  0  0  0  0  0  0  0  0  0
   11.6752  -14.7157   19.6441 C   0  0  0  0  0  0  0  0  0  0  0  0
   12.2847  -13.7888   20.2305 O   0  0  0  0  0  0  0  0  0  0  0  0
    8.2993  -12.5206   17.4918 N   0  0  0  0  0  0  0  0  0  0  0  0
    8.0773  -13.5164   18.4812 C   0  0  0  0  0  0  0  0  0  0  0  0
    8.0808  -14.7213   18.1637 O   0  0  0  0  0  0  0  0  0  0  0  0
    7.8401  -13.1432   19.8943 C   0  0  0  0  0  0  0  0  0  0  0  0
    8.1098  -14.3303   20.7878 C   0  0  0  0  0  0  0  0  0  0  0  0
    9.5864  -14.5084   21.1012 C   0  0  2  0  0  0  0  0  0  0  0  0
   10.3680  -15.0656   20.0445 N   0  0  0  0  0  0  0  0  0  0  0  0
    9.8682  -15.0132   22.4387 C   0  0  0  0  0  0  0  0  0  0  0  0
    9.3091  -14.4528   23.4217 O   0  0  0  0  0  0  0  0  0  0  0  0
   10.7438  -16.1035   22.6433 N   0  0  0  0  0  0  0  0  0  0  0  0
   10.8607  -16.6523   23.9858 C   0  0  0  0  0  0  0  0  0  0  0  0
   11.7188  -17.8465   23.9959 C   0  0  0  0  0  0  0  0  0  0  0  0
   12.2443  -18.2243   22.9185 O   0  0  0  0  0  0  0  0  0  0  0  0
   11.9753  -18.5748   25.1372 O   0  0  0  0  0  0  0  0  0  0  0  0
  2  1  1  0
  3  2  1  0
  3  4  1  1
  5  6  2  0
  5  3  1  0
  7  8  1  0
  8  9  2  0
 10  8  1  0
 10 11  1  0
 12 11  1  6
 12 13  1  0
 13  5  1  0
 14 12  1  0
 14 16  1  0
 15 14  2  0
 17 16  1  0
 18 17  1  0
 19 18  2  0
 20 18  1  0
M  END
$$$$
