SQG.pdb
     RDKit          3D

 20 19  0  0  1  0  0  0  0  0999 V2000
   12.2656  -19.0714   16.9167 O   0  0  0  0  0  0  0  0  0  0  0  0
   11.3695  -19.4671   15.9191 C   0  0  0  0  0  0  0  0  0  0  0  0
   10.5040  -18.2748   15.6060 C   0  0  2  0  0  0  0  0  0  0  0  0
   11.2096  -17.3727   14.7589 N   0  0  0  0  0  0  0  0  0  0  0  0
   10.0236  -17.5817   16.8266 C   0  0  0  0  0  0  0  0  0  0  0  0
   10.4185  -16.4331   17.1418 O   0  0  0  0  0  0  0  0  0  0  0  0
    5.1906  -19.3085   20.6777 N   0  0  0  0  0  0  0  0  0  0  0  0
    5.7126  -20.1230   19.6366 C   0  0  0  0  0  0  0  0  0  0  0  0
    5.3279  -21.3021   19.5163 O   0  0  0  0  0  0  0  0  0  0  0  0
    6.7138  -19.5898   18.6849 C   0  0  0  0  0  0  0  0  0  0  0  0
    7.0239  -18.1512   19.0233 C   0  0  0  0  0  0  0  0  0  0  0  0
    8.4969  -17.8124   18.8626 C   0  0  2  0  0  0  0  0  0  0  0  0
    9.0922  -18.2573   17.6437 N   0  0  0  0  0  0  0  0  0  0  0  0
    9.2975  -17.9909   20.0669 C   0  0  0  0  0  0  0  0  0  0  0  0
    8.9566  -17.3699   21.1115 O   0  0  0  0  0  0  0  0  0  0  0  0
   10.4298  -18.8365   20.0779 N   0  0  0  0  0  0  0  0  0  0  0  0
   11.1699  -18.9827   21.3221 C   0  0  0  0  0  0  0  0  0  0  0  0
   10.6128  -20.0672   22.1443 C   0  0  0  0  0  0  0  0  0  0  0  0
    9.5737  -20.6541   21.7502 O   0  0  0  0  0  0  0  0  0  0  0  0
   11.1796  -20.4725   23.3332 O   0  0  0  0  0  0  0  0  0  0  0  0
  2  1  1  0
  3  2  1  0
  3  4  1  6
  5  6  2  0
  5  3  1  0
  7  8  1  0
  8  9  2  0
 10  8  1  0
 10 11  1  0
 12 11  1  1
 12 13  1  0
 13  5  1  0
 14 12  1  0
 14 16  1  0
 15 14  2  0
 17 16  1  0
 18 17  1  0
 19 18  2  0
 20 18  1  0
M  END
$$$$
