SQG.pdb
     RDKit          3D

 20 19  0  0  1  0  0  0  0  0999 V2000
    8.3621  -15.6122   17.8550 O   0  0  0  0  0  0  0  0  0  0  0  0
    7.1229  -15.0456   18.1679 C   0  0  0  0  0  0  0  0  0  0  0  0
    7.3947  -13.6779   18.7373 C   0  0  2  0  0  0  0  0  0  0  0  0
    7.9811  -12.8457   17.7409 N   0  0  0  0  0  0  0  0  0  0  0  0
    8.2469  -13.7238   19.9509 C   0  0  0  0  0  0  0  0  0  0  0  0
    9.4811  -13.5012   19.9093 O   0  0  0  0  0  0  0  0  0  0  0  0
    5.7448  -13.5280   25.8321 N   0  0  0  0  0  0  0  0  0  0  0  0
    7.1418  -13.6328   26.0713 C   0  0  0  0  0  0  0  0  0  0  0  0
    7.5834  -13.5388   27.2327 O   0  0  0  0  0  0  0  0  0  0  0  0
    8.0889  -13.8535   24.9548 C   0  0  0  0  0  0  0  0  0  0  0  0
    7.3332  -13.9123   23.6488 C   0  0  0  0  0  0  0  0  0  0  0  0
    8.2333  -14.2070   22.4600 C   0  0  2  0  0  0  0  0  0  0  0  0
    7.6256  -14.0300   21.1804 N   0  0  0  0  0  0  0  0  0  0  0  0
    9.0731  -15.3882   22.6103 C   0  0  0  0  0  0  0  0  0  0  0  0
    8.5151  -16.5194   22.6554 O   0  0  0  0  0  0  0  0  0  0  0  0
   10.4794  -15.2830   22.7035 N   0  0  0  0  0  0  0  0  0  0  0  0
   11.1367  -15.8373   23.8773 C   0  0  0  0  0  0  0  0  0  0  0  0
   11.2028  -17.3044   23.8027 C   0  0  0  0  0  0  0  0  0  0  0  0
   11.9086  -17.8346   22.9081 O   0  0  0  0  0  0  0  0  0  0  0  0
   10.5237  -18.1299   24.6723 O   0  0  0  0  0  0  0  0  0  0  0  0
  2  1  1  0
  3  2  1  0
  3  4  1  6
  5  6  2  0
  5  3  1  0
  7  8  1  0
  8  9  2  0
 10  8  1  0
 10 11  1  0
 12 11  1  1
 12 13  1  0
 13  5  1  0
 14 12  1  0
 14 16  1  0
 15 14  2  0
 17 16  1  0
 18 17  1  0
 19 18  2  0
 20 18  1  0
M  END
$$$$
