SQG.pdb
     RDKit          3D

 20 19  0  0  1  0  0  0  0  0999 V2000
   -4.0934  -28.8299   33.2582 O   0  0  0  0  0  0  0  0  0  0  0  0
   -4.5058  -27.5424   32.9021 C   0  0  0  0  0  0  0  0  0  0  0  0
   -3.2760  -26.7908   32.4649 C   0  0  2  0  0  0  0  0  0  0  0  0
   -2.3603  -26.6857   33.5510 N   0  0  0  0  0  0  0  0  0  0  0  0
   -3.5921  -25.4502   31.9134 C   0  0  0  0  0  0  0  0  0  0  0  0
   -3.6354  -24.4243   32.6347 O   0  0  0  0  0  0  0  0  0  0  0  0
   -2.8743  -24.1505   25.7392 N   0  0  0  0  0  0  0  0  0  0  0  0
   -3.5773  -23.0048   26.2004 C   0  0  0  0  0  0  0  0  0  0  0  0
   -3.7990  -22.0559   25.4238 O   0  0  0  0  0  0  0  0  0  0  0  0
   -4.0547  -22.9189   27.5994 C   0  0  0  0  0  0  0  0  0  0  0  0
   -3.7748  -24.2191   28.3147 C   0  0  0  0  0  0  0  0  0  0  0  0
   -4.1995  -24.1922   29.7738 C   0  0  2  0  0  0  0  0  0  0  0  0
   -3.8488  -25.3516   30.5292 N   0  0  0  0  0  0  0  0  0  0  0  0
   -5.5334  -23.6555   30.0098 C   0  0  0  0  0  0  0  0  0  0  0  0
   -6.5103  -24.4547   30.0101 O   0  0  0  0  0  0  0  0  0  0  0  0
   -5.7413  -22.2759   30.2350 N   0  0  0  0  0  0  0  0  0  0  0  0
   -7.0750  -21.8310   30.6095 C   0  0  0  0  0  0  0  0  0  0  0  0
   -8.0201  -21.9972   29.4951 C   0  0  0  0  0  0  0  0  0  0  0  0
   -9.2150  -21.6424   29.6558 O   0  0  0  0  0  0  0  0  0  0  0  0
   -7.6551  -22.5265   28.2763 O   0  0  0  0  0  0  0  0  0  0  0  0
  2  1  1  0
  3  2  1  0
  3  4  1  1
  5  6  2  0
  5  3  1  0
  7  8  1  0
  8  9  2  0
 10  8  1  0
 10 11  1  0
 12 11  1  6
 12 13  1  0
 13  5  1  0
 14 12  1  0
 14 16  1  0
 15 14  2  0
 17 16  1  0
 18 17  1  0
 19 18  2  0
 20 18  1  0
M  END
$$$$
