SQG.pdb
     RDKit          3D

 20 19  0  0  1  0  0  0  0  0999 V2000
   11.5640  -18.3240   20.9596 O   0  0  0  0  0  0  0  0  0  0  0  0
   10.5086  -18.6127   20.0892 C   0  0  0  0  0  0  0  0  0  0  0  0
   10.4129  -17.4662   19.1171 C   0  0  2  0  0  0  0  0  0  0  0  0
   11.5763  -17.4284   18.2959 N   0  0  0  0  0  0  0  0  0  0  0  0
   10.2041  -16.1614   19.7918 C   0  0  0  0  0  0  0  0  0  0  0  0
   11.0970  -15.2809   19.8344 O   0  0  0  0  0  0  0  0  0  0  0  0
    8.0670  -12.5449   19.3268 N   0  0  0  0  0  0  0  0  0  0  0  0
    7.1375  -13.4619   18.7656 C   0  0  0  0  0  0  0  0  0  0  0  0
    6.8067  -13.3591   17.5687 O   0  0  0  0  0  0  0  0  0  0  0  0
    6.5511  -14.5462   19.5859 C   0  0  0  0  0  0  0  0  0  0  0  0
    7.0518  -14.4391   21.0065 C   0  0  0  0  0  0  0  0  0  0  0  0
    8.5264  -14.7831   21.1390 C   0  0  2  0  0  0  0  0  0  0  0  0
    8.9515  -15.9269   20.3981 N   0  0  0  0  0  0  0  0  0  0  0  0
    9.0609  -14.6617   22.4890 C   0  0  0  0  0  0  0  0  0  0  0  0
    8.7031  -13.6747   23.1895 O   0  0  0  0  0  0  0  0  0  0  0  0
    9.9580  -15.6198   23.0131 N   0  0  0  0  0  0  0  0  0  0  0  0
   10.3559  -15.5024   24.4077 C   0  0  0  0  0  0  0  0  0  0  0  0
   11.2309  -16.6161   24.8034 C   0  0  0  0  0  0  0  0  0  0  0  0
   11.5336  -17.4833   23.9455 O   0  0  0  0  0  0  0  0  0  0  0  0
   11.7374  -16.7545   26.0774 O   0  0  0  0  0  0  0  0  0  0  0  0
  2  1  1  0
  3  2  1  0
  3  4  1  1
  5  6  2  0
  5  3  1  0
  7  8  1  0
  8  9  2  0
 10  8  1  0
 10 11  1  0
 12 11  1  1
 12 13  1  0
 13  5  1  0
 14 12  1  0
 14 16  1  0
 15 14  2  0
 17 16  1  0
 18 17  1  0
 19 18  2  0
 20 18  1  0
M  END
$$$$
