SQG.pdb
     RDKit          3D

 20 19  0  0  1  0  0  0  0  0999 V2000
    7.7579  -15.7580   18.2069 O   0  0  0  0  0  0  0  0  0  0  0  0
    7.5794  -15.6769   19.5912 C   0  0  0  0  0  0  0  0  0  0  0  0
    7.4242  -14.2178   19.9309 C   0  0  2  0  0  0  0  0  0  0  0  0
    7.8074  -13.4172   18.8168 N   0  0  0  0  0  0  0  0  0  0  0  0
    8.1865  -13.8296   21.1431 C   0  0  0  0  0  0  0  0  0  0  0  0
    9.2847  -13.2262   21.0769 O   0  0  0  0  0  0  0  0  0  0  0  0
    5.4085  -12.4872   26.5942 N   0  0  0  0  0  0  0  0  0  0  0  0
    6.7664  -12.6009   26.9977 C   0  0  0  0  0  0  0  0  0  0  0  0
    7.1063  -12.2528   28.1449 O   0  0  0  0  0  0  0  0  0  0  0  0
    7.7924  -13.1304   26.0706 C   0  0  0  0  0  0  0  0  0  0  0  0
    7.1626  -13.4336   24.7321 C   0  0  0  0  0  0  0  0  0  0  0  0
    8.1735  -13.9001   23.6973 C   0  0  2  0  0  0  0  0  0  0  0  0
    7.6375  -14.1610   22.4002 N   0  0  0  0  0  0  0  0  0  0  0  0
    9.1495  -14.8629   24.1907 C   0  0  0  0  0  0  0  0  0  0  0  0
    9.8453  -14.5503   25.1962 O   0  0  0  0  0  0  0  0  0  0  0  0
    9.3216  -16.1197   23.5678 N   0  0  0  0  0  0  0  0  0  0  0  0
   10.3298  -17.0226   24.1020 C   0  0  0  0  0  0  0  0  0  0  0  0
    9.9133  -17.5708   25.4014 C   0  0  0  0  0  0  0  0  0  0  0  0
    9.8389  -16.7978   26.3896 O   0  0  0  0  0  0  0  0  0  0  0  0
    9.5990  -18.8995   25.5877 O   0  0  0  0  0  0  0  0  0  0  0  0
  2  1  1  0
  3  2  1  0
  3  4  1  6
  5  6  2  0
  5  3  1  0
  7  8  1  0
  8  9  2  0
 10  8  1  0
 10 11  1  0
 12 11  1  1
 12 13  1  0
 13  5  1  0
 14 12  1  0
 14 16  1  0
 15 14  2  0
 17 16  1  0
 18 17  1  0
 19 18  2  0
 20 18  1  0
M  END
$$$$
