SQG.pdb
     RDKit          3D

 20 19  0  0  1  0  0  0  0  0999 V2000
   11.8762  -18.9383   16.1242 O   0  0  0  0  0  0  0  0  0  0  0  0
   12.2439  -18.1715   17.2339 C   0  0  0  0  0  0  0  0  0  0  0  0
   12.2498  -16.7315   16.7922 C   0  0  2  0  0  0  0  0  0  0  0  0
   13.2993  -16.5168   15.8532 N   0  0  0  0  0  0  0  0  0  0  0  0
   12.3619  -15.7858   17.9299 C   0  0  0  0  0  0  0  0  0  0  0  0
   13.4517  -15.2532   18.2510 O   0  0  0  0  0  0  0  0  0  0  0  0
    7.1759  -12.9308   20.1000 N   0  0  0  0  0  0  0  0  0  0  0  0
    7.8048  -12.8875   18.8263 C   0  0  0  0  0  0  0  0  0  0  0  0
    7.2046  -12.3943   17.8521 O   0  0  0  0  0  0  0  0  0  0  0  0
    9.1722  -13.4227   18.6360 C   0  0  0  0  0  0  0  0  0  0  0  0
    9.6896  -13.9767   19.9420 C   0  0  0  0  0  0  0  0  0  0  0  0
   11.0462  -14.6474   19.8013 C   0  0  2  0  0  0  0  0  0  0  0  0
   11.1901  -15.4917   18.6592 N   0  0  0  0  0  0  0  0  0  0  0  0
   11.6055  -15.1569   21.0467 C   0  0  0  0  0  0  0  0  0  0  0  0
   10.8320  -15.7342   21.8599 O   0  0  0  0  0  0  0  0  0  0  0  0
   12.9790  -15.0150   21.3477 N   0  0  0  0  0  0  0  0  0  0  0  0
   13.4755  -15.5849   22.5910 C   0  0  0  0  0  0  0  0  0  0  0  0
   14.9291  -15.3992   22.7143 C   0  0  0  0  0  0  0  0  0  0  0  0
   15.5598  -14.8967   21.7504 O   0  0  0  0  0  0  0  0  0  0  0  0
   15.6361  -15.7522   23.8432 O   0  0  0  0  0  0  0  0  0  0  0  0
  2  1  1  0
  3  2  1  0
  3  4  1  6
  5  6  2  0
  5  3  1  0
  7  8  1  0
  8  9  2  0
 10  8  1  0
 10 11  1  0
 12 11  1  1
 12 13  1  0
 13  5  1  0
 14 12  1  0
 14 16  1  0
 15 14  2  0
 17 16  1  0
 18 17  1  0
 19 18  2  0
 20 18  1  0
M  END
$$$$
