SQG.pdb
     RDKit          3D

 20 19  0  0  1  0  0  0  0  0999 V2000
   14.0460  -11.9240   37.9367 O   0  0  0  0  0  0  0  0  0  0  0  0
   13.8235  -11.8952   39.3167 C   0  0  0  0  0  0  0  0  0  0  0  0
   12.4581  -12.4847   39.5553 C   0  0  2  0  0  0  0  0  0  0  0  0
   11.9821  -13.1033   38.3637 N   0  0  0  0  0  0  0  0  0  0  0  0
   11.4828  -11.4832   40.0524 C   0  0  0  0  0  0  0  0  0  0  0  0
   10.7462  -10.8263   39.2776 O   0  0  0  0  0  0  0  0  0  0  0  0
    8.2204  -12.0415   45.2630 N   0  0  0  0  0  0  0  0  0  0  0  0
    8.2361  -12.7269   44.0181 C   0  0  0  0  0  0  0  0  0  0  0  0
    7.5849  -13.7801   43.8789 O   0  0  0  0  0  0  0  0  0  0  0  0
    9.0196  -12.2064   42.8745 C   0  0  0  0  0  0  0  0  0  0  0  0
    9.7589  -10.9568   43.2892 C   0  0  0  0  0  0  0  0  0  0  0  0
   10.5796  -10.3555   42.1600 C   0  0  2  0  0  0  0  0  0  0  0  0
   11.3997  -11.2811   41.4466 N   0  0  0  0  0  0  0  0  0  0  0  0
   11.1889   -9.0685   42.4687 C   0  0  0  0  0  0  0  0  0  0  0  0
   10.4664   -8.1705   42.9831 O   0  0  0  0  0  0  0  0  0  0  0  0
   12.5547   -8.8197   42.2042 N   0  0  0  0  0  0  0  0  0  0  0  0
   13.0884   -7.5016   42.5122 C   0  0  0  0  0  0  0  0  0  0  0  0
   13.7576   -6.9154   41.3413 C   0  0  0  0  0  0  0  0  0  0  0  0
   13.6948   -7.5202   40.2414 O   0  0  0  0  0  0  0  0  0  0  0  0
   14.4543   -5.7275   41.3936 O   0  0  0  0  0  0  0  0  0  0  0  0
  2  1  1  0
  3  2  1  0
  3  4  1  6
  5  6  2  0
  5  3  1  0
  7  8  1  0
  8  9  2  0
 10  8  1  0
 10 11  1  0
 12 11  1  1
 12 13  1  0
 13  5  1  0
 14 12  1  0
 14 16  1  0
 15 14  2  0
 17 16  1  0
 18 17  1  0
 19 18  2  0
 20 18  1  0
M  END
$$$$
