SQG.pdb
     RDKit          3D

 20 19  0  0  1  0  0  0  0  0999 V2000
    9.2678  -15.2493   16.1104 O   0  0  0  0  0  0  0  0  0  0  0  0
    9.2968  -15.1450   17.5043 C   0  0  0  0  0  0  0  0  0  0  0  0
    8.0338  -14.4372   17.9197 C   0  0  2  0  0  0  0  0  0  0  0  0
    7.9361  -13.1852   17.2473 N   0  0  0  0  0  0  0  0  0  0  0  0
    7.9395  -14.2528   19.3888 C   0  0  0  0  0  0  0  0  0  0  0  0
    8.2073  -13.1596   19.9434 O   0  0  0  0  0  0  0  0  0  0  0  0
    4.6898  -18.5463   22.6955 N   0  0  0  0  0  0  0  0  0  0  0  0
    4.2486  -17.6571   21.6784 C   0  0  0  0  0  0  0  0  0  0  0  0
    3.1552  -17.8510   21.1131 O   0  0  0  0  0  0  0  0  0  0  0  0
    5.0730  -16.4949   21.2759 C   0  0  0  0  0  0  0  0  0  0  0  0
    6.3705  -16.4977   22.0484 C   0  0  0  0  0  0  0  0  0  0  0  0
    7.3381  -15.4237   21.5789 C   0  0  2  0  0  0  0  0  0  0  0  0
    7.5330  -15.3582   20.1662 N   0  0  0  0  0  0  0  0  0  0  0  0
    8.5365  -15.2846   22.3961 C   0  0  0  0  0  0  0  0  0  0  0  0
    8.4020  -15.1950   23.6479 O   0  0  0  0  0  0  0  0  0  0  0  0
    9.8235  -15.2506   21.8133 N   0  0  0  0  0  0  0  0  0  0  0  0
   10.9745  -15.0994   22.6904 C   0  0  0  0  0  0  0  0  0  0  0  0
   11.5721  -16.4049   23.0081 C   0  0  0  0  0  0  0  0  0  0  0  0
   10.8733  -17.4406   22.8720 O   0  0  0  0  0  0  0  0  0  0  0  0
   12.8694  -16.5470   23.4506 O   0  0  0  0  0  0  0  0  0  0  0  0
  2  1  1  0
  3  2  1  0
  3  4  1  6
  5  6  2  0
  5  3  1  0
  7  8  1  0
  8  9  2  0
 10  8  1  0
 10 11  1  0
 12 11  1  6
 12 13  1  0
 13  5  1  0
 14 12  1  0
 14 16  1  0
 15 14  2  0
 17 16  1  0
 18 17  1  0
 19 18  2  0
 20 18  1  0
M  END
$$$$
