SQG.pdb
     RDKit          3D

 20 19  0  0  1  0  0  0  0  0999 V2000
    6.8971  -21.2406   20.8424 O   0  0  0  0  0  0  0  0  0  0  0  0
    6.9942  -19.8886   21.1846 C   0  0  0  0  0  0  0  0  0  0  0  0
    7.5247  -19.1647   19.9750 C   0  0  2  0  0  0  0  0  0  0  0  0
    8.0869  -20.0993   19.0587 N   0  0  0  0  0  0  0  0  0  0  0  0
    8.5123  -18.1145   20.3257 C   0  0  0  0  0  0  0  0  0  0  0  0
    9.7483  -18.3306   20.3185 O   0  0  0  0  0  0  0  0  0  0  0  0
    7.0335  -12.1439   19.4635 N   0  0  0  0  0  0  0  0  0  0  0  0
    7.3728  -13.1699   18.5405 C   0  0  0  0  0  0  0  0  0  0  0  0
    7.0897  -13.0404   17.3339 O   0  0  0  0  0  0  0  0  0  0  0  0
    8.0625  -14.3998   18.9920 C   0  0  0  0  0  0  0  0  0  0  0  0
    8.2355  -14.3664   20.4918 C   0  0  0  0  0  0  0  0  0  0  0  0
    8.7598  -15.6777   21.0538 C   0  0  2  0  0  0  0  0  0  0  0  0
    8.0204  -16.8388   20.6752 N   0  0  0  0  0  0  0  0  0  0  0  0
    9.1843  -15.6167   22.4463 C   0  0  0  0  0  0  0  0  0  0  0  0
    8.3058  -15.7205   23.3465 O   0  0  0  0  0  0  0  0  0  0  0  0
   10.5437  -15.4468   22.7933 N   0  0  0  0  0  0  0  0  0  0  0  0
   10.9020  -15.4532   24.2035 C   0  0  0  0  0  0  0  0  0  0  0  0
   11.6123  -16.6897   24.5629 C   0  0  0  0  0  0  0  0  0  0  0  0
   10.9415  -17.7198   24.8246 O   0  0  0  0  0  0  0  0  0  0  0  0
   12.9863  -16.7726   24.6265 O   0  0  0  0  0  0  0  0  0  0  0  0
  2  1  1  0
  3  2  1  0
  3  4  1  6
  5  6  2  0
  5  3  1  0
  7  8  1  0
  8  9  2  0
 10  8  1  0
 10 11  1  0
 12 11  1  1
 12 13  1  0
 13  5  1  0
 14 12  1  0
 14 16  1  0
 15 14  2  0
 17 16  1  0
 18 17  1  0
 19 18  2  0
 20 18  1  0
M  END
$$$$
