SQG.pdb
     RDKit          3D

 20 19  0  0  1  0  0  0  0  0999 V2000
   13.1192  -19.5383   23.0939 O   0  0  0  0  0  0  0  0  0  0  0  0
   13.1272  -20.9236   23.2830 C   0  0  0  0  0  0  0  0  0  0  0  0
   11.7343  -21.3200   23.6966 C   0  0  2  0  0  0  0  0  0  0  0  0
   10.8125  -21.0088   22.6561 N   0  0  0  0  0  0  0  0  0  0  0  0
   11.3168  -20.6901   24.9734 C   0  0  0  0  0  0  0  0  0  0  0  0
   10.5848  -19.6716   25.0078 O   0  0  0  0  0  0  0  0  0  0  0  0
   12.1194  -23.8261   30.5074 N   0  0  0  0  0  0  0  0  0  0  0  0
   11.4718  -22.6270   30.9107 C   0  0  0  0  0  0  0  0  0  0  0  0
   11.1469  -22.4654   32.1028 O   0  0  0  0  0  0  0  0  0  0  0  0
   11.1742  -21.5580   29.9304 C   0  0  0  0  0  0  0  0  0  0  0  0
   11.6412  -21.9801   28.5578 C   0  0  0  0  0  0  0  0  0  0  0  0
   11.4743  -20.8858   27.5163 C   0  0  2  0  0  0  0  0  0  0  0  0
   11.7709  -21.2744   26.1750 N   0  0  0  0  0  0  0  0  0  0  0  0
   11.9653  -19.5762   27.9252 C   0  0  0  0  0  0  0  0  0  0  0  0
   13.1868  -19.3117   27.7495 O   0  0  0  0  0  0  0  0  0  0  0  0
   11.1045  -18.6168   28.5047 N   0  0  0  0  0  0  0  0  0  0  0  0
   11.6449  -17.3014   28.8128 C   0  0  0  0  0  0  0  0  0  0  0  0
   10.6352  -16.4548   29.4656 C   0  0  0  0  0  0  0  0  0  0  0  0
    9.4656  -16.8963   29.5947 O   0  0  0  0  0  0  0  0  0  0  0  0
   10.9125  -15.1930   29.9451 O   0  0  0  0  0  0  0  0  0  0  0  0
  2  1  1  0
  3  2  1  0
  3  4  1  6
  5  6  2  0
  5  3  1  0
  7  8  1  0
  8  9  2  0
 10  8  1  0
 10 11  1  0
 12 11  1  1
 12 13  1  0
 13  5  1  0
 14 12  1  0
 14 16  1  0
 15 14  2  0
 17 16  1  0
 18 17  1  0
 19 18  2  0
 20 18  1  0
M  END
$$$$
