SQG.pdb
     RDKit          3D

 20 19  0  0  1  0  0  0  0  0999 V2000
   -2.1476  -23.7886   26.6489 O   0  0  0  0  0  0  0  0  0  0  0  0
   -3.2441  -23.2294   27.3119 C   0  0  0  0  0  0  0  0  0  0  0  0
   -4.1900  -22.7268   26.2530 C   0  0  2  0  0  0  0  0  0  0  0  0
   -3.5430  -21.7416   25.4531 N   0  0  0  0  0  0  0  0  0  0  0  0
   -5.4529  -22.1948   26.8216 C   0  0  0  0  0  0  0  0  0  0  0  0
   -5.5427  -21.0274   27.2728 O   0  0  0  0  0  0  0  0  0  0  0  0
  -11.0293  -24.8029   25.2751 N   0  0  0  0  0  0  0  0  0  0  0  0
  -11.4029  -23.9381   26.3393 C   0  0  0  0  0  0  0  0  0  0  0  0
  -12.6031  -23.8179   26.6518 O   0  0  0  0  0  0  0  0  0  0  0  0
  -10.3817  -23.1715   27.0890 C   0  0  0  0  0  0  0  0  0  0  0  0
   -9.0067  -23.4963   26.5559 C   0  0  0  0  0  0  0  0  0  0  0  0
   -7.9000  -22.7596   27.2925 C   0  0  2  0  0  0  0  0  0  0  0  0
   -6.5759  -23.0491   26.8444 N   0  0  0  0  0  0  0  0  0  0  0  0
   -8.0815  -22.6738   28.7357 C   0  0  0  0  0  0  0  0  0  0  0  0
   -8.9246  -21.8499   29.1865 O   0  0  0  0  0  0  0  0  0  0  0  0
   -7.3384  -23.4887   29.6195 N   0  0  0  0  0  0  0  0  0  0  0  0
   -7.5574  -23.3343   31.0496 C   0  0  0  0  0  0  0  0  0  0  0  0
   -8.4569  -24.3786   31.5624 C   0  0  0  0  0  0  0  0  0  0  0  0
   -9.0030  -25.1626   30.7459 O   0  0  0  0  0  0  0  0  0  0  0  0
   -8.7308  -24.5389   32.9033 O   0  0  0  0  0  0  0  0  0  0  0  0
  2  1  1  0
  3  2  1  0
  3  4  1  1
  5  6  2  0
  5  3  1  0
  7  8  1  0
  8  9  2  0
 10  8  1  0
 10 11  1  0
 12 11  1  1
 12 13  1  0
 13  5  1  0
 14 12  1  0
 14 16  1  0
 15 14  2  0
 17 16  1  0
 18 17  1  0
 19 18  2  0
 20 18  1  0
M  END
$$$$
