RTV.pdb
     RDKit          3D

 26 25  0  0  1  0  0  0  0  0999 V2000
   28.2567  -29.3786  -16.2007 N   0  0  0  0  0  0  0  0  0  0  0  0
   27.0650  -29.7661  -16.8626 C   0  0  0  0  0  0  0  0  0  0  0  0
   26.5056  -30.8781  -16.4751 N   0  0  0  0  0  0  0  0  0  0  0  0
   26.5085  -28.9834  -17.8940 N   0  0  0  0  0  0  0  0  0  0  0  0
   27.0779  -27.6929  -18.1844 C   0  0  0  0  0  0  0  0  0  0  0  0
   27.4587  -26.9490  -16.9517 C   0  0  0  0  0  0  0  0  0  0  0  0
   26.8003  -25.6271  -16.7271 C   0  0  0  0  0  0  0  0  0  0  0  0
   27.6566  -24.5024  -17.2193 C   0  0  2  0  0  0  0  0  0  0  0  0
   29.0389  -24.9338  -17.3686 N   0  0  0  0  0  0  0  0  0  0  0  0
   27.6633  -23.3582  -16.2626 C   0  0  0  0  0  0  0  0  0  0  0  0
   28.6356  -23.2204  -15.4675 O   0  0  0  0  0  0  0  0  0  0  0  0
   25.6791  -31.2722  -16.9352 C   0  0  0  0  0  0  0  0  0  0  0  0
   27.7635  -19.7074  -16.6350 C   0  0  2  0  0  0  0  0  0  0  0  0
   26.5592  -19.9843  -15.7764 O   0  0  0  0  0  0  0  0  0  0  0  0
   25.4207  -19.9419  -16.5672 C   0  0  2  0  0  0  0  0  0  0  0  0
   26.6267  -21.3653  -15.1318 N   0  0  0  0  0  0  0  0  0  0  0  0
   26.6170  -22.3901  -16.1904 C   0  0  0  0  0  0  0  0  0  0  0  0
   25.5342  -21.6053  -14.1712 O   0  0  0  0  0  0  0  0  0  0  0  0
   24.5288  -22.3296  -14.4575 C   0  0  0  0  0  0  0  0  0  0  0  0
   25.5676  -19.5344  -10.3830 C   0  0  1  0  0  0  0  0  0  0  0  0
   25.0716  -20.9565  -10.4981 C   0  0  0  0  0  0  0  0  0  0  0  0
   26.2599  -21.8817  -10.3416 C   0  0  1  0  0  0  0  0  0  0  0  0
   24.5253  -21.1566  -11.9037 N   0  0  0  0  0  0  0  0  0  0  0  0
   25.5802  -21.0308  -12.8921 C   0  0  0  0  0  0  0  0  0  0  0  0
   23.3767  -20.2874  -12.2005 O   0  0  0  0  0  0  0  0  0  0  0  0
   22.1651  -20.5000  -11.5072 O   0  0  0  0  0  0  0  0  0  0  0  0
  1  2  1  0
  2  3  2  0
  4  5  1  0
  4  2  1  0
  6  7  1  0
  6  5  1  0
  8  9  1  1
  8  7  1  0
 10  8  1  0
 11 10  2  0
 13 12  1  1
 13 15  1  0
 14 13  1  0
 15 16  1  1
 16 10  1  0
 17 15  1  0
 17 18  2  0
 20 19  1  1
 20 21  1  0
 20 22  1  0
 22 23  1  6
 23 17  1  0
 24 22  1  0
 25 24  1  0
 26 24  2  0
M  END
$$$$
