RTV.pdb
     RDKit          3D

 26 25  0  0  1  0  0  0  0  0999 V2000
   20.0828  -22.9404   -8.2945 N   0  0  0  0  0  0  0  0  0  0  0  0
   19.3784  -22.3867   -9.3927 C   0  0  0  0  0  0  0  0  0  0  0  0
   18.0793  -22.4958   -9.3802 N   0  0  0  0  0  0  0  0  0  0  0  0
   20.0525  -21.7457  -10.4513 N   0  0  0  0  0  0  0  0  0  0  0  0
   21.4445  -22.0364  -10.6787 C   0  0  0  0  0  0  0  0  0  0  0  0
   22.2711  -20.8031  -10.7960 C   0  0  0  0  0  0  0  0  0  0  0  0
   23.3782  -20.6327   -9.8078 C   0  0  0  0  0  0  0  0  0  0  0  0
   24.6294  -21.3118  -10.2703 C   0  0  2  0  0  0  0  0  0  0  0  0
   25.4636  -21.6834   -9.1367 N   0  0  0  0  0  0  0  0  0  0  0  0
   25.4517  -20.4177  -11.1356 C   0  0  0  0  0  0  0  0  0  0  0  0
   26.1149  -19.4813  -10.6066 O   0  0  0  0  0  0  0  0  0  0  0  0
   17.4837  -22.1088  -10.1188 C   0  0  0  0  0  0  0  0  0  0  0  0
   28.3882  -21.0292  -13.0422 C   0  0  2  0  0  0  0  0  0  0  0  0
   27.4682  -20.3722  -14.0353 O   0  0  0  0  0  0  0  0  0  0  0  0
   26.8942  -21.3492  -14.8349 C   0  0  2  0  0  0  0  0  0  0  0  0
   26.3389  -19.6120  -13.3466 N   0  0  0  0  0  0  0  0  0  0  0  0
   25.5364  -20.5595  -12.5533 C   0  0  0  0  0  0  0  0  0  0  0  0
   25.4812  -18.8754  -14.2930 O   0  0  0  0  0  0  0  0  0  0  0  0
   24.2896  -19.2386  -14.5495 C   0  0  0  0  0  0  0  0  0  0  0  0
   24.3023  -14.7357  -16.4649 C   0  0  1  0  0  0  0  0  0  0  0  0
   24.9607  -15.5415  -15.3699 C   0  0  0  0  0  0  0  0  0  0  0  0
   26.3154  -14.9277  -15.0860 C   0  0  2  0  0  0  0  0  0  0  0  0
   25.2034  -16.9481  -15.8958 N   0  0  0  0  0  0  0  0  0  0  0  0
   25.9683  -17.7321  -14.9440 C   0  0  0  0  0  0  0  0  0  0  0  0
   25.8029  -16.9616  -17.2387 O   0  0  0  0  0  0  0  0  0  0  0  0
   24.9681  -16.7571  -18.3590 O   0  0  0  0  0  0  0  0  0  0  0  0
  1  2  1  0
  2  3  2  0
  4  5  1  0
  4  2  1  0
  6  7  1  0
  6  5  1  0
  8  9  1  1
  8  7  1  0
 10  8  1  0
 11 10  2  0
 13 12  1  6
 13 15  1  0
 14 13  1  0
 15 16  1  6
 16 10  1  0
 17 15  1  0
 17 18  2  0
 20 19  1  1
 20 21  1  0
 20 22  1  0
 22 23  1  6
 23 17  1  0
 24 22  1  0
 25 24  1  0
 26 24  2  0
M  END
$$$$
