RTV.pdb
     RDKit          3D

 26 25  0  0  1  0  0  0  0  0999 V2000
   17.5119  -24.4734   -9.6692 N   0  0  0  0  0  0  0  0  0  0  0  0
   16.3895  -23.6271   -9.8493 C   0  0  0  0  0  0  0  0  0  0  0  0
   15.3354  -23.8769   -9.1240 N   0  0  0  0  0  0  0  0  0  0  0  0
   16.4121  -22.5616  -10.7714 N   0  0  0  0  0  0  0  0  0  0  0  0
   17.4670  -22.4987  -11.7496 C   0  0  0  0  0  0  0  0  0  0  0  0
   18.8168  -22.4155  -11.1256 C   0  0  0  0  0  0  0  0  0  0  0  0
   19.9934  -22.4915  -12.0427 C   0  0  0  0  0  0  0  0  0  0  0  0
   20.1624  -21.2216  -12.8170 C   0  0  2  0  0  0  0  0  0  0  0  0
   19.0095  -20.9822  -13.6728 N   0  0  0  0  0  0  0  0  0  0  0  0
   21.3567  -21.2770  -13.7085 C   0  0  0  0  0  0  0  0  0  0  0  0
   21.6710  -22.3711  -14.2569 O   0  0  0  0  0  0  0  0  0  0  0  0
   14.4501  -23.3744   -9.2416 C   0  0  0  0  0  0  0  0  0  0  0  0
   21.8820  -22.0086  -16.1986 C   0  0  2  0  0  0  0  0  0  0  0  0
   22.5455  -20.6658  -16.3433 O   0  0  0  0  0  0  0  0  0  0  0  0
   21.5871  -19.7219  -16.6806 C   0  0  2  0  0  0  0  0  0  0  0  0
   23.2048  -20.2153  -15.0434 N   0  0  0  0  0  0  0  0  0  0  0  0
   22.1819  -20.1457  -13.9853 C   0  0  0  0  0  0  0  0  0  0  0  0
   23.9039  -18.9234  -15.1712 O   0  0  0  0  0  0  0  0  0  0  0  0
   23.3145  -17.8133  -14.9767 C   0  0  0  0  0  0  0  0  0  0  0  0
   28.0800  -18.9950  -15.2169 C   0  0  1  0  0  0  0  0  0  0  0  0
   27.3121  -17.7746  -14.7666 C   0  0  0  0  0  0  0  0  0  0  0  0
   26.8801  -17.9953  -13.3323 C   0  0  1  0  0  0  0  0  0  0  0  0
   26.0490  -17.6711  -15.6080 N   0  0  0  0  0  0  0  0  0  0  0  0
   25.2636  -18.8876  -15.5150 C   0  0  0  0  0  0  0  0  0  0  0  0
   26.3195  -17.2873  -17.0018 O   0  0  0  0  0  0  0  0  0  0  0  0
   26.1505  -18.2525  -18.0186 O   0  0  0  0  0  0  0  0  0  0  0  0
  1  2  1  0
  2  3  2  0
  4  5  1  0
  4  2  1  0
  6  7  1  0
  6  5  1  0
  8  9  1  6
  8  7  1  0
 10  8  1  0
 11 10  2  0
 13 12  1  6
 13 15  1  0
 14 13  1  0
 15 16  1  6
 16 10  1  0
 17 15  1  0
 17 18  2  0
 20 19  1  1
 20 21  1  0
 20 22  1  0
 22 23  1  1
 23 17  1  0
 24 22  1  0
 25 24  1  0
 26 24  2  0
M  END
$$$$
