RTV.pdb
     RDKit          3D

 26 25  0  0  1  0  0  0  0  0999 V2000
   15.6943  -17.4990  -13.9794 N   0  0  0  0  0  0  0  0  0  0  0  0
   15.4858  -18.2891  -15.1374 C   0  0  0  0  0  0  0  0  0  0  0  0
   14.6392  -19.2755  -15.0382 N   0  0  0  0  0  0  0  0  0  0  0  0
   16.1632  -18.0198  -16.3435 N   0  0  0  0  0  0  0  0  0  0  0  0
   17.0959  -16.9240  -16.3980 C   0  0  0  0  0  0  0  0  0  0  0  0
   16.4974  -15.6969  -16.9931 C   0  0  0  0  0  0  0  0  0  0  0  0
   17.3749  -14.4918  -17.0872 C   0  0  0  0  0  0  0  0  0  0  0  0
   16.6363  -13.3248  -17.6644 C   0  0  2  0  0  0  0  0  0  0  0  0
   16.1696  -13.6245  -19.0103 N   0  0  0  0  0  0  0  0  0  0  0  0
   17.5092  -12.1200  -17.7694 C   0  0  0  0  0  0  0  0  0  0  0  0
   17.7289  -11.6105  -18.9045 O   0  0  0  0  0  0  0  0  0  0  0  0
   14.4797  -19.9471  -15.7956 C   0  0  0  0  0  0  0  0  0  0  0  0
   16.6215   -9.0101  -16.5064 C   0  0  2  0  0  0  0  0  0  0  0  0
   17.8355   -9.1850  -17.3781 O   0  0  0  0  0  0  0  0  0  0  0  0
   18.4989   -7.9712  -17.4781 C   0  0  1  0  0  0  0  0  0  0  0  0
   18.8116  -10.2020  -16.7948 N   0  0  0  0  0  0  0  0  0  0  0  0
   18.1228  -11.4956  -16.6421 C   0  0  0  0  0  0  0  0  0  0  0  0
   19.3910   -9.7709  -15.5094 O   0  0  0  0  0  0  0  0  0  0  0  0
   18.7273   -9.7993  -14.4249 C   0  0  0  0  0  0  0  0  0  0  0  0
   23.6150   -9.0914  -15.2846 C   0  0  1  0  0  0  0  0  0  0  0  0
   22.7695   -9.6364  -14.1578 C   0  0  0  0  0  0  0  0  0  0  0  0
   22.5570  -11.1152  -14.4039 C   0  0  1  0  0  0  0  0  0  0  0  0
   21.4049   -8.9672  -14.2214 N   0  0  0  0  0  0  0  0  0  0  0  0
   20.7156   -9.3123  -15.4507 C   0  0  0  0  0  0  0  0  0  0  0  0
   21.4698   -7.5135  -14.0079 O   0  0  0  0  0  0  0  0  0  0  0  0
   21.7145   -7.0271  -12.7050 O   0  0  0  0  0  0  0  0  0  0  0  0
  1  2  1  0
  2  3  2  0
  4  5  1  0
  4  2  1  0
  6  7  1  0
  6  5  1  0
  8  9  1  6
  8  7  1  0
 10  8  1  0
 11 10  2  0
 13 12  1  6
 13 15  1  0
 14 13  1  0
 15 16  1  6
 16 10  1  0
 17 15  1  0
 17 18  2  0
 20 19  1  1
 20 21  1  0
 20 22  1  0
 22 23  1  6
 23 17  1  0
 24 22  1  0
 25 24  1  0
 26 24  2  0
M  END
$$$$
