RTV.pdb
     RDKit          3D

 26 25  0  0  1  0  0  0  0  0999 V2000
   24.7588  -24.8690  -14.5054 N   0  0  0  0  0  0  0  0  0  0  0  0
   24.1350  -25.5929  -15.5521 C   0  0  0  0  0  0  0  0  0  0  0  0
   22.8816  -25.3271  -15.7924 N   0  0  0  0  0  0  0  0  0  0  0  0
   24.8390  -26.5572  -16.3007 N   0  0  0  0  0  0  0  0  0  0  0  0
   26.2538  -26.7201  -16.0867 C   0  0  0  0  0  0  0  0  0  0  0  0
   27.0695  -25.9574  -17.0721 C   0  0  0  0  0  0  0  0  0  0  0  0
   26.4564  -24.7235  -17.6489 C   0  0  0  0  0  0  0  0  0  0  0  0
   27.4420  -23.5979  -17.6970 C   0  0  2  0  0  0  0  0  0  0  0  0
   28.8040  -24.1001  -17.5890 N   0  0  0  0  0  0  0  0  0  0  0  0
   27.2431  -22.6453  -16.5668 C   0  0  0  0  0  0  0  0  0  0  0  0
   28.1535  -22.5117  -15.7010 O   0  0  0  0  0  0  0  0  0  0  0  0
   22.3301  -25.8391  -16.4880 C   0  0  0  0  0  0  0  0  0  0  0  0
   26.3147  -18.9839  -17.0138 C   0  0  2  0  0  0  0  0  0  0  0  0
   25.4262  -19.5482  -15.9385 O   0  0  0  0  0  0  0  0  0  0  0  0
   24.1881  -19.8485  -16.4864 C   0  0  2  0  0  0  0  0  0  0  0  0
   25.9970  -20.8333  -15.3467 N   0  0  0  0  0  0  0  0  0  0  0  0
   26.0629  -21.8597  -16.4017 C   0  0  0  0  0  0  0  0  0  0  0  0
   25.2235  -21.3279  -14.1930 O   0  0  0  0  0  0  0  0  0  0  0  0
   24.4645  -22.3452  -14.2736 C   0  0  0  0  0  0  0  0  0  0  0  0
   24.6833  -21.2434   -9.2963 C   0  0  1  0  0  0  0  0  0  0  0  0
   25.4429  -20.7625  -10.5101 C   0  0  0  0  0  0  0  0  0  0  0  0
   25.5184  -19.2516  -10.4478 C   0  0  2  0  0  0  0  0  0  0  0  0
   24.6370  -21.1239  -11.7486 N   0  0  0  0  0  0  0  0  0  0  0  0
   25.3102  -20.6763  -12.9536 C   0  0  0  0  0  0  0  0  0  0  0  0
   23.2442  -20.6561  -11.6818 O   0  0  0  0  0  0  0  0  0  0  0  0
   22.3598  -21.2789  -10.7740 O   0  0  0  0  0  0  0  0  0  0  0  0
  1  2  1  0
  2  3  2  0
  4  5  1  0
  4  2  1  0
  6  7  1  0
  6  5  1  0
  8  9  1  1
  8  7  1  0
 10  8  1  0
 11 10  2  0
 13 12  1  1
 13 15  1  0
 14 13  1  0
 15 16  1  1
 16 10  1  0
 17 15  1  0
 17 18  2  0
 20 19  1  1
 20 21  1  0
 20 22  1  0
 22 23  1  6
 23 17  1  0
 24 22  1  0
 25 24  1  0
 26 24  2  0
M  END
$$$$
