RTV.pdb
     RDKit          3D

 26 25  0  0  1  0  0  0  0  0999 V2000
   19.9692  -23.0626   -7.5773 N   0  0  0  0  0  0  0  0  0  0  0  0
   20.0982  -22.5917   -8.9078 C   0  0  0  0  0  0  0  0  0  0  0  0
   19.6067  -23.3428   -9.8533 N   0  0  0  0  0  0  0  0  0  0  0  0
   20.7292  -21.3651   -9.1961 N   0  0  0  0  0  0  0  0  0  0  0  0
   22.1636  -21.3221   -9.3171 C   0  0  0  0  0  0  0  0  0  0  0  0
   22.6279  -21.6467  -10.6945 C   0  0  0  0  0  0  0  0  0  0  0  0
   23.5011  -20.6405  -11.3701 C   0  0  0  0  0  0  0  0  0  0  0  0
   24.9316  -21.0809  -11.3798 C   0  0  2  0  0  0  0  0  0  0  0  0
   25.4707  -21.1120  -10.0280 N   0  0  0  0  0  0  0  0  0  0  0  0
   25.7887  -20.1456  -12.1641 C   0  0  0  0  0  0  0  0  0  0  0  0
   26.9771  -19.9332  -11.7911 O   0  0  0  0  0  0  0  0  0  0  0  0
   19.6569  -23.0891  -10.8449 C   0  0  0  0  0  0  0  0  0  0  0  0
   28.0574  -20.3737  -13.4712 C   0  0  2  0  0  0  0  0  0  0  0  0
   27.3919  -19.6909  -14.6354 O   0  0  0  0  0  0  0  0  0  0  0  0
   26.8038  -20.6502  -15.4461 C   0  0  2  0  0  0  0  0  0  0  0  0
   26.2967  -18.7313  -14.1805 N   0  0  0  0  0  0  0  0  0  0  0  0
   25.3384  -19.4632  -13.3339 C   0  0  0  0  0  0  0  0  0  0  0  0
   25.5996  -18.0802  -15.3049 O   0  0  0  0  0  0  0  0  0  0  0  0
   24.7076  -18.6789  -15.9855 C   0  0  0  0  0  0  0  0  0  0  0  0
   25.9638  -13.9646  -15.5169 C   0  0  1  0  0  0  0  0  0  0  0  0
   24.7577  -14.6463  -16.1188 C   0  0  0  0  0  0  0  0  0  0  0  0
   23.7668  -14.9149  -15.0060 C   0  0  1  0  0  0  0  0  0  0  0  0
   25.1988  -15.9954  -16.6663 N   0  0  0  0  0  0  0  0  0  0  0  0
   25.9085  -16.7574  -15.6558 C   0  0  0  0  0  0  0  0  0  0  0  0
   25.9621  -15.8831  -17.9184 O   0  0  0  0  0  0  0  0  0  0  0  0
   27.3330  -16.2214  -17.9125 O   0  0  0  0  0  0  0  0  0  0  0  0
  1  2  1  0
  2  3  2  0
  4  5  1  0
  4  2  1  0
  6  7  1  0
  6  5  1  0
  8  9  1  1
  8  7  1  0
 10  8  1  0
 11 10  2  0
 13 12  1  6
 13 15  1  0
 14 13  1  0
 15 16  1  6
 16 10  1  0
 17 15  1  0
 17 18  2  0
 20 19  1  6
 20 21  1  0
 20 22  1  0
 22 23  1  1
 23 17  1  0
 24 22  1  0
 25 24  1  0
 26 24  2  0
M  END
$$$$
