RTV.pdb
     RDKit          3D

 26 25  0  0  1  0  0  0  0  0999 V2000
   29.3726  -25.5457  -16.1493 N   0  0  0  0  0  0  0  0  0  0  0  0
   27.9595  -25.6528  -16.1590 C   0  0  0  0  0  0  0  0  0  0  0  0
   27.4495  -26.8067  -15.8305 N   0  0  0  0  0  0  0  0  0  0  0  0
   27.1413  -24.5596  -16.5078 N   0  0  0  0  0  0  0  0  0  0  0  0
   27.7425  -23.3863  -17.0872 C   0  0  0  0  0  0  0  0  0  0  0  0
   28.2110  -22.4192  -16.0560 C   0  0  0  0  0  0  0  0  0  0  0  0
   27.1646  -21.6183  -15.3527 C   0  0  0  0  0  0  0  0  0  0  0  0
   26.5325  -20.6215  -16.2731 C   0  0  2  0  0  0  0  0  0  0  0  0
   27.5039  -19.6247  -16.6994 N   0  0  0  0  0  0  0  0  0  0  0  0
   25.4227  -19.8830  -15.6041 C   0  0  0  0  0  0  0  0  0  0  0  0
   25.6967  -18.9498  -14.7975 O   0  0  0  0  0  0  0  0  0  0  0  0
   26.4426  -26.9952  -15.8570 C   0  0  0  0  0  0  0  0  0  0  0  0
   21.6187  -19.1675  -17.2605 C   0  0  2  0  0  0  0  0  0  0  0  0
   22.3878  -18.4181  -16.2063 O   0  0  0  0  0  0  0  0  0  0  0  0
   21.5238  -17.5630  -15.5386 C   0  0  1  0  0  0  0  0  0  0  0  0
   23.0009  -19.3592  -15.1740 N   0  0  0  0  0  0  0  0  0  0  0  0
   24.0427  -20.1726  -15.8251 C   0  0  0  0  0  0  0  0  0  0  0  0
   22.0023  -20.2257  -14.5214 O   0  0  0  0  0  0  0  0  0  0  0  0
   21.8345  -21.4395  -14.8618 C   0  0  0  0  0  0  0  0  0  0  0  0
   21.1815  -20.2450  -10.5827 C   0  0  1  0  0  0  0  0  0  0  0  0
   19.9428  -19.9601  -11.3991 C   0  0  0  0  0  0  0  0  0  0  0  0
   18.7966  -20.7498  -10.8032 C   0  0  2  0  0  0  0  0  0  0  0  0
   20.1707  -20.4875  -12.8076 N   0  0  0  0  0  0  0  0  0  0  0  0
   21.1992  -19.7221  -13.4872 C   0  0  0  0  0  0  0  0  0  0  0  0
   18.9305  -20.5757  -13.5934 O   0  0  0  0  0  0  0  0  0  0  0  0
   18.1776  -21.7693  -13.5452 O   0  0  0  0  0  0  0  0  0  0  0  0
  1  2  1  0
  2  3  2  0
  4  5  1  0
  4  2  1  0
  6  7  1  0
  6  5  1  0
  8  9  1  1
  8  7  1  0
 10  8  1  0
 11 10  2  0
 13 12  1  6
 13 15  1  0
 14 13  1  0
 15 16  1  6
 16 10  1  0
 17 15  1  0
 17 18  2  0
 20 19  1  1
 20 21  1  0
 20 22  1  0
 22 23  1  6
 23 17  1  0
 24 22  1  0
 25 24  1  0
 26 24  2  0
M  END
$$$$
