RTV.pdb
     RDKit          3D

 26 25  0  0  1  0  0  0  0  0999 V2000
    9.9970  -15.4697  -11.1397 N   0  0  0  0  0  0  0  0  0  0  0  0
   10.5881  -15.7559  -12.3956 C   0  0  0  0  0  0  0  0  0  0  0  0
   10.0857  -16.7484  -13.0755 N   0  0  0  0  0  0  0  0  0  0  0  0
   11.6709  -15.0004  -12.8882 N   0  0  0  0  0  0  0  0  0  0  0  0
   12.2463  -13.9716  -12.0610 C   0  0  0  0  0  0  0  0  0  0  0  0
   13.4028  -13.2975  -12.7138 C   0  0  0  0  0  0  0  0  0  0  0  0
   14.1272  -12.2662  -11.9121 C   0  0  0  0  0  0  0  0  0  0  0  0
   15.2038  -11.6085  -12.7175 C   0  0  2  0  0  0  0  0  0  0  0  0
   16.2315  -12.5707  -13.0879 N   0  0  0  0  0  0  0  0  0  0  0  0
   15.8834  -10.5275  -11.9466 C   0  0  0  0  0  0  0  0  0  0  0  0
   16.7381  -10.8356  -11.0685 O   0  0  0  0  0  0  0  0  0  0  0  0
   10.4565  -17.0408  -13.9850 C   0  0  0  0  0  0  0  0  0  0  0  0
   18.3703   -8.2573  -12.7269 C   0  0  2  0  0  0  0  0  0  0  0  0
   17.2943   -7.3601  -12.1776 O   0  0  0  0  0  0  0  0  0  0  0  0
   16.5917   -6.7982  -13.2330 C   0  0  2  0  0  0  0  0  0  0  0  0
   16.2997   -8.1295  -11.3138 N   0  0  0  0  0  0  0  0  0  0  0  0
   15.6215   -9.1387  -12.1458 C   0  0  0  0  0  0  0  0  0  0  0  0
   15.3119   -7.2541  -10.6564 O   0  0  0  0  0  0  0  0  0  0  0  0
   14.1247   -7.1261  -11.0940 C   0  0  0  0  0  0  0  0  0  0  0  0
   13.6161   -4.9681   -6.7796 C   0  0  1  0  0  0  0  0  0  0  0  0
   14.4381   -6.0466   -7.4450 C   0  0  0  0  0  0  0  0  0  0  0  0
   15.7345   -6.1897   -6.6760 C   0  0  2  0  0  0  0  0  0  0  0  0
   14.7941   -5.5754   -8.8469 N   0  0  0  0  0  0  0  0  0  0  0  0
   15.6649   -6.5292   -9.5083 C   0  0  0  0  0  0  0  0  0  0  0  0
   15.3421   -4.2108   -8.8702 O   0  0  0  0  0  0  0  0  0  0  0  0
   14.4486   -3.1178   -8.8376 O   0  0  0  0  0  0  0  0  0  0  0  0
  1  2  1  0
  2  3  2  0
  4  5  1  0
  4  2  1  0
  6  7  1  0
  6  5  1  0
  8  9  1  1
  8  7  1  0
 10  8  1  0
 11 10  2  0
 13 12  1  6
 13 15  1  0
 14 13  1  0
 15 16  1  1
 16 10  1  0
 17 15  1  0
 17 18  2  0
 20 19  1  1
 20 21  1  0
 20 22  1  0
 22 23  1  6
 23 17  1  0
 24 22  1  0
 25 24  1  0
 26 24  2  0
M  END
$$$$
