RTV.pdb
     RDKit          3D

 26 25  0  0  1  0  0  0  0  0999 V2000
   27.0605  -23.0925  -16.6578 N   0  0  0  0  0  0  0  0  0  0  0  0
   26.5710  -24.3493  -16.2226 C   0  0  0  0  0  0  0  0  0  0  0  0
   26.9628  -25.4008  -16.8862 N   0  0  0  0  0  0  0  0  0  0  0  0
   25.6996  -24.4578  -15.1203 N   0  0  0  0  0  0  0  0  0  0  0  0
   25.3606  -23.2755  -14.3713 C   0  0  0  0  0  0  0  0  0  0  0  0
   23.9681  -22.8165  -14.6328 C   0  0  0  0  0  0  0  0  0  0  0  0
   22.9135  -23.8702  -14.7265 C   0  0  0  0  0  0  0  0  0  0  0  0
   21.5939  -23.2852  -15.1227 C   0  0  2  0  0  0  0  0  0  0  0  0
   21.7771  -22.0051  -15.7912 N   0  0  0  0  0  0  0  0  0  0  0  0
   20.7272  -23.0313  -13.9357 C   0  0  0  0  0  0  0  0  0  0  0  0
   20.7764  -21.9070  -13.3613 O   0  0  0  0  0  0  0  0  0  0  0  0
   26.6977  -26.3543  -16.6204 C   0  0  0  0  0  0  0  0  0  0  0  0
   17.6527  -22.0325  -13.6569 C   0  0  2  0  0  0  0  0  0  0  0  0
   17.5846  -23.2570  -12.7850 O   0  0  0  0  0  0  0  0  0  0  0  0
   17.0923  -24.3169  -13.5317 C   0  0  2  0  0  0  0  0  0  0  0  0
   18.9598  -23.6572  -12.2597 N   0  0  0  0  0  0  0  0  0  0  0  0
   19.8277  -24.0012  -13.3997 C   0  0  0  0  0  0  0  0  0  0  0  0
   18.9052  -24.7732  -11.2976 O   0  0  0  0  0  0  0  0  0  0  0  0
   19.3189  -25.9396  -11.5905 C   0  0  0  0  0  0  0  0  0  0  0  0
   16.8334  -24.2160   -7.5991 C   0  0  1  0  0  0  0  0  0  0  0  0
   18.1329  -24.9860   -7.6102 C   0  0  0  0  0  0  0  0  0  0  0  0
   19.2640  -23.9997   -7.4089 C   0  0  1  0  0  0  0  0  0  0  0  0
   18.3093  -25.6000   -8.9907 N   0  0  0  0  0  0  0  0  0  0  0  0
   18.3874  -24.5699  -10.0097 C   0  0  0  0  0  0  0  0  0  0  0  0
   17.2903  -26.6144   -9.3004 O   0  0  0  0  0  0  0  0  0  0  0  0
   17.3876  -27.8849   -8.6917 O   0  0  0  0  0  0  0  0  0  0  0  0
  1  2  1  0
  2  3  2  0
  4  5  1  0
  4  2  1  0
  6  7  1  0
  6  5  1  0
  8  9  1  1
  8  7  1  0
 10  8  1  0
 11 10  2  0
 13 12  1  1
 13 15  1  0
 14 13  1  0
 15 16  1  1
 16 10  1  0
 17 15  1  0
 17 18  2  0
 20 19  1  1
 20 21  1  0
 20 22  1  0
 22 23  1  6
 23 17  1  0
 24 22  1  0
 25 24  1  0
 26 24  2  0
M  END
$$$$
