RTV.pdb
     RDKit          3D

 26 25  0  0  1  0  0  0  0  0999 V2000
   29.7460  -19.2087  -20.0027 N   0  0  0  0  0  0  0  0  0  0  0  0
   30.2870  -18.1129  -19.2848 C   0  0  0  0  0  0  0  0  0  0  0  0
   31.3286  -17.5220  -19.8002 N   0  0  0  0  0  0  0  0  0  0  0  0
   29.7234  -17.6805  -18.0677 N   0  0  0  0  0  0  0  0  0  0  0  0
   28.4774  -18.2518  -17.6261 C   0  0  0  0  0  0  0  0  0  0  0  0
   28.6077  -19.6912  -17.2664 C   0  0  0  0  0  0  0  0  0  0  0  0
   28.3441  -20.0608  -15.8433 C   0  0  0  0  0  0  0  0  0  0  0  0
   27.0502  -20.8004  -15.7042 C   0  0  2  0  0  0  0  0  0  0  0  0
   26.2535  -20.6784  -16.9163 N   0  0  0  0  0  0  0  0  0  0  0  0
   26.2236  -20.2557  -14.5886 C   0  0  0  0  0  0  0  0  0  0  0  0
   25.5791  -19.1827  -14.7611 O   0  0  0  0  0  0  0  0  0  0  0  0
   31.8197  -16.7551  -19.3301 C   0  0  0  0  0  0  0  0  0  0  0  0
   23.6446  -19.9294  -14.2998 C   0  0  2  0  0  0  0  0  0  0  0  0
   23.7283  -20.5396  -12.9269 O   0  0  0  0  0  0  0  0  0  0  0  0
   23.4323  -21.8917  -13.0143 C   0  0  2  0  0  0  0  0  0  0  0  0
   25.1263  -20.4070  -12.3308 N   0  0  0  0  0  0  0  0  0  0  0  0
   26.1144  -20.8866  -13.3130 C   0  0  0  0  0  0  0  0  0  0  0  0
   25.2771  -21.1273  -11.0531 O   0  0  0  0  0  0  0  0  0  0  0  0
   25.3807  -22.3937  -10.9988 C   0  0  0  0  0  0  0  0  0  0  0  0
   25.7958  -18.8834   -7.4220 C   0  0  1  0  0  0  0  0  0  0  0  0
   26.3794  -20.2588   -7.6448 C   0  0  0  0  0  0  0  0  0  0  0  0
   27.6789  -20.0993   -8.4052 C   0  0  1  0  0  0  0  0  0  0  0  0
   25.4268  -21.0400   -8.5371 N   0  0  0  0  0  0  0  0  0  0  0  0
   25.3131  -20.4181   -9.8432 C   0  0  0  0  0  0  0  0  0  0  0  0
   24.1150  -21.2686   -7.9124 O   0  0  0  0  0  0  0  0  0  0  0  0
   22.9736  -20.6672   -8.4864 O   0  0  0  0  0  0  0  0  0  0  0  0
  1  2  1  0
  2  3  2  0
  4  5  1  0
  4  2  1  0
  6  7  1  0
  6  5  1  0
  8  9  1  6
  8  7  1  0
 10  8  1  0
 11 10  2  0
 13 12  1  1
 13 15  1  0
 14 13  1  0
 15 16  1  1
 16 10  1  0
 17 15  1  0
 17 18  2  0
 20 19  1  1
 20 21  1  0
 20 22  1  0
 22 23  1  6
 23 17  1  0
 24 22  1  0
 25 24  1  0
 26 24  2  0
M  END
$$$$
