RTV.pdb
     RDKit          3D

 26 25  0  0  1  0  0  0  0  0999 V2000
   21.0513  -26.0075  -12.7540 N   0  0  0  0  0  0  0  0  0  0  0  0
   21.1560  -24.6631  -13.1902 C   0  0  0  0  0  0  0  0  0  0  0  0
   21.8662  -24.4401  -14.2604 N   0  0  0  0  0  0  0  0  0  0  0  0
   20.5197  -23.6134  -12.4979 N   0  0  0  0  0  0  0  0  0  0  0  0
   19.9186  -23.8774  -11.2161 C   0  0  0  0  0  0  0  0  0  0  0  0
   18.4393  -24.0271  -11.3018 C   0  0  0  0  0  0  0  0  0  0  0  0
   17.7057  -24.2547  -10.0207 C   0  0  0  0  0  0  0  0  0  0  0  0
   18.2428  -25.4459   -9.2906 C   0  0  2  0  0  0  0  0  0  0  0  0
   18.3043  -26.6048  -10.1694 N   0  0  0  0  0  0  0  0  0  0  0  0
   17.3720  -25.8233   -8.1401 C   0  0  0  0  0  0  0  0  0  0  0  0
   16.1526  -26.0835   -8.3447 O   0  0  0  0  0  0  0  0  0  0  0  0
   22.0258  -23.4990  -14.6334 C   0  0  0  0  0  0  0  0  0  0  0  0
   17.4026  -28.7343   -6.2484 C   0  0  2  0  0  0  0  0  0  0  0  0
   17.3854  -27.6794   -5.1756 O   0  0  0  0  0  0  0  0  0  0  0  0
   18.6688  -27.5243   -4.6733 C   0  0  2  0  0  0  0  0  0  0  0  0
   16.9308  -26.3271   -5.7160 N   0  0  0  0  0  0  0  0  0  0  0  0
   17.8429  -25.9105   -6.7956 C   0  0  0  0  0  0  0  0  0  0  0  0
   16.8560  -25.2871   -4.6735 O   0  0  0  0  0  0  0  0  0  0  0  0
   17.8167  -24.4848   -4.4484 C   0  0  0  0  0  0  0  0  0  0  0  0
   13.0865  -24.3412   -3.1596 C   0  0  1  0  0  0  0  0  0  0  0  0
   14.2317  -23.3577   -3.1065 C   0  0  0  0  0  0  0  0  0  0  0  0
   14.3471  -22.6985   -4.4647 C   0  0  1  0  0  0  0  0  0  0  0  0
   15.5168  -24.1373   -2.8722 N   0  0  0  0  0  0  0  0  0  0  0  0
   15.6990  -25.1540   -3.8913 C   0  0  0  0  0  0  0  0  0  0  0  0
   15.6121  -24.6881   -1.5118 O   0  0  0  0  0  0  0  0  0  0  0  0
   15.6532  -26.0899   -1.3464 O   0  0  0  0  0  0  0  0  0  0  0  0
  1  2  1  0
  2  3  2  0
  4  5  1  0
  4  2  1  0
  6  7  1  0
  6  5  1  0
  8  9  1  6
  8  7  1  0
 10  8  1  0
 11 10  2  0
 13 12  1  1
 13 15  1  0
 14 13  1  0
 15 16  1  1
 16 10  1  0
 17 15  1  0
 17 18  2  0
 20 19  1  1
 20 21  1  0
 20 22  1  0
 22 23  1  6
 23 17  1  0
 24 22  1  0
 25 24  1  0
 26 24  2  0
M  END
$$$$
