RTV.pdb
     RDKit          3D

 26 25  0  0  1  0  0  0  0  0999 V2000
   15.8555  -16.8349  -14.8787 N   0  0  0  0  0  0  0  0  0  0  0  0
   15.3430  -16.2729  -16.0746 C   0  0  0  0  0  0  0  0  0  0  0  0
   15.2897  -17.0499  -17.1201 N   0  0  0  0  0  0  0  0  0  0  0  0
   14.9093  -14.9332  -16.1310 N   0  0  0  0  0  0  0  0  0  0  0  0
   15.1089  -14.0794  -14.9886 C   0  0  0  0  0  0  0  0  0  0  0  0
   15.7084  -12.7670  -15.3575 C   0  0  0  0  0  0  0  0  0  0  0  0
   15.7842  -11.7308  -14.2843 C   0  0  0  0  0  0  0  0  0  0  0  0
   17.1046  -11.0260  -14.3009 C   0  0  2  0  0  0  0  0  0  0  0  0
   18.1979  -11.9816  -14.4035 N   0  0  0  0  0  0  0  0  0  0  0  0
   17.3279  -10.2487  -13.0478 C   0  0  0  0  0  0  0  0  0  0  0  0
   17.7765  -10.8382  -12.0242 O   0  0  0  0  0  0  0  0  0  0  0  0
   14.8785  -16.7531  -18.0106 C   0  0  0  0  0  0  0  0  0  0  0  0
   19.8261   -8.2179  -12.2338 C   0  0  2  0  0  0  0  0  0  0  0  0
   18.6600   -7.3330  -11.8852 O   0  0  0  0  0  0  0  0  0  0  0  0
   18.4430   -6.4408  -12.9245 C   0  0  2  0  0  0  0  0  0  0  0  0
   17.3780   -8.1354  -11.6855 N   0  0  0  0  0  0  0  0  0  0  0  0
   17.0605   -8.8514  -12.9335 C   0  0  0  0  0  0  0  0  0  0  0  0
   16.2374   -7.3011  -11.2646 O   0  0  0  0  0  0  0  0  0  0  0  0
   15.3447   -6.9134  -12.0833 C   0  0  0  0  0  0  0  0  0  0  0  0
   13.1953   -5.8356   -7.8118 C   0  0  1  0  0  0  0  0  0  0  0  0
   14.2562   -6.7804   -8.3251 C   0  0  0  0  0  0  0  0  0  0  0  0
   15.2235   -7.0584   -7.1940 C   0  0  2  0  0  0  0  0  0  0  0  0
   15.0352   -6.0694   -9.4213 N   0  0  0  0  0  0  0  0  0  0  0  0
   16.1062   -6.9096   -9.9239 C   0  0  0  0  0  0  0  0  0  0  0  0
   15.5142   -4.7402   -9.0129 O   0  0  0  0  0  0  0  0  0  0  0  0
   14.6173   -3.6504   -9.0563 O   0  0  0  0  0  0  0  0  0  0  0  0
  1  2  1  0
  2  3  2  0
  4  5  1  0
  4  2  1  0
  6  7  1  0
  6  5  1  0
  8  9  1  1
  8  7  1  0
 10  8  1  0
 11 10  2  0
 13 12  1  1
 13 15  1  0
 14 13  1  0
 15 16  1  1
 16 10  1  0
 17 15  1  0
 17 18  2  0
 20 19  1  1
 20 21  1  0
 20 22  1  0
 22 23  1  1
 23 17  1  0
 24 22  1  0
 25 24  1  0
 26 24  2  0
M  END
$$$$
