RTV.pdb
     RDKit          3D

 26 25  0  0  1  0  0  0  0  0999 V2000
   20.2024  -20.7148  -15.6638 N   0  0  0  0  0  0  0  0  0  0  0  0
   19.4593  -21.3029  -14.6099 C   0  0  0  0  0  0  0  0  0  0  0  0
   18.7588  -22.3641  -14.8980 N   0  0  0  0  0  0  0  0  0  0  0  0
   19.4774  -20.7648  -13.3075 N   0  0  0  0  0  0  0  0  0  0  0  0
   20.4229  -19.7269  -12.9872 C   0  0  0  0  0  0  0  0  0  0  0  0
   21.8271  -20.1259  -13.2827 C   0  0  0  0  0  0  0  0  0  0  0  0
   22.7995  -20.0723  -12.1501 C   0  0  0  0  0  0  0  0  0  0  0  0
   24.1835  -20.4160  -12.6048 C   0  0  2  0  0  0  0  0  0  0  0  0
   24.1447  -21.4010  -13.6759 N   0  0  0  0  0  0  0  0  0  0  0  0
   24.9921  -21.0108  -11.5016 C   0  0  0  0  0  0  0  0  0  0  0  0
   24.8988  -22.2479  -11.2620 O   0  0  0  0  0  0  0  0  0  0  0  0
   18.1839  -22.8534  -14.2050 C   0  0  0  0  0  0  0  0  0  0  0  0
   28.0718  -22.0614  -11.3973 C   0  0  2  0  0  0  0  0  0  0  0  0
   28.0896  -21.1697  -10.1853 O   0  0  0  0  0  0  0  0  0  0  0  0
   28.6342  -19.9429  -10.5346 C   0  0  2  0  0  0  0  0  0  0  0  0
   26.6855  -20.9184   -9.6446 N   0  0  0  0  0  0  0  0  0  0  0  0
   25.8827  -20.2515  -10.6847 C   0  0  0  0  0  0  0  0  0  0  0  0
   26.6816  -20.1250   -8.4018 O   0  0  0  0  0  0  0  0  0  0  0  0
   26.1028  -18.9953   -8.3225 C   0  0  0  0  0  0  0  0  0  0  0  0
   27.6383  -20.0080   -3.5674 C   0  0  1  0  0  0  0  0  0  0  0  0
   27.7389  -20.8027   -4.8480 C   0  0  0  0  0  0  0  0  0  0  0  0
   29.1714  -21.2691   -4.9992 C   0  0  2  0  0  0  0  0  0  0  0  0
   27.4430  -19.8681   -6.0113 N   0  0  0  0  0  0  0  0  0  0  0  0
   27.3272  -20.6083   -7.2539 C   0  0  0  0  0  0  0  0  0  0  0  0
   28.4019  -18.7574   -6.1113 O   0  0  0  0  0  0  0  0  0  0  0  0
   28.3521  -17.7262   -5.1479 O   0  0  0  0  0  0  0  0  0  0  0  0
  1  2  1  0
  2  3  2  0
  4  5  1  0
  4  2  1  0
  6  7  1  0
  6  5  1  0
  8  9  1  6
  8  7  1  0
 10  8  1  0
 11 10  2  0
 13 12  1  1
 13 15  1  0
 14 13  1  0
 15 16  1  1
 16 10  1  0
 17 15  1  0
 17 18  2  0
 20 19  1  1
 20 21  1  0
 20 22  1  0
 22 23  1  6
 23 17  1  0
 24 22  1  0
 25 24  1  0
 26 24  2  0
M  END
$$$$
