GLV.pdb
     RDKit          3D

 20 19  0  0  1  0  0  0  0  0999 V2000
    7.4010  -14.7357   19.9426 N   0  0  0  0  0  0  0  0  0  0  0  0
    6.6548  -14.8229   21.1805 C   0  0  0  0  0  0  0  0  0  0  0  0
    7.5207  -14.6172   22.3611 C   0  0  0  0  0  0  0  0  0  0  0  0
    8.7759  -14.5056   22.2890 O   0  0  0  0  0  0  0  0  0  0  0  0
    8.1240  -11.5920   25.9206 C   0  0  0  0  0  0  0  0  0  0  0  0
    6.8389  -12.3381   25.9720 C   0  0  2  0  0  0  0  0  0  0  0  0
    5.9913  -11.8121   27.1192 C   0  0  0  0  0  0  0  0  0  0  0  0
    6.9227  -13.8208   25.9629 C   0  0  0  0  0  0  0  0  0  0  0  0
    7.6945  -14.4518   24.8642 C   0  0  2  0  0  0  0  0  0  0  0  0
    6.9015  -14.5413   23.6485 N   0  0  0  0  0  0  0  0  0  0  0  0
    8.0994  -15.8494   25.2940 C   0  0  0  0  0  0  0  0  0  0  0  0
    7.2103  -16.6891   25.5208 O   0  0  0  0  0  0  0  0  0  0  0  0
   12.2862  -17.2126   24.9511 C   0  0  0  0  0  0  0  0  0  0  0  0
   10.9802  -17.9901   24.8447 C   0  0  2  0  0  0  0  0  0  0  0  0
   10.5776  -18.0112   23.4069 C   0  0  0  0  0  0  0  0  0  0  0  0
    9.9445  -17.4354   25.7575 C   0  0  2  0  0  0  0  0  0  0  0  0
    9.4818  -16.1161   25.4124 N   0  0  0  0  0  0  0  0  0  0  0  0
   10.2273  -17.6284   27.2048 C   0  0  0  0  0  0  0  0  0  0  0  0
   10.4845  -18.8319   27.8222 O   0  0  0  0  0  0  0  0  0  0  0  0
   10.2471  -16.6150   27.9844 O   0  0  0  0  0  0  0  0  0  0  0  0
  2  1  1  0
  3  2  1  0
  3 10  1  0
  4  3  2  0
  6  8  1  0
  6  5  1  1
  7  6  1  0
  9 11  1  0
  9 10  1  0
  9  8  1  1
 11 17  1  0
 12 11  2  0
 14 13  1  6
 14 15  1  0
 16 14  1  0
 16 17  1  1
 18 19  1  0
 18 16  1  0
 20 18  2  0
M  END
$$$$
