GLV.pdb
     RDKit          3D

 20 19  0  0  1  0  0  0  0  0999 V2000
    8.5522  -17.0601   20.6328 N   0  0  0  0  0  0  0  0  0  0  0  0
    7.7300  -16.8618   21.8082 C   0  0  0  0  0  0  0  0  0  0  0  0
    8.3272  -15.8802   22.7386 C   0  0  0  0  0  0  0  0  0  0  0  0
    9.4337  -15.3102   22.5285 O   0  0  0  0  0  0  0  0  0  0  0  0
    7.6842  -11.6713   24.7543 C   0  0  0  0  0  0  0  0  0  0  0  0
    6.6533  -12.6874   25.0946 C   0  0  2  0  0  0  0  0  0  0  0  0
    5.5541  -12.0394   25.9211 C   0  0  0  0  0  0  0  0  0  0  0  0
    7.1355  -13.9593   25.6908 C   0  0  0  0  0  0  0  0  0  0  0  0
    8.1896  -14.6992   24.9543 C   0  0  2  0  0  0  0  0  0  0  0  0
    7.6125  -15.5628   23.9365 N   0  0  0  0  0  0  0  0  0  0  0  0
    8.9671  -15.5496   25.9412 C   0  0  0  0  0  0  0  0  0  0  0  0
    8.4148  -16.5458   26.4410 O   0  0  0  0  0  0  0  0  0  0  0  0
    9.8280  -15.4730   29.6002 C   0  0  0  0  0  0  0  0  0  0  0  0
   10.8164  -14.8441   28.6261 C   0  0  2  0  0  0  0  0  0  0  0  0
   10.3722  -13.4423   28.3666 C   0  0  0  0  0  0  0  0  0  0  0  0
   10.9663  -15.6710   27.3984 C   0  0  2  0  0  0  0  0  0  0  0  0
   10.2904  -15.1529   26.2371 N   0  0  0  0  0  0  0  0  0  0  0  0
   10.7904  -17.1324   27.6107 C   0  0  0  0  0  0  0  0  0  0  0  0
    9.8268  -17.7221   28.3980 O   0  0  0  0  0  0  0  0  0  0  0  0
   11.5785  -17.9540   27.0285 O   0  0  0  0  0  0  0  0  0  0  0  0
  2  1  1  0
  3  2  1  0
  3 10  1  0
  4  3  2  0
  6  8  1  0
  6  5  1  1
  7  6  1  0
  9 11  1  0
  9 10  1  0
  9  8  1  1
 11 17  1  0
 12 11  2  0
 14 13  1  1
 14 15  1  0
 16 14  1  0
 16 17  1  6
 18 19  1  0
 18 16  1  0
 20 18  2  0
M  END
$$$$
