GLV.pdb
     RDKit          3D

 20 19  0  0  1  0  0  0  0  0999 V2000
    4.6901  -19.0368   20.8156 N   0  0  0  0  0  0  0  0  0  0  0  0
    4.6848  -17.7071   21.3889 C   0  0  0  0  0  0  0  0  0  0  0  0
    6.0543  -17.1817   21.5738 C   0  0  0  0  0  0  0  0  0  0  0  0
    7.0759  -17.9196   21.6463 O   0  0  0  0  0  0  0  0  0  0  0  0
    8.3602  -13.9209   19.1221 C   0  0  0  0  0  0  0  0  0  0  0  0
    7.3577  -13.3831   20.0797 C   0  0  2  0  0  0  0  0  0  0  0  0
    7.2021  -11.8861   19.8654 C   0  0  0  0  0  0  0  0  0  0  0  0
    7.5406  -13.7346   21.5110 C   0  0  0  0  0  0  0  0  0  0  0  0
    7.5431  -15.1759   21.8625 C   0  0  2  0  0  0  0  0  0  0  0  0
    6.2269  -15.7652   21.6752 N   0  0  0  0  0  0  0  0  0  0  0  0
    7.9470  -15.3212   23.3177 C   0  0  0  0  0  0  0  0  0  0  0  0
    7.2131  -14.8345   24.1961 O   0  0  0  0  0  0  0  0  0  0  0  0
    9.4301  -18.6237   25.1722 C   0  0  0  0  0  0  0  0  0  0  0  0
    8.9881  -17.2670   25.7063 C   0  0  2  0  0  0  0  0  0  0  0  0
    7.4951  -17.2394   25.7027 C   0  0  0  0  0  0  0  0  0  0  0  0
    9.6180  -16.1546   24.9450 C   0  0  2  0  0  0  0  0  0  0  0  0
    9.1496  -16.0106   23.5909 N   0  0  0  0  0  0  0  0  0  0  0  0
   11.0941  -16.0574   25.0982 C   0  0  0  0  0  0  0  0  0  0  0  0
   12.0047  -15.9393   24.0722 O   0  0  0  0  0  0  0  0  0  0  0  0
   11.6098  -16.0778   26.2682 O   0  0  0  0  0  0  0  0  0  0  0  0
  2  1  1  0
  3  2  1  0
  3 10  1  0
  4  3  2  0
  6  8  1  0
  6  5  1  6
  7  6  1  0
  9 11  1  0
  9 10  1  0
  9  8  1  1
 11 17  1  0
 12 11  2  0
 14 13  1  6
 14 15  1  0
 16 14  1  0
 16 17  1  6
 18 19  1  0
 18 16  1  0
 20 18  2  0
M  END
$$$$
