GLV.pdb
     RDKit          3D

 20 19  0  0  1  0  0  0  0  0999 V2000
    7.3502  -15.6893   20.0437 N   0  0  0  0  0  0  0  0  0  0  0  0
    6.5920  -15.6776   21.2773 C   0  0  0  0  0  0  0  0  0  0  0  0
    7.4380  -15.3352   22.4404 C   0  0  0  0  0  0  0  0  0  0  0  0
    8.6980  -15.2791   22.3885 O   0  0  0  0  0  0  0  0  0  0  0  0
    8.2325  -11.9692   26.0652 C   0  0  0  0  0  0  0  0  0  0  0  0
    6.8501  -12.5050   25.9517 C   0  0  2  0  0  0  0  0  0  0  0  0
    5.9816  -11.9070   27.0469 C   0  0  0  0  0  0  0  0  0  0  0  0
    6.7076  -13.9802   25.8577 C   0  0  0  0  0  0  0  0  0  0  0  0
    7.5578  -14.6840   24.8662 C   0  0  2  0  0  0  0  0  0  0  0  0
    6.7930  -15.0537   23.6859 N   0  0  0  0  0  0  0  0  0  0  0  0
    8.1148  -15.9409   25.5079 C   0  0  0  0  0  0  0  0  0  0  0  0
    7.3221  -16.7970   25.9390 O   0  0  0  0  0  0  0  0  0  0  0  0
   12.4362  -16.8912   25.1866 C   0  0  0  0  0  0  0  0  0  0  0  0
   11.2140  -17.7990   25.1268 C   0  0  2  0  0  0  0  0  0  0  0  0
   10.8210  -17.9415   23.6933 C   0  0  0  0  0  0  0  0  0  0  0  0
   10.1250  -17.2988   26.0085 C   0  0  2  0  0  0  0  0  0  0  0  0
    9.5205  -16.0646   25.5778 N   0  0  0  0  0  0  0  0  0  0  0  0
   10.4287  -17.3594   27.4631 C   0  0  0  0  0  0  0  0  0  0  0  0
   10.3435  -16.3084   28.3486 O   0  0  0  0  0  0  0  0  0  0  0  0
   10.8030  -18.4656   27.9839 O   0  0  0  0  0  0  0  0  0  0  0  0
  2  1  1  0
  3  2  1  0
  3 10  1  0
  4  3  2  0
  6  8  1  0
  6  5  1  1
  7  6  1  0
  9 11  1  0
  9 10  1  0
  9  8  1  1
 11 17  1  0
 12 11  2  0
 14 13  1  6
 14 15  1  0
 16 14  1  0
 16 17  1  6
 18 19  1  0
 18 16  1  0
 20 18  2  0
M  END
$$$$
