GLV.pdb
     RDKit          3D

 20 19  0  0  1  0  0  0  0  0999 V2000
    4.6616  -20.0882   24.2725 N   0  0  0  0  0  0  0  0  0  0  0  0
    5.5519  -19.4591   25.2256 C   0  0  0  0  0  0  0  0  0  0  0  0
    6.0407  -18.1504   24.7417 C   0  0  0  0  0  0  0  0  0  0  0  0
    6.2003  -17.8789   23.5193 O   0  0  0  0  0  0  0  0  0  0  0  0
    7.9603  -12.7386   27.2345 C   0  0  0  0  0  0  0  0  0  0  0  0
    7.3554  -13.5124   26.1180 C   0  0  2  0  0  0  0  0  0  0  0  0
    6.2633  -12.6850   25.4593 C   0  0  0  0  0  0  0  0  0  0  0  0
    6.9114  -14.8962   26.4237 C   0  0  0  0  0  0  0  0  0  0  0  0
    6.9754  -15.8898   25.3238 C   0  0  2  0  0  0  0  0  0  0  0  0
    6.3475  -17.1432   25.7102 N   0  0  0  0  0  0  0  0  0  0  0  0
    8.4317  -16.1497   24.9870 C   0  0  0  0  0  0  0  0  0  0  0  0
    9.1307  -16.7860   25.7955 O   0  0  0  0  0  0  0  0  0  0  0  0
   10.5531  -14.3685   21.4775 C   0  0  0  0  0  0  0  0  0  0  0  0
   10.3605  -15.8508   21.7724 C   0  0  2  0  0  0  0  0  0  0  0  0
    9.2340  -16.3422   20.9245 C   0  0  0  0  0  0  0  0  0  0  0  0
   10.1753  -16.0930   23.2287 C   0  0  2  0  0  0  0  0  0  0  0  0
    8.9126  -15.6461   23.7577 N   0  0  0  0  0  0  0  0  0  0  0  0
   11.3517  -15.7439   24.0690 C   0  0  0  0  0  0  0  0  0  0  0  0
   12.6195  -16.2646   23.9367 O   0  0  0  0  0  0  0  0  0  0  0  0
   11.2237  -14.8861   25.0087 O   0  0  0  0  0  0  0  0  0  0  0  0
  2  1  1  0
  3  2  1  0
  3 10  1  0
  4  3  2  0
  6  8  1  0
  6  5  1  1
  7  6  1  0
  9 11  1  0
  9 10  1  0
  9  8  1  1
 11 17  1  0
 12 11  2  0
 14 13  1  1
 14 15  1  0
 16 14  1  0
 16 17  1  1
 18 19  1  0
 18 16  1  0
 20 18  2  0
M  END
$$$$
