GLV.pdb
     RDKit          3D

 20 19  0  0  1  0  0  0  0  0999 V2000
    5.8159  -18.9871   22.3659 N   0  0  0  0  0  0  0  0  0  0  0  0
    5.8511  -18.6151   23.7649 C   0  0  0  0  0  0  0  0  0  0  0  0
    6.7368  -17.4558   24.0042 C   0  0  0  0  0  0  0  0  0  0  0  0
    7.8295  -17.2813   23.3969 O   0  0  0  0  0  0  0  0  0  0  0  0
    6.5059  -12.1374   27.3197 C   0  0  0  0  0  0  0  0  0  0  0  0
    7.1743  -13.0542   26.3586 C   0  0  2  0  0  0  0  0  0  0  0  0
    7.6701  -12.2609   25.1603 C   0  0  0  0  0  0  0  0  0  0  0  0
    6.4242  -14.2725   25.9606 C   0  0  0  0  0  0  0  0  0  0  0  0
    7.1980  -15.3749   25.3385 C   0  0  2  0  0  0  0  0  0  0  0  0
    6.3320  -16.4846   24.9735 N   0  0  0  0  0  0  0  0  0  0  0  0
    8.2346  -15.8634   26.3328 C   0  0  0  0  0  0  0  0  0  0  0  0
    7.8563  -16.5092   27.3262 O   0  0  0  0  0  0  0  0  0  0  0  0
   12.6508  -15.0747   25.8476 C   0  0  0  0  0  0  0  0  0  0  0  0
   11.9066  -16.3848   26.0738 C   0  0  2  0  0  0  0  0  0  0  0  0
   11.7183  -17.0381   24.7444 C   0  0  0  0  0  0  0  0  0  0  0  0
   10.6427  -16.1658   26.8276 C   0  0  2  0  0  0  0  0  0  0  0  0
    9.5864  -15.5505   26.0663 N   0  0  0  0  0  0  0  0  0  0  0  0
   10.8250  -15.6028   28.1920 C   0  0  0  0  0  0  0  0  0  0  0  0
   11.4958  -16.2086   29.2307 O   0  0  0  0  0  0  0  0  0  0  0  0
   10.3356  -14.4550   28.4715 O   0  0  0  0  0  0  0  0  0  0  0  0
  2  1  1  0
  3  2  1  0
  3 10  1  0
  4  3  2  0
  6  8  1  0
  6  5  1  6
  7  6  1  0
  9 11  1  0
  9 10  1  0
  9  8  1  1
 11 17  1  0
 12 11  2  0
 14 13  1  6
 14 15  1  0
 16 14  1  0
 16 17  1  6
 18 19  1  0
 18 16  1  0
 20 18  2  0
M  END
$$$$
