GLV.pdb
     RDKit          3D

 20 19  0  0  1  0  0  0  0  0999 V2000
    4.8523  -18.5086   22.2718 N   0  0  0  0  0  0  0  0  0  0  0  0
    5.0674  -18.0871   23.6403 C   0  0  0  0  0  0  0  0  0  0  0  0
    6.1614  -17.0983   23.7464 C   0  0  0  0  0  0  0  0  0  0  0  0
    7.0337  -16.9308   22.8496 O   0  0  0  0  0  0  0  0  0  0  0  0
    7.5139  -12.3278   24.9777 C   0  0  0  0  0  0  0  0  0  0  0  0
    6.6406  -13.0714   25.9239 C   0  0  2  0  0  0  0  0  0  0  0  0
    6.3772  -12.2154   27.1524 C   0  0  0  0  0  0  0  0  0  0  0  0
    7.0549  -14.4537   26.2747 C   0  0  0  0  0  0  0  0  0  0  0  0
    7.3432  -15.3825   25.1544 C   0  0  2  0  0  0  0  0  0  0  0  0
    6.2321  -16.2924   24.9263 N   0  0  0  0  0  0  0  0  0  0  0  0
    8.5808  -16.1901   25.4979 C   0  0  0  0  0  0  0  0  0  0  0  0
    8.4995  -17.0708   26.3725 O   0  0  0  0  0  0  0  0  0  0  0  0
   11.1497  -16.7619   22.3682 C   0  0  0  0  0  0  0  0  0  0  0  0
   11.8535  -16.6396   23.7139 C   0  0  2  0  0  0  0  0  0  0  0  0
   12.9732  -17.6273   23.7348 C   0  0  0  0  0  0  0  0  0  0  0  0
   10.8938  -16.7851   24.8415 C   0  0  2  0  0  0  0  0  0  0  0  0
    9.7678  -15.8887   24.7934 N   0  0  0  0  0  0  0  0  0  0  0  0
   11.5269  -16.9052   26.1819 C   0  0  0  0  0  0  0  0  0  0  0  0
   11.4290  -15.9881   27.2043 O   0  0  0  0  0  0  0  0  0  0  0  0
   12.2316  -17.9361   26.4568 O   0  0  0  0  0  0  0  0  0  0  0  0
  2  1  1  0
  3  2  1  0
  3 10  1  0
  4  3  2  0
  6  8  1  0
  6  5  1  1
  7  6  1  0
  9 11  1  0
  9 10  1  0
  9  8  1  1
 11 17  1  0
 12 11  2  0
 14 13  1  6
 14 15  1  0
 16 14  1  0
 16 17  1  1
 18 19  1  0
 18 16  1  0
 20 18  2  0
M  END
$$$$
