GLV.pdb
     RDKit          3D

 20 19  0  0  1  0  0  0  0  0999 V2000
    7.4602  -15.6169   19.4797 N   0  0  0  0  0  0  0  0  0  0  0  0
    6.6316  -15.4668   20.6577 C   0  0  0  0  0  0  0  0  0  0  0  0
    7.4179  -15.0343   21.8325 C   0  0  0  0  0  0  0  0  0  0  0  0
    8.6793  -14.9868   21.8431 O   0  0  0  0  0  0  0  0  0  0  0  0
    6.2583  -12.1520   27.2669 C   0  0  0  0  0  0  0  0  0  0  0  0
    7.1710  -12.8501   26.3232 C   0  0  2  0  0  0  0  0  0  0  0  0
    8.3938  -11.9846   26.0647 C   0  0  0  0  0  0  0  0  0  0  0  0
    6.5697  -13.3705   25.0689 C   0  0  0  0  0  0  0  0  0  0  0  0
    7.4169  -14.2432   24.2194 C   0  0  2  0  0  0  0  0  0  0  0  0
    6.7106  -14.6509   23.0154 N   0  0  0  0  0  0  0  0  0  0  0  0
    7.7929  -15.4795   25.0144 C   0  0  0  0  0  0  0  0  0  0  0  0
    6.8868  -16.2120   25.4498 O   0  0  0  0  0  0  0  0  0  0  0  0
   11.9340  -16.9428   24.8643 C   0  0  0  0  0  0  0  0  0  0  0  0
   10.6152  -17.7034   24.9239 C   0  0  2  0  0  0  0  0  0  0  0  0
   10.1710  -17.9575   23.5211 C   0  0  0  0  0  0  0  0  0  0  0  0
    9.6138  -16.9852   25.7576 C   0  0  2  0  0  0  0  0  0  0  0  0
    9.1693  -15.7275   25.2149 N   0  0  0  0  0  0  0  0  0  0  0  0
    9.9283  -16.9506   27.2108 C   0  0  0  0  0  0  0  0  0  0  0  0
   10.1404  -18.0475   28.0157 O   0  0  0  0  0  0  0  0  0  0  0  0
   10.0237  -15.8246   27.8091 O   0  0  0  0  0  0  0  0  0  0  0  0
  2  1  1  0
  3  2  1  0
  3 10  1  0
  4  3  2  0
  6  8  1  0
  6  5  1  6
  7  6  1  0
  9 11  1  0
  9 10  1  0
  9  8  1  1
 11 17  1  0
 12 11  2  0
 14 13  1  6
 14 15  1  0
 16 14  1  0
 16 17  1  6
 18 19  1  0
 18 16  1  0
 20 18  2  0
M  END
$$$$
