GLV.pdb
     RDKit          3D

 20 19  0  0  1  0  0  0  0  0999 V2000
    6.4462  -20.0372   24.6716 N   0  0  0  0  0  0  0  0  0  0  0  0
    6.1302  -18.6244   24.7031 C   0  0  0  0  0  0  0  0  0  0  0  0
    7.1486  -17.8167   23.9986 C   0  0  0  0  0  0  0  0  0  0  0  0
    8.3332  -18.2082   23.8075 O   0  0  0  0  0  0  0  0  0  0  0  0
    7.2837  -12.2435   21.0728 C   0  0  0  0  0  0  0  0  0  0  0  0
    7.8923  -13.5455   21.4544 C   0  0  2  0  0  0  0  0  0  0  0  0
    8.4443  -14.2313   20.2150 C   0  0  0  0  0  0  0  0  0  0  0  0
    7.0633  -14.4563   22.2843 C   0  0  0  0  0  0  0  0  0  0  0  0
    7.7276  -15.6579   22.8464 C   0  0  2  0  0  0  0  0  0  0  0  0
    6.7689  -16.5267   23.5103 N   0  0  0  0  0  0  0  0  0  0  0  0
    8.7701  -15.2111   23.8541 C   0  0  0  0  0  0  0  0  0  0  0  0
    9.9493  -15.0807   23.4804 O   0  0  0  0  0  0  0  0  0  0  0  0
    7.8563  -13.4073   27.8993 C   0  0  0  0  0  0  0  0  0  0  0  0
    8.9237  -13.2337   26.8261 C   0  0  2  0  0  0  0  0  0  0  0  0
    8.4460  -12.1891   25.8720 C   0  0  0  0  0  0  0  0  0  0  0  0
    9.2624  -14.5328   26.1848 C   0  0  2  0  0  0  0  0  0  0  0  0
    8.3321  -14.9666   25.1748 N   0  0  0  0  0  0  0  0  0  0  0  0
    9.6829  -15.5998   27.1318 C   0  0  0  0  0  0  0  0  0  0  0  0
   10.6848  -15.4951   28.0705 O   0  0  0  0  0  0  0  0  0  0  0  0
    9.0879  -16.7314   27.1119 O   0  0  0  0  0  0  0  0  0  0  0  0
  2  1  1  0
  3  2  1  0
  3 10  1  0
  4  3  2  0
  6  8  1  0
  6  5  1  6
  7  6  1  0
  9 11  1  0
  9 10  1  0
  9  8  1  1
 11 17  1  0
 12 11  2  0
 14 13  1  1
 14 15  1  0
 16 14  1  0
 16 17  1  1
 18 19  1  0
 18 16  1  0
 20 18  2  0
M  END
$$$$
