GLV.pdb
     RDKit          3D

 20 19  0  0  1  0  0  0  0  0999 V2000
    7.3359  -14.5897   19.9506 N   0  0  0  0  0  0  0  0  0  0  0  0
    6.6023  -14.7431   21.1896 C   0  0  0  0  0  0  0  0  0  0  0  0
    7.4868  -14.6391   22.3697 C   0  0  0  0  0  0  0  0  0  0  0  0
    8.7462  -14.6835   22.2980 O   0  0  0  0  0  0  0  0  0  0  0  0
    7.8583  -11.3965   25.7172 C   0  0  0  0  0  0  0  0  0  0  0  0
    6.6665  -12.2704   25.8815 C   0  0  2  0  0  0  0  0  0  0  0  0
    5.8175  -11.7606   27.0350 C   0  0  0  0  0  0  0  0  0  0  0  0
    6.9123  -13.7328   25.9619 C   0  0  0  0  0  0  0  0  0  0  0  0
    7.6874  -14.3539   24.8599 C   0  0  2  0  0  0  0  0  0  0  0  0
    6.8815  -14.4801   23.6561 N   0  0  0  0  0  0  0  0  0  0  0  0
    8.1382  -15.7342   25.2998 C   0  0  0  0  0  0  0  0  0  0  0  0
    7.2787  -16.6101   25.5034 O   0  0  0  0  0  0  0  0  0  0  0  0
   12.3062  -16.9102   24.8529 C   0  0  0  0  0  0  0  0  0  0  0  0
   11.0601  -17.7865   24.8754 C   0  0  2  0  0  0  0  0  0  0  0  0
   10.5849  -17.9403   23.4682 C   0  0  0  0  0  0  0  0  0  0  0  0
   10.0345  -17.2447   25.8072 C   0  0  2  0  0  0  0  0  0  0  0  0
    9.5268  -15.9442   25.4538 N   0  0  0  0  0  0  0  0  0  0  0  0
   10.3611  -17.4058   27.2491 C   0  0  0  0  0  0  0  0  0  0  0  0
   10.6697  -18.5913   27.8779 O   0  0  0  0  0  0  0  0  0  0  0  0
   10.3721  -16.3797   28.0120 O   0  0  0  0  0  0  0  0  0  0  0  0
  2  1  1  0
  3  2  1  0
  3 10  1  0
  4  3  2  0
  6  8  1  0
  6  5  1  1
  7  6  1  0
  9 11  1  0
  9 10  1  0
  9  8  1  1
 11 17  1  0
 12 11  2  0
 14 13  1  6
 14 15  1  0
 16 14  1  0
 16 17  1  6
 18 19  1  0
 18 16  1  0
 20 18  2  0
M  END
$$$$
