GLV.pdb
     RDKit          3D

 20 19  0  0  1  0  0  0  0  0999 V2000
    4.8150  -19.1785   23.2266 N   0  0  0  0  0  0  0  0  0  0  0  0
    5.0739  -18.4368   24.4431 C   0  0  0  0  0  0  0  0  0  0  0  0
    6.0778  -17.3716   24.2353 C   0  0  0  0  0  0  0  0  0  0  0  0
    6.7039  -17.2110   23.1511 O   0  0  0  0  0  0  0  0  0  0  0  0
    7.0886  -12.3936   24.7411 C   0  0  0  0  0  0  0  0  0  0  0  0
    6.5170  -13.1456   25.8896 C   0  0  2  0  0  0  0  0  0  0  0  0
    6.3408  -12.2084   27.0736 C   0  0  0  0  0  0  0  0  0  0  0  0
    7.1938  -14.4128   26.2658 C   0  0  0  0  0  0  0  0  0  0  0  0
    7.3584  -15.4370   25.2052 C   0  0  2  0  0  0  0  0  0  0  0  0
    6.3511  -16.4795   25.3198 N   0  0  0  0  0  0  0  0  0  0  0  0
    8.7342  -16.0620   25.3415 C   0  0  0  0  0  0  0  0  0  0  0  0
    8.9788  -16.7638   26.3390 O   0  0  0  0  0  0  0  0  0  0  0  0
   12.2325  -17.8962   22.4517 C   0  0  0  0  0  0  0  0  0  0  0  0
   11.1761  -16.8153   22.6438 C   0  0  2  0  0  0  0  0  0  0  0  0
   11.7173  -15.5429   22.0800 C   0  0  0  0  0  0  0  0  0  0  0  0
   10.7543  -16.7181   24.0673 C   0  0  2  0  0  0  0  0  0  0  0  0
    9.6675  -15.8055   24.3124 N   0  0  0  0  0  0  0  0  0  0  0  0
   11.8749  -16.6144   25.0396 C   0  0  0  0  0  0  0  0  0  0  0  0
   12.8285  -17.5792   25.2760 O   0  0  0  0  0  0  0  0  0  0  0  0
   12.0073  -15.5521   25.7388 O   0  0  0  0  0  0  0  0  0  0  0  0
  2  1  1  0
  3  2  1  0
  3 10  1  0
  4  3  2  0
  6  8  1  0
  6  5  1  6
  7  6  1  0
  9 11  1  0
  9 10  1  0
  9  8  1  1
 11 17  1  0
 12 11  2  0
 14 13  1  1
 14 15  1  0
 16 14  1  0
 16 17  1  6
 18 19  1  0
 18 16  1  0
 20 18  2  0
M  END
$$$$
