GLV.pdb
     RDKit          3D

 20 19  0  0  1  0  0  0  0  0999 V2000
    7.3613  -14.4285   19.8281 N   0  0  0  0  0  0  0  0  0  0  0  0
    6.6271  -14.4303   21.0762 C   0  0  0  0  0  0  0  0  0  0  0  0
    7.5304  -14.4522   22.2463 C   0  0  0  0  0  0  0  0  0  0  0  0
    8.7825  -14.5824   22.1531 O   0  0  0  0  0  0  0  0  0  0  0  0
    8.0134  -11.3995   25.8934 C   0  0  0  0  0  0  0  0  0  0  0  0
    6.8085  -12.2707   25.9140 C   0  0  2  0  0  0  0  0  0  0  0  0
    5.8888  -11.8395   27.0451 C   0  0  0  0  0  0  0  0  0  0  0  0
    7.0404  -13.7375   25.9002 C   0  0  0  0  0  0  0  0  0  0  0  0
    7.7813  -14.2983   24.7436 C   0  0  2  0  0  0  0  0  0  0  0  0
    6.9532  -14.3189   23.5485 N   0  0  0  0  0  0  0  0  0  0  0  0
    8.2029  -15.7170   25.0773 C   0  0  0  0  0  0  0  0  0  0  0  0
    7.3256  -16.5890   25.2085 O   0  0  0  0  0  0  0  0  0  0  0  0
   12.4271  -16.9639   24.7446 C   0  0  0  0  0  0  0  0  0  0  0  0
   11.1400  -17.7493   24.5254 C   0  0  2  0  0  0  0  0  0  0  0  0
   10.7787  -17.6393   23.0808 C   0  0  0  0  0  0  0  0  0  0  0  0
   10.0683  -17.3020   25.4555 C   0  0  2  0  0  0  0  0  0  0  0  0
    9.5863  -15.9654   25.2206 N   0  0  0  0  0  0  0  0  0  0  0  0
   10.3163  -17.6232   26.8863 C   0  0  0  0  0  0  0  0  0  0  0  0
   10.6073  -18.8697   27.3936 O   0  0  0  0  0  0  0  0  0  0  0  0
   10.2688  -16.6905   27.7598 O   0  0  0  0  0  0  0  0  0  0  0  0
  2  1  1  0
  3  2  1  0
  3 10  1  0
  4  3  2  0
  6  8  1  0
  6  5  1  1
  7  6  1  0
  9 11  1  0
  9 10  1  0
  9  8  1  1
 11 17  1  0
 12 11  2  0
 14 13  1  6
 14 15  1  0
 16 14  1  0
 16 17  1  1
 18 19  1  0
 18 16  1  0
 20 18  2  0
M  END
$$$$
