GLV.pdb
     RDKit          3D

 20 19  0  0  1  0  0  0  0  0999 V2000
    8.3249  -15.5082   19.4371 N   0  0  0  0  0  0  0  0  0  0  0  0
    7.3617  -15.3962   20.5125 C   0  0  0  0  0  0  0  0  0  0  0  0
    7.9979  -14.9797   21.7804 C   0  0  0  0  0  0  0  0  0  0  0  0
    9.2423  -15.0391   21.9837 O   0  0  0  0  0  0  0  0  0  0  0  0
    6.1207  -12.2826   27.1356 C   0  0  0  0  0  0  0  0  0  0  0  0
    7.1684  -12.8796   26.2655 C   0  0  2  0  0  0  0  0  0  0  0  0
    8.3844  -11.9676   26.2353 C   0  0  0  0  0  0  0  0  0  0  0  0
    6.7484  -13.3091   24.9073 C   0  0  0  0  0  0  0  0  0  0  0  0
    7.7001  -14.1432   24.1329 C   0  0  2  0  0  0  0  0  0  0  0  0
    7.1581  -14.4851   22.8275 N   0  0  0  0  0  0  0  0  0  0  0  0
    7.9687  -15.4205   24.9064 C   0  0  0  0  0  0  0  0  0  0  0  0
    7.0139  -16.1700   25.1780 O   0  0  0  0  0  0  0  0  0  0  0  0
   11.9828  -17.1047   24.9945 C   0  0  0  0  0  0  0  0  0  0  0  0
   10.6130  -17.7664   25.0781 C   0  0  2  0  0  0  0  0  0  0  0  0
   10.1555  -18.0462   23.6845 C   0  0  0  0  0  0  0  0  0  0  0  0
    9.6631  -16.9449   25.8759 C   0  0  2  0  0  0  0  0  0  0  0  0
    9.3062  -15.6850   25.2767 N   0  0  0  0  0  0  0  0  0  0  0  0
    9.9790  -16.8675   27.3271 C   0  0  0  0  0  0  0  0  0  0  0  0
   10.1142  -17.9395   28.1807 O   0  0  0  0  0  0  0  0  0  0  0  0
   10.1524  -15.7253   27.8751 O   0  0  0  0  0  0  0  0  0  0  0  0
  2  1  1  0
  3  2  1  0
  3 10  1  0
  4  3  2  0
  6  8  1  0
  6  5  1  6
  7  6  1  0
  9 11  1  0
  9 10  1  0
  9  8  1  1
 11 17  1  0
 12 11  2  0
 14 13  1  6
 14 15  1  0
 16 14  1  0
 16 17  1  6
 18 19  1  0
 18 16  1  0
 20 18  2  0
M  END
$$$$
