GLV.pdb
     RDKit          3D

 20 19  0  0  1  0  0  0  0  0999 V2000
    7.6494  -14.3481   19.8126 N   0  0  0  0  0  0  0  0  0  0  0  0
    6.8546  -14.6162   20.9930 C   0  0  0  0  0  0  0  0  0  0  0  0
    7.6609  -14.5362   22.2296 C   0  0  0  0  0  0  0  0  0  0  0  0
    8.9227  -14.5684   22.2377 O   0  0  0  0  0  0  0  0  0  0  0  0
    7.9913  -11.5303   25.9313 C   0  0  0  0  0  0  0  0  0  0  0  0
    6.7294  -12.3139   25.8638 C   0  0  2  0  0  0  0  0  0  0  0  0
    5.7826  -11.8482   26.9583 C   0  0  0  0  0  0  0  0  0  0  0  0
    6.8590  -13.7926   25.8180 C   0  0  0  0  0  0  0  0  0  0  0  0
    7.6976  -14.3689   24.7383 C   0  0  2  0  0  0  0  0  0  0  0  0
    6.9732  -14.4162   23.4783 N   0  0  0  0  0  0  0  0  0  0  0  0
    8.0968  -15.7786   25.1321 C   0  0  0  0  0  0  0  0  0  0  0  0
    7.2115  -16.6458   25.2385 O   0  0  0  0  0  0  0  0  0  0  0  0
   12.2717  -17.1374   24.9204 C   0  0  0  0  0  0  0  0  0  0  0  0
   10.9632  -17.9113   24.8190 C   0  0  2  0  0  0  0  0  0  0  0  0
   10.5658  -17.9492   23.3801 C   0  0  0  0  0  0  0  0  0  0  0  0
    9.9262  -17.3411   25.7209 C   0  0  2  0  0  0  0  0  0  0  0  0
    9.4697  -16.0246   25.3572 N   0  0  0  0  0  0  0  0  0  0  0  0
   10.2029  -17.5166   27.1716 C   0  0  0  0  0  0  0  0  0  0  0  0
   10.3901  -18.7186   27.8166 O   0  0  0  0  0  0  0  0  0  0  0  0
   10.2867  -16.4882   27.9268 O   0  0  0  0  0  0  0  0  0  0  0  0
  2  1  1  0
  3  2  1  0
  3 10  1  0
  4  3  2  0
  6  8  1  0
  6  5  1  1
  7  6  1  0
  9 11  1  0
  9 10  1  0
  9  8  1  1
 11 17  1  0
 12 11  2  0
 14 13  1  6
 14 15  1  0
 16 14  1  0
 16 17  1  1
 18 19  1  0
 18 16  1  0
 20 18  2  0
M  END
$$$$
