GLV.pdb
     RDKit          3D

 20 19  0  0  1  0  0  0  0  0999 V2000
    9.5471  -16.0752   20.4081 N   0  0  0  0  0  0  0  0  0  0  0  0
    8.4215  -16.0491   21.3186 C   0  0  0  0  0  0  0  0  0  0  0  0
    8.7308  -15.3000   22.5551 C   0  0  0  0  0  0  0  0  0  0  0  0
    9.9058  -15.1119   22.9760 O   0  0  0  0  0  0  0  0  0  0  0  0
    5.4229  -12.0781   26.8157 C   0  0  0  0  0  0  0  0  0  0  0  0
    6.7145  -12.5494   26.2491 C   0  0  2  0  0  0  0  0  0  0  0  0
    7.7019  -11.3943   26.2052 C   0  0  0  0  0  0  0  0  0  0  0  0
    6.6528  -13.2913   24.9641 C   0  0  0  0  0  0  0  0  0  0  0  0
    7.8662  -14.0386   24.5512 C   0  0  2  0  0  0  0  0  0  0  0  0
    7.6411  -14.7625   23.3102 N   0  0  0  0  0  0  0  0  0  0  0  0
    8.2228  -15.0294   25.6435 C   0  0  0  0  0  0  0  0  0  0  0  0
    8.4364  -14.6048   26.7930 O   0  0  0  0  0  0  0  0  0  0  0  0
    8.4843  -19.4992   24.9540 C   0  0  0  0  0  0  0  0  0  0  0  0
    7.9365  -18.6860   26.1201 C   0  0  2  0  0  0  0  0  0  0  0  0
    6.4618  -18.5502   25.9289 C   0  0  0  0  0  0  0  0  0  0  0  0
    8.6530  -17.3896   26.2594 C   0  0  2  0  0  0  0  0  0  0  0  0
    8.2915  -16.3939   25.2838 N   0  0  0  0  0  0  0  0  0  0  0  0
   10.1157  -17.5130   26.4986 C   0  0  0  0  0  0  0  0  0  0  0  0
   11.1089  -16.9667   25.7168 O   0  0  0  0  0  0  0  0  0  0  0  0
   10.5362  -18.1730   27.5097 O   0  0  0  0  0  0  0  0  0  0  0  0
  2  1  1  0
  3  2  1  0
  3 10  1  0
  4  3  2  0
  6  8  1  0
  6  5  1  6
  7  6  1  0
  9 11  1  0
  9 10  1  0
  9  8  1  1
 11 17  1  0
 12 11  2  0
 14 13  1  6
 14 15  1  0
 16 14  1  0
 16 17  1  6
 18 19  1  0
 18 16  1  0
 20 18  2  0
M  END
$$$$
