KPW.pdb
     RDKit          3D

 31 33  0  0  1  0  0  0  0  0999 V2000
    9.3112  -17.6046   17.7756 N   0  0  0  0  0  0  0  0  0  0  0  0
    8.4616  -17.3356   18.8859 C   0  0  1  0  0  0  0  0  0  0  0  0
    8.0459  -18.6104   19.5650 C   0  0  0  0  0  0  0  0  0  0  0  0
    9.1941  -19.4407   20.0255 C   0  0  0  0  0  0  0  0  0  0  0  0
    8.7886  -20.7380   20.6788 C   0  0  0  0  0  0  0  0  0  0  0  0
    9.9418  -21.5458   21.1699 C   0  0  0  0  0  0  0  0  0  0  0  0
    9.5385  -22.7763   21.8260 N   0  0  0  0  0  0  0  0  0  0  0  0
    9.1025  -16.4088   19.8721 C   0  0  0  0  0  0  0  0  0  0  0  0
   10.3614  -16.2385   19.8211 O   0  0  0  0  0  0  0  0  0  0  0  0
    8.3590  -15.7141   20.8612 N   0  0  0  0  0  0  0  0  0  0  0  0
    6.9389  -15.7379   21.1298 C   0  0  0  0  0  0  0  0  0  0  0  0
    6.6534  -14.5297   22.0316 C   0  0  0  0  0  0  0  0  0  0  0  0
    7.9203  -13.6758   21.8425 C   0  0  0  0  0  0  0  0  0  0  0  0
    8.9490  -14.8159   21.8270 C   0  0  1  0  0  0  0  0  0  0  0  0
    8.9133  -15.3816   23.2090 C   0  0  0  0  0  0  0  0  0  0  0  0
    8.0309  -16.1884   23.5966 O   0  0  0  0  0  0  0  0  0  0  0  0
    9.8944  -15.0124   24.1316 N   0  0  0  0  0  0  0  0  0  0  0  0
   10.3946  -15.7870   25.2305 C   0  0  1  0  0  0  0  0  0  0  0  0
    9.5741  -15.8061   26.4422 C   0  0  0  0  0  0  0  0  0  0  0  0
    8.3172  -15.0328   26.3500 C   0  0  0  0  0  0  0  0  0  0  0  0
    7.0763  -15.6166   26.0482 C   0  0  0  0  0  0  0  0  0  0  0  0
    6.1148  -14.6930   26.0661 N   0  0  0  0  0  0  0  0  0  0  0  0
    6.6328  -13.5025   26.3650 C   0  0  0  0  0  0  0  0  0  0  0  0
    6.0974  -12.2352   26.5055 C   0  0  0  0  0  0  0  0  0  0  0  0
    6.8944  -11.1688   26.8165 C   0  0  0  0  0  0  0  0  0  0  0  0
    8.2376  -11.3642   26.9895 C   0  0  0  0  0  0  0  0  0  0  0  0
    8.7672  -12.6216   26.8501 C   0  0  0  0  0  0  0  0  0  0  0  0
    8.0034  -13.7155   26.5406 C   0  0  0  0  0  0  0  0  0  0  0  0
   10.8540  -17.1072   24.8100 C   0  0  0  0  0  0  0  0  0  0  0  0
   10.7674  -17.4794   23.6113 O   0  0  0  0  0  0  0  0  0  0  0  0
   11.4127  -18.0323   25.6964 O   0  0  0  0  0  0  0  0  0  0  0  0
  2  1  1  6
  3  2  1  0
  4  3  1  0
  5  4  1  0
  5  6  1  0
  6  7  1  0
  8  2  1  0
  9  8  2  0
 10  8  1  0
 10 11  1  0
 12 11  1  0
 13 12  1  0
 14 13  1  0
 14 10  1  0
 14 15  1  1
 15 16  2  0
 17 15  1  0
 18 29  1  0
 18 17  1  0
 18 19  1  1
 20 19  1  0
 20 21  2  0
 22 21  1  0
 23 22  1  0
 24 23  2  0
 25 24  1  0
 26 25  2  0
 26 27  1  0
 27 28  2  0
 28 23  1  0
 28 20  1  0
 29 31  1  0
 30 29  2  0
M  END
$$$$
