KPW.pdb
     RDKit          3D

 31 33  0  0  1  0  0  0  0  0999 V2000
    7.8177  -13.4540   17.1388 N   0  0  0  0  0  0  0  0  0  0  0  0
    8.4911  -14.5635   17.7242 C   0  0  1  0  0  0  0  0  0  0  0  0
    9.9809  -14.4209   17.5860 C   0  0  0  0  0  0  0  0  0  0  0  0
   10.6179  -15.5381   16.8335 C   0  0  0  0  0  0  0  0  0  0  0  0
   11.7977  -16.1575   17.5395 C   0  0  0  0  0  0  0  0  0  0  0  0
   12.4898  -17.2075   16.7380 C   0  0  0  0  0  0  0  0  0  0  0  0
   13.8888  -17.3657   17.0915 N   0  0  0  0  0  0  0  0  0  0  0  0
    8.1201  -14.7505   19.1629 C   0  0  0  0  0  0  0  0  0  0  0  0
    7.9897  -13.7218   19.8985 O   0  0  0  0  0  0  0  0  0  0  0  0
    7.9091  -16.0312   19.7362 N   0  0  0  0  0  0  0  0  0  0  0  0
    8.1659  -17.3410   19.1813 C   0  0  0  0  0  0  0  0  0  0  0  0
    7.4033  -18.3373   20.0646 C   0  0  0  0  0  0  0  0  0  0  0  0
    6.4214  -17.4206   20.8165 C   0  0  0  0  0  0  0  0  0  0  0  0
    7.3725  -16.2401   21.0615 C   0  0  1  0  0  0  0  0  0  0  0  0
    8.4039  -16.7694   22.0035 C   0  0  0  0  0  0  0  0  0  0  0  0
    9.2849  -17.5974   21.6601 O   0  0  0  0  0  0  0  0  0  0  0  0
    8.4105  -16.3400   23.3323 N   0  0  0  0  0  0  0  0  0  0  0  0
    9.5465  -16.1897   24.1952 C   0  0  1  0  0  0  0  0  0  0  0  0
    9.5994  -14.9666   24.9970 C   0  0  0  0  0  0  0  0  0  0  0  0
    8.2875  -14.4899   25.4851 C   0  0  0  0  0  0  0  0  0  0  0  0
    7.1746  -15.3314   25.6430 C   0  0  0  0  0  0  0  0  0  0  0  0
    6.1411  -14.6438   26.1296 N   0  0  0  0  0  0  0  0  0  0  0  0
    6.4877  -13.3706   26.3139 C   0  0  0  0  0  0  0  0  0  0  0  0
    5.8156  -12.2545   26.7775 C   0  0  0  0  0  0  0  0  0  0  0  0
    6.4407  -11.0408   26.8506 C   0  0  0  0  0  0  0  0  0  0  0  0
    7.7474  -10.9354   26.4585 C   0  0  0  0  0  0  0  0  0  0  0  0
    8.4128  -12.0432   25.9992 C   0  0  0  0  0  0  0  0  0  0  0  0
    7.8235  -13.2764   25.9118 C   0  0  0  0  0  0  0  0  0  0  0  0
    9.8255  -17.4043   24.9553 C   0  0  0  0  0  0  0  0  0  0  0  0
    8.9444  -18.2858   25.1275 O   0  0  0  0  0  0  0  0  0  0  0  0
   11.0706  -17.6661   25.5338 O   0  0  0  0  0  0  0  0  0  0  0  0
  2  1  1  1
  3  2  1  0
  4  3  1  0
  5  4  1  0
  5  6  1  0
  6  7  1  0
  8  2  1  0
  9  8  2  0
 10  8  1  0
 10 11  1  0
 12 11  1  0
 13 12  1  0
 14 13  1  0
 14 10  1  0
 14 15  1  1
 15 16  2  0
 17 15  1  0
 18 29  1  0
 18 17  1  0
 18 19  1  1
 20 19  1  0
 20 21  2  0
 22 21  1  0
 23 22  1  0
 24 23  2  0
 25 24  1  0
 26 25  2  0
 26 27  1  0
 27 28  2  0
 28 23  1  0
 28 20  1  0
 29 31  1  0
 30 29  2  0
M  END
$$$$
