KPW.pdb
     RDKit          3D

 31 33  0  0  1  0  0  0  0  0999 V2000
    7.7662  -18.4407   18.1738 N   0  0  0  0  0  0  0  0  0  0  0  0
    7.2265  -17.4128   18.9979 C   0  0  1  0  0  0  0  0  0  0  0  0
    6.2026  -17.9683   19.9476 C   0  0  0  0  0  0  0  0  0  0  0  0
    6.1282  -19.4564   19.9383 C   0  0  0  0  0  0  0  0  0  0  0  0
    7.1639  -20.1267   20.8056 C   0  0  0  0  0  0  0  0  0  0  0  0
    7.0258  -21.6104   20.8627 C   0  0  0  0  0  0  0  0  0  0  0  0
    8.0514  -22.2484   21.6679 N   0  0  0  0  0  0  0  0  0  0  0  0
    8.2922  -16.6821   19.7548 C   0  0  0  0  0  0  0  0  0  0  0  0
    9.4857  -17.1169   19.7022 O   0  0  0  0  0  0  0  0  0  0  0  0
    8.0208  -15.5238   20.5284 N   0  0  0  0  0  0  0  0  0  0  0  0
    6.7580  -14.8762   20.8028 C   0  0  0  0  0  0  0  0  0  0  0  0
    7.1007  -13.4853   21.3528 C   0  0  0  0  0  0  0  0  0  0  0  0
    8.5737  -13.3241   20.9354 C   0  0  0  0  0  0  0  0  0  0  0  0
    9.0366  -14.7610   21.2169 C   0  0  1  0  0  0  0  0  0  0  0  0
    8.9372  -14.9109   22.6997 C   0  0  0  0  0  0  0  0  0  0  0  0
    7.9594  -14.4886   23.3671 O   0  0  0  0  0  0  0  0  0  0  0  0
    9.9652  -15.5458   23.3999 N   0  0  0  0  0  0  0  0  0  0  0  0
   10.1068  -15.6674   24.8221 C   0  0  1  0  0  0  0  0  0  0  0  0
    8.9390  -16.1592   25.5544 C   0  0  0  0  0  0  0  0  0  0  0  0
    7.7950  -15.2232   25.5942 C   0  0  0  0  0  0  0  0  0  0  0  0
    6.4985  -15.5766   25.1867 C   0  0  0  0  0  0  0  0  0  0  0  0
    5.6635  -14.5523   25.3633 N   0  0  0  0  0  0  0  0  0  0  0  0
    6.3214  -13.5113   25.8718 C   0  0  0  0  0  0  0  0  0  0  0  0
    5.9495  -12.2290   26.2324 C   0  0  0  0  0  0  0  0  0  0  0  0
    6.8677  -11.3480   26.7323 C   0  0  0  0  0  0  0  0  0  0  0  0
    8.1691  -11.7457   26.8751 C   0  0  0  0  0  0  0  0  0  0  0  0
    8.5365  -13.0177   26.5173 C   0  0  0  0  0  0  0  0  0  0  0  0
    7.6477  -13.9301   26.0142 C   0  0  0  0  0  0  0  0  0  0  0  0
   11.3558  -16.3231   25.1974 C   0  0  0  0  0  0  0  0  0  0  0  0
   11.6646  -16.5016   26.4040 O   0  0  0  0  0  0  0  0  0  0  0  0
   12.2782  -16.7899   24.2568 O   0  0  0  0  0  0  0  0  0  0  0  0
  2  1  1  1
  3  2  1  0
  4  3  1  0
  5  4  1  0
  5  6  1  0
  6  7  1  0
  8  2  1  0
  9  8  2  0
 10  8  1  0
 10 11  1  0
 12 11  1  0
 13 12  1  0
 14 13  1  0
 14 10  1  0
 14 15  1  1
 15 16  2  0
 17 15  1  0
 18 29  1  0
 18 17  1  0
 18 19  1  6
 20 19  1  0
 20 21  2  0
 22 21  1  0
 23 22  1  0
 24 23  2  0
 25 24  1  0
 26 25  2  0
 26 27  1  0
 27 28  2  0
 28 23  1  0
 28 20  1  0
 29 31  1  0
 30 29  2  0
M  END
$$$$
