KPW.pdb
     RDKit          3D

 31 33  0  0  1  0  0  0  0  0999 V2000
    8.5849  -18.3660   17.6509 N   0  0  0  0  0  0  0  0  0  0  0  0
    7.8450  -17.4367   18.4358 C   0  0  1  0  0  0  0  0  0  0  0  0
    6.7226  -18.1223   19.1633 C   0  0  0  0  0  0  0  0  0  0  0  0
    7.1810  -19.2039   20.0799 C   0  0  0  0  0  0  0  0  0  0  0  0
    6.0920  -19.7625   20.9608 C   0  0  0  0  0  0  0  0  0  0  0  0
    6.5225  -20.9387   21.7701 C   0  0  0  0  0  0  0  0  0  0  0  0
    5.4737  -21.4532   22.6318 N   0  0  0  0  0  0  0  0  0  0  0  0
    8.7171  -16.7005   19.4053 C   0  0  0  0  0  0  0  0  0  0  0  0
    9.8826  -17.1501   19.6414 O   0  0  0  0  0  0  0  0  0  0  0  0
    8.2923  -15.5211   20.0704 N   0  0  0  0  0  0  0  0  0  0  0  0
    7.0296  -14.8226   19.9876 C   0  0  0  0  0  0  0  0  0  0  0  0
    7.2655  -13.4372   20.6037 C   0  0  0  0  0  0  0  0  0  0  0  0
    8.8017  -13.3376   20.6025 C   0  0  0  0  0  0  0  0  0  0  0  0
    9.1124  -14.7864   21.0060 C   0  0  1  0  0  0  0  0  0  0  0  0
    8.6076  -14.9097   22.4064 C   0  0  0  0  0  0  0  0  0  0  0  0
    7.7824  -14.1067   22.9104 O   0  0  0  0  0  0  0  0  0  0  0  0
    9.0582  -15.9568   23.2130 N   0  0  0  0  0  0  0  0  0  0  0  0
    9.9747  -15.8782   24.3137 C   0  0  1  0  0  0  0  0  0  0  0  0
    9.7176  -14.8312   25.3033 C   0  0  0  0  0  0  0  0  0  0  0  0
    8.2893  -14.5023   25.4987 C   0  0  0  0  0  0  0  0  0  0  0  0
    7.2478  -15.3975   25.2062 C   0  0  0  0  0  0  0  0  0  0  0  0
    6.0702  -14.8514   25.5108 N   0  0  0  0  0  0  0  0  0  0  0  0
    6.2499  -13.6245   25.9980 C   0  0  0  0  0  0  0  0  0  0  0  0
    5.3902  -12.6406   26.4512 C   0  0  0  0  0  0  0  0  0  0  0  0
    5.8715  -11.4411   26.8969 C   0  0  0  0  0  0  0  0  0  0  0  0
    7.2214  -11.2171   26.8918 C   0  0  0  0  0  0  0  0  0  0  0  0
    8.0728  -12.1939   26.4423 C   0  0  0  0  0  0  0  0  0  0  0  0
    7.6312  -13.4085   25.9892 C   0  0  0  0  0  0  0  0  0  0  0  0
   10.2463  -17.1876   24.8991 C   0  0  0  0  0  0  0  0  0  0  0  0
   11.1203  -17.3371   25.7917 O   0  0  0  0  0  0  0  0  0  0  0  0
    9.5643  -18.3452   24.5140 O   0  0  0  0  0  0  0  0  0  0  0  0
  2  1  1  1
  3  2  1  0
  4  3  1  0
  5  4  1  0
  5  6  1  0
  6  7  1  0
  8  2  1  0
  9  8  2  0
 10  8  1  0
 10 11  1  0
 12 11  1  0
 13 12  1  0
 14 13  1  0
 14 10  1  0
 14 15  1  1
 15 16  2  0
 17 15  1  0
 18 29  1  0
 18 17  1  0
 18 19  1  1
 20 19  1  0
 20 21  2  0
 22 21  1  0
 23 22  1  0
 24 23  2  0
 25 24  1  0
 26 25  2  0
 26 27  1  0
 27 28  2  0
 28 23  1  0
 28 20  1  0
 29 31  1  0
 30 29  2  0
M  END
$$$$
