KPW.pdb
     RDKit          3D

 31 33  0  0  1  0  0  0  0  0999 V2000
    8.4080  -18.3124   18.1138 N   0  0  0  0  0  0  0  0  0  0  0  0
    7.8746  -17.8854   19.3629 C   0  0  1  0  0  0  0  0  0  0  0  0
    7.5406  -19.0632   20.2348 C   0  0  0  0  0  0  0  0  0  0  0  0
    6.9166  -18.6838   21.5335 C   0  0  0  0  0  0  0  0  0  0  0  0
    6.4889  -19.8604   22.3742 C   0  0  0  0  0  0  0  0  0  0  0  0
    5.8660  -19.4723   23.6723 C   0  0  0  0  0  0  0  0  0  0  0  0
    5.4113  -20.6105   24.4501 N   0  0  0  0  0  0  0  0  0  0  0  0
    8.8027  -16.9557   20.0817 C   0  0  0  0  0  0  0  0  0  0  0  0
   10.0409  -17.2410   20.1241 O   0  0  0  0  0  0  0  0  0  0  0  0
    8.3532  -15.7694   20.7174 N   0  0  0  0  0  0  0  0  0  0  0  0
    7.0051  -15.3337   21.0040 C   0  0  0  0  0  0  0  0  0  0  0  0
    7.1003  -13.8396   21.3403 C   0  0  0  0  0  0  0  0  0  0  0  0
    8.4901  -13.4702   20.7909 C   0  0  0  0  0  0  0  0  0  0  0  0
    9.2367  -14.7420   21.2191 C   0  0  1  0  0  0  0  0  0  0  0  0
    9.2463  -14.6951   22.7120 C   0  0  0  0  0  0  0  0  0  0  0  0
    9.0642  -13.6370   23.3655 O   0  0  0  0  0  0  0  0  0  0  0  0
    9.4657  -15.8676   23.4382 N   0  0  0  0  0  0  0  0  0  0  0  0
   10.2374  -16.0196   24.6378 C   0  0  1  0  0  0  0  0  0  0  0  0
    9.8980  -15.1298   25.7490 C   0  0  0  0  0  0  0  0  0  0  0  0
    8.4565  -14.8278   25.8812 C   0  0  0  0  0  0  0  0  0  0  0  0
    7.4520  -15.7988   25.7407 C   0  0  0  0  0  0  0  0  0  0  0  0
    6.2520  -15.2547   25.9447 N   0  0  0  0  0  0  0  0  0  0  0  0
    6.3810  -13.9572   26.2183 C   0  0  0  0  0  0  0  0  0  0  0  0
    5.4808  -12.9448   26.4959 C   0  0  0  0  0  0  0  0  0  0  0  0
    5.9127  -11.6697   26.7342 C   0  0  0  0  0  0  0  0  0  0  0  0
    7.2532  -11.3981   26.6958 C   0  0  0  0  0  0  0  0  0  0  0  0
    8.1448  -12.4032   26.4207 C   0  0  0  0  0  0  0  0  0  0  0  0
    7.7533  -13.6930   26.1777 C   0  0  0  0  0  0  0  0  0  0  0  0
   10.3807  -17.4191   25.0271 C   0  0  0  0  0  0  0  0  0  0  0  0
   11.1369  -17.7614   25.9726 O   0  0  0  0  0  0  0  0  0  0  0  0
    9.6983  -18.4569   24.3862 O   0  0  0  0  0  0  0  0  0  0  0  0
  2  1  1  6
  3  2  1  0
  4  3  1  0
  5  4  1  0
  5  6  1  0
  6  7  1  0
  8  2  1  0
  9  8  2  0
 10  8  1  0
 10 11  1  0
 12 11  1  0
 13 12  1  0
 14 13  1  0
 14 10  1  0
 14 15  1  1
 15 16  2  0
 17 15  1  0
 18 29  1  0
 18 17  1  0
 18 19  1  1
 20 19  1  0
 20 21  2  0
 22 21  1  0
 23 22  1  0
 24 23  2  0
 25 24  1  0
 26 25  2  0
 26 27  1  0
 27 28  2  0
 28 23  1  0
 28 20  1  0
 29 31  1  0
 30 29  2  0
M  END
$$$$
