KPW.pdb
     RDKit          3D

 31 33  0  0  1  0  0  0  0  0999 V2000
    7.9928  -18.8909   18.9904 N   0  0  0  0  0  0  0  0  0  0  0  0
    7.5216  -17.9971   19.9935 C   0  0  1  0  0  0  0  0  0  0  0  0
    7.0300  -18.7517   21.1967 C   0  0  0  0  0  0  0  0  0  0  0  0
    8.0618  -19.6373   21.8058 C   0  0  0  0  0  0  0  0  0  0  0  0
    7.6225  -20.2970   23.0888 C   0  0  0  0  0  0  0  0  0  0  0  0
    8.6189  -21.2622   23.6360 C   0  0  0  0  0  0  0  0  0  0  0  0
    8.4888  -21.4667   25.0673 N   0  0  0  0  0  0  0  0  0  0  0  0
    8.5671  -17.0038   20.3968 C   0  0  0  0  0  0  0  0  0  0  0  0
    9.7732  -17.2133   20.0536 O   0  0  0  0  0  0  0  0  0  0  0  0
    8.2633  -15.8385   21.1474 N   0  0  0  0  0  0  0  0  0  0  0  0
    7.0285  -15.4576   21.7952 C   0  0  0  0  0  0  0  0  0  0  0  0
    7.1558  -13.9621   22.1142 C   0  0  0  0  0  0  0  0  0  0  0  0
    8.3294  -13.5360   21.2137 C   0  0  0  0  0  0  0  0  0  0  0  0
    9.2110  -14.7787   21.4051 C   0  0  1  0  0  0  0  0  0  0  0  0
    9.6240  -14.7367   22.8400 C   0  0  0  0  0  0  0  0  0  0  0  0
   10.0138  -13.6868   23.4104 O   0  0  0  0  0  0  0  0  0  0  0  0
    9.5842  -15.9048   23.6043 N   0  0  0  0  0  0  0  0  0  0  0  0
   10.1537  -16.1174   24.9036 C   0  0  1  0  0  0  0  0  0  0  0  0
    9.2112  -16.3436   26.0000 C   0  0  0  0  0  0  0  0  0  0  0  0
    7.9773  -15.5316   25.9321 C   0  0  0  0  0  0  0  0  0  0  0  0
    6.7171  -16.0726   25.6306 C   0  0  0  0  0  0  0  0  0  0  0  0
    5.7839  -15.1212   25.6730 N   0  0  0  0  0  0  0  0  0  0  0  0
    6.3397  -13.9522   25.9885 C   0  0  0  0  0  0  0  0  0  0  0  0
    5.8437  -12.6722   26.1558 C   0  0  0  0  0  0  0  0  0  0  0  0
    6.6748  -11.6359   26.4789 C   0  0  0  0  0  0  0  0  0  0  0  0
    8.0129  -11.8743   26.6370 C   0  0  0  0  0  0  0  0  0  0  0  0
    8.5034  -13.1443   26.4709 C   0  0  0  0  0  0  0  0  0  0  0  0
    7.7047  -14.2091   26.1487 C   0  0  0  0  0  0  0  0  0  0  0  0
   11.2590  -17.0703   24.8715 C   0  0  0  0  0  0  0  0  0  0  0  0
   12.0049  -17.2417   25.8702 O   0  0  0  0  0  0  0  0  0  0  0  0
   11.5586  -17.8448   23.7472 O   0  0  0  0  0  0  0  0  0  0  0  0
  2  1  1  6
  3  2  1  0
  4  3  1  0
  5  4  1  0
  5  6  1  0
  6  7  1  0
  8  2  1  0
  9  8  2  0
 10  8  1  0
 10 11  1  0
 12 11  1  0
 13 12  1  0
 14 13  1  0
 14 10  1  0
 14 15  1  1
 15 16  2  0
 17 15  1  0
 18 29  1  0
 18 17  1  0
 18 19  1  1
 20 19  1  0
 20 21  2  0
 22 21  1  0
 23 22  1  0
 24 23  2  0
 25 24  1  0
 26 25  2  0
 26 27  1  0
 27 28  2  0
 28 23  1  0
 28 20  1  0
 29 31  1  0
 30 29  2  0
M  END
$$$$
