KPW.pdb
     RDKit          3D

 31 33  0  0  1  0  0  0  0  0999 V2000
    7.1494  -18.4432   19.1073 N   0  0  0  0  0  0  0  0  0  0  0  0
    6.9374  -17.3230   19.9600 C   0  0  1  0  0  0  0  0  0  0  0  0
    6.3130  -17.7482   21.2594 C   0  0  0  0  0  0  0  0  0  0  0  0
    5.3062  -18.8360   21.1077 C   0  0  0  0  0  0  0  0  0  0  0  0
    5.7862  -20.1849   21.5810 C   0  0  0  0  0  0  0  0  0  0  0  0
    4.7508  -21.2540   21.4879 C   0  0  0  0  0  0  0  0  0  0  0  0
    5.1981  -22.5295   22.0175 N   0  0  0  0  0  0  0  0  0  0  0  0
    8.2031  -16.5652   20.2172 C   0  0  0  0  0  0  0  0  0  0  0  0
    9.2984  -17.0396   19.7795 O   0  0  0  0  0  0  0  0  0  0  0  0
    8.2267  -15.3389   20.9307 N   0  0  0  0  0  0  0  0  0  0  0  0
    7.1299  -14.5686   21.4721 C   0  0  0  0  0  0  0  0  0  0  0  0
    7.6978  -13.1785   21.7880 C   0  0  0  0  0  0  0  0  0  0  0  0
    9.0099  -13.1723   20.9829 C   0  0  0  0  0  0  0  0  0  0  0  0
    9.4380  -14.6216   21.2562 C   0  0  1  0  0  0  0  0  0  0  0  0
    9.7343  -14.6630   22.7197 C   0  0  0  0  0  0  0  0  0  0  0  0
   10.0826  -13.6500   23.3771 O   0  0  0  0  0  0  0  0  0  0  0  0
    9.6266  -15.8709   23.4120 N   0  0  0  0  0  0  0  0  0  0  0  0
   10.0002  -16.1337   24.7718 C   0  0  1  0  0  0  0  0  0  0  0  0
    9.5204  -15.1828   25.7755 C   0  0  0  0  0  0  0  0  0  0  0  0
    8.0854  -14.8426   25.6688 C   0  0  0  0  0  0  0  0  0  0  0  0
    7.1130  -15.7474   25.2136 C   0  0  0  0  0  0  0  0  0  0  0  0
    5.9044  -15.1859   25.2544 N   0  0  0  0  0  0  0  0  0  0  0  0
    5.9972  -13.9391   25.7149 C   0  0  0  0  0  0  0  0  0  0  0  0
    5.0754  -12.9344   25.9458 C   0  0  0  0  0  0  0  0  0  0  0  0
    5.4717  -11.7175   26.4267 C   0  0  0  0  0  0  0  0  0  0  0  0
    6.7981  -11.4969   26.6805 C   0  0  0  0  0  0  0  0  0  0  0  0
    7.7111  -12.4943   26.4513 C   0  0  0  0  0  0  0  0  0  0  0  0
    7.3550  -13.7268   25.9716 C   0  0  0  0  0  0  0  0  0  0  0  0
    9.7945  -17.5313   25.1394 C   0  0  0  0  0  0  0  0  0  0  0  0
   10.2188  -17.9903   26.2313 O   0  0  0  0  0  0  0  0  0  0  0  0
    9.1228  -18.4397   24.3165 O   0  0  0  0  0  0  0  0  0  0  0  0
  2  1  1  6
  3  2  1  0
  4  3  1  0
  5  4  1  0
  5  6  1  0
  6  7  1  0
  8  2  1  0
  9  8  2  0
 10  8  1  0
 10 11  1  0
 12 11  1  0
 13 12  1  0
 14 13  1  0
 14 10  1  0
 14 15  1  1
 15 16  2  0
 17 15  1  0
 18 29  1  0
 18 17  1  0
 18 19  1  1
 20 19  1  0
 20 21  2  0
 22 21  1  0
 23 22  1  0
 24 23  2  0
 25 24  1  0
 26 25  2  0
 26 27  1  0
 27 28  2  0
 28 23  1  0
 28 20  1  0
 29 31  1  0
 30 29  2  0
M  END
$$$$
