KPW.pdb
     RDKit          3D

 31 33  0  0  1  0  0  0  0  0999 V2000
    8.8519  -18.2816   18.1002 N   0  0  0  0  0  0  0  0  0  0  0  0
    8.0723  -17.5020   19.0011 C   0  0  1  0  0  0  0  0  0  0  0  0
    7.3127  -18.3822   19.9537 C   0  0  0  0  0  0  0  0  0  0  0  0
    6.6466  -19.5391   19.2920 C   0  0  0  0  0  0  0  0  0  0  0  0
    5.7735  -20.3524   20.2141 C   0  0  0  0  0  0  0  0  0  0  0  0
    5.1318  -21.5236   19.5506 C   0  0  0  0  0  0  0  0  0  0  0  0
    6.0885  -22.4271   18.9376 N   0  0  0  0  0  0  0  0  0  0  0  0
    8.9075  -16.5174   19.7597 C   0  0  0  0  0  0  0  0  0  0  0  0
   10.1642  -16.7005   19.8190 O   0  0  0  0  0  0  0  0  0  0  0  0
    8.3500  -15.3890   20.4150 N   0  0  0  0  0  0  0  0  0  0  0  0
    6.9687  -14.9766   20.5215 C   0  0  0  0  0  0  0  0  0  0  0  0
    6.9928  -13.5170   20.9941 C   0  0  0  0  0  0  0  0  0  0  0  0
    8.4474  -13.1048   20.7040 C   0  0  0  0  0  0  0  0  0  0  0  0
    9.1319  -14.4102   21.1350 C   0  0  1  0  0  0  0  0  0  0  0  0
    8.9061  -14.4912   22.6094 C   0  0  0  0  0  0  0  0  0  0  0  0
    8.4844  -13.5240   23.2921 O   0  0  0  0  0  0  0  0  0  0  0  0
    9.1684  -15.6859   23.2833 N   0  0  0  0  0  0  0  0  0  0  0  0
    9.8547  -15.8508   24.5321 C   0  0  1  0  0  0  0  0  0  0  0  0
    9.0169  -16.0489   25.7156 C   0  0  0  0  0  0  0  0  0  0  0  0
    7.8360  -15.1624   25.7927 C   0  0  0  0  0  0  0  0  0  0  0  0
    6.5254  -15.6059   25.5533 C   0  0  0  0  0  0  0  0  0  0  0  0
    5.6606  -14.6059   25.7264 N   0  0  0  0  0  0  0  0  0  0  0  0
    6.3114  -13.4961   26.0726 C   0  0  0  0  0  0  0  0  0  0  0  0
    5.9118  -12.2033   26.3580 C   0  0  0  0  0  0  0  0  0  0  0  0
    6.8286  -11.2425   26.6826 C   0  0  0  0  0  0  0  0  0  0  0  0
    8.1565  -11.5702   26.7238 C   0  0  0  0  0  0  0  0  0  0  0  0
    8.5514  -12.8527   26.4409 C   0  0  0  0  0  0  0  0  0  0  0  0
    7.6650  -13.8439   26.1128 C   0  0  0  0  0  0  0  0  0  0  0  0
   10.9634  -16.7948   24.4311 C   0  0  0  0  0  0  0  0  0  0  0  0
   11.0809  -17.5633   23.4418 O   0  0  0  0  0  0  0  0  0  0  0  0
   11.9540  -16.9070   25.4108 O   0  0  0  0  0  0  0  0  0  0  0  0
  2  1  1  1
  3  2  1  0
  4  3  1  0
  5  4  1  0
  5  6  1  0
  6  7  1  0
  8  2  1  0
  9  8  2  0
 10  8  1  0
 10 11  1  0
 12 11  1  0
 13 12  1  0
 14 13  1  0
 14 10  1  0
 14 15  1  1
 15 16  2  0
 17 15  1  0
 18 29  1  0
 18 17  1  0
 18 19  1  1
 20 19  1  0
 20 21  2  0
 22 21  1  0
 23 22  1  0
 24 23  2  0
 25 24  1  0
 26 25  2  0
 26 27  1  0
 27 28  2  0
 28 23  1  0
 28 20  1  0
 29 31  1  0
 30 29  2  0
M  END
$$$$
