KPW.pdb
     RDKit          3D

 31 33  0  0  1  0  0  0  0  0999 V2000
    5.4841  -17.6073   20.8571 N   0  0  0  0  0  0  0  0  0  0  0  0
    6.7152  -16.8980   20.9491 C   0  0  1  0  0  0  0  0  0  0  0  0
    6.4752  -15.4188   21.0635 C   0  0  0  0  0  0  0  0  0  0  0  0
    7.7201  -14.6053   20.9710 C   0  0  0  0  0  0  0  0  0  0  0  0
    7.5296  -13.2687   20.2993 C   0  0  0  0  0  0  0  0  0  0  0  0
    8.7876  -12.4775   20.1756 C   0  0  0  0  0  0  0  0  0  0  0  0
    8.6259  -11.2676   19.3900 N   0  0  0  0  0  0  0  0  0  0  0  0
    7.5551  -17.3764   22.0929 C   0  0  0  0  0  0  0  0  0  0  0  0
    7.0116  -18.0926   22.9918 O   0  0  0  0  0  0  0  0  0  0  0  0
    8.9333  -17.0605   22.2119 N   0  0  0  0  0  0  0  0  0  0  0  0
    9.7290  -16.1170   21.4596 C   0  0  0  0  0  0  0  0  0  0  0  0
   11.1949  -16.4685   21.7463 C   0  0  0  0  0  0  0  0  0  0  0  0
   11.0808  -17.8878   22.3315 C   0  0  0  0  0  0  0  0  0  0  0  0
    9.8175  -17.6718   23.1775 C   0  0  1  0  0  0  0  0  0  0  0  0
   10.2308  -16.7095   24.2426 C   0  0  0  0  0  0  0  0  0  0  0  0
   10.8967  -15.6701   24.0060 O   0  0  0  0  0  0  0  0  0  0  0  0
    9.8732  -16.9537   25.5702 N   0  0  0  0  0  0  0  0  0  0  0  0
   10.4101  -16.3332   26.7468 C   0  0  1  0  0  0  0  0  0  0  0  0
    9.4680  -15.5779   27.5737 C   0  0  0  0  0  0  0  0  0  0  0  0
    8.2805  -15.0715   26.8525 C   0  0  0  0  0  0  0  0  0  0  0  0
    7.2595  -15.9070   26.3718 C   0  0  0  0  0  0  0  0  0  0  0  0
    6.3011  -15.1806   25.7960 N   0  0  0  0  0  0  0  0  0  0  0  0
    6.6124  -13.8866   25.8564 C   0  0  0  0  0  0  0  0  0  0  0  0
    5.9897  -12.7322   25.4178 C   0  0  0  0  0  0  0  0  0  0  0  0
    6.5648  -11.5079   25.6161 C   0  0  0  0  0  0  0  0  0  0  0  0
    7.7714  -11.4301   26.2567 C   0  0  0  0  0  0  0  0  0  0  0  0
    8.3876  -12.5757   26.6912 C   0  0  0  0  0  0  0  0  0  0  0  0
    7.8446  -13.8204   26.5135 C   0  0  0  0  0  0  0  0  0  0  0  0
   11.2643  -17.2403   27.5072 C   0  0  0  0  0  0  0  0  0  0  0  0
   11.9423  -16.8346   28.4863 O   0  0  0  0  0  0  0  0  0  0  0  0
   11.3848  -18.5994   27.2039 O   0  0  0  0  0  0  0  0  0  0  0  0
  2  1  1  1
  3  2  1  0
  4  3  1  0
  5  4  1  0
  5  6  1  0
  6  7  1  0
  8  2  1  0
  9  8  2  0
 10  8  1  0
 10 11  1  0
 12 11  1  0
 13 12  1  0
 14 13  1  0
 14 10  1  0
 14 15  1  1
 15 16  2  0
 17 15  1  0
 18 29  1  0
 18 17  1  0
 18 19  1  1
 20 19  1  0
 20 21  2  0
 22 21  1  0
 23 22  1  0
 24 23  2  0
 25 24  1  0
 26 25  2  0
 26 27  1  0
 27 28  2  0
 28 23  1  0
 28 20  1  0
 29 31  1  0
 30 29  2  0
M  END
$$$$
