KPW.pdb
     RDKit          3D

 31 33  0  0  1  0  0  0  0  0999 V2000
    6.5125  -19.0555   19.5758 N   0  0  0  0  0  0  0  0  0  0  0  0
    6.4897  -17.9045   20.4136 C   0  0  1  0  0  0  0  0  0  0  0  0
    6.0157  -18.2561   21.7959 C   0  0  0  0  0  0  0  0  0  0  0  0
    6.7638  -19.3883   22.4112 C   0  0  0  0  0  0  0  0  0  0  0  0
    6.2358  -19.8104   23.7592 C   0  0  0  0  0  0  0  0  0  0  0  0
    7.0677  -20.8523   24.4272 C   0  0  0  0  0  0  0  0  0  0  0  0
    7.9707  -20.3082   25.4251 N   0  0  0  0  0  0  0  0  0  0  0  0
    7.8258  -17.2314   20.4799 C   0  0  0  0  0  0  0  0  0  0  0  0
    8.8429  -17.8475   20.0301 O   0  0  0  0  0  0  0  0  0  0  0  0
    7.9999  -15.9332   21.0257 N   0  0  0  0  0  0  0  0  0  0  0  0
    7.0484  -15.0888   21.7120 C   0  0  0  0  0  0  0  0  0  0  0  0
    7.6600  -13.6817   21.7306 C   0  0  0  0  0  0  0  0  0  0  0  0
    8.7535  -13.7878   20.6522 C   0  0  0  0  0  0  0  0  0  0  0  0
    9.2466  -15.2040   20.9831 C   0  0  1  0  0  0  0  0  0  0  0  0
    9.8697  -15.0855   22.3354 C   0  0  0  0  0  0  0  0  0  0  0  0
   10.5385  -14.0844   22.6963 O   0  0  0  0  0  0  0  0  0  0  0  0
    9.7164  -16.1213   23.2593 N   0  0  0  0  0  0  0  0  0  0  0  0
   10.2419  -16.1864   24.5925 C   0  0  1  0  0  0  0  0  0  0  0  0
    9.8928  -15.0812   25.4860 C   0  0  0  0  0  0  0  0  0  0  0  0
    8.4430  -14.9113   25.7221 C   0  0  0  0  0  0  0  0  0  0  0  0
    7.5247  -15.9715   25.6575 C   0  0  0  0  0  0  0  0  0  0  0  0
    6.2975  -15.5379   25.9471 N   0  0  0  0  0  0  0  0  0  0  0  0
    6.3261  -14.2316   26.2075 C   0  0  0  0  0  0  0  0  0  0  0  0
    5.3590  -13.3033   26.5475 C   0  0  0  0  0  0  0  0  0  0  0  0
    5.6877  -11.9919   26.7506 C   0  0  0  0  0  0  0  0  0  0  0  0
    6.9914  -11.5991   26.6141 C   0  0  0  0  0  0  0  0  0  0  0  0
    7.9494  -12.5207   26.2771 C   0  0  0  0  0  0  0  0  0  0  0  0
    7.6617  -13.8431   26.0664 C   0  0  0  0  0  0  0  0  0  0  0  0
   10.0641  -17.5058   25.1911 C   0  0  0  0  0  0  0  0  0  0  0  0
    9.2446  -18.3346   24.7172 O   0  0  0  0  0  0  0  0  0  0  0  0
   10.7809  -17.9310   26.3131 O   0  0  0  0  0  0  0  0  0  0  0  0
  2  1  1  6
  3  2  1  0
  4  3  1  0
  5  4  1  0
  5  6  1  0
  6  7  1  0
  8  2  1  0
  9  8  2  0
 10  8  1  0
 10 11  1  0
 12 11  1  0
 13 12  1  0
 14 13  1  0
 14 10  1  0
 14 15  1  1
 15 16  2  0
 17 15  1  0
 18 29  1  0
 18 17  1  0
 18 19  1  1
 20 19  1  0
 20 21  2  0
 22 21  1  0
 23 22  1  0
 24 23  2  0
 25 24  1  0
 26 25  2  0
 26 27  1  0
 27 28  2  0
 28 23  1  0
 28 20  1  0
 29 31  1  0
 30 29  2  0
M  END
$$$$
