KPW.pdb
     RDKit          3D

 31 33  0  0  1  0  0  0  0  0999 V2000
    5.7607  -16.7868   19.2113 N   0  0  0  0  0  0  0  0  0  0  0  0
    7.1021  -17.0086   19.6335 C   0  0  1  0  0  0  0  0  0  0  0  0
    8.0088  -15.9181   19.1357 C   0  0  0  0  0  0  0  0  0  0  0  0
    7.6234  -14.5602   19.6127 C   0  0  0  0  0  0  0  0  0  0  0  0
    8.5036  -13.4540   19.0876 C   0  0  0  0  0  0  0  0  0  0  0  0
    8.0857  -12.0944   19.5354 C   0  0  0  0  0  0  0  0  0  0  0  0
    8.9583  -11.0405   19.0504 N   0  0  0  0  0  0  0  0  0  0  0  0
    7.2095  -17.1320   21.1220 C   0  0  0  0  0  0  0  0  0  0  0  0
    6.3606  -16.5246   21.8479 O   0  0  0  0  0  0  0  0  0  0  0  0
    8.2222  -17.9000   21.7530 N   0  0  0  0  0  0  0  0  0  0  0  0
    9.4208  -18.4805   21.1910 C   0  0  0  0  0  0  0  0  0  0  0  0
    9.9244  -19.5021   22.2192 C   0  0  0  0  0  0  0  0  0  0  0  0
    8.6875  -19.7006   23.1138 C   0  0  0  0  0  0  0  0  0  0  0  0
    8.2157  -18.2398   23.1573 C   0  0  1  0  0  0  0  0  0  0  0  0
    9.2830  -17.5160   23.9111 C   0  0  0  0  0  0  0  0  0  0  0  0
   10.4041  -17.2389   23.4152 O   0  0  0  0  0  0  0  0  0  0  0  0
    9.0486  -17.1182   25.2290 N   0  0  0  0  0  0  0  0  0  0  0  0
    9.9730  -16.4906   26.1286 C   0  0  1  0  0  0  0  0  0  0  0  0
    9.4806  -15.3224   26.8598 C   0  0  0  0  0  0  0  0  0  0  0  0
    8.1321  -14.8660   26.4601 C   0  0  0  0  0  0  0  0  0  0  0  0
    7.1124  -15.7430   26.0569 C   0  0  0  0  0  0  0  0  0  0  0  0
    5.9974  -15.0627   25.7890 N   0  0  0  0  0  0  0  0  0  0  0  0
    6.1996  -13.7609   25.9875 C   0  0  0  0  0  0  0  0  0  0  0  0
    5.4024  -12.6386   25.8556 C   0  0  0  0  0  0  0  0  0  0  0  0
    5.8959  -11.3931   26.1278 C   0  0  0  0  0  0  0  0  0  0  0  0
    7.1955  -11.2617   26.5353 C   0  0  0  0  0  0  0  0  0  0  0  0
    7.9850  -12.3755   26.6660 C   0  0  0  0  0  0  0  0  0  0  0  0
    7.5287  -13.6401   26.4044 C   0  0  0  0  0  0  0  0  0  0  0  0
   10.6690  -17.4604   26.9687 C   0  0  0  0  0  0  0  0  0  0  0  0
   10.2396  -18.6350   27.1059 O   0  0  0  0  0  0  0  0  0  0  0  0
   11.8410  -17.1547   27.6662 O   0  0  0  0  0  0  0  0  0  0  0  0
  2  1  1  1
  3  2  1  0
  4  3  1  0
  5  4  1  0
  5  6  1  0
  6  7  1  0
  8  2  1  0
  9  8  2  0
 10  8  1  0
 10 11  1  0
 12 11  1  0
 13 12  1  0
 14 13  1  0
 14 10  1  0
 14 15  1  1
 15 16  2  0
 17 15  1  0
 18 29  1  0
 18 17  1  0
 18 19  1  1
 20 19  1  0
 20 21  2  0
 22 21  1  0
 23 22  1  0
 24 23  2  0
 25 24  1  0
 26 25  2  0
 26 27  1  0
 27 28  2  0
 28 23  1  0
 28 20  1  0
 29 31  1  0
 30 29  2  0
M  END
$$$$
