KPW.pdb
     RDKit          3D

 31 33  0  0  1  0  0  0  0  0999 V2000
    9.2763  -18.1371   17.9657 N   0  0  0  0  0  0  0  0  0  0  0  0
    8.4046  -17.2144   18.6105 C   0  0  1  0  0  0  0  0  0  0  0  0
    7.1593  -17.9018   19.0960 C   0  0  0  0  0  0  0  0  0  0  0  0
    7.0768  -19.3348   18.6965 C   0  0  0  0  0  0  0  0  0  0  0  0
    7.6772  -20.2861   19.7007 C   0  0  0  0  0  0  0  0  0  0  0  0
    7.4107  -21.7217   19.3975 C   0  0  0  0  0  0  0  0  0  0  0  0
    8.0511  -22.6306   20.3308 N   0  0  0  0  0  0  0  0  0  0  0  0
    9.0781  -16.5026   19.7428 C   0  0  0  0  0  0  0  0  0  0  0  0
   10.2486  -16.8650   20.0819 O   0  0  0  0  0  0  0  0  0  0  0  0
    8.4600  -15.4401   20.4517 N   0  0  0  0  0  0  0  0  0  0  0  0
    7.1327  -14.8866   20.3058 C   0  0  0  0  0  0  0  0  0  0  0  0
    7.1469  -13.5402   21.0416 C   0  0  0  0  0  0  0  0  0  0  0  0
    8.6544  -13.2651   21.1880 C   0  0  0  0  0  0  0  0  0  0  0  0
    9.1051  -14.6974   21.5100 C   0  0  1  0  0  0  0  0  0  0  0  0
    8.5061  -14.9953   22.8455 C   0  0  0  0  0  0  0  0  0  0  0  0
    7.5465  -14.3419   23.3272 O   0  0  0  0  0  0  0  0  0  0  0  0
    9.0182  -16.0431   23.6137 N   0  0  0  0  0  0  0  0  0  0  0  0
    9.9097  -15.9495   24.7335 C   0  0  1  0  0  0  0  0  0  0  0  0
    9.3314  -15.4706   25.9896 C   0  0  0  0  0  0  0  0  0  0  0  0
    7.9730  -14.8994   25.8668 C   0  0  0  0  0  0  0  0  0  0  0  0
    6.8677  -15.6367   25.4126 C   0  0  0  0  0  0  0  0  0  0  0  0
    5.7682  -14.8829   25.4370 N   0  0  0  0  0  0  0  0  0  0  0  0
    6.0624  -13.6632   25.8851 C   0  0  0  0  0  0  0  0  0  0  0  0
    5.3176  -12.5175   26.0974 C   0  0  0  0  0  0  0  0  0  0  0  0
    5.9060  -11.3771   26.5690 C   0  0  0  0  0  0  0  0  0  0  0  0
    7.2489  -11.3755   26.8321 C   0  0  0  0  0  0  0  0  0  0  0  0
    7.9862  -12.5126   26.6213 C   0  0  0  0  0  0  0  0  0  0  0  0
    7.4348  -13.6749   26.1515 C   0  0  0  0  0  0  0  0  0  0  0  0
   10.7339  -17.1450   24.8830 C   0  0  0  0  0  0  0  0  0  0  0  0
   10.4949  -18.1913   24.2263 O   0  0  0  0  0  0  0  0  0  0  0  0
   11.8270  -17.2072   25.7518 O   0  0  0  0  0  0  0  0  0  0  0  0
  2  1  1  1
  3  2  1  0
  4  3  1  0
  5  4  1  0
  5  6  1  0
  6  7  1  0
  8  2  1  0
  9  8  2  0
 10  8  1  0
 10 11  1  0
 12 11  1  0
 13 12  1  0
 14 13  1  0
 14 10  1  0
 14 15  1  1
 15 16  2  0
 17 15  1  0
 18 29  1  0
 18 17  1  0
 18 19  1  1
 20 19  1  0
 20 21  2  0
 22 21  1  0
 23 22  1  0
 24 23  2  0
 25 24  1  0
 26 25  2  0
 26 27  1  0
 27 28  2  0
 28 23  1  0
 28 20  1  0
 29 31  1  0
 30 29  2  0
M  END
$$$$
