RHG.pdb
     RDKit          3D

 26 26  0  0  1  0  0  0  0  0999 V2000
   27.6422  -30.9086  -18.2035 N   0  0  0  0  0  0  0  0  0  0  0  0
   28.1469  -30.7530  -16.8533 C   0  0  0  0  0  0  0  0  0  0  0  0
   28.6721  -31.7552  -16.2468 N   0  0  0  0  0  0  0  0  0  0  0  0
   28.0714  -29.5131  -16.1860 N   0  0  0  0  0  0  0  0  0  0  0  0
   27.6777  -28.2922  -16.8510 C   0  0  0  0  0  0  0  0  0  0  0  0
   28.9078  -27.7278  -17.5355 C   0  0  0  0  0  0  0  0  0  0  0  0
   28.4746  -26.4227  -18.1644 C   0  0  0  0  0  0  0  0  0  0  0  0
   29.3327  -25.2507  -17.7614 C   0  0  2  0  0  0  0  0  0  0  0  0
   30.5472  -25.6390  -17.1117 N   0  0  0  0  0  0  0  0  0  0  0  0
   28.4918  -24.3770  -16.9021 C   0  0  0  0  0  0  0  0  0  0  0  0
   28.9969  -23.9688  -15.8288 O   0  0  0  0  0  0  0  0  0  0  0  0
   29.0105  -31.6787  -15.2715 N   0  0  0  0  0  0  0  0  0  0  0  0
   27.1898  -24.0114  -17.2533 C   0  0  1  0  0  0  0  0  0  0  0  0
   26.3433  -23.1522  -16.4241 C   0  0  0  0  0  0  0  0  0  0  0  0
   25.8942  -21.9941  -17.2557 C   0  0  0  0  0  0  0  0  0  0  0  0
   26.9151  -20.9209  -17.3394 C   0  0  0  0  0  0  0  0  0  0  0  0
   28.1331  -20.8862  -16.6961 N   0  0  0  0  0  0  0  0  0  0  0  0
   28.7502  -19.7474  -17.0367 C   0  0  0  0  0  0  0  0  0  0  0  0
   27.9659  -19.0548  -17.8758 N   0  0  0  0  0  0  0  0  0  0  0  0
   26.8491  -19.7878  -18.0488 C   0  0  0  0  0  0  0  0  0  0  0  0
   25.2428  -23.9793  -15.8806 O   0  0  0  0  0  0  0  0  0  0  0  0
   24.6324  -24.7482  -16.6643 N   0  0  0  0  0  0  0  0  0  0  0  0
   24.8384  -23.9518  -14.5224 C   0  0  0  0  0  0  0  0  0  0  0  0
   23.7770  -24.7630  -13.9756 C   0  0  0  0  0  0  0  0  0  0  0  0
   22.4773  -24.2073  -14.3902 O   0  0  0  0  0  0  0  0  0  0  0  0
   22.4348  -23.2010  -15.1353 O   0  0  0  0  0  0  0  0  0  0  0  0
  2  3  2  0
  2  1  1  0
  4  2  1  0
  5  4  1  0
  6  5  1  0
  7  8  1  0
  7  6  1  0
  8 10  1  0
  8  9  1  1
 10 11  2  0
 12 10  1  0
 12 13  1  0
 13 20  1  0
 13 14  1  1
 15 14  1  0
 16 15  2  0
 17 18  1  0
 17 16  1  0
 18 19  2  0
 19 15  1  0
 20 21  2  0
 22 23  1  0
 22 20  1  0
 24 23  1  0
 25 24  2  0
 26 24  1  0
M  END
$$$$
