RHG.pdb
     RDKit          3D

 26 26  0  0  1  0  0  0  0  0999 V2000
   42.9191  -18.2016   -7.0860 N   0  0  0  0  0  0  0  0  0  0  0  0
   43.4151  -19.5632   -7.1307 C   0  0  0  0  0  0  0  0  0  0  0  0
   42.9996  -20.4243   -6.2740 N   0  0  0  0  0  0  0  0  0  0  0  0
   44.3536  -19.9648   -8.1034 N   0  0  0  0  0  0  0  0  0  0  0  0
   44.7768  -19.1014   -9.1820 C   0  0  0  0  0  0  0  0  0  0  0  0
   44.0744  -19.5676  -10.4428 C   0  0  0  0  0  0  0  0  0  0  0  0
   44.5211  -18.6299  -11.5416 C   0  0  0  0  0  0  0  0  0  0  0  0
   43.8955  -18.9342  -12.8788 C   0  0  2  0  0  0  0  0  0  0  0  0
   44.3899  -20.1398  -13.4707 N   0  0  0  0  0  0  0  0  0  0  0  0
   44.1297  -17.7483  -13.7434 C   0  0  0  0  0  0  0  0  0  0  0  0
   45.0205  -17.8441  -14.6216 O   0  0  0  0  0  0  0  0  0  0  0  0
   43.4048  -21.3755   -6.2251 N   0  0  0  0  0  0  0  0  0  0  0  0
   43.4011  -16.5643  -13.6036 C   0  0  2  0  0  0  0  0  0  0  0  0
   43.6101  -15.3858  -14.4461 C   0  0  0  0  0  0  0  0  0  0  0  0
   42.2892  -14.9746  -15.0123 C   0  0  0  0  0  0  0  0  0  0  0  0
   41.8693  -15.8210  -16.1561 C   0  0  0  0  0  0  0  0  0  0  0  0
   40.6408  -16.4187  -16.3353 N   0  0  0  0  0  0  0  0  0  0  0  0
   40.6725  -17.0941  -17.4915 C   0  0  0  0  0  0  0  0  0  0  0  0
   41.8806  -16.9469  -18.0552 N   0  0  0  0  0  0  0  0  0  0  0  0
   42.5979  -16.1659  -17.2246 C   0  0  0  0  0  0  0  0  0  0  0  0
   44.2752  -14.3481  -13.6267 O   0  0  0  0  0  0  0  0  0  0  0  0
   44.4660  -13.2168  -14.1383 N   0  0  0  0  0  0  0  0  0  0  0  0
   44.7097  -14.5603  -12.2944 C   0  0  0  0  0  0  0  0  0  0  0  0
   45.3982  -13.5722  -11.4988 C   0  0  0  0  0  0  0  0  0  0  0  0
   46.8497  -13.6970  -11.7175 O   0  0  0  0  0  0  0  0  0  0  0  0
   47.2864  -14.4743  -12.5977 O   0  0  0  0  0  0  0  0  0  0  0  0
  2  3  2  0
  2  1  1  0
  4  2  1  0
  5  4  1  0
  6  5  1  0
  7  8  1  0
  7  6  1  0
  8 10  1  0
  8  9  1  6
 10 11  2  0
 12 10  1  0
 12 13  1  0
 13 20  1  0
 13 14  1  6
 15 14  1  0
 16 15  2  0
 17 18  1  0
 17 16  1  0
 18 19  2  0
 19 15  1  0
 20 21  2  0
 22 23  1  0
 22 20  1  0
 24 23  1  0
 25 24  2  0
 26 24  1  0
M  END
$$$$
