RHG.pdb
     RDKit          3D

 26 26  0  0  1  0  0  0  0  0999 V2000
   17.1237  -11.3693  -18.7671 N   0  0  0  0  0  0  0  0  0  0  0  0
   18.3671  -10.6350  -18.6385 C   0  0  0  0  0  0  0  0  0  0  0  0
   18.3561   -9.3513  -18.6442 N   0  0  0  0  0  0  0  0  0  0  0  0
   19.5997  -11.3074  -18.5073 N   0  0  0  0  0  0  0  0  0  0  0  0
   19.6933  -12.7408  -18.3509 C   0  0  0  0  0  0  0  0  0  0  0  0
   21.1633  -13.1106  -18.4014 C   0  0  0  0  0  0  0  0  0  0  0  0
   21.2303  -14.5967  -18.1298 C   0  0  0  0  0  0  0  0  0  0  0  0
   22.6360  -15.1081  -17.9443 C   0  0  2  0  0  0  0  0  0  0  0  0
   23.4593  -14.9246  -19.1005 N   0  0  0  0  0  0  0  0  0  0  0  0
   22.5259  -16.5385  -17.5560 C   0  0  0  0  0  0  0  0  0  0  0  0
   22.5414  -17.3876  -18.4794 O   0  0  0  0  0  0  0  0  0  0  0  0
   19.2165   -8.8036  -18.4677 N   0  0  0  0  0  0  0  0  0  0  0  0
   22.4088  -16.9459  -16.2247 C   0  0  2  0  0  0  0  0  0  0  0  0
   22.4027  -18.3494  -15.8096 C   0  0  0  0  0  0  0  0  0  0  0  0
   23.5601  -18.5709  -14.8899 C   0  0  0  0  0  0  0  0  0  0  0  0
   24.8677  -18.3369  -15.5504 C   0  0  0  0  0  0  0  0  0  0  0  0
   25.4732  -19.1390  -16.4931 N   0  0  0  0  0  0  0  0  0  0  0  0
   26.6397  -18.5744  -16.8310 C   0  0  0  0  0  0  0  0  0  0  0  0
   26.7981  -17.4389  -16.1349 N   0  0  0  0  0  0  0  0  0  0  0  0
   25.7052  -17.3107  -15.3579 C   0  0  0  0  0  0  0  0  0  0  0  0
   21.0809  -18.6458  -15.2131 O   0  0  0  0  0  0  0  0  0  0  0  0
   20.6242  -17.8526  -14.3528 N   0  0  0  0  0  0  0  0  0  0  0  0
   20.3005  -19.7772  -15.5592 C   0  0  0  0  0  0  0  0  0  0  0  0
   18.9358  -19.9815  -15.1358 C   0  0  0  0  0  0  0  0  0  0  0  0
   18.9289  -20.6040  -13.8007 O   0  0  0  0  0  0  0  0  0  0  0  0
   20.0100  -20.8355  -13.2114 O   0  0  0  0  0  0  0  0  0  0  0  0
  2  3  2  0
  2  1  1  0
  4  2  1  0
  5  4  1  0
  6  5  1  0
  7  8  1  0
  7  6  1  0
  8 10  1  0
  8  9  1  6
 10 11  2  0
 12 10  1  0
 12 13  1  0
 13 20  1  0
 13 14  1  6
 15 14  1  0
 16 15  2  0
 17 18  1  0
 17 16  1  0
 18 19  2  0
 19 15  1  0
 20 21  2  0
 22 23  1  0
 22 20  1  0
 24 23  1  0
 25 24  2  0
 26 24  1  0
M  END
$$$$
