RHG.pdb
     RDKit          3D

 26 26  0  0  1  0  0  0  0  0999 V2000
   20.5317  -17.0791  -14.8597 N   0  0  0  0  0  0  0  0  0  0  0  0
   20.6578  -17.2410  -16.2948 C   0  0  0  0  0  0  0  0  0  0  0  0
   20.5647  -18.4097  -16.8179 N   0  0  0  0  0  0  0  0  0  0  0  0
   20.8837  -16.1319  -17.1358 N   0  0  0  0  0  0  0  0  0  0  0  0
   21.9141  -15.1529  -16.8756 C   0  0  0  0  0  0  0  0  0  0  0  0
   21.3650  -14.1712  -15.8582 C   0  0  0  0  0  0  0  0  0  0  0  0
   21.8005  -12.7998  -16.3231 C   0  0  0  0  0  0  0  0  0  0  0  0
   21.0863  -12.3350  -17.5665 C   0  0  2  0  0  0  0  0  0  0  0  0
   21.5810  -12.9464  -18.7621 N   0  0  0  0  0  0  0  0  0  0  0  0
   21.2059  -10.8541  -17.6034 C   0  0  0  0  0  0  0  0  0  0  0  0
   22.2648  -10.3745  -18.0753 O   0  0  0  0  0  0  0  0  0  0  0  0
   20.6203  -18.5484  -17.8421 N   0  0  0  0  0  0  0  0  0  0  0  0
   20.1948  -10.0095  -17.1378 C   0  0  1  0  0  0  0  0  0  0  0  0
   20.2666   -8.5496  -17.2135 C   0  0  0  0  0  0  0  0  0  0  0  0
   19.0975   -8.0638  -18.0084 C   0  0  0  0  0  0  0  0  0  0  0  0
   19.2186   -8.3782  -19.4532 C   0  0  0  0  0  0  0  0  0  0  0  0
   20.3766   -8.4050  -20.1994 N   0  0  0  0  0  0  0  0  0  0  0  0
   20.0524   -8.7301  -21.4575 C   0  0  0  0  0  0  0  0  0  0  0  0
   18.7259   -8.9115  -21.5382 N   0  0  0  0  0  0  0  0  0  0  0  0
   18.2338   -8.6921  -20.3036 C   0  0  0  0  0  0  0  0  0  0  0  0
   20.3305   -8.0211  -15.8325 O   0  0  0  0  0  0  0  0  0  0  0  0
   19.3642   -8.2480  -15.0625 N   0  0  0  0  0  0  0  0  0  0  0  0
   21.4232   -7.2715  -15.3297 C   0  0  0  0  0  0  0  0  0  0  0  0
   21.5405   -6.8266  -13.9615 C   0  0  0  0  0  0  0  0  0  0  0  0
   21.7492   -7.9935  -13.0869 O   0  0  0  0  0  0  0  0  0  0  0  0
   21.6940   -9.1512  -13.5626 O   0  0  0  0  0  0  0  0  0  0  0  0
  2  3  2  0
  2  1  1  0
  4  2  1  0
  5  4  1  0
  6  5  1  0
  7  8  1  0
  7  6  1  0
  8 10  1  0
  8  9  1  6
 10 11  2  0
 12 10  1  0
 12 13  1  0
 13 20  1  0
 13 14  1  6
 15 14  1  0
 16 15  2  0
 17 18  1  0
 17 16  1  0
 18 19  2  0
 19 15  1  0
 20 21  2  0
 22 23  1  0
 22 20  1  0
 24 23  1  0
 25 24  2  0
 26 24  1  0
M  END
$$$$
