RHG.pdb
     RDKit          3D

 26 26  0  0  1  0  0  0  0  0999 V2000
   25.6578  -25.5311  -15.7361 N   0  0  0  0  0  0  0  0  0  0  0  0
   25.4686  -25.4065  -17.1681 C   0  0  0  0  0  0  0  0  0  0  0  0
   25.1048  -26.4269  -17.8569 N   0  0  0  0  0  0  0  0  0  0  0  0
   25.6786  -24.1772  -17.8262 N   0  0  0  0  0  0  0  0  0  0  0  0
   25.7980  -22.9236  -17.1175 C   0  0  0  0  0  0  0  0  0  0  0  0
   24.3957  -22.4542  -16.7805 C   0  0  0  0  0  0  0  0  0  0  0  0
   24.5529  -21.0938  -16.1394 C   0  0  0  0  0  0  0  0  0  0  0  0
   25.0029  -21.1582  -14.7022 C   0  0  2  0  0  0  0  0  0  0  0  0
   26.0531  -22.1054  -14.4828 N   0  0  0  0  0  0  0  0  0  0  0  0
   23.7974  -21.4591  -13.8868 C   0  0  0  0  0  0  0  0  0  0  0  0
   23.4664  -22.6638  -13.7730 O   0  0  0  0  0  0  0  0  0  0  0  0
   24.9234  -26.3547  -18.8735 N   0  0  0  0  0  0  0  0  0  0  0  0
   23.0470  -20.4591  -13.2628 C   0  0  1  0  0  0  0  0  0  0  0  0
   21.8735  -20.7329  -12.4321 C   0  0  0  0  0  0  0  0  0  0  0  0
   22.2746  -20.6040  -10.9978 C   0  0  0  0  0  0  0  0  0  0  0  0
   23.7341  -20.7764  -10.7950 C   0  0  0  0  0  0  0  0  0  0  0  0
   24.6905  -20.9457  -11.7723 N   0  0  0  0  0  0  0  0  0  0  0  0
   25.8814  -21.0661  -11.1714 C   0  0  0  0  0  0  0  0  0  0  0  0
   25.7159  -20.9793   -9.8432 N   0  0  0  0  0  0  0  0  0  0  0  0
   24.3972  -20.8024   -9.6326 C   0  0  0  0  0  0  0  0  0  0  0  0
   20.7908  -19.8145  -12.8503 O   0  0  0  0  0  0  0  0  0  0  0  0
   19.8451  -19.6051  -12.0504 N   0  0  0  0  0  0  0  0  0  0  0  0
   20.7616  -19.1571  -14.1056 C   0  0  0  0  0  0  0  0  0  0  0  0
   19.9724  -19.5948  -15.2322 C   0  0  0  0  0  0  0  0  0  0  0  0
   18.5602  -19.6979  -14.8259 O   0  0  0  0  0  0  0  0  0  0  0  0
   18.0706  -20.8148  -14.5386 O   0  0  0  0  0  0  0  0  0  0  0  0
  2  3  2  0
  2  1  1  0
  4  2  1  0
  5  4  1  0
  6  5  1  0
  7  8  1  0
  7  6  1  0
  8 10  1  0
  8  9  1  6
 10 11  2  0
 12 10  1  0
 12 13  1  0
 13 20  1  0
 13 14  1  1
 15 14  1  0
 16 15  2  0
 17 18  1  0
 17 16  1  0
 18 19  2  0
 19 15  1  0
 20 21  2  0
 22 23  1  0
 22 20  1  0
 24 23  1  0
 25 24  2  0
 26 24  1  0
M  END
$$$$
