RHG.pdb
     RDKit          3D

 26 26  0  0  1  0  0  0  0  0999 V2000
   26.5778  -22.2730  -14.3539 N   0  0  0  0  0  0  0  0  0  0  0  0
   27.1277  -21.6525  -15.5432 C   0  0  0  0  0  0  0  0  0  0  0  0
   27.8456  -22.3439  -16.3523 N   0  0  0  0  0  0  0  0  0  0  0  0
   26.8892  -20.2931  -15.8320 N   0  0  0  0  0  0  0  0  0  0  0  0
   25.7705  -19.5633  -15.2807 C   0  0  0  0  0  0  0  0  0  0  0  0
   24.7697  -19.3479  -16.3998 C   0  0  0  0  0  0  0  0  0  0  0  0
   23.5115  -18.8284  -15.7413 C   0  0  0  0  0  0  0  0  0  0  0  0
   22.6419  -19.9187  -15.1692 C   0  0  2  0  0  0  0  0  0  0  0  0
   23.0202  -21.2281  -15.6056 N   0  0  0  0  0  0  0  0  0  0  0  0
   21.2402  -19.5887  -15.5368 C   0  0  0  0  0  0  0  0  0  0  0  0
   20.8323  -19.9797  -16.6569 O   0  0  0  0  0  0  0  0  0  0  0  0
   28.2750  -21.9172  -17.1920 N   0  0  0  0  0  0  0  0  0  0  0  0
   20.3922  -18.8735  -14.6873 C   0  0  1  0  0  0  0  0  0  0  0  0
   19.0131  -18.5252  -15.0326 C   0  0  0  0  0  0  0  0  0  0  0  0
   18.1002  -19.2256  -14.0785 C   0  0  0  0  0  0  0  0  0  0  0  0
   18.0594  -20.6921  -14.2988 C   0  0  0  0  0  0  0  0  0  0  0  0
   18.8155  -21.4149  -15.1957 N   0  0  0  0  0  0  0  0  0  0  0  0
   18.4741  -22.7049  -15.0818 C   0  0  0  0  0  0  0  0  0  0  0  0
   17.5253  -22.8286  -14.1419 N   0  0  0  0  0  0  0  0  0  0  0  0
   17.2851  -21.5881  -13.6750 C   0  0  0  0  0  0  0  0  0  0  0  0
   18.8960  -17.0498  -15.0215 O   0  0  0  0  0  0  0  0  0  0  0  0
   19.5652  -16.4054  -14.1759 N   0  0  0  0  0  0  0  0  0  0  0  0
   18.0688  -16.3223  -15.9133 C   0  0  0  0  0  0  0  0  0  0  0  0
   18.0403  -14.8818  -16.0007 C   0  0  0  0  0  0  0  0  0  0  0  0
   17.2288  -14.3435  -14.8953 O   0  0  0  0  0  0  0  0  0  0  0  0
   16.6918  -15.1230  -14.0746 O   0  0  0  0  0  0  0  0  0  0  0  0
  2  3  2  0
  2  1  1  0
  4  2  1  0
  5  4  1  0
  6  5  1  0
  7  8  1  0
  7  6  1  0
  8 10  1  0
  8  9  1  6
 10 11  2  0
 12 10  1  0
 12 13  1  0
 13 20  1  0
 13 14  1  6
 15 14  1  0
 16 15  2  0
 17 18  1  0
 17 16  1  0
 18 19  2  0
 19 15  1  0
 20 21  2  0
 22 23  1  0
 22 20  1  0
 24 23  1  0
 25 24  2  0
 26 24  1  0
M  END
$$$$
