RHG.pdb
     RDKit          3D

 26 26  0  0  1  0  0  0  0  0999 V2000
   23.6097  -25.3008  -16.1350 N   0  0  0  0  0  0  0  0  0  0  0  0
   24.7529  -24.8146  -15.3878 C   0  0  0  0  0  0  0  0  0  0  0  0
   25.9139  -24.7944  -15.9354 N   0  0  0  0  0  0  0  0  0  0  0  0
   24.6155  -24.3604  -14.0600 N   0  0  0  0  0  0  0  0  0  0  0  0
   23.7373  -23.2726  -13.6949 C   0  0  0  0  0  0  0  0  0  0  0  0
   24.3199  -21.9997  -14.2785 C   0  0  0  0  0  0  0  0  0  0  0  0
   23.4159  -20.8775  -13.8204 C   0  0  0  0  0  0  0  0  0  0  0  0
   22.0389  -20.9314  -14.4314 C   0  0  2  0  0  0  0  0  0  0  0  0
   21.8172  -19.9121  -15.4112 N   0  0  0  0  0  0  0  0  0  0  0  0
   21.0670  -20.8517  -13.3099 C   0  0  0  0  0  0  0  0  0  0  0  0
   21.0908  -19.8168  -12.6011 O   0  0  0  0  0  0  0  0  0  0  0  0
   26.7608  -24.5436  -15.3955 N   0  0  0  0  0  0  0  0  0  0  0  0
   20.1547  -21.8739  -13.0359 C   0  0  2  0  0  0  0  0  0  0  0  0
   19.1809  -21.8131  -11.9448 C   0  0  0  0  0  0  0  0  0  0  0  0
   17.8112  -21.9270  -12.5326 C   0  0  0  0  0  0  0  0  0  0  0  0
   17.4108  -20.7143  -13.2877 C   0  0  0  0  0  0  0  0  0  0  0  0
   17.5988  -19.4035  -12.9068 N   0  0  0  0  0  0  0  0  0  0  0  0
   17.0939  -18.6162  -13.8655 C   0  0  0  0  0  0  0  0  0  0  0  0
   16.5901  -19.3817  -14.8449 N   0  0  0  0  0  0  0  0  0  0  0  0
   16.7931  -20.6606  -14.4738 C   0  0  0  0  0  0  0  0  0  0  0  0
   19.5187  -22.8731  -10.9687 O   0  0  0  0  0  0  0  0  0  0  0  0
   20.0470  -23.9298  -11.3957 N   0  0  0  0  0  0  0  0  0  0  0  0
   19.2785  -22.7621   -9.5762 C   0  0  0  0  0  0  0  0  0  0  0  0
   19.5752  -23.7989   -8.6168 C   0  0  0  0  0  0  0  0  0  0  0  0
   18.6011  -24.8938   -8.7671 O   0  0  0  0  0  0  0  0  0  0  0  0
   17.7409  -24.8469   -9.6768 O   0  0  0  0  0  0  0  0  0  0  0  0
  2  3  2  0
  2  1  1  0
  4  2  1  0
  5  4  1  0
  6  5  1  0
  7  8  1  0
  7  6  1  0
  8 10  1  0
  8  9  1  6
 10 11  2  0
 12 10  1  0
 12 13  1  0
 13 20  1  0
 13 14  1  6
 15 14  1  0
 16 15  2  0
 17 18  1  0
 17 16  1  0
 18 19  2  0
 19 15  1  0
 20 21  2  0
 22 23  1  0
 22 20  1  0
 24 23  1  0
 25 24  2  0
 26 24  1  0
M  END
$$$$
