RHG.pdb
     RDKit          3D

 26 26  0  0  1  0  0  0  0  0999 V2000
   39.2240  -11.1837   -9.7842 N   0  0  0  0  0  0  0  0  0  0  0  0
   40.1006  -10.2278   -9.1364 C   0  0  0  0  0  0  0  0  0  0  0  0
   41.0372  -10.6409   -8.3617 N   0  0  0  0  0  0  0  0  0  0  0  0
   39.9438   -8.8414   -9.3403 N   0  0  0  0  0  0  0  0  0  0  0  0
   38.8211   -8.2805  -10.0564 C   0  0  0  0  0  0  0  0  0  0  0  0
   39.3703   -7.5497  -11.2666 C   0  0  0  0  0  0  0  0  0  0  0  0
   38.1674   -7.0557  -12.0383 C   0  0  0  0  0  0  0  0  0  0  0  0
   37.3702   -8.1640  -12.6771 C   0  0  2  0  0  0  0  0  0  0  0  0
   38.1674   -9.0413  -13.4790 N   0  0  0  0  0  0  0  0  0  0  0  0
   36.2863   -7.5174  -13.4619 C   0  0  0  0  0  0  0  0  0  0  0  0
   35.5278   -6.7264  -12.8511 O   0  0  0  0  0  0  0  0  0  0  0  0
   41.6524   -9.9780   -7.8580 N   0  0  0  0  0  0  0  0  0  0  0  0
   36.0992   -7.7640  -14.8244 C   0  0  1  0  0  0  0  0  0  0  0  0
   34.9777   -7.2234  -15.5940 C   0  0  0  0  0  0  0  0  0  0  0  0
   35.5310   -6.4188  -16.7258 C   0  0  0  0  0  0  0  0  0  0  0  0
   35.8384   -5.0207  -16.3362 C   0  0  0  0  0  0  0  0  0  0  0  0
   35.5655   -4.4204  -15.1264 N   0  0  0  0  0  0  0  0  0  0  0  0
   36.0007   -3.1550  -15.1832 C   0  0  0  0  0  0  0  0  0  0  0  0
   36.5421   -2.9287  -16.3893 N   0  0  0  0  0  0  0  0  0  0  0  0
   36.4336   -4.0802  -17.0797 C   0  0  0  0  0  0  0  0  0  0  0  0
   34.1185   -8.3548  -16.0093 O   0  0  0  0  0  0  0  0  0  0  0  0
   33.0619   -8.1004  -16.6393 N   0  0  0  0  0  0  0  0  0  0  0  0
   34.4222   -9.7117  -15.7348 C   0  0  0  0  0  0  0  0  0  0  0  0
   33.6020  -10.8257  -16.1471 C   0  0  0  0  0  0  0  0  0  0  0  0
   34.1010  -11.3481  -17.4309 O   0  0  0  0  0  0  0  0  0  0  0  0
   35.0765  -10.7996  -17.9942 O   0  0  0  0  0  0  0  0  0  0  0  0
  2  3  2  0
  2  1  1  0
  4  2  1  0
  5  4  1  0
  6  5  1  0
  7  8  1  0
  7  6  1  0
  8 10  1  0
  8  9  1  6
 10 11  2  0
 12 10  1  0
 12 13  1  0
 13 20  1  0
 13 14  1  1
 15 14  1  0
 16 15  2  0
 17 18  1  0
 17 16  1  0
 18 19  2  0
 19 15  1  0
 20 21  2  0
 22 23  1  0
 22 20  1  0
 24 23  1  0
 25 24  2  0
 26 24  1  0
M  END
$$$$
