RHG.pdb
     RDKit          3D

 26 26  0  0  1  0  0  0  0  0999 V2000
   19.5506  -22.7594  -11.0147 N   0  0  0  0  0  0  0  0  0  0  0  0
   19.0678  -23.8742  -11.8058 C   0  0  0  0  0  0  0  0  0  0  0  0
   19.6342  -24.1600  -12.9219 N   0  0  0  0  0  0  0  0  0  0  0  0
   17.9786  -24.6576  -11.3718 N   0  0  0  0  0  0  0  0  0  0  0  0
   17.4255  -24.5549  -10.0409 C   0  0  0  0  0  0  0  0  0  0  0  0
   18.5679  -24.7221   -9.0573 C   0  0  0  0  0  0  0  0  0  0  0  0
   17.9328  -24.7935   -7.6869 C   0  0  0  0  0  0  0  0  0  0  0  0
   18.2929  -26.0433   -6.9251 C   0  0  2  0  0  0  0  0  0  0  0  0
   17.5545  -27.1936   -7.3489 N   0  0  0  0  0  0  0  0  0  0  0  0
   18.0857  -25.7438   -5.4842 C   0  0  0  0  0  0  0  0  0  0  0  0
   18.7250  -24.7792   -4.9999 O   0  0  0  0  0  0  0  0  0  0  0  0
   19.2576  -24.8955  -13.5453 N   0  0  0  0  0  0  0  0  0  0  0  0
   17.2201  -26.4911   -4.6813 C   0  0  1  0  0  0  0  0  0  0  0  0
   17.0586  -26.2655   -3.2441 C   0  0  0  0  0  0  0  0  0  0  0  0
   15.6003  -26.1090   -2.9556 C   0  0  0  0  0  0  0  0  0  0  0  0
   15.0687  -24.7952   -3.3944 C   0  0  0  0  0  0  0  0  0  0  0  0
   15.7912  -23.7415   -3.9105 N   0  0  0  0  0  0  0  0  0  0  0  0
   14.9379  -22.7443   -4.1773 C   0  0  0  0  0  0  0  0  0  0  0  0
   13.6952  -23.1273   -3.8483 N   0  0  0  0  0  0  0  0  0  0  0  0
   13.7954  -24.3832   -3.3717 C   0  0  0  0  0  0  0  0  0  0  0  0
   17.7080  -27.3861   -2.5278 O   0  0  0  0  0  0  0  0  0  0  0  0
   17.6695  -27.3926   -1.2723 N   0  0  0  0  0  0  0  0  0  0  0  0
   18.3723  -28.4542   -3.1811 C   0  0  0  0  0  0  0  0  0  0  0  0
   19.1427  -29.4675   -2.5005 C   0  0  0  0  0  0  0  0  0  0  0  0
   18.2681  -30.6080   -2.1772 O   0  0  0  0  0  0  0  0  0  0  0  0
   17.0495  -30.5648   -2.4652 O   0  0  0  0  0  0  0  0  0  0  0  0
  2  3  2  0
  2  1  1  0
  4  2  1  0
  5  4  1  0
  6  5  1  0
  7  8  1  0
  7  6  1  0
  8 10  1  0
  8  9  1  6
 10 11  2  0
 12 10  1  0
 12 13  1  0
 13 20  1  0
 13 14  1  1
 15 14  1  0
 16 15  2  0
 17 18  1  0
 17 16  1  0
 18 19  2  0
 19 15  1  0
 20 21  2  0
 22 23  1  0
 22 20  1  0
 24 23  1  0
 25 24  2  0
 26 24  1  0
M  END
$$$$
