RHG.pdb
     RDKit          3D

 26 26  0  0  1  0  0  0  0  0999 V2000
   27.4727  -26.0737  -18.2122 N   0  0  0  0  0  0  0  0  0  0  0  0
   27.2779  -27.0398  -17.1490 C   0  0  0  0  0  0  0  0  0  0  0  0
   27.9959  -28.1034  -17.1110 N   0  0  0  0  0  0  0  0  0  0  0  0
   26.3069  -26.8345  -16.1473 N   0  0  0  0  0  0  0  0  0  0  0  0
   25.6142  -25.5777  -15.9786 C   0  0  0  0  0  0  0  0  0  0  0  0
   26.6607  -24.4804  -15.9443 C   0  0  0  0  0  0  0  0  0  0  0  0
   25.9024  -23.1848  -15.7627 C   0  0  0  0  0  0  0  0  0  0  0  0
   26.4568  -22.0474  -16.5819 C   0  0  2  0  0  0  0  0  0  0  0  0
   27.8873  -22.0108  -16.5994 N   0  0  0  0  0  0  0  0  0  0  0  0
   25.8708  -20.7965  -16.0335 C   0  0  0  0  0  0  0  0  0  0  0  0
   26.4802  -20.2430  -15.0869 O   0  0  0  0  0  0  0  0  0  0  0  0
   27.8621  -28.8186  -16.3748 N   0  0  0  0  0  0  0  0  0  0  0  0
   24.6910  -20.2402  -16.5344 C   0  0  1  0  0  0  0  0  0  0  0  0
   24.0513  -19.0562  -15.9590 C   0  0  0  0  0  0  0  0  0  0  0  0
   24.1340  -17.9471  -16.9579 C   0  0  0  0  0  0  0  0  0  0  0  0
   25.5070  -17.4021  -17.0943 C   0  0  0  0  0  0  0  0  0  0  0  0
   26.6237  -17.7869  -16.3845 N   0  0  0  0  0  0  0  0  0  0  0  0
   27.6589  -17.0501  -16.8078 C   0  0  0  0  0  0  0  0  0  0  0  0
   27.2392  -16.2082  -17.7639 N   0  0  0  0  0  0  0  0  0  0  0  0
   25.9218  -16.4382  -17.9251 C   0  0  0  0  0  0  0  0  0  0  0  0
   22.6729  -19.4248  -15.5656 O   0  0  0  0  0  0  0  0  0  0  0  0
   21.9264  -19.9478  -16.4301 N   0  0  0  0  0  0  0  0  0  0  0  0
   22.1473  -19.2198  -14.2654 C   0  0  0  0  0  0  0  0  0  0  0  0
   20.7918  -19.5321  -13.8800 C   0  0  0  0  0  0  0  0  0  0  0  0
   20.6915  -20.9702  -13.5766 O   0  0  0  0  0  0  0  0  0  0  0  0
   21.6922  -21.7112  -13.7148 O   0  0  0  0  0  0  0  0  0  0  0  0
  2  3  2  0
  2  1  1  0
  4  2  1  0
  5  4  1  0
  6  5  1  0
  7  8  1  0
  7  6  1  0
  8 10  1  0
  8  9  1  1
 10 11  2  0
 12 10  1  0
 12 13  1  0
 13 20  1  0
 13 14  1  1
 15 14  1  0
 16 15  2  0
 17 18  1  0
 17 16  1  0
 18 19  2  0
 19 15  1  0
 20 21  2  0
 22 23  1  0
 22 20  1  0
 24 23  1  0
 25 24  2  0
 26 24  1  0
M  END
$$$$
