RHG.pdb
     RDKit          3D

 26 26  0  0  1  0  0  0  0  0999 V2000
   27.0113  -17.5586  -16.2531 N   0  0  0  0  0  0  0  0  0  0  0  0
   25.7295  -17.6071  -15.5775 C   0  0  0  0  0  0  0  0  0  0  0  0
   25.3737  -18.6722  -14.9552 N   0  0  0  0  0  0  0  0  0  0  0  0
   24.8570  -16.4994  -15.5905 N   0  0  0  0  0  0  0  0  0  0  0  0
   25.2954  -15.1654  -15.9309 C   0  0  0  0  0  0  0  0  0  0  0  0
   24.8756  -14.2445  -14.8013 C   0  0  0  0  0  0  0  0  0  0  0  0
   24.7279  -12.8704  -15.4148 C   0  0  0  0  0  0  0  0  0  0  0  0
   23.6755  -12.8062  -16.4920 C   0  0  2  0  0  0  0  0  0  0  0  0
   24.0270  -13.5430  -17.6675 N   0  0  0  0  0  0  0  0  0  0  0  0
   23.4427  -11.3671  -16.7812 C   0  0  0  0  0  0  0  0  0  0  0  0
   24.2827  -10.7836  -17.5078 O   0  0  0  0  0  0  0  0  0  0  0  0
   24.4902  -18.7132  -14.4174 N   0  0  0  0  0  0  0  0  0  0  0  0
   22.3416  -10.6707  -16.2765 C   0  0  1  0  0  0  0  0  0  0  0  0
   22.0520   -9.2743  -16.6059 C   0  0  0  0  0  0  0  0  0  0  0  0
   20.9020   -9.2471  -17.5605 C   0  0  0  0  0  0  0  0  0  0  0  0
   21.2182   -9.8995  -18.8548 C   0  0  0  0  0  0  0  0  0  0  0  0
   20.7780  -11.1308  -19.2894 N   0  0  0  0  0  0  0  0  0  0  0  0
   21.2912  -11.3490  -20.5071 C   0  0  0  0  0  0  0  0  0  0  0  0
   22.0442  -10.2977  -20.8632 N   0  0  0  0  0  0  0  0  0  0  0  0
   21.9873   -9.4224  -19.8409 C   0  0  0  0  0  0  0  0  0  0  0  0
   21.8151   -8.5440  -15.3405 O   0  0  0  0  0  0  0  0  0  0  0  0
   21.2807   -9.1626  -14.3867 N   0  0  0  0  0  0  0  0  0  0  0  0
   22.1582   -7.1828  -15.1449 C   0  0  0  0  0  0  0  0  0  0  0  0
   21.9433   -6.4611  -13.9134 C   0  0  0  0  0  0  0  0  0  0  0  0
   22.4464   -5.0846  -14.0623 O   0  0  0  0  0  0  0  0  0  0  0  0
   22.9882   -4.7277  -15.1341 O   0  0  0  0  0  0  0  0  0  0  0  0
  2  3  2  0
  2  1  1  0
  4  2  1  0
  5  4  1  0
  6  5  1  0
  7  8  1  0
  7  6  1  0
  8 10  1  0
  8  9  1  6
 10 11  2  0
 12 10  1  0
 12 13  1  0
 13 20  1  0
 13 14  1  6
 15 14  1  0
 16 15  2  0
 17 18  1  0
 17 16  1  0
 18 19  2  0
 19 15  1  0
 20 21  2  0
 22 23  1  0
 22 20  1  0
 24 23  1  0
 25 24  2  0
 26 24  1  0
M  END
$$$$
