RHG.pdb
     RDKit          3D

 26 26  0  0  1  0  0  0  0  0999 V2000
   28.7394  -25.8728  -15.9791 N   0  0  0  0  0  0  0  0  0  0  0  0
   28.7854  -25.0561  -17.1761 C   0  0  0  0  0  0  0  0  0  0  0  0
   29.7026  -25.2551  -18.0520 N   0  0  0  0  0  0  0  0  0  0  0  0
   27.8359  -24.0379  -17.3999 N   0  0  0  0  0  0  0  0  0  0  0  0
   26.7537  -23.7653  -16.4820 C   0  0  0  0  0  0  0  0  0  0  0  0
   25.6289  -24.7309  -16.8024 C   0  0  0  0  0  0  0  0  0  0  0  0
   24.3461  -23.9462  -16.6437 C   0  0  0  0  0  0  0  0  0  0  0  0
   24.1533  -23.3894  -15.2562 C   0  0  2  0  0  0  0  0  0  0  0  0
   24.1286  -24.3992  -14.2425 N   0  0  0  0  0  0  0  0  0  0  0  0
   22.8999  -22.5913  -15.2831 C   0  0  0  0  0  0  0  0  0  0  0  0
   21.9084  -23.0975  -15.8617 O   0  0  0  0  0  0  0  0  0  0  0  0
   29.7231  -24.7260  -18.9414 N   0  0  0  0  0  0  0  0  0  0  0  0
   22.8045  -21.3272  -14.6956 C   0  0  1  0  0  0  0  0  0  0  0  0
   21.5889  -20.5128  -14.7300 C   0  0  0  0  0  0  0  0  0  0  0  0
   21.2859  -20.0643  -13.3366 C   0  0  0  0  0  0  0  0  0  0  0  0
   20.5046  -21.0664  -12.5710 C   0  0  0  0  0  0  0  0  0  0  0  0
   20.0181  -22.2681  -13.0379 N   0  0  0  0  0  0  0  0  0  0  0  0
   19.3690  -22.8715  -12.0339 C   0  0  0  0  0  0  0  0  0  0  0  0
   19.4253  -22.0943  -10.9421 N   0  0  0  0  0  0  0  0  0  0  0  0
   20.1232  -20.9959  -11.2899 C   0  0  0  0  0  0  0  0  0  0  0  0
   21.8017  -19.4113  -15.6954 O   0  0  0  0  0  0  0  0  0  0  0  0
   22.8603  -18.7404  -15.6100 N   0  0  0  0  0  0  0  0  0  0  0  0
   20.8754  -19.0705  -16.7127 C   0  0  0  0  0  0  0  0  0  0  0  0
   21.0787  -18.0125  -17.6733 C   0  0  0  0  0  0  0  0  0  0  0  0
   20.2803  -16.8386  -17.2800 O   0  0  0  0  0  0  0  0  0  0  0  0
   20.4289  -16.3316  -16.1439 O   0  0  0  0  0  0  0  0  0  0  0  0
  2  3  2  0
  2  1  1  0
  4  2  1  0
  5  4  1  0
  6  5  1  0
  7  8  1  0
  7  6  1  0
  8 10  1  0
  8  9  1  1
 10 11  2  0
 12 10  1  0
 12 13  1  0
 13 20  1  0
 13 14  1  6
 15 14  1  0
 16 15  2  0
 17 18  1  0
 17 16  1  0
 18 19  2  0
 19 15  1  0
 20 21  2  0
 22 23  1  0
 22 20  1  0
 24 23  1  0
 25 24  2  0
 26 24  1  0
M  END
$$$$
