RHG.pdb
     RDKit          3D

 26 26  0  0  1  0  0  0  0  0999 V2000
   29.3451  -21.8785  -17.2805 N   0  0  0  0  0  0  0  0  0  0  0  0
   28.1654  -21.2550  -17.8473 C   0  0  0  0  0  0  0  0  0  0  0  0
   27.6013  -21.7714  -18.8784 N   0  0  0  0  0  0  0  0  0  0  0  0
   27.6203  -20.0821  -17.2855 N   0  0  0  0  0  0  0  0  0  0  0  0
   28.1409  -19.4804  -16.0793 C   0  0  0  0  0  0  0  0  0  0  0  0
   27.7204  -20.3555  -14.9142 C   0  0  0  0  0  0  0  0  0  0  0  0
   26.3780  -19.8290  -14.4588 C   0  0  0  0  0  0  0  0  0  0  0  0
   25.8371  -20.5401  -13.2448 C   0  0  2  0  0  0  0  0  0  0  0  0
   26.0432  -21.9558  -13.2829 N   0  0  0  0  0  0  0  0  0  0  0  0
   24.3972  -20.1858  -13.1444 C   0  0  0  0  0  0  0  0  0  0  0  0
   24.1135  -18.9756  -12.9749 O   0  0  0  0  0  0  0  0  0  0  0  0
   26.7816  -21.3245  -19.3255 N   0  0  0  0  0  0  0  0  0  0  0  0
   23.3829  -21.1428  -13.2320 C   0  0  2  0  0  0  0  0  0  0  0  0
   21.9633  -20.8293  -13.0630 C   0  0  0  0  0  0  0  0  0  0  0  0
   21.2941  -20.9556  -14.3937 C   0  0  0  0  0  0  0  0  0  0  0  0
   21.7158  -19.9007  -15.3478 C   0  0  0  0  0  0  0  0  0  0  0  0
   21.9124  -18.5654  -15.0702 N   0  0  0  0  0  0  0  0  0  0  0  0
   22.2861  -17.9565  -16.2031 C   0  0  0  0  0  0  0  0  0  0  0  0
   22.3341  -18.8594  -17.1939 N   0  0  0  0  0  0  0  0  0  0  0  0
   21.9824  -20.0414  -16.6519 C   0  0  0  0  0  0  0  0  0  0  0  0
   21.4177  -21.7218  -12.0159 O   0  0  0  0  0  0  0  0  0  0  0  0
   21.7844  -22.9233  -12.0069 N   0  0  0  0  0  0  0  0  0  0  0  0
   20.5027  -21.2954  -11.0211 C   0  0  0  0  0  0  0  0  0  0  0  0
   19.9230  -22.1655  -10.0258 C   0  0  0  0  0  0  0  0  0  0  0  0
   18.9442  -23.0578  -10.6706 O   0  0  0  0  0  0  0  0  0  0  0  0
   18.8074  -23.0426  -11.9159 O   0  0  0  0  0  0  0  0  0  0  0  0
  2  3  2  0
  2  1  1  0
  4  2  1  0
  5  4  1  0
  6  5  1  0
  7  8  1  0
  7  6  1  0
  8 10  1  0
  8  9  1  6
 10 11  2  0
 12 10  1  0
 12 13  1  0
 13 20  1  0
 13 14  1  1
 15 14  1  0
 16 15  2  0
 17 18  1  0
 17 16  1  0
 18 19  2  0
 19 15  1  0
 20 21  2  0
 22 23  1  0
 22 20  1  0
 24 23  1  0
 25 24  2  0
 26 24  1  0
M  END
$$$$
