VKS.pdb
     RDKit          3D

 23 22  0  0  1  0  0  0  0  0999 V2000
   25.7800  -21.0425   -9.1569 C   0  0  0  0  0  0  0  0  0  0  0  0
   25.2821  -21.4510  -10.5270 C   0  0  2  0  0  0  0  0  0  0  0  0
   26.4273  -22.1722  -11.2137 C   0  0  0  0  0  0  0  0  0  0  0  0
   25.0025  -20.1837  -11.3026 C   0  0  2  0  0  0  0  0  0  0  0  0
   24.5573  -19.1493  -10.3997 N   0  0  0  0  0  0  0  0  0  0  0  0
   23.9664  -20.3771  -12.3358 C   0  0  0  0  0  0  0  0  0  0  0  0
   24.1561  -21.2186  -13.2803 O   0  0  0  0  0  0  0  0  0  0  0  0
   22.7524  -19.6657  -12.3337 N   0  0  0  0  0  0  0  0  0  0  0  0
   21.6836  -19.9195  -13.3233 C   0  0  1  0  0  0  0  0  0  0  0  0
   20.3823  -19.4094  -12.7458 C   0  0  0  0  0  0  0  0  0  0  0  0
   19.1857  -20.1573  -13.1791 C   0  0  0  0  0  0  0  0  0  0  0  0
   18.9497  -21.3828  -12.3287 C   0  0  0  0  0  0  0  0  0  0  0  0
   17.6835  -22.0897  -12.8211 C   0  0  0  0  0  0  0  0  0  0  0  0
   17.5737  -23.3075  -12.0336 N   0  0  0  0  0  0  0  0  0  0  0  0
   22.0372  -19.0715  -14.4839 C   0  0  0  0  0  0  0  0  0  0  0  0
   22.5113  -17.8965  -14.2798 O   0  0  0  0  0  0  0  0  0  0  0  0
   23.1178  -20.5245  -17.9468 O   0  0  0  0  0  0  0  0  0  0  0  0
   23.4162  -19.1562  -17.7899 C   0  0  0  0  0  0  0  0  0  0  0  0
   22.3514  -18.5785  -16.9260 C   0  0  2  0  0  0  0  0  0  0  0  0
   21.9108  -19.4244  -15.8467 N   0  0  0  0  0  0  0  0  0  0  0  0
   21.2219  -18.1327  -17.8137 C   0  0  0  0  0  0  0  0  0  0  0  0
   19.9617  -18.5928  -17.5565 O   0  0  0  0  0  0  0  0  0  0  0  0
   21.4486  -17.3596  -18.7597 O   0  0  0  0  0  0  0  0  0  0  0  0
  2  1  1  1
  3  2  1  0
  4  5  1  1
  4  2  1  0
  6  4  1  0
  6  7  2  0
  8  9  1  0
  8  6  1  0
  9 15  1  0
  9 10  1  1
 11 10  1  0
 12 11  1  0
 12 13  1  0
 14 13  1  0
 15 16  2  0
 17 18  1  0
 19 18  1  6
 19 21  1  0
 20 15  1  0
 20 19  1  0
 21 23  2  0
 21 22  1  0
M  END
$$$$
