VKS.pdb
     RDKit          3D

 23 22  0  0  1  0  0  0  0  0999 V2000
   19.2090  -13.4854  -16.7881 C   0  0  0  0  0  0  0  0  0  0  0  0
   19.0655  -12.0664  -17.2957 C   0  0  2  0  0  0  0  0  0  0  0  0
   20.0069  -11.9252  -18.4778 C   0  0  0  0  0  0  0  0  0  0  0  0
   19.5546  -11.1437  -16.2025 C   0  0  2  0  0  0  0  0  0  0  0  0
   18.6716  -11.2282  -15.0638 N   0  0  0  0  0  0  0  0  0  0  0  0
   19.6127   -9.7361  -16.6427 C   0  0  0  0  0  0  0  0  0  0  0  0
   20.4148   -9.3925  -17.5781 O   0  0  0  0  0  0  0  0  0  0  0  0
   18.8116   -8.7301  -16.0718 N   0  0  0  0  0  0  0  0  0  0  0  0
   18.8100   -7.3390  -16.5725 C   0  0  1  0  0  0  0  0  0  0  0  0
   17.3725   -6.9242  -16.7934 C   0  0  0  0  0  0  0  0  0  0  0  0
   16.8292   -7.2815  -18.1186 C   0  0  0  0  0  0  0  0  0  0  0  0
   15.3941   -6.8387  -18.2763 C   0  0  0  0  0  0  0  0  0  0  0  0
   14.8917   -7.2728  -19.6564 C   0  0  0  0  0  0  0  0  0  0  0  0
   13.5444   -6.7385  -19.7776 N   0  0  0  0  0  0  0  0  0  0  0  0
   19.3551   -6.5367  -15.4545 C   0  0  0  0  0  0  0  0  0  0  0  0
   18.6802   -6.4374  -14.3674 O   0  0  0  0  0  0  0  0  0  0  0  0
   23.2458   -5.9524  -14.6011 O   0  0  0  0  0  0  0  0  0  0  0  0
   22.2513   -5.7725  -13.6190 C   0  0  0  0  0  0  0  0  0  0  0  0
   21.0876   -5.1372  -14.2945 C   0  0  2  0  0  0  0  0  0  0  0  0
   20.5863   -5.8426  -15.4459 N   0  0  0  0  0  0  0  0  0  0  0  0
   21.4483   -3.7090  -14.5990 C   0  0  0  0  0  0  0  0  0  0  0  0
   21.4110   -3.2831  -15.8964 O   0  0  0  0  0  0  0  0  0  0  0  0
   21.7719   -2.9437  -13.6751 O   0  0  0  0  0  0  0  0  0  0  0  0
  2  1  1  1
  3  2  1  0
  4  5  1  1
  4  2  1  0
  6  4  1  0
  6  7  2  0
  8  9  1  0
  8  6  1  0
  9 15  1  0
  9 10  1  1
 11 10  1  0
 12 11  1  0
 12 13  1  0
 14 13  1  0
 15 16  2  0
 17 18  1  0
 19 18  1  6
 19 21  1  0
 20 15  1  0
 20 19  1  0
 21 23  2  0
 21 22  1  0
M  END
$$$$
