VKS.pdb
     RDKit          3D

 23 22  0  0  1  0  0  0  0  0999 V2000
   11.3145  -10.1294   -8.6961 C   0  0  0  0  0  0  0  0  0  0  0  0
   12.6323   -9.3844   -8.6938 C   0  0  2  0  0  0  0  0  0  0  0  0
   12.3000   -7.9036   -8.7123 C   0  0  0  0  0  0  0  0  0  0  0  0
   13.3408   -9.7153   -9.9877 C   0  0  2  0  0  0  0  0  0  0  0  0
   13.5482  -11.1409  -10.0775 N   0  0  0  0  0  0  0  0  0  0  0  0
   14.6524   -9.0468  -10.0943 C   0  0  0  0  0  0  0  0  0  0  0  0
   15.2987   -8.7368   -9.0349 O   0  0  0  0  0  0  0  0  0  0  0  0
   15.2407   -8.7259  -11.3315 N   0  0  0  0  0  0  0  0  0  0  0  0
   16.5116   -7.9772  -11.4342 C   0  0  1  0  0  0  0  0  0  0  0  0
   16.9880   -8.0609  -12.8670 C   0  0  0  0  0  0  0  0  0  0  0  0
   17.3240   -9.4245  -13.3215 C   0  0  0  0  0  0  0  0  0  0  0  0
   17.7728   -9.4424  -14.7634 C   0  0  0  0  0  0  0  0  0  0  0  0
   18.0165  -10.8938  -15.1873 C   0  0  0  0  0  0  0  0  0  0  0  0
   19.2752  -11.2839  -14.5719 N   0  0  0  0  0  0  0  0  0  0  0  0
   16.1433   -6.5717  -11.1517 C   0  0  0  0  0  0  0  0  0  0  0  0
   15.0929   -6.0773  -11.6987 O   0  0  0  0  0  0  0  0  0  0  0  0
   15.9142   -2.5018   -8.7666 O   0  0  0  0  0  0  0  0  0  0  0  0
   16.3584   -3.8387   -8.7293 C   0  0  0  0  0  0  0  0  0  0  0  0
   16.4691   -4.2963  -10.1408 C   0  0  2  0  0  0  0  0  0  0  0  0
   16.8431   -5.6768  -10.3108 N   0  0  0  0  0  0  0  0  0  0  0  0
   17.3877   -3.3515  -10.8662 C   0  0  0  0  0  0  0  0  0  0  0  0
   16.9923   -2.0561  -11.0444 O   0  0  0  0  0  0  0  0  0  0  0  0
   18.4829   -3.7584  -11.2892 O   0  0  0  0  0  0  0  0  0  0  0  0
  2  1  1  6
  3  2  1  0
  4  5  1  1
  4  2  1  0
  6  4  1  0
  6  7  2  0
  8  9  1  0
  8  6  1  0
  9 15  1  0
  9 10  1  6
 11 10  1  0
 12 11  1  0
 12 13  1  0
 14 13  1  0
 15 16  2  0
 17 18  1  0
 19 18  1  1
 19 21  1  0
 20 15  1  0
 20 19  1  0
 21 23  2  0
 21 22  1  0
M  END
$$$$
