VKS.pdb
     RDKit          3D

 23 22  0  0  1  0  0  0  0  0999 V2000
   19.8651  -18.7180  -13.7473 C   0  0  0  0  0  0  0  0  0  0  0  0
   19.9967  -19.8557  -14.7373 C   0  0  2  0  0  0  0  0  0  0  0  0
   20.7800  -20.9544  -14.0426 C   0  0  0  0  0  0  0  0  0  0  0  0
   20.8308  -19.3540  -15.8941 C   0  0  2  0  0  0  0  0  0  0  0  0
   21.0848  -20.4357  -16.8154 N   0  0  0  0  0  0  0  0  0  0  0  0
   22.1276  -18.8050  -15.4523 C   0  0  0  0  0  0  0  0  0  0  0  0
   22.1594  -17.7848  -14.6812 O   0  0  0  0  0  0  0  0  0  0  0  0
   23.3590  -19.3604  -15.8458 N   0  0  0  0  0  0  0  0  0  0  0  0
   24.6558  -18.8175  -15.3877 C   0  0  1  0  0  0  0  0  0  0  0  0
   25.4802  -19.9670  -14.8529 C   0  0  0  0  0  0  0  0  0  0  0  0
   25.1723  -20.3446  -13.4594 C   0  0  0  0  0  0  0  0  0  0  0  0
   26.0592  -21.4650  -12.9710 C   0  0  0  0  0  0  0  0  0  0  0  0
   25.6960  -21.7855  -11.5182 C   0  0  0  0  0  0  0  0  0  0  0  0
   26.4076  -23.0105  -11.1891 N   0  0  0  0  0  0  0  0  0  0  0  0
   25.3081  -18.3149  -16.6176 C   0  0  0  0  0  0  0  0  0  0  0  0
   25.2736  -19.0306  -17.6823 O   0  0  0  0  0  0  0  0  0  0  0  0
   27.6697  -15.0519  -19.2828 O   0  0  0  0  0  0  0  0  0  0  0  0
   27.1539  -15.2847  -17.9922 C   0  0  0  0  0  0  0  0  0  0  0  0
   26.6584  -16.6875  -17.9719 C   0  0  2  0  0  0  0  0  0  0  0  0
   25.9890  -17.0845  -16.7600 N   0  0  0  0  0  0  0  0  0  0  0  0
   27.8070  -17.5925  -18.3250 C   0  0  0  0  0  0  0  0  0  0  0  0
   28.1404  -17.7502  -19.6403 O   0  0  0  0  0  0  0  0  0  0  0  0
   28.4306  -18.1784  -17.4239 O   0  0  0  0  0  0  0  0  0  0  0  0
  2  1  1  1
  3  2  1  0
  4  5  1  6
  4  2  1  0
  6  4  1  0
  6  7  2  0
  8  9  1  0
  8  6  1  0
  9 15  1  0
  9 10  1  6
 11 10  1  0
 12 11  1  0
 12 13  1  0
 14 13  1  0
 15 16  2  0
 17 18  1  0
 19 18  1  1
 19 21  1  0
 20 15  1  0
 20 19  1  0
 21 23  2  0
 21 22  1  0
M  END
$$$$
