VKS.pdb
     RDKit          3D

 23 22  0  0  1  0  0  0  0  0999 V2000
   15.8934   -6.9649   -8.0311 C   0  0  0  0  0  0  0  0  0  0  0  0
   14.7937   -6.4949   -8.9593 C   0  0  2  0  0  0  0  0  0  0  0  0
   13.5643   -6.2604   -8.1008 C   0  0  0  0  0  0  0  0  0  0  0  0
   14.4856   -7.6319   -9.9070 C   0  0  2  0  0  0  0  0  0  0  0  0
   14.0703   -8.7922   -9.1555 N   0  0  0  0  0  0  0  0  0  0  0  0
   15.6515   -8.0046  -10.7317 C   0  0  0  0  0  0  0  0  0  0  0  0
   16.3594   -9.0215  -10.4136 O   0  0  0  0  0  0  0  0  0  0  0  0
   16.0322   -7.2805  -11.8765 N   0  0  0  0  0  0  0  0  0  0  0  0
   17.1410   -7.7117  -12.7543 C   0  0  1  0  0  0  0  0  0  0  0  0
   16.6199   -7.7635  -14.1731 C   0  0  0  0  0  0  0  0  0  0  0  0
   15.8955   -9.0037  -14.5140 C   0  0  0  0  0  0  0  0  0  0  0  0
   15.4448   -9.0139  -15.9553 C   0  0  0  0  0  0  0  0  0  0  0  0
   14.7187  -10.3326  -16.2368 C   0  0  0  0  0  0  0  0  0  0  0  0
   14.3172  -10.2775  -17.6336 N   0  0  0  0  0  0  0  0  0  0  0  0
   18.1354   -6.6187  -12.6677 C   0  0  0  0  0  0  0  0  0  0  0  0
   17.7281   -5.4128  -12.5040 O   0  0  0  0  0  0  0  0  0  0  0  0
   22.2018   -7.1497  -13.0040 O   0  0  0  0  0  0  0  0  0  0  0  0
   21.8434   -5.9233  -12.4095 C   0  0  0  0  0  0  0  0  0  0  0  0
   20.4420   -5.6379  -12.8203 C   0  0  2  0  0  0  0  0  0  0  0  0
   19.5399   -6.7581  -12.7438 N   0  0  0  0  0  0  0  0  0  0  0  0
   20.4757   -5.0107  -14.1871 C   0  0  0  0  0  0  0  0  0  0  0  0
   21.0528   -3.7812  -14.3330 O   0  0  0  0  0  0  0  0  0  0  0  0
   19.9827   -5.6139  -15.1552 O   0  0  0  0  0  0  0  0  0  0  0  0
  2  1  1  1
  3  2  1  0
  4  5  1  1
  4  2  1  0
  6  4  1  0
  6  7  2  0
  8  9  1  0
  8  6  1  0
  9 15  1  0
  9 10  1  6
 11 10  1  0
 12 11  1  0
 12 13  1  0
 14 13  1  0
 15 16  2  0
 17 18  1  0
 19 18  1  6
 19 21  1  0
 20 15  1  0
 20 19  1  0
 21 23  2  0
 21 22  1  0
M  END
$$$$
