VKS.pdb
     RDKit          3D

 23 22  0  0  1  0  0  0  0  0999 V2000
   13.6817   -6.9650  -10.5544 C   0  0  0  0  0  0  0  0  0  0  0  0
   13.9672   -7.7897   -9.3174 C   0  0  2  0  0  0  0  0  0  0  0  0
   13.2421   -7.1192   -8.1651 C   0  0  0  0  0  0  0  0  0  0  0  0
   15.4516   -7.6978   -9.0455 C   0  0  2  0  0  0  0  0  0  0  0  0
   15.8174   -6.3225   -8.8046 N   0  0  0  0  0  0  0  0  0  0  0  0
   16.2593   -8.2035  -10.1727 C   0  0  0  0  0  0  0  0  0  0  0  0
   16.2492   -9.4508  -10.4561 O   0  0  0  0  0  0  0  0  0  0  0  0
   17.0582   -7.3627  -10.9693 N   0  0  0  0  0  0  0  0  0  0  0  0
   17.7757   -7.8522  -12.1659 C   0  0  1  0  0  0  0  0  0  0  0  0
   16.7667   -8.0159  -13.2805 C   0  0  0  0  0  0  0  0  0  0  0  0
   17.3442   -8.4389  -14.5714 C   0  0  0  0  0  0  0  0  0  0  0  0
   16.2848   -8.6022  -15.6352 C   0  0  0  0  0  0  0  0  0  0  0  0
   16.9526   -9.0766  -16.9292 C   0  0  0  0  0  0  0  0  0  0  0  0
   15.8702   -9.3428  -17.8633 N   0  0  0  0  0  0  0  0  0  0  0  0
   18.6924   -6.7492  -12.5317 C   0  0  0  0  0  0  0  0  0  0  0  0
   18.2573   -5.5419  -12.5160 O   0  0  0  0  0  0  0  0  0  0  0  0
   22.5299   -7.3299  -13.7264 O   0  0  0  0  0  0  0  0  0  0  0  0
   22.3535   -6.0333  -13.2032 C   0  0  0  0  0  0  0  0  0  0  0  0
   20.8920   -5.7549  -13.2236 C   0  0  2  0  0  0  0  0  0  0  0  0
   20.0487   -6.8789  -12.9075 N   0  0  0  0  0  0  0  0  0  0  0  0
   20.5552   -5.1300  -14.5498 C   0  0  0  0  0  0  0  0  0  0  0  0
   21.0609   -3.8954  -14.8430 O   0  0  0  0  0  0  0  0  0  0  0  0
   19.8286   -5.7397  -15.3526 O   0  0  0  0  0  0  0  0  0  0  0  0
  2  1  1  6
  3  2  1  0
  4  5  1  6
  4  2  1  0
  6  4  1  0
  6  7  2  0
  8  9  1  0
  8  6  1  0
  9 15  1  0
  9 10  1  6
 11 10  1  0
 12 11  1  0
 12 13  1  0
 14 13  1  0
 15 16  2  0
 17 18  1  0
 19 18  1  6
 19 21  1  0
 20 15  1  0
 20 19  1  0
 21 23  2  0
 21 22  1  0
M  END
$$$$
