VKS.pdb
     RDKit          3D

 23 22  0  0  1  0  0  0  0  0999 V2000
   18.1429  -11.5615  -17.0010 C   0  0  0  0  0  0  0  0  0  0  0  0
   19.5040  -11.2987  -17.6092 C   0  0  2  0  0  0  0  0  0  0  0  0
   20.3774  -12.4909  -17.2639 C   0  0  0  0  0  0  0  0  0  0  0  0
   20.0823  -10.0859  -16.9160 C   0  0  2  0  0  0  0  0  0  0  0  0
   20.2281  -10.3557  -15.5055 N   0  0  0  0  0  0  0  0  0  0  0  0
   19.2306   -8.8911  -17.0754 C   0  0  0  0  0  0  0  0  0  0  0  0
   19.0882   -8.3582  -18.2296 O   0  0  0  0  0  0  0  0  0  0  0  0
   18.5518   -8.2952  -15.9966 N   0  0  0  0  0  0  0  0  0  0  0  0
   17.8357   -7.0079  -16.1247 C   0  0  1  0  0  0  0  0  0  0  0  0
   16.5714   -7.0931  -15.2993 C   0  0  0  0  0  0  0  0  0  0  0  0
   15.4827   -7.8685  -15.9258 C   0  0  0  0  0  0  0  0  0  0  0  0
   14.2605   -7.9380  -15.0414 C   0  0  0  0  0  0  0  0  0  0  0  0
   13.1716   -8.7356  -15.7650 C   0  0  0  0  0  0  0  0  0  0  0  0
   12.0794   -8.8743  -14.8145 N   0  0  0  0  0  0  0  0  0  0  0  0
   18.7330   -6.0145  -15.4932 C   0  0  0  0  0  0  0  0  0  0  0  0
   18.2927   -4.8317  -15.2602 O   0  0  0  0  0  0  0  0  0  0  0  0
   22.4688   -4.7734  -12.7729 O   0  0  0  0  0  0  0  0  0  0  0  0
   22.0003   -5.8079  -13.6074 C   0  0  0  0  0  0  0  0  0  0  0  0
   20.8484   -5.2575  -14.3718 C   0  0  2  0  0  0  0  0  0  0  0  0
   20.0726   -6.2301  -15.0976 N   0  0  0  0  0  0  0  0  0  0  0  0
   21.3595   -4.1485  -15.2503 C   0  0  0  0  0  0  0  0  0  0  0  0
   21.4701   -2.8918  -14.7263 O   0  0  0  0  0  0  0  0  0  0  0  0
   21.6709   -4.3886  -16.4290 O   0  0  0  0  0  0  0  0  0  0  0  0
  2  1  1  1
  3  2  1  0
  4  5  1  1
  4  2  1  0
  6  4  1  0
  6  7  2  0
  8  9  1  0
  8  6  1  0
  9 15  1  0
  9 10  1  1
 11 10  1  0
 12 11  1  0
 12 13  1  0
 14 13  1  0
 15 16  2  0
 17 18  1  0
 19 18  1  6
 19 21  1  0
 20 15  1  0
 20 19  1  0
 21 23  2  0
 21 22  1  0
M  END
$$$$
