VKS.pdb
     RDKit          3D

 23 22  0  0  1  0  0  0  0  0999 V2000
   18.4473  -26.6162  -11.3243 C   0  0  0  0  0  0  0  0  0  0  0  0
   18.6693  -26.2130   -9.8821 C   0  0  2  0  0  0  0  0  0  0  0  0
   18.2284  -27.3854   -9.0251 C   0  0  0  0  0  0  0  0  0  0  0  0
   17.7445  -25.0532   -9.5896 C   0  0  2  0  0  0  0  0  0  0  0  0
   18.1560  -23.8991  -10.3527 N   0  0  0  0  0  0  0  0  0  0  0  0
   17.7400  -24.6880   -8.1596 C   0  0  0  0  0  0  0  0  0  0  0  0
   18.6606  -23.9339   -7.6905 O   0  0  0  0  0  0  0  0  0  0  0  0
   16.7508  -25.1382   -7.2659 N   0  0  0  0  0  0  0  0  0  0  0  0
   16.7064  -24.7095   -5.8516 C   0  0  1  0  0  0  0  0  0  0  0  0
   15.3038  -24.2291   -5.5534 C   0  0  0  0  0  0  0  0  0  0  0  0
   15.1082  -23.7266   -4.1793 C   0  0  0  0  0  0  0  0  0  0  0  0
   13.6918  -23.2561   -3.9486 C   0  0  0  0  0  0  0  0  0  0  0  0
   13.5719  -22.7341   -2.5138 C   0  0  0  0  0  0  0  0  0  0  0  0
   12.2057  -22.2550   -2.3756 N   0  0  0  0  0  0  0  0  0  0  0  0
   16.9447  -25.9476   -5.0762 C   0  0  0  0  0  0  0  0  0  0  0  0
   16.5442  -27.0708   -5.5507 O   0  0  0  0  0  0  0  0  0  0  0  0
   19.9784  -26.8440   -2.4384 O   0  0  0  0  0  0  0  0  0  0  0  0
   18.7071  -27.2087   -1.9519 C   0  0  0  0  0  0  0  0  0  0  0  0
   17.7995  -27.2826   -3.1287 C   0  0  2  0  0  0  0  0  0  0  0  0
   17.5931  -26.0380   -3.8235 N   0  0  0  0  0  0  0  0  0  0  0  0
   16.5120  -27.9213   -2.6848 C   0  0  0  0  0  0  0  0  0  0  0  0
   16.5052  -29.2562   -2.3950 O   0  0  0  0  0  0  0  0  0  0  0  0
   15.4824  -27.2323   -2.5888 O   0  0  0  0  0  0  0  0  0  0  0  0
  2  1  1  6
  3  2  1  0
  4  5  1  6
  4  2  1  0
  6  4  1  0
  6  7  2  0
  8  9  1  0
  8  6  1  0
  9 15  1  0
  9 10  1  1
 11 10  1  0
 12 11  1  0
 12 13  1  0
 14 13  1  0
 15 16  2  0
 17 18  1  0
 19 18  1  1
 19 21  1  0
 20 15  1  0
 20 19  1  0
 21 23  2  0
 21 22  1  0
M  END
$$$$
