VKS.pdb
     RDKit          3D

 23 22  0  0  1  0  0  0  0  0999 V2000
   23.0771  -13.4078  -17.0627 C   0  0  0  0  0  0  0  0  0  0  0  0
   24.4034  -12.7736  -17.4243 C   0  0  2  0  0  0  0  0  0  0  0  0
   25.4887  -13.7099  -16.9253 C   0  0  0  0  0  0  0  0  0  0  0  0
   24.5137  -11.4819  -16.6464 C   0  0  2  0  0  0  0  0  0  0  0  0
   24.4609  -11.7606  -15.2312 N   0  0  0  0  0  0  0  0  0  0  0  0
   23.4291  -10.5364  -16.9752 C   0  0  0  0  0  0  0  0  0  0  0  0
   23.3538  -10.0348  -18.1495 O   0  0  0  0  0  0  0  0  0  0  0  0
   22.4514  -10.1503  -16.0400 N   0  0  0  0  0  0  0  0  0  0  0  0
   21.3683   -9.2002  -16.3724 C   0  0  1  0  0  0  0  0  0  0  0  0
   20.0478   -9.8773  -16.0807 C   0  0  0  0  0  0  0  0  0  0  0  0
   18.8599   -9.0438  -16.3509 C   0  0  0  0  0  0  0  0  0  0  0  0
   17.5762   -9.8185  -16.1705 C   0  0  0  0  0  0  0  0  0  0  0  0
   16.3982   -8.9211  -16.5609 C   0  0  0  0  0  0  0  0  0  0  0  0
   15.2055   -9.7401  -16.4128 N   0  0  0  0  0  0  0  0  0  0  0  0
   21.5377   -8.0865  -15.4123 C   0  0  0  0  0  0  0  0  0  0  0  0
   21.7020   -8.3521  -14.1675 O   0  0  0  0  0  0  0  0  0  0  0  0
   23.0207   -3.9972  -13.7756 O   0  0  0  0  0  0  0  0  0  0  0  0
   22.9740   -4.8781  -14.8745 C   0  0  0  0  0  0  0  0  0  0  0  0
   21.7255   -5.6756  -14.7356 C   0  0  2  0  0  0  0  0  0  0  0  0
   21.5435   -6.7078  -15.7236 N   0  0  0  0  0  0  0  0  0  0  0  0
   20.5662   -4.7191  -14.6737 C   0  0  0  0  0  0  0  0  0  0  0  0
   19.6674   -4.7069  -15.7024 O   0  0  0  0  0  0  0  0  0  0  0  0
   20.4433   -3.9606  -13.6972 O   0  0  0  0  0  0  0  0  0  0  0  0
  2  1  1  1
  3  2  1  0
  4  5  1  1
  4  2  1  0
  6  4  1  0
  6  7  2  0
  8  9  1  0
  8  6  1  0
  9 15  1  0
  9 10  1  1
 11 10  1  0
 12 11  1  0
 12 13  1  0
 14 13  1  0
 15 16  2  0
 17 18  1  0
 19 18  1  6
 19 21  1  0
 20 15  1  0
 20 19  1  0
 21 23  2  0
 21 22  1  0
M  END
$$$$
