VKS.pdb
     RDKit          3D

 23 22  0  0  1  0  0  0  0  0999 V2000
   23.2215  -13.3873  -17.2539 C   0  0  0  0  0  0  0  0  0  0  0  0
   24.4373  -12.8089  -16.5618 C   0  0  2  0  0  0  0  0  0  0  0  0
   25.0202  -13.9143  -15.7006 C   0  0  0  0  0  0  0  0  0  0  0  0
   23.9538  -11.7117  -15.6408 C   0  0  2  0  0  0  0  0  0  0  0  0
   23.0350  -12.2600  -14.6719 N   0  0  0  0  0  0  0  0  0  0  0  0
   23.2672  -10.6291  -16.3723 C   0  0  0  0  0  0  0  0  0  0  0  0
   23.9119   -9.9259  -17.2245 O   0  0  0  0  0  0  0  0  0  0  0  0
   21.9077  -10.3250  -16.1746 N   0  0  0  0  0  0  0  0  0  0  0  0
   21.2631   -9.1432  -16.7862 C   0  0  1  0  0  0  0  0  0  0  0  0
   19.8094   -9.4796  -17.0321 C   0  0  0  0  0  0  0  0  0  0  0  0
   18.9900   -8.3456  -17.5029 C   0  0  0  0  0  0  0  0  0  0  0  0
   18.2468   -8.6783  -18.7747 C   0  0  0  0  0  0  0  0  0  0  0  0
   17.4736   -7.4387  -19.2341 C   0  0  0  0  0  0  0  0  0  0  0  0
   16.7231   -7.8489  -20.4104 N   0  0  0  0  0  0  0  0  0  0  0  0
   21.3243   -8.0983  -15.7396 C   0  0  0  0  0  0  0  0  0  0  0  0
   21.1509   -8.4303  -14.5121 O   0  0  0  0  0  0  0  0  0  0  0  0
   22.9234   -4.1084  -13.7903 O   0  0  0  0  0  0  0  0  0  0  0  0
   22.8786   -4.8611  -14.9808 C   0  0  0  0  0  0  0  0  0  0  0  0
   21.7087   -5.7739  -14.8705 C   0  0  2  0  0  0  0  0  0  0  0  0
   21.5658   -6.7211  -15.9462 N   0  0  0  0  0  0  0  0  0  0  0  0
   20.4783   -4.9323  -14.6694 C   0  0  0  0  0  0  0  0  0  0  0  0
   19.9627   -4.8107  -13.4103 O   0  0  0  0  0  0  0  0  0  0  0  0
   19.9531   -4.3648  -15.6420 O   0  0  0  0  0  0  0  0  0  0  0  0
  2  1  1  1
  3  2  1  0
  4  5  1  1
  4  2  1  0
  6  4  1  0
  6  7  2  0
  8  9  1  0
  8  6  1  0
  9 15  1  0
  9 10  1  1
 11 10  1  0
 12 11  1  0
 12 13  1  0
 14 13  1  0
 15 16  2  0
 17 18  1  0
 19 18  1  6
 19 21  1  0
 20 15  1  0
 20 19  1  0
 21 23  2  0
 21 22  1  0
M  END
$$$$
