ARR.pdb
     RDKit          3D

 28 27  0  0  1  0  0  0  0  0999 V2000
   10.7728  -19.6702   18.5616 C   0  0  0  0  0  0  0  0  0  0  0  0
   10.6208  -18.3157   17.8646 C   0  0  2  0  0  0  0  0  0  0  0  0
   11.5920  -18.2503   16.8039 N   0  0  0  0  0  0  0  0  0  0  0  0
   10.8680  -17.2831   18.9039 C   0  0  0  0  0  0  0  0  0  0  0  0
   12.0492  -16.9336   19.1426 O   0  0  0  0  0  0  0  0  0  0  0  0
    7.2356  -13.9991   16.4364 N   0  0  0  0  0  0  0  0  0  0  0  0
    7.5150  -13.3550   17.6628 C   0  0  0  0  0  0  0  0  0  0  0  0
    8.4242  -12.4196   17.6740 N   0  0  0  0  0  0  0  0  0  0  0  0
    6.8516  -13.6966   18.8638 N   0  0  0  0  0  0  0  0  0  0  0  0
    7.3342  -13.3304   20.1455 C   0  0  0  0  0  0  0  0  0  0  0  0
    8.7469  -13.7395   20.3987 C   0  0  0  0  0  0  0  0  0  0  0  0
    8.8441  -15.0258   21.1326 C   0  0  0  0  0  0  0  0  0  0  0  0
   10.1176  -15.7722   20.7795 C   0  0  2  0  0  0  0  0  0  0  0  0
    9.8415  -16.6675   19.6443 N   0  0  0  0  0  0  0  0  0  0  0  0
   10.6231  -16.5620   21.9137 C   0  0  0  0  0  0  0  0  0  0  0  0
   10.0253  -17.6053   22.3194 O   0  0  0  0  0  0  0  0  0  0  0  0
    8.7715  -12.0778   18.5708 N   0  0  0  0  0  0  0  0  0  0  0  0
   12.9081  -23.0394   21.6051 C   0  0  0  0  0  0  0  0  0  0  0  0
   13.9807  -22.8569   22.5312 N   0  0  0  0  0  0  0  0  0  0  0  0
   14.3573  -23.8666   23.2543 N   0  0  0  0  0  0  0  0  0  0  0  0
   14.6126  -21.5929   22.6474 C   0  0  0  0  0  0  0  0  0  0  0  0
   13.9763  -20.4923   21.8538 C   0  0  0  0  0  0  0  0  0  0  0  0
   13.5687  -19.4783   22.8517 C   0  0  0  0  0  0  0  0  0  0  0  0
   12.9716  -18.2146   22.4818 C   0  0  2  0  0  0  0  0  0  0  0  0
   12.5221  -17.1680   23.4181 N   0  0  0  0  0  0  0  0  0  0  0  0
   11.8064  -16.1495   22.5703 C   0  0  0  0  0  0  0  0  0  0  0  0
   13.5110  -16.3656   24.1292 O   0  0  0  0  0  0  0  0  0  0  0  0
   14.1729  -16.8285   25.1406 O   0  0  0  0  0  0  0  0  0  0  0  0
  2  1  1  1
  2  3  1  0
  4  2  1  0
  5  4  2  0
  7  6  1  0
  7  8  2  0
  9  7  1  0
 10  9  1  0
 11 10  1  0
 13 12  1  1
 12 11  1  0
 13 14  1  0
 14  4  1  0
 15 25  1  0
 15 13  1  0
 16 15  2  0
 18 17  1  0
 18 19  2  0
 20 18  1  0
 21 20  1  0
 22 21  1  0
 23 22  1  0
 24 23  1  1
 24 25  1  0
 26 28  1  0
 26 24  1  0
 27 26  2  0
M  END
$$$$
