ARR.pdb
     RDKit          3D

 28 27  0  0  1  0  0  0  0  0999 V2000
    9.7102  -14.6592   15.8929 C   0  0  0  0  0  0  0  0  0  0  0  0
    9.5105  -16.1528   15.6236 C   0  0  2  0  0  0  0  0  0  0  0  0
    8.1143  -16.3719   15.3486 N   0  0  0  0  0  0  0  0  0  0  0  0
    9.9480  -16.8597   16.8550 C   0  0  0  0  0  0  0  0  0  0  0  0
    9.1446  -16.9624   17.8133 O   0  0  0  0  0  0  0  0  0  0  0  0
   17.7846  -20.1353   16.3740 N   0  0  0  0  0  0  0  0  0  0  0  0
   17.5465  -18.7425   16.3587 C   0  0  0  0  0  0  0  0  0  0  0  0
   18.5323  -17.9527   16.0330 N   0  0  0  0  0  0  0  0  0  0  0  0
   16.2888  -18.1875   16.6898 N   0  0  0  0  0  0  0  0  0  0  0  0
   15.1694  -18.9742   17.0610 C   0  0  0  0  0  0  0  0  0  0  0  0
   13.9730  -18.1743   17.4558 C   0  0  0  0  0  0  0  0  0  0  0  0
   12.8350  -19.0257   17.8834 C   0  0  0  0  0  0  0  0  0  0  0  0
   11.6087  -18.1923   18.2078 C   0  0  2  0  0  0  0  0  0  0  0  0
   11.2266  -17.4272   17.0099 N   0  0  0  0  0  0  0  0  0  0  0  0
   11.8554  -17.2641   19.3229 C   0  0  0  0  0  0  0  0  0  0  0  0
   12.4172  -16.1404   19.1438 O   0  0  0  0  0  0  0  0  0  0  0  0
   18.3713  -16.9452   16.0070 N   0  0  0  0  0  0  0  0  0  0  0  0
    6.1825  -12.7991   19.6575 C   0  0  0  0  0  0  0  0  0  0  0  0
    7.5286  -13.1910   19.3817 N   0  0  0  0  0  0  0  0  0  0  0  0
    7.9104  -13.2778   18.1444 N   0  0  0  0  0  0  0  0  0  0  0  0
    8.4189  -13.4758   20.4478 C   0  0  0  0  0  0  0  0  0  0  0  0
    8.8905  -14.8968   20.5156 C   0  0  0  0  0  0  0  0  0  0  0  0
    9.7044  -14.9783   21.7488 C   0  0  0  0  0  0  0  0  0  0  0  0
   10.3655  -16.1935   22.1692 C   0  0  2  0  0  0  0  0  0  0  0  0
   11.7021  -16.6405   21.7362 N   0  0  0  0  0  0  0  0  0  0  0  0
   11.4564  -17.6319   20.6294 C   0  0  0  0  0  0  0  0  0  0  0  0
   12.5466  -17.3863   22.6626 O   0  0  0  0  0  0  0  0  0  0  0  0
   12.4964  -18.6764   22.7518 O   0  0  0  0  0  0  0  0  0  0  0  0
  2  1  1  1
  2  3  1  0
  4  2  1  0
  5  4  2  0
  7  6  1  0
  7  8  2  0
  9  7  1  0
 10  9  1  0
 11 10  1  0
 13 12  1  6
 12 11  1  0
 13 14  1  0
 14  4  1  0
 15 25  1  0
 15 13  1  0
 16 15  2  0
 18 17  1  0
 18 19  2  0
 20 18  1  0
 21 20  1  0
 22 21  1  0
 23 22  1  0
 24 23  1  6
 24 25  1  0
 26 28  1  0
 26 24  1  0
 27 26  2  0
M  END
$$$$
