ARR.pdb
     RDKit          3D

 28 27  0  0  1  0  0  0  0  0999 V2000
   14.7967  -19.2353   20.0013 C   0  0  0  0  0  0  0  0  0  0  0  0
   13.6707  -19.7543   20.8993 C   0  0  2  0  0  0  0  0  0  0  0  0
   12.6356  -20.2859   20.0515 N   0  0  0  0  0  0  0  0  0  0  0  0
   13.1948  -18.5874   21.6861 C   0  0  0  0  0  0  0  0  0  0  0  0
   13.9828  -18.0384   22.4936 O   0  0  0  0  0  0  0  0  0  0  0  0
    7.1254  -12.9142   19.7673 N   0  0  0  0  0  0  0  0  0  0  0  0
    8.1370  -13.6547   19.1151 C   0  0  0  0  0  0  0  0  0  0  0  0
    8.3398  -13.4346   17.8454 N   0  0  0  0  0  0  0  0  0  0  0  0
    8.9198  -14.6203   19.7889 N   0  0  0  0  0  0  0  0  0  0  0  0
    8.3904  -15.8411   20.2782 C   0  0  0  0  0  0  0  0  0  0  0  0
    9.4074  -16.7287   20.9145 C   0  0  0  0  0  0  0  0  0  0  0  0
   10.6367  -15.9956   21.3070 C   0  0  0  0  0  0  0  0  0  0  0  0
   11.4931  -16.8143   22.2556 C   0  0  2  0  0  0  0  0  0  0  0  0
   11.8961  -18.0563   21.5762 N   0  0  0  0  0  0  0  0  0  0  0  0
   10.7740  -17.1465   23.4959 C   0  0  0  0  0  0  0  0  0  0  0  0
   10.0583  -18.1900   23.5932 O   0  0  0  0  0  0  0  0  0  0  0  0
    9.0759  -13.9532   17.3647 N   0  0  0  0  0  0  0  0  0  0  0  0
    7.3707  -13.8540   22.6722 C   0  0  0  0  0  0  0  0  0  0  0  0
    6.8467  -13.2744   23.8685 N   0  0  0  0  0  0  0  0  0  0  0  0
    6.9301  -11.9889   24.0256 N   0  0  0  0  0  0  0  0  0  0  0  0
    6.2496  -14.0986   24.8556 C   0  0  0  0  0  0  0  0  0  0  0  0
    7.2150  -14.8648   25.7084 C   0  0  0  0  0  0  0  0  0  0  0  0
    7.7147  -15.9577   24.8447 C   0  0  0  0  0  0  0  0  0  0  0  0
    8.6997  -16.9173   25.2910 C   0  0  2  0  0  0  0  0  0  0  0  0
   10.0386  -16.5951   25.8179 N   0  0  0  0  0  0  0  0  0  0  0  0
   10.8821  -16.2816   24.6102 C   0  0  0  0  0  0  0  0  0  0  0  0
   10.8118  -17.6276   26.4985 O   0  0  0  0  0  0  0  0  0  0  0  0
   10.7839  -17.7717   27.7844 O   0  0  0  0  0  0  0  0  0  0  0  0
  2  1  1  6
  2  3  1  0
  4  2  1  0
  5  4  2  0
  7  6  1  0
  7  8  2  0
  9  7  1  0
 10  9  1  0
 11 10  1  0
 13 12  1  6
 12 11  1  0
 13 14  1  0
 14  4  1  0
 15 25  1  0
 15 13  1  0
 16 15  2  0
 18 17  1  0
 18 19  2  0
 20 18  1  0
 21 20  1  0
 22 21  1  0
 23 22  1  0
 24 23  1  1
 24 25  1  0
 26 28  1  0
 26 24  1  0
 27 26  2  0
M  END
$$$$
