ARR.pdb
     RDKit          3D

 28 27  0  0  1  0  0  0  0  0999 V2000
    6.7732  -20.2784   25.4175 C   0  0  0  0  0  0  0  0  0  0  0  0
    6.1301  -20.3168   24.0288 C   0  0  2  0  0  0  0  0  0  0  0  0
    6.1463  -21.6811   23.5692 N   0  0  0  0  0  0  0  0  0  0  0  0
    6.9541  -19.4332   23.1642 C   0  0  0  0  0  0  0  0  0  0  0  0
    7.9889  -19.9007   22.6305 O   0  0  0  0  0  0  0  0  0  0  0  0
    9.4743  -13.0665   20.6360 N   0  0  0  0  0  0  0  0  0  0  0  0
    8.7064  -12.6769   19.5155 C   0  0  0  0  0  0  0  0  0  0  0  0
    9.2068  -11.7846   18.7062 N   0  0  0  0  0  0  0  0  0  0  0  0
    7.4246  -13.2138   19.2546 N   0  0  0  0  0  0  0  0  0  0  0  0
    6.7136  -14.0083   20.1891 C   0  0  0  0  0  0  0  0  0  0  0  0
    7.5144  -15.1304   20.7608 C   0  0  0  0  0  0  0  0  0  0  0  0
    6.7095  -16.0123   21.6424 C   0  0  0  0  0  0  0  0  0  0  0  0
    7.5153  -17.2074   22.1179 C   0  0  2  0  0  0  0  0  0  0  0  0
    6.6367  -18.0865   22.9065 N   0  0  0  0  0  0  0  0  0  0  0  0
    8.6661  -16.8011   22.9402 C   0  0  0  0  0  0  0  0  0  0  0  0
    8.5328  -16.4729   24.1588 O   0  0  0  0  0  0  0  0  0  0  0  0
    8.6369  -11.4453   17.9304 N   0  0  0  0  0  0  0  0  0  0  0  0
   11.7697  -16.7027   28.3139 C   0  0  0  0  0  0  0  0  0  0  0  0
   11.4838  -18.0989   28.4160 N   0  0  0  0  0  0  0  0  0  0  0  0
   11.7543  -18.7098   29.5286 N   0  0  0  0  0  0  0  0  0  0  0  0
   10.9155  -18.7907   27.3166 C   0  0  0  0  0  0  0  0  0  0  0  0
   11.8732  -19.1166   26.2109 C   0  0  0  0  0  0  0  0  0  0  0  0
   11.9236  -17.9009   25.3686 C   0  0  0  0  0  0  0  0  0  0  0  0
   11.1608  -17.7644   24.1480 C   0  0  2  0  0  0  0  0  0  0  0  0
   11.1295  -16.5722   23.2810 N   0  0  0  0  0  0  0  0  0  0  0  0
    9.9558  -16.7751   22.3592 C   0  0  0  0  0  0  0  0  0  0  0  0
   12.2316  -16.3242   22.3584 O   0  0  0  0  0  0  0  0  0  0  0  0
   12.2457  -16.8088   21.1584 O   0  0  0  0  0  0  0  0  0  0  0  0
  2  1  1  1
  2  3  1  0
  4  2  1  0
  5  4  2  0
  7  6  1  0
  7  8  2  0
  9  7  1  0
 10  9  1  0
 11 10  1  0
 13 12  1  1
 12 11  1  0
 13 14  1  0
 14  4  1  0
 15 25  1  0
 15 13  1  0
 16 15  2  0
 18 17  1  0
 18 19  2  0
 20 18  1  0
 21 20  1  0
 22 21  1  0
 23 22  1  0
 24 23  1  1
 24 25  1  0
 26 28  1  0
 26 24  1  0
 27 26  2  0
M  END
$$$$
