ARR.pdb
     RDKit          3D

 28 27  0  0  1  0  0  0  0  0999 V2000
    5.3236  -21.0004   23.9374 C   0  0  0  0  0  0  0  0  0  0  0  0
    5.6339  -20.4907   22.5277 C   0  0  2  0  0  0  0  0  0  0  0  0
    6.2153  -21.5756   21.7809 N   0  0  0  0  0  0  0  0  0  0  0  0
    6.5858  -19.3622   22.6935 C   0  0  0  0  0  0  0  0  0  0  0  0
    7.7797  -19.6138   22.9865 O   0  0  0  0  0  0  0  0  0  0  0  0
    8.9710  -14.5799   18.2559 N   0  0  0  0  0  0  0  0  0  0  0  0
    8.5094  -13.5314   19.0833 C   0  0  0  0  0  0  0  0  0  0  0  0
    8.7816  -12.3048   18.7327 N   0  0  0  0  0  0  0  0  0  0  0  0
    7.7774  -13.7714   20.2690 N   0  0  0  0  0  0  0  0  0  0  0  0
    8.3806  -14.2060   21.4761 C   0  0  0  0  0  0  0  0  0  0  0  0
    7.4100  -14.4474   22.5838 C   0  0  0  0  0  0  0  0  0  0  0  0
    6.5259  -15.6105   22.3223 C   0  0  0  0  0  0  0  0  0  0  0  0
    7.1651  -16.9084   22.7809 C   0  0  2  0  0  0  0  0  0  0  0  0
    6.2212  -18.0116   22.5391 N   0  0  0  0  0  0  0  0  0  0  0  0
    7.5186  -16.8714   24.2090 C   0  0  0  0  0  0  0  0  0  0  0  0
    6.6482  -16.6538   25.1064 O   0  0  0  0  0  0  0  0  0  0  0  0
    8.4042  -11.5361   19.2880 N   0  0  0  0  0  0  0  0  0  0  0  0
   13.6109  -21.0319   29.9209 C   0  0  0  0  0  0  0  0  0  0  0  0
   12.2101  -20.8089   29.7486 N   0  0  0  0  0  0  0  0  0  0  0  0
   11.3871  -21.7709   30.0335 N   0  0  0  0  0  0  0  0  0  0  0  0
   11.7423  -19.5567   29.2756 C   0  0  0  0  0  0  0  0  0  0  0  0
   11.1672  -19.5780   27.8918 C   0  0  0  0  0  0  0  0  0  0  0  0
   10.9550  -18.1571   27.5366 C   0  0  0  0  0  0  0  0  0  0  0  0
   10.4201  -17.7432   26.2588 C   0  0  2  0  0  0  0  0  0  0  0  0
    9.1988  -16.9425   26.0553 N   0  0  0  0  0  0  0  0  0  0  0  0
    8.8633  -17.0839   24.5938 C   0  0  0  0  0  0  0  0  0  0  0  0
    9.2467  -15.4968   26.2421 O   0  0  0  0  0  0  0  0  0  0  0  0
    9.5987  -14.6922   25.2914 O   0  0  0  0  0  0  0  0  0  0  0  0
  2  1  1  1
  2  3  1  0
  4  2  1  0
  5  4  2  0
  7  6  1  0
  7  8  2  0
  9  7  1  0
 10  9  1  0
 11 10  1  0
 13 12  1  1
 12 11  1  0
 13 14  1  0
 14  4  1  0
 15 25  1  0
 15 13  1  0
 16 15  2  0
 18 17  1  0
 18 19  2  0
 20 18  1  0
 21 20  1  0
 22 21  1  0
 23 22  1  0
 24 23  1  1
 24 25  1  0
 26 28  1  0
 26 24  1  0
 27 26  2  0
M  END
$$$$
