ARR.pdb
     RDKit          3D

 28 27  0  0  1  0  0  0  0  0999 V2000
    5.3625  -25.2475   16.4095 C   0  0  0  0  0  0  0  0  0  0  0  0
    6.0673  -24.7009   17.6537 C   0  0  2  0  0  0  0  0  0  0  0  0
    5.7599  -23.2983   17.7583 N   0  0  0  0  0  0  0  0  0  0  0  0
    7.5198  -24.9336   17.4449 C   0  0  0  0  0  0  0  0  0  0  0  0
    7.9395  -26.1133   17.3639 O   0  0  0  0  0  0  0  0  0  0  0  0
    8.5799  -21.6388   11.8418 N   0  0  0  0  0  0  0  0  0  0  0  0
    8.9724  -22.9397   11.4541 C   0  0  0  0  0  0  0  0  0  0  0  0
    8.4501  -23.4432   10.3700 N   0  0  0  0  0  0  0  0  0  0  0  0
    9.8971  -23.7043   12.2023 N   0  0  0  0  0  0  0  0  0  0  0  0
   10.4701  -23.2527   13.4179 C   0  0  0  0  0  0  0  0  0  0  0  0
   10.0458  -24.0376   14.6141 C   0  0  0  0  0  0  0  0  0  0  0  0
   10.3358  -23.3342   15.8884 C   0  0  0  0  0  0  0  0  0  0  0  0
    9.8913  -24.1513   17.0878 C   0  0  2  0  0  0  0  0  0  0  0  0
    8.4626  -23.8948   17.3314 N   0  0  0  0  0  0  0  0  0  0  0  0
   10.6614  -23.8156   18.2961 C   0  0  0  0  0  0  0  0  0  0  0  0
   10.4689  -22.7340   18.9311 O   0  0  0  0  0  0  0  0  0  0  0  0
    8.7207  -24.3839   10.0810 N   0  0  0  0  0  0  0  0  0  0  0  0
   10.6549  -29.2966   24.2390 C   0  0  0  0  0  0  0  0  0  0  0  0
    9.5973  -28.3842   23.9384 N   0  0  0  0  0  0  0  0  0  0  0  0
    8.4065  -28.6428   24.3850 N   0  0  0  0  0  0  0  0  0  0  0  0
    9.8573  -27.2232   23.1672 C   0  0  0  0  0  0  0  0  0  0  0  0
   11.1955  -27.1984   22.4928 C   0  0  0  0  0  0  0  0  0  0  0  0
   11.2344  -25.9179   21.7520 C   0  0  0  0  0  0  0  0  0  0  0  0
   12.3271  -25.5544   20.8777 C   0  0  2  0  0  0  0  0  0  0  0  0
   12.3832  -24.3543   20.0231 N   0  0  0  0  0  0  0  0  0  0  0  0
   11.6424  -24.7213   18.7641 C   0  0  0  0  0  0  0  0  0  0  0  0
   13.6708  -23.8876   19.5214 O   0  0  0  0  0  0  0  0  0  0  0  0
   14.5159  -23.2612   20.2754 O   0  0  0  0  0  0  0  0  0  0  0  0
  2  1  1  6
  2  3  1  0
  4  2  1  0
  5  4  2  0
  7  6  1  0
  7  8  2  0
  9  7  1  0
 10  9  1  0
 11 10  1  0
 13 12  1  6
 12 11  1  0
 13 14  1  0
 14  4  1  0
 15 25  1  0
 15 13  1  0
 16 15  2  0
 18 17  1  0
 18 19  2  0
 20 18  1  0
 21 20  1  0
 22 21  1  0
 23 22  1  0
 24 23  1  1
 24 25  1  0
 26 28  1  0
 26 24  1  0
 27 26  2  0
M  END
$$$$
