ARR.pdb
     RDKit          3D

 28 27  0  0  1  0  0  0  0  0999 V2000
   12.6144  -19.9599   19.4041 C   0  0  0  0  0  0  0  0  0  0  0  0
   12.2413  -18.6812   18.6498 C   0  0  2  0  0  0  0  0  0  0  0  0
   13.4318  -18.1744   18.0184 N   0  0  0  0  0  0  0  0  0  0  0  0
   11.7117  -17.7373   19.6676 C   0  0  0  0  0  0  0  0  0  0  0  0
   12.5185  -17.1506   20.4286 O   0  0  0  0  0  0  0  0  0  0  0  0
    8.4118  -13.2003   16.3875 N   0  0  0  0  0  0  0  0  0  0  0  0
    7.4507  -13.2488   17.4222 C   0  0  0  0  0  0  0  0  0  0  0  0
    7.2619  -12.1749   18.1383 N   0  0  0  0  0  0  0  0  0  0  0  0
    6.7034  -14.4154   17.7051 N   0  0  0  0  0  0  0  0  0  0  0  0
    6.8521  -15.1579   18.9036 C   0  0  0  0  0  0  0  0  0  0  0  0
    8.2724  -15.4123   19.2845 C   0  0  0  0  0  0  0  0  0  0  0  0
    8.3935  -16.1935   20.5406 C   0  0  0  0  0  0  0  0  0  0  0  0
    9.8415  -16.5261   20.8506 C   0  0  2  0  0  0  0  0  0  0  0  0
   10.3412  -17.4604   19.8289 N   0  0  0  0  0  0  0  0  0  0  0  0
    9.9920  -17.1325   22.1831 C   0  0  0  0  0  0  0  0  0  0  0  0
    9.8615  -18.3813   22.3666 O   0  0  0  0  0  0  0  0  0  0  0  0
    6.6563  -12.2270   18.9583 N   0  0  0  0  0  0  0  0  0  0  0  0
    9.8037  -15.1800   29.0814 C   0  0  0  0  0  0  0  0  0  0  0  0
   11.0552  -15.2740   29.7643 N   0  0  0  0  0  0  0  0  0  0  0  0
   11.1106  -14.9245   31.0129 N   0  0  0  0  0  0  0  0  0  0  0  0
   12.2054  -15.7417   29.0798 C   0  0  0  0  0  0  0  0  0  0  0  0
   12.3147  -15.3006   27.6516 C   0  0  0  0  0  0  0  0  0  0  0  0
   11.3764  -16.1669   26.9039 C   0  0  0  0  0  0  0  0  0  0  0  0
   11.1784  -16.0540   25.4761 C   0  0  1  0  0  0  0  0  0  0  0  0
   10.3534  -16.9523   24.6476 N   0  0  0  0  0  0  0  0  0  0  0  0
   10.2903  -16.3033   23.2900 C   0  0  0  0  0  0  0  0  0  0  0  0
    8.9475  -17.1504   24.9818 O   0  0  0  0  0  0  0  0  0  0  0  0
    8.0087  -16.4285   24.4598 O   0  0  0  0  0  0  0  0  0  0  0  0
  2  1  1  1
  2  3  1  0
  4  2  1  0
  5  4  2  0
  7  6  1  0
  7  8  2  0
  9  7  1  0
 10  9  1  0
 11 10  1  0
 13 12  1  6
 12 11  1  0
 13 14  1  0
 14  4  1  0
 15 25  1  0
 15 13  1  0
 16 15  2  0
 18 17  1  0
 18 19  2  0
 20 18  1  0
 21 20  1  0
 22 21  1  0
 23 22  1  0
 24 23  1  6
 24 25  1  0
 26 28  1  0
 26 24  1  0
 27 26  2  0
M  END
$$$$
