ARR.pdb
     RDKit          3D

 28 27  0  0  1  0  0  0  0  0999 V2000
    7.7278  -20.6486   22.3946 C   0  0  0  0  0  0  0  0  0  0  0  0
    7.7543  -19.8083   21.1153 C   0  0  2  0  0  0  0  0  0  0  0  0
    8.2092  -20.6504   20.0398 N   0  0  0  0  0  0  0  0  0  0  0  0
    8.6940  -18.6869   21.3737 C   0  0  0  0  0  0  0  0  0  0  0  0
    9.9208  -18.9329   21.4670 O   0  0  0  0  0  0  0  0  0  0  0  0
    8.1082  -11.8621   17.8895 N   0  0  0  0  0  0  0  0  0  0  0  0
    7.7729  -13.1213   17.3429 C   0  0  0  0  0  0  0  0  0  0  0  0
    8.1445  -13.3805   16.1197 N   0  0  0  0  0  0  0  0  0  0  0  0
    7.0486  -14.0926   18.0720 N   0  0  0  0  0  0  0  0  0  0  0  0
    7.1550  -14.2433   19.4776 C   0  0  0  0  0  0  0  0  0  0  0  0
    8.4983  -14.7045   19.9358 C   0  0  0  0  0  0  0  0  0  0  0  0
    8.5510  -14.9370   21.4007 C   0  0  0  0  0  0  0  0  0  0  0  0
    9.2380  -16.2495   21.7307 C   0  0  2  0  0  0  0  0  0  0  0  0
    8.2822  -17.3492   21.5214 N   0  0  0  0  0  0  0  0  0  0  0  0
    9.7231  -16.2809   23.1197 C   0  0  0  0  0  0  0  0  0  0  0  0
    8.9350  -16.4607   24.0979 O   0  0  0  0  0  0  0  0  0  0  0  0
    8.0124  -14.3233   15.7516 N   0  0  0  0  0  0  0  0  0  0  0  0
   12.4399  -20.5800   30.1977 C   0  0  0  0  0  0  0  0  0  0  0  0
   12.5450  -20.2444   28.8129 N   0  0  0  0  0  0  0  0  0  0  0  0
   13.6592  -20.4923   28.1953 N   0  0  0  0  0  0  0  0  0  0  0  0
   11.4464  -19.6534   28.1390 C   0  0  0  0  0  0  0  0  0  0  0  0
   11.7746  -18.4182   27.3563 C   0  0  0  0  0  0  0  0  0  0  0  0
   11.6622  -18.8163   25.9354 C   0  0  0  0  0  0  0  0  0  0  0  0
   11.1926  -17.9153   24.9068 C   0  0  1  0  0  0  0  0  0  0  0  0
   11.6186  -16.5150   24.7288 N   0  0  0  0  0  0  0  0  0  0  0  0
   11.1040  -16.1066   23.3735 C   0  0  0  0  0  0  0  0  0  0  0  0
   13.0405  -16.2001   24.6479 O   0  0  0  0  0  0  0  0  0  0  0  0
   13.7292  -15.8593   25.6894 O   0  0  0  0  0  0  0  0  0  0  0  0
  2  1  1  1
  2  3  1  0
  4  2  1  0
  5  4  2  0
  7  6  1  0
  7  8  2  0
  9  7  1  0
 10  9  1  0
 11 10  1  0
 13 12  1  1
 12 11  1  0
 13 14  1  0
 14  4  1  0
 15 25  1  0
 15 13  1  0
 16 15  2  0
 18 17  1  0
 18 19  2  0
 20 18  1  0
 21 20  1  0
 22 21  1  0
 23 22  1  0
 24 23  1  1
 24 25  1  0
 26 28  1  0
 26 24  1  0
 27 26  2  0
M  END
$$$$
