ARR.pdb
     RDKit          3D

 28 27  0  0  1  0  0  0  0  0999 V2000
    6.9236  -20.5713   20.7565 C   0  0  0  0  0  0  0  0  0  0  0  0
    7.0455  -19.4504   21.7919 C   0  0  2  0  0  0  0  0  0  0  0  0
    5.8435  -18.6600   21.7347 N   0  0  0  0  0  0  0  0  0  0  0  0
    8.2444  -18.6602   21.4103 C   0  0  0  0  0  0  0  0  0  0  0  0
    9.3590  -19.2343   21.3621 O   0  0  0  0  0  0  0  0  0  0  0  0
    8.8036  -12.1174   18.3117 N   0  0  0  0  0  0  0  0  0  0  0  0
    8.0543  -13.1646   17.7296 C   0  0  0  0  0  0  0  0  0  0  0  0
    8.1319  -13.3335   16.4385 N   0  0  0  0  0  0  0  0  0  0  0  0
    7.2274  -14.0182   18.4958 N   0  0  0  0  0  0  0  0  0  0  0  0
    6.9891  -13.8265   19.8801 C   0  0  0  0  0  0  0  0  0  0  0  0
    8.0004  -14.4782   20.7631 C   0  0  0  0  0  0  0  0  0  0  0  0
    8.9958  -15.2712   19.9996 C   0  0  0  0  0  0  0  0  0  0  0  0
    9.4093  -16.5204   20.7560 C   0  0  2  0  0  0  0  0  0  0  0  0
    8.2010  -17.2890   21.0961 N   0  0  0  0  0  0  0  0  0  0  0  0
   10.1460  -16.1969   21.9883 C   0  0  0  0  0  0  0  0  0  0  0  0
    9.5486  -15.9965   23.0898 O   0  0  0  0  0  0  0  0  0  0  0  0
    7.5865  -14.0783   16.0032 N   0  0  0  0  0  0  0  0  0  0  0  0
   11.6287  -21.4892   25.2096 C   0  0  0  0  0  0  0  0  0  0  0  0
   12.4514  -21.1775   26.3355 N   0  0  0  0  0  0  0  0  0  0  0  0
   12.5944  -22.0690   27.2676 N   0  0  0  0  0  0  0  0  0  0  0  0
   13.0933  -19.9160   26.4197 C   0  0  0  0  0  0  0  0  0  0  0  0
   12.2345  -18.7436   26.0535 C   0  0  0  0  0  0  0  0  0  0  0  0
   12.7357  -18.2901   24.7370 C   0  0  0  0  0  0  0  0  0  0  0  0
   11.9319  -17.5116   23.8214 C   0  0  1  0  0  0  0  0  0  0  0  0
   12.2992  -16.2014   23.2535 N   0  0  0  0  0  0  0  0  0  0  0  0
   11.5573  -16.1068   21.9462 C   0  0  0  0  0  0  0  0  0  0  0  0
   13.6818  -15.9476   22.8648 O   0  0  0  0  0  0  0  0  0  0  0  0
   14.5336  -15.4020   23.6722 O   0  0  0  0  0  0  0  0  0  0  0  0
  2  1  1  6
  2  3  1  0
  4  2  1  0
  5  4  2  0
  7  6  1  0
  7  8  2  0
  9  7  1  0
 10  9  1  0
 11 10  1  0
 13 12  1  1
 12 11  1  0
 13 14  1  0
 14  4  1  0
 15 25  1  0
 15 13  1  0
 16 15  2  0
 18 17  1  0
 18 19  2  0
 20 18  1  0
 21 20  1  0
 22 21  1  0
 23 22  1  0
 24 23  1  1
 24 25  1  0
 26 28  1  0
 26 24  1  0
 27 26  2  0
M  END
$$$$
