ARR.pdb
     RDKit          3D

 28 27  0  0  1  0  0  0  0  0999 V2000
    7.9621  -22.8246   20.2579 C   0  0  0  0  0  0  0  0  0  0  0  0
    7.3906  -21.4988   19.7488 C   0  0  2  0  0  0  0  0  0  0  0  0
    7.1501  -21.6322   18.3355 N   0  0  0  0  0  0  0  0  0  0  0  0
    8.4170  -20.4646   20.0389 C   0  0  0  0  0  0  0  0  0  0  0  0
    9.5600  -20.5867   19.5359 O   0  0  0  0  0  0  0  0  0  0  0  0
    6.8252  -12.1976   19.9812 N   0  0  0  0  0  0  0  0  0  0  0  0
    8.0238  -12.7358   19.4609 C   0  0  0  0  0  0  0  0  0  0  0  0
    8.8679  -11.9213   18.8902 N   0  0  0  0  0  0  0  0  0  0  0  0
    8.3264  -14.1151   19.5333 N   0  0  0  0  0  0  0  0  0  0  0  0
    7.4573  -15.0681   20.1219 C   0  0  0  0  0  0  0  0  0  0  0  0
    7.9434  -16.4752   20.0165 C   0  0  0  0  0  0  0  0  0  0  0  0
    8.5158  -16.9764   21.2908 C   0  0  0  0  0  0  0  0  0  0  0  0
    9.2032  -18.3163   21.1021 C   0  0  2  0  0  0  0  0  0  0  0  0
    8.1780  -19.3431   20.8548 N   0  0  0  0  0  0  0  0  0  0  0  0
   10.0002  -18.6948   22.2800 C   0  0  0  0  0  0  0  0  0  0  0  0
    9.4776  -19.2725   23.2817 O   0  0  0  0  0  0  0  0  0  0  0  0
    9.7104  -12.3039   18.4594 N   0  0  0  0  0  0  0  0  0  0  0  0
   16.1631  -20.7075   20.2370 C   0  0  0  0  0  0  0  0  0  0  0  0
   15.9614  -21.9710   20.8728 N   0  0  0  0  0  0  0  0  0  0  0  0
   16.0497  -23.0494   20.1563 N   0  0  0  0  0  0  0  0  0  0  0  0
   15.6719  -22.0312   22.2595 C   0  0  0  0  0  0  0  0  0  0  0  0
   15.4946  -20.7011   22.9270 C   0  0  0  0  0  0  0  0  0  0  0  0
   14.1302  -20.2606   22.5606 C   0  0  0  0  0  0  0  0  0  0  0  0
   13.5549  -19.0227   23.0374 C   0  0  2  0  0  0  0  0  0  0  0  0
   12.1695  -18.8425   23.5086 N   0  0  0  0  0  0  0  0  0  0  0  0
   11.3855  -18.4082   22.2981 C   0  0  0  0  0  0  0  0  0  0  0  0
   11.8709  -17.7998   24.4837 O   0  0  0  0  0  0  0  0  0  0  0  0
   11.5923  -16.5866   24.1292 O   0  0  0  0  0  0  0  0  0  0  0  0
  2  1  1  6
  2  3  1  0
  4  2  1  0
  5  4  2  0
  7  6  1  0
  7  8  2  0
  9  7  1  0
 10  9  1  0
 11 10  1  0
 13 12  1  1
 12 11  1  0
 13 14  1  0
 14  4  1  0
 15 25  1  0
 15 13  1  0
 16 15  2  0
 18 17  1  0
 18 19  2  0
 20 18  1  0
 21 20  1  0
 22 21  1  0
 23 22  1  0
 24 23  1  6
 24 25  1  0
 26 28  1  0
 26 24  1  0
 27 26  2  0
M  END
$$$$
