ARR.pdb
     RDKit          3D

 28 27  0  0  1  0  0  0  0  0999 V2000
    7.0049  -12.6195   18.8122 C   0  0  0  0  0  0  0  0  0  0  0  0
    8.4298  -13.1000   19.0989 C   0  0  2  0  0  0  0  0  0  0  0  0
    9.0291  -13.4846   17.8476 N   0  0  0  0  0  0  0  0  0  0  0  0
    8.3011  -14.2531   20.0268 C   0  0  0  0  0  0  0  0  0  0  0  0
    7.7035  -14.0898   21.1180 O   0  0  0  0  0  0  0  0  0  0  0  0
   11.5078  -20.2940   16.0796 N   0  0  0  0  0  0  0  0  0  0  0  0
   10.7889  -20.8603   17.1563 C   0  0  0  0  0  0  0  0  0  0  0  0
   10.9050  -22.1422   17.3678 N   0  0  0  0  0  0  0  0  0  0  0  0
    9.9519  -20.0884   17.9948 N   0  0  0  0  0  0  0  0  0  0  0  0
    9.6553  -18.7243   17.7478 C   0  0  0  0  0  0  0  0  0  0  0  0
    8.6778  -18.1349   18.7091 C   0  0  0  0  0  0  0  0  0  0  0  0
    9.2688  -17.9014   20.0504 C   0  0  0  0  0  0  0  0  0  0  0  0
    8.7007  -16.6518   20.6980 C   0  0  2  0  0  0  0  0  0  0  0  0
    8.8169  -15.5328   19.7489 N   0  0  0  0  0  0  0  0  0  0  0  0
    9.4052  -16.3111   21.9444 C   0  0  0  0  0  0  0  0  0  0  0  0
   10.5357  -15.7347   21.9357 O   0  0  0  0  0  0  0  0  0  0  0  0
   10.3907  -22.5646   18.1417 N   0  0  0  0  0  0  0  0  0  0  0  0
    6.3268  -10.5996   26.5819 C   0  0  0  0  0  0  0  0  0  0  0  0
    5.8891  -11.7709   27.2733 N   0  0  0  0  0  0  0  0  0  0  0  0
    4.8381  -11.6905   28.0303 N   0  0  0  0  0  0  0  0  0  0  0  0
    6.5978  -12.9901   27.1261 C   0  0  0  0  0  0  0  0  0  0  0  0
    7.7703  -12.9317   26.1945 C   0  0  0  0  0  0  0  0  0  0  0  0
    8.2835  -14.3182   26.1275 C   0  0  0  0  0  0  0  0  0  0  0  0
    8.2576  -15.1026   24.9132 C   0  0  1  0  0  0  0  0  0  0  0  0
    9.3526  -15.9555   24.4157 N   0  0  0  0  0  0  0  0  0  0  0  0
    8.8083  -16.6334   23.1859 C   0  0  0  0  0  0  0  0  0  0  0  0
    9.8189  -17.0742   25.2272 O   0  0  0  0  0  0  0  0  0  0  0  0
    9.3321  -18.2664   25.0986 O   0  0  0  0  0  0  0  0  0  0  0  0
  2  1  1  6
  2  3  1  0
  4  2  1  0
  5  4  2  0
  7  6  1  0
  7  8  2  0
  9  7  1  0
 10  9  1  0
 11 10  1  0
 13 12  1  6
 12 11  1  0
 13 14  1  0
 14  4  1  0
 15 25  1  0
 15 13  1  0
 16 15  2  0
 18 17  1  0
 18 19  2  0
 20 18  1  0
 21 20  1  0
 22 21  1  0
 23 22  1  0
 24 23  1  6
 24 25  1  0
 26 28  1  0
 26 24  1  0
 27 26  2  0
M  END
$$$$
