ARR.pdb
     RDKit          3D

 28 27  0  0  1  0  0  0  0  0999 V2000
    7.9739  -12.0264   19.7607 C   0  0  0  0  0  0  0  0  0  0  0  0
    7.6204  -13.2015   18.8454 C   0  0  2  0  0  0  0  0  0  0  0  0
    6.2019  -13.1641   18.6022 N   0  0  0  0  0  0  0  0  0  0  0  0
    8.0233  -14.4320   19.5739 C   0  0  0  0  0  0  0  0  0  0  0  0
    7.2227  -14.9398   20.3959 O   0  0  0  0  0  0  0  0  0  0  0  0
   14.3808  -19.8855   19.7023 N   0  0  0  0  0  0  0  0  0  0  0  0
   13.3428  -20.8200   19.9171 C   0  0  0  0  0  0  0  0  0  0  0  0
   13.6432  -21.9536   20.4883 N   0  0  0  0  0  0  0  0  0  0  0  0
   12.0069  -20.5678   19.5282 N   0  0  0  0  0  0  0  0  0  0  0  0
   11.5930  -19.3539   18.9240 C   0  0  0  0  0  0  0  0  0  0  0  0
   10.8301  -18.4537   19.8376 C   0  0  0  0  0  0  0  0  0  0  0  0
   10.5179  -17.1431   19.2150 C   0  0  0  0  0  0  0  0  0  0  0  0
    9.6330  -16.2981   20.1130 C   0  0  2  0  0  0  0  0  0  0  0  0
    9.2656  -15.0682   19.3928 N   0  0  0  0  0  0  0  0  0  0  0  0
   10.3076  -15.9444   21.3722 C   0  0  0  0  0  0  0  0  0  0  0  0
   11.1974  -15.0411   21.4217 O   0  0  0  0  0  0  0  0  0  0  0  0
   12.9057  -22.6433   20.6373 N   0  0  0  0  0  0  0  0  0  0  0  0
    9.9078  -13.4210   28.2820 C   0  0  0  0  0  0  0  0  0  0  0  0
    9.7266  -14.6608   28.9686 N   0  0  0  0  0  0  0  0  0  0  0  0
   10.3340  -14.8396   30.1014 N   0  0  0  0  0  0  0  0  0  0  0  0
    8.8966  -15.6669   28.4125 C   0  0  0  0  0  0  0  0  0  0  0  0
    8.3851  -15.3747   27.0344 C   0  0  0  0  0  0  0  0  0  0  0  0
    9.5611  -15.5086   26.1462 C   0  0  0  0  0  0  0  0  0  0  0  0
    9.4741  -16.0623   24.8134 C   0  0  2  0  0  0  0  0  0  0  0  0
   10.5825  -16.1548   23.8455 N   0  0  0  0  0  0  0  0  0  0  0  0
    9.9563  -16.6280   22.5600 C   0  0  0  0  0  0  0  0  0  0  0  0
   11.6509  -17.1230   24.0654 O   0  0  0  0  0  0  0  0  0  0  0  0
   11.5346  -18.3650   23.7204 O   0  0  0  0  0  0  0  0  0  0  0  0
  2  1  1  1
  2  3  1  0
  4  2  1  0
  5  4  2  0
  7  6  1  0
  7  8  2  0
  9  7  1  0
 10  9  1  0
 11 10  1  0
 13 12  1  6
 12 11  1  0
 13 14  1  0
 14  4  1  0
 15 25  1  0
 15 13  1  0
 16 15  2  0
 18 17  1  0
 18 19  2  0
 20 18  1  0
 21 20  1  0
 22 21  1  0
 23 22  1  0
 24 23  1  6
 24 25  1  0
 26 28  1  0
 26 24  1  0
 27 26  2  0
M  END
$$$$
