ARR.pdb
     RDKit          3D

 28 27  0  0  1  0  0  0  0  0999 V2000
    7.9673  -12.3656   20.0009 C   0  0  0  0  0  0  0  0  0  0  0  0
    8.1857  -13.5302   19.0316 C   0  0  2  0  0  0  0  0  0  0  0  0
    6.9770  -13.7068   18.2697 N   0  0  0  0  0  0  0  0  0  0  0  0
    8.4881  -14.7185   19.8706 C   0  0  0  0  0  0  0  0  0  0  0  0
    7.5365  -15.3674   20.3683 O   0  0  0  0  0  0  0  0  0  0  0  0
   10.8725  -20.7579   19.3573 N   0  0  0  0  0  0  0  0  0  0  0  0
   11.8964  -21.2292   20.2096 C   0  0  0  0  0  0  0  0  0  0  0  0
   11.9280  -22.5032   20.4883 N   0  0  0  0  0  0  0  0  0  0  0  0
   12.8700  -20.3692   20.7681 N   0  0  0  0  0  0  0  0  0  0  0  0
   12.8648  -18.9649   20.5736 C   0  0  0  0  0  0  0  0  0  0  0  0
   11.6491  -18.2853   21.1098 C   0  0  0  0  0  0  0  0  0  0  0  0
   11.3295  -17.0326   20.3809 C   0  0  0  0  0  0  0  0  0  0  0  0
   10.0669  -16.3838   20.9183 C   0  0  2  0  0  0  0  0  0  0  0  0
    9.7955  -15.1630   20.1421 N   0  0  0  0  0  0  0  0  0  0  0  0
   10.1909  -16.0396   22.3437 C   0  0  0  0  0  0  0  0  0  0  0  0
   11.0038  -15.1529   22.7478 O   0  0  0  0  0  0  0  0  0  0  0  0
   12.7016  -22.8690   21.0446 N   0  0  0  0  0  0  0  0  0  0  0  0
    5.2129  -12.1149   27.2922 C   0  0  0  0  0  0  0  0  0  0  0  0
    6.2649  -11.4126   26.6277 N   0  0  0  0  0  0  0  0  0  0  0  0
    6.5295  -10.1961   26.9941 N   0  0  0  0  0  0  0  0  0  0  0  0
    6.9973  -12.0442   25.5908 C   0  0  0  0  0  0  0  0  0  0  0  0
    6.7084  -13.5037   25.4107 C   0  0  0  0  0  0  0  0  0  0  0  0
    8.0243  -14.1330   25.1607 C   0  0  0  0  0  0  0  0  0  0  0  0
    8.1868  -15.5585   24.9825 C   0  0  2  0  0  0  0  0  0  0  0  0
    9.4607  -16.2539   24.7223 N   0  0  0  0  0  0  0  0  0  0  0  0
    9.3836  -16.7135   23.2901 C   0  0  0  0  0  0  0  0  0  0  0  0
    9.7704  -17.4826   25.4445 O   0  0  0  0  0  0  0  0  0  0  0  0
    9.4012  -18.6454   25.0125 O   0  0  0  0  0  0  0  0  0  0  0  0
  2  1  1  1
  2  3  1  0
  4  2  1  0
  5  4  2  0
  7  6  1  0
  7  8  2  0
  9  7  1  0
 10  9  1  0
 11 10  1  0
 13 12  1  6
 12 11  1  0
 13 14  1  0
 14  4  1  0
 15 25  1  0
 15 13  1  0
 16 15  2  0
 18 17  1  0
 18 19  2  0
 20 18  1  0
 21 20  1  0
 22 21  1  0
 23 22  1  0
 24 23  1  6
 24 25  1  0
 26 28  1  0
 26 24  1  0
 27 26  2  0
M  END
$$$$
