AEV.pdb
     RDKit          3D

 22 21  0  0  1  0  0  0  0  0999 V2000
    7.1072  -12.8361   18.9349 C   0  0  0  0  0  0  0  0  0  0  0  0
    8.3925  -12.9991   19.7214 C   0  0  2  0  0  0  0  0  0  0  0  0
    9.3719  -13.7172   18.9317 N   0  0  0  0  0  0  0  0  0  0  0  0
    8.0923  -13.7604   20.9666 C   0  0  0  0  0  0  0  0  0  0  0  0
    7.2281  -13.3134   21.7580 O   0  0  0  0  0  0  0  0  0  0  0  0
    8.7428  -14.9666   21.2914 N   0  0  0  0  0  0  0  0  0  0  0  0
    8.5082  -15.6677   22.5631 C   0  0  1  0  0  0  0  0  0  0  0  0
    9.1899  -17.0003   22.4140 C   0  0  0  0  0  0  0  0  0  0  0  0
    9.1410  -17.8354   23.6733 C   0  0  0  0  0  0  0  0  0  0  0  0
    9.7660  -19.1718   23.4255 C   0  0  0  0  0  0  0  0  0  0  0  0
   10.1326  -19.5391   22.2919 O   0  0  0  0  0  0  0  0  0  0  0  0
    8.9767  -14.8631   23.6960 C   0  0  0  0  0  0  0  0  0  0  0  0
   10.1174  -14.3987   23.8097 O   0  0  0  0  0  0  0  0  0  0  0  0
    9.9316  -20.0097   24.5070 O   0  0  0  0  0  0  0  0  0  0  0  0
    6.1116  -13.3467   26.6358 C   0  0  0  0  0  0  0  0  0  0  0  0
    7.4874  -12.8144   26.3878 C   0  0  2  0  0  0  0  0  0  0  0  0
    7.4314  -11.7704   25.2980 C   0  0  0  0  0  0  0  0  0  0  0  0
    8.4716  -13.8763   25.9553 C   0  0  2  0  0  0  0  0  0  0  0  0
    8.0554  -14.5796   24.7696 N   0  0  0  0  0  0  0  0  0  0  0  0
    8.7518  -14.8147   27.0725 C   0  0  0  0  0  0  0  0  0  0  0  0
    9.2286  -14.3935   28.1522 O   0  0  0  0  0  0  0  0  0  0  0  0
    8.4969  -16.1680   26.9550 O   0  0  0  0  0  0  0  0  0  0  0  0
  2  1  1  6
  2  3  1  0
  4  2  1  0
  4  6  1  0
  5  4  2  0
  7  6  1  0
  7 12  1  0
  7  8  1  6
  9  8  1  0
  9 10  1  0
 10 14  1  0
 11 10  2  0
 12 19  1  0
 12 13  2  0
 16 15  1  6
 17 16  1  0
 18 16  1  0
 18 20  1  0
 18 19  1  6
 20 22  1  0
 21 20  2  0
M  END
$$$$
