AEV.pdb
     RDKit          3D

 22 21  0  0  1  0  0  0  0  0999 V2000
    7.9918  -12.3190   19.2885 C   0  0  0  0  0  0  0  0  0  0  0  0
    8.3758  -13.7834   19.2163 C   0  0  2  0  0  0  0  0  0  0  0  0
    7.7318  -14.4117   18.0809 N   0  0  0  0  0  0  0  0  0  0  0  0
    7.9402  -14.4498   20.4757 C   0  0  0  0  0  0  0  0  0  0  0  0
    6.7729  -14.9024   20.5506 O   0  0  0  0  0  0  0  0  0  0  0  0
    8.7902  -14.5923   21.5896 N   0  0  0  0  0  0  0  0  0  0  0  0
    8.3684  -15.2869   22.8157 C   0  0  1  0  0  0  0  0  0  0  0  0
    8.9556  -16.6679   22.7122 C   0  0  0  0  0  0  0  0  0  0  0  0
   10.4527  -16.6613   22.5014 C   0  0  0  0  0  0  0  0  0  0  0  0
   10.9781  -18.0619   22.5187 C   0  0  0  0  0  0  0  0  0  0  0  0
   10.8379  -18.8408   21.5554 O   0  0  0  0  0  0  0  0  0  0  0  0
    8.7761  -14.5354   24.0070 C   0  0  0  0  0  0  0  0  0  0  0  0
    9.8858  -14.0136   24.1684 O   0  0  0  0  0  0  0  0  0  0  0  0
   11.6376  -18.4826   23.6531 O   0  0  0  0  0  0  0  0  0  0  0  0
    5.7585  -13.1435   26.7785 C   0  0  0  0  0  0  0  0  0  0  0  0
    7.1515  -12.6122   26.6562 C   0  0  2  0  0  0  0  0  0  0  0  0
    7.1900  -11.5500   25.5834 C   0  0  0  0  0  0  0  0  0  0  0  0
    8.1662  -13.6705   26.2903 C   0  0  2  0  0  0  0  0  0  0  0  0
    7.8283  -14.3804   25.0838 N   0  0  0  0  0  0  0  0  0  0  0  0
    8.3808  -14.6032   27.4266 C   0  0  0  0  0  0  0  0  0  0  0  0
    8.1023  -15.8197   27.3119 O   0  0  0  0  0  0  0  0  0  0  0  0
    8.8896  -14.1607   28.6330 O   0  0  0  0  0  0  0  0  0  0  0  0
  2  1  1  1
  2  3  1  0
  4  2  1  0
  4  6  1  0
  5  4  2  0
  7  6  1  0
  7 12  1  0
  7  8  1  1
  9  8  1  0
  9 10  1  0
 10 14  1  0
 11 10  2  0
 12 19  1  0
 12 13  2  0
 16 15  1  6
 17 16  1  0
 18 16  1  0
 18 20  1  0
 18 19  1  6
 20 22  1  0
 21 20  2  0
M  END
$$$$
