AEV.pdb
     RDKit          3D

 22 21  0  0  1  0  0  0  0  0999 V2000
    8.3334  -12.0689   19.6093 C   0  0  0  0  0  0  0  0  0  0  0  0
    8.2776  -13.5642   19.3680 C   0  0  2  0  0  0  0  0  0  0  0  0
    7.2404  -13.8749   18.4054 N   0  0  0  0  0  0  0  0  0  0  0  0
    7.9842  -14.2420   20.6620 C   0  0  0  0  0  0  0  0  0  0  0  0
    6.7904  -14.3624   21.0273 O   0  0  0  0  0  0  0  0  0  0  0  0
    8.9979  -14.7549   21.4944 N   0  0  0  0  0  0  0  0  0  0  0  0
    8.6997  -15.5084   22.7221 C   0  0  1  0  0  0  0  0  0  0  0  0
    9.4871  -16.7848   22.6063 C   0  0  0  0  0  0  0  0  0  0  0  0
    9.2803  -17.7174   23.7780 C   0  0  0  0  0  0  0  0  0  0  0  0
   10.0339  -18.9908   23.5577 C   0  0  0  0  0  0  0  0  0  0  0  0
    9.5864  -19.9204   22.8579 O   0  0  0  0  0  0  0  0  0  0  0  0
    9.0032  -14.7071   23.9121 C   0  0  0  0  0  0  0  0  0  0  0  0
   10.1043  -14.2028   24.1630 O   0  0  0  0  0  0  0  0  0  0  0  0
   11.2661  -19.1162   24.1617 O   0  0  0  0  0  0  0  0  0  0  0  0
    5.7165  -13.4569   26.4504 C   0  0  0  0  0  0  0  0  0  0  0  0
    7.0514  -12.7828   26.4159 C   0  0  2  0  0  0  0  0  0  0  0  0
    7.0340  -11.6906   25.3730 C   0  0  0  0  0  0  0  0  0  0  0  0
    8.1874  -13.7205   26.0788 C   0  0  2  0  0  0  0  0  0  0  0  0
    7.9543  -14.4769   24.8757 N   0  0  0  0  0  0  0  0  0  0  0  0
    8.4886  -14.6107   27.2295 C   0  0  0  0  0  0  0  0  0  0  0  0
    8.8722  -14.1303   28.3216 O   0  0  0  0  0  0  0  0  0  0  0  0
    8.3559  -15.9829   27.1303 O   0  0  0  0  0  0  0  0  0  0  0  0
  2  1  1  1
  2  3  1  0
  4  2  1  0
  4  6  1  0
  5  4  2  0
  7  6  1  0
  7 12  1  0
  7  8  1  1
  9  8  1  0
  9 10  1  0
 10 14  1  0
 11 10  2  0
 12 19  1  0
 12 13  2  0
 16 15  1  6
 17 16  1  0
 18 16  1  0
 18 20  1  0
 18 19  1  6
 20 22  1  0
 21 20  2  0
M  END
$$$$
