AEV.pdb
     RDKit          3D

 22 21  0  0  1  0  0  0  0  0999 V2000
    8.4698  -12.6129   19.3925 C   0  0  0  0  0  0  0  0  0  0  0  0
    8.1639  -14.0973   19.3826 C   0  0  2  0  0  0  0  0  0  0  0  0
    7.1424  -14.3888   18.3976 N   0  0  0  0  0  0  0  0  0  0  0  0
    7.6850  -14.4911   20.7375 C   0  0  0  0  0  0  0  0  0  0  0  0
    6.4876  -14.2778   21.0439 O   0  0  0  0  0  0  0  0  0  0  0  0
    8.5265  -15.0955   21.6915 N   0  0  0  0  0  0  0  0  0  0  0  0
    8.0274  -15.5676   22.9922 C   0  0  1  0  0  0  0  0  0  0  0  0
    8.3935  -17.0253   23.0531 C   0  0  0  0  0  0  0  0  0  0  0  0
    7.2103  -17.9222   23.3383 C   0  0  0  0  0  0  0  0  0  0  0  0
    7.6375  -19.0789   24.1855 C   0  0  0  0  0  0  0  0  0  0  0  0
    8.4645  -19.9256   23.7938 O   0  0  0  0  0  0  0  0  0  0  0  0
    8.5693  -14.7537   24.0849 C   0  0  0  0  0  0  0  0  0  0  0  0
    9.7494  -14.3965   24.1827 O   0  0  0  0  0  0  0  0  0  0  0  0
    7.0816  -19.1901   25.4415 O   0  0  0  0  0  0  0  0  0  0  0  0
    5.8002  -13.0176   26.9893 C   0  0  0  0  0  0  0  0  0  0  0  0
    7.1573  -12.4746   26.6712 C   0  0  2  0  0  0  0  0  0  0  0  0
    7.0455  -11.4768   25.5430 C   0  0  0  0  0  0  0  0  0  0  0  0
    8.1436  -13.5379   26.2469 C   0  0  2  0  0  0  0  0  0  0  0  0
    7.6774  -14.3261   25.1355 N   0  0  0  0  0  0  0  0  0  0  0  0
    8.5161  -14.3952   27.4017 C   0  0  0  0  0  0  0  0  0  0  0  0
    8.2019  -15.6082   27.4204 O   0  0  0  0  0  0  0  0  0  0  0  0
    9.2140  -13.8846   28.4799 O   0  0  0  0  0  0  0  0  0  0  0  0
  2  1  1  1
  2  3  1  0
  4  2  1  0
  4  6  1  0
  5  4  2  0
  7  6  1  0
  7 12  1  0
  7  8  1  1
  9  8  1  0
  9 10  1  0
 10 14  1  0
 11 10  2  0
 12 19  1  0
 12 13  2  0
 16 15  1  6
 17 16  1  0
 18 16  1  0
 18 20  1  0
 18 19  1  6
 20 22  1  0
 21 20  2  0
M  END
$$$$
