AEV.pdb
     RDKit          3D

 22 21  0  0  1  0  0  0  0  0999 V2000
   -2.1697  -28.8331   28.3327 C   0  0  0  0  0  0  0  0  0  0  0  0
   -2.4166  -27.8724   29.4786 C   0  0  2  0  0  0  0  0  0  0  0  0
   -2.6662  -28.6088   30.7009 N   0  0  0  0  0  0  0  0  0  0  0  0
   -3.6011  -27.0322   29.1453 C   0  0  0  0  0  0  0  0  0  0  0  0
   -3.5305  -26.2414   28.1744 O   0  0  0  0  0  0  0  0  0  0  0  0
   -4.8013  -27.0909   29.8798 N   0  0  0  0  0  0  0  0  0  0  0  0
   -5.9925  -26.3154   29.5013 C   0  0  1  0  0  0  0  0  0  0  0  0
   -7.1552  -27.0495   30.1113 C   0  0  0  0  0  0  0  0  0  0  0  0
   -8.4692  -26.3203   29.9461 C   0  0  0  0  0  0  0  0  0  0  0  0
   -9.5862  -27.1467   30.5007 C   0  0  0  0  0  0  0  0  0  0  0  0
   -9.4000  -28.2732   31.0015 O   0  0  0  0  0  0  0  0  0  0  0  0
   -5.8605  -24.9176   29.9242 C   0  0  0  0  0  0  0  0  0  0  0  0
   -5.5785  -24.5493   31.0708 O   0  0  0  0  0  0  0  0  0  0  0  0
  -10.8586  -26.6208   30.4441 O   0  0  0  0  0  0  0  0  0  0  0  0
   -3.8764  -22.2902   27.7798 C   0  0  0  0  0  0  0  0  0  0  0  0
   -5.1965  -21.7094   28.1769 C   0  0  2  0  0  0  0  0  0  0  0  0
   -4.9933  -20.2980   28.6742 C   0  0  0  0  0  0  0  0  0  0  0  0
   -5.8875  -22.4868   29.2730 C   0  0  2  0  0  0  0  0  0  0  0  0
   -6.0709  -23.8773   28.9467 N   0  0  0  0  0  0  0  0  0  0  0  0
   -7.1745  -21.8412   29.6394 C   0  0  0  0  0  0  0  0  0  0  0  0
   -8.2589  -22.2909   29.2006 O   0  0  0  0  0  0  0  0  0  0  0  0
   -7.2134  -20.7354   30.4675 O   0  0  0  0  0  0  0  0  0  0  0  0
  2  1  1  6
  2  3  1  0
  4  2  1  0
  4  6  1  0
  5  4  2  0
  7  6  1  0
  7 12  1  0
  7  8  1  1
  9  8  1  0
  9 10  1  0
 10 14  1  0
 11 10  2  0
 12 19  1  0
 12 13  2  0
 16 15  1  1
 17 16  1  0
 18 16  1  0
 18 20  1  0
 18 19  1  6
 20 22  1  0
 21 20  2  0
M  END
$$$$
