AEV.pdb
     RDKit          3D

 22 21  0  0  1  0  0  0  0  0999 V2000
    8.2786  -12.2399   19.4246 C   0  0  0  0  0  0  0  0  0  0  0  0
    8.2479  -13.7345   19.1748 C   0  0  2  0  0  0  0  0  0  0  0  0
    7.2158  -14.0572   18.2108 N   0  0  0  0  0  0  0  0  0  0  0  0
    7.9664  -14.4246   20.4650 C   0  0  0  0  0  0  0  0  0  0  0  0
    6.7741  -14.6074   20.8082 O   0  0  0  0  0  0  0  0  0  0  0  0
    8.9900  -14.8815   21.3177 N   0  0  0  0  0  0  0  0  0  0  0  0
    8.7093  -15.6521   22.5389 C   0  0  1  0  0  0  0  0  0  0  0  0
    9.5752  -16.8784   22.4429 C   0  0  0  0  0  0  0  0  0  0  0  0
    9.4080  -17.8156   23.6174 C   0  0  0  0  0  0  0  0  0  0  0  0
   10.2733  -19.0224   23.4362 C   0  0  0  0  0  0  0  0  0  0  0  0
   11.0441  -19.1531   22.4650 O   0  0  0  0  0  0  0  0  0  0  0  0
    8.9357  -14.8343   23.7348 C   0  0  0  0  0  0  0  0  0  0  0  0
    9.9700  -14.1986   23.9713 O   0  0  0  0  0  0  0  0  0  0  0  0
   10.1972  -20.0121   24.3920 O   0  0  0  0  0  0  0  0  0  0  0  0
    6.4999  -12.1618   25.0443 C   0  0  0  0  0  0  0  0  0  0  0  0
    6.8366  -13.0712   26.1833 C   0  0  2  0  0  0  0  0  0  0  0  0
    7.1435  -12.2452   27.4098 C   0  0  0  0  0  0  0  0  0  0  0  0
    8.0340  -13.9524   25.9126 C   0  0  2  0  0  0  0  0  0  0  0  0
    7.8875  -14.7504   24.7228 N   0  0  0  0  0  0  0  0  0  0  0  0
    8.3404  -14.7954   27.0969 C   0  0  0  0  0  0  0  0  0  0  0  0
    7.9763  -15.9939   27.1356 O   0  0  0  0  0  0  0  0  0  0  0  0
    9.0301  -14.2871   28.1815 O   0  0  0  0  0  0  0  0  0  0  0  0
  2  1  1  1
  2  3  1  0
  4  2  1  0
  4  6  1  0
  5  4  2  0
  7  6  1  0
  7 12  1  0
  7  8  1  1
  9  8  1  0
  9 10  1  0
 10 14  1  0
 11 10  2  0
 12 19  1  0
 12 13  2  0
 16 15  1  6
 17 16  1  0
 18 16  1  0
 18 20  1  0
 18 19  1  6
 20 22  1  0
 21 20  2  0
M  END
$$$$
