AEV.pdb
     RDKit          3D

 22 21  0  0  1  0  0  0  0  0999 V2000
    8.1514  -12.2201   19.6606 C   0  0  0  0  0  0  0  0  0  0  0  0
    8.3007  -13.7141   19.4537 C   0  0  2  0  0  0  0  0  0  0  0  0
    7.3855  -14.1687   18.4268 N   0  0  0  0  0  0  0  0  0  0  0  0
    7.9979  -14.4028   20.7399 C   0  0  0  0  0  0  0  0  0  0  0  0
    6.8002  -14.5592   21.0774 O   0  0  0  0  0  0  0  0  0  0  0  0
    9.0070  -14.8869   21.5949 N   0  0  0  0  0  0  0  0  0  0  0  0
    8.7024  -15.5637   22.8649 C   0  0  1  0  0  0  0  0  0  0  0  0
    9.4932  -16.8430   22.8332 C   0  0  0  0  0  0  0  0  0  0  0  0
    8.9932  -17.8234   21.7966 C   0  0  0  0  0  0  0  0  0  0  0  0
    9.8711  -19.0345   21.7724 C   0  0  0  0  0  0  0  0  0  0  0  0
   10.3868  -19.5076   22.8042 O   0  0  0  0  0  0  0  0  0  0  0  0
    8.9967  -14.6897   24.0049 C   0  0  0  0  0  0  0  0  0  0  0  0
   10.0493  -14.0589   24.1592 O   0  0  0  0  0  0  0  0  0  0  0  0
   10.1029  -19.6309   20.5519 O   0  0  0  0  0  0  0  0  0  0  0  0
    5.7936  -13.6255   26.7501 C   0  0  0  0  0  0  0  0  0  0  0  0
    7.0776  -12.8735   26.5961 C   0  0  2  0  0  0  0  0  0  0  0  0
    6.9205  -11.8305   25.5153 C   0  0  0  0  0  0  0  0  0  0  0  0
    8.2457  -13.7541   26.2172 C   0  0  2  0  0  0  0  0  0  0  0  0
    7.9982  -14.5392   25.0356 N   0  0  0  0  0  0  0  0  0  0  0  0
    8.6476  -14.6101   27.3631 C   0  0  0  0  0  0  0  0  0  0  0  0
    8.5204  -15.8553   27.3017 O   0  0  0  0  0  0  0  0  0  0  0  0
    9.1689  -14.0631   28.5203 O   0  0  0  0  0  0  0  0  0  0  0  0
  2  1  1  1
  2  3  1  0
  4  2  1  0
  4  6  1  0
  5  4  2  0
  7  6  1  0
  7 12  1  0
  7  8  1  1
  9  8  1  0
  9 10  1  0
 10 14  1  0
 11 10  2  0
 12 19  1  0
 12 13  2  0
 16 15  1  6
 17 16  1  0
 18 16  1  0
 18 20  1  0
 18 19  1  6
 20 22  1  0
 21 20  2  0
M  END
$$$$
