AEV.pdb
     RDKit          3D

 22 21  0  0  1  0  0  0  0  0999 V2000
    7.9455  -12.4391   19.1581 C   0  0  0  0  0  0  0  0  0  0  0  0
    8.5571  -13.8249   19.1065 C   0  0  2  0  0  0  0  0  0  0  0  0
    8.1564  -14.5011   17.8896 N   0  0  0  0  0  0  0  0  0  0  0  0
    8.0841  -14.5956   20.2908 C   0  0  0  0  0  0  0  0  0  0  0  0
    7.2403  -15.5082   20.1237 O   0  0  0  0  0  0  0  0  0  0  0  0
    8.5488  -14.3390   21.5953 N   0  0  0  0  0  0  0  0  0  0  0  0
    8.1523  -15.1642   22.7468 C   0  0  1  0  0  0  0  0  0  0  0  0
    8.6290  -16.5537   22.4229 C   0  0  0  0  0  0  0  0  0  0  0  0
   10.0754  -16.5972   21.9849 C   0  0  0  0  0  0  0  0  0  0  0  0
   10.4823  -18.0089   21.7028 C   0  0  0  0  0  0  0  0  0  0  0  0
   10.1507  -18.6048   20.6592 O   0  0  0  0  0  0  0  0  0  0  0  0
    8.6860  -14.6086   23.9945 C   0  0  0  0  0  0  0  0  0  0  0  0
    9.8624  -14.2708   24.1719 O   0  0  0  0  0  0  0  0  0  0  0  0
   11.2521  -18.6524   22.6474 O   0  0  0  0  0  0  0  0  0  0  0  0
    5.8532  -12.9909   26.7020 C   0  0  0  0  0  0  0  0  0  0  0  0
    7.3046  -12.6292   26.7130 C   0  0  2  0  0  0  0  0  0  0  0  0
    7.5465  -11.4992   25.7407 C   0  0  0  0  0  0  0  0  0  0  0  0
    8.2101  -13.7736   26.3204 C   0  0  2  0  0  0  0  0  0  0  0  0
    7.7898  -14.4342   25.1118 N   0  0  0  0  0  0  0  0  0  0  0  0
    8.3524  -14.7358   27.4433 C   0  0  0  0  0  0  0  0  0  0  0  0
    7.9321  -15.9110   27.3307 O   0  0  0  0  0  0  0  0  0  0  0  0
    8.9473  -14.3664   28.6349 O   0  0  0  0  0  0  0  0  0  0  0  0
  2  1  1  6
  2  3  1  0
  4  2  1  0
  4  6  1  0
  5  4  2  0
  7  6  1  0
  7 12  1  0
  7  8  1  6
  9  8  1  0
  9 10  1  0
 10 14  1  0
 11 10  2  0
 12 19  1  0
 12 13  2  0
 16 15  1  6
 17 16  1  0
 18 16  1  0
 18 20  1  0
 18 19  1  6
 20 22  1  0
 21 20  2  0
M  END
$$$$
