AEV.pdb
     RDKit          3D

 22 21  0  0  1  0  0  0  0  0999 V2000
    8.0201  -12.2799   19.6156 C   0  0  0  0  0  0  0  0  0  0  0  0
    8.3440  -13.7297   19.3148 C   0  0  2  0  0  0  0  0  0  0  0  0
    7.5053  -14.2142   18.2375 N   0  0  0  0  0  0  0  0  0  0  0  0
    8.1000  -14.5344   20.5448 C   0  0  0  0  0  0  0  0  0  0  0  0
    6.9300  -14.9019   20.8077 O   0  0  0  0  0  0  0  0  0  0  0  0
    9.1348  -14.9002   21.4274 N   0  0  0  0  0  0  0  0  0  0  0  0
    8.8829  -15.6617   22.6605 C   0  0  1  0  0  0  0  0  0  0  0  0
    9.8206  -16.8363   22.6008 C   0  0  0  0  0  0  0  0  0  0  0  0
    9.4697  -17.8202   21.5079 C   0  0  0  0  0  0  0  0  0  0  0  0
   10.4823  -18.9206   21.4655 C   0  0  0  0  0  0  0  0  0  0  0  0
   11.6594  -18.7614   21.8442 O   0  0  0  0  0  0  0  0  0  0  0  0
    9.0441  -14.8084   23.8421 C   0  0  0  0  0  0  0  0  0  0  0  0
   10.0645  -14.1656   24.1162 O   0  0  0  0  0  0  0  0  0  0  0  0
   10.0738  -20.1461   20.9858 O   0  0  0  0  0  0  0  0  0  0  0  0
    6.3263  -12.2460   25.2564 C   0  0  0  0  0  0  0  0  0  0  0  0
    6.7777  -13.1888   26.3265 C   0  0  2  0  0  0  0  0  0  0  0  0
    7.0269  -12.4176   27.6008 C   0  0  0  0  0  0  0  0  0  0  0  0
    8.0515  -13.9238   25.9789 C   0  0  2  0  0  0  0  0  0  0  0  0
    7.9430  -14.6954   24.7677 N   0  0  0  0  0  0  0  0  0  0  0  0
    8.4971  -14.7647   27.1197 C   0  0  0  0  0  0  0  0  0  0  0  0
    8.8369  -14.2366   28.2042 O   0  0  0  0  0  0  0  0  0  0  0  0
    8.5494  -16.1422   27.0195 O   0  0  0  0  0  0  0  0  0  0  0  0
  2  1  1  1
  2  3  1  0
  4  2  1  0
  4  6  1  0
  5  4  2  0
  7  6  1  0
  7 12  1  0
  7  8  1  1
  9  8  1  0
  9 10  1  0
 10 14  1  0
 11 10  2  0
 12 19  1  0
 12 13  2  0
 16 15  1  6
 17 16  1  0
 18 16  1  0
 18 20  1  0
 18 19  1  6
 20 22  1  0
 21 20  2  0
M  END
$$$$
