AEV.pdb
     RDKit          3D

 22 21  0  0  1  0  0  0  0  0999 V2000
    7.1203  -13.5811   18.9338 C   0  0  0  0  0  0  0  0  0  0  0  0
    8.2577  -13.2426   19.8767 C   0  0  2  0  0  0  0  0  0  0  0  0
    9.5248  -13.6192   19.2838 N   0  0  0  0  0  0  0  0  0  0  0  0
    8.0551  -13.9890   21.1502 C   0  0  0  0  0  0  0  0  0  0  0  0
    6.9783  -13.8409   21.7759 O   0  0  0  0  0  0  0  0  0  0  0  0
    9.0284  -14.8573   21.6814 N   0  0  0  0  0  0  0  0  0  0  0  0
    8.8327  -15.5739   22.9511 C   0  0  1  0  0  0  0  0  0  0  0  0
    9.6891  -16.8063   22.8481 C   0  0  0  0  0  0  0  0  0  0  0  0
    9.1626  -17.8124   21.8501 C   0  0  0  0  0  0  0  0  0  0  0  0
   10.1021  -18.9722   21.7486 C   0  0  0  0  0  0  0  0  0  0  0  0
    9.7252  -20.1525   21.8873 O   0  0  0  0  0  0  0  0  0  0  0  0
    9.1419  -14.7065   24.0922 C   0  0  0  0  0  0  0  0  0  0  0  0
   10.2198  -14.1259   24.2674 O   0  0  0  0  0  0  0  0  0  0  0  0
   11.4281  -18.6992   21.4916 O   0  0  0  0  0  0  0  0  0  0  0  0
    5.9149  -13.3959   26.7573 C   0  0  0  0  0  0  0  0  0  0  0  0
    7.2191  -12.7048   26.5144 C   0  0  2  0  0  0  0  0  0  0  0  0
    7.0875  -11.7932   25.3175 C   0  0  0  0  0  0  0  0  0  0  0  0
    8.3601  -13.6574   26.2420 C   0  0  2  0  0  0  0  0  0  0  0  0
    8.1280  -14.5005   25.0979 N   0  0  0  0  0  0  0  0  0  0  0  0
    8.6710  -14.4597   27.4531 C   0  0  0  0  0  0  0  0  0  0  0  0
    8.5190  -15.7036   27.4479 O   0  0  0  0  0  0  0  0  0  0  0  0
    9.1330  -13.8631   28.6110 O   0  0  0  0  0  0  0  0  0  0  0  0
  2  1  1  6
  2  3  1  0
  4  2  1  0
  4  6  1  0
  5  4  2  0
  7  6  1  0
  7 12  1  0
  7  8  1  6
  9  8  1  0
  9 10  1  0
 10 14  1  0
 11 10  2  0
 12 19  1  0
 12 13  2  0
 16 15  1  6
 17 16  1  0
 18 16  1  0
 18 20  1  0
 18 19  1  6
 20 22  1  0
 21 20  2  0
M  END
$$$$
