AEV.pdb
     RDKit          3D

 22 21  0  0  1  0  0  0  0  0999 V2000
    8.1063  -12.3536   19.5435 C   0  0  0  0  0  0  0  0  0  0  0  0
    8.1452  -13.8673   19.4783 C   0  0  2  0  0  0  0  0  0  0  0  0
    7.0252  -14.3614   18.7037 N   0  0  0  0  0  0  0  0  0  0  0  0
    8.0736  -14.4032   20.8668 C   0  0  0  0  0  0  0  0  0  0  0  0
    6.9638  -14.4306   21.4504 O   0  0  0  0  0  0  0  0  0  0  0  0
    9.2068  -14.8819   21.5525 N   0  0  0  0  0  0  0  0  0  0  0  0
    9.1040  -15.6154   22.8234 C   0  0  1  0  0  0  0  0  0  0  0  0
   10.1351  -16.7073   22.7366 C   0  0  0  0  0  0  0  0  0  0  0  0
    9.8173  -17.7401   21.6793 C   0  0  0  0  0  0  0  0  0  0  0  0
   10.9154  -18.7535   21.6076 C   0  0  0  0  0  0  0  0  0  0  0  0
   11.4506  -19.0849   20.5314 O   0  0  0  0  0  0  0  0  0  0  0  0
    9.2671  -14.7079   23.9636 C   0  0  0  0  0  0  0  0  0  0  0  0
   10.1986  -13.9061   24.1016 O   0  0  0  0  0  0  0  0  0  0  0  0
   11.3328  -19.3275   22.7888 O   0  0  0  0  0  0  0  0  0  0  0  0
    5.9445  -13.8144   26.5276 C   0  0  0  0  0  0  0  0  0  0  0  0
    7.2428  -13.0717   26.5035 C   0  0  2  0  0  0  0  0  0  0  0  0
    7.1921  -12.0092   25.4315 C   0  0  0  0  0  0  0  0  0  0  0  0
    8.4337  -13.9564   26.2162 C   0  0  2  0  0  0  0  0  0  0  0  0
    8.2790  -14.7352   25.0148 N   0  0  0  0  0  0  0  0  0  0  0  0
    8.7376  -14.8194   27.3867 C   0  0  0  0  0  0  0  0  0  0  0  0
    8.6473  -16.0662   27.2979 O   0  0  0  0  0  0  0  0  0  0  0  0
    9.1254  -14.2774   28.5975 O   0  0  0  0  0  0  0  0  0  0  0  0
  2  1  1  1
  2  3  1  0
  4  2  1  0
  4  6  1  0
  5  4  2  0
  7  6  1  0
  7 12  1  0
  7  8  1  6
  9  8  1  0
  9 10  1  0
 10 14  1  0
 11 10  2  0
 12 19  1  0
 12 13  2  0
 16 15  1  6
 17 16  1  0
 18 16  1  0
 18 20  1  0
 18 19  1  6
 20 22  1  0
 21 20  2  0
M  END
$$$$
