AEV.pdb
     RDKit          3D

 22 21  0  0  1  0  0  0  0  0999 V2000
    8.2491  -12.2657   19.4687 C   0  0  0  0  0  0  0  0  0  0  0  0
    8.4056  -13.7584   19.2577 C   0  0  2  0  0  0  0  0  0  0  0  0
    7.5178  -14.2084   18.2050 N   0  0  0  0  0  0  0  0  0  0  0  0
    8.0704  -14.4544   20.5319 C   0  0  0  0  0  0  0  0  0  0  0  0
    6.8650  -14.6490   20.8184 O   0  0  0  0  0  0  0  0  0  0  0  0
    9.0570  -14.9040   21.4307 N   0  0  0  0  0  0  0  0  0  0  0  0
    8.7227  -15.6349   22.6627 C   0  0  1  0  0  0  0  0  0  0  0  0
    9.5474  -16.8920   22.6154 C   0  0  0  0  0  0  0  0  0  0  0  0
    9.4205  -17.6353   21.3051 C   0  0  0  0  0  0  0  0  0  0  0  0
   10.2537  -18.8774   21.3386 C   0  0  0  0  0  0  0  0  0  0  0  0
   10.9170  -19.2111   22.3401 O   0  0  0  0  0  0  0  0  0  0  0  0
    8.9506  -14.7967   23.8441 C   0  0  0  0  0  0  0  0  0  0  0  0
    9.9995  -14.1883   24.0878 O   0  0  0  0  0  0  0  0  0  0  0  0
   10.2718  -19.6649   20.2080 O   0  0  0  0  0  0  0  0  0  0  0  0
    6.4488  -12.1128   25.3384 C   0  0  0  0  0  0  0  0  0  0  0  0
    6.8511  -13.0891   26.3980 C   0  0  2  0  0  0  0  0  0  0  0  0
    7.1759  -12.3422   27.6698 C   0  0  0  0  0  0  0  0  0  0  0  0
    8.0637  -13.9106   26.0263 C   0  0  2  0  0  0  0  0  0  0  0  0
    7.8856  -14.6567   24.8075 N   0  0  0  0  0  0  0  0  0  0  0  0
    8.4594  -14.7962   27.1516 C   0  0  0  0  0  0  0  0  0  0  0  0
    8.1333  -16.0062   27.1535 O   0  0  0  0  0  0  0  0  0  0  0  0
    9.1925  -14.3158   28.2203 O   0  0  0  0  0  0  0  0  0  0  0  0
  2  1  1  1
  2  3  1  0
  4  2  1  0
  4  6  1  0
  5  4  2  0
  7  6  1  0
  7 12  1  0
  7  8  1  1
  9  8  1  0
  9 10  1  0
 10 14  1  0
 11 10  2  0
 12 19  1  0
 12 13  2  0
 16 15  1  6
 17 16  1  0
 18 16  1  0
 18 20  1  0
 18 19  1  6
 20 22  1  0
 21 20  2  0
M  END
$$$$
