AEV.pdb
     RDKit          3D

 22 21  0  0  1  0  0  0  0  0999 V2000
    8.1738  -12.3404   19.1092 C   0  0  0  0  0  0  0  0  0  0  0  0
    8.4699  -13.8213   18.9809 C   0  0  2  0  0  0  0  0  0  0  0  0
    7.8338  -14.3553   17.7939 N   0  0  0  0  0  0  0  0  0  0  0  0
    7.9448  -14.5157   20.1902 C   0  0  0  0  0  0  0  0  0  0  0  0
    6.7863  -14.9951   20.1598 O   0  0  0  0  0  0  0  0  0  0  0  0
    8.7005  -14.6555   21.3704 N   0  0  0  0  0  0  0  0  0  0  0  0
    8.1908  -15.3731   22.5490 C   0  0  1  0  0  0  0  0  0  0  0  0
    8.7029  -16.7806   22.4097 C   0  0  0  0  0  0  0  0  0  0  0  0
   10.2122  -16.8615   22.3747 C   0  0  0  0  0  0  0  0  0  0  0  0
   10.6464  -18.2914   22.3024 C   0  0  0  0  0  0  0  0  0  0  0  0
    9.8337  -19.2355   22.2518 O   0  0  0  0  0  0  0  0  0  0  0  0
    8.5916  -14.6948   23.7857 C   0  0  0  0  0  0  0  0  0  0  0  0
    9.7282  -14.2679   24.0216 O   0  0  0  0  0  0  0  0  0  0  0  0
   12.0003  -18.5479   22.2927 O   0  0  0  0  0  0  0  0  0  0  0  0
    6.2399  -11.9589   25.3499 C   0  0  0  0  0  0  0  0  0  0  0  0
    6.7387  -12.8587   26.4359 C   0  0  2  0  0  0  0  0  0  0  0  0
    7.2109  -12.0226   27.6015 C   0  0  0  0  0  0  0  0  0  0  0  0
    7.8909  -13.7362   26.0046 C   0  0  2  0  0  0  0  0  0  0  0  0
    7.6028  -14.5000   24.8182 N   0  0  0  0  0  0  0  0  0  0  0  0
    8.3260  -14.6132   27.1221 C   0  0  0  0  0  0  0  0  0  0  0  0
    7.9659  -15.8127   27.1662 O   0  0  0  0  0  0  0  0  0  0  0  0
    9.1339  -14.1362   28.1370 O   0  0  0  0  0  0  0  0  0  0  0  0
  2  1  1  1
  2  3  1  0
  4  2  1  0
  4  6  1  0
  5  4  2  0
  7  6  1  0
  7 12  1  0
  7  8  1  1
  9  8  1  0
  9 10  1  0
 10 14  1  0
 11 10  2  0
 12 19  1  0
 12 13  2  0
 16 15  1  6
 17 16  1  0
 18 16  1  0
 18 20  1  0
 18 19  1  6
 20 22  1  0
 21 20  2  0
M  END
$$$$
