AEV.pdb
     RDKit          3D

 22 21  0  0  1  0  0  0  0  0999 V2000
    7.9926  -12.2601   19.7654 C   0  0  0  0  0  0  0  0  0  0  0  0
    8.1883  -13.7265   19.4361 C   0  0  2  0  0  0  0  0  0  0  0  0
    7.2613  -14.1321   18.3994 N   0  0  0  0  0  0  0  0  0  0  0  0
    7.9457  -14.5254   20.6702 C   0  0  0  0  0  0  0  0  0  0  0  0
    6.7812  -14.9188   20.9196 O   0  0  0  0  0  0  0  0  0  0  0  0
    8.9760  -14.8575   21.5713 N   0  0  0  0  0  0  0  0  0  0  0  0
    8.7659  -15.7771   22.7000 C   0  0  1  0  0  0  0  0  0  0  0  0
    9.6320  -16.9714   22.4062 C   0  0  0  0  0  0  0  0  0  0  0  0
   11.1047  -16.6352   22.3454 C   0  0  0  0  0  0  0  0  0  0  0  0
   11.9028  -17.8755   22.0948 C   0  0  0  0  0  0  0  0  0  0  0  0
   12.0386  -18.3649   20.9562 O   0  0  0  0  0  0  0  0  0  0  0  0
    9.0523  -15.1114   23.9748 C   0  0  0  0  0  0  0  0  0  0  0  0
    9.9234  -15.4663   24.7779 O   0  0  0  0  0  0  0  0  0  0  0  0
   12.5000  -18.4806   23.1793 O   0  0  0  0  0  0  0  0  0  0  0  0
    7.2337  -11.7456   27.2280 C   0  0  0  0  0  0  0  0  0  0  0  0
    7.1005  -12.4992   25.9427 C   0  0  2  0  0  0  0  0  0  0  0  0
    5.8172  -13.2954   25.9598 C   0  0  0  0  0  0  0  0  0  0  0  0
    8.2359  -13.4649   25.6941 C   0  0  2  0  0  0  0  0  0  0  0  0
    8.2720  -13.9540   24.3401 N   0  0  0  0  0  0  0  0  0  0  0  0
    8.1956  -14.5814   26.6734 C   0  0  0  0  0  0  0  0  0  0  0  0
    7.5406  -15.6208   26.4260 O   0  0  0  0  0  0  0  0  0  0  0  0
    8.8735  -14.5074   27.8756 O   0  0  0  0  0  0  0  0  0  0  0  0
  2  1  1  1
  2  3  1  0
  4  2  1  0
  4  6  1  0
  5  4  2  0
  7  6  1  0
  7 12  1  0
  7  8  1  6
  9  8  1  0
  9 10  1  0
 10 14  1  0
 11 10  2  0
 12 19  1  0
 12 13  2  0
 16 15  1  1
 17 16  1  0
 18 16  1  0
 18 20  1  0
 18 19  1  6
 20 22  1  0
 21 20  2  0
M  END
$$$$
