AEV.pdb
     RDKit          3D

 22 21  0  0  1  0  0  0  0  0999 V2000
    7.6078  -13.0644   19.8444 C   0  0  0  0  0  0  0  0  0  0  0  0
    7.6729  -14.5781   19.8067 C   0  0  2  0  0  0  0  0  0  0  0  0
    6.4063  -15.1202   19.3591 N   0  0  0  0  0  0  0  0  0  0  0  0
    7.9767  -15.0733   21.1788 C   0  0  0  0  0  0  0  0  0  0  0  0
    7.0404  -15.1816   22.0062 O   0  0  0  0  0  0  0  0  0  0  0  0
    9.2783  -15.4259   21.5851 N   0  0  0  0  0  0  0  0  0  0  0  0
    9.5577  -16.0089   22.9065 C   0  0  1  0  0  0  0  0  0  0  0  0
   10.8451  -16.7692   22.7413 C   0  0  0  0  0  0  0  0  0  0  0  0
   10.7212  -17.9481   21.8031 C   0  0  0  0  0  0  0  0  0  0  0  0
   12.0557  -18.5992   21.6204 C   0  0  0  0  0  0  0  0  0  0  0  0
   12.9961  -18.0407   21.0221 O   0  0  0  0  0  0  0  0  0  0  0  0
    9.5888  -14.9684   23.9392 C   0  0  0  0  0  0  0  0  0  0  0  0
   10.2566  -13.9293   23.8762 O   0  0  0  0  0  0  0  0  0  0  0  0
   12.2263  -19.8632   22.1420 O   0  0  0  0  0  0  0  0  0  0  0  0
    7.6298  -12.1924   27.2000 C   0  0  0  0  0  0  0  0  0  0  0  0
    7.5877  -13.2646   26.1577 C   0  0  2  0  0  0  0  0  0  0  0  0
    6.3572  -14.1155   26.3641 C   0  0  0  0  0  0  0  0  0  0  0  0
    8.7893  -14.1804   26.1916 C   0  0  2  0  0  0  0  0  0  0  0  0
    8.7884  -15.1491   25.1260 N   0  0  0  0  0  0  0  0  0  0  0  0
    8.9096  -14.8350   27.5198 C   0  0  0  0  0  0  0  0  0  0  0  0
    8.7438  -16.0717   27.6364 O   0  0  0  0  0  0  0  0  0  0  0  0
    9.2054  -14.1058   28.6560 O   0  0  0  0  0  0  0  0  0  0  0  0
  2  1  1  1
  2  3  1  0
  4  2  1  0
  4  6  1  0
  5  4  2  0
  7  6  1  0
  7 12  1  0
  7  8  1  6
  9  8  1  0
  9 10  1  0
 10 14  1  0
 11 10  2  0
 12 19  1  0
 12 13  2  0
 16 15  1  1
 17 16  1  0
 18 16  1  0
 18 20  1  0
 18 19  1  6
 20 22  1  0
 21 20  2  0
M  END
$$$$
