AEV.pdb
     RDKit          3D

 22 21  0  0  1  0  0  0  0  0999 V2000
    7.8702  -12.2993   19.7083 C   0  0  0  0  0  0  0  0  0  0  0  0
    8.2969  -13.7405   19.5134 C   0  0  2  0  0  0  0  0  0  0  0  0
    7.5047  -14.3577   18.4693 N   0  0  0  0  0  0  0  0  0  0  0  0
    8.0972  -14.4711   20.7966 C   0  0  0  0  0  0  0  0  0  0  0  0
    6.9407  -14.8406   21.1111 O   0  0  0  0  0  0  0  0  0  0  0  0
    9.1595  -14.7644   21.6736 N   0  0  0  0  0  0  0  0  0  0  0  0
    8.9573  -15.4905   22.9368 C   0  0  1  0  0  0  0  0  0  0  0  0
    9.8708  -16.6831   22.8603 C   0  0  0  0  0  0  0  0  0  0  0  0
    9.4242  -17.7076   21.8422 C   0  0  0  0  0  0  0  0  0  0  0  0
   10.3391  -18.8909   21.8717 C   0  0  0  0  0  0  0  0  0  0  0  0
   11.2151  -19.0375   22.7466 O   0  0  0  0  0  0  0  0  0  0  0  0
    9.1925  -14.6114   24.0867 C   0  0  0  0  0  0  0  0  0  0  0  0
   10.2239  -13.9557   24.2762 O   0  0  0  0  0  0  0  0  0  0  0  0
   10.1877  -19.8399   20.8841 O   0  0  0  0  0  0  0  0  0  0  0  0
    5.9076  -13.6208   26.7571 C   0  0  0  0  0  0  0  0  0  0  0  0
    7.2110  -12.8890   26.6993 C   0  0  2  0  0  0  0  0  0  0  0  0
    7.1178  -11.7801   25.6782 C   0  0  0  0  0  0  0  0  0  0  0  0
    8.3762  -13.7705   26.3138 C   0  0  2  0  0  0  0  0  0  0  0  0
    8.1570  -14.4866   25.0838 N   0  0  0  0  0  0  0  0  0  0  0  0
    8.7224  -14.6939   27.4249 C   0  0  0  0  0  0  0  0  0  0  0  0
    8.6139  -15.9338   27.2784 O   0  0  0  0  0  0  0  0  0  0  0  0
    9.1703  -14.2170   28.6424 O   0  0  0  0  0  0  0  0  0  0  0  0
  2  1  1  1
  2  3  1  0
  4  2  1  0
  4  6  1  0
  5  4  2  0
  7  6  1  0
  7 12  1  0
  7  8  1  1
  9  8  1  0
  9 10  1  0
 10 14  1  0
 11 10  2  0
 12 19  1  0
 12 13  2  0
 16 15  1  6
 17 16  1  0
 18 16  1  0
 18 20  1  0
 18 19  1  6
 20 22  1  0
 21 20  2  0
M  END
$$$$
